Measured thermophysical data. Volumetric, acoustic and spectroscopic studies (FT-IR) of trisodium (TSC) and tripotassium citrate (TPC) in aqueous solution of ionic liquid 1-butyl-3-methylimidazolium tetrafluoro borate [C4mim][BF4] at different temperatures
Source: J. Chem. Thermodyn., 2018, 10.1016/j.jct.2017.08.025
Compound 1: 1-butyl-3-methylimidazolium tetrafluoroborate, C8H15BF4N2, InChI=1S/C8H15N2.BF4/c1-3-4-5-10-7-6-9(2)8-10;2-1(3,4)5/h6-8H,3-5H2,1-2H3;/q+1;-1, purity 98%
Compound 2: trisodium citrate, C6H5Na3O7, InChI=1S/C6H8O7.3Na/c7-3(8)1-6(13,5(11)12)2-4(9)10;;;/h13H,1-2H2,(H,7,8)(H,9,10)(H,11,12);;;/q;3*+1/p-3, purity 99%
Compound 3: potassium citrate, C6H5K3O7, InChI=1S/C6H8O7.3K/c7-3(8)1-6(13,5(11)12)2-4(9)10;;;/h13H,1-2H2,(H,7,8)(H,9,10)(H,11,12);;;/q;3*+1/p-3, purity 99%
Compound 4: water, H2O, InChI=1S/H2O/h1H2

System: trisodium citrate + 1-butyl-3-methylimidazolium tetrafluoroborate + water; phases: Liquid
Fixed: Pressure, kPa = 100
Property: Mass density, kg/m3 (Liquid); method: Vibrating tube method
Temperature, K	Solvent: Molality, mol/kg of 1-butyl-3-methylimidazolium tetrafluoroborate	Molality, mol/kg of trisodium citrate	Mass density, kg/m3	uncertainty
288.15	0.005	0	999.42	2.014
288.15	0.005	0.1	1017.733	2.016
288.15	0.005	0.19979	1035.683	2.018
288.15	0.005	0.29789	1052.896	2.02
288.15	0.005	0.39673	1069.1	2.023
288.15	0.005	0.50218	1086.397	2.026
288.15	0.005	0.6026	1103.197	2.029
288.15	0.005	0.69911	1118.891	2.033
288.15	0.005	0.79045	1134.51	2.037
288.15	0.005	0.90087	1153.393	2.042
288.15	0.005	0.98635	1168.008	2.047
293.15	0.005	0	998.517	2.014
293.15	0.005	0.1	1016.569	2.015
293.15	0.005	0.19979	1034.485	2.017
293.15	0.005	0.29789	1051.703	2.02
293.15	0.005	0.39673	1067.806	2.022
293.15	0.005	0.50218	1085.263	2.026
293.15	0.005	0.6026	1101.984	2.029
293.15	0.005	0.69911	1117.781	2.033
293.15	0.005	0.79045	1133.138	2.037
293.15	0.005	0.90087	1151.906	2.042
293.15	0.005	0.98635	1166.379	2.047
298.15	0.005	0	997.393	2.014
298.15	0.005	0.1	1015.401	2.015
298.15	0.005	0.19979	1033.217	2.017
298.15	0.005	0.29789	1050.471	2.02
298.15	0.005	0.39673	1066.573	2.022
298.15	0.005	0.50218	1083.583	2.025
298.15	0.005	0.6026	1100.474	2.029
298.15	0.005	0.69911	1116.532	2.033
298.15	0.005	0.79045	1131.765	2.037
298.15	0.005	0.90087	1150.637	2.042
298.15	0.005	0.98635	1165.223	2.046
303.15	0.005	0	995.982	2.014
303.15	0.005	0.1	1013.823	2.015
303.15	0.005	0.19979	1031.611	2.017
303.15	0.005	0.29789	1048.712	2.019
303.15	0.005	0.39673	1064.913	2.022
303.15	0.005	0.50218	1082.093	2.025
303.15	0.005	0.6026	1098.853	2.029
303.15	0.005	0.69911	1114.672	2.032
303.15	0.005	0.79045	1129.995	2.036
303.15	0.005	0.90087	1148.909	2.042
303.15	0.005	0.98635	1163.399	2.046
308.15	0.005	0	994.365	2.014
308.15	0.005	0.1	1012.087	2.015
308.15	0.005	0.19979	1029.832	2.017
308.15	0.005	0.29789	1047.013	2.019
308.15	0.005	0.39673	1063.043	2.022
308.15	0.005	0.50218	1080.283	2.025
308.15	0.005	0.6026	1097.079	2.028
308.15	0.005	0.69911	1112.991	2.032
308.15	0.005	0.79045	1128.312	2.036
308.15	0.005	0.90087	1147.221	2.041
308.15	0.005	0.98635	1161.932	2.046
288.15	0.01	0	999.705	2.014
288.15	0.01	0.10096	1018.297	2.016
288.15	0.01	0.20122	1036.392	2.018
288.15	0.01	0.3027	1054.191	2.02
288.15	0.01	0.40447	1070.86	2.023
288.15	0.01	0.50044	1086.691	2.026
288.15	0.01	0.60262	1103.783	2.029
288.15	0.01	0.70111	1119.775	2.033
288.15	0.01	0.81069	1138.476	2.038
288.15	0.01	0.9129	1156.002	2.043
288.15	0.01	0.99761	1170.554	2.048
293.15	0.01	0	998.831	2.014
293.15	0.01	0.10096	1017.098	2.015
293.15	0.01	0.20122	1035.196	2.018
293.15	0.01	0.3027	1052.823	2.02
293.15	0.01	0.40447	1069.392	2.023
293.15	0.01	0.50044	1085.474	2.026
293.15	0.01	0.60262	1102.332	2.029
293.15	0.01	0.70111	1118.539	2.033
293.15	0.01	0.81069	1137.278	2.038
293.15	0.01	0.9129	1154.419	2.043
293.15	0.01	0.99761	1169.241	2.047
298.15	0.01	0	997.702	2.014
298.15	0.01	0.10096	1016.117	2.015
298.15	0.01	0.20122	1034.177	2.017
298.15	0.01	0.3027	1051.996	2.02
298.15	0.01	0.40447	1068.739	2.023
298.15	0.01	0.50044	1084.237	2.025
298.15	0.01	0.60262	1101.396	2.029
298.15	0.01	0.70111	1117.739	2.033
298.15	0.01	0.81069	1135.956	2.038
298.15	0.01	0.9129	1153.411	2.043
298.15	0.01	0.99761	1167.881	2.047
303.15	0.01	0	996.311	2.014
303.15	0.01	0.10096	1014.417	2.015
303.15	0.01	0.20122	1032.692	2.017
303.15	0.01	0.3027	1049.885	2.02
303.15	0.01	0.40447	1066.849	2.022
303.15	0.01	0.50044	1082.687	2.025
303.15	0.01	0.60262	1099.632	2.029
303.15	0.01	0.70111	1115.979	2.033
303.15	0.01	0.81069	1134.718	2.037
303.15	0.01	0.9129	1152.197	2.042
303.15	0.01	0.99761	1166.681	2.047
308.15	0.01	0	994.694	2.014
308.15	0.01	0.10096	1012.887	2.015
308.15	0.01	0.20122	1031.192	2.017
308.15	0.01	0.3027	1048.921	2.02
308.15	0.01	0.40447	1065.398	2.022
308.15	0.01	0.50044	1081.459	2.025
308.15	0.01	0.60262	1098.363	2.029
308.15	0.01	0.70111	1114.349	2.032
308.15	0.01	0.81069	1133.088	2.037
308.15	0.01	0.9129	1150.567	2.042
308.15	0.01	0.99761	1165.051	2.047
288.15	0.03	0	1000.856	2.014
288.15	0.03	0.09982	1019.085	2.016
288.15	0.03	0.20285	1037.54	2.018
288.15	0.03	0.29912	1054.559	2.02
288.15	0.03	0.40045	1071.298	2.023
288.15	0.03	0.50901	1089.292	2.026
288.15	0.03	0.59673	1104.25	2.029
288.15	0.03	0.70817	1123.295	2.034
288.15	0.03	0.79858	1139.293	2.038
288.15	0.03	0.8981	1156.599	2.043
288.15	0.03	1.00337	1174.904	2.049
293.15	0.03	0	999.967	2.014
293.15	0.03	0.09982	1017.869	2.016
293.15	0.03	0.20285	1036.299	2.018
293.15	0.03	0.29912	1053.296	2.02
293.15	0.03	0.40045	1069.978	2.023
293.15	0.03	0.50901	1087.71	2.026
293.15	0.03	0.59673	1102.741	2.029
293.15	0.03	0.70817	1121.997	2.034
293.15	0.03	0.79858	1137.911	2.038
293.15	0.03	0.8981	1155.013	2.043
293.15	0.03	1.00337	1172.985	2.048
298.15	0.03	0	998.803	2.014
298.15	0.03	0.09982	1016.377	2.015
298.15	0.03	0.20285	1034.822	2.018
298.15	0.03	0.29912	1051.851	2.02
298.15	0.03	0.40045	1068.387	2.022
298.15	0.03	0.50901	1086.52	2.026
298.15	0.03	0.59673	1101.245	2.029
298.15	0.03	0.70817	1120.468	2.033
298.15	0.03	0.79858	1136.065	2.037
298.15	0.03	0.8981	1153.232	2.042
298.15	0.03	1.00337	1171.39	2.048
303.15	0.03	0	997.512	2.014
303.15	0.03	0.09982	1014.953	2.015
303.15	0.03	0.20285	1033.398	2.017
303.15	0.03	0.29912	1050.128	2.02
303.15	0.03	0.40045	1066.763	2.022
303.15	0.03	0.50901	1085.096	2.026
303.15	0.03	0.59673	1099.88	2.029
303.15	0.03	0.70817	1119.186	2.033
303.15	0.03	0.79858	1134.8	2.037
303.15	0.03	0.8981	1151.988	2.042
303.15	0.03	1.00337	1170.166	2.048
308.15	0.03	0	995.895	2.014
308.15	0.03	0.09982	1013.35	2.015
308.15	0.03	0.20285	1031.795	2.017
308.15	0.03	0.29912	1048.734	2.02
308.15	0.03	0.40045	1065.299	2.022
308.15	0.03	0.50901	1083.442	2.025
308.15	0.03	0.59673	1098.337	2.028
308.15	0.03	0.70817	1117.583	2.033
308.15	0.03	0.79858	1133.197	2.037
308.15	0.03	0.8981	1150.385	2.042
308.15	0.03	1.00337	1168.563	2.047
288.15	0.05	0	1001.999	2.014
288.15	0.05	0.1012	1020.175	2.016
288.15	0.05	0.20106	1038.103	2.018
288.15	0.05	0.31077	1057.464	2.021
288.15	0.05	0.39979	1072.07	2.023
288.15	0.05	0.50451	1089.606	2.026
288.15	0.05	0.59853	1105.472	2.029
288.15	0.05	0.70511	1124.027	2.034
288.15	0.05	0.81055	1142.384	2.039
288.15	0.05	0.90882	1159.492	2.043
288.15	0.05	1.00984	1177.079	2.049
293.15	0.05	0	1000.997	2.014
293.15	0.05	0.1012	1019.291	2.016
293.15	0.05	0.20106	1036.929	2.018
293.15	0.05	0.31077	1056.566	2.02
293.15	0.05	0.39979	1071.199	2.023
293.15	0.05	0.50451	1088.655	2.026
293.15	0.05	0.59853	1104.521	2.029
293.15	0.05	0.70511	1123.076	2.034
293.15	0.05	0.81055	1141.433	2.038
293.15	0.05	0.90882	1158.541	2.043
293.15	0.05	1.00984	1176.128	2.049
298.15	0.05	0	999.906	2.014
298.15	0.05	0.1012	1017.927	2.016
298.15	0.05	0.20106	1035.697	2.018
298.15	0.05	0.31077	1055.292	2.02
298.15	0.05	0.39979	1069.867	2.023
298.15	0.05	0.50451	1087.241	2.026
298.15	0.05	0.59853	1103.189	2.029
298.15	0.05	0.70511	1121.723	2.033
298.15	0.05	0.81055	1140.059	2.038
298.15	0.05	0.90882	1157.148	2.043
298.15	0.05	1.00984	1174.715	2.049
303.15	0.05	0	998.675	2.014
303.15	0.05	0.1012	1016.177	2.015
303.15	0.05	0.20106	1034.05	2.017
303.15	0.05	0.31077	1053.597	2.02
303.15	0.05	0.39979	1068.421	2.022
303.15	0.05	0.50451	1085.947	2.026
303.15	0.05	0.59853	1101.743	2.029
303.15	0.05	0.70511	1120.277	2.033
303.15	0.05	0.81055	1138.613	2.038
303.15	0.05	0.90882	1155.702	2.043
303.15	0.05	1.00984	1173.269	2.048
308.15	0.05	0	996.998	2.014
308.15	0.05	0.1012	1014.515	2.015
308.15	0.05	0.20106	1032.388	2.017
308.15	0.05	0.31077	1051.935	2.02
308.15	0.05	0.39979	1066.759	2.022
308.15	0.05	0.50451	1084.285	2.025
308.15	0.05	0.59853	1100.081	2.029
308.15	0.05	0.70511	1118.615	2.033
308.15	0.05	0.81055	1136.951	2.038
308.15	0.05	0.90882	1154.04	2.043
308.15	0.05	1.00984	1171.607	2.048

System: trisodium citrate + 1-butyl-3-methylimidazolium tetrafluoroborate + water; phases: Liquid
Fixed: Pressure, kPa = 100
Fixed: Frequency, MHz = 3
Property: Speed of sound, m/s (Liquid); method: Single path-length method
Temperature, K	Solvent: Molality, mol/kg of 1-butyl-3-methylimidazolium tetrafluoroborate	Molality, mol/kg of trisodium citrate	Speed of sound, m/s	uncertainty
288.15	0.005	0	1464.68	4.14
288.15	0.005	0.100001	1485.56	4.14
288.15	0.005	0.199788	1506.4	4.14
288.15	0.005	0.297888	1527.21	4.14
288.15	0.005	0.396732	1547.53	4.14
288.15	0.005	0.502183	1569.55	4.14
288.15	0.005	0.602596	1590.52	4.14
288.15	0.005	0.699112	1610.68	4.14
288.15	0.005	0.790448	1629.75	4.14
288.15	0.005	0.900874	1652.81	4.14
288.15	0.005	0.986345	1670.66	4.14
293.15	0.005	0	1482.6	4.14
293.15	0.005	0.100001	1503.1	4.14
293.15	0.005	0.199788	1523.56	4.14
293.15	0.005	0.297888	1543.67	4.14
293.15	0.005	0.396732	1563.93	4.14
293.15	0.005	0.502183	1585.55	4.14
293.15	0.005	0.602596	1606.13	4.14
293.15	0.005	0.699112	1625.92	4.14
293.15	0.005	0.790448	1644.64	4.14
293.15	0.005	0.900874	1667.28	4.14
293.15	0.005	0.986345	1684.8	4.14
298.15	0.005	0	1497.47	4.14
298.15	0.005	0.100001	1517.77	4.14
298.15	0.005	0.199788	1538.03	4.14
298.15	0.005	0.297888	1557.94	4.14
298.15	0.005	0.396732	1578.01	4.14
298.15	0.005	0.502183	1599.41	4.14
298.15	0.005	0.602596	1619.8	4.14
298.15	0.005	0.699112	1639.39	4.14
298.15	0.005	0.790448	1657.93	4.14
298.15	0.005	0.900874	1680.35	4.14
298.15	0.005	0.986345	1697.7	4.14
303.15	0.005	0	1512.3	4.14
303.15	0.005	0.100001	1532.3	4.14
303.15	0.005	0.199788	1552.26	4.14
303.15	0.005	0.297888	1571.88	4.14
303.15	0.005	0.396732	1591.65	4.14
303.15	0.005	0.502183	1612.74	4.14
303.15	0.005	0.602596	1632.82	4.14
303.15	0.005	0.699112	1652.12	4.14
303.15	0.005	0.790448	1670.39	4.14
303.15	0.005	0.900874	1692.47	4.14
303.15	0.005	0.986345	1709.57	4.14
308.15	0.005	0	1519.64	4.14
308.15	0.005	0.100001	1539.54	4.14
308.15	0.005	0.199788	1559.4	4.14
308.15	0.005	0.297888	1578.92	4.14
308.15	0.005	0.396732	1598.59	4.14
308.15	0.005	0.502183	1619.57	4.14
308.15	0.005	0.602596	1639.56	4.14
308.15	0.005	0.699112	1658.76	4.14
308.15	0.005	0.790448	1676.94	4.14
308.15	0.005	0.900874	1698.91	4.14
308.15	0.005	0.986345	1715.92	4.14
288.15	0.01	0	1465.1	4.14
288.15	0.01	0.10096	1486.5	4.14
288.15	0.01	0.20122	1507.76	4.14
288.15	0.01	0.3027	1529.27	4.14
288.15	0.01	0.40447	1550.85	4.14
288.15	0.01	0.50044	1571.19	4.14
288.15	0.01	0.60262	1592.86	4.14
288.15	0.01	0.70111	1613.73	4.14
288.15	0.01	0.81069	1636.97	4.14
288.15	0.01	0.9129	1658.64	4.14
288.15	0.01	0.99761	1676.59	4.14
293.15	0.01	0	1483.1	4.14
293.15	0.01	0.10096	1503.93	4.14
293.15	0.01	0.20122	1524.61	4.14
293.15	0.01	0.3027	1545.55	4.14
293.15	0.01	0.40447	1566.54	4.14
293.15	0.01	0.50044	1587	4.14
293.15	0.01	0.60262	1607.42	4.14
293.15	0.01	0.70111	1627.74	4.14
293.15	0.01	0.81069	1649.76	4.14
293.15	0.01	0.9129	1670.91	4.14
293.15	0.01	0.99761	1688.91	4.14
298.15	0.01	0	1497.93	4.14
298.15	0.01	0.10096	1518.54	4.14
298.15	0.01	0.20122	1539	4.14
298.15	0.01	0.3027	1559.71	4.14
298.15	0.01	0.40447	1580.48	4.14
298.15	0.01	0.50044	1600.43	4.14
298.15	0.01	0.60262	1620.93	4.14
298.15	0.01	0.70111	1641.03	4.14
298.15	0.01	0.81069	1663.39	4.14
298.15	0.01	0.9129	1684.25	4.14
298.15	0.01	0.99761	1701.54	4.14
303.15	0.01	0	1512.76	4.14
303.15	0.01	0.10096	1533.13	4.14
303.15	0.01	0.20122	1553.36	4.14
303.15	0.01	0.3027	1573.84	4.14
303.15	0.01	0.40447	1594.38	4.14
303.15	0.01	0.50044	1613.75	4.14
303.15	0.01	0.60262	1634.37	4.14
303.15	0.01	0.70111	1654.24	4.14
303.15	0.01	0.81069	1676.36	4.14
303.15	0.01	0.9129	1696.98	4.14
303.15	0.01	0.99761	1714.08	4.14
308.15	0.01	0	1520.56	4.14
308.15	0.01	0.10096	1540.8	4.14
308.15	0.01	0.20122	1560.9	4.14
308.15	0.01	0.3027	1581.25	4.14
308.15	0.01	0.40447	1601.66	4.14
308.15	0.01	0.50044	1620.9	4.14
308.15	0.01	0.60262	1641.39	4.14
308.15	0.01	0.70111	1661.13	4.14
308.15	0.01	0.81069	1683.1	4.14
308.15	0.01	0.9129	1703.6	4.14
308.15	0.01	0.99761	1720.58	4.14
288.15	0.03	0	1466.96	4.14
288.15	0.03	0.09982	1488.22	4.14
288.15	0.03	0.20285	1510.17	4.14
288.15	0.03	0.29912	1530.67	4.14
288.15	0.03	0.40045	1552.26	4.14
288.15	0.03	0.50901	1575.38	4.14
288.15	0.03	0.59673	1594.06	4.14
288.15	0.03	0.70817	1617.8	4.14
288.15	0.03	0.79858	1637.06	4.14
288.15	0.03	0.8981	1658.73	4.14
288.15	0.03	1.00337	1680.68	4.14
293.15	0.03	0	1484.88	4.14
293.15	0.03	0.09982	1505.53	4.14
293.15	0.03	0.20285	1526.85	4.14
293.15	0.03	0.29912	1546.77	4.14
293.15	0.03	0.40045	1567.73	4.14
293.15	0.03	0.50901	1590.19	4.14
293.15	0.03	0.59673	1608.34	4.14
293.15	0.03	0.70817	1631.4	4.14
293.15	0.03	0.79858	1650.11	4.14
293.15	0.03	0.8981	1670.98	4.14
293.15	0.03	1.00337	1692.48	4.14
298.15	0.03	0	1499.75	4.14
298.15	0.03	0.09982	1520.31	4.14
298.15	0.03	0.20285	1541.54	4.14
298.15	0.03	0.29912	1561.37	4.14
298.15	0.03	0.40045	1582.24	4.14
298.15	0.03	0.50901	1604.61	4.14
298.15	0.03	0.59673	1622.68	4.14
298.15	0.03	0.70817	1645.63	4.14
298.15	0.03	0.79858	1664.26	4.14
298.15	0.03	0.8981	1684.76	4.14
298.15	0.03	1.00337	1706.44	4.14
303.15	0.03	0	1514.58	4.14
303.15	0.03	0.09982	1534.75	4.14
303.15	0.03	0.20285	1555.58	4.14
303.15	0.03	0.29912	1575.03	4.14
303.15	0.03	0.40045	1595.51	4.14
303.15	0.03	0.50901	1617.45	4.14
303.15	0.03	0.59673	1635.18	4.14
303.15	0.03	0.70817	1657.7	4.14
303.15	0.03	0.79858	1676.45	4.14
303.15	0.03	0.8981	1697.03	4.14
303.15	0.03	1.00337	1717.36	4.14
308.15	0.03	0	1522.38	4.14
308.15	0.03	0.09982	1542.54	4.14
308.15	0.03	0.20285	1563.36	4.14
308.15	0.03	0.29912	1582.8	4.14
308.15	0.03	0.40045	1603.27	4.14
308.15	0.03	0.50901	1625.2	4.14
308.15	0.03	0.59673	1642.92	4.14
308.15	0.03	0.70817	1665.43	4.14
308.15	0.03	0.79858	1683.69	4.14
308.15	0.03	0.8981	1703.8	4.14
308.15	0.03	1.00337	1725.06	4.14
288.15	0.05	0	1468.78	4.14
288.15	0.05	0.1012	1490.23	4.14
288.15	0.05	0.20106	1511.4	4.14
288.15	0.05	0.31077	1534.66	4.14
288.15	0.05	0.39979	1553.54	4.14
288.15	0.05	0.50451	1575.74	4.14
288.15	0.05	0.59853	1595.67	4.14
288.15	0.05	0.70511	1618.26	4.14
288.15	0.05	0.81055	1640.62	4.14
288.15	0.05	0.90882	1661.45	4.14
288.15	0.05	1.00984	1682.87	4.14
293.15	0.05	0	1486.7	4.14
293.15	0.05	0.1012	1507.55	4.14
293.15	0.05	0.20106	1528.12	4.14
293.15	0.05	0.31077	1550.72	4.14
293.15	0.05	0.39979	1569.06	4.14
293.15	0.05	0.50451	1590.63	4.14
293.15	0.05	0.59853	1610	4.14
293.15	0.05	0.70511	1631.95	4.14
293.15	0.05	0.81055	1653.67	4.14
293.15	0.05	0.90882	1673.92	4.14
293.15	0.05	1.00984	1694.73	4.14
298.15	0.05	0	1501.57	4.14
298.15	0.05	0.1012	1522.32	4.14
298.15	0.05	0.20106	1542.79	4.14
298.15	0.05	0.31077	1565.28	4.14
298.15	0.05	0.39979	1583.53	4.14
298.15	0.05	0.50451	1604.99	4.14
298.15	0.05	0.59853	1624.27	4.14
298.15	0.05	0.70511	1646.12	4.14
298.15	0.05	0.81055	1667.73	4.14
298.15	0.05	0.90882	1687.88	4.14
298.15	0.05	1.00984	1708.59	4.14
303.15	0.05	0	1516.4	4.14
303.15	0.05	0.1012	1536.75	4.14
303.15	0.05	0.20106	1556.83	4.14
303.15	0.05	0.31077	1578.9	4.14
303.15	0.05	0.39979	1596.8	4.14
303.15	0.05	0.50451	1617.86	4.14
303.15	0.05	0.59853	1636.77	4.14
303.15	0.05	0.70511	1658.2	4.14
303.15	0.05	0.81055	1679.4	4.14
303.15	0.05	0.90882	1699.62	4.14
303.15	0.05	1.00984	1719.68	4.14
308.15	0.05	0	1524.2	4.14
308.15	0.05	0.1012	1544.61	4.14
308.15	0.05	0.20106	1564.75	4.14
308.15	0.05	0.31077	1586.88	4.14
308.15	0.05	0.39979	1604.84	4.14
308.15	0.05	0.50451	1625.96	4.14
308.15	0.05	0.59853	1644.92	4.14
308.15	0.05	0.70511	1666.42	4.14
308.15	0.05	0.81055	1687.69	4.14
308.15	0.05	0.90882	1707.51	4.14
308.15	0.05	1.00984	1727.88	4.14

System: potassium citrate + 1-butyl-3-methylimidazolium tetrafluoroborate + water; phases: Liquid
Fixed: Pressure, kPa = 100
Property: Mass density, kg/m3 (Liquid); method: Vibrating tube method
Temperature, K	Solvent: Molality, mol/kg of 1-butyl-3-methylimidazolium tetrafluoroborate	Molality, mol/kg of potassium citrate	Mass density, kg/m3	uncertainty
288.15	0.005	0	999.42	2.014
288.15	0.005	0.09907	1019.682	2.016
288.15	0.005	0.20014	1040.431	2.018
288.15	0.005	0.30267	1061.481	2.021
288.15	0.005	0.3888	1079.163	2.024
288.15	0.005	0.49833	1101.651	2.028
288.15	0.005	0.60326	1123.019	2.032
288.15	0.005	0.69585	1142.201	2.036
288.15	0.005	0.79996	1163.575	2.042
288.15	0.005	0.90017	1184.148	2.048
288.15	0.005	0.99678	1203.982	2.054
293.15	0.005	0	998.517	2.014
293.15	0.005	0.09907	1018.739	2.016
293.15	0.005	0.20014	1039.448	2.018
293.15	0.005	0.30267	1060.457	2.021
293.15	0.005	0.3888	1078.105	2.024
293.15	0.005	0.49833	1100.548	2.027
293.15	0.005	0.60326	1122.048	2.032
293.15	0.005	0.69585	1141.02	2.036
293.15	0.005	0.79996	1162.352	2.042
293.15	0.005	0.90017	1182.885	2.047
293.15	0.005	0.99678	1202.68	2.053
298.15	0.005	0	997.393	2.014
298.15	0.005	0.09907	1017.62	2.015
298.15	0.005	0.20014	1038.359	2.018
298.15	0.005	0.30267	1059.399	2.021
298.15	0.005	0.3888	1077.072	2.023
298.15	0.005	0.49833	1099.549	2.027
298.15	0.005	0.60326	1121.08	2.032
298.15	0.005	0.69585	1140.079	2.036
298.15	0.005	0.79996	1161.443	2.041
298.15	0.005	0.90017	1182.006	2.047
298.15	0.005	0.99678	1201.83	2.053
303.15	0.005	0	995.982	2.014
303.15	0.005	0.09907	1016.179	2.015
303.15	0.005	0.20014	1036.888	2.018
303.15	0.005	0.30267	1057.897	2.021
303.15	0.005	0.3888	1075.545	2.023
303.15	0.005	0.49833	1098.188	2.027
303.15	0.005	0.60326	1119.729	2.032
303.15	0.005	0.69585	1138.738	2.036
303.15	0.005	0.79996	1160.112	2.041
303.15	0.005	0.90017	1180.685	2.047
303.15	0.005	0.99678	1200.519	2.053
308.15	0.005	0	994.365	2.014
308.15	0.005	0.09907	1014.582	2.015
308.15	0.005	0.20014	1035.311	2.018
308.15	0.005	0.30267	1056.341	2.02
308.15	0.005	0.3888	1074.005	2.023
308.15	0.005	0.49833	1096.571	2.027
308.15	0.005	0.60326	1118.112	2.031
308.15	0.005	0.69585	1137.121	2.036
308.15	0.005	0.79996	1158.495	2.041
308.15	0.005	0.90017	1179.068	2.047
308.15	0.005	0.99678	1198.902	2.053
288.15	0.01	0	999.705	2.014
288.15	0.01	0.09923	1020.146	2.016
288.15	0.01	0.20394	1041.717	2.018
288.15	0.01	0.3086	1063.277	2.021
288.15	0.01	0.39814	1081.722	2.024
288.15	0.01	0.51377	1105.542	2.028
288.15	0.01	0.59952	1123.206	2.032
288.15	0.01	0.71561	1147.121	2.037
288.15	0.01	0.81175	1166.926	2.043
288.15	0.01	0.93449	1192.11	2.05
288.15	0.01	1.01928	1209.677	2.055
293.15	0.01	0	998.831	2.014
293.15	0.01	0.09923	1018.999	2.016
293.15	0.01	0.20394	1040.47	2.018
293.15	0.01	0.3086	1061.93	2.021
293.15	0.01	0.39814	1080.291	2.024
293.15	0.01	0.51377	1104.001	2.028
293.15	0.01	0.59952	1121.584	2.032
293.15	0.01	0.71561	1145.388	2.037
293.15	0.01	0.81175	1165.101	2.042
293.15	0.01	0.93449	1190.269	2.049
293.15	0.01	1.01928	1207.655	2.055
298.15	0.01	0	997.7	2.014
298.15	0.01	0.09923	1018.062	2.016
298.15	0.01	0.20394	1039.548	2.018
298.15	0.01	0.3086	1061.065	2.021
298.15	0.01	0.39814	1079.398	2.024
298.15	0.01	0.51377	1103.126	2.028
298.15	0.01	0.59952	1120.722	2.032
298.15	0.01	0.71561	1144.543	2.037
298.15	0.01	0.81175	1164.271	2.042
298.15	0.01	0.93449	1189.457	2.049
298.15	0.01	1.01928	1206.856	2.055
303.15	0.01	0	996.31	2.014
303.15	0.01	0.09923	1016.672	2.015
303.15	0.01	0.20394	1038.158	2.018
303.15	0.01	0.3086	1059.635	2.021
303.15	0.01	0.39814	1078.008	2.024
303.15	0.01	0.51377	1101.736	2.028
303.15	0.01	0.59952	1119.332	2.031
303.15	0.01	0.71561	1143.153	2.037
303.15	0.01	0.81175	1162.881	2.042
303.15	0.01	0.93449	1188.067	2.049
303.15	0.01	1.01928	1205.466	2.055
308.15	0.01	0	994.694	2.014
308.15	0.01	0.09923	1015.076	2.015
308.15	0.01	0.20394	1036.583	2.018
308.15	0.01	0.3086	1058.08	2.021
308.15	0.01	0.39814	1076.472	2.023
308.15	0.01	0.51377	1100.222	2.028
308.15	0.01	0.59952	1117.835	2.031
308.15	0.01	0.71561	1141.68	2.037
308.15	0.01	0.81175	1161.427	2.042
308.15	0.01	0.93449	1186.638	2.049
308.15	0.01	1.01928	1204.054	2.054
288.15	0.03	0	1000.86	2.014
288.15	0.03	0.09855	1021.141	2.016
288.15	0.03	0.20033	1042.087	2.018
288.15	0.03	0.30391	1063.405	2.021
288.15	0.03	0.39838	1082.848	2.024
288.15	0.03	0.51131	1106.088	2.028
288.15	0.03	0.60718	1125.819	2.032
288.15	0.03	0.70986	1147.233	2.037
288.15	0.03	0.81667	1168.931	2.043
288.15	0.03	0.92985	1192.222	2.05
288.15	0.03	1.019	1210.57	2.056
293.15	0.03	0	999.97	2.014
293.15	0.03	0.09855	1020.192	2.016
293.15	0.03	0.20033	1041.077	2.018
293.15	0.03	0.30391	1062.333	2.021
293.15	0.03	0.39838	1081.719	2.024
293.15	0.03	0.51131	1104.891	2.028
293.15	0.03	0.60718	1124.564	2.032
293.15	0.03	0.70986	1145.846	2.037
293.15	0.03	0.81667	1167.551	2.043
293.15	0.03	0.92985	1190.705	2.049
293.15	0.03	1.019	1209.068	2.055
298.15	0.03	0	998.803	2.014
298.15	0.03	0.09855	1019.065	2.016
298.15	0.03	0.20033	1039.99	2.018
298.15	0.03	0.30391	1061.287	2.021
298.15	0.03	0.39838	1080.711	2.024
298.15	0.03	0.51131	1103.929	2.028
298.15	0.03	0.60718	1123.64	2.032
298.15	0.03	0.70986	1144.75	2.037
298.15	0.03	0.81667	1166.711	2.043
298.15	0.03	0.92985	1189.98	2.049
298.15	0.03	1.019	1208.309	2.055
303.15	0.03	0	997.51	2.014
303.15	0.03	0.09855	1017.752	2.016
303.15	0.03	0.20033	1038.657	2.018
303.15	0.03	0.30391	1059.934	2.021
303.15	0.03	0.39838	1079.338	2.024
303.15	0.03	0.51131	1102.533	2.028
303.15	0.03	0.60718	1122.226	2.032
303.15	0.03	0.70986	1143.316	2.037
303.15	0.03	0.81667	1165.255	2.042
303.15	0.03	0.92985	1188.501	2.049
303.15	0.03	1.019	1206.812	2.055
308.15	0.03	0	995.895	2.014
308.15	0.03	0.09855	1016.137	2.015
308.15	0.03	0.20033	1037.042	2.018
308.15	0.03	0.30391	1058.319	2.021
308.15	0.03	0.39838	1077.723	2.024
308.15	0.03	0.51131	1100.918	2.028
308.15	0.03	0.60718	1120.611	2.032
308.15	0.03	0.70986	1141.701	2.036
308.15	0.03	0.81667	1163.64	2.042
308.15	0.03	0.92985	1186.886	2.049
308.15	0.03	1.019	1205.197	2.055
288.15	0.05	0	1002	2.014
288.15	0.05	0.09827	1022.253	2.016
288.15	0.05	0.2007	1043.364	2.018
288.15	0.05	0.30545	1064.953	2.021
288.15	0.05	0.40209	1084.87	2.024
288.15	0.05	0.5072	1106.534	2.028
288.15	0.05	0.60398	1126.481	2.032
288.15	0.05	0.70671	1147.653	2.037
288.15	0.05	0.81206	1169.365	2.043
288.15	0.05	0.92659	1192.971	2.05
288.15	0.05	1.03975	1216.292	2.057
293.15	0.05	0	1001	2.014
293.15	0.05	0.09827	1021.214	2.016
293.15	0.05	0.2007	1042.284	2.018
293.15	0.05	0.30545	1063.831	2.021
293.15	0.05	0.40209	1083.709	2.024
293.15	0.05	0.5072	1105.331	2.028
293.15	0.05	0.60398	1125.239	2.032
293.15	0.05	0.70671	1146.37	2.037
293.15	0.05	0.81206	1168.04	2.043
293.15	0.05	0.92659	1191.6	2.05
293.15	0.05	1.03975	1214.876	2.057
298.15	0.05	0	999.91	2.014
298.15	0.05	0.09827	1020.134	2.016
298.15	0.05	0.2007	1041.214	2.018
298.15	0.05	0.30545	1062.772	2.021
298.15	0.05	0.40209	1082.659	2.024
298.15	0.05	0.5072	1104.292	2.028
298.15	0.05	0.60398	1124.209	2.032
298.15	0.05	0.70671	1145.351	2.037
298.15	0.05	0.81206	1167.031	2.043
298.15	0.05	0.92659	1190.603	2.049
298.15	0.05	1.03975	1213.89	2.057
303.15	0.05	0	998.68	2.014
303.15	0.05	0.09827	1018.904	2.016
303.15	0.05	0.2007	1039.984	2.018
303.15	0.05	0.30545	1061.542	2.021
303.15	0.05	0.40209	1081.429	2.024
303.15	0.05	0.5072	1103.062	2.028
303.15	0.05	0.60398	1122.979	2.032
303.15	0.05	0.70671	1144.121	2.037
303.15	0.05	0.81206	1165.801	2.042
303.15	0.05	0.92659	1189.373	2.049
303.15	0.05	1.03975	1212.66	2.057
308.15	0.05	0	997	2.014
308.15	0.05	0.09827	1017.185	2.015
308.15	0.05	0.2007	1038.224	2.018
308.15	0.05	0.30545	1059.74	2.021
308.15	0.05	0.40209	1079.588	2.024
308.15	0.05	0.5072	1101.179	2.028
308.15	0.05	0.60398	1121.058	2.032
308.15	0.05	0.70671	1142.158	2.036
308.15	0.05	0.81206	1163.796	2.042
308.15	0.05	0.92659	1187.322	2.049
308.15	0.05	1.03975	1210.564	2.056

System: potassium citrate + 1-butyl-3-methylimidazolium tetrafluoroborate + water; phases: Liquid
Fixed: Pressure, kPa = 100
Fixed: Frequency, MHz = 3
Property: Speed of sound, m/s (Liquid); method: Single path-length method
Temperature, K	Solvent: Molality, mol/kg of 1-butyl-3-methylimidazolium tetrafluoroborate	Molality, mol/kg of potassium citrate	Speed of sound, m/s	uncertainty
288.15	0.005	0	1464.68	4.14
288.15	0.005	0.09907	1485.15	4.14
288.15	0.005	0.20014	1506.03	4.14
288.15	0.005	0.30267	1527.09	4.14
288.15	0.005	0.3888	1545.5	4.14
288.15	0.005	0.49833	1567.64	4.14
288.15	0.005	0.60326	1589.31	4.14
288.15	0.005	0.69585	1608.44	4.14
288.15	0.005	0.79996	1629.68	4.14
288.15	0.005	0.90017	1650.66	4.14
288.15	0.005	0.99678	1670.61	4.14
293.15	0.005	0	1482.6	4.14
293.15	0.005	0.09907	1502.54	4.14
293.15	0.005	0.20014	1522.89	4.14
293.15	0.005	0.30267	1543.53	4.14
293.15	0.005	0.3888	1560.86	4.14
293.15	0.005	0.49833	1582.91	4.14
293.15	0.005	0.60326	1604.04	4.14
293.15	0.005	0.69585	1622.67	4.14
293.15	0.005	0.79996	1643.63	4.14
293.15	0.005	0.90017	1663.04	4.14
293.15	0.005	0.99678	1683.05	4.14
298.15	0.005	0	1497.47	4.14
298.15	0.005	0.09907	1517.21	4.14
298.15	0.005	0.20014	1537.36	4.14
298.15	0.005	0.30267	1557.79	4.14
298.15	0.005	0.3888	1574.96	4.14
298.15	0.005	0.49833	1596.79	4.14
298.15	0.005	0.60326	1617.7	4.14
298.15	0.005	0.69585	1636.15	4.14
298.15	0.005	0.79996	1656.9	4.14
298.15	0.005	0.90017	1676.87	4.14
298.15	0.005	0.99678	1696.13	4.14
303.15	0.005	0	1512.3	4.14
303.15	0.005	0.09907	1531.85	4.14
303.15	0.005	0.20014	1551.79	4.14
303.15	0.005	0.30267	1571.78	4.14
303.15	0.005	0.3888	1589.01	4.14
303.15	0.005	0.49833	1610.1	4.14
303.15	0.005	0.60326	1630.81	4.14
303.15	0.005	0.69585	1649.12	4.14
303.15	0.005	0.79996	1669.39	4.14
303.15	0.005	0.90017	1689.04	4.14
303.15	0.005	0.99678	1708.47	4.14
308.15	0.005	0	1519.64	4.14
308.15	0.005	0.09907	1539.09	4.14
308.15	0.005	0.20014	1558.93	4.14
308.15	0.005	0.30267	1578.81	4.14
308.15	0.005	0.3888	1595.96	4.14
308.15	0.005	0.49833	1617.06	4.14
308.15	0.005	0.60326	1637.94	4.14
308.15	0.005	0.69585	1656.24	4.14
308.15	0.005	0.79996	1676.67	4.14
308.15	0.005	0.90017	1696.34	4.14
308.15	0.005	0.99678	1715.31	4.14
288.15	0.01	0	1465.1	4.14
288.15	0.01	0.09923	1485.68	4.14
288.15	0.01	0.20394	1507.4	4.14
288.15	0.01	0.3086	1529.1	4.14
288.15	0.01	0.39814	1547.67	4.14
288.15	0.01	0.51377	1571.09	4.14
288.15	0.01	0.59952	1589.6	4.14
288.15	0.01	0.71561	1613.05	4.14
288.15	0.01	0.81175	1633.46	4.14
288.15	0.01	0.93449	1658.2	4.14
288.15	0.01	1.01928	1676.5	4.14
293.15	0.01	0	1483.06	4.14
293.15	0.01	0.09923	1503.02	4.14
293.15	0.01	0.20394	1524.07	4.14
293.15	0.01	0.3086	1545.12	4.14
293.15	0.01	0.39814	1563.13	4.14
293.15	0.01	0.51377	1586.62	4.14
293.15	0.01	0.59952	1604.18	4.14
293.15	0.01	0.71561	1626.8	4.14
293.15	0.01	0.81175	1646.54	4.14
293.15	0.01	0.93449	1670.59	4.14
293.15	0.01	1.01928	1688.63	4.14
298.15	0.01	0	1497.93	4.14
298.15	0.01	0.09923	1517.71	4.14
298.15	0.01	0.20394	1538.58	4.14
298.15	0.01	0.3086	1559.43	4.14
298.15	0.01	0.39814	1577.28	4.14
298.15	0.01	0.51377	1600.32	4.14
298.15	0.01	0.59952	1617.77	4.14
298.15	0.01	0.71561	1640.49	4.14
298.15	0.01	0.81175	1659.71	4.14
298.15	0.01	0.93449	1684.17	4.14
298.15	0.01	1.01928	1701.07	4.14
303.15	0.01	0	1512.76	4.14
303.15	0.01	0.09923	1532.31	4.14
303.15	0.01	0.20394	1552.94	4.14
303.15	0.01	0.3086	1573.55	4.14
303.15	0.01	0.39814	1591.19	4.14
303.15	0.01	0.51377	1613.62	4.14
303.15	0.01	0.59952	1630.99	4.14
303.15	0.01	0.71561	1653.74	4.14
303.15	0.01	0.81175	1673.11	4.14
303.15	0.01	0.93449	1696.85	4.14
303.15	0.01	1.01928	1713.87	4.14
308.15	0.01	0	1520.56	4.14
308.15	0.01	0.09923	1540.01	4.14
308.15	0.01	0.20394	1560.53	4.14
308.15	0.01	0.3086	1581.05	4.14
308.15	0.01	0.39814	1598.6	4.14
308.15	0.01	0.51377	1620.72	4.14
308.15	0.01	0.59952	1638.07	4.14
308.15	0.01	0.71561	1660.82	4.14
308.15	0.01	0.81175	1679.66	4.14
308.15	0.01	0.93449	1703.51	4.14
308.15	0.01	1.01928	1720.34	4.14
288.15	0.03	0	1467	4.14
288.15	0.03	0.09855	1487.3	4.14
288.15	0.03	0.20033	1508.27	4.14
288.15	0.03	0.30391	1529.61	4.14
288.15	0.03	0.39838	1549.07	4.14
288.15	0.03	0.51131	1572.33	4.14
288.15	0.03	0.60718	1592.08	4.14
288.15	0.03	0.70986	1613.23	4.14
288.15	0.03	0.81667	1635.23	4.14
288.15	0.03	0.92985	1657.89	4.14
288.15	0.03	1.019	1676.91	4.14
293.15	0.03	0	1484.88	4.14
293.15	0.03	0.09855	1504.59	4.14
293.15	0.03	0.20033	1524.95	4.14
293.15	0.03	0.30391	1545.66	4.14
293.15	0.03	0.39838	1564.56	4.14
293.15	0.03	0.51131	1587.14	4.14
293.15	0.03	0.60718	1606.32	4.14
293.15	0.03	0.70986	1626.97	4.14
293.15	0.03	0.81667	1648.21	4.14
293.15	0.03	0.92985	1670.85	4.14
293.15	0.03	1.019	1688.68	4.14
298.15	0.03	0	1499.75	4.14
298.15	0.03	0.09855	1519.25	4.14
298.15	0.03	0.20033	1539.39	4.14
298.15	0.03	0.30391	1559.89	4.14
298.15	0.03	0.39838	1578.59	4.14
298.15	0.03	0.51131	1600.94	4.14
298.15	0.03	0.60718	1619.91	4.14
298.15	0.03	0.70986	1640.52	4.14
298.15	0.03	0.81667	1661.37	4.14
298.15	0.03	0.92985	1684.29	4.14
298.15	0.03	1.019	1701.41	4.14
303.15	0.03	0	1514.58	4.14
303.15	0.03	0.09855	1533.93	4.14
303.15	0.03	0.20033	1553.9	4.14
303.15	0.03	0.30391	1574.24	4.14
303.15	0.03	0.39838	1592.78	4.14
303.15	0.03	0.51131	1614.95	4.14
303.15	0.03	0.60718	1633.77	4.14
303.15	0.03	0.70986	1653.93	4.14
303.15	0.03	0.81667	1674.89	4.14
303.15	0.03	0.92985	1697.02	4.14
303.15	0.03	1.019	1714.61	4.14
308.15	0.03	0	1522.38	4.14
308.15	0.03	0.09855	1541.61	4.14
308.15	0.03	0.20033	1561.46	4.14
308.15	0.03	0.30391	1581.67	4.14
308.15	0.03	0.39838	1600.1	4.14
308.15	0.03	0.51131	1622.14	4.14
308.15	0.03	0.60718	1640.84	4.14
308.15	0.03	0.70986	1660.87	4.14
308.15	0.03	0.81667	1681.71	4.14
308.15	0.03	0.92985	1703.79	4.14
308.15	0.03	1.019	1721.19	4.14
288.15	0.05	0	1468.8	4.14
288.15	0.05	0.09827	1488.95	4.14
288.15	0.05	0.2007	1509.94	4.14
288.15	0.05	0.30545	1531.42	4.14
288.15	0.05	0.40209	1551.23	4.14
288.15	0.05	0.5072	1572.78	4.14
288.15	0.05	0.60398	1592.62	4.14
288.15	0.05	0.70671	1613.68	4.14
288.15	0.05	0.81206	1635.27	4.14
288.15	0.05	0.92659	1658.75	4.14
288.15	0.05	1.03975	1681.95	4.14
293.15	0.05	0	1486.7	4.14
293.15	0.05	0.09827	1506.35	4.14
293.15	0.05	0.2007	1526.84	4.14
293.15	0.05	0.30545	1547.79	4.14
293.15	0.05	0.40209	1567.12	4.14
293.15	0.05	0.5072	1588.14	4.14
293.15	0.05	0.60398	1607.5	4.14
293.15	0.05	0.70671	1628.04	4.14
293.15	0.05	0.81206	1649.11	4.14
293.15	0.05	0.92659	1672.02	4.14
293.15	0.05	1.03975	1694.65	4.14
298.15	0.05	0	1501.57	4.14
298.15	0.05	0.09827	1521.03	4.14
298.15	0.05	0.2007	1541.31	4.14
298.15	0.05	0.30545	1562.05	4.14
298.15	0.05	0.40209	1581.18	4.14
298.15	0.05	0.5072	1602	4.14
298.15	0.05	0.60398	1621.16	4.14
298.15	0.05	0.70671	1641.5	4.14
298.15	0.05	0.81206	1662.36	4.14
298.15	0.05	0.92659	1685.04	4.14
298.15	0.05	1.03975	1707.44	4.14
303.15	0.05	0	1516.4	4.14
303.15	0.05	0.09827	1535.63	4.14
303.15	0.05	0.2007	1555.68	4.14
303.15	0.05	0.30545	1576.18	4.14
303.15	0.05	0.40209	1595.09	4.14
303.15	0.05	0.5072	1615.66	4.14
303.15	0.05	0.60398	1634.6	4.14
303.15	0.05	0.70671	1654.7	4.14
303.15	0.05	0.81206	1675.32	4.14
303.15	0.05	0.92659	1697.73	4.14
303.15	0.05	1.03975	1719.67	4.14
308.15	0.05	0	1524.2	4.14
308.15	0.05	0.09827	1543.44	4.14
308.15	0.05	0.2007	1563.5	4.14
308.15	0.05	0.30545	1584.01	4.14
308.15	0.05	0.40209	1602.93	4.14
308.15	0.05	0.5072	1623.51	4.14
308.15	0.05	0.60398	1642.46	4.14
308.15	0.05	0.70671	1662.57	4.14
308.15	0.05	0.81206	1683.2	4.14
308.15	0.05	0.92659	1705.63	4.14
308.15	0.05	1.03975	1727.78	4.14

System: 1-butyl-3-methylimidazolium tetrafluoroborate + water; phases: Liquid
Fixed: Pressure, kPa = 100
Property: Mass density, kg/m3 (Liquid); method: Vibrating tube method
Temperature, K	Molality, mol/kg of 1-butyl-3-methylimidazolium tetrafluoroborate	Mass density, kg/m3	uncertainty
288.15	0.005	999.42	2.014
293.15	0.005	998.517	2.014
298.15	0.005	997.393	2.014
303.15	0.005	995.982	2.014
308.15	0.005	994.365	2.014
288.15	0.01	999.705	2.014
293.15	0.01	998.831	2.014
298.15	0.01	997.702	2.014
303.15	0.01	996.311	2.014
308.15	0.01	994.694	2.014
288.15	0.03	1000.856	2.014
293.15	0.03	999.967	2.014
298.15	0.03	998.803	2.014
303.15	0.03	997.512	2.014
308.15	0.03	995.895	2.014
288.15	0.05	1001.999	2.014
293.15	0.05	1000.997	2.014
298.15	0.05	999.906	2.014
303.15	0.05	998.675	2.014
308.15	0.05	996.998	2.014
298.15	0.01	997.7	2.014
303.15	0.01	996.31	2.014
288.15	0.03	1000.86	2.014
293.15	0.03	999.97	2.014
303.15	0.03	997.51	2.014
288.15	0.05	1002	2.014
293.15	0.05	1001	2.014
298.15	0.05	999.91	2.014
303.15	0.05	998.68	2.014
308.15	0.05	997	2.014

System: 1-butyl-3-methylimidazolium tetrafluoroborate + water; phases: Liquid
Fixed: Pressure, kPa = 100
Fixed: Frequency, MHz = 3
Property: Speed of sound, m/s (Liquid); method: Single path-length method
Temperature, K	Molality, mol/kg of 1-butyl-3-methylimidazolium tetrafluoroborate	Speed of sound, m/s	uncertainty
288.15	0.005	1464.68	4.01
293.15	0.005	1482.6	4.01
298.15	0.005	1497.47	4.01
303.15	0.005	1512.3	4.01
308.15	0.005	1519.64	4.01
288.15	0.01	1465.1	4.01
293.15	0.01	1483.1	4.01
298.15	0.01	1497.93	4.01
303.15	0.01	1512.76	4.01
308.15	0.01	1520.56	4.01
288.15	0.03	1466.96	4.01
293.15	0.03	1484.88	4.01
298.15	0.03	1499.75	4.01
303.15	0.03	1514.58	4.01
308.15	0.03	1522.38	4.01
288.15	0.05	1468.78	4.01
293.15	0.05	1486.7	4.01
298.15	0.05	1501.57	4.01
303.15	0.05	1516.4	4.01
308.15	0.05	1524.2	4.01
293.15	0.01	1483.06	4.01
288.15	0.03	1467	4.01
288.15	0.05	1468.8	4.01
