Measured thermophysical data. Measurement of critical temperatures and critical pressures for binary mixtures of methyl tert-butyl ether (MTBE) + alcohol and MTBE + alkane
Source: J. Chem. Thermodyn., 2013, 10.1016/j.jct.2013.03.002
Compound 1: cyclohexane, C6H12, InChI=1S/C6H12/c1-2-4-6-5-3-1/h1-6H2, purity 99.8%
Compound 2: hexane, C6H14, InChI=1S/C6H14/c1-3-5-6-4-2/h3-6H2,1-2H3, purity 99%
Compound 3: heptane, C7H16, InChI=1S/C7H16/c1-3-5-7-6-4-2/h3-7H2,1-2H3, purity 99%
Compound 4: methanol, CH4O, InChI=1S/CH4O/c1-2/h2H,1H3, purity 99.5%
Compound 5: ethanol, C2H6O, InChI=1S/C2H6O/c1-2-3/h3H,2H2,1H3, purity 99.7%
Compound 6: propan-1-ol, C3H8O, InChI=1S/C3H8O/c1-2-3-4/h4H,2-3H2,1H3, purity 99.8%
Compound 7: 2-methoxy-2-methylpropane, C5H12O, InChI=1S/C5H12O/c1-5(2,3)6-4/h1-4H3, purity 99%

System: cyclohexane; phases: Liquid, Gas
Property: Critical temperature, K (Liquid); method: Visual observation in an unstirred cell
Critical temperature, K	uncertainty
554.1	2.4

System: cyclohexane; phases: Liquid, Gas
Property: Critical pressure, kPa (Liquid); method: Direct measurement
Critical pressure, kPa	uncertainty
4110	30

System: hexane; phases: Liquid, Gas
Property: Critical temperature, K (Liquid); method: Visual observation in an unstirred cell
Critical temperature, K	uncertainty
507.9	2.4

System: hexane; phases: Liquid, Gas
Property: Critical pressure, kPa (Liquid); method: Direct measurement
Critical pressure, kPa	uncertainty
3030	30

System: heptane; phases: Liquid, Gas
Property: Critical temperature, K (Liquid); method: Visual observation in an unstirred cell
Critical temperature, K	uncertainty
540	2.4

System: heptane; phases: Liquid, Gas
Property: Critical pressure, kPa (Liquid); method: Direct measurement
Critical pressure, kPa	uncertainty
2761	30

System: methanol; phases: Liquid, Gas
Property: Critical temperature, K (Liquid); method: Visual observation in an unstirred cell
Critical temperature, K	uncertainty
512.3	2.4

System: methanol; phases: Liquid, Gas
Property: Critical pressure, kPa (Liquid); method: Direct measurement
Critical pressure, kPa	uncertainty
8128	30

System: ethanol; phases: Liquid, Gas
Property: Critical temperature, K (Liquid); method: Visual observation in an unstirred cell
Critical temperature, K	uncertainty
514.2	2.4

System: ethanol; phases: Liquid, Gas
Property: Critical pressure, kPa (Liquid); method: Direct measurement
Critical pressure, kPa	uncertainty
6135	30

System: propan-1-ol; phases: Liquid, Gas
Property: Critical temperature, K (Liquid); method: Visual observation in an unstirred cell
Critical temperature, K	uncertainty
537	2.4

System: propan-1-ol; phases: Liquid, Gas
Property: Critical pressure, kPa (Liquid); method: Direct measurement
Critical pressure, kPa	uncertainty
5172	30

System: 2-methoxy-2-methylpropane; phases: Liquid, Gas
Property: Critical temperature, K (Liquid); method: Visual observation in an unstirred cell
Critical temperature, K	uncertainty
497	2.4

System: 2-methoxy-2-methylpropane; phases: Liquid, Gas
Property: Critical pressure, kPa (Liquid); method: Direct measurement
Critical pressure, kPa	uncertainty
3448	30

System: ethanol + hexane; phases: Liquid, Gas
Property: Critical temperature, K (Liquid); method: Visual observation in an unstirred cell
Mole fraction of ethanol	Critical temperature, K	uncertainty
0	507.9	2.4
0.1026	501.5	2.4
0.2253	496.7	2.4
0.32	493.6	2.4
0.438	490.6	2.4
0.5251	489.5	2.4
0.6207	490.5	2.4
0.712	493.5	2.4
0.8203	499.4	2.4
0.9113	505.4	2.4
1	514.2	2.4

System: ethanol + hexane; phases: Liquid, Gas
Property: Critical pressure, kPa (Liquid); method: Direct measurement
Mole fraction of ethanol	Critical pressure, kPa	uncertainty
0	3030	31
0.1026	3387	31
0.2253	3703	31
0.32	3920	31
0.438	4170	31
0.5251	4317	31
0.6207	4601	31
0.712	4853	31
0.8203	5240	31
0.9113	5651	31
1	6135	31

System: cyclohexane + heptane; phases: Liquid, Gas
Property: Critical temperature, K (Liquid); method: Visual observation in an unstirred cell
Mole fraction of cyclohexane	Critical temperature, K	uncertainty
0	540	2.4
0.1	541.5	2.4
0.1996	542.8	2.4
0.2965	543.4	2.4
0.3997	544.8	2.4
0.4981	546.1	2.4
0.6008	547.4	2.4
0.6987	549.4	2.4
0.8001	550.7	2.4
0.8998	552.9	2.4
1	554.1	2.4

System: cyclohexane + heptane; phases: Liquid, Gas
Property: Critical pressure, kPa (Liquid); method: Direct measurement
Mole fraction of cyclohexane	Critical pressure, kPa	uncertainty
0	2761	31
0.1	2930	31
0.1996	3010	31
0.2965	3120	31
0.3997	3253	31
0.4981	3360	31
0.6008	3510	31
0.6987	3640	31
0.8001	3810	31
0.8998	3970	31
1	4110	31

System: heptane + 2-methoxy-2-methylpropane; phases: Liquid, Gas
Property: Critical temperature, K (Liquid); method: Visual observation in an unstirred cell
Mole fraction of heptane	Critical temperature, K	uncertainty
0	497	2.4
0.1	499.4	2.4
0.2011	503.7	2.4
0.3056	508.3	2.4
0.3978	513.1	2.4
0.497	518	2.4
0.5996	522.6	2.4
0.6933	525.6	2.4
0.8001	530.9	2.4
0.8984	535	2.4
1	540	2.4

System: heptane + 2-methoxy-2-methylpropane; phases: Liquid, Gas
Property: Critical pressure, kPa (Liquid); method: Direct measurement
Mole fraction of heptane	Critical pressure, kPa	uncertainty
0	3448	31
0.1	3417	31
0.2011	3375	31
0.3056	3310	31
0.3978	3267	31
0.497	3188	31
0.5996	3105	31
0.6933	3043	31
0.8001	2969	31
0.8984	2894	31
1	2761	31

System: cyclohexane + 2-methoxy-2-methylpropane; phases: Liquid, Gas
Property: Critical temperature, K (Liquid); method: Visual observation in an unstirred cell
Mole fraction of cyclohexane	Critical temperature, K	uncertainty
0	497	2.4
0.1015	499.4	2.4
0.2003	504.4	2.4
0.3009	509.9	2.4
0.3996	515.4	2.4
0.4884	521.1	2.4
0.6001	528.2	2.4
0.6993	533.8	2.4
0.7996	539.1	2.4
0.8953	545.2	2.4
1	554.1	2.4

System: cyclohexane + 2-methoxy-2-methylpropane; phases: Liquid, Gas
Property: Critical pressure, kPa (Liquid); method: Direct measurement
Mole fraction of cyclohexane	Critical pressure, kPa	uncertainty
0	3448	31
0.1015	3526	31
0.2003	3598	31
0.3009	3661	31
0.3996	3732	31
0.4884	3817	31
0.6001	3912	31
0.6993	3957	31
0.7996	4032	31
0.8953	4072	31
1	4110	31

System: ethanol + 2-methoxy-2-methylpropane; phases: Liquid, Gas
Property: Critical temperature, K (Liquid); method: Visual observation in an unstirred cell
Mole fraction of ethanol	Critical temperature, K	uncertainty
0	497	2.4
0.062	495	2.4
0.1005	494.6	2.4
0.2007	493.8	2.4
0.3011	493.3	2.4
0.4005	493.9	2.4
0.5003	495	2.4
0.5997	497.1	2.4
0.7005	499.5	2.4
0.7999	503.5	2.4
0.9	508.1	2.4
1	514.2	2.4

System: ethanol + 2-methoxy-2-methylpropane; phases: Liquid, Gas
Property: Critical pressure, kPa (Liquid); method: Direct measurement
Mole fraction of ethanol	Critical pressure, kPa	uncertainty
0	3448	31
0.062	3586	31
0.1005	3712	31
0.2007	3890	31
0.3011	4110	31
0.4005	4338	31
0.5003	4572	31
0.5997	4820	31
0.7005	5101	31
0.7999	5412	31
0.9	5774	31
1	6135	31

System: methanol + 2-methoxy-2-methylpropane; phases: Liquid, Gas
Property: Critical temperature, K (Liquid); method: Visual observation in an unstirred cell
Mole fraction of methanol	Critical temperature, K	uncertainty
0	497	2.4
0.1231	492	2.4
0.2007	491	2.4
0.3001	490.4	2.4
0.3997	489.2	2.4
0.5003	489.8	2.4
0.6003	491.9	2.4
0.7002	493.6	2.4
0.8001	497.7	2.4
0.9	503.5	2.4
1	512.3	2.4

System: methanol + 2-methoxy-2-methylpropane; phases: Liquid, Gas
Property: Critical pressure, kPa (Liquid); method: Direct measurement
Mole fraction of methanol	Critical pressure, kPa	uncertainty
0	3448	31
0.1231	3897	31
0.2007	4152	31
0.3001	4583	31
0.3997	4926	31
0.5003	5281	31
0.6003	5605	31
0.7002	6124	31
0.8001	6648	31
0.9	7287	31
1	8128	31

System: propan-1-ol + 2-methoxy-2-methylpropane; phases: Liquid, Gas
Property: Critical temperature, K (Liquid); method: Visual observation in an unstirred cell
Mole fraction of propan-1-ol	Critical temperature, K	uncertainty
0	497	2.4
0.1003	498.2	2.4
0.2011	501.2	2.4
0.2999	503.8	2.4
0.3975	507.3	2.4
0.5001	510.7	2.4
0.6007	515.1	2.4
0.7019	520.5	2.4
0.7988	524.1	2.4
0.9	531.3	2.4
1	536.8	2.4

System: propan-1-ol + 2-methoxy-2-methylpropane; phases: Liquid, Gas
Property: Critical pressure, kPa (Liquid); method: Direct measurement
Mole fraction of propan-1-ol	Critical pressure, kPa	uncertainty
0	3448	31
0.1003	3577	31
0.2011	3731	31
0.2999	3880	31
0.3975	4045	31
0.5001	4205	31
0.6007	4390	31
0.7019	4596	31
0.7988	4776	31
0.9	5002	31
1	5169	31
