Measured thermophysical data. Apparent molar volumes and viscosity B-coefficients of caffeine in aqueous thorium nitrate solutions at T = (298.15, 308.15, and 318.15) K
Source: J. Chem. Thermodyn., 2010, 10.1016/j.jct.2009.09.010
Compound 1: caffeine, C8H10N4O2, InChI=1S/C8H10N4O2/c1-10-4-9-6-5(10)7(13)12(3)8(14)11(6)2/h4H,1-3H3, purity 99%
Compound 2: thorium tetranitrate, N4O12Th, InChI=1S/4NO3.Th/c4*2-1(3)4;/q4*-1;+4, purity 99%
Compound 3: water, H2O, InChI=1S/H2O/h1H2, purity 99.9%

System: water + thorium tetranitrate; phases: Liquid
Fixed: Pressure, kPa = 101
Property: Viscosity, Pa*s (Liquid); method: Capillary tube (Ostwald; Ubbelohde) method
Temperature, K	Amount concentration (molarity), mol/dm3 of thorium tetranitrate	Viscosity, Pa*s	uncertainty
298.15	0.03	0.0010096	8.3e-06
298.15	0.05	0.0010173	8.3e-06
298.15	0.07	0.0010259	8.4e-06
308.15	0.03	0.0010062	8.3e-06
308.15	0.05	0.0010139	8.3e-06
308.15	0.07	0.0010223	8.3e-06
318.15	0.03	0.0010021	8.3e-06
318.15	0.05	0.0010102	8.3e-06
318.15	0.07	0.001018	8.3e-06

System: water + thorium tetranitrate; phases: Liquid
Fixed: Pressure, kPa = 101
Property: Mass density, kg/m3 (Liquid); method: Pycnometric method
Temperature, K	Amount concentration (molarity), mol/dm3 of thorium tetranitrate	Mass density, kg/m3	uncertainty
298.15	0.03	1009.6	0.5
298.15	0.05	1017.3	0.5
298.15	0.07	1025.9	0.5
308.15	0.03	1006.2	0.5
308.15	0.05	1013.9	0.5
308.15	0.07	1022.3	0.5
318.15	0.03	1002.1	0.5
318.15	0.05	1010.2	0.5
318.15	0.07	1018	0.5

System: caffeine + water + thorium tetranitrate; phases: Liquid
Fixed: Pressure, kPa = 101
Property: Viscosity, Pa*s (Liquid); method: Capillary tube (Ostwald; Ubbelohde) method
Temperature, K	Solvent: Amount concentration (molarity), mol/dm3 of thorium tetranitrate	Amount concentration (molarity), mol/dm3 of caffeine	Viscosity, Pa*s	uncertainty
298.15	0	0.02	0.000893	9e-06
298.15	0	0.032	0.000898	9e-06
298.15	0	0.0521	0.000905	9e-06
298.15	0	0.0721	0.000912	9e-06
298.15	0	0.0881	0.000919	9e-06
298.15	0	0.0999	0.000924	9e-06
298.15	0.03	0.02	0.000918	9e-06
298.15	0.03	0.032	0.000923	9e-06
298.15	0.03	0.052	0.000931	9e-06
298.15	0.03	0.0719	0.00094	9e-06
298.15	0.03	0.0879	0.000946	9e-06
298.15	0.03	0.0999	0.000952	9e-06
298.15	0.05	0.02	0.000938	9e-06
298.15	0.05	0.0319	0.000941	3.8e-05
298.15	0.05	0.0519	0.000948	0.000107
298.15	0.05	0.0719	0.000953	9e-06
298.15	0.05	0.0879	0.000957	9e-06
298.15	0.05	0.0999	0.00096	9e-06
298.15	0.07	0.02	0.000952	9e-06
298.15	0.07	0.032	0.000956	9e-06
298.15	0.07	0.052	0.000961	9e-06
298.15	0.07	0.072	0.000967	9e-06
298.15	0.07	0.088	0.000971	9e-06
298.15	0.07	0.1	0.000975	9e-06
308.15	0	0.0199	0.00072	8e-06
308.15	0	0.0319	0.000723	8e-06
308.15	0	0.0519	0.000729	8e-06
308.15	0	0.0718	0.000735	8e-06
308.15	0	0.0877	0.000741	8e-06
308.15	0	0.0995	0.000745	8e-06
308.15	0.03	0.0199	0.000746	8e-06
308.15	0.03	0.0319	0.000751	8e-06
308.15	0.03	0.0518	0.000759	8e-06
308.15	0.03	0.0717	0.000766	8e-06
308.15	0.03	0.0876	0.000772	8e-06
308.15	0.03	0.0996	0.000776	8e-06
308.15	0.05	0.0199	0.000762	8e-06
308.15	0.05	0.0318	0.000765	5.8e-05
308.15	0.05	0.0517	0.00077	0.000187
308.15	0.05	0.0716	0.000776	2.4e-05
308.15	0.05	0.0875	0.00078	0.000101
308.15	0.05	0.0995	0.000783	0.000435
308.15	0.07	0.0199	0.000772	8e-06
308.15	0.07	0.0319	0.000774	8e-06
308.15	0.07	0.0518	0.000779	8e-06
308.15	0.07	0.0717	0.000784	8e-06
308.15	0.07	0.0876	0.000787	8e-06
308.15	0.07	0.0996	0.00079	8e-06
318.15	0	0.0199	0.0006	7e-06
318.15	0	0.0318	0.000605	7e-06
318.15	0	0.0516	0.000614	7e-06
318.15	0	0.0715	0.000624	7e-06
318.15	0	0.0874	0.000633	8e-06
318.15	0	0.0991	0.00064	8e-06
318.15	0.03	0.0198	0.000623	7e-06
318.15	0.03	0.0317	0.000627	7e-06
318.15	0.03	0.0516	0.000633	8e-06
318.15	0.03	0.0714	0.00064	8e-06
318.15	0.03	0.0873	0.000645	8e-06
318.15	0.03	0.0991	0.00065	8e-06
318.15	0.05	0.0198	0.000631	7e-06
318.15	0.05	0.0317	0.000634	8e-06
318.15	0.05	0.0515	0.00064	6.3e-05
318.15	0.05	0.0713	0.000646	2.9e-05
318.15	0.05	0.0872	0.00065	1.3e-05
318.15	0.05	0.0991	0.000653	8e-06
318.15	0.07	0.0198	0.000646	8e-06
318.15	0.07	0.0317	0.000647	8e-06
318.15	0.07	0.0516	0.00065	8e-06
318.15	0.07	0.0714	0.000654	8e-06
318.15	0.07	0.0873	0.000656	8e-06
318.15	0.07	0.0992	0.000659	8e-06

System: caffeine + water + thorium tetranitrate; phases: Liquid
Fixed: Pressure, kPa = 101
Property: Mass density, kg/m3 (Liquid); method: Pycnometric method
Temperature, K	Solvent: Amount concentration (molarity), mol/dm3 of thorium tetranitrate	Amount concentration (molarity), mol/dm3 of caffeine	Mass density, kg/m3	uncertainty
298.15	0	0.02	998.1	0.6
298.15	0	0.032	998.7	0.6
298.15	0	0.0521	999.8	0.6
298.15	0	0.0721	1000.8	0.6
298.15	0	0.0881	1001.6	0.6
298.15	0	0.0999	1002.3	0.6
298.15	0.03	0.02	1010.5	0.6
298.15	0.03	0.032	1011.1	0.6
298.15	0.03	0.052	1012.1	0.6
298.15	0.03	0.0719	1013.2	0.6
298.15	0.03	0.0879	1014.1	0.6
298.15	0.03	0.0999	1014.8	0.6
298.15	0.05	0.02	1018.4	0.6
298.15	0.05	0.0319	1019	23.6
298.15	0.05	0.0519	1020.2	23.8
298.15	0.05	0.0719	1021.4	0.6
298.15	0.05	0.0879	1022.3	0.6
298.15	0.05	0.0999	1023.1	0.6
298.15	0.07	0.02	1026.9	0.6
298.15	0.07	0.032	1027.5	0.6
298.15	0.07	0.052	1028.4	0.6
298.15	0.07	0.072	1029.4	0.6
298.15	0.07	0.088	1030.2	0.6
298.15	0.07	0.1	1030.8	0.5
308.15	0	0.0199	995	0.6
308.15	0	0.0319	995.6	0.6
308.15	0	0.0519	996.5	0.6
308.15	0	0.0718	997.5	0.6
308.15	0	0.0877	998.3	0.6
308.15	0	0.0995	998.9	0.6
308.15	0.03	0.0199	1007	0.6
308.15	0.03	0.0319	1007.6	0.6
308.15	0.03	0.0518	1008.6	0.6
308.15	0.03	0.0717	1009.7	0.6
308.15	0.03	0.0876	1010.6	0.6
308.15	0.03	0.0996	1011.3	0.6
308.15	0.05	0.0199	1014.7	0.6
308.15	0.05	0.0318	1015.2	20.9
308.15	0.05	0.0517	1016.2	23
308.15	0.05	0.0716	1017.1	6.9
308.15	0.05	0.0875	1017.9	9.3
308.15	0.05	0.0995	1018.6	26.1
308.15	0.07	0.0199	1023.1	0.6
308.15	0.07	0.0319	1023.6	0.6
308.15	0.07	0.0518	1024.5	0.6
308.15	0.07	0.0717	1025.4	0.6
308.15	0.07	0.0876	1026.2	0.6
308.15	0.07	0.0996	1026.7	0.6
318.15	0	0.0199	991.2	0.6
318.15	0	0.0318	991.7	0.6
318.15	0	0.0516	992.7	0.6
318.15	0	0.0715	993.7	0.6
318.15	0	0.0874	994.5	0.6
318.15	0	0.0991	995.1	0.6
318.15	0.03	0.0198	1002.9	0.6
318.15	0.03	0.0317	1003.4	0.6
318.15	0.03	0.0516	1004.4	0.6
318.15	0.03	0.0714	1005.5	0.6
318.15	0.03	0.0873	1006.4	0.6
318.15	0.03	0.0991	1007.1	0.6
318.15	0.05	0.0198	1010.9	0.6
318.15	0.05	0.0317	1011.4	0.6
318.15	0.05	0.0515	1012.2	8.6
318.15	0.05	0.0713	1013.1	15.2
318.15	0.05	0.0872	1013.9	0.5
318.15	0.05	0.0991	1014.4	0.6
318.15	0.07	0.0198	1018.8	0.6
318.15	0.07	0.0317	1019.4	0.6
318.15	0.07	0.0516	1020.3	0.6
318.15	0.07	0.0714	1021.4	0.6
318.15	0.07	0.0873	1022.2	0.6
318.15	0.07	0.0992	1022.8	0.6
