Measured thermophysical data. P-V-T properties of binary mixtures of the ionic liquid 1-butyl-3-methylimidazolium bis(trifluoromethylsulfonyl)imide with anisole or acetophenone at elevated pressures
Source: J. Chem. Thermodyn., 2013, 10.1016/j.jct.2013.04.008
Compound 1: 1-butyl-3-methylimidazolium bis(trifluoromethylsulfonyl)imide, C10H15F6N3O4S2, InChI=1S/C8H15N2.C2F6NO4S2/c1-3-4-5-10-7-6-9(2)8-10;3-1(4,5)14(10,11)9-15(12,13)2(6,7)8/h6-8H,3-5H2,1-2H3;/q+1;-1, purity 99%
Compound 2: anisole, C7H8O, InChI=1S/C7H8O/c1-8-7-5-3-2-4-6-7/h2-6H,1H3, purity 99%
Compound 3: acetophenone, C8H8O, InChI=1S/C8H8O/c1-7(9)8-5-3-2-4-6-8/h2-6H,1H3, purity 99%

System: 1-butyl-3-methylimidazolium bis(trifluoromethylsulfonyl)imide; phases: Liquid
Property: Mass density, kg/m3 (Liquid); method: Vibrating tube method
Temperature, K	Pressure, kPa	Mass density, kg/m3	uncertainty
298.15	100	1437.6	0.6
298.15	10000	1444.7	0.8
298.15	15000	1448.1	0.9
298.15	20000	1451.6	1
298.15	25000	1454.7	1.1
298.15	30000	1458	1.2
298.15	35000	1461.1	1.3
298.15	40000	1464.1	1.4
298.15	45000	1467.2	1.5
298.15	50000	1470.1	1.6
318.15	100	1418.4	0.6
318.15	10000	1426.1	0.8
318.15	15000	1429.9	0.9
318.15	20000	1433.5	0.9
318.15	25000	1437	1
318.15	30000	1440.4	1.1
318.15	35000	1443.7	1.2
318.15	40000	1446.9	1.3
318.15	45000	1450.3	1.4
318.15	50000	1453.4	1.5
348.15	100	1390.4	0.6
348.15	10000	1398.2	0.7
348.15	15000	1402.3	0.8
348.15	20000	1406.3	0.9
348.15	25000	1410.1	1
348.15	30000	1413.9	1.1
348.15	35000	1417.5	1.2
348.15	40000	1421	1.3
348.15	45000	1424.3	1.3
348.15	50000	1427.6	1.4

System: anisole + 1-butyl-3-methylimidazolium bis(trifluoromethylsulfonyl)imide; phases: Liquid
Property: Mass density, kg/m3 (Liquid); method: Vibrating tube method
Temperature, K	Pressure, kPa	Mole fraction of anisole	Mass density, kg/m3	uncertainty
298.15	100	0.1018	1422.8	0.6
298.15	10000	0.1018	1429.6	0.8
298.15	15000	0.1018	1432.8	0.9
298.15	20000	0.1018	1436	1
298.15	25000	0.1018	1439	1
298.15	30000	0.1018	1441.9	1.1
298.15	35000	0.1018	1444.8	1.2
298.15	40000	0.1018	1447.6	1.3
298.15	45000	0.1018	1450.2	1.4
298.15	50000	0.1018	1452.9	1.5
318.15	100	0.1018	1403.4	0.6
318.15	10000	0.1018	1410.9	0.8
318.15	15000	0.1018	1414.5	0.8
318.15	20000	0.1018	1418	0.9
318.15	25000	0.1018	1421.3	1
318.15	30000	0.1018	1424.5	1.1
318.15	35000	0.1018	1427.7	1.2
318.15	40000	0.1018	1430.7	1.3
318.15	45000	0.1018	1433.6	1.4
318.15	50000	0.1018	1436.5	1.5
348.15	100	0.1018	1375.1	0.6
348.15	10000	0.1018	1382.8	0.7
348.15	15000	0.1018	1386.8	0.8
348.15	20000	0.1018	1390.7	0.9
348.15	25000	0.1018	1394.6	1
348.15	30000	0.1018	1398.3	1
348.15	35000	0.1018	1401.8	1.1
348.15	40000	0.1018	1405.3	1.2
348.15	45000	0.1018	1408.6	1.3
348.15	50000	0.1018	1411.9	1.4
298.15	100	0.2008	1405.2	0.6
298.15	10000	0.2008	1411.8	0.8
298.15	15000	0.2008	1415	0.8
298.15	20000	0.2008	1418.1	0.9
298.15	25000	0.2008	1421	1
298.15	30000	0.2008	1423.9	1.1
298.15	35000	0.2008	1426.7	1.2
298.15	40000	0.2008	1429.4	1.3
298.15	45000	0.2008	1432	1.4
298.15	50000	0.2008	1434.6	1.5
318.15	100	0.2008	1386	0.6
318.15	10000	0.2008	1393.3	0.7
318.15	15000	0.2008	1396.8	0.8
318.15	20000	0.2008	1400.2	0.9
318.15	25000	0.2008	1403.5	1
318.15	30000	0.2008	1406.6	1.1
318.15	35000	0.2008	1409.7	1.1
318.15	40000	0.2008	1412.6	1.2
318.15	45000	0.2008	1415.5	1.3
318.15	50000	0.2008	1418.3	1.4
348.15	100	0.2008	1357.4	0.5
348.15	10000	0.2008	1365.3	0.7
348.15	15000	0.2008	1369.3	0.8
348.15	20000	0.2008	1373.2	0.8
348.15	25000	0.2008	1376.9	0.9
348.15	30000	0.2008	1380.5	1
348.15	35000	0.2008	1384	1.1
348.15	40000	0.2008	1387.4	1.2
348.15	45000	0.2008	1390.7	1.3
348.15	50000	0.2008	1393.8	1.3
298.15	100	0.3001	1384.5	0.6
298.15	10000	0.3001	1390.9	0.7
298.15	15000	0.3001	1394	0.8
298.15	20000	0.3001	1397	0.9
298.15	25000	0.3001	1399.9	1
298.15	30000	0.3001	1402.7	1
298.15	35000	0.3001	1405.4	1.1
298.15	40000	0.3001	1408.1	1.2
298.15	45000	0.3001	1410.6	1.3
298.15	50000	0.3001	1413.1	1.4
318.15	100	0.3001	1365.5	0.6
318.15	10000	0.3001	1372.6	0.7
318.15	15000	0.3001	1376	0.8
318.15	20000	0.3001	1379.3	0.9
318.15	25000	0.3001	1382.5	0.9
318.15	30000	0.3001	1385.6	1
318.15	35000	0.3001	1388.5	1.1
318.15	40000	0.3001	1391.4	1.2
318.15	45000	0.3001	1394.2	1.3
318.15	50000	0.3001	1397	1.3
348.15	100	0.3001	1336.6	0.5
348.15	10000	0.3001	1344.8	0.7
348.15	15000	0.3001	1348.7	0.7
348.15	20000	0.3001	1352.5	0.8
348.15	25000	0.3001	1356.2	0.9
348.15	30000	0.3001	1359.7	1
348.15	35000	0.3001	1363.1	1
348.15	40000	0.3001	1366.4	1.1
348.15	45000	0.3001	1369.6	1.2
348.15	50000	0.3001	1372.7	1.3
298.15	100	0.6001	1292.3	0.5
298.15	10000	0.6001	1298.2	0.6
298.15	15000	0.6001	1301.1	0.7
298.15	20000	0.6001	1303.9	0.7
298.15	25000	0.6001	1306.6	0.8
298.15	30000	0.6001	1309.2	0.9
298.15	35000	0.6001	1311.7	0.9
298.15	40000	0.6001	1314.2	1
298.15	45000	0.6001	1316.6	1.1
298.15	50000	0.6001	1318.9	1.1
318.15	100	0.6001	1273.8	0.5
318.15	10000	0.6001	1280.4	0.6
318.15	15000	0.6001	1283.5	0.6
318.15	20000	0.6001	1286.6	0.7
318.15	25000	0.6001	1289.6	0.8
318.15	30000	0.6001	1292.4	0.8
318.15	35000	0.6001	1295.2	0.9
318.15	40000	0.6001	1297.9	1
318.15	45000	0.6001	1300.5	1
318.15	50000	0.6001	1303.1	1.1
348.15	100	0.6001	1245.6	0.5
348.15	10000	0.6001	1253.3	0.6
348.15	15000	0.6001	1256.9	0.6
348.15	20000	0.6001	1260.4	0.7
348.15	25000	0.6001	1263.8	0.7
348.15	30000	0.6001	1267.1	0.8
348.15	35000	0.6001	1270.3	0.8
348.15	40000	0.6001	1273.4	0.9
348.15	45000	0.6001	1276.4	1
348.15	50000	0.6001	1279.3	1
298.15	100	0.7003	1245.4	0.5
298.15	10000	0.7003	1251.2	0.6
298.15	15000	0.7003	1254	0.6
298.15	20000	0.7003	1256.7	0.7
298.15	25000	0.7003	1259.4	0.7
298.15	30000	0.7003	1261.9	0.8
298.15	35000	0.7003	1264.4	0.8
298.15	40000	0.7003	1266.8	0.9
298.15	45000	0.7003	1269.2	0.9
298.15	50000	0.7003	1271.5	1
318.15	100	0.7003	1227	0.5
318.15	10000	0.7003	1233.5	0.5
318.15	15000	0.7003	1236.6	0.6
318.15	20000	0.7003	1239.6	0.6
318.15	25000	0.7003	1242.5	0.7
318.15	30000	0.7003	1245.3	0.7
318.15	35000	0.7003	1248	0.8
318.15	40000	0.7003	1250.7	0.8
318.15	45000	0.7003	1253.3	0.9
318.15	50000	0.7003	1255.8	0.9
348.15	100	0.7003	1199	0.4
348.15	10000	0.7003	1206.5	0.5
348.15	15000	0.7003	1210.1	0.5
348.15	20000	0.7003	1213.6	0.6
348.15	25000	0.7003	1216.9	0.6
348.15	30000	0.7003	1220.2	0.7
348.15	35000	0.7003	1223.3	0.7
348.15	40000	0.7003	1226.3	0.8
348.15	45000	0.7003	1229.3	0.8
348.15	50000	0.7003	1232.1	0.9
298.15	100	0.8002	1184.5	0.4
298.15	10000	0.8002	1190.3	0.5
298.15	15000	0.8002	1193.1	0.5
298.15	20000	0.8002	1195.8	0.6
298.15	25000	0.8002	1198.4	0.6
298.15	30000	0.8002	1200.9	0.6
298.15	35000	0.8002	1203.4	0.7
298.15	40000	0.8002	1205.8	0.7
298.15	45000	0.8002	1208.2	0.8
298.15	50000	0.8002	1210.4	0.8
318.15	100	0.8002	1166.5	0.4
318.15	10000	0.8002	1172.9	0.5
318.15	15000	0.8002	1176	0.5
318.15	20000	0.8002	1179	0.5
318.15	25000	0.8002	1181.9	0.6
318.15	30000	0.8002	1184.7	0.6
318.15	35000	0.8002	1187.4	0.7
318.15	40000	0.8002	1190	0.7
318.15	45000	0.8002	1192.6	0.7
318.15	50000	0.8002	1195.1	0.8
348.15	100	0.8002	1138.5	0.4
348.15	10000	0.8002	1146	0.5
348.15	15000	0.8002	1149.6	0.5
348.15	20000	0.8002	1153.1	0.5
348.15	25000	0.8002	1156.4	0.5
348.15	30000	0.8002	1159.6	0.6
348.15	35000	0.8002	1162.7	0.6
348.15	40000	0.8002	1165.8	0.6
348.15	45000	0.8002	1168.7	0.7
348.15	50000	0.8002	1171.5	0.7
298.15	100	0.4008	1359.4	0.5
298.15	10000	0.4008	1365.7	0.7
298.15	15000	0.4008	1368.7	0.8
298.15	20000	0.4008	1371.6	0.8
298.15	25000	0.4008	1374.4	0.9
298.15	30000	0.4008	1377.1	1
298.15	35000	0.4008	1379.8	1.1
298.15	40000	0.4008	1382.4	1.2
298.15	45000	0.4008	1384.9	1.2
298.15	50000	0.4008	1387.3	1.3
318.15	100	0.4008	1340.6	0.5
318.15	10000	0.4008	1347.5	0.7
318.15	15000	0.4008	1350.8	0.7
318.15	20000	0.4008	1354	0.8
318.15	25000	0.4008	1357.1	0.9
318.15	30000	0.4008	1360.1	1
318.15	35000	0.4008	1363	1
318.15	40000	0.4008	1365.9	1.1
318.15	45000	0.4008	1368.6	1.2
318.15	50000	0.4008	1371.3	1.3
348.15	100	0.4008	1311.9	0.5
348.15	10000	0.4008	1319.9	0.6
348.15	15000	0.4008	1323.8	0.7
348.15	20000	0.4008	1327.5	0.8
348.15	25000	0.4008	1331	0.8
348.15	30000	0.4008	1334.5	0.9
348.15	35000	0.4008	1337.8	1
348.15	40000	0.4008	1341	1.1
348.15	45000	0.4008	1344.1	1.1
348.15	50000	0.4008	1347.2	1.2
298.15	100	0.9	1103.7	0.4
298.15	10000	0.9	1109.6	0.4
298.15	15000	0.9	1112.4	0.4
298.15	20000	0.9	1115.2	0.5
298.15	25000	0.9	1117.8	0.5
298.15	30000	0.9	1120.4	0.5
298.15	35000	0.9	1122.9	0.5
298.15	40000	0.9	1125.3	0.6
298.15	45000	0.9	1127.7	0.6
298.15	50000	0.9	1130	0.6
318.15	100	0.9	1085.2	0.4
318.15	10000	0.9	1091.8	0.4
318.15	15000	0.9	1095	0.4
318.15	20000	0.9	1098	0.4
318.15	25000	0.9	1100.9	0.5
318.15	30000	0.9	1103.8	0.5
318.15	35000	0.9	1106.5	0.5
318.15	40000	0.9	1109.2	0.5
318.15	45000	0.9	1111.8	0.5
318.15	50000	0.9	1114.3	0.6
348.15	100	0.9	1057	0.4
348.15	10000	0.9	1064.8	0.4
348.15	15000	0.9	1068.4	0.4
348.15	20000	0.9	1072	0.4
348.15	25000	0.9	1075.4	0.4
348.15	30000	0.9	1078.7	0.4
348.15	35000	0.9	1081.8	0.5
348.15	40000	0.9	1084.9	0.5
348.15	45000	0.9	1087.9	0.5
348.15	50000	0.9	1090.8	0.5
298.15	100	0.5008	1329.2	0.5
298.15	10000	0.5008	1335.3	0.7
298.15	15000	0.5008	1338.2	0.7
298.15	20000	0.5008	1341.1	0.8
298.15	25000	0.5008	1343.8	0.9
298.15	30000	0.5008	1346.5	0.9
298.15	35000	0.5008	1349.1	1
298.15	40000	0.5008	1351.6	1.1
298.15	45000	0.5008	1354	1.2
298.15	50000	0.5008	1356.4	1.2
318.15	100	0.5008	1310.6	0.5
318.15	10000	0.5008	1317.3	0.6
318.15	15000	0.5008	1320.5	0.7
318.15	20000	0.5008	1323.7	0.8
318.15	25000	0.5008	1326.7	0.8
318.15	30000	0.5008	1329.6	0.9
318.15	35000	0.5008	1332.5	1
318.15	40000	0.5008	1335.2	1
318.15	45000	0.5008	1337.9	1.1
318.15	50000	0.5008	1340.5	1.2
348.15	100	0.5008	1282.2	0.5
348.15	10000	0.5008	1290	0.6
348.15	15000	0.5008	1293.7	0.7
348.15	20000	0.5008	1297.3	0.7
348.15	25000	0.5008	1300.8	0.8
348.15	30000	0.5008	1304.2	0.8
348.15	35000	0.5008	1307.4	0.9
348.15	40000	0.5008	1310.6	1
348.15	45000	0.5008	1313.6	1
348.15	50000	0.5008	1316.6	1.1

System: acetophenone + 1-butyl-3-methylimidazolium bis(trifluoromethylsulfonyl)imide; phases: Liquid
Property: Mass density, kg/m3 (Liquid); method: Vibrating tube method
Temperature, K	Pressure, kPa	Mole fraction of acetophenone	Mass density, kg/m3	uncertainty
298.15	100	0.1001	1418.9	0.6
298.15	10000	0.1001	1426.2	0.8
298.15	15000	0.1001	1429.7	0.9
298.15	20000	0.1001	1433.2	0.9
298.15	25000	0.1001	1436.3	1
298.15	30000	0.1001	1439.6	1.1
298.15	35000	0.1001	1442.7	1.2
298.15	40000	0.1001	1445.7	1.3
298.15	45000	0.1001	1448.8	1.4
298.15	50000	0.1001	1451.8	1.5
318.15	100	0.1001	1400.9	0.6
318.15	10000	0.1001	1408.5	0.7
318.15	15000	0.1001	1412.2	0.8
318.15	20000	0.1001	1415.8	0.9
318.15	25000	0.1001	1419.2	1
318.15	30000	0.1001	1422.6	1.1
318.15	35000	0.1001	1425.8	1.2
318.15	40000	0.1001	1428.9	1.3
318.15	45000	0.1001	1432.2	1.4
318.15	50000	0.1001	1435.3	1.5
348.15	100	0.1001	1373.3	0.6
348.15	10000	0.1001	1381.1	0.7
348.15	15000	0.1001	1385.1	0.8
348.15	20000	0.1001	1389	0.9
348.15	25000	0.1001	1392.7	1
348.15	30000	0.1001	1396.4	1
348.15	35000	0.1001	1399.9	1.1
348.15	40000	0.1001	1403.4	1.2
348.15	45000	0.1001	1406.6	1.3
348.15	50000	0.1001	1409.8	1.4
298.15	100	0.2301	1394.6	0.6
298.15	10000	0.2301	1401.5	0.7
298.15	15000	0.2301	1404.8	0.8
298.15	20000	0.2301	1408.2	0.9
298.15	25000	0.2301	1411.2	1
298.15	30000	0.2301	1414.4	1.1
298.15	35000	0.2301	1417.4	1.2
298.15	40000	0.2301	1420.2	1.2
298.15	45000	0.2301	1423.2	1.3
298.15	50000	0.2301	1426	1.4
318.15	100	0.2301	1376.5	0.6
318.15	10000	0.2301	1384	0.7
318.15	15000	0.2301	1387.6	0.8
318.15	20000	0.2301	1391.1	0.9
318.15	25000	0.2301	1394.5	1
318.15	30000	0.2301	1397.8	1
318.15	35000	0.2301	1401	1.1
318.15	40000	0.2301	1404.1	1.2
318.15	45000	0.2301	1407.4	1.3
318.15	50000	0.2301	1410.4	1.4
348.15	100	0.2301	1349	0.5
348.15	10000	0.2301	1356.7	0.7
348.15	15000	0.2301	1360.6	0.8
348.15	20000	0.2301	1364.5	0.8
348.15	25000	0.2301	1368.2	0.9
348.15	30000	0.2301	1371.9	1
348.15	35000	0.2301	1375.5	1.1
348.15	40000	0.2301	1378.9	1.1
348.15	45000	0.2301	1382.1	1.2
348.15	50000	0.2301	1385.3	1.3
298.15	100	0.2995	1379.7	0.6
298.15	10000	0.2995	1386.5	0.7
298.15	15000	0.2995	1389.7	0.8
298.15	20000	0.2995	1393	0.9
298.15	25000	0.2995	1396	1
298.15	30000	0.2995	1399.1	1
298.15	35000	0.2995	1402.1	1.1
298.15	40000	0.2995	1404.9	1.2
298.15	45000	0.2995	1407.8	1.3
298.15	50000	0.2995	1410.5	1.4
318.15	100	0.2995	1361.5	0.6
318.15	10000	0.2995	1368.9	0.7
318.15	15000	0.2995	1372.5	0.8
318.15	20000	0.2995	1376	0.9
318.15	25000	0.2995	1379.3	0.9
318.15	30000	0.2995	1382.6	1
318.15	35000	0.2995	1385.9	1.1
318.15	40000	0.2995	1389	1.2
318.15	45000	0.2995	1392.1	1.3
318.15	50000	0.2995	1395	1.3
348.15	100	0.2995	1334.1	0.5
348.15	10000	0.2995	1341.7	0.7
348.15	15000	0.2995	1345.6	0.7
348.15	20000	0.2995	1349.4	0.8
348.15	25000	0.2995	1353.1	0.9
348.15	30000	0.2995	1356.8	1
348.15	35000	0.2995	1360.3	1
348.15	40000	0.2995	1363.7	1.1
348.15	45000	0.2995	1366.9	1.2
348.15	50000	0.2995	1370.1	1.3
298.15	100	0.6014	1287.7	0.5
298.15	10000	0.6014	1294.3	0.6
298.15	15000	0.6014	1297.3	0.7
298.15	20000	0.6014	1300.4	0.7
298.15	25000	0.6014	1303.2	0.8
298.15	30000	0.6014	1306.1	0.9
298.15	35000	0.6014	1308.9	0.9
298.15	40000	0.6014	1311.7	1
298.15	45000	0.6014	1314.4	1.1
298.15	50000	0.6014	1316.9	1.1
318.15	100	0.6014	1269.8	0.5
318.15	10000	0.6014	1276.9	0.6
318.15	15000	0.6014	1280.3	0.6
318.15	20000	0.6014	1283.6	0.7
318.15	25000	0.6014	1286.8	0.8
318.15	30000	0.6014	1289.9	0.8
318.15	35000	0.6014	1293	0.9
318.15	40000	0.6014	1295.9	0.9
318.15	45000	0.6014	1298.7	1
318.15	50000	0.6014	1301.5	1.1
348.15	100	0.6014	1242.5	0.5
348.15	10000	0.6014	1250.5	0.6
348.15	15000	0.6014	1254.3	0.6
348.15	20000	0.6014	1257.9	0.7
348.15	25000	0.6014	1261.2	0.7
348.15	30000	0.6014	1264.9	0.8
348.15	35000	0.6014	1268.2	0.8
348.15	40000	0.6014	1271.3	0.9
348.15	45000	0.6014	1274.4	0.9
348.15	50000	0.6014	1277.5	1
298.15	100	0.7002	1243.7	0.5
298.15	10000	0.7002	1250	0.6
298.15	15000	0.7002	1252.9	0.6
298.15	20000	0.7002	1255.7	0.7
298.15	25000	0.7002	1258.6	0.7
298.15	30000	0.7002	1261.3	0.8
298.15	35000	0.7002	1264.2	0.8
298.15	40000	0.7002	1266.9	0.9
298.15	45000	0.7002	1269.4	0.9
298.15	50000	0.7002	1271.9	1
318.15	100	0.7002	1225.7	0.5
318.15	10000	0.7002	1232.7	0.5
318.15	15000	0.7002	1236	0.6
318.15	20000	0.7002	1239.3	0.6
318.15	25000	0.7002	1242.3	0.7
318.15	30000	0.7002	1245.1	0.7
318.15	35000	0.7002	1248.2	0.8
318.15	40000	0.7002	1251.1	0.8
318.15	45000	0.7002	1253.7	0.9
318.15	50000	0.7002	1256.4	0.9
348.15	100	0.7002	1198.7	0.4
348.15	10000	0.7002	1206.4	0.5
348.15	15000	0.7002	1210.2	0.5
348.15	20000	0.7002	1213.4	0.6
348.15	25000	0.7002	1217.1	0.6
348.15	30000	0.7002	1220.5	0.7
348.15	35000	0.7002	1223.6	0.7
348.15	40000	0.7002	1226.7	0.8
348.15	45000	0.7002	1229.7	0.8
348.15	50000	0.7002	1232.7	0.9
298.15	100	0.8003	1187.8	0.4
298.15	10000	0.8003	1193.9	0.5
298.15	15000	0.8003	1196.7	0.5
298.15	20000	0.8003	1199.6	0.6
298.15	25000	0.8003	1202.2	0.6
298.15	30000	0.8003	1204.9	0.7
298.15	35000	0.8003	1207.6	0.7
298.15	40000	0.8003	1210.4	0.7
298.15	45000	0.8003	1212.9	0.8
298.15	50000	0.8003	1215.3	0.8
318.15	100	0.8003	1169.9	0.4
318.15	10000	0.8003	1176.7	0.5
318.15	15000	0.8003	1179.9	0.5
318.15	20000	0.8003	1183.1	0.5
318.15	25000	0.8003	1186.1	0.6
318.15	30000	0.8003	1189	0.6
318.15	35000	0.8003	1191.9	0.7
318.15	40000	0.8003	1194.6	0.7
318.15	45000	0.8003	1197.4	0.8
318.15	50000	0.8003	1200.1	0.8
348.15	100	0.8003	1143.1	0.4
348.15	10000	0.8003	1150.9	0.5
348.15	15000	0.8003	1154.5	0.5
348.15	20000	0.8003	1157.7	0.5
348.15	25000	0.8003	1161.3	0.5
348.15	30000	0.8003	1164.5	0.6
348.15	35000	0.8003	1167.7	0.6
348.15	40000	0.8003	1170.8	0.7
348.15	45000	0.8003	1173.7	0.7
348.15	50000	0.8003	1176.6	0.7
298.15	100	0.4002	1354.4	0.5
298.15	10000	0.4002	1361.1	0.7
298.15	15000	0.4002	1364.3	0.8
298.15	20000	0.4002	1367.6	0.8
298.15	25000	0.4002	1370.4	0.9
298.15	30000	0.4002	1373.5	1
298.15	35000	0.4002	1376.3	1.1
298.15	40000	0.4002	1379.2	1.1
298.15	45000	0.4002	1382	1.2
298.15	50000	0.4002	1384.7	1.3
318.15	100	0.4002	1336.3	0.5
318.15	10000	0.4002	1343.8	0.7
318.15	15000	0.4002	1347.3	0.7
318.15	20000	0.4002	1350.6	0.8
318.15	25000	0.4002	1353.9	0.9
318.15	30000	0.4002	1357.1	1
318.15	35000	0.4002	1360.3	1
318.15	40000	0.4002	1363.2	1.1
318.15	45000	0.4002	1366.3	1.2
318.15	50000	0.4002	1369.4	1.3
348.15	100	0.4002	1308.9	0.5
348.15	10000	0.4002	1316.7	0.6
348.15	15000	0.4002	1320.6	0.7
348.15	20000	0.4002	1324.4	0.8
348.15	25000	0.4002	1328	0.8
348.15	30000	0.4002	1331.6	0.9
348.15	35000	0.4002	1335.1	1
348.15	40000	0.4002	1338.4	1
348.15	45000	0.4002	1341.6	1.1
348.15	50000	0.4002	1344.7	1.2
298.15	100	0.9	1116.4	0.4
298.15	10000	0.9	1122.3	0.4
298.15	15000	0.9	1125.2	0.5
298.15	20000	0.9	1127.9	0.5
298.15	25000	0.9	1130.5	0.5
298.15	30000	0.9	1133.2	0.5
298.15	35000	0.9	1135.8	0.6
298.15	40000	0.9	1138.5	0.6
298.15	45000	0.9	1140.9	0.6
298.15	50000	0.9	1143.4	0.6
318.15	100	0.9	1098.8	0.4
318.15	10000	0.9	1105.4	0.4
318.15	15000	0.9	1108.5	0.4
318.15	20000	0.9	1111.5	0.5
318.15	25000	0.9	1114.4	0.5
318.15	30000	0.9	1117.2	0.5
318.15	35000	0.9	1120.1	0.5
318.15	40000	0.9	1122.6	0.5
318.15	45000	0.9	1125.3	0.6
318.15	50000	0.9	1127.9	0.6
348.15	100	0.9	1072.3	0.4
348.15	10000	0.9	1079.9	0.4
348.15	15000	0.9	1083.5	0.4
348.15	20000	0.9	1086.5	0.4
348.15	25000	0.9	1090	0.4
348.15	30000	0.9	1093.2	0.5
348.15	35000	0.9	1096.2	0.5
348.15	40000	0.9	1099.2	0.5
348.15	45000	0.9	1102.1	0.5
348.15	50000	0.9	1104.9	0.5
298.15	100	0.5003	1324.4	0.5
298.15	10000	0.5003	1331	0.6
298.15	15000	0.5003	1334.2	0.7
298.15	20000	0.5003	1337.3	0.8
298.15	25000	0.5003	1340.2	0.9
298.15	30000	0.5003	1343.2	0.9
298.15	35000	0.5003	1346	1
298.15	40000	0.5003	1348.8	1.1
298.15	45000	0.5003	1351.5	1.1
298.15	50000	0.5003	1354.1	1.2
318.15	100	0.5003	1306.4	0.5
318.15	10000	0.5003	1313.8	0.6
318.15	15000	0.5003	1317.2	0.7
318.15	20000	0.5003	1320.4	0.8
318.15	25000	0.5003	1323.7	0.8
318.15	30000	0.5003	1326.9	0.9
318.15	35000	0.5003	1330.1	1
318.15	40000	0.5003	1333.1	1
318.15	45000	0.5003	1336.1	1.1
318.15	50000	0.5003	1338.9	1.2
348.15	100	0.5003	1279.2	0.5
348.15	10000	0.5003	1286.9	0.6
348.15	15000	0.5003	1290.7	0.7
348.15	20000	0.5003	1294.6	0.7
348.15	25000	0.5003	1298.2	0.8
348.15	30000	0.5003	1301.6	0.8
348.15	35000	0.5003	1305.1	0.9
348.15	40000	0.5003	1308.2	1
348.15	45000	0.5003	1311.3	1
348.15	50000	0.5003	1314.5	1.1
