Measured thermophysical data. Volumetric properties of binary mixtures of alkoxyethanols with ethyl tert-butyl ether at various temperatures
Source: J. Chem. Thermodyn., 2005, 10.1016/j.jct.2004.09.014
Compound 1: 2-methoxyethan-1-ol, C3H8O2, InChI=1S/C3H8O2/c1-5-3-2-4/h4H,2-3H2,1H3, purity 99%
Compound 2: 2-(2-methoxyethoxy)ethanol, C5H12O3, InChI=1S/C5H12O3/c1-7-4-5-8-3-2-6/h6H,2-5H2,1H3, purity 98%
Compound 3: 2-[2-(2-methoxyethoxy)ethoxy]ethanol, C7H16O4, InChI=1S/C7H16O4/c1-9-4-5-11-7-6-10-3-2-8/h8H,2-7H2,1H3, purity 97%
Compound 4: 2-ethoxy-2-methylpropane, C6H14O, InChI=1S/C6H14O/c1-5-7-6(2,3)4/h5H2,1-4H3, purity 97%

System: 2-methoxyethan-1-ol; phases: Liquid
Fixed: Pressure, kPa = 101.3
Property: Mass density, kg/m3 (Liquid); method: PYCNOM:UFactor:4
Temperature, K	Mass density, kg/m3	uncertainty
293.15	964.88	1.01
298.15	960.29	1.05
303.15	955.76	1.08
308.15	951.1	1.12
313.15	946.54	1.15

System: 2-(2-methoxyethoxy)ethanol; phases: Liquid
Fixed: Pressure, kPa = 101.3
Property: Mass density, kg/m3 (Liquid); method: PYCNOM:UFactor:4
Temperature, K	Mass density, kg/m3	uncertainty
293.15	1020.8	1.41
298.15	1016.4	1.44
303.15	1011.83	1.46
308.15	1007.69	1.49
313.15	1003.22	1.52

System: 2-[2-(2-methoxyethoxy)ethoxy]ethanol; phases: Liquid
Fixed: Pressure, kPa = 101.3
Property: Mass density, kg/m3 (Liquid); method: PYCNOM:UFactor:4
Temperature, K	Mass density, kg/m3	uncertainty
293.15	1047.29	1.9
298.15	1042.97	1.91
303.15	1038.65	1.93
308.15	1034.33	1.95
313.15	1030.01	1.97

System: 2-ethoxy-2-methylpropane; phases: Liquid
Fixed: Pressure, kPa = 101.3
Property: Mass density, kg/m3 (Liquid); method: PYCNOM:UFactor:4
Temperature, K	Mass density, kg/m3	uncertainty
293.15	741.11	0.61
298.15	735.59	0.65
303.15	730.85	0.69
308.15	725.98	0.73
313.15	720.69	0.77

System: 2-methoxyethan-1-ol + 2-ethoxy-2-methylpropane; phases: Liquid
Fixed: Pressure, kPa = 101.3
Property: Mass density, kg/m3 (Liquid); method: PYCNOM:UFactor:4
Temperature, K	Mole fraction of 2-ethoxy-2-methylpropane	Mass density, kg/m3	uncertainty
293.15	0	964.88	1.01
293.15	0.0501	950.05	0.98
293.15	0.1	936.06	0.96
293.15	0.1508	921.99	0.93
293.15	0.2	908.51	0.9
293.15	0.2512	894.84	0.88
293.15	0.299	882.19	0.85
293.15	0.3489	869.14	0.83
293.15	0.4	856.06	0.8
293.15	0.4503	843.79	0.78
293.15	0.499	832.46	0.76
293.15	0.55	821.14	0.74
293.15	0.61	808.56	0.72
293.15	0.6599	798.66	0.7
293.15	0.7	790.96	0.69
293.15	0.7511	781.59	0.67
293.15	0.8	773.01	0.66
293.15	0.8489	764.84	0.65
293.15	0.9	756.5	0.63
293.15	0.949	748.89	0.62
293.15	1	741.11	0.61
298.15	0	960.29	1.05
298.15	0.0501	944.7	1.02
298.15	0.1	930.57	0.99
298.15	0.1508	916.4	0.96
298.15	0.2	902.92	0.94
298.15	0.2512	889.15	0.91
298.15	0.299	876.57	0.89
298.15	0.3489	863.45	0.86
298.15	0.4	850.34	0.84
298.15	0.4503	837.98	0.82
298.15	0.499	826.63	0.8
298.15	0.55	815.31	0.78
298.15	0.61	802.72	0.76
298.15	0.6599	792.76	0.74
298.15	0.7	785.07	0.73
298.15	0.7511	775.75	0.71
298.15	0.8	767.18	0.7
298.15	0.8489	759.04	0.69
298.15	0.9	750.81	0.67
298.15	0.949	743.23	0.66
298.15	1	735.59	0.65
303.15	0	955.76	1.08
303.15	0.0501	939.45	1.05
303.15	0.1	925.31	1.03
303.15	0.1508	911.08	1
303.15	0.2	897.66	0.97
303.15	0.2512	883.86	0.95
303.15	0.299	871.27	0.92
303.15	0.3489	858.24	0.9
303.15	0.4	845.06	0.88
303.15	0.4503	832.77	0.86
303.15	0.499	821.36	0.84
303.15	0.55	810.08	0.82
303.15	0.61	797.49	0.8
303.15	0.6599	787.53	0.78
303.15	0.7	779.87	0.77
303.15	0.7511	770.56	0.75
303.15	0.8	762.01	0.74
303.15	0.8489	753.94	0.73
303.15	0.9	745.76	0.71
303.15	0.949	738.32	0.7
303.15	1	730.85	0.69
308.15	0	951.1	1.12
308.15	0.0501	934.22	1.09
308.15	0.1	919.94	1.06
308.15	0.1508	905.73	1.03
308.15	0.2	892.25	1.01
308.15	0.2512	878.57	0.98
308.15	0.299	865.98	0.96
308.15	0.3489	852.9	0.94
308.15	0.4	839.8	0.91
308.15	0.4503	827.45	0.89
308.15	0.499	816.1	0.87
308.15	0.55	804.81	0.85
308.15	0.61	792.22	0.83
308.15	0.6599	782.25	0.82
308.15	0.7	774.61	0.81
308.15	0.7511	765.33	0.79
308.15	0.8	756.8	0.78
308.15	0.8489	748.76	0.77
308.15	0.9	740.66	0.75
308.15	0.949	733.24	0.74
308.15	1	725.98	0.73
313.15	0	946.54	1.15
313.15	0.0501	928.99	1.12
313.15	0.1	914.61	1.1
313.15	0.1508	900.29	1.07
313.15	0.2	886.78	1.04
313.15	0.2512	873.09	1.02
313.15	0.299	860.41	1
313.15	0.3489	847.36	0.97
313.15	0.4	834.21	0.95
313.15	0.4503	821.87	0.93
313.15	0.499	810.51	0.91
313.15	0.55	799.19	0.89
313.15	0.61	786.6	0.87
313.15	0.6599	776.65	0.86
313.15	0.7	769.03	0.84
313.15	0.7511	759.73	0.83
313.15	0.8	751.25	0.82
313.15	0.8489	743.21	0.8
313.15	0.9	735.16	0.79
313.15	0.949	727.78	0.78
313.15	1	720.69	0.77

System: 2-(2-methoxyethoxy)ethanol + 2-ethoxy-2-methylpropane; phases: Liquid
Fixed: Pressure, kPa = 101.3
Property: Mass density, kg/m3 (Liquid); method: PYCNOM:UFactor:4
Temperature, K	Mole fraction of 2-ethoxy-2-methylpropane	Mass density, kg/m3	uncertainty
293.15	0	1020.8	1.41
293.15	0.0501	1008.17	1.36
293.15	0.1	995.15	1.3
293.15	0.1459	982.68	1.25
293.15	0.1998	967.77	1.2
293.15	0.2556	951.99	1.14
293.15	0.3031	938.38	1.09
293.15	0.3521	924.22	1.05
293.15	0.4004	910.16	1
293.15	0.4511	895.34	0.96
293.15	0.4998	881.09	0.91
293.15	0.5628	862.65	0.86
293.15	0.5997	851.96	0.84
293.15	0.6621	833.91	0.79
293.15	0.6997	823.14	0.77
293.15	0.7411	811.55	0.74
293.15	0.7995	795.39	0.71
293.15	0.8401	784.28	0.69
293.15	0.8998	768.16	0.66
293.15	0.9498	754.72	0.63
293.15	1	741.11	0.61
298.15	0	1016.4	1.44
298.15	0.0501	1003.25	1.38
298.15	0.1	990.04	1.33
298.15	0.1459	977.43	1.28
298.15	0.1998	962.42	1.22
298.15	0.2556	946.59	1.17
298.15	0.3031	932.91	1.12
298.15	0.3521	918.7	1.08
298.15	0.4004	904.58	1.03
298.15	0.4511	889.68	0.99
298.15	0.4998	875.34	0.95
298.15	0.5628	856.89	0.9
298.15	0.5997	846.15	0.87
298.15	0.6621	828.16	0.83
298.15	0.6997	817.44	0.8
298.15	0.7411	805.81	0.78
298.15	0.7995	789.63	0.74
298.15	0.8401	778.52	0.72
298.15	0.8998	762.41	0.69
298.15	0.9498	748.99	0.67
298.15	1	735.59	0.65
303.15	0	1011.83	1.46
303.15	0.0501	998.3	1.41
303.15	0.1	984.9	1.36
303.15	0.1459	972.25	1.31
303.15	0.1998	957.22	1.25
303.15	0.2556	941.41	1.2
303.15	0.3031	927.71	1.15
303.15	0.3521	913.47	1.11
303.15	0.4004	899.35	1.06
303.15	0.4511	884.41	1.02
303.15	0.4998	870.08	0.98
303.15	0.5628	851.64	0.93
303.15	0.5997	840.91	0.91
303.15	0.6621	822.99	0.86
303.15	0.6997	812.33	0.84
303.15	0.7411	800.69	0.82
303.15	0.7995	784.53	0.78
303.15	0.8401	773.45	0.76
303.15	0.8998	757.39	0.73
303.15	0.9498	744.04	0.71
303.15	1	730.85	0.69
308.15	0	1007.69	1.49
308.15	0.0501	993.76	1.44
308.15	0.1	980.19	1.38
308.15	0.1459	967.46	1.34
308.15	0.1998	952.39	1.28
308.15	0.2556	936.49	1.23
308.15	0.3031	922.72	1.18
308.15	0.3521	908.42	1.14
308.15	0.4004	894.26	1.1
308.15	0.4511	879.28	1.05
308.15	0.4998	864.91	1.02
308.15	0.5628	846.47	0.97
308.15	0.5997	835.75	0.94
308.15	0.6621	817.83	0.9
308.15	0.6997	807.17	0.88
308.15	0.7411	795.54	0.85
308.15	0.7995	779.35	0.82
308.15	0.8401	768.28	0.8
308.15	0.8998	752.25	0.77
308.15	0.9498	738.99	0.75
308.15	1	725.98	0.73
313.15	0	1003.22	1.52
313.15	0.0501	988.94	1.46
313.15	0.1	975.19	1.41
313.15	0.1459	962.35	1.36
313.15	0.1998	947.16	1.31
313.15	0.2556	931.19	1.26
313.15	0.3031	917.37	1.21
313.15	0.3521	902.96	1.17
313.15	0.4004	888.75	1.13
313.15	0.4511	873.72	1.09
313.15	0.4998	859.34	1.05
313.15	0.5628	840.9	1
313.15	0.5997	830.21	0.98
313.15	0.6621	812.29	0.94
313.15	0.6997	801.6	0.91
313.15	0.7411	790.02	0.89
313.15	0.7995	773.85	0.86
313.15	0.8401	762.75	0.84
313.15	0.8998	746.7	0.81
313.15	0.9498	733.52	0.79
313.15	1	720.69	0.77

System: 2-[2-(2-methoxyethoxy)ethoxy]ethanol + 2-ethoxy-2-methylpropane; phases: Liquid
Fixed: Pressure, kPa = 101.3
Property: Mass density, kg/m3 (Liquid); method: PYCNOM:UFactor:4
Temperature, K	Mole fraction of 2-ethoxy-2-methylpropane	Mass density, kg/m3	uncertainty
293.15	0	1047.29	1.9
293.15	0.0504	1037.46	1.81
293.15	0.1	1026.36	1.72
293.15	0.1509	1014.18	1.64
293.15	0.2025	1000.97	1.55
293.15	0.2489	988.73	1.47
293.15	0.3007	974.54	1.39
293.15	0.3511	960.3	1.31
293.15	0.3999	946.13	1.24
293.15	0.4508	930.95	1.17
293.15	0.5001	915.87	1.1
293.15	0.5493	900.4	1.03
293.15	0.6	884.14	0.97
293.15	0.6503	867.65	0.91
293.15	0.6998	851.17	0.86
293.15	0.7491	834.48	0.81
293.15	0.7999	816.94	0.76
293.15	0.8509	798.94	0.72
293.15	0.9001	780.97	0.68
293.15	0.9498	761.89	0.65
293.15	1	741.11	0.61
298.15	0	1042.97	1.91
298.15	0.0504	1032.75	1.83
298.15	0.1	1021.48	1.74
298.15	0.1509	1009.14	1.66
298.15	0.2025	995.85	1.57
298.15	0.2489	983.55	1.49
298.15	0.3007	969.31	1.41
298.15	0.3511	954.96	1.34
298.15	0.3999	940.72	1.26
298.15	0.4508	925.44	1.19
298.15	0.5001	910.23	1.13
298.15	0.5493	894.71	1.06
298.15	0.6	878.36	1
298.15	0.6503	861.88	0.94
298.15	0.6998	845.39	0.89
298.15	0.7491	828.67	0.84
298.15	0.7999	811.16	0.8
298.15	0.8509	793.17	0.76
298.15	0.9001	775.22	0.72
298.15	0.9498	756.2	0.69
298.15	1	735.59	0.65
303.15	0	1038.65	1.93
303.15	0.0504	1028.05	1.84
303.15	0.1	1016.59	1.76
303.15	0.1509	1004.22	1.68
303.15	0.2025	990.92	1.59
303.15	0.2489	978.6	1.52
303.15	0.3007	964.34	1.44
303.15	0.3511	949.94	1.36
303.15	0.3999	935.65	1.29
303.15	0.4508	920.33	1.22
303.15	0.5001	905.09	1.15
303.15	0.5493	889.55	1.09
303.15	0.6	873.18	1.03
303.15	0.6503	856.69	0.98
303.15	0.6998	840.21	0.93
303.15	0.7491	823.52	0.88
303.15	0.7999	806.01	0.83
303.15	0.8509	788.08	0.79
303.15	0.9001	770.16	0.76
303.15	0.9498	751.24	0.73
303.15	1	730.85	0.69
308.15	0	1034.33	1.95
308.15	0.0504	1023.44	1.86
308.15	0.1	1011.83	1.78
308.15	0.1509	999.35	1.7
308.15	0.2025	985.93	1.61
308.15	0.2489	973.56	1.54
308.15	0.3007	959.27	1.46
308.15	0.3511	944.86	1.39
308.15	0.3999	930.52	1.32
308.15	0.4508	915.15	1.25
308.15	0.5001	899.84	1.18
308.15	0.5493	884.29	1.12
308.15	0.6	867.9	1.06
308.15	0.6503	851.4	1.01
308.15	0.6998	834.91	0.96
308.15	0.7491	818.24	0.91
308.15	0.7999	800.74	0.87
308.15	0.8509	782.84	0.83
308.15	0.9001	764.98	0.8
308.15	0.9498	746.17	0.77
308.15	1	725.98	0.73
313.15	0	1030.01	1.97
313.15	0.0504	1018.75	1.88
313.15	0.1	1006.97	1.8
313.15	0.1509	994.34	1.72
313.15	0.2025	980.82	1.63
313.15	0.2489	968.35	1.56
313.15	0.3007	953.99	1.48
313.15	0.3511	939.57	1.41
313.15	0.3999	925.15	1.34
313.15	0.4508	909.71	1.28
313.15	0.5001	894.39	1.21
313.15	0.5493	878.77	1.15
313.15	0.6	862.36	1.1
313.15	0.6503	845.82	1.04
313.15	0.6998	829.29	1
313.15	0.7491	812.58	0.95
313.15	0.7999	795.06	0.91
313.15	0.8509	777.19	0.87
313.15	0.9001	759.37	0.84
313.15	0.9498	740.68	0.81
313.15	1	720.69	0.77
