Measured thermophysical data. Solubility and thermodynamic properties of SO2 in three low volatile urea derivatives
Source: J. Chem. Thermodyn., 2016, 10.1016/j.jct.2016.05.004
Compound 1: sulfur dioxide, O2S, InChI=1S/O2S/c1-3-2, purity 99.9%
Compound 2: tetramethylurea, C5H12N2O, InChI=1S/C5H12N2O/c1-6(2)5(8)7(3)4/h1-4H3, purity 99.5%
Compound 3: 1,3-dimethyl-2-imidazolidinone, C5H10N2O, InChI=1S/C5H10N2O/c1-6-3-4-7(2)5(6)8/h3-4H2,1-2H3, purity 99.6%
Compound 4: 1,3-dimethyl-3,4,5,6-tetrahydro-2(1H)-pyrimidinone, C6H12N2O, InChI=1S/C6H12N2O/c1-7-4-3-5-8(2)6(7)9/h3-5H2,1-2H3, purity 99.3%

System: tetramethylurea + sulfur dioxide; phases: Liquid, Gas
Property: Molality, mol/kg of sulfur dioxide (Liquid); method: volumetric
Temperature, K	Pressure, kPa	Molality, mol/kg of sulfur dioxide	uncertainty
293.15	3.2	1.8106	0.4401
293.15	6.1	2.8596	0.3909
293.15	9.3	3.7147	0.309
293.15	15.3	4.9593	0.3251
293.15	20	6.0118	0.3404
293.15	25.4	6.9867	0.3392
293.15	31.2	7.7983	0.3493
293.15	38.8	8.7289	0.373
293.15	49.3	9.7557	0.4065
293.15	60.3	10.7132	0.4412
293.15	71	11.5881	0.4767
293.15	80.3	12.5092	0.512
293.15	89.7	13.2162	0.5376
293.15	99.7	14.0068	0.5691
293.15	108.9	14.7173	0.5969
293.15	119.2	15.4978	0.6277
303.15	3.5	1.312	0.3166
303.15	6.3	2.0606	0.3085
303.15	9.4	2.7559	0.2499
303.15	15.1	3.7323	0.2407
303.15	20.4	4.4699	0.2364
303.15	26.1	5.1547	0.2456
303.15	30.8	5.6365	0.2531
303.15	39.9	6.5754	0.2858
303.15	51	7.5426	0.3183
303.15	61.1	8.3349	0.3478
303.15	69.3	9.0039	0.3731
303.15	79.9	9.7772	0.4013
303.15	90.5	10.4989	0.4279
303.15	100.1	11.0727	0.4493
303.15	110.9	11.6927	0.473
303.15	121.8	12.2969	0.5023
313.15	3.9	0.9015	0.2421
313.15	7.8	1.6706	0.2269
313.15	10.7	2.1278	0.1867
313.15	15.3	2.7405	0.185
313.15	20.7	3.3616	0.1873
313.15	25.6	3.8519	0.1955
313.15	29.9	4.2539	0.1978
313.15	40.2	5.0894	0.2247
313.15	51.4	5.9207	0.2526
313.15	60.9	6.5502	0.2737
313.15	71.4	7.1945	0.2973
313.15	80.7	7.7477	0.3183
313.15	90.8	8.3221	0.3405
313.15	100.7	8.8655	0.3614
313.15	110.2	9.3661	0.3808
313.15	120.4	9.9085	0.4042
323.15	5.4	0.6771	0.1629
323.15	7.9	1.0116	0.1629
323.15	10.1	1.2942	0.145
323.15	16.7	2.013	0.1487
323.15	20.8	2.3996	0.1439
323.15	26.4	2.8773	0.1516
323.15	31.6	3.2808	0.1566
323.15	43.1	4.0621	0.1808
323.15	52.9	4.6656	0.1999
323.15	62.6	5.1985	0.2182
323.15	72	5.6851	0.236
323.15	81.6	6.1577	0.2536
323.15	92.1	6.6462	0.272
323.15	102.6	7.1016	0.2896
323.15	110.3	7.4407	0.3029
323.15	120	7.8551	0.3192

System: 1,3-dimethyl-2-imidazolidinone + sulfur dioxide; phases: Liquid, Gas
Property: Molality, mol/kg of sulfur dioxide (Liquid); method: volumetric
Temperature, K	Pressure, kPa	Molality, mol/kg of sulfur dioxide	uncertainty
293.15	8.5	3.4877	0.2724
293.15	11.3	4.0332	0.3034
293.15	14.7	4.811	0.3155
293.15	19.1	5.6622	0.3116
293.15	24.1	6.486	0.3228
293.15	29.2	7.2728	0.338
293.15	39.7	8.7211	0.3778
293.15	53.6	10.2073	0.4273
293.15	64.4	11.2523	0.4651
293.15	71.3	11.8828	0.4881
293.15	79.2	12.5783	0.5146
293.15	88.4	13.3609	0.5447
293.15	98.7	14.2103	0.5776
293.15	108.2	14.9743	0.6074
293.15	118.7	15.802	0.64
303.15	7.9	2.4449	0.2419
303.15	10.7	2.9964	0.2396
303.15	15.6	3.7923	0.2402
303.15	19.2	4.3161	0.2344
303.15	24.8	5.0081	0.2475
303.15	30.1	5.6109	0.2576
303.15	39.3	6.5382	0.2883
303.15	48	7.3427	0.3127
303.15	56.6	8.0704	0.3364
303.15	68.3	9.0206	0.3749
303.15	79	9.835	0.4049
303.15	91.3	10.7781	0.4413
303.15	99.9	11.4237	0.4662
303.15	109.7	12.1393	0.4947
303.15	120	12.9264	0.5258
313.15	2.9	0.6386	0.2867
313.15	6.1	1.2667	0.2279
313.15	9.7	1.8603	0.1894
313.15	14.6	2.5221	0.1793
313.15	20.9	3.2437	0.1807
313.15	26.9	3.8493	0.1884
313.15	32.7	4.3587	0.1975
313.15	41.7	5.0839	0.2198
313.15	65.8	6.7503	0.2957
313.15	70.2	7.0319	0.2883
313.15	79.9	7.607	0.3125
313.15	89.5	8.1787	0.3359
313.15	99.7	8.7615	0.3581
313.15	110.5	9.3701	0.3813
313.15	119.6	9.8697	0.4121
323.15	3.3	0.3718	0.1466
323.15	5.7	0.6634	0.1438
323.15	8.9	1.0315	0.1373
323.15	14.6	1.6361	0.139
323.15	19.5	2.1107	0.1397
323.15	25.5	2.6443	0.1485
323.15	29.9	3.0069	0.1518
323.15	40.6	3.8056	0.175
323.15	49.5	4.3969	0.1919
323.15	59.5	4.9993	0.2122
323.15	70	5.5815	0.2328
323.15	78.6	6.0173	0.2486
323.15	90	6.5819	0.2702
323.15	100.9	7.0991	0.29
323.15	109.4	7.484	0.3049
323.15	119.5	7.9396	0.3228

System: 1,3-dimethyl-3,4,5,6-tetrahydro-2(1H)-pyrimidinone + sulfur dioxide; phases: Liquid, Gas
Property: Molality, mol/kg of sulfur dioxide (Liquid); method: volumetric
Temperature, K	Pressure, kPa	Molality, mol/kg of sulfur dioxide	uncertainty
293.15	3.1	2.031	0.4599
293.15	5.9	3.0871	0.3789
293.15	9.3	3.8952	0.3063
293.15	14.5	4.9831	0.3364
293.15	19.4	6.1741	0.3444
293.15	23.9	6.8522	0.3154
293.15	29.3	7.4566	0.3278
293.15	38.6	8.4965	0.3625
293.15	49.8	9.5803	0.3965
293.15	59.9	10.2456	0.4211
293.15	69.1	11.0832	0.4579
293.15	78.2	11.9426	0.4894
293.15	88.8	12.7666	0.5198
293.15	99.8	13.6008	0.5532
293.15	110	14.4401	0.5861
293.15	119.7	15.1426	0.6131
303.15	3.1	1.4555	0.346
303.15	6.2	2.3896	0.3214
303.15	9.9	3.196	0.2524
303.15	15.8	4.1891	0.2498
303.15	20	4.7657	0.2499
303.15	24.8	5.329	0.2528
303.15	29.4	5.8168	0.2577
303.15	39.4	6.7487	0.2907
303.15	49.1	7.5562	0.3199
303.15	58.9	8.3119	0.3453
303.15	69.2	9.043	0.3725
303.15	78.8	9.7067	0.3975
303.15	90.6	10.5055	0.4274
303.15	102.4	11.1546	0.4516
303.15	111.7	11.6605	0.4714
303.15	121.6	12.1863	0.4989
313.15	3	1.0079	0.2954
313.15	7.1	1.9772	0.2785
313.15	9	2.3246	0.2113
313.15	14.5	3.1529	0.2006
313.15	22.9	4.1412	0.2152
313.15	25.7	4.4054	0.2098
313.15	29.8	4.791	0.2166
313.15	40	5.6076	0.241
313.15	54.4	6.5772	0.2762
313.15	60.9	6.9717	0.2876
313.15	70.7	7.5569	0.3108
313.15	79.8	8.0593	0.3293
313.15	91.9	8.7036	0.3542
313.15	101.1	9.1753	0.3727
313.15	112	9.7199	0.3942
313.15	121	10.1581	0.412
323.15	3.1	0.5144	0.2003
323.15	5.9	0.9791	0.1884
323.15	9.6	1.53	0.1756
323.15	15	2.2304	0.1734
323.15	21.3	2.9767	0.1706
323.15	27.4	3.4846	0.1688
323.15	33	3.8964	0.1829
323.15	43.7	4.7665	0.211
323.15	51.3	5.2484	0.2225
323.15	59.6	5.7224	0.2381
323.15	72.7	6.3872	0.2628
323.15	80.7	6.7546	0.276
323.15	89.1	7.1158	0.2896
323.15	101.2	7.6006	0.3082
323.15	113.8	8.0701	0.3265
323.15	125.4	8.4773	0.3425
