Measured thermophysical data. The salting-out effect and phase separation in aqueous solutions of tri-sodium citrate and 1-butyl-3-methylimidazolium bromide
Source: J. Chem. Thermodyn., 2010, 10.1016/j.jct.2009.10.007
Compound 1: water, H2O, InChI=1S/H2O/h1H2
Compound 2: 1-butyl-3-methylimidazolium bromide, C8H15BrN2, InChI=1S/C8H15N2.BrH/c1-3-4-5-10-7-6-9(2)8-10;/h6-8H,3-5H2,1-2H3;1H/q+1;/p-1, purity 98%
Compound 3: trisodium citrate, C6H5Na3O7, InChI=1S/C6H8O7.3Na/c7-3(8)1-6(13,5(11)12)2-4(9)10;;;/h13H,1-2H2,(H,7,8)(H,9,10)(H,11,12);;;/q;3*+1/p-3, purity 99.5%

System: water + 1-butyl-3-methylimidazolium bromide; phases: Liquid
Fixed: Pressure, kPa = 101
Fixed: Temperature, K = 308.15
Property: Refractive index (Na D-line) (Liquid); method: Standard Abbe refractometry
Molality, mol/kg of 1-butyl-3-methylimidazolium bromide	Refractive index (Na D-line)	uncertainty
0	1.3311	0.0005
0.0096	1.3326	0.0005
0.02	1.3343	0.0005
0.0298	1.3358	0.0005
0.0348	1.3366	0.0005
0.0398	1.3375	0.0005
0.05	1.339	0.0005
0.0548	1.3397	0.0005
0.0598	1.3405	0.0005
0.0689	1.3419	0.0005
0.082	1.3439	0.0005
0.0854	1.3444	0.0005
0.0896	1.3451	0.0005
0.1	1.3466	0.0005
0.1192	1.3497	0.0005

System: water + 1-butyl-3-methylimidazolium bromide; phases: Liquid
Fixed: Pressure, kPa = 101
Property: Speed of sound, m/s (Liquid); method: Sing-around technique in a fixed-path interferometer
Temperature, K	Molality, mol/kg of 1-butyl-3-methylimidazolium bromide	Speed of sound, m/s	uncertainty
288.15	0	1466.25	0.75
288.15	0.0183	1468.72	0.75
288.15	0.0274	1469.84	0.75
288.15	0.0367	1470.95	0.75
288.15	0.0459	1472.05	0.75
288.15	0.0692	1474.77	0.76
288.15	0.0932	1477.29	0.76
288.15	0.1164	1480.04	0.76
288.15	0.141	1482.95	0.76
288.15	0.1652	1485.58	0.77
288.15	0.1863	1488.04	0.77
288.15	0.2114	1490.8	0.77
288.15	0.2376	1493.61	0.77
288.15	0.2632	1496.4	0.78
288.15	0.2831	1498.53	0.78
293.15	0	1482.66	0.76
293.15	0.0183	1484.66	0.75
293.15	0.0274	1485.66	0.76
293.15	0.0367	1486.67	0.76
293.15	0.0459	1487.67	0.76
293.15	0.0692	1490.16	0.76
293.15	0.0932	1492.54	0.76
293.15	0.1164	1495.02	0.76
293.15	0.141	1497.62	0.77
293.15	0.1652	1500.07	0.77
293.15	0.1863	1502.24	0.77
293.15	0.2114	1504.75	0.77
293.15	0.2376	1507.32	0.78
293.15	0.2632	1509.85	0.78
293.15	0.2831	1511.77	0.78
298.15	0	1497	0.76
298.15	0.0183	1498.75	0.76
298.15	0.0274	1499.64	0.76
298.15	0.0367	1500.55	0.76
298.15	0.0459	1501.47	0.76
298.15	0.0692	1503.72	0.76
298.15	0.0932	1505.87	0.76
298.15	0.1164	1508.14	0.77
298.15	0.141	1510.5	0.77
298.15	0.1652	1512.72	0.77
298.15	0.1863	1514.7	0.77
298.15	0.2114	1516.99	0.78
298.15	0.2376	1519.35	0.78
298.15	0.2632	1521.66	0.78
298.15	0.2831	1523.4	0.78
303.15	0	1509.44	0.76
303.15	0.0183	1510.95	0.76
303.15	0.0274	1511.77	0.76
303.15	0.0367	1512.6	0.76
303.15	0.0459	1513.41	0.76
303.15	0.0692	1515.52	0.76
303.15	0.0932	1517.46	0.76
303.15	0.1164	1519.52	0.77
303.15	0.141	1521.66	0.77
303.15	0.1652	1523.71	0.77
303.15	0.1863	1525.51	0.77
303.15	0.2114	1527.56	0.78
303.15	0.2376	1529.72	0.78
303.15	0.2632	1531.81	0.78
303.15	0.2831	1533.4	0.78
308.15	0	1520.12	0.76
308.15	0.0183	1521.49	0.76
308.15	0.0274	1522.24	0.76
308.15	0.0367	1522.99	0.76
308.15	0.0459	1523.74	0.76
308.15	0.0692	1525.62	0.77
308.15	0.0932	1527.42	0.77
308.15	0.1164	1529.26	0.77
308.15	0.141	1531.22	0.77
308.15	0.1652	1533.08	0.77
308.15	0.1863	1534.68	0.78
308.15	0.2114	1536.57	0.78
308.15	0.2376	1538.52	0.78
308.15	0.2632	1540.41	0.79
308.15	0.2831	1541.85	0.79

System: water + 1-butyl-3-methylimidazolium bromide; phases: Liquid
Fixed: Pressure, kPa = 101
Property: Mass density, kg/m3 (Liquid); method: Vibrating tube method
Temperature, K	Molality, mol/kg of 1-butyl-3-methylimidazolium bromide	Mass density, kg/m3	uncertainty
288.15	0	999.099	0.061
288.15	0.0183	1000.032	0.061
288.15	0.0274	1000.493	0.061
288.15	0.0367	1000.959	0.061
288.15	0.0459	1001.424	0.061
288.15	0.0692	1002.591	0.061
288.15	0.0932	1003.781	0.062
288.15	0.1164	1004.923	0.062
288.15	0.141	1006.128	0.062
288.15	0.1652	1007.304	0.063
288.15	0.1863	1008.322	0.063
288.15	0.2114	1009.526	0.064
288.15	0.2376	1010.775	0.065
288.15	0.2632	1011.993	0.065
288.15	0.2831	1012.925	0.065
293.15	0	998.203	0.065
293.15	0.0183	999.121	0.06
293.15	0.0274	999.575	0.061
293.15	0.0367	1000.037	0.06
293.15	0.0459	1000.493	0.062
293.15	0.0692	1001.645	0.061
293.15	0.0932	1002.818	0.061
293.15	0.1164	1003.942	0.061
293.15	0.141	1005.131	0.062
293.15	0.1652	1006.29	0.062
293.15	0.1863	1007.294	0.063
293.15	0.2114	1008.481	0.063
293.15	0.2376	1009.712	0.064
293.15	0.2632	1010.913	0.064
293.15	0.2831	1011.83	0.062
298.15	0	997.043	0.064
298.15	0.0183	997.948	0.06
298.15	0.0274	998.397	0.061
298.15	0.0367	998.851	0.061
298.15	0.0459	999.303	0.061
298.15	0.0692	1000.44	0.06
298.15	0.0932	1001.597	0.061
298.15	0.1164	1002.708	0.061
298.15	0.141	1003.882	0.061
298.15	0.1652	1005.025	0.062
298.15	0.1863	1006.014	0.062
298.15	0.2114	1007.188	0.063
298.15	0.2376	1008.401	0.063
298.15	0.2632	1009.583	0.064
298.15	0.2831	1010.492	0.062
303.15	0	995.645	0.064
303.15	0.0183	996.538	0.06
303.15	0.0274	996.983	0.061
303.15	0.0367	997.432	0.061
303.15	0.0459	997.878	0.061
303.15	0.0692	999.002	0.06
303.15	0.0932	1000.146	0.06
303.15	0.1164	1001.242	0.061
303.15	0.141	1002.402	0.061
303.15	0.1652	1003.531	0.061
303.15	0.1863	1004.51	0.062
303.15	0.2114	1005.668	0.062
303.15	0.2376	1006.867	0.063
303.15	0.2632	1008.035	0.063
303.15	0.2831	1008.932	0.062
308.15	0	994.029	0.061
308.15	0.0183	994.913	0.061
308.15	0.0274	995.351	0.061
308.15	0.0367	995.796	0.061
308.15	0.0459	996.238	0.061
308.15	0.0692	997.347	0.061
308.15	0.0932	998.48	0.06
308.15	0.1164	999.565	0.06
308.15	0.141	1000.711	0.06
308.15	0.1652	1001.828	0.061
308.15	0.1863	1002.794	0.061
308.15	0.2114	1003.94	0.062
308.15	0.2376	1005.126	0.062
308.15	0.2632	1006.281	0.063
308.15	0.2831	1007.167	0.063

System: trisodium citrate + water; phases: Liquid
Fixed: Pressure, kPa = 101
Fixed: Temperature, K = 308.15
Property: Refractive index (Na D-line) (Liquid); method: Standard Abbe refractometry
Molality, mol/kg of trisodium citrate	Refractive index (Na D-line)	uncertainty
0	1.3311	0.0005
0.034	1.3328	0.0005
0.0682	1.3345	0.0005
0.1015	1.3361	0.0005
0.1424	1.3379	0.0005
0.1771	1.3393	0.0005
0.2157	1.341	0.0005
0.2524	1.3425	0.0005
0.2847	1.3438	0.0005
0.3319	1.3456	0.0005
0.3674	1.3469	0.0005

System: trisodium citrate + water + 1-butyl-3-methylimidazolium bromide; phases: Liquid
Fixed: Pressure, kPa = 101
Fixed: Temperature, K = 308.15
Fixed: Solvent: Molality, mol/kg of 1-butyl-3-methylimidazolium bromide = 0.069
Property: Refractive index (Na D-line) (Liquid); method: Standard Abbe refractometry
Molality, mol/kg of trisodium citrate	Refractive index (Na D-line)	uncertainty
0	1.3336	0.0005
0.0329	1.3352	0.0005
0.0685	1.3368	0.0005
0.1051	1.3384	0.0005
0.134	1.3396	0.0005
0.1748	1.3413	0.0005
0.2108	1.3429	0.0005
0.2459	1.3442	0.0005
0.291	1.346	0.0005
0.3383	1.3479	0.0005
0.3707	1.3492	0.0005

System: trisodium citrate + water + 1-butyl-3-methylimidazolium bromide; phases: Liquid mixture 1, Liquid mixture 2
Fixed: Pressure, kPa = 101
Property: Molality, mol/kg of trisodium citrate (Liquid mixture 1); method: Titration Method
Temperature, K	Molality, mol/kg of 1-butyl-3-methylimidazolium bromide	Molality, mol/kg of trisodium citrate	uncertainty
288.15	0.9379	1.7199	0.0015
288.15	0.9974	1.6651	0.0016
288.15	1.0501	1.6161	0.0015
288.15	1.1343	1.5615	0.0014
288.15	1.2464	1.5003	0.0015
288.15	1.3526	1.4434	0.0013
288.15	1.4496	1.3893	0.0013
288.15	1.5729	1.3329	0.0013
288.15	1.6802	1.2818	0.0013
288.15	1.7815	1.2352	0.0013
288.15	1.8805	1.1898	0.0013
288.15	1.9922	1.1434	0.0013
288.15	2.0965	1.1005	0.0013
288.15	2.1946	1.0599	0.0013
288.15	2.2814	1.0233	0.0013
288.15	2.3799	0.9846	0.0013
288.15	2.4499	0.9398	0.0013
288.15	2.5355	0.9079	0.0013
288.15	2.6148	0.8779	0.0013
288.15	2.6913	0.8496	0.0013
288.15	2.7756	0.8201	0.0013
288.15	2.8425	0.7955	0.0013
288.15	2.918	0.7692	0.0013
288.15	2.9896	0.7452	0.0013
288.15	3.0804	0.7188	0.0012
288.15	3.152	0.6957	0.0012
288.15	3.2188	0.6744	0.0012
288.15	3.2893	0.653	0.0012
288.15	3.3832	0.6276	0.0012
288.15	3.5025	0.5915	0.0012
288.15	3.6892	0.5461	0.0012
288.15	4.0574	0.4672	0.0012
298.15	0.9042	1.8145	0.0014
298.15	0.9866	1.7564	0.0015
298.15	1.0627	1.7004	0.0015
298.15	1.1327	1.6486	0.0015
298.15	1.2458	1.5929	0.0015
298.15	1.3061	1.5473	0.0015
298.15	1.3666	1.5058	0.0015
298.15	1.4608	1.458	0.0014
298.15	1.5508	1.4152	0.0014
298.15	1.6361	1.3733	0.0014
298.15	1.7183	1.3344	0.0014
298.15	1.7979	1.2968	0.0013
298.15	1.8711	1.2625	0.0013
298.15	1.9711	1.2246	0.0013
298.15	2.0368	1.1938	0.0014
298.15	2.1011	1.1632	0.0013
298.15	2.1885	1.1313	0.0013
298.15	2.2684	1.1001	0.0013
298.15	2.3447	1.0711	0.0013
298.15	2.3932	1.0473	0.0014
298.15	2.4382	1.0254	0.0014
298.15	2.4822	1.0032	0.0013
298.15	2.5505	0.9793	0.0013
298.15	2.5912	0.9587	0.0013
298.15	2.652	0.9366	0.0014
298.15	2.709	0.9154	0.0013
298.15	2.7674	0.8958	0.0013
298.15	2.8214	0.8762	0.0013
298.15	2.8749	0.8572	0.0013
298.15	2.9249	0.8401	0.0013
298.15	2.973	0.8234	0.0013
298.15	3.0186	0.8063	0.0012
298.15	3.0641	0.7907	0.0013
298.15	3.1114	0.7752	0.0013
298.15	3.153	0.7605	0.0013
298.15	3.1924	0.7464	0.0012
298.15	3.2503	0.7307	0.0013
298.15	3.3026	0.7158	0.0013
298.15	3.3528	0.7015	0.0012
298.15	3.4041	0.6879	0.0012
298.15	3.4518	0.6748	0.0012
298.15	3.4975	0.6621	0.0012
298.15	3.5425	0.6501	0.0012
298.15	3.5838	0.6385	0.0012
298.15	3.6254	0.6269	0.0012
298.15	3.6803	0.6145	0.0012
298.15	3.7342	0.6019	0.0012
298.15	3.8009	0.5892	0.0011
298.15	3.8676	0.5771	0.0011
298.15	3.929	0.5654	0.0011
298.15	3.9619	0.5499	0.0012
298.15	4.0162	0.5399	0.0012
298.15	4.0685	0.5289	0.0012
298.15	4.1336	0.5185	0.0011
298.15	4.1905	0.5074	0.0011
298.15	4.2434	0.4968	0.0011
298.15	4.3068	0.4876	0.0011
298.15	4.3701	0.4722	0.0011
308.15	1.0472	1.7881	0.0014
308.15	1.1691	1.7236	0.0015
308.15	1.2758	1.6634	0.0015
308.15	1.3753	1.6073	0.0014
308.15	1.4691	1.5552	0.0014
308.15	1.5618	1.5065	0.0014
308.15	1.647	1.4598	0.0014
308.15	1.7244	1.4176	0.0014
308.15	1.7988	1.3769	0.0014
308.15	1.9033	1.3335	0.0014
308.15	2.0047	1.2921	0.0013
308.15	2.0971	1.2541	0.0013
308.15	2.1833	1.2169	0.0013
308.15	2.2683	1.1823	0.0013
308.15	2.3751	1.1448	0.0013
308.15	2.4415	1.0961	0.0013
308.15	2.5392	1.0635	0.0013
308.15	2.6292	1.0341	0.0013
308.15	2.7036	0.992	0.0013
308.15	2.8255	0.9608	0.0013
308.15	2.9067	0.9203	0.0013
308.15	2.9801	0.8826	0.0013
308.15	3.1006	0.8565	0.0012
308.15	3.1795	0.8218	0.0012
308.15	3.2889	0.7972	0.0012
308.15	3.3259	0.7601	0.0012
308.15	3.4403	0.7384	0.0012
308.15	3.5325	0.7191	0.0012
308.15	3.6058	0.6928	0.0012
308.15	3.6854	0.6674	0.0012
308.15	3.7759	0.6426	0.0012
308.15	3.8598	0.6194	0.0012
308.15	4.0036	0.5983	0.0012
308.15	4.1177	0.5676	0.0012
308.15	4.2345	0.539	0.0011
308.15	4.3889	0.5085	0.0012
308.15	4.5366	0.4792	0.0012
318.15	1.1799	1.8157	0.0015
318.15	1.2859	1.7524	0.0015
318.15	1.3423	1.6975	0.0015
318.15	1.434	1.6383	0.0014
318.15	1.5601	1.5796	0.0014
318.15	1.6424	1.5299	0.0014
318.15	1.7542	1.4806	0.0014
318.15	1.8612	1.4336	0.0014
318.15	1.9576	1.3886	0.0014
318.15	2.0226	1.3521	0.0014
318.15	2.1133	1.3126	0.0014
318.15	2.1971	1.2755	0.0014
318.15	2.2781	1.24	0.0014
318.15	2.3523	1.2053	0.0013
318.15	2.4523	1.1712	0.0014
318.15	2.4967	1.1453	0.0014
318.15	2.5643	1.117	0.0014
318.15	2.6299	1.0906	0.0013
318.15	2.7179	1.063	0.0013
318.15	2.7965	1.0343	0.0013
318.15	2.865	0.9954	0.0013
318.15	2.957	0.9686	0.0014
318.15	3.0132	0.9334	0.0014
318.15	3.0937	0.9102	0.0012
318.15	3.178	0.8871	0.0013
318.15	3.2425	0.8554	0.0013
318.15	3.3331	0.8338	0.0013
318.15	3.4047	0.8039	0.0012
318.15	3.5014	0.7829	0.0012
318.15	3.5946	0.7629	0.0012
318.15	3.6491	0.738	0.0012
318.15	3.7316	0.7205	0.0012
318.15	3.7971	0.6961	0.0012
318.15	3.9031	0.6773	0.0012
318.15	4.0009	0.6522	0.0012
318.15	4.1055	0.6271	0.0012
318.15	4.1897	0.6052	0.0012
328.15	1.4369	1.7476	0.0016
328.15	1.5688	1.6806	0.0015
328.15	1.6535	1.6271	0.0015
328.15	1.7778	1.5686	0.0015
328.15	1.8902	1.5134	0.0014
328.15	1.9905	1.4624	0.0014
328.15	2.1204	1.41	0.0014
328.15	2.2369	1.3606	0.0014
328.15	2.3452	1.3123	0.0014
328.15	2.4507	1.2695	0.0014
328.15	2.5475	1.228	0.0014
328.15	2.6639	1.1855	0.0014
328.15	2.7406	1.1342	0.0013
328.15	2.8463	1.099	0.0013
328.15	2.9417	1.0634	0.0013
328.15	3.0369	1.0314	0.0014
328.15	3.1108	0.9875	0.0013
328.15	3.2192	0.957	0.0013
328.15	3.318	0.9282	0.0013
328.15	3.3767	0.8934	0.0013
328.15	3.4673	0.8679	0.0012
328.15	3.5676	0.8412	0.0012
328.15	3.633	0.8104	0.0013
328.15	3.689	0.7942	0.0012
328.15	3.7371	0.7849	0.0012
328.15	3.8331	0.7624	0.0012
328.15	3.9066	0.7322	0.0012
328.15	4.0158	0.7082	0.0012
328.15	4.0872	0.6824	0.0011
328.15	4.2335	0.6557	0.0011
328.15	4.3002	0.6367	0.0011
328.15	4.3294	0.6361	0.001
328.15	4.7758	0.5269	0.0011
328.15	5.2703	0.4349	0.0012
338.15	1.69	1.7138	0.0016
338.15	1.7898	1.6572	0.0015
338.15	1.8818	1.6035	0.0014
338.15	1.9747	1.5531	0.0014
338.15	2.0994	1.4985	0.0014
338.15	2.2131	1.4485	0.0013
338.15	2.3181	1.4011	0.0013
338.15	2.4209	1.356	0.0013
338.15	2.5126	1.3154	0.0013
338.15	2.6012	1.2762	0.0013
338.15	2.6846	1.2392	0.0013
338.15	2.76	1.1836	0.0013
338.15	2.8611	1.1476	0.0012
338.15	2.9565	1.1127	0.0012
338.15	3.051	1.0806	0.0012
338.15	3.1333	1.0507	0.0013
338.15	3.2036	1.0073	0.0012
338.15	3.3062	0.9774	0.0011
338.15	3.4068	0.9483	0.0012
338.15	3.4765	0.9107	0.0012
338.15	3.5775	0.8842	0.0011
338.15	3.6781	0.8588	0.0012
338.15	3.7606	0.8239	0.0012
338.15	3.8646	0.8005	0.0011
338.15	3.9623	0.7768	0.0011
338.15	4.0357	0.746	0.0012
338.15	4.1261	0.7164	0.0011
338.15	4.2404	0.6944	0.0011
338.15	4.356	0.664	0.0011
338.15	4.5019	0.6322	0.0011
338.15	4.656	0.5992	0.0012
338.15	4.8967	0.5612	0.0011

System: trisodium citrate + water + 1-butyl-3-methylimidazolium bromide; phases: Liquid
Fixed: Pressure, kPa = 101
Fixed: Temperature, K = 308.15
Property: Refractive index (Na D-line) (Liquid); method: Standard Abbe refractometry
Solvent: Molality, mol/kg of trisodium citrate	Molality, mol/kg of 1-butyl-3-methylimidazolium bromide	Refractive index (Na D-line)	uncertainty
0.036	0	1.333	0.0005
0.036	0.0447	1.3344	0.0005
0.036	0.0903	1.3359	0.0005
0.036	0.1353	1.3373	0.0005
0.036	0.1981	1.3392	0.0005
0.036	0.2372	1.3404	0.0005
0.036	0.2897	1.342	0.0005
0.036	0.343	1.3435	0.0005
0.036	0.3823	1.3446	0.0005
0.036	0.4425	1.3464	0.0005
0.036	0.5059	1.3481	0.0005
0.036	0.6188	1.3511	0.0005
0.074	0	1.3347	0.0005
0.074	0.0452	1.336	0.0005
0.074	0.1402	1.3388	0.0005
0.074	0.2115	1.341	0.0005
0.074	0.2631	1.3426	0.0005
0.074	0.3393	1.3448	0.0005
0.074	0.4163	1.347	0.0005
0.074	0.5099	1.3497	0.0005
0.074	0.552	1.3508	0.0005
0.105	0	1.3361	0.0005
0.105	0.0456	1.3375	0.0005
0.105	0.1358	1.3402	0.0005
0.105	0.2165	1.3427	0.0005
0.105	0.2651	1.3441	0.0005
0.105	0.3141	1.3456	0.0005
0.105	0.3722	1.3473	0.0005
0.105	0.5037	1.3509	0.0005
0.105	0.6194	1.3542	0.0005
0.141	0	1.3377	0.0005
0.141	0.0452	1.3391	0.0005
0.141	0.145	1.3421	0.0005
0.141	0.2155	1.3442	0.0005
0.141	0.26	1.3456	0.0005
0.141	0.3398	1.3479	0.0005
0.141	0.4212	1.3503	0.0005
0.141	0.5212	1.353	0.0005
0.141	0.6194	1.3556	0.0005
0.173	0	1.3391	0.0005
0.173	0.0461	1.3405	0.0005
0.173	0.1392	1.3433	0.0005
0.173	0.2056	1.3453	0.0005
0.173	0.2625	1.3471	0.0005
0.173	0.3048	1.3483	0.0005
0.173	0.3861	1.3507	0.0005
0.173	0.5121	1.3543	0.0005
0.173	0.6176	1.3571	0.0005

System: trisodium citrate + water + 1-butyl-3-methylimidazolium bromide; phases: Liquid
Fixed: Pressure, kPa = 101
Property: Speed of sound, m/s (Liquid); method: Sing-around technique in a fixed-path interferometer
Solvent: Molality, mol/kg of trisodium citrate	Temperature, K	Molality, mol/kg of 1-butyl-3-methylimidazolium bromide	Speed of sound, m/s	uncertainty
0.05	288.15	0	1477.79	1.14
0.05	288.15	0.0137	1479.6	1.14
0.05	288.15	0.0183	1480.19	1.14
0.05	288.15	0.0274	1481.28	1.14
0.05	288.15	0.0368	1482.43	1.14
0.05	288.15	0.0446	1483.26	1.14
0.05	288.15	0.0688	1486.12	1.14
0.05	288.15	0.0933	1489.03	1.14
0.05	288.15	0.1169	1491.72	1.14
0.05	288.15	0.1389	1494.28	1.14
0.05	288.15	0.1653	1497.17	1.14
0.05	288.15	0.1882	1499.75	1.14
0.05	288.15	0.2148	1502.67	1.14
0.05	288.15	0.2388	1505.23	1.14
0.05	288.15	0.265	1508.01	1.14
0.05	288.15	0.2881	1510.5	1.14
0.05	293.15	0	1493.67	1.15
0.05	293.15	0.0137	1495.26	1.14
0.05	293.15	0.0183	1495.8	1.14
0.05	293.15	0.0274	1496.77	1.14
0.05	293.15	0.0368	1497.8	1.14
0.05	293.15	0.0446	1498.69	1.14
0.05	293.15	0.0688	1501.2	1.14
0.05	293.15	0.0933	1503.82	1.14
0.05	293.15	0.1169	1506.29	1.14
0.05	293.15	0.1389	1508.57	1.14
0.05	293.15	0.1653	1511.23	1.14
0.05	293.15	0.1882	1513.54	1.14
0.05	293.15	0.2148	1516.21	1.15
0.05	293.15	0.2388	1518.57	1.15
0.05	293.15	0.265	1521.12	1.15
0.05	293.15	0.2881	1523.39	1.15
0.05	298.15	0	1507.58	1.15
0.05	298.15	0.0137	1509.01	1.14
0.05	298.15	0.0183	1509.52	1.15
0.05	298.15	0.0274	1510.37	1.14
0.05	298.15	0.0368	1511.32	1.14
0.05	298.15	0.0446	1512.08	1.14
0.05	298.15	0.0688	1514.43	1.14
0.05	298.15	0.0933	1516.84	1.15
0.05	298.15	0.1169	1519.09	1.15
0.05	298.15	0.1389	1521.17	1.15
0.05	298.15	0.1653	1523.57	1.15
0.05	298.15	0.1882	1525.69	1.15
0.05	298.15	0.2148	1528.12	1.15
0.05	298.15	0.2388	1530.26	1.15
0.05	298.15	0.265	1532.55	1.15
0.05	298.15	0.2881	1534.63	1.15
0.05	303.15	0	1519.7	1.15
0.05	303.15	0.0137	1521.01	1.15
0.05	303.15	0.0183	1521.45	1.15
0.05	303.15	0.0274	1522.24	1.15
0.05	303.15	0.0368	1523.1	1.15
0.05	303.15	0.0446	1523.79	1.15
0.05	303.15	0.0688	1525.93	1.15
0.05	303.15	0.0933	1528.11	1.15
0.05	303.15	0.1169	1530.16	1.15
0.05	303.15	0.1389	1532.06	1.15
0.05	303.15	0.1653	1534.24	1.15
0.05	303.15	0.1882	1536.15	1.15
0.05	303.15	0.2148	1538.34	1.15
0.05	303.15	0.2388	1540.27	1.15
0.05	303.15	0.265	1542.4	1.15
0.05	303.15	0.2881	1544.24	1.15
0.05	308.15	0	1530.12	1.15
0.05	308.15	0.0137	1531.32	1.15
0.05	308.15	0.0183	1531.72	1.15
0.05	308.15	0.0274	1532.43	1.15
0.05	308.15	0.0368	1533.19	1.15
0.05	308.15	0.0446	1533.84	1.15
0.05	308.15	0.0688	1535.78	1.15
0.05	308.15	0.0933	1537.74	1.15
0.05	308.15	0.1169	1539.6	1.15
0.05	308.15	0.1389	1541.3	1.15
0.05	308.15	0.1653	1543.3	1.15
0.05	308.15	0.1882	1545.02	1.15
0.05	308.15	0.2148	1547	1.15
0.05	308.15	0.2388	1548.76	1.15
0.05	308.15	0.265	1550.67	1.15
0.05	308.15	0.2881	1552.35	1.15
0.1	288.15	0	1488.35	1.14
0.1	288.15	0.0274	1491.82	1.14
0.1	288.15	0.0369	1492.88	1.14
0.1	288.15	0.0457	1493.78	1.14
0.1	288.15	0.0699	1496.72	1.14
0.1	288.15	0.0938	1499.49	1.14
0.1	288.15	0.1146	1501.85	1.14
0.1	288.15	0.1394	1504.63	1.14
0.1	288.15	0.1704	1508.05	1.14
0.1	288.15	0.1891	1510.12	1.14
0.1	288.15	0.2144	1512.87	1.15
0.1	288.15	0.2392	1515.55	1.15
0.1	288.15	0.2624	1518.03	1.15
0.1	288.15	0.2907	1520.95	1.15
0.1	293.15	0	1503.89	1.15
0.1	293.15	0.0274	1506.97	1.14
0.1	293.15	0.0369	1507.95	1.14
0.1	293.15	0.0457	1508.8	1.15
0.1	293.15	0.0699	1511.42	1.14
0.1	293.15	0.0938	1513.91	1.15
0.1	293.15	0.1146	1516.09	1.15
0.1	293.15	0.1394	1518.66	1.15
0.1	293.15	0.1704	1521.79	1.15
0.1	293.15	0.1891	1523.66	1.15
0.1	293.15	0.2144	1526.16	1.15
0.1	293.15	0.2392	1528.59	1.15
0.1	293.15	0.2624	1530.84	1.15
0.1	293.15	0.2907	1533.51	1.15
0.1	298.15	0	1517.5	1.15
0.1	298.15	0.0274	1520.31	1.15
0.1	298.15	0.0369	1521.22	1.15
0.1	298.15	0.0457	1521.97	1.15
0.1	298.15	0.0699	1524.38	1.15
0.1	298.15	0.0938	1526.63	1.15
0.1	298.15	0.1146	1528.62	1.15
0.1	298.15	0.1394	1530.94	1.15
0.1	298.15	0.1704	1533.8	1.15
0.1	298.15	0.1891	1535.47	1.15
0.1	298.15	0.2144	1537.73	1.15
0.1	298.15	0.2392	1539.95	1.15
0.1	298.15	0.2624	1541.99	1.15
0.1	298.15	0.2907	1544.41	1.15
0.1	303.15	0	1529.37	1.15
0.1	303.15	0.0274	1531.89	1.15
0.1	303.15	0.0369	1532.7	1.15
0.1	303.15	0.0457	1533.43	1.15
0.1	303.15	0.0699	1535.56	1.15
0.1	303.15	0.0938	1537.63	1.15
0.1	303.15	0.1146	1539.43	1.15
0.1	303.15	0.1394	1541.51	1.15
0.1	303.15	0.1704	1544.09	1.15
0.1	303.15	0.1891	1545.62	1.15
0.1	303.15	0.2144	1547.69	1.15
0.1	303.15	0.2392	1549.68	1.15
0.1	303.15	0.2624	1551.52	1.15
0.1	303.15	0.2907	1553.73	1.15
0.1	308.15	0	1539.51	1.15
0.1	308.15	0.0274	1541.79	1.15
0.1	308.15	0.0369	1542.53	1.15
0.1	308.15	0.0457	1543.19	1.15
0.1	308.15	0.0699	1545.13	1.15
0.1	308.15	0.0938	1547	1.15
0.1	308.15	0.1146	1548.63	1.15
0.1	308.15	0.1394	1550.51	1.15
0.1	308.15	0.1704	1552.85	1.15
0.1	308.15	0.1891	1554.24	1.15
0.1	308.15	0.2144	1556.09	1.15
0.1	308.15	0.2392	1557.91	1.15
0.1	308.15	0.2624	1559.58	1.15
0.1	308.15	0.2907	1561.58	1.15

System: trisodium citrate + water + 1-butyl-3-methylimidazolium bromide; phases: Liquid
Fixed: Pressure, kPa = 101
Property: Mass density, kg/m3 (Liquid); method: Vibrating tube method
Solvent: Molality, mol/kg of trisodium citrate	Temperature, K	Molality, mol/kg of 1-butyl-3-methylimidazolium bromide	Mass density, kg/m3	uncertainty
0.05	288.15	0	1008.486	0.263
0.05	288.15	0.0137	1009.163	0.264
0.05	288.15	0.0183	1009.389	0.263
0.05	288.15	0.0274	1009.836	0.263
0.05	288.15	0.0368	1010.298	0.263
0.05	288.15	0.0446	1010.677	0.263
0.05	288.15	0.0688	1011.855	0.264
0.05	288.15	0.0933	1013.041	0.264
0.05	288.15	0.1169	1014.169	0.264
0.05	288.15	0.1389	1015.218	0.264
0.05	288.15	0.1653	1016.463	0.264
0.05	288.15	0.1882	1017.543	0.264
0.05	288.15	0.2148	1018.787	0.264
0.05	288.15	0.2388	1019.904	0.264
0.05	288.15	0.265	1021.116	0.265
0.05	288.15	0.2881	1022.185	0.265
0.05	293.15	0	1007.488	0.264
0.05	293.15	0.0137	1008.157	0.262
0.05	293.15	0.0183	1008.379	0.262
0.05	293.15	0.0274	1008.82	0.262
0.05	293.15	0.0368	1009.277	0.262
0.05	293.15	0.0446	1009.65	0.263
0.05	293.15	0.0688	1010.811	0.263
0.05	293.15	0.0933	1011.98	0.263
0.05	293.15	0.1169	1013.094	0.263
0.05	293.15	0.1389	1014.127	0.263
0.05	293.15	0.1653	1015.355	0.263
0.05	293.15	0.1882	1016.419	0.263
0.05	293.15	0.2148	1017.644	0.263
0.05	293.15	0.2388	1018.744	0.263
0.05	293.15	0.265	1019.94	0.263
0.05	293.15	0.2881	1020.993	0.263
0.05	298.15	0	1006.243	0.262
0.05	298.15	0.0137	1006.902	0.26
0.05	298.15	0.0183	1007.123	0.261
0.05	298.15	0.0274	1007.557	0.261
0.05	298.15	0.0368	1008.008	0.26
0.05	298.15	0.0446	1008.377	0.261
0.05	298.15	0.0688	1009.521	0.261
0.05	298.15	0.0933	1010.675	0.261
0.05	298.15	0.1169	1011.774	0.261
0.05	298.15	0.1389	1012.795	0.261
0.05	298.15	0.1653	1014.006	0.261
0.05	298.15	0.1882	1015.058	0.261
0.05	298.15	0.2148	1016.267	0.261
0.05	298.15	0.2388	1017.352	0.262
0.05	298.15	0.265	1018.531	0.262
0.05	298.15	0.2881	1019.569	0.262
0.05	303.15	0	1004.773	0.26
0.05	303.15	0.0137	1005.423	0.258
0.05	303.15	0.0183	1005.644	0.259
0.05	303.15	0.0274	1006.071	0.259
0.05	303.15	0.0368	1006.516	0.259
0.05	303.15	0.0446	1006.881	0.259
0.05	303.15	0.0688	1008.012	0.259
0.05	303.15	0.0933	1009.153	0.259
0.05	303.15	0.1169	1010.24	0.259
0.05	303.15	0.1389	1011.245	0.259
0.05	303.15	0.1653	1012.444	0.259
0.05	303.15	0.1882	1013.481	0.26
0.05	303.15	0.2148	1014.676	0.26
0.05	303.15	0.2388	1015.747	0.26
0.05	303.15	0.265	1016.91	0.26
0.05	303.15	0.2881	1017.937	0.26
0.05	308.15	0	1003.098	0.257
0.05	308.15	0.0137	1003.74	0.257
0.05	308.15	0.0183	1003.958	0.257
0.05	308.15	0.0274	1004.381	0.257
0.05	308.15	0.0368	1004.821	0.257
0.05	308.15	0.0446	1005.182	0.257
0.05	308.15	0.0688	1006.302	0.257
0.05	308.15	0.0933	1007.43	0.257
0.05	308.15	0.1169	1008.503	0.257
0.05	308.15	0.1389	1009.499	0.257
0.05	308.15	0.1653	1010.683	0.257
0.05	308.15	0.1882	1011.708	0.257
0.05	308.15	0.2148	1012.889	0.258
0.05	308.15	0.2388	1013.947	0.258
0.05	308.15	0.265	1015.097	0.258
0.05	308.15	0.2881	1016.111	0.258
0.1	288.15	0	1017.527	0.268
0.1	288.15	0.0274	1018.841	0.268
0.1	288.15	0.0369	1019.291	0.268
0.1	288.15	0.0457	1019.713	0.268
0.1	288.15	0.0699	1020.857	0.268
0.1	288.15	0.0938	1021.979	0.268
0.1	288.15	0.1146	1022.952	0.268
0.1	288.15	0.1394	1024.1	0.268
0.1	288.15	0.1704	1025.528	0.268
0.1	288.15	0.1891	1026.384	0.268
0.1	288.15	0.2144	1027.535	0.268
0.1	288.15	0.2392	1028.656	0.269
0.1	288.15	0.2624	1029.702	0.269
0.1	288.15	0.2907	1030.965	0.269
0.1	293.15	0	1016.441	0.265
0.1	293.15	0.0274	1017.737	0.265
0.1	293.15	0.0369	1018.179	0.265
0.1	293.15	0.0457	1018.597	0.265
0.1	293.15	0.0699	1019.726	0.265
0.1	293.15	0.0938	1020.831	0.265
0.1	293.15	0.1146	1021.79	0.266
0.1	293.15	0.1394	1022.924	0.266
0.1	293.15	0.1704	1024.331	0.266
0.1	293.15	0.1891	1025.174	0.266
0.1	293.15	0.2144	1026.307	0.266
0.1	293.15	0.2392	1027.412	0.266
0.1	293.15	0.2624	1028.443	0.266
0.1	293.15	0.2907	1029.687	0.266
0.1	298.15	0	1015.12	0.264
0.1	298.15	0.0274	1016.397	0.263
0.1	298.15	0.0369	1016.836	0.264
0.1	298.15	0.0457	1017.248	0.264
0.1	298.15	0.0699	1018.362	0.264
0.1	298.15	0.0938	1019.453	0.264
0.1	298.15	0.1146	1020.4	0.264
0.1	298.15	0.1394	1021.519	0.264
0.1	298.15	0.1704	1022.906	0.264
0.1	298.15	0.1891	1023.737	0.264
0.1	298.15	0.2144	1024.857	0.264
0.1	298.15	0.2392	1025.948	0.265
0.1	298.15	0.2624	1026.963	0.265
0.1	298.15	0.2907	1028.192	0.264
0.1	303.15	0	1013.583	0.262
0.1	303.15	0.0274	1014.847	0.262
0.1	303.15	0.0369	1015.28	0.262
0.1	303.15	0.0457	1015.687	0.262
0.1	303.15	0.0699	1016.788	0.262
0.1	303.15	0.0938	1017.866	0.262
0.1	303.15	0.1146	1018.802	0.262
0.1	303.15	0.1394	1019.906	0.262
0.1	303.15	0.1704	1021.276	0.263
0.1	303.15	0.1891	1022.098	0.263
0.1	303.15	0.2144	1023.204	0.263
0.1	303.15	0.2392	1024.282	0.263
0.1	303.15	0.2624	1025.285	0.263
0.1	303.15	0.2907	1026.497	0.263
0.1	308.15	0	1011.855	0.261
0.1	308.15	0.0274	1013.104	0.261
0.1	308.15	0.0369	1013.53	0.261
0.1	308.15	0.0457	1013.935	0.261
0.1	308.15	0.0699	1015.022	0.261
0.1	308.15	0.0938	1016.086	0.261
0.1	308.15	0.1146	1017.012	0.261
0.1	308.15	0.1394	1018.105	0.261
0.1	308.15	0.1704	1019.458	0.262
0.1	308.15	0.1891	1020.272	0.262
0.1	308.15	0.2144	1021.364	0.262
0.1	308.15	0.2392	1022.429	0.262
0.1	308.15	0.2624	1023.42	0.262
0.1	308.15	0.2907	1024.617	0.262
