Measured thermophysical data. High-energy components of "designer gasoline and designer diesel fuel" I. Heat capacities, enthalpy increments, vapor pressures, critical properties, and derived thermodynamic functions for bicyclopentyl between the T=(10 and 600) K
Source: J. Chem. Thermodyn., 2004, 10.1016/j.jct.2004.04.003
Compound 1: 1,1'-bicyclopentyl, C10H18, InChI=1S/C10H18/c1-2-6-9(5-1)10-7-3-4-8-10/h9-10H,1-8H2

System: 1,1'-bicyclopentyl; phases: Crystal 1, Liquid, Gas
Property: Molar enthalpy of transition or fusion, kJ/mol (Crystal 1); method: Adiabatic calorimetry
Molar enthalpy of transition or fusion, kJ/mol	uncertainty
13.396	0.014

System: 1,1'-bicyclopentyl; phases: Crystal 2, Crystal 1, Gas
Property: Molar enthalpy of transition or fusion, kJ/mol (Crystal 2); method: Adiabatic calorimetry
Molar enthalpy of transition or fusion, kJ/mol	uncertainty
0.257	0.002

System: 1,1'-bicyclopentyl; phases: Crystal 3, Crystal 2, Gas
Property: Molar enthalpy of transition or fusion, kJ/mol (Crystal 3); method: Adiabatic calorimetry
Molar enthalpy of transition or fusion, kJ/mol	uncertainty
0	0.5

System: 1,1'-bicyclopentyl; phases: Crystal 1, Liquid, Gas
Property: Triple point temperature, K (Crystal 1); method: Adiabatic calorimetry
Triple point temperature, K	uncertainty
237.82	0.05

System: 1,1'-bicyclopentyl; phases: Crystal 2, Crystal 1, Gas
Property: Triple point temperature, K (Crystal 2); method: Adiabatic calorimetry
Triple point temperature, K	uncertainty
171.5	3

System: 1,1'-bicyclopentyl; phases: Crystal 3, Crystal 2, Gas
Property: Triple point temperature, K (Crystal 3); method: Adiabatic calorimetry
Triple point temperature, K	uncertainty
128.4	3

System: 1,1'-bicyclopentyl; phases: Liquid, Gas
Property: Critical temperature, K (Liquid); method: DTA
Critical temperature, K	uncertainty
690	2

System: 1,1'-bicyclopentyl; phases: Crystal 3, Gas
Property: Molar heat capacity at saturation pressure, J/K/mol (Crystal 3); method: Vacuum adiabatic calorimetry
Temperature, K	Molar heat capacity at saturation pressure, J/K/mol	uncertainty
11.497	4.08	0.04
11.803	4.35	0.05
13.172	5.8	0.06
13.365	6.03	0.06
14.831	7.75	0.07
14.993	7.95	0.07
16.643	10.09	0.07
16.692	10.19	0.083
18.462	12.62	0.091
18.633	12.87	0.091
20.509	15.56	0.1
20.706	15.86	0.1
22.723	18.82	0.108
22.993	19.31	0.108
25.097	22.6	0.116
25.316	22.88	0.116
27.672	26.42	0.116
30.511	30.65	0.108
33.622	35.24	0.116
37.094	40.13	0.125
40.838	45.17	0.133
44.807	49.8	0.141
49.26	55.04	0.15
54.234	60.6	0.166
54.241	60.62	0.166
59.447	65.6	0.175
65.018	70.77	0.183
71.125	75.75	0.191
77.808	80.69	0.2
84.902	85.44	0.208
90.401	88.965	0.291
92.15	90.004	0.291
95.167	91.725	0.291
97.645	93.214	0.291
102.397	95.849	0.299
105.102	97.462	0.299
112.838	102.05	0.299
116.543	104.26	0.308
118.127	105.18	0.308
118.168	105.56	0.308
120.99	107.39	0.308
126.748	111.08	0.308

System: 1,1'-bicyclopentyl; phases: Crystal 2, Gas
Property: Molar heat capacity at saturation pressure, J/K/mol (Crystal 2); method: Vacuum adiabatic calorimetry
Temperature, K	Molar heat capacity at saturation pressure, J/K/mol	uncertainty
133.458	118.05	0.324
133.782	118.67	0.316
134.119	118.41	0.316
135.201	118.41	0.316
139.413	121.01	0.324
142.475	122.75	0.324
143.123	122.93	0.324
151.253	127.64	0.324
152.106	128.17	0.333
160.679	133.74	0.341
160.785	133.46	0.341
166.891	138.79	0.341

System: 1,1'-bicyclopentyl; phases: Crystal 1, Gas
Property: Molar heat capacity at saturation pressure, J/K/mol (Crystal 1); method: Vacuum adiabatic calorimetry
Temperature, K	Molar heat capacity at saturation pressure, J/K/mol	uncertainty
173.815	137.58	0.341
178.128	139.77	0.341
181.671	142.75	0.341
182.422	143.41	0.341
186.122	145.42	0.349
190.408	148.06	0.349
194.167	151.17	0.349
202.371	157.69	0.358
210.528	164.59	0.366
215.217	168.8	0.366
218.828	172.67	0.374
223.28	177.54	0.382
230.925	187.18	0.391

System: 1,1'-bicyclopentyl; phases: Liquid, Gas
Property: Molar heat capacity at saturation pressure, J/K/mol (Liquid); method: Vacuum adiabatic calorimetry
Temperature, K	Molar heat capacity at saturation pressure, J/K/mol	uncertainty
235.702	209.39	0.407
242.857	212.18	0.416
251.348	215.65	0.416
251.375	215.6	0.416
260.383	219.61	0.416
260.401	219.59	0.416
269.989	224.12	0.424
279.847	228.87	0.432
289.966	234.24	0.432
300.322	239.88	0.441
303.623	241.76	0.441
312.363	246.68	0.449
321.765	252.14	0.449
331.397	257.76	0.457
340.785	263.29	0.466
350.445	269.11	0.466
360.306	275.02	0.474
369.984	281.03	0.482
379.479	286.87	0.491
388.815	292.97	0.491

System: 1,1'-bicyclopentyl; phases: Crystal 3, Gas
Property: Molar heat capacity at saturation pressure, J/K/mol (Crystal 3); method: Vacuum adiabatic calorimetry
Temperature, K	Molar heat capacity at saturation pressure, J/K/mol	uncertainty
10	2.73	0.04
20	14.82	0.1
30	29.89	0.108
40	44.07	0.133
50	55.91	0.15
60	66.15	0.175
70	74.88	0.191
80	82.21	0.208
90	88.699	0.291
100	94.56	0.291
110	100.28	0.299
120	106.6	0.308
128.4	112.23	0.316

System: 1,1'-bicyclopentyl; phases: Crystal 1, Gas
Property: Molar heat capacity at saturation pressure, J/K/mol (Crystal 1); method: Vacuum adiabatic calorimetry
Temperature, K	Molar heat capacity at saturation pressure, J/K/mol	uncertainty
128.4	115.78	0.316
130	116.49	0.316
140	121.32	0.324
150	126.87	0.324
160	133.12	0.333
170	140.08	0.341
171.5	141.19	0.341

System: 1,1'-bicyclopentyl; phases: Crystal 1, Gas
Property: Molar heat capacity at saturation pressure, J/K/mol (Crystal 1); method: Vacuum adiabatic calorimetry
Temperature, K	Molar heat capacity at saturation pressure, J/K/mol	uncertainty
171.5	136.32	0.333
180	141.36	0.341
190	148.08	0.349
200	155.66	0.358
210	164.11	0.366
220	173.41	0.374
230	183.54	0.382
237.82	192.05	0.391

System: 1,1'-bicyclopentyl; phases: Liquid, Gas
Property: Molar heat capacity at saturation pressure, J/K/mol (Liquid); method: Vacuum adiabatic calorimetry
Temperature, K	Molar heat capacity at saturation pressure, J/K/mol	uncertainty
237.82	210.18	0.407
240	211.02	0.407
250	215.09	0.416
260	219.43	0.416
270	224.11	0.424
280	228.97	0.432
290	234.26	0.432
298.15	238.69	0.441
300	239.71	0.441
320	251.11	0.449
340	262.83	0.466
360	274.85	0.474
380	287.22	0.491
400	299.69	0.499

System: 1,1'-bicyclopentyl; phases: Liquid, Gas
Property: Molar heat capacity at saturation pressure, J/K/mol (Liquid); method: SDSC:UFactor:0.5
Temperature, K	Molar heat capacity at saturation pressure, J/K/mol	uncertainty
420	312.05	3.1179
440	324.49	3.2426
460	336.88	3.3674
480	349.1	3.4921
500	361.07	3.6085
520	372.68	3.7249
540	383.83	3.8413
560	394.48	3.9411
580	404.71	4.0491
600	414.76	4.1489

System: 1,1'-bicyclopentyl; phases: Crystal 3, Gas
Property: Molar enthalpy function {Hm(T)-Hm(0)}/T, J/K/mol (Crystal 3); method: Vacuum adiabatic calorimetry
Temperature, K	Molar enthalpy function {Hm(T)-Hm(0)}/T, J/K/mol	uncertainty
10	0.69	0.02
20	4.46	0.03
30	10.44	0.06
40	17.11	0.07
50	23.7	0.091
60	29.96	0.1
70	35.77	0.108
80	41.13	0.125
90	46.06	0.249
100	50.62	0.249
110	54.87	0.258
120	58.91	0.258
128.4	62.22	0.266

System: 1,1'-bicyclopentyl; phases: Crystal 2, Gas
Property: Molar enthalpy function {Hm(T)-Hm(0)}/T, J/K/mol (Crystal 2); method: Vacuum adiabatic calorimetry
Temperature, K	Molar enthalpy function {Hm(T)-Hm(0)}/T, J/K/mol	uncertainty
128.4	62.22	0.266
130	62.88	0.266
140	66.87	0.266
150	70.69	0.274
160	74.39	0.274
170	78.05	0.274
171.5	78.6	0.283

System: 1,1'-bicyclopentyl; phases: Crystal 1, Gas
Property: Molar enthalpy function {Hm(T)-Hm(0)}/T, J/K/mol (Crystal 1); method: Vacuum adiabatic calorimetry
Temperature, K	Molar enthalpy function {Hm(T)-Hm(0)}/T, J/K/mol	uncertainty
171.5	80.09	0.283
180	82.86	0.283
190	86.113	0.283
200	89.397	0.291
210	92.748	0.291
220	96.207	0.299
230	99.774	0.299
237.82	102.67	0.299

System: 1,1'-bicyclopentyl; phases: Liquid, Gas
Property: Molar enthalpy function {Hm(T)-Hm(0)}/T, J/K/mol (Liquid); method: Vacuum adiabatic calorimetry
Temperature, K	Molar enthalpy function {Hm(T)-Hm(0)}/T, J/K/mol	uncertainty
237.82	159	0.358
240	159.47	0.358
250	161.61	0.358
260	163.75	0.366
270	165.9	0.366
280	168.06	0.366
290	170.26	0.374
298.15	172.06	0.374
300	172.48	0.374
320	177.03	0.374
340	181.74	0.382
360	186.58	0.391
380	191.54	0.391
400	196.65	0.399

System: 1,1'-bicyclopentyl; phases: Liquid, Gas
Property: Vapor or sublimation pressure, kPa (Liquid); method: Twin ebulliometer
Temperature, K	Vapor or sublimation pressure, kPa	uncertainty
383.997	9.5897	0.0129
387.466	10.893	0.013
390.95	12.345	0.014
394.449	13.96	0.014
397.958	15.752	0.015
401.486	17.737	0.016
405.025	19.933	0.018
405.03	19.933	0.018
412.152	25.023	0.019
419.334	31.177	0.022
426.571	38.565	0.025
433.867	47.375	0.029
441.216	57.817	0.034
448.612	70.12	0.039
456.08	84.533	0.044
463.607	101.325	0.05
471.19	120.79	0.06
478.83	143.25	0.07
486.526	169.02	0.07
494.283	198.49	0.08
502.094	232.02	0.09
509.967	270.02	0.1

System: 1,1'-bicyclopentyl; phases: Crystal 3, Gas
Property: Molar entropy, J/K/mol (Crystal 3); method: Vacuum adiabatic calorimetry
Temperature, K	Molar entropy, J/K/mol	uncertainty
10	0.915	0.02
20	6.14	0.07
30	15.02	0.108
40	25.6	0.141
50	36.72	0.175
60	47.86	0.208
70	58.73	0.241
80	69.22	0.266
90	79.29	0.416
100	88.932	0.432
110	98.211	0.449
120	107.21	0.457
128.4	114.61	0.474

System: 1,1'-bicyclopentyl; phases: Crystal 2, Gas
Property: Molar entropy, J/K/mol (Crystal 2); method: Vacuum adiabatic calorimetry
Temperature, K	Molar entropy, J/K/mol	uncertainty
128.4	114.61	0.474
130	116.05	0.474
140	124.85	0.491
150	133.41	0.499
160	141.79	0.515
170	150.07	0.524
171.5	151.3	0.524

System: 1,1'-bicyclopentyl; phases: Crystal 1, Gas
Property: Molar entropy, J/K/mol (Crystal 1); method: Vacuum adiabatic calorimetry
Temperature, K	Molar entropy, J/K/mol	uncertainty
171.5	152.8	0.532
180	159.5	0.54
190	167.33	0.549
200	175.11	0.565
210	182.91	0.574
220	190.75	0.59
230	198.68	0.599
237.82	204.96	0.607

System: 1,1'-bicyclopentyl; phases: Liquid, Gas
Property: Molar entropy, J/K/mol (Liquid); method: Vacuum adiabatic calorimetry
Temperature, K	Molar entropy, J/K/mol	uncertainty
237.82	261.29	0.69
240	263.21	0.698
250	271.91	0.707
260	280.42	0.723
270	288.79	0.732
280	297.03	0.748
290	305.16	0.757
298.15	311.71	0.765
300	313.19	0.773
320	329.02	0.79
340	344.59	0.815
360	359.96	0.8398
380	375.15	0.8647
400	390.21	0.8813

System: 1,1'-bicyclopentyl; phases: Gas, Liquid
Property: Mass density, kg/m3 (Gas); method: OTHER
Temperature, K	Mass density, kg/m3	uncertainty
662.5	114.4	11.4
682.8	171.2	17.1
689.8	244.4	24.5

System: 1,1'-bicyclopentyl; phases: Liquid, Gas
Property: Mass density, kg/m3 (Liquid); method: OTHER
Temperature, K	Mass density, kg/m3	uncertainty
685.1	366	36.6
687.3	347.2	34.7
689.6	311	31.1
