Measured thermophysical data. Heat capacity and thermodynamics of solid and liquid pyridine-3-carboxylic acid (nicotinic acid) over the temperature range 296 K to 531 K
Source: J. Chem. Thermodyn., 2012, 10.1016/j.jct.2012.06.010
Compound 1: 3-carboxylpyridine, C6H5NO2, InChI=1S/C6H5NO2/c8-6(9)5-2-1-3-7-4-5/h1-4H,(H,8,9), purity 99.9%

System: 3-carboxylpyridine; phases: Crystal 2, Crystal 1, Air at 1 atmosphere
Property: Molar enthalpy of transition or fusion, kJ/mol (Crystal 2); method: DSC
Molar enthalpy of transition or fusion, kJ/mol	uncertainty
0.9	0.22

System: 3-carboxylpyridine; phases: Crystal 1, Liquid, Air at 1 atmosphere
Property: Molar enthalpy of transition or fusion, kJ/mol (Crystal 1); method: DSC
Molar enthalpy of transition or fusion, kJ/mol	uncertainty
28.2	0.6

System: 3-carboxylpyridine; phases: Crystal 1, Liquid, Air at 1 atmosphere
Property: Triple point temperature, K (Crystal 1); method: DTA
Triple point temperature, K	uncertainty
509.91	0.39

System: 3-carboxylpyridine; phases: Crystal 2, Crystal 1, Air at 1 atmosphere
Property: Triple point temperature, K (Crystal 2); method: DTA
Triple point temperature, K	uncertainty
455	0.5

System: 3-carboxylpyridine; phases: Crystal 2
Fixed: Pressure, kPa = 101.325
Property: Molar heat capacity at constant pressure, J/K/mol (Crystal 2); method: Small sample (50 mg) DSC
Temperature, K	Molar heat capacity at constant pressure, J/K/mol	uncertainty
296.01	139.9	11.6
298.06	141.2	11.2
303.2	144.2	10
308.34	147	9.4
313.48	149.4	9.4
318.62	152.3	4.5
323.76	154.8	8.7
328.9	156.5	9.7
334.04	158.2	10.6
339.18	159.8	12
343.24	160.4	12.2
348.38	163.3	12.4
353.52	165.9	6.8
358.66	167.9	6.6
363.8	170	6.7
368.94	171.5	6.7
374.08	173.2	8.8
379.22	175.4	8.4
384.37	177.6	8
389.51	179.4	7.6
394.65	181.2	12.1
399.79	183.5	12.7
404.93	185.8	13.3
410.07	189.4	9.8
415.21	194.3	8.3
420.35	198	8.3
425.49	201.7	8.3
430.63	205.3	7.4
435.77	212.1	15.1
440.91	219.1	13.4
448.1	231.3	17.9
449.13	240.6	12.9
450.16	254.7	11.6
451.19	273.6	17.4
452.22	292.5	25.5
453.24	334.7	38.3
454.27	418.6	37.9
455.3	440.3	13.5

System: 3-carboxylpyridine; phases: Crystal 1
Fixed: Pressure, kPa = 101.325
Property: Molar heat capacity at constant pressure, J/K/mol (Crystal 1); method: Small sample (50 mg) DSC
Temperature, K	Molar heat capacity at constant pressure, J/K/mol	uncertainty
456.33	382.6	41.2
457.36	326.3	32.9
458.38	297.2	28.1
459.41	280.2	22.4
460.44	263.1	16.4
461.47	251.7	13.7
462.5	245.7	14.6
463.52	239.8	16.4
464.55	235.7	17.3
465.58	233.6	17.5
466.61	231.4	17.7
467.64	229.5	15.7
468.66	227.8	11.3
469.69	226.1	7.9
479.97	231.6	12.2
482.03	232.2	10.7
487.17	233.6	8.1
492.31	235.1	8.7
497.45	237.2	9.6
500.53	245.9	13.8
503.62	254.7	20.5
504.65	280.5	51.2
505.67	306.3	82.7
506.7	422.7	250.4
507.73	1073.5	1550
508.76	7052.2	10920
509.79	18653.4	14450

System: 3-carboxylpyridine; phases: Liquid
Fixed: Pressure, kPa = 101.325
Property: Molar heat capacity at constant pressure, J/K/mol (Liquid); method: Small sample (50 mg) DSC
Temperature, K	Molar heat capacity at constant pressure, J/K/mol	uncertainty
510.81	1773.6	12300
511.84	309.8	32.8
512.87	307.2	21.6
515.95	307.4	8.2
518.01	308.6	8.1
523.15	311.5	8.4
528.29	314.4	9.5
531.37	316.2	10.6

System: 3-carboxylpyridine; phases: Crystal 2
Property: Molar enthalpy, kJ/mol (Crystal 2); method: Drop calorimetry
Temperature, K	Pressure, kPa	Molar enthalpy, kJ/mol	uncertainty
357.8	101.325	8.258	0.273

System: 3-carboxylpyridine; phases: Crystal 2
Property: Molar enthalpy, kJ/mol (Crystal 2); method: Small sample (50 mg) DSC
Temperature, K	Pressure, kPa	Molar enthalpy, kJ/mol	uncertainty
357.8	101.325	8.2	0.164
