Measured thermophysical data. Separation of azeotrope (2,2,3,3-tetrafluoro-1-propanol + water): Isobaric vapour-liquid phase equilibrium measurements and azeotropic distillation
Source: J. Chem. Thermodyn., 2017, 10.1016/j.jct.2017.07.019
Compound 1: 2,2,3,3-tetrafluoro-1-propanol, C3H4F4O, InChI=1S/C3H4F4O/c4-2(5)3(6,7)1-8/h2,8H,1H2, purity 99.6%
Compound 2: water, H2O, InChI=1S/H2O/h1H2, purity 99.8%
Compound 3: trichloromethane, CHCl3, InChI=1S/CHCl3/c2-1(3)4/h1H, purity 99%
Compound 4: 1,4-dimethylbenzene, C8H10, InChI=1S/C8H10/c1-7-3-5-8(2)6-4-7/h3-6H,1-2H3, purity 99%

System: 2,2,3,3-tetrafluoro-1-propanol; phases: Liquid, Gas
Property: Vapor or sublimation pressure, kPa (Liquid); method: Ebulliometric method (Recirculating still)
Temperature, K	Vapor or sublimation pressure, kPa	uncertainty
382.15	101.3	0.6

System: water; phases: Liquid, Gas
Property: Vapor or sublimation pressure, kPa (Liquid); method: Ebulliometric method (Recirculating still)
Temperature, K	Vapor or sublimation pressure, kPa	uncertainty
373.05	101.3	0.6

System: trichloromethane; phases: Liquid, Gas
Property: Vapor or sublimation pressure, kPa (Liquid); method: Ebulliometric method (Recirculating still)
Temperature, K	Vapor or sublimation pressure, kPa	uncertainty
334.35	101.3	0.7

System: 1,4-dimethylbenzene; phases: Liquid, Gas
Property: Vapor or sublimation pressure, kPa (Liquid); method: Ebulliometric method (Recirculating still)
Temperature, K	Vapor or sublimation pressure, kPa	uncertainty
411.45	101.3	0.7

System: 2,2,3,3-tetrafluoro-1-propanol + water; phases: Liquid, Gas
Fixed: Pressure, kPa = 101.3
Property: Boiling temperature at pressure P, K (Liquid); method: Ebulliometric method (Recirculating still)
Mole fraction of 2,2,3,3-tetrafluoro-1-propanol	Boiling temperature at pressure P, K	uncertainty
0	373.05	0.15
0.0037	372.18	0.15
0.0148	370.69	0.15
0.0255	369.63	0.15
0.0509	368.17	0.15
0.0799	367.37	0.15
0.1053	367.1	0.15
0.1626	366.9	0.15
0.2288	366.77	0.15
0.2814	366.8	0.15
0.3647	366.99	0.15
0.485	368.2	0.15
0.5815	369.73	0.15
0.7265	373.47	0.15
0.8451	377.07	0.15
1	382.15	0.15

System: 2,2,3,3-tetrafluoro-1-propanol + water; phases: Gas, Liquid
Fixed: Pressure, kPa = 101.3
Property: Mole fraction of 2,2,3,3-tetrafluoro-1-propanol (Gas); method: Chromatography
Mole fraction of 2,2,3,3-tetrafluoro-1-propanol	Mole fraction of 2,2,3,3-tetrafluoro-1-propanol	uncertainty
0	0	
0.0037	0.0289	0.0058
0.0148	0.0847	0.0058
0.0255	0.1265	0.0059
0.0509	0.1838	0.006
0.0799	0.2189	0.0061
0.1053	0.2363	0.0061
0.1626	0.2524	0.0062
0.2288	0.2639	0.0062
0.2814	0.2723	0.0062
0.3647	0.2924	0.0063
0.485	0.3469	0.0065
0.5815	0.4125	0.0068
0.7265	0.5575	0.007
0.8451	0.6943	0.0064
1	1	

System: 2,2,3,3-tetrafluoro-1-propanol + trichloromethane; phases: Liquid, Gas
Fixed: Pressure, kPa = 101.3
Property: Boiling temperature at pressure P, K (Liquid); method: Ebulliometric method (Recirculating still)
Mole fraction of 2,2,3,3-tetrafluoro-1-propanol	Boiling temperature at pressure P, K	uncertainty
0	334.35	0.15
0.0296	334.23	0.15
0.0835	334.4	0.15
0.1562	334.83	0.15
0.2508	335.26	0.15
0.3644	336.04	0.15
0.48	336.93	0.15
0.6353	339.43	0.15
0.7012	341.17	0.15
0.7758	344.29	0.15
0.8372	347.6	0.15
0.8959	352.36	0.15
0.9059	353.77	0.15
0.9425	359.88	0.15
0.9517	362.39	0.15
0.9678	367.75	0.15
0.9805	371.3	0.15
0.9912	377.03	0.15
1	382.15	0.15

System: 2,2,3,3-tetrafluoro-1-propanol + trichloromethane; phases: Gas, Liquid
Fixed: Pressure, kPa = 101.3
Property: Mole fraction of 2,2,3,3-tetrafluoro-1-propanol (Gas); method: Chromatography
Mole fraction of 2,2,3,3-tetrafluoro-1-propanol	Mole fraction of 2,2,3,3-tetrafluoro-1-propanol	uncertainty
0	0	
0.0296	0.0273	0.0128
0.0835	0.0579	0.0128
0.1562	0.079	0.0128
0.2508	0.0901	0.0128
0.3644	0.1016	0.0128
0.48	0.114	0.0128
0.6353	0.1482	0.0129
0.7012	0.1685	0.0129
0.7758	0.2055	0.0129
0.8372	0.2482	0.013
0.8959	0.3199	0.0131
0.9059	0.3392	0.0132
0.9425	0.4438	0.0135
0.9517	0.4904	0.0137
0.9678	0.5964	0.0134
0.9805	0.682	0.0132
0.9912	0.8282	0.0129
1	1	

System: 2,2,3,3-tetrafluoro-1-propanol + 1,4-dimethylbenzene; phases: Liquid, Gas
Fixed: Pressure, kPa = 101.3
Property: Boiling temperature at pressure P, K (Liquid); method: Ebulliometric method (Recirculating still)
Mole fraction of 2,2,3,3-tetrafluoro-1-propanol	Boiling temperature at pressure P, K	uncertainty
1	382.15	0.15
0.9615	380.77	0.15
0.9268	379.77	0.15
0.8489	379.4	0.15
0.7218	379.45	0.15
0.5715	379.75	0.15
0.3708	381.95	0.15
0.315	383.46	0.15
0.253	385.18	0.15
0.209	386.66	0.15
0.1784	388.33	0.15
0.1471	390.7	0.15
0.1047	394.13	0.15
0.0852	396.75	0.15
0.0588	400.06	0.15
0.0438	402.55	0.15
0.0325	404.55	0.15
0.0212	406.87	0.15
0	411.45	0.15

System: 2,2,3,3-tetrafluoro-1-propanol + 1,4-dimethylbenzene; phases: Gas, Liquid
Fixed: Pressure, kPa = 101.3
Property: Mole fraction of 2,2,3,3-tetrafluoro-1-propanol (Gas); method: Chromatography
Mole fraction of 2,2,3,3-tetrafluoro-1-propanol	Mole fraction of 2,2,3,3-tetrafluoro-1-propanol	uncertainty
1	1	
0.9615	0.9174	0.012
0.9268	0.8682	0.0121
0.8489	0.8157	0.0122
0.7218	0.7723	0.0122
0.5715	0.7479	0.0123
0.3708	0.6829	0.0124
0.315	0.6574	0.0125
0.253	0.619	0.0126
0.209	0.5857	0.0127
0.1784	0.5542	0.0128
0.1471	0.5134	0.0129
0.1047	0.4367	0.0127
0.0852	0.3848	0.0125
0.0588	0.3086	0.0123
0.0438	0.2495	0.0122
0.0325	0.1987	0.0121
0.0212	0.1402	0.0121
0	0	
