Measured thermophysical data. Thermodynamic study of solubility for 2-amino-4-chloro-6-methoxypyrimidine in twelve organic solvents at temperatures from 273.15 K to 323.15 K
Source: J. Chem. Thermodyn., 2017, 10.1016/j.jct.2016.10.020
Compound 1: 2-amino-4-chloro-6-methoxypyrimidine, C5H6ClN3O, InChI=1S/C5H6ClN3O/c1-10-4-2-3(6)8-5(7)9-4/h2H,1H3,(H2,7,8,9), purity 95%
Compound 2: methanol, CH4O, InChI=1S/CH4O/c1-2/h2H,1H3, purity 99.5%
Compound 3: ethanol, C2H6O, InChI=1S/C2H6O/c1-2-3/h3H,2H2,1H3, purity 99.4%
Compound 4: trichloromethane, CHCl3, InChI=1S/CHCl3/c2-1(3)4/h1H, purity 99.3%
Compound 5: toluene, C7H8, InChI=1S/C7H8/c1-7-5-3-2-4-6-7/h2-6H,1H3, purity 99.5%
Compound 6: ethyl acetate, C4H8O2, InChI=1S/C4H8O2/c1-3-6-4(2)5/h3H2,1-2H3, purity 99.5%
Compound 7: acetonitrile, C2H3N, InChI=1S/C2H3N/c1-2-3/h1H3, purity 99.4%
Compound 8: propan-1-ol, C3H8O, InChI=1S/C3H8O/c1-2-3-4/h4H,2-3H2,1H3, purity 99.5%
Compound 9: acetone, C3H6O, InChI=1S/C3H6O/c1-3(2)4/h1-2H3, purity 99.5%
Compound 10: dimethylformamide, C3H7NO, InChI=1S/C3H7NO/c1-4(2)3-5/h3H,1-2H3, purity 99.4%
Compound 11: propan-2-ol, C3H8O, InChI=1S/C3H8O/c1-3(2)4/h3-4H,1-2H3, purity 99.6%
Compound 12: 1,4-dioxane, C4H8O2, InChI=1S/C4H8O2/c1-2-6-4-3-5-1/h1-4H2, purity 99.5%
Compound 13: ethylbenzene, C8H10, InChI=1S/C8H10/c1-2-8-6-4-3-5-7-8/h3-7H,2H2,1H3, purity 99.3%

System: 2-amino-4-chloro-6-methoxypyrimidine; phases: Crystal, Liquid, Air at 1 atmosphere
Property: Normal melting temperature, K (Crystal); method: DTA
Normal melting temperature, K	uncertainty
446.95	1.06

System: 2-amino-4-chloro-6-methoxypyrimidine; phases: Crystal, Liquid, Air at 1 atmosphere
Property: Molar enthalpy of transition or fusion, kJ/mol (Crystal); method: DSC
Molar enthalpy of transition or fusion, kJ/mol	uncertainty
24.8	1.02

System: methanol + 2-amino-4-chloro-6-methoxypyrimidine; phases: Liquid, Crystal
Fixed: Pressure, kPa = 101.1
Property: Mole fraction of 2-amino-4-chloro-6-methoxypyrimidine (Liquid); method: Chromatography
Temperature, K	Mole fraction of 2-amino-4-chloro-6-methoxypyrimidine	uncertainty
273.15	0.001259	6.8e-05
278.15	0.001592	8.6e-05
283.15	0.001989	0.000108
288.15	0.002461	0.000133
293.15	0.003097	0.000167
298.15	0.003745	0.000202
303.15	0.004631	0.00025
308.15	0.005549	0.0003
313.15	0.006746	0.000365
318.15	0.008095	0.000438
323.15	0.009616	0.00052

System: ethanol + 2-amino-4-chloro-6-methoxypyrimidine; phases: Liquid, Crystal
Fixed: Pressure, kPa = 101.1
Property: Mole fraction of 2-amino-4-chloro-6-methoxypyrimidine (Liquid); method: Chromatography
Temperature, K	Mole fraction of 2-amino-4-chloro-6-methoxypyrimidine	uncertainty
273.15	0.001279	6.9e-05
278.15	0.00163	8.8e-05
283.15	0.00206	0.000111
288.15	0.002591	0.00014
293.15	0.00323	0.000175
298.15	0.003956	0.000214
303.15	0.004877	0.000264
308.15	0.005976	0.000323
313.15	0.007331	0.000396
318.15	0.00886	0.000479
323.15	0.0106	0.00057

System: trichloromethane + 2-amino-4-chloro-6-methoxypyrimidine; phases: Liquid, Crystal
Fixed: Pressure, kPa = 101.1
Property: Mole fraction of 2-amino-4-chloro-6-methoxypyrimidine (Liquid); method: Chromatography
Temperature, K	Mole fraction of 2-amino-4-chloro-6-methoxypyrimidine	uncertainty
273.15	0.002368	0.000128
278.15	0.003062	0.000166
283.15	0.003894	0.000211
288.15	0.004917	0.000266
293.15	0.006118	0.000331
298.15	0.007576	0.00041
303.15	0.009242	0.0005
308.15	0.0114	0.00062
313.15	0.01377	0.00074
318.15	0.01657	0.0009
323.15	0.01971	0.00107

System: toluene + 2-amino-4-chloro-6-methoxypyrimidine; phases: Liquid, Crystal
Fixed: Pressure, kPa = 101.1
Property: Mole fraction of 2-amino-4-chloro-6-methoxypyrimidine (Liquid); method: Chromatography
Temperature, K	Mole fraction of 2-amino-4-chloro-6-methoxypyrimidine	uncertainty
273.15	0.000694	3.8e-05
278.15	0.000889	4.8e-05
283.15	0.001151	6.2e-05
288.15	0.001481	8e-05
293.15	0.001903	0.000103
298.15	0.00241	0.00013
303.15	0.003005	0.000162
308.15	0.003742	0.000202
313.15	0.004629	0.00025
318.15	0.005725	0.00031
323.15	0.007029	0.00038

System: ethyl acetate + 2-amino-4-chloro-6-methoxypyrimidine; phases: Liquid, Crystal
Fixed: Pressure, kPa = 101.1
Property: Mole fraction of 2-amino-4-chloro-6-methoxypyrimidine (Liquid); method: Chromatography
Temperature, K	Mole fraction of 2-amino-4-chloro-6-methoxypyrimidine	uncertainty
273.15	0.005473	0.000296
278.15	0.006866	0.000371
283.15	0.008559	0.000463
288.15	0.01046	0.00057
293.15	0.01288	0.0007
298.15	0.01553	0.00084
303.15	0.01878	0.00102
308.15	0.02298	0.00124
313.15	0.02764	0.00149
318.15	0.03295	0.00178
323.15	0.03894	0.0021

System: acetonitrile + 2-amino-4-chloro-6-methoxypyrimidine; phases: Liquid, Crystal
Fixed: Pressure, kPa = 101.1
Property: Mole fraction of 2-amino-4-chloro-6-methoxypyrimidine (Liquid); method: Chromatography
Temperature, K	Mole fraction of 2-amino-4-chloro-6-methoxypyrimidine	uncertainty
273.15	0.001363	7.4e-05
278.15	0.001744	9.4e-05
283.15	0.002227	0.00012
288.15	0.002762	0.000149
293.15	0.003446	0.000186
298.15	0.004261	0.00023
303.15	0.005232	0.000283
308.15	0.00633	0.000342
313.15	0.007734	0.000418
318.15	0.009267	0.000501
323.15	0.01105	0.0006

System: propan-1-ol + 2-amino-4-chloro-6-methoxypyrimidine; phases: Liquid, Crystal
Fixed: Pressure, kPa = 101.1
Property: Mole fraction of 2-amino-4-chloro-6-methoxypyrimidine (Liquid); method: Chromatography
Temperature, K	Mole fraction of 2-amino-4-chloro-6-methoxypyrimidine	uncertainty
273.15	0.001223	6.6e-05
278.15	0.001582	8.6e-05
283.15	0.002011	0.000109
288.15	0.00256	0.000138
293.15	0.003231	0.000175
298.15	0.004071	0.00022
303.15	0.005017	0.000271
308.15	0.006184	0.000334
313.15	0.007496	0.000405
318.15	0.009162	0.000495
323.15	0.01126	0.00061

System: acetone + 2-amino-4-chloro-6-methoxypyrimidine; phases: Liquid, Crystal
Fixed: Pressure, kPa = 101.1
Property: Mole fraction of 2-amino-4-chloro-6-methoxypyrimidine (Liquid); method: Chromatography
Temperature, K	Mole fraction of 2-amino-4-chloro-6-methoxypyrimidine	uncertainty
273.15	0.007603	0.000411
278.15	0.009471	0.000512
283.15	0.01169	0.00063
288.15	0.01433	0.00077
293.15	0.01743	0.00094
298.15	0.02106	0.00114
303.15	0.02549	0.00138
308.15	0.03016	0.00163
313.15	0.03576	0.00193
318.15	0.04216	0.00228
323.15	0.04918	0.00266

System: dimethylformamide + 2-amino-4-chloro-6-methoxypyrimidine; phases: Liquid, Crystal
Fixed: Pressure, kPa = 101.1
Property: Mole fraction of 2-amino-4-chloro-6-methoxypyrimidine (Liquid); method: Chromatography
Temperature, K	Mole fraction of 2-amino-4-chloro-6-methoxypyrimidine	uncertainty
273.15	0.04959	0.00268
278.15	0.05438	0.00294
283.15	0.0595	0.00322
288.15	0.06483	0.0035
293.15	0.07116	0.00385
298.15	0.07749	0.00419
303.15	0.08459	0.00457
308.15	0.09261	0.00501
313.15	0.101	0.0055
318.15	0.11	0.0059
323.15	0.1197	0.0065

System: propan-2-ol + 2-amino-4-chloro-6-methoxypyrimidine; phases: Liquid, Crystal
Fixed: Pressure, kPa = 101.1
Property: Mole fraction of 2-amino-4-chloro-6-methoxypyrimidine (Liquid); method: Chromatography
Temperature, K	Mole fraction of 2-amino-4-chloro-6-methoxypyrimidine	uncertainty
273.15	0.001129	6.1e-05
278.15	0.001493	8.1e-05
283.15	0.001903	0.000103
288.15	0.002414	0.000131
293.15	0.003024	0.000164
298.15	0.003767	0.000204
303.15	0.004603	0.000249
308.15	0.005738	0.00031
313.15	0.007007	0.000379
318.15	0.008568	0.000463
323.15	0.01049	0.00057

System: 1,4-dioxane + 2-amino-4-chloro-6-methoxypyrimidine; phases: Liquid, Crystal
Fixed: Pressure, kPa = 101.1
Property: Mole fraction of 2-amino-4-chloro-6-methoxypyrimidine (Liquid); method: Chromatography
Temperature, K	Mole fraction of 2-amino-4-chloro-6-methoxypyrimidine	uncertainty
283.15	0.02292	0.00124
288.15	0.02643	0.00143
293.15	0.03157	0.00171
298.15	0.0367	0.00198
303.15	0.04218	0.00228
308.15	0.04927	0.00266
313.15	0.05693	0.00308
318.15	0.06484	0.0035
323.15	0.0746	0.00403

System: ethylbenzene + 2-amino-4-chloro-6-methoxypyrimidine; phases: Liquid, Crystal
Fixed: Pressure, kPa = 101.1
Property: Mole fraction of 2-amino-4-chloro-6-methoxypyrimidine (Liquid); method: Chromatography
Temperature, K	Mole fraction of 2-amino-4-chloro-6-methoxypyrimidine	uncertainty
273.15	0.000515	2.8e-05
278.15	0.000689	3.7e-05
283.15	0.000887	4.8e-05
288.15	0.001146	6.2e-05
293.15	0.001503	8.1e-05
298.15	0.001841	0.0001
303.15	0.002385	0.000129
308.15	0.002991	0.000162
313.15	0.003675	0.000199
318.15	0.004617	0.00025
323.15	0.00567	0.000307
