Measured thermophysical data. Thermochemical properties of two benzimidazole derivatives: 2-Phenyl- and 2-benzylbenzimidazole
Source: J. Chem. Thermodyn., 2005, 10.1016/j.jct.2005.02.008
Compound 1: carbon dioxide, CO2, InChI=1S/CO2/c2-1-3
Compound 2: nitrogen, N2, InChI=1S/N2/c1-2
Compound 3: water, H2O, InChI=1S/H2O/h1H2
Compound 4: oxygen, O2, InChI=1S/O2/c1-2
Compound 5: 2-phenylbenzimidazole, C13H10N2, InChI=1S/C13H10N2/c1-2-6-10(7-3-1)13-14-11-8-4-5-9-12(11)15-13/h1-9H,(H,14,15), purity 97%
Compound 6: bendazol, C14H12N2, InChI=1S/C14H12N2/c1-2-6-11(7-3-1)10-14-15-12-8-4-5-9-13(12)16-14/h1-9H,10H2,(H,15,16)

System: 2-phenylbenzimidazole; phases: Crystal, Liquid, Air at 1 atmosphere
Property: Normal melting temperature, K (Crystal); method: DTA
Normal melting temperature, K	uncertainty
464.1	0.5

System: 2-phenylbenzimidazole; phases: Crystal
Property: Mass density, kg/m3 (Crystal); method: Pycnometric method
Temperature, K	Pressure, kPa	Mass density, kg/m3	uncertainty
298.15	101.325	1060	10

System: 2-phenylbenzimidazole; phases: Crystal
Fixed: Pressure, kPa = 101.325
Property: Molar heat capacity at constant pressure, J/K/mol (Crystal); method: SDSC:UFactor:2
Temperature, K	Molar heat capacity at constant pressure, J/K/mol	uncertainty
268.15	185.23	7.41
270.15	186.33	7.45
273.15	188.41	7.54
275.15	189.51	7.58
280.15	193.33	7.73
285.15	197.27	7.89
290.15	201.29	8.05
295.15	205.63	8.23
298.15	208.09	8.32
300.15	209.51	8.38
305.15	215.89	8.64
310.15	220.71	8.83
315.15	224.47	8.98
320.15	228.09	9.12
325.15	231.72	9.27
330.15	235.41	9.42
335.15	238.58	9.54
340.15	242.27	9.69
345.15	245.77	9.83
350.15	249.26	9.97
355.15	252.83	10.11
360.15	256.06	10.24
365.15	259.95	10.4
370.15	263.64	10.55
375.15	266.16	10.65
380.15	269.14	10.77
385.15	272.38	10.9
390.15	276.33	11.05
395.15	280.47	11.22
400.15	285	11.4
405.15	288.95	11.56
410.15	292.32	11.69
415.15	295.82	11.83
420.15	300.09	12
425.15	304.1	12.16
430.15	308.05	12.32
435.15	312.13	12.49
440.15	316.02	12.64
445.15	319.51	12.78
450.15	322.1	12.88

System: 2-phenylbenzimidazole; phases: Gas
Property: Molar enthalpy, kJ/mol (Gas); method: Calvet microcalorimetry
Temperature, K	Pressure, kPa	Molar enthalpy, kJ/mol	uncertainty
558	101.3	191	0.4

System: bendazol; phases: Crystal, Liquid, Air at 1 atmosphere
Property: Normal melting temperature, K (Crystal); method: DTA
Normal melting temperature, K	uncertainty
570.5	0.5

System: bendazol; phases: Crystal
Property: Mass density, kg/m3 (Crystal); method: Pycnometric method
Temperature, K	Pressure, kPa	Mass density, kg/m3	uncertainty
298.15	101.325	1140	10

System: bendazol; phases: Crystal
Fixed: Pressure, kPa = 101.325
Property: Molar heat capacity at constant pressure, J/K/mol (Crystal); method: SDSC:UFactor:2
Temperature, K	Molar heat capacity at constant pressure, J/K/mol	uncertainty
270.15	215.86	8.63
273.15	218.67	8.75
275.15	220.51	8.82
280.15	223.25	8.93
285.15	227.59	9.1
290.15	228.63	9.15
295.15	228.79	9.15
298.15	228.92	9.16
300.15	229.04	9.16
305.15	231.75	9.27
310.15	233.79	9.35
315.15	237.21	9.49
320.15	240.29	9.61
325.15	244.91	9.8
330.15	248.5	9.94
335.15	252.54	10.1
340.15	255.29	10.21
345.15	260.53	10.42
350.15	261.16	10.45
355.15	264.99	10.6
360.15	269.16	10.77
365.15	272.11	10.88
370.15	283.19	11.33
375.15	285.9	11.44
380.15	289.9	11.6
385.15	293.81	11.75
390.15	298.39	11.94
395.15	303.73	12.15
400.15	307.64	12.31
405.15	312.35	12.49
410.15	314.26	12.57
415.15	322.84	12.91
420.15	329.18	13.17
425.15	333.59	13.34
430.15	342.59	13.7
435.15	349.42	13.98
440.15	359.96	14.4

System: bendazol; phases: Crystal, Gas
Property: Vapor or sublimation pressure, kPa (Crystal); method: Calculated from knudsen effusion weight loss
Temperature, K	Vapor or sublimation pressure, kPa	uncertainty
393.54	0.000125	6e-06
396.81	0.000178	9e-06
400.16	0.000248	1.2e-05
402.04	0.000299	1.5e-05
405.47	0.000419	2.1e-05
409	0.000596	3e-05
412.48	0.000829	4.1e-05

Reaction: -1 2-phenylbenzimidazole + 13 carbon dioxide + 1 nitrogen + 5 water + -15.5 oxygen
Property: Specific internal energy of reaction at constant volume, J/g
-34371.5

Reaction: -1 bendazol + 14 carbon dioxide + 1 nitrogen + 6 water + -17 oxygen
Property: Specific internal energy of reaction at constant volume, J/g
-35158.5
