Measured thermophysical data. Development of the Knudsen effusion methodology for vapour pressure measurements of low volatile liquids and solids based on a quartz crystal microbalance
Source: J. Chem. Thermodyn., 2018, 10.1016/j.jct.2018.07.004
Compound 1: 1,3,5-triphenylbenzene, C24H18, InChI=1S/C24H18/c1-4-10-19(11-5-1)22-16-23(20-12-6-2-7-13-20)18-24(17-22)21-14-8-3-9-15-21/h1-18H
Compound 2: 1-ethyl-3-methylimidazolium bis((trifluoromethyl)sulfonyl)imide, C8H11F6N3O4S2, InChI=1S/C6H11N2.C2F6NO4S2/c1-3-8-5-4-7(2)6-8;3-1(4,5)14(10,11)9-15(12,13)2(6,7)8/h4-6H,3H2,1-2H3;/q+1;-1

System: 1,3,5-triphenylbenzene; phases: Crystal, Gas
Property: Vapor or sublimation pressure, kPa (Crystal); method: Calculated from knudsen effusion weight loss
Temperature, K	Vapor or sublimation pressure, kPa	uncertainty
408.16	0.0001536	7.5e-06
413.16	0.0002528	1.22e-05
418.15	0.0004157	2.03e-05
423.16	0.0006722	3.29e-05
428.16	0.0010811	8.78e-05
408.05	0.0001488	7.3e-06
413.05	0.000247	1.19e-05
418.05	0.0004034	1.98e-05
423.04	0.0006477	3.18e-05
428.04	0.0010257	8.26e-05
408.04	0.000144	7.5e-06
413.04	0.0002384	1.23e-05
418.03	0.0003878	2.06e-05
423.03	0.0006219	3.33e-05
428.03	0.0009832	5.55e-05
423.03	0.0006345	3.23e-05

System: 1-ethyl-3-methylimidazolium bis((trifluoromethyl)sulfonyl)imide; phases: Liquid, Gas
Property: Vapor or sublimation pressure, kPa (Liquid); method: Calculated from knudsen effusion weight loss
Temperature, K	Vapor or sublimation pressure, kPa	uncertainty
478.12	6.08e-05	4.1e-06
483.11	8.24e-05	4.4e-06
488.11	0.0001112	5.3e-06
453.11	1.21e-05	3.2e-06
458.01	1.71e-05	3.2e-06
463.1	2.42e-05	3.3e-06
468.11	3.33e-05	3.4e-06
473.1	4.61e-05	3.6e-06
453.12	1.25e-05	3.2e-06
458.13	1.72e-05	3.2e-06
463.13	2.39e-05	3.3e-06
468.13	3.32e-05	3.5e-06
463.12	2.38e-05	3.3e-06
468.12	3.29e-05	3.5e-06
473.12	4.51e-05	3.7e-06
478.12	6.16e-05	4.2e-06
483.11	8.32e-05	4.4e-06
473.14	4.69e-05	3.9e-06
493.1	0.0001477	7e-06
438.12	4.5e-06	3.2e-06
443.12	6.3e-06	3.2e-06
448.12	8.9e-06	3.2e-06
453.11	1.25e-05	3.2e-06
433.1	3e-06	3.2e-06
438.1	4.3e-06	3.2e-06
443.09	6.3e-06	3.2e-06
448.09	8.8e-06	3.2e-06
453.09	1.23e-05	3.2e-06
458.09	1.72e-05	3.2e-06
463.08	2.39e-05	3.3e-06
433.05	2.8e-06	3.2e-06
438.04	4.2e-06	3.2e-06
443.04	5.9e-06	3.2e-06
448.03	8.4e-06	3.2e-06
453.03	1.18e-05	3.2e-06
458.02	1.66e-05	3.2e-06
488.05	0.0001107	5.3e-06
493.1	0.0001477	7e-06
498.1	0.0001931	9.2e-06
503.1	0.0002516	1.19e-05
478.09	6.25e-05	3.9e-06
483.08	8.4e-05	4.4e-06
488.08	0.000112	5.3e-06
493.07	0.0001477	7e-06
473.13	4.53e-05	3.7e-06
478.13	6.12e-05	4.1e-06
483.12	8.26e-05	4.9e-06
488.11	0.0001115	5.3e-06
493.11	0.0001477	7e-06
498.11	0.0001943	9.2e-06
503.1	0.0002533	1.2e-05
458.11	1.76e-05	3.3e-06
463.1	2.45e-05	3.3e-06
468.1	3.41e-05	3.4e-06
468.08	3.27e-05	3.4e-06
473.07	4.5e-05	3.6e-06
478.07	6.13e-05	3.9e-06
483.06	8.23e-05	4.4e-06
488.06	0.0001105	5.3e-06
493.05	0.0001465	7e-06
463.05	2.29e-05	3.3e-06
468.04	3.16e-05	3.5e-06
473.04	4.32e-05	3.9e-06
478.04	5.84e-05	4e-06
483.04	7.83e-05	4.8e-06
