Measured thermophysical data. Studies on the interactions behaviour of polyhydroxy solutes D(+)-glucose and D(-)-fructose in aqueous triammonium citrate solutions over temperature range T = (288.15-318.15) K
Source: J. Chem. Thermodyn., 2018, 10.1016/j.jct.2017.12.003
Compound 1: D-glucose, C6H12O6, InChI=1S/C6H12O6/c7-1-3(9)5(11)6(12)4(10)2-8/h1,3-6,8-12H,2H2/t3-,4+,5+,6+/m0/s1, purity 99%
Compound 2: D-fructose, C6H12O6, InChI=1S/C6H12O6/c7-1-3(9)5(11)6(12)4(10)2-8/h3,5-9,11-12H,1-2H2/t3-,5-,6-/m1/s1, purity 99%
Compound 3: ammonium 2-hydroxypropane-1,2,3-tricarboxylate, C6H17N3O7, InChI=1S/C6H8O7.3H3N/c7-3(8)1-6(13,5(11)12)2-4(9)10;;;/h13H,1-2H2,(H,7,8)(H,9,10)(H,11,12);3*1H3, purity 99%
Compound 4: water, H2O, InChI=1S/H2O/h1H2

System: D-glucose + ammonium 2-hydroxypropane-1,2,3-tricarboxylate + water; phases: Liquid
Fixed: Pressure, kPa = 100
Property: Mass density, kg/m3 (Liquid); method: Vibrating tube method
Temperature, K	Solvent: Molality, mol/kg of ammonium 2-hydroxypropane-1,2,3-tricarboxylate	Molality, mol/kg of D-glucose	Mass density, kg/m3	uncertainty
288.15	0.2	0	1021.597	2.052
288.15	0.2	0.10012	1028.03	2.05
288.15	0.2	0.2	1034.29	2.06
288.15	0.2	0.30188	1040.49	2.08
288.15	0.2	0.3987	1046.23	2.1
288.15	0.2	0.50091	1052.12	2.12
288.15	0.2	0.598	1057.56	2.15
288.15	0.2	0.7	1063.13	2.18
288.15	0.2	0.79983	1068.45	2.21
288.15	0.2	0.89445	1073.35	2.24
288.15	0.2	0.99997	1078.67	2.28
288.15	0.4	0	1043.278	2.165
288.15	0.4	0.09982	1049.37	2.17
288.15	0.4	0.19985	1055.31	2.18
288.15	0.4	0.29843	1061.01	2.19
288.15	0.4	0.39662	1066.52	2.2
288.15	0.4	0.4997	1072.16	2.22
288.15	0.4	0.59483	1077.23	2.24
288.15	0.4	0.69626	1082.49	2.27
288.15	0.4	0.79593	1087.51	2.29
288.15	0.4	0.89423	1092.33	2.31
288.15	0.4	0.99845	1097.29	2.34
288.15	0.6	0	1063.556	2.347
288.15	0.6	0.10005	1069.49	2.34
288.15	0.6	0.19958	1075.22	2.35
288.15	0.6	0.29958	1080.82	2.35
288.15	0.6	0.39799	1086.17	2.36
288.15	0.6	0.4961	1091.37	2.38
288.15	0.6	0.59636	1096.52	2.39
288.15	0.6	0.69659	1101.55	2.41
288.15	0.6	0.79501	1106.35	2.43
288.15	0.6	0.89817	1111.2	2.45
288.15	0.6	0.99618	1115.7	2.47
298.15	0.2	0	1019.175	2.052
298.15	0.2	0.10012	1025.55	2.05
298.15	0.2	0.2	1031.73	2.06
298.15	0.2	0.30188	1037.86	2.08
298.15	0.2	0.3987	1043.53	2.1
298.15	0.2	0.50091	1049.35	2.12
298.15	0.2	0.598	1054.74	2.15
298.15	0.2	0.7	1060.25	2.18
298.15	0.2	0.79983	1065.5	2.2
298.15	0.2	0.89445	1070.33	2.23
298.15	0.2	0.99997	1075.6	2.25
298.15	0.4	0	1040.551	2.171
298.15	0.4	0.09982	1046.58	2.17
298.15	0.4	0.19985	1052.45	2.17
298.15	0.4	0.29843	1058.07	2.18
298.15	0.4	0.39662	1063.51	2.2
298.15	0.4	0.4997	1069.06	2.21
298.15	0.4	0.59483	1074.04	2.23
298.15	0.4	0.69626	1079.21	2.25
298.15	0.4	0.79593	1084.15	2.28
298.15	0.4	0.89423	1088.88	2.3
298.15	0.4	0.99845	1093.77	2.31
298.15	0.6	0	1060.589	2.333
298.15	0.6	0.10005	1066.37	2.33
298.15	0.6	0.19958	1071.95	2.33
298.15	0.6	0.29958	1077.4	2.34
298.15	0.6	0.39799	1082.6	2.34
298.15	0.6	0.4961	1087.64	2.35
298.15	0.6	0.59636	1092.66	2.37
298.15	0.6	0.69659	1097.51	2.38
298.15	0.6	0.79501	1102.16	2.4
298.15	0.6	0.89817	1106.9	2.42
298.15	0.6	0.99618	1111.26	2.44
308.15	0.2	0	1015.934	2.051
308.15	0.2	0.10012	1022.25	2.05
308.15	0.2	0.2	1028.37	2.06
308.15	0.2	0.30188	1034.45	2.08
308.15	0.2	0.3987	1040.07	2.1
308.15	0.2	0.50091	1045.85	2.12
308.15	0.2	0.598	1051.18	2.14
308.15	0.2	0.7	1056.64	2.17
308.15	0.2	0.79983	1061.83	2.2
308.15	0.2	0.89445	1066.63	2.23
308.15	0.2	0.99997	1071.84	2.25
308.15	0.4	0	1037.126	2.168
308.15	0.4	0.09982	1043.06	2.17
308.15	0.4	0.19985	1048.83	2.17
308.15	0.4	0.29843	1054.36	2.18
308.15	0.4	0.39662	1059.73	2.19
308.15	0.4	0.4997	1065.2	2.21
308.15	0.4	0.59483	1070.12	2.23
308.15	0.4	0.69626	1075.22	2.25
308.15	0.4	0.79593	1080.09	2.27
308.15	0.4	0.89423	1084.75	2.29
308.15	0.4	0.99845	1089.56	2.31
308.15	0.6	0	1057.013	2.329
308.15	0.6	0.10005	1062.71	2.33
308.15	0.6	0.19958	1068.22	2.33
308.15	0.6	0.29958	1073.59	2.33
308.15	0.6	0.39799	1078.72	2.34
308.15	0.6	0.4961	1083.7	2.35
308.15	0.6	0.59636	1088.64	2.36
308.15	0.6	0.69659	1093.43	2.37
308.15	0.6	0.79501	1098	2.39
308.15	0.6	0.89817	1102.65	2.41
308.15	0.6	0.99618	1106.95	2.41
318.15	0.2	0	1011.986	2.049
318.15	0.2	0.10012	1018.25	2.05
318.15	0.2	0.2	1024.32	2.06
318.15	0.2	0.30188	1030.34	2.07
318.15	0.2	0.3987	1035.91	2.09
318.15	0.2	0.50091	1041.63	2.12
318.15	0.2	0.598	1046.92	2.14
318.15	0.2	0.7	1052.34	2.17
318.15	0.2	0.79983	1057.49	2.2
318.15	0.2	0.89445	1062.23	2.22
318.15	0.2	0.99997	1067.39	2.26
318.15	0.4	0	1033.083	2.259
318.15	0.4	0.09982	1038.95	2.16
318.15	0.4	0.19985	1044.66	2.17
318.15	0.4	0.29843	1050.13	2.18
318.15	0.4	0.39662	1055.44	2.19
318.15	0.4	0.4997	1060.85	2.21
318.15	0.4	0.59483	1065.7	2.22
318.15	0.4	0.69626	1070.73	2.24
318.15	0.4	0.79593	1075.54	2.26
318.15	0.4	0.89423	1080.15	2.28
318.15	0.4	0.99845	1084.92	2.31
318.15	0.6	0	1052.9	2.333
318.15	0.6	0.10005	1058.53	2.33
318.15	0.6	0.19958	1063.97	2.33
318.15	0.6	0.29958	1069.27	2.33
318.15	0.6	0.39799	1074.34	2.34
318.15	0.6	0.4961	1079.24	2.35
318.15	0.6	0.59636	1084.11	2.36
318.15	0.6	0.69659	1088.84	2.37
318.15	0.6	0.79501	1093.35	2.39
318.15	0.6	0.89817	1097.96	2.4
318.15	0.6	0.99618	1102.2	2.42

System: D-glucose + ammonium 2-hydroxypropane-1,2,3-tricarboxylate + water; phases: Liquid
Fixed: Pressure, kPa = 100
Fixed: Frequency, MHz = 3
Property: Speed of sound, m/s (Liquid); method: Single path-length method
Temperature, K	Solvent: Molality, mol/kg of ammonium 2-hydroxypropane-1,2,3-tricarboxylate	Molality, mol/kg of D-glucose	Speed of sound, m/s	uncertainty
288.15	0.2	0	1503.56	10.05
288.15	0.2	0.10012	1511.4	10.1
288.15	0.2	0.2	1517	10.1
288.15	0.2	0.30188	1523.4	10.1
288.15	0.2	0.3987	1529.8	10.1
288.15	0.2	0.50091	1536.5	10.1
288.15	0.2	0.598	1542.1	10.1
288.15	0.2	0.7	1549	10.1
288.15	0.2	0.79983	1555.2	10.1
288.15	0.2	0.89445	1561	10.1
288.15	0.2	0.99997	1567.8	10.1
288.15	0.4	0	1540.7	10.15
288.15	0.4	0.09982	1548.5	10.1
288.15	0.4	0.19985	1553.9	10.1
288.15	0.4	0.29843	1559.9	10.1
288.15	0.4	0.39662	1565.9	10.1
288.15	0.4	0.4997	1572.4	10.2
288.15	0.4	0.59483	1578	10.2
288.15	0.4	0.69626	1583.7	10.2
288.15	0.4	0.79593	1589.3	10.2
288.15	0.4	0.89423	1594.9	10.2
288.15	0.4	0.99845	1600.1	10.2
288.15	0.6	0	1578.53	10.28
288.15	0.6	0.10005	1585.7	10.3
288.15	0.6	0.19958	1591.9	10.3
288.15	0.6	0.29958	1597.9	10.3
288.15	0.6	0.39799	1604	10.3
288.15	0.6	0.4961	1609.8	10.3
288.15	0.6	0.59636	1615.9	10.3
288.15	0.6	0.69659	1621.8	10.3
288.15	0.6	0.79501	1627.5	10.3
288.15	0.6	0.89817	1633.8	10.3
288.15	0.6	0.99618	1639.7	10.4
298.15	0.2	0	1532.21	10.06
298.15	0.2	0.10012	1539.7	10.1
298.15	0.2	0.2	1544.7	10.1
298.15	0.2	0.30188	1550.7	10.1
298.15	0.2	0.3987	1556.3	10.1
298.15	0.2	0.50091	1562.7	10.1
298.15	0.2	0.598	1567.9	10.1
298.15	0.2	0.7	1573.8	10.1
298.15	0.2	0.79983	1579.1	10.1
298.15	0.2	0.89445	1585.1	10.1
298.15	0.2	0.99997	1590.5	10.1
298.15	0.4	0	1567.5	10.13
298.15	0.4	0.09982	1574.7	10.1
298.15	0.4	0.19985	1579.7	10.1
298.15	0.4	0.29843	1585.4	10.1
298.15	0.4	0.39662	1590.7	10.1
298.15	0.4	0.4997	1596.7	10.1
298.15	0.4	0.59483	1601.9	10.1
298.15	0.4	0.69626	1607.1	10.1
298.15	0.4	0.79593	1612.1	10.2
298.15	0.4	0.89423	1617.2	10.2
298.15	0.4	0.99845	1622.6	10.2
298.15	0.6	0	1603.26	10.23
298.15	0.6	0.10005	1609.9	10.2
298.15	0.6	0.19958	1615.8	10.2
298.15	0.6	0.29958	1621.5	10.2
298.15	0.6	0.39799	1626.2	10.3
298.15	0.6	0.4961	1631.7	10.3
298.15	0.6	0.59636	1637.3	10.3
298.15	0.6	0.69659	1643	10.3
298.15	0.6	0.79501	1648.1	10.3
298.15	0.6	0.89817	1653.2	10.3
298.15	0.6	0.99618	1659	10.3
308.15	0.2	0	1553.79	10.05
308.15	0.2	0.10012	1560.6	10.1
308.15	0.2	0.2	1566.2	10.1
308.15	0.2	0.30188	1571.9	10.1
308.15	0.2	0.3987	1576.7	10.1
308.15	0.2	0.50091	1582	10.1
308.15	0.2	0.598	1586.9	10.1
308.15	0.2	0.7	1592	10.1
308.15	0.2	0.79983	1597.8	10.1
308.15	0.2	0.89445	1602.6	10.1
308.15	0.2	0.99997	1607.5	10.1
308.15	0.4	0	1587.7	10.12
308.15	0.4	0.09982	1594.2	10.1
308.15	0.4	0.19985	1599.4	10.1
308.15	0.4	0.29843	1604.6	10.1
308.15	0.4	0.39662	1609.5	10.1
308.15	0.4	0.4997	1614.6	10.1
308.15	0.4	0.59483	1619.3	10.1
308.15	0.4	0.69626	1624.1	10.1
308.15	0.4	0.79593	1629	10.1
308.15	0.4	0.89423	1634.1	10.2
308.15	0.4	0.99845	1639.4	10.1
308.15	0.6	0	1621.95	10.21
308.15	0.6	0.10005	1628.3	10.2
308.15	0.6	0.19958	1634.1	10.2
308.15	0.6	0.29958	1639.4	10.2
308.15	0.6	0.39799	1644.5	10.2
308.15	0.6	0.4961	1649.8	10.2
308.15	0.6	0.59636	1654.9	10.2
308.15	0.6	0.69659	1657	10.2
308.15	0.6	0.79501	1661.7	10.2
308.15	0.6	0.89817	1666.8	10.2
308.15	0.6	0.99618	1671.1	10.2
318.15	0.2	0	1569.04	10.05
318.15	0.2	0.10012	1575.9	10
318.15	0.2	0.2	1580.7	10.1
318.15	0.2	0.30188	1585.5	10.1
318.15	0.2	0.3987	1590.6	10.1
318.15	0.2	0.50091	1595.4	10.1
318.15	0.2	0.598	1600	10.1
318.15	0.2	0.7	1605.2	10.1
318.15	0.2	0.79983	1610.9	10.1
318.15	0.2	0.89445	1615.1	10.1
318.15	0.2	0.99997	1619.6	10.1
318.15	0.4	0	1602.09	10.14
318.15	0.4	0.09982	1608.2	10.1
318.15	0.4	0.19985	1613.1	10.1
318.15	0.4	0.29843	1617.4	10.1
318.15	0.4	0.39662	1622.2	10.1
318.15	0.4	0.4997	1627.2	10.1
318.15	0.4	0.59483	1631.6	10.1
318.15	0.4	0.69626	1636.2	10.1
318.15	0.4	0.79593	1641.1	10.1
318.15	0.4	0.89423	1645.1	10.1
318.15	0.4	0.99845	1649.6	10.1
318.15	0.6	0	1635.2	10.22
318.15	0.6	0.10005	1641.6	10.2
318.15	0.6	0.19958	1646.3	10.2
318.15	0.6	0.29958	1651.1	10.2
318.15	0.6	0.39799	1655.4	10.2
318.15	0.6	0.4961	1657.8	10.2
318.15	0.6	0.59636	1662.5	10.2
318.15	0.6	0.69659	1666.2	10.2
318.15	0.6	0.79501	1670.7	10.2
318.15	0.6	0.89817	1675.1	10.2
318.15	0.6	0.99618	1679.4	10.2

System: D-fructose + ammonium 2-hydroxypropane-1,2,3-tricarboxylate + water; phases: Liquid
Fixed: Pressure, kPa = 100
Property: Mass density, kg/m3 (Liquid); method: Vibrating tube method
Temperature, K	Solvent: Molality, mol/kg of ammonium 2-hydroxypropane-1,2,3-tricarboxylate	Molality, mol/kg of D-fructose	Mass density, kg/m3	uncertainty
288.15	0.2	0	1021.597	2.052
288.15	0.2	0.0995	1028.19	2.05
288.15	0.2	0.19961	1034.66	2.07
288.15	0.2	0.29819	1040.87	2.08
288.15	0.2	0.39245	1046.65	2.1
288.15	0.2	0.49531	1052.82	2.13
288.15	0.2	0.60371	1059.14	2.16
288.15	0.2	0.69945	1064.59	2.19
288.15	0.2	0.79668	1069.98	2.22
288.15	0.2	0.89783	1075.45	2.26
288.15	0.2	0.99887	1080.78	2.3
288.15	0.4	0	1043.278	2.171
288.15	0.4	0.1001	1049.68	2.17
288.15	0.4	0.19902	1055.84	2.18
288.15	0.4	0.29841	1061.87	2.19
288.15	0.4	0.39804	1067.75	2.21
288.15	0.4	0.49153	1073.12	2.23
288.15	0.4	0.59369	1078.84	2.25
288.15	0.4	0.6944	1084.33	2.28
288.15	0.4	0.79157	1089.49	2.3
288.15	0.4	0.8962	1094.92	2.33
288.15	0.4	0.99656	1099.98	2.32
288.15	0.6	0	1063.556	2.347
288.15	0.6	0.09997	1069.7	2.34
288.15	0.6	0.19935	1075.64	2.34
288.15	0.6	0.29612	1081.26	2.35
288.15	0.6	0.3987	1087.06	2.36
288.15	0.6	0.49837	1092.55	2.37
288.15	0.6	0.58721	1097.3	2.38
288.15	0.6	0.69657	1103.01	2.4
288.15	0.6	0.79976	1108.25	2.42
288.15	0.6	0.89299	1112.83	2.44
288.15	0.6	0.99852	1117.9	2.47
298.15	0.2	0	1019.175	2.052
298.15	0.2	0.0995	1025.69	2.05
298.15	0.2	0.19961	1032.07	2.06
298.15	0.2	0.29819	1038.19	2.08
298.15	0.2	0.39245	1043.9	2.1
298.15	0.2	0.49531	1049.97	2.13
298.15	0.2	0.60371	1056.21	2.16
298.15	0.2	0.69945	1061.56	2.19
298.15	0.2	0.79668	1066.87	2.22
298.15	0.2	0.89783	1072.25	2.25
298.15	0.2	0.99887	1077.49	2.27
298.15	0.4	0	1040.551	2.171
298.15	0.4	0.1001	1046.85	2.17
298.15	0.4	0.19902	1052.91	2.18
298.15	0.4	0.29841	1058.83	2.19
298.15	0.4	0.39804	1064.62	2.2
298.15	0.4	0.49153	1069.9	2.22
298.15	0.4	0.59369	1075.52	2.24
298.15	0.4	0.6944	1080.93	2.27
298.15	0.4	0.79157	1086	2.29
298.15	0.4	0.8962	1091.32	2.32
298.15	0.4	0.99656	1096.28	2.32
298.15	0.6	0	1060.589	2.334
298.15	0.6	0.09997	1066.61	2.33
298.15	0.6	0.19935	1072.43	2.33
298.15	0.6	0.29612	1077.95	2.34
298.15	0.6	0.3987	1083.63	2.35
298.15	0.6	0.49837	1089	2.36
298.15	0.6	0.58721	1093.65	2.37
298.15	0.6	0.69657	1099.24	2.39
298.15	0.6	0.79976	1104.35	2.41
298.15	0.6	0.89299	1108.83	2.42
298.15	0.6	0.99852	1113.79	2.45
308.15	0.2	0	1015.934	2.051
308.15	0.2	0.0995	1022.36	2.05
308.15	0.2	0.19961	1028.66	2.06
308.15	0.2	0.29819	1034.7	2.08
308.15	0.2	0.39245	1040.34	2.1
308.15	0.2	0.49531	1046.33	2.12
308.15	0.2	0.60371	1052.48	2.15
308.15	0.2	0.69945	1057.76	2.18
308.15	0.2	0.79668	1062.99	2.21
308.15	0.2	0.89783	1068.3	2.25
308.15	0.2	0.99887	1073.46	2.26
308.15	0.4	0	1037.126	2.168
308.15	0.4	0.1001	1043.36	2.17
308.15	0.4	0.19902	1049.36	2.17
308.15	0.4	0.29841	1055.22	2.18
308.15	0.4	0.39804	1060.94	2.2
308.15	0.4	0.49153	1066.17	2.22
308.15	0.4	0.59369	1071.74	2.24
308.15	0.4	0.6944	1077.08	2.26
308.15	0.4	0.79157	1082.09	2.29
308.15	0.4	0.8962	1087.36	2.31
308.15	0.4	0.99656	1092.24	2.3
308.15	0.6	0	1057.013	2.329
308.15	0.6	0.09997	1062.97	2.32
308.15	0.6	0.19935	1068.72	2.32
308.15	0.6	0.29612	1074.17	2.33
308.15	0.6	0.3987	1079.78	2.34
308.15	0.6	0.49837	1085.09	2.35
308.15	0.6	0.58721	1089.69	2.36
308.15	0.6	0.69657	1095.21	2.38
308.15	0.6	0.79976	1100.27	2.4
308.15	0.6	0.89299	1104.7	2.41
308.15	0.6	0.99852	1109.6	2.42
318.15	0.2	0	1011.986	2.049
318.15	0.2	0.0995	1018.33	2.05
318.15	0.2	0.19961	1024.55	2.06
318.15	0.2	0.29819	1030.51	2.08
318.15	0.2	0.39245	1036.07	2.1
318.15	0.2	0.49531	1041.98	2.12
318.15	0.2	0.60371	1048.04	2.15
318.15	0.2	0.69945	1053.25	2.18
318.15	0.2	0.79668	1058.42	2.21
318.15	0.2	0.89783	1063.66	2.24
318.15	0.2	0.99887	1068.76	2.28
318.15	0.4	0	1033.083	2.277
318.15	0.4	0.1001	1039.22	2.17
318.15	0.4	0.19902	1045.12	2.17
318.15	0.4	0.29841	1050.9	2.18
318.15	0.4	0.39804	1056.52	2.2
318.15	0.4	0.49153	1061.66	2.21
318.15	0.4	0.59369	1067.14	2.23
318.15	0.4	0.6944	1072.4	2.26
318.15	0.4	0.79157	1077.33	2.28
318.15	0.4	0.8962	1082.52	2.31
318.15	0.4	0.99656	1087.35	2.3
318.15	0.6	0	1052.9	2.333
318.15	0.6	0.09997	1058.77	2.33
318.15	0.6	0.19935	1064.44	2.33
318.15	0.6	0.29612	1069.8	2.33
318.15	0.6	0.3987	1075.33	2.34
318.15	0.6	0.49837	1080.55	2.35
318.15	0.6	0.58721	1085.06	2.36
318.15	0.6	0.69657	1090.49	2.38
318.15	0.6	0.79976	1095.46	2.4
318.15	0.6	0.89299	1099.83	2.41
318.15	0.6	0.99852	1104.63	2.43

System: D-fructose + ammonium 2-hydroxypropane-1,2,3-tricarboxylate + water; phases: Liquid
Fixed: Pressure, kPa = 100
Fixed: Frequency, MHz = 3
Property: Speed of sound, m/s (Liquid); method: Single path-length method
Temperature, K	Solvent: Molality, mol/kg of ammonium 2-hydroxypropane-1,2,3-tricarboxylate	Molality, mol/kg of D-fructose	Speed of sound, m/s	uncertainty
288.15	0.2	0	1503.56	10.05
288.15	0.2	0.0995	1511.5	10.1
288.15	0.2	0.19961	1518.5	10.1
288.15	0.2	0.29819	1525.3	10.1
288.15	0.2	0.39245	1532.2	10.1
288.15	0.2	0.49531	1539.3	10.1
288.15	0.2	0.60371	1546.4	10.1
288.15	0.2	0.69945	1553.1	10.1
288.15	0.2	0.79668	1559.1	10.1
288.15	0.2	0.89783	1566.1	10.1
288.15	0.2	0.99887	1572.5	10.1
288.15	0.4	0	1540.7	10.18
288.15	0.4	0.1001	1548.2	10.1
288.15	0.4	0.19902	1555.2	10.1
288.15	0.4	0.29841	1562	10.2
288.15	0.4	0.39804	1568.7	10.2
288.15	0.4	0.49153	1574.8	10.2
288.15	0.4	0.59369	1581.9	10.2
288.15	0.4	0.6944	1588.7	10.2
288.15	0.4	0.79157	1595.6	10.2
288.15	0.4	0.8962	1602.7	10.2
288.15	0.4	0.99656	1609.67	10.29
288.15	0.6	0	1578.53	10.28
288.15	0.6	0.09997	1586.9	10.3
288.15	0.6	0.19935	1594.3	10.3
288.15	0.6	0.29612	1601.2	10.3
288.15	0.6	0.3987	1608.6	10.3
288.15	0.6	0.49837	1615.7	10.3
288.15	0.6	0.58721	1622.1	10.4
288.15	0.6	0.69657	1630	10.4
288.15	0.6	0.79976	1637.4	10.4
288.15	0.6	0.89299	1644.1	10.4
288.15	0.6	0.99852	1651.7	10.4
298.15	0.2	0	1532.21	10.06
298.15	0.2	0.0995	1539.3	10.1
298.15	0.2	0.19961	1545.7	10.1
298.15	0.2	0.29819	1552	10.1
298.15	0.2	0.39245	1558	10.1
298.15	0.2	0.49531	1564.8	10.1
298.15	0.2	0.60371	1570.9	10.1
298.15	0.2	0.69945	1577.3	10.1
298.15	0.2	0.79668	1583.2	10.1
298.15	0.2	0.89783	1588.7	10.1
298.15	0.2	0.99887	1595	10.1
298.15	0.4	0	1567.5	10.13
298.15	0.4	0.1001	1575	10.1
298.15	0.4	0.19902	1581.9	10.1
298.15	0.4	0.29841	1588.8	10.1
298.15	0.4	0.39804	1595.4	10.2
298.15	0.4	0.49153	1601.8	10.2
298.15	0.4	0.59369	1608.6	10.2
298.15	0.4	0.6944	1615.3	10.2
298.15	0.4	0.79157	1621.3	10.2
298.15	0.4	0.8962	1628.2	10.2
298.15	0.4	0.99656	1634.54	10.22
298.15	0.6	0	1603.26	10.23
298.15	0.6	0.09997	1611.6	10.3
298.15	0.6	0.19935	1619.4	10.3
298.15	0.6	0.29612	1626.3	10.3
298.15	0.6	0.3987	1633.6	10.3
298.15	0.6	0.49837	1640.8	10.3
298.15	0.6	0.58721	1647.2	10.3
298.15	0.6	0.69657	1655.1	10.3
298.15	0.6	0.79976	1662.5	10.4
298.15	0.6	0.89299	1669.2	10.4
298.15	0.6	0.99852	1676.8	10.4
308.15	0.2	0	1553.79	10.05
308.15	0.2	0.0995	1560.4	10.1
308.15	0.2	0.19961	1566.6	10.1
308.15	0.2	0.29819	1572.8	10.1
308.15	0.2	0.39245	1578.6	10.1
308.15	0.2	0.49531	1584.5	10.1
308.15	0.2	0.60371	1590.4	10.1
308.15	0.2	0.69945	1596	10.1
308.15	0.2	0.79668	1601.3	10.1
308.15	0.2	0.89783	1606.4	10.1
308.15	0.2	0.99887	1612.3	10.1
308.15	0.4	0	1587.7	10.12
308.15	0.4	0.1001	1595	10.1
308.15	0.4	0.19902	1601.9	10.1
308.15	0.4	0.29841	1608.9	10.1
308.15	0.4	0.39804	1615.8	10.1
308.15	0.4	0.49153	1622.3	10.2
308.15	0.4	0.59369	1628.6	10.2
308.15	0.4	0.6944	1635.3	10.2
308.15	0.4	0.79157	1641.3	10.2
308.15	0.4	0.8962	1647.2	10.2
308.15	0.4	0.99656	1653.12	10.19
308.15	0.6	0	1621.95	10.21
308.15	0.6	0.09997	1630.2	10.2
308.15	0.6	0.19935	1638	10.2
308.15	0.6	0.29612	1644.9	10.2
308.15	0.6	0.3987	1652.3	10.3
308.15	0.6	0.49837	1659.4	10.3
308.15	0.6	0.58721	1665.8	10.3
308.15	0.6	0.69657	1673.7	10.3
308.15	0.6	0.79976	1681.1	10.3
308.15	0.6	0.89299	1687.8	10.4
308.15	0.6	0.99852	1695.4	10.3
318.15	0.2	0	1569.04	10.05
318.15	0.2	0.0995	1574.8	10.1
318.15	0.2	0.19961	1580.1	10.1
318.15	0.2	0.29819	1585.2	10.1
318.15	0.2	0.39245	1590.1	10.1
318.15	0.2	0.49531	1595.6	10.1
318.15	0.2	0.60371	1600.9	10.1
318.15	0.2	0.69945	1606.1	10.1
318.15	0.2	0.79668	1610.6	10.1
318.15	0.2	0.89783	1615.9	10.1
318.15	0.2	0.99887	1620.4	10.1
318.15	0.4	0	1602.09	10.1
318.15	0.4	0.1001	1608.7	10.1
318.15	0.4	0.19902	1614.5	10.1
318.15	0.4	0.29841	1620.3	10.1
318.15	0.4	0.39804	1626.3	10.1
318.15	0.4	0.49153	1631.9	10.1
318.15	0.4	0.59369	1637	10.2
318.15	0.4	0.6944	1643	10.2
318.15	0.4	0.79157	1648.4	10.2
318.15	0.4	0.8962	1654.5	10.2
318.15	0.4	0.99656	1660.04	10.2
318.15	0.6	0	1635.2	10.22
318.15	0.6	0.09997	1642.5	10.2
318.15	0.6	0.19935	1649.5	10.2
318.15	0.6	0.29612	1655.7	10.3
318.15	0.6	0.3987	1662.2	10.3
318.15	0.6	0.49837	1668.6	10.3
318.15	0.6	0.58721	1674.3	10.3
318.15	0.6	0.69657	1681.3	10.3
318.15	0.6	0.79976	1687.5	10.3
318.15	0.6	0.89299	1693.4	10.3
318.15	0.6	0.99852	1699.1	10.4
