Measured thermophysical data. A new approach to study interaction parameters in cyanobiphenyl liquid crystal binary systems
Source: J. Chem. Thermodyn., 2015, 10.1016/j.jct.2014.08.010
Compound 1: 4'-heptyl-4-biphenylcarbonitrile, C20H23N, InChI=1S/C20H23N/c1-2-3-4-5-6-7-17-8-12-19(13-9-17)20-14-10-18(16-21)11-15-20/h8-15H,2-7H2,1H3, purity 98%
Compound 2: 4'-n-pentyl-4-biphenylcarbonitrile, C18H19N, InChI=1S/C18H19N/c1-2-3-4-5-15-6-10-17(11-7-15)18-12-8-16(14-19)9-13-18/h6-13H,2-5H2,1H3, purity 98%

System: 4'-heptyl-4-biphenylcarbonitrile; phases: Crystal, Nematic liquid crystal, Air at 1 atmosphere
Property: Molar enthalpy of transition or fusion, kJ/mol (Crystal); method: DSC
Molar enthalpy of transition or fusion, kJ/mol	uncertainty
24.35	0.72

System: 4'-heptyl-4-biphenylcarbonitrile; phases: Nematic liquid crystal, Liquid, Air at 1 atmosphere
Property: Molar enthalpy of transition or fusion, kJ/mol (Nematic liquid crystal); method: DSC
Molar enthalpy of transition or fusion, kJ/mol	uncertainty
0.83	0.16

System: 4'-heptyl-4-biphenylcarbonitrile; phases: Crystal, Nematic liquid crystal, Air at 1 atmosphere
Property: Triple point temperature, K (Crystal); method: DTA
Triple point temperature, K	uncertainty
305.15	0.5

System: 4'-heptyl-4-biphenylcarbonitrile; phases: Nematic liquid crystal, Liquid, Air at 1 atmosphere
Property: Triple point temperature, K (Nematic liquid crystal); method: DTA
Triple point temperature, K	uncertainty
316.15	0.5

System: 4'-n-pentyl-4-biphenylcarbonitrile; phases: Crystal, Nematic liquid crystal, Air at 1 atmosphere
Property: Molar enthalpy of transition or fusion, kJ/mol (Crystal); method: DSC
Molar enthalpy of transition or fusion, kJ/mol	uncertainty
13.66	0.45

System: 4'-n-pentyl-4-biphenylcarbonitrile; phases: Nematic liquid crystal, Liquid, Air at 1 atmosphere
Property: Molar enthalpy of transition or fusion, kJ/mol (Nematic liquid crystal); method: DSC
Molar enthalpy of transition or fusion, kJ/mol	uncertainty
0.49	0.15

System: 4'-n-pentyl-4-biphenylcarbonitrile; phases: Crystal, Nematic liquid crystal, Air at 1 atmosphere
Property: Triple point temperature, K (Crystal); method: DTA
Triple point temperature, K	uncertainty
297.55	0.5

System: 4'-n-pentyl-4-biphenylcarbonitrile; phases: Nematic liquid crystal, Liquid, Air at 1 atmosphere
Property: Triple point temperature, K (Nematic liquid crystal); method: DTA
Triple point temperature, K	uncertainty
308.65	0.5
