Measured thermophysical data. Short chain lead (II) alkanoates as ionic liquids and glass formers: A d.s.c., X-ray diffraction and FTIR spectroscopy study
Source: J. Chem. Thermodyn., 2007, 10.1016/j.jct.2006.07.023
Compound 1: lead(2+) acetate, C4H6O4Pb, InChI=1S/2C2H4O2.Pb/c2*1-2(3)4;/h2*1H3,(H,3,4);/q;;+2/p-2
Compound 2: lead(2+) dibutanoate, C8H14O4Pb, InChI=1S/2C4H8O2.Pb/c2*1-2-3-4(5)6;/h2*2-3H2,1H3,(H,5,6);/q;;+2/p-2
Compound 3: lead(2+) dipropanoate, C6H10O4Pb, InChI=1S/2C3H6O2.Pb/c2*1-2-3(4)5;/h2*2H2,1H3,(H,4,5);/q;;+2/p-2

System: lead(2+) acetate; phases: Crystal, Liquid, Air at 1 atmosphere
Property: Molar enthalpy of transition or fusion, kJ/mol (Crystal); method: DSC
Molar enthalpy of transition or fusion, kJ/mol	uncertainty
15.8	0.4

System: lead(2+) acetate; phases: Crystal, Liquid, Air at 1 atmosphere
Property: Triple point temperature, K (Crystal); method: DTA
Triple point temperature, K	uncertainty
452.3	1.6

System: lead(2+) acetate; phases: Glass, Liquid, Air at 1 atmosphere
Property: Triple point temperature, K (Glass); method: DTA
Triple point temperature, K	uncertainty
314.4	3

System: lead(2+) dibutanoate; phases: Crystal, Liquid, Air at 1 atmosphere
Property: Molar enthalpy of transition or fusion, kJ/mol (Crystal); method: DSC
Molar enthalpy of transition or fusion, kJ/mol	uncertainty
14.7	0.4

System: lead(2+) dibutanoate; phases: Crystal, Liquid, Air at 1 atmosphere
Property: Molar enthalpy of transition or fusion, kJ/mol (Crystal); method: DSC
Molar enthalpy of transition or fusion, kJ/mol	uncertainty
14.6	0.4

System: lead(2+) dibutanoate; phases: Metastable crystal, Liquid, Air at 1 atmosphere
Property: Molar enthalpy of transition or fusion, kJ/mol (Metastable crystal); method: DSC
Molar enthalpy of transition or fusion, kJ/mol	uncertainty
7.7	0.8

System: lead(2+) dibutanoate; phases: Crystal, Liquid, Air at 1 atmosphere
Property: Triple point temperature, K (Crystal); method: DTA
Triple point temperature, K	uncertainty
346.5	0.7

System: lead(2+) dibutanoate; phases: Crystal, Liquid, Air at 1 atmosphere
Property: Triple point temperature, K (Crystal); method: DTA
Triple point temperature, K	uncertainty
346.3	0.9

System: lead(2+) dibutanoate; phases: Glass, Liquid, Air at 1 atmosphere
Property: Triple point temperature, K (Glass); method: DTA
Triple point temperature, K	uncertainty
274.9	3

System: lead(2+) dibutanoate; phases: Metastable crystal, Liquid, Air at 1 atmosphere
Property: Triple point temperature, K (Metastable crystal); method: DTA
Triple point temperature, K	uncertainty
322.8	1.1

System: lead(2+) dipropanoate; phases: Crystal, Liquid, Air at 1 atmosphere
Property: Molar enthalpy of transition or fusion, kJ/mol (Crystal); method: DSC
Molar enthalpy of transition or fusion, kJ/mol	uncertainty
13.1	0.4

System: lead(2+) dipropanoate; phases: Crystal, Liquid, Air at 1 atmosphere
Property: Triple point temperature, K (Crystal); method: DTA
Triple point temperature, K	uncertainty
398.1	1.1

System: lead(2+) dipropanoate; phases: Glass, Liquid, Air at 1 atmosphere
Property: Triple point temperature, K (Glass); method: DTA
Triple point temperature, K	uncertainty
298	3
