Measured thermophysical data. Solubility of carbon dioxide and methane in 1-hexyl-3-methylimidazolium nitrate ionic liquid, experimental and thermodynamic modeling
Source: J. Chem. Thermodyn., 2018, 10.1016/j.jct.2018.03.003
Compound 1: carbon dioxide, CO2, InChI=1S/CO2/c2-1-3, purity 99.95%
Compound 2: methane, CH4, InChI=1S/CH4/h1H4, purity 99.995%
Compound 3: 1-hexyl-3-methylimidazolium nitrate, C10H19N3O3, InChI=1S/C10H19N2.NO3/c1-3-4-5-6-7-12-9-8-11(2)10-12;2-1(3)4/h8-10H,3-7H2,1-2H3;/q+1;-1

System: carbon dioxide + 1-hexyl-3-methylimidazolium nitrate; phases: Liquid, Gas
Property: Molality, mol/kg of carbon dioxide (Liquid); method: Volumetric method
Temperature, K	Pressure, kPa	Molality, mol/kg of carbon dioxide	uncertainty
293.15	315	0.2263	0.0338
293.15	645	0.4652	0.0416
293.15	1056	0.7485	0.0548
293.15	1443	1.024	0.073
293.15	1904	1.3691	0.1015
293.15	2312	1.6857	0.1326
293.15	2767	2.0417	0.1752
293.15	3200	2.3891	0.1873
303.15	343.5	0.2005	0.0292
303.15	701.5	0.4175	0.0363
303.15	1152	0.6789	0.0491
303.15	1574	0.9276	0.0661
303.15	2079	1.2313	0.0914
303.15	2525	1.5103	0.1203
303.15	3026	1.822	0.1607
303.15	3496	2.1336	0.1722
313.15	373	0.1841	0.0251
313.15	759	0.3834	0.0326
313.15	1242	0.6276	0.0451
313.15	1695	0.8586	0.0596
313.15	2245	1.1335	0.0839
313.15	2727	1.3928	0.1117
313.15	3268	1.684	0.1502
313.15	3779	1.9737	0.1672
323.15	402	0.1738	0.0221
323.15	812	0.3564	0.028
323.15	1329	0.5838	0.0393
323.15	1813	0.8	0.0537
323.15	2402	1.0566	0.0757
323.15	2923	1.2935	0.102
323.15	3502	1.5708	0.1363
323.15	4049	1.854	0.1773
333.15	429	0.1608	0.019
333.15	864	0.3314	0.025
333.15	1410	0.5485	0.0344
333.15	1925	0.7481	0.0446
333.15	2555	0.988	0.0326
333.15	3107	1.2194	0.0835
333.15	3726	1.4806	0.1122
333.15	4292	1.7582	0.1474
343.15	454	0.1546	0.0175
343.15	912	0.314	0.0219
343.15	1488	0.5174	0.0302
343.15	2031	0.7129	0.0384
343.15	2698	0.9375	0.0528
343.15	3283	1.1592	0.071
343.15	3944	1.408	0.095
343.15	4564	1.656	0.1238

System: methane + 1-hexyl-3-methylimidazolium nitrate; phases: Liquid, Gas
Property: Molality, mol/kg of methane (Liquid); method: Volumetric method
Temperature, K	Pressure, kPa	Molality, mol/kg of methane	uncertainty
293.15	874	0.0907	0.0091
293.15	1288	0.1491	0.0136
293.15	1750	0.2296	0.0202
293.15	2124	0.3077	0.0279
293.15	2580	0.4159	0.0381
303.15	905	0.0931	0.0088
303.15	1335	0.1525	0.013
303.15	1814	0.2361	0.02
303.15	2206	0.3159	0.0271
303.15	2680	0.4259	0.0377
313.15	935	0.0959	0.0089
313.15	1382	0.1541	0.0135
313.15	1878	0.2423	0.0207
313.15	2285	0.3239	0.0282
313.15	2778	0.4364	0.0389
323.15	966	0.098	0.009
323.15	1426	0.1603	0.0135
323.15	1942	0.2481	0.0205
323.15	2364	0.3326	0.028
323.15	2876	0.4463	0.0388
333.15	996	0.1011	0.0096
333.15	1471	0.1652	0.0138
333.15	2004	0.2557	0.0217
333.15	2442	0.345	0.0297
333.15	2972	0.4574	0.0403
343.15	1025	0.1051	0.0103
343.15	1513	0.1729	0.0151
343.15	2067	0.2624	0.0231
343.15	2513	0.3598	0.032
343.15	3055	0.481	0.0433
