Measured thermophysical data. Volumetric and optical properties for some (2-butanone + chloroalkane) binary mixtures at T = 298.15 K
Source: J. Chem. Thermodyn., 2014, 10.1016/j.jct.2014.04.004
Compound 1: butanone, C4H8O, InChI=1S/C4H8O/c1-3-4(2)5/h3H2,1-2H3, purity 98%
Compound 2: 1-chloropentane, C5H11Cl, InChI=1S/C5H11Cl/c1-2-3-4-5-6/h2-5H2,1H3, purity 98%
Compound 3: 1,3-dichloropropane, C3H6Cl2, InChI=1S/C3H6Cl2/c4-2-1-3-5/h1-3H2, purity 98%
Compound 4: 1,4-dichlorobutane, C4H8Cl2, InChI=1S/C4H8Cl2/c5-3-1-2-4-6/h1-4H2, purity 97%
Compound 5: 1,1,1-trichloroethane, C2H3Cl3, InChI=1S/C2H3Cl3/c1-2(3,4)5/h1H3, purity 99%
Compound 6: 1,1,2,2-tetrachloroethane, C2H2Cl4, InChI=1S/C2H2Cl4/c3-1(4)2(5)6/h1-2H, purity 98%

System: butanone; phases: Liquid
Property: Mass density, kg/m3 (Liquid); method: Vibrating tube method
Pressure, kPa	Temperature, K	Mass density, kg/m3	uncertainty
101.325	298.15	799.6	0.16

System: butanone; phases: Liquid
Property: Refractive index (Na D-line) (Liquid); method: Standard Abbe refractometry
Temperature, K	Pressure, kPa	Refractive index (Na D-line)	uncertainty
298.15	101.325	1.3755	0.0004

System: 1-chloropentane; phases: Liquid
Property: Mass density, kg/m3 (Liquid); method: Vibrating tube method
Pressure, kPa	Temperature, K	Mass density, kg/m3	uncertainty
101.325	298.15	879.8	0.14

System: 1-chloropentane; phases: Liquid
Property: Refractive index (Na D-line) (Liquid); method: Standard Abbe refractometry
Temperature, K	Pressure, kPa	Refractive index (Na D-line)	uncertainty
298.15	101.325	1.4101	0.0004

System: 1,3-dichloropropane; phases: Liquid
Property: Mass density, kg/m3 (Liquid); method: Vibrating tube method
Pressure, kPa	Temperature, K	Mass density, kg/m3	uncertainty
101.325	298.15	1180.5	0.17

System: 1,3-dichloropropane; phases: Liquid
Property: Refractive index (Na D-line) (Liquid); method: Standard Abbe refractometry
Temperature, K	Pressure, kPa	Refractive index (Na D-line)	uncertainty
298.15	101.325	1.4459	0.0004

System: 1,4-dichlorobutane; phases: Liquid
Property: Mass density, kg/m3 (Liquid); method: Vibrating tube method
Pressure, kPa	Temperature, K	Mass density, kg/m3	uncertainty
101.325	298.15	1135	0.39

System: 1,4-dichlorobutane; phases: Liquid
Property: Refractive index (Na D-line) (Liquid); method: Standard Abbe refractometry
Temperature, K	Pressure, kPa	Refractive index (Na D-line)	uncertainty
298.15	101.325	1.452	0.0004

System: 1,1,1-trichloroethane; phases: Liquid
Property: Mass density, kg/m3 (Liquid); method: Vibrating tube method
Pressure, kPa	Temperature, K	Mass density, kg/m3	uncertainty
101.325	298.15	1331.3	0.19

System: 1,1,1-trichloroethane; phases: Liquid
Property: Refractive index (Na D-line) (Liquid); method: Standard Abbe refractometry
Temperature, K	Pressure, kPa	Refractive index (Na D-line)	uncertainty
298.15	101.325	1.435	0.0004

System: 1,1,2,2-tetrachloroethane; phases: Liquid
Property: Mass density, kg/m3 (Liquid); method: Vibrating tube method
Pressure, kPa	Temperature, K	Mass density, kg/m3	uncertainty
101.325	298.15	1587.6	0.44

System: 1,1,2,2-tetrachloroethane; phases: Liquid
Property: Refractive index (Na D-line) (Liquid); method: Standard Abbe refractometry
Temperature, K	Pressure, kPa	Refractive index (Na D-line)	uncertainty
298.15	101.325	1.4917	0.0004

System: butanone + 1-chloropentane; phases: Liquid
Fixed: Pressure, kPa = 101.325
Fixed: Temperature, K = 298.15
Property: Mass density, kg/m3 (Liquid); method: Vibrating tube method
Mole fraction of butanone	Mass density, kg/m3	uncertainty
0	879.8	0.14
0.0442	876.45	0.14
0.1089	871.37	0.14
0.1546	867.76	0.14
0.2058	863.74	0.14
0.3045	855.93	0.15
0.3985	848.42	0.15
0.4843	841.67	0.15
0.5796	833.96	0.15
0.657	827.72	0.15
0.7676	818.7	0.15
0.869	810.44	0.15
0.966	802.48	0.16
1	799.6	0.16

System: butanone + 1-chloropentane; phases: Liquid
Fixed: Pressure, kPa = 101.325
Fixed: Temperature, K = 298.15
Property: Refractive index (Na D-line) (Liquid); method: Standard Abbe refractometry
Mole fraction of butanone	Refractive index (Na D-line)	uncertainty
0	1.4101	0.0004
0.0442	1.4085	0.0004
0.1089	1.4066	0.0004
0.1546	1.4053	0.0004
0.2058	1.4035	0.0004
0.3045	1.4004	0.0004
0.3985	1.3973	0.0004
0.4843	1.3949	0.0004
0.5796	1.3915	0.0004
0.657	1.3882	0.0004
0.7676	1.3847	0.0004
0.869	1.381	0.0004
0.966	1.377	0.0004
1	1.3755	0.0004

System: butanone + 1,3-dichloropropane; phases: Liquid
Fixed: Pressure, kPa = 101.325
Fixed: Temperature, K = 298.15
Property: Mass density, kg/m3 (Liquid); method: Vibrating tube method
Mole fraction of butanone	Mass density, kg/m3	uncertainty
0	1180.5	0.17
0.052	1162.14	0.16
0.1345	1132.78	0.16
0.1644	1122.03	0.16
0.2535	1089.72	0.17
0.3439	1056.35	0.18
0.4298	1024.01	0.2
0.5274	986.49	0.22
0.601	957.75	0.2
0.691	922.06	0.18
0.7647	892.61	0.17
0.8492	858.93	0.15
0.9267	828.27	0.15
1	799.6	0.16

System: butanone + 1,3-dichloropropane; phases: Liquid
Fixed: Pressure, kPa = 101.325
Fixed: Temperature, K = 298.15
Property: Refractive index (Na D-line) (Liquid); method: Standard Abbe refractometry
Mole fraction of butanone	Refractive index (Na D-line)	uncertainty
0	1.4459	0.0004
0.052	1.4425	0.0004
0.1345	1.4372	0.0004
0.1644	1.435	0.0004
0.2535	1.4291	0.0004
0.3439	1.424	0.0004
0.4298	1.418	0.0004
0.5274	1.4107	0.0004
0.601	1.4055	0.0004
0.691	1.3985	0.0004
0.7647	1.393	0.0004
0.8492	1.3872	0.0004
0.9267	1.381	0.0004
1	1.3755	0.0004

System: butanone + 1,4-dichlorobutane; phases: Liquid
Fixed: Pressure, kPa = 101.325
Fixed: Temperature, K = 298.15
Property: Mass density, kg/m3 (Liquid); method: Vibrating tube method
Mole fraction of butanone	Mass density, kg/m3	uncertainty
0	1135	0.39
0.105	1107.63	0.33
0.1984	1081.75	0.28
0.298	1052.47	0.25
0.3808	1026.92	0.23
0.4682	998.61	0.23
0.5543	969.66	0.22
0.635	941.34	0.2
0.7139	912.58	0.19
0.7943	882.29	0.17
0.8637	855.13	0.16
0.9286	829.17	0.16
1	799.6	0.16

System: butanone + 1,4-dichlorobutane; phases: Liquid
Fixed: Pressure, kPa = 101.325
Fixed: Temperature, K = 298.15
Property: Refractive index (Na D-line) (Liquid); method: Standard Abbe refractometry
Mole fraction of butanone	Refractive index (Na D-line)	uncertainty
0	1.452	0.0004
0.105	1.4453	0.0004
0.1984	1.4396	0.0004
0.298	1.4334	0.0004
0.3808	1.4288	0.0004
0.4682	1.4223	0.0004
0.5543	1.4155	0.0004
0.635	1.4094	0.0004
0.7139	1.4029	0.0004
0.7943	1.3956	0.0004
0.8637	1.3885	0.0004
0.9286	1.3826	0.0004
1	1.3755	0.0004

System: 1,1,1-trichloroethane + butanone; phases: Liquid
Fixed: Pressure, kPa = 101.325
Fixed: Temperature, K = 298.15
Property: Mass density, kg/m3 (Liquid); method: Vibrating tube method
Mole fraction of butanone	Mass density, kg/m3	uncertainty
0	1331.3	0.19
0.0513	1306.73	0.19
0.1083	1279.02	0.18
0.1565	1255.29	0.19
0.2136	1226.75	0.2
0.3333	1165.73	0.23
0.4035	1129.28	0.25
0.5027	1076.95	0.29
0.6063	1021.21	0.24
0.6732	984.65	0.21
0.7621	935.43	0.18
0.8087	909.29	0.17
0.8664	876.68	0.16
0.9422	833.28	0.15
1	799.6	0.16

System: 1,1,1-trichloroethane + butanone; phases: Liquid
Fixed: Pressure, kPa = 101.325
Fixed: Temperature, K = 298.15
Property: Refractive index (Na D-line) (Liquid); method: Standard Abbe refractometry
Mole fraction of butanone	Refractive index (Na D-line)	uncertainty
0	1.435	0.0004
0.0513	1.432	0.0004
0.1083	1.4288	0.0004
0.1565	1.4262	0.0004
0.2136	1.423	0.0004
0.3333	1.4165	0.0004
0.4035	1.4123	0.0004
0.5027	1.4068	0.0004
0.6063	1.4002	0.0004
0.6732	1.3965	0.0004
0.7621	1.3905	0.0004
0.8087	1.3875	0.0004
0.8664	1.3844	0.0004
0.9422	1.379	0.0004
1	1.3755	0.0004

System: butanone + 1,1,2,2-tetrachloroethane; phases: Liquid
Fixed: Pressure, kPa = 101.325
Fixed: Temperature, K = 298.15
Property: Mass density, kg/m3 (Liquid); method: Vibrating tube method
Mole fraction of butanone	Mass density, kg/m3	uncertainty
0	1587.6	0.44
0.0509	1556.39	0.42
0.1233	1510.01	0.39
0.2019	1456.97	0.37
0.3008	1386.79	0.37
0.4106	1305.41	0.4
0.5239	1217.25	0.43
0.6503	1113.68	0.33
0.7528	1025.62	0.25
0.8518	937.86	0.19
0.9313	864.58	0.16
1	799.6	0.16

System: butanone + 1,1,2,2-tetrachloroethane; phases: Liquid
Fixed: Pressure, kPa = 101.325
Fixed: Temperature, K = 298.15
Property: Refractive index (Na D-line) (Liquid); method: Standard Abbe refractometry
Mole fraction of butanone	Refractive index (Na D-line)	uncertainty
0	1.4917	0.0004
0.0509	1.4871	0.0004
0.1233	1.4805	0.0004
0.2019	1.4729	0.0004
0.3008	1.4631	0.0004
0.4106	1.4516	0.0004
0.5239	1.4395	0.0004
0.6503	1.4245	0.0004
0.7528	1.4111	0.0004
0.8518	1.3976	0.0004
0.9313	1.3862	0.0004
1	1.3755	0.0004
