Measured thermophysical data. Measurement and thermodynamic modeling of ternary (liquid + liquid) equilibrium for extraction of o-cresol, m-cresol or p-cresol from aqueous solution with 2-pentanone
Source: J. Chem. Thermodyn., 2017, 10.1016/j.jct.2016.09.034
Compound 1: 2-methylphenol, C7H8O, InChI=1S/C7H8O/c1-6-4-2-3-5-7(6)8/h2-5,8H,1H3, purity 99.5%
Compound 2: 3-methylphenol, C7H8O, InChI=1S/C7H8O/c1-6-3-2-4-7(8)5-6/h2-5,8H,1H3, purity 99.5%
Compound 3: 4-methylphenol, C7H8O, InChI=1S/C7H8O/c1-6-2-4-7(8)5-3-6/h2-5,8H,1H3, purity 99%
Compound 4: pentan-2-one, C5H10O, InChI=1S/C5H10O/c1-3-4-5(2)6/h3-4H2,1-2H3, purity 99%
Compound 5: water, H2O, InChI=1S/H2O/h1H2

System: 2-methylphenol + pentan-2-one + water; phases: Liquid mixture 2, Liquid mixture 1
Fixed: Pressure, kPa = 101.3
Property: Mass fraction of 2-methylphenol (Liquid mixture 2); method: Chromatography
Property: Mass fraction of 2-methylphenol (Liquid mixture 1); method: Chromatography
Property: Mass fraction of pentan-2-one (Liquid mixture 1); method: Chromatography
Temperature, K	Mass fraction of pentan-2-one	Mass fraction of 2-methylphenol	uncertainty	Mass fraction of 2-methylphenol	uncertainty	Mass fraction of pentan-2-one	uncertainty
298.15	0.8791	0.0817	0.0079	0.00023	0.00014	0.03985	
298.15	0.7911	0.1634	0.008	0.0005	0.00014	0.03268	
298.15	0.71	0.2387	0.0081	0.00082	0.00015	0.02771	
298.15	0.6438	0.2997	0.0082	0.00128	0.00016	0.02412	
298.15	0.595	0.3449	0.0083	0.00182	0.00017	0.02151	
298.15	0.5584	0.3791	0.0083	0.00231	0.00021	0.01893	
298.15	0.5049	0.4282	0.0084	0.00325	0.00026	0.01667	
298.15	0.9668	0		0		0.05467	
298.15	0	0.8619	0.0051	0.02839	0.00025	0	
323.15	0.8696	0.083	0.008	0.00028	0.00014	0.02879	
323.15	0.7873	0.1595	0.008	0.00058	0.00015	0.02354	
323.15	0.7067	0.2348	0.008	0.00105	0.00017	0.02027	
323.15	0.6412	0.2939	0.0081	0.00162	0.00024	0.01815	
323.15	0.5853	0.3458	0.0083	0.00235	0.00021	0.01676	
323.15	0.5496	0.3786	0.0083	0.00291	0.00023	0.01403	
323.15	0.4969	0.4271	0.0084	0.00413	0.00029	0.01149	
323.15	0.9581	0		0		0.04203	
323.15	0	0.8498	0.0051	0.03196	0.00027	0	

System: pentan-2-one + 3-methylphenol + water; phases: Liquid mixture 2, Liquid mixture 1
Fixed: Pressure, kPa = 101.3
Property: Mass fraction of 3-methylphenol (Liquid mixture 2); method: Chromatography
Property: Mass fraction of 3-methylphenol (Liquid mixture 1); method: Chromatography
Property: Mass fraction of pentan-2-one (Liquid mixture 1); method: Chromatography
Temperature, K	Mass fraction of pentan-2-one	Mass fraction of 3-methylphenol	uncertainty	Mass fraction of 3-methylphenol	uncertainty	Mass fraction of pentan-2-one	uncertainty
298.15	0.8659	0.0941	0.008	0.00026	0.00014	0.0391	
298.15	0.7788	0.1752	0.008	0.00059	0.00014	0.03295	
298.15	0.7096	0.2392	0.0081	0.00096	0.00015	0.02827	
298.15	0.665	0.2806	0.0081	0.00126	0.00016	0.02558	
298.15	0.6102	0.3311	0.0082	0.00183	0.00017	0.02205	
298.15	0.559	0.3788	0.0084	0.00246	0.00019	0.01863	
298.15	0.5196	0.416	0.0085	0.00327	0.00024	0.01639	
298.15	0.9668	0		0		0.05467	
298.15	0	0.8647	0.0051	0.02372	0.00022	0	
323.15	0.8634	0.0872	0.0079	0.00033	0.00014	0.02975	
323.15	0.7835	0.162	0.008	0.00067	0.00015	0.02488	
323.15	0.7084	0.2315	0.008	0.00111	0.00016	0.02165	
323.15	0.6568	0.2785	0.0081	0.00159	0.00017	0.01887	
323.15	0.6239	0.3089	0.0082	0.00202	0.00023	0.01715	
323.15	0.5559	0.3718	0.0083	0.00307	0.00029	0.01457	
323.15	0.4908	0.4323	0.0085	0.00437	0.00032	0.01222	
323.15	0.9581	0		0		0.04203	
323.15	0	0.8441	0.0051	0.0272	0.00024	0	

System: 4-methylphenol + pentan-2-one + water; phases: Liquid mixture 2, Liquid mixture 1
Fixed: Pressure, kPa = 101.3
Property: Mass fraction of 4-methylphenol (Liquid mixture 2); method: Chromatography
Property: Mass fraction of 4-methylphenol (Liquid mixture 1); method: Chromatography
Property: Mass fraction of pentan-2-one (Liquid mixture 1); method: Chromatography
Temperature, K	Mass fraction of pentan-2-one	Mass fraction of 4-methylphenol	uncertainty	Mass fraction of 4-methylphenol	uncertainty	Mass fraction of pentan-2-one	uncertainty
298.15	0.8619	0.0977	0.0079	0.0003	0.00014	0.03958	
298.15	0.7787	0.1745	0.008	0.00063	0.00014	0.03142	
298.15	0.7067	0.2408	0.008	0.00098	0.00015	0.02617	
298.15	0.6502	0.2922	0.0081	0.0014	0.00015	0.02263	
298.15	0.6003	0.3381	0.0083	0.00179	0.00018	0.01973	
298.15	0.547	0.3878	0.0084	0.00233	0.0002	0.01828	
298.15	0.4982	0.4332	0.0085	0.00298	0.00018	0.01532	
298.15	0.9668	0		0		0.05467	
298.15	0	0.8465	0.0051	0.01955	0.0002	0	
323.15	0.8589	0.0914	0.0079	0.00036	0.00014	0.02871	
323.15	0.7719	0.1715	0.0079	0.00073	0.00015	0.02393	
323.15	0.6996	0.2376	0.008	0.00118	0.00016	0.01975	
323.15	0.6297	0.3019	0.0082	0.00169	0.0002	0.01709	
323.15	0.563	0.3634	0.0083	0.00237	0.00022	0.01532	
323.15	0.4992	0.4226	0.0084	0.00315	0.0002	0.01266	
323.15	0.4646	0.4536	0.0084	0.00371	0.00019	0.01031	
323.15	0.9581	0		0		0.04203	
323.15	0	0.8247	0.0052	0.02489	0.00023	0	

System: pentan-2-one + water; phases: Liquid mixture 2, Liquid mixture 1
Fixed: Pressure, kPa = 101.3
Property: Mass fraction of pentan-2-one (Liquid mixture 2); method: Chromatography
Temperature, K	Mass fraction of pentan-2-one	uncertainty
323.15	0.9581	0.0066
298.15	0.9668	0.0066

System: pentan-2-one + water; phases: Liquid mixture 1, Liquid mixture 2
Fixed: Pressure, kPa = 101.3
Property: Mass fraction of pentan-2-one (Liquid mixture 1); method: Chromatography
Temperature, K	Mass fraction of pentan-2-one	uncertainty
323.15	0.04203	0.00061
298.15	0.05467	0.00066

System: 2-methylphenol + water; phases: Liquid mixture 2, Liquid mixture 1
Fixed: Pressure, kPa = 101.3
Property: Mass fraction of 2-methylphenol (Liquid mixture 2); method: Chromatography
Temperature, K	Mass fraction of 2-methylphenol	uncertainty
323.15	0.8498	0.0051
298.15	0.8619	0.0051

System: 2-methylphenol + water; phases: Liquid mixture 1, Liquid mixture 2
Fixed: Pressure, kPa = 101.3
Property: Mass fraction of 2-methylphenol (Liquid mixture 1); method: Chromatography
Temperature, K	Mass fraction of 2-methylphenol	uncertainty
323.15	0.03196	0.00027
298.15	0.02839	0.00025

System: 3-methylphenol + water; phases: Liquid mixture 2, Liquid mixture 1
Fixed: Pressure, kPa = 101.3
Property: Mass fraction of 3-methylphenol (Liquid mixture 2); method: Chromatography
Temperature, K	Mass fraction of 3-methylphenol	uncertainty
323.15	0.8441	0.0051
298.15	0.8647	0.0051

System: 3-methylphenol + water; phases: Liquid mixture 1, Liquid mixture 2
Fixed: Pressure, kPa = 101.3
Property: Mass fraction of 3-methylphenol (Liquid mixture 1); method: Chromatography
Temperature, K	Mass fraction of 3-methylphenol	uncertainty
323.15	0.0272	0.00024
298.15	0.02372	0.00022

System: 4-methylphenol + water; phases: Liquid mixture 2, Liquid mixture 1
Fixed: Pressure, kPa = 101.3
Property: Mass fraction of 4-methylphenol (Liquid mixture 2); method: Chromatography
Temperature, K	Mass fraction of 4-methylphenol	uncertainty
323.15	0.8247	0.0052
298.15	0.8465	0.0051

System: 4-methylphenol + water; phases: Liquid mixture 1, Liquid mixture 2
Fixed: Pressure, kPa = 101.3
Property: Mass fraction of 4-methylphenol (Liquid mixture 1); method: Chromatography
Temperature, K	Mass fraction of 4-methylphenol	uncertainty
323.15	0.02489	0.00023
298.15	0.01955	0.0002
