Measured thermophysical data. Phase equilibria in Mg(NO3)2-Ln(NO3)3 (Ln = Nd, Sm, Eu, Tb)-HNO3 (~20%)-H2O systems at 298.15 K and thermodynamic properties of Mg3Ln2(NO3)12*24H2O (Ln = Nd, Sm)
Source: J. Chem. Thermodyn., 2019, 10.1016/j.jct.2019.05.001
Compound 1: neodymium(III) nitrate, N3NdO9, InChI=1S/3NO3.Nd/c3*2-1(3)4;/q3*-1;+3, purity 99.9%
Compound 2: samarium(III) nitrate, N3O9Sm, InChI=1S/3NO3.Sm/c3*2-1(3)4;/q3*-1;+3, purity 99.9%
Compound 3: europium (III) nitrate, EuN3O9, InChI=1S/Eu.3NO3/c;3*2-1(3)4/q+3;3*-1, purity 99.9%
Compound 4: terbium (III) nitrate, N3O9Tb, InChI=1S/3NO3.Tb/c3*2-1(3)4;/q3*-1;+3, purity 99.9%
Compound 5: nitric acid, HNO3, InChI=1S/HNO3/c2-1(3)4/h(H,2,3,4), purity 98%
Compound 6: water, H2O, InChI=1S/H2O/h1H2
Compound 7: trimagnesium dineodymium(III) nitrate tetracosahydrate, H48Mg3N12Nd2O60, InChI=1S/3Mg.12NO3.2Nd.24H2O/c;;;12*2-1(3)4;;;;;;;;;;;;;;;;;;;;;;;;;;/h;;;;;;;;;;;;;;;;;24*1H2/q3*+2;12*-1;2*+3;;;;;;;;;;;;;;;;;;;;;;;;
Compound 8: trimagnesium disamarium(III) nitrate tetracosahydrate, H48Mg3N12O60Sm2, InChI=1S/3Mg.12NO3.24H2O.2Sm/c;;;12*2-1(3)4;;;;;;;;;;;;;;;;;;;;;;;;;;/h;;;;;;;;;;;;;;;24*1H2;;/q3*+2;12*-1;;;;;;;;;;;;;;;;;;;;;;;;;2*+3

System: trimagnesium dineodymium(III) nitrate tetracosahydrate; phases: Crystal
Property: Mass density, kg/m3 (Crystal); method: X-ray diffraction
Temperature, K	Pressure, kPa	Mass density, kg/m3	uncertainty
296.2	101.325	4253.2	5.3

System: trimagnesium disamarium(III) nitrate tetracosahydrate; phases: Crystal
Property: Mass density, kg/m3 (Crystal); method: X-ray diffraction
Temperature, K	Pressure, kPa	Mass density, kg/m3	uncertainty
296.2	101.325	4120.1	3.2

System: neodymium(III) nitrate + nitric acid + water; phases: Liquid, Crystal of intercomponent compound 1
Property: Mass fraction of neodymium(III) nitrate (Liquid); method: Titration method
Mass fraction of nitric acid	Temperature, K	Pressure, kPa	Mass fraction of neodymium(III) nitrate	uncertainty
0.2109	298.15	100	0.3933	0.0026

System: samarium(III) nitrate + nitric acid + water; phases: Liquid, Crystal of intercomponent compound 1
Property: Mass fraction of samarium(III) nitrate (Liquid); method: Titration method
Mass fraction of nitric acid	Temperature, K	Pressure, kPa	Mass fraction of samarium(III) nitrate	uncertainty
0.2071	298.15	100	0.3687	0.0026

System: europium (III) nitrate + nitric acid + water; phases: Liquid, Crystal of intercomponent compound 1
Property: Mass fraction of europium (III) nitrate (Liquid); method: Titration method
Mass fraction of nitric acid	Temperature, K	Pressure, kPa	Mass fraction of europium (III) nitrate	uncertainty
0.2046	298.15	100	0.3674	0.0026

System: terbium (III) nitrate + nitric acid + water; phases: Liquid, Crystal of intercomponent compound 1
Property: Mass fraction of terbium (III) nitrate (Liquid); method: Titration method
Mass fraction of nitric acid	Temperature, K	Pressure, kPa	Mass fraction of terbium (III) nitrate	uncertainty
0.1971	298.15	100	0.398	0.0026

System: water + trimagnesium dineodymium(III) nitrate tetracosahydrate; phases: Liquid
Property: Molar enthalpy of solution, kJ/mol (Liquid); method: Calvet calorimetry
Mole fraction of trimagnesium dineodymium(III) nitrate tetracosahydrate	Temperature, K	Pressure, kPa	Molar enthalpy of solution, kJ/mol	uncertainty
0	298.15	100	101.26	1.05

System: water + trimagnesium disamarium(III) nitrate tetracosahydrate; phases: Liquid
Property: Molar enthalpy of solution, kJ/mol (Liquid); method: Calvet calorimetry
Mole fraction of trimagnesium disamarium(III) nitrate tetracosahydrate	Temperature, K	Pressure, kPa	Molar enthalpy of solution, kJ/mol	uncertainty
0	298.15	100	80.27	0.99
