Measured thermophysical data. Excess molar enthalpies of ternary mixtures (1-hexene + tetrahydrofuran + 2,2-dimethylbutane or 2,3-dimethylbutane) at the temperature 298.15 K
Source: J. Chem. Thermodyn., 2011, 10.1016/j.jct.2010.10.002
Compound 1: hex-1-ene, C6H12, InChI=1S/C6H12/c1-3-5-6-4-2/h3H,1,4-6H2,2H3
Compound 2: tetrahydrofuran, C4H8O, InChI=1S/C4H8O/c1-2-4-5-3-1/h1-4H2, purity 99.9%
Compound 3: 2,2-dimethylbutane, C6H14, InChI=1S/C6H14/c1-5-6(2,3)4/h5H2,1-4H3
Compound 4: 2,3-dimethylbutane, C6H14, InChI=1S/C6H14/c1-5(2)6(3)4/h5-6H,1-4H3

System: 2,2-dimethylbutane + tetrahydrofuran; phases: Liquid
Fixed: Temperature, K = 298.15
Fixed: Pressure, kPa = 101
Property: Excess molar enthalpy (molar enthalpy of mixing), kJ/mol (Liquid); method: Flow calorimetry
Mole fraction of tetrahydrofuran	Excess molar enthalpy (molar enthalpy of mixing), kJ/mol	uncertainty
0.05	0.1284	0.003
0.1	0.2404	0.004
0.15	0.3443	0.005
0.2	0.4315	0.0059
0.2505	0.5077	0.0068
0.2999	0.5684	0.0075
0.3498	0.6194	0.0081
0.4	0.6558	0.0085
0.45	0.6754	0.0087
0.5001	0.685	0.0088
0.5002	0.6847	0.0088
0.55	0.6795	0.0088
0.6003	0.6602	0.0085
0.6499	0.6281	0.0082
0.7	0.5842	0.0077
0.75	0.525	0.007
0.8002	0.4484	0.0062
0.8501	0.3599	0.0052
0.9	0.2553	0.0042
0.95	0.1364	0.0032

System: 2,2-dimethylbutane + tetrahydrofuran; phases: Liquid
Fixed: Temperature, K = 298.15
Fixed: Pressure, kPa = 101
Property: Excess molar enthalpy (molar enthalpy of mixing), kJ/mol (Liquid); method: Flow calorimetry
Amount ratio of solute to solvent of tetrahydrofuran	Excess molar enthalpy (molar enthalpy of mixing), kJ/mol	uncertainty
0.333	0.5072	0.0066
1.0006	0.6847	0.0088
2.9994	0.5234	0.0068

System: 2,3-dimethylbutane + tetrahydrofuran; phases: Liquid
Fixed: Temperature, K = 298.15
Fixed: Pressure, kPa = 101
Property: Excess molar enthalpy (molar enthalpy of mixing), kJ/mol (Liquid); method: Flow calorimetry
Mole fraction of tetrahydrofuran	Excess molar enthalpy (molar enthalpy of mixing), kJ/mol	uncertainty
0.05	0.1267	0.0031
0.0999	0.2417	0.004
0.15	0.3433	0.005
0.2	0.4316	0.006
0.25	0.5071	0.0068
0.3	0.5667	0.0075
0.35	0.6147	0.008
0.4	0.6481	0.0084
0.4499	0.6695	0.0086
0.5002	0.6779	0.0087
0.5002	0.678	0.0087
0.5502	0.6712	0.0087
0.6	0.6521	0.0084
0.6502	0.619	0.008
0.6999	0.5763	0.0076
0.75	0.5166	0.0069
0.7999	0.445	0.0061
0.85	0.3569	0.0052
0.9	0.2557	0.0042
0.95	0.1371	0.0032

System: 2,3-dimethylbutane + tetrahydrofuran; phases: Liquid
Fixed: Temperature, K = 298.15
Fixed: Pressure, kPa = 101
Property: Excess molar enthalpy (molar enthalpy of mixing), kJ/mol (Liquid); method: Flow calorimetry
Amount ratio of solute to solvent of tetrahydrofuran	Excess molar enthalpy (molar enthalpy of mixing), kJ/mol	uncertainty
0.3331	0.5108	0.0067
0.9995	0.6769	0.0087
3.0002	0.5121	0.0067

System: 2,2-dimethylbutane + tetrahydrofuran + hex-1-ene; phases: Liquid
Fixed: Temperature, K = 298.15
Fixed: Pressure, kPa = 101
Property: Excess molar enthalpy (molar enthalpy of mixing), kJ/mol (Liquid); method: Flow calorimetry
Mole fraction of hex-1-ene	Solvent: Amount ratio of component to other component of binary solvent of tetrahydrofuran	Excess molar enthalpy (molar enthalpy of mixing), kJ/mol	uncertainty
0.05	0.333	0.0032	0.0008
0.05	1.0006	0.0098	0.0009
0.05	2.9994	0.0302	0.0011
0.1	0.333	0.0061	0.0008
0.1	1.0006	0.0192	0.0009
0.1	2.9994	0.0568	0.0013
0.1498	2.9994	0.0809	0.0016
0.1501	0.333	0.0091	0.0009
0.1501	1.0006	0.0272	0.001
0.1999	2.9994	0.1004	0.0018
0.2	1.0006	0.0337	0.001
0.2002	0.333	0.0114	0.0009
0.25	2.9994	0.1187	0.002
0.2501	1.0006	0.04	0.0011
0.2502	0.333	0.0135	0.0009
0.2998	2.9994	0.1329	0.0021
0.2999	0.333	0.0156	0.0009
0.3002	1.0006	0.0451	0.0011
0.3498	0.333	0.0171	0.0009
0.35	1.0006	0.0491	0.0012
0.3502	2.9994	0.1463	0.0023
0.3999	0.333	0.018	0.0009
0.3999	2.9994	0.1563	0.0024
0.4001	1.0006	0.0524	0.0012
0.4497	0.333	0.0187	0.0009
0.4499	2.9994	0.1617	0.0025
0.4504	1.0006	0.0546	0.0012
0.4997	0.333	0.0187	0.0009
0.4997	0.333	0.0189	0.0009
0.4998	1.0006	0.0551	0.0012
0.4998	2.9994	0.1645	0.0025
0.4998	2.9994	0.1646	0.0025
0.4999	1.0006	0.0553	0.0012
0.5499	2.9994	0.1643	0.0025
0.55	0.333	0.0186	0.0009
0.5501	1.0006	0.055	0.0012
0.5997	2.9994	0.1612	0.0025
0.5999	0.333	0.018	0.0009
0.6	1.0006	0.0535	0.0012
0.65	0.333	0.0172	0.0009
0.6501	1.0006	0.0515	0.0012
0.6501	2.9994	0.154	0.0024
0.6998	0.333	0.0158	0.0009
0.6998	1.0006	0.0477	0.0012
0.7002	2.9994	0.1434	0.0023
0.7499	1.0006	0.0425	0.0011
0.7499	2.9994	0.1305	0.0021
0.7504	0.333	0.0141	0.0009
0.8	0.333	0.0116	0.0009
0.8	2.9994	0.1113	0.0019
0.8002	1.0006	0.0368	0.0011
0.85	0.333	0.0093	0.0009
0.85	1.0006	0.0296	0.001
0.85	2.9994	0.0892	0.0017
0.9	1.0006	0.0218	0.001
0.9	2.9994	0.0659	0.0015
0.9001	0.333	0.0065	0.0008
0.95	0.333	0.0035	0.0008
0.95	1.0006	0.0113	0.0009
0.95	2.9994	0.0343	0.0012

System: 2,3-dimethylbutane + tetrahydrofuran + hex-1-ene; phases: Liquid
Fixed: Temperature, K = 298.15
Fixed: Pressure, kPa = 101
Property: Excess molar enthalpy (molar enthalpy of mixing), kJ/mol (Liquid); method: Flow calorimetry
Mole fraction of hex-1-ene	Solvent: Amount ratio of component to other component of binary solvent of tetrahydrofuran	Excess molar enthalpy (molar enthalpy of mixing), kJ/mol	uncertainty
0.05	0.3331	0.0017	0.0008
0.05	0.9995	0.0084	0.0009
0.05	3.0002	0.0289	0.0011
0.1	0.3331	0.0034	0.0008
0.1	0.9995	0.0161	0.0009
0.1	3.0002	0.055	0.0013
0.1499	3.0002	0.078	0.0015
0.15	0.3331	0.0047	0.0008
0.1503	0.9995	0.023	0.001
0.1999	3.0002	0.0995	0.0018
0.2001	0.9995	0.0294	0.001
0.2002	0.3331	0.006	0.0008
0.2499	0.3331	0.0068	0.0008
0.2501	3.0002	0.1171	0.002
0.2502	0.9995	0.0345	0.001
0.2998	0.3331	0.0077	0.0008
0.3	3.0002	0.1309	0.0021
0.3001	0.9995	0.0384	0.0011
0.35	3.0002	0.1429	0.0022
0.3501	0.3331	0.0085	0.0008
0.3501	0.9995	0.0419	0.0011
0.4001	0.3331	0.009	0.0008
0.4001	0.9995	0.0447	0.0011
0.4002	3.0002	0.1516	0.0023
0.4497	3.0002	0.1571	0.0024
0.4498	0.3331	0.0093	0.0009
0.4504	0.9995	0.0463	0.0011
0.4998	0.3331	0.0094	0.0009
0.4998	0.3331	0.0094	0.0009
0.4999	0.9995	0.0471	0.0011
0.4999	0.9995	0.0471	0.0011
0.5001	3.0002	0.1612	0.0025
0.5002	3.0002	0.1618	0.0025
0.5498	3.0002	0.1608	0.0024
0.55	0.3331	0.0093	0.0009
0.5502	0.9995	0.0467	0.0011
0.5996	3.0002	0.1572	0.0024
0.6	0.3331	0.009	0.0008
0.6002	0.9995	0.0454	0.0011
0.6498	0.3331	0.0086	0.0008
0.6498	0.9995	0.0431	0.0011
0.6501	3.0002	0.1497	0.0023
0.6999	0.3331	0.0078	0.0008
0.6999	0.9995	0.04	0.0011
0.7005	3.0002	0.1396	0.0022
0.7498	0.9995	0.0364	0.0011
0.7501	3.0002	0.1259	0.0021
0.7502	0.3331	0.007	0.0008
0.8	0.9995	0.0312	0.001
0.8001	3.0002	0.1069	0.0019
0.8002	0.3331	0.0059	0.0008
0.8499	0.9995	0.0249	0.001
0.85	3.0002	0.0866	0.0016
0.8501	0.3331	0.0046	0.0008
0.9	0.3331	0.0032	0.0008
0.9	0.9995	0.0182	0.0009
0.9	3.0002	0.0622	0.0014
0.95	0.3331	0.0016	0.0008
0.95	0.9995	0.0096	0.0009
0.95	3.0002	0.0329	0.0012
