Measured thermophysical data. The heat capacities and thermodynamic functions of some derivatives of ferrocene
Source: J. Chem. Thermodyn., 2008, 10.1016/j.jct.2007.12.003
Compound 1: benzoylferrocene, C17H14FeO, InChI=1S/C12H9O.C5H5.Fe/c13-12(11-8-4-5-9-11)10-6-2-1-3-7-10;1-2-4-5-3-1;/h1-9H;1-5H;/q2*-1;+2
Compound 2: benzylferrocene, C17H16Fe, InChI=1S/C12H11.C5H5.Fe/c1-2-6-11(7-3-1)10-12-8-4-5-9-12;1-2-4-5-3-1;/h1-9H,10H2;1-5H;/q2*-1;+2

System: benzoylferrocene; phases: Crystal, Liquid, Air at 1 atmosphere
Property: Molar enthalpy of transition or fusion, kJ/mol (Crystal); method: DSC
Molar enthalpy of transition or fusion, kJ/mol	uncertainty
29.9	0.8

System: benzoylferrocene; phases: Crystal, Liquid, Air at 1 atmosphere
Property: Normal melting temperature, K (Crystal); method: DTA
Normal melting temperature, K	uncertainty
380.7	0.5

System: benzoylferrocene; phases: Crystal
Fixed: Pressure, kPa = 101.325
Property: Molar heat capacity at constant pressure, J/K/mol (Crystal); method: Vacuum adiabatic calorimetry
Temperature, K	Molar heat capacity at constant pressure, J/K/mol	uncertainty
5	0.6403	0.0184
10	5.462	0.054
15	14.18	0.11
20	24.17	0.15
25	34.05	0.16
30	44.05	0.13
35	53.69	0.15
40	62.23	0.17
45	69.72	0.18
50	76.78	0.19
55	82.75	0.21
60	87.71	0.22
65	92.13	0.22
70	96.62	0.23
75	101.7	0.2
80	107.4	0.3
90	118.9	0.3
100	127.2	0.3
110	134	0.3
120	140.4	0.3
130	146.9	0.4
140	153.9	0.4
150	161.4	0.4
160	169.5	0.4
170	178.2	0.4
180	187.3	0.4
190	197	0.4
200	207.1	0.4
210	217.5	0.4
220	228.4	0.4
230	239.4	0.4
240	250.6	0.5
250	261.7	0.5
260	272.7	0.5
270	283.3	0.5
280	295	0.5
290	305.4	0.5
298.15	313.6	0.5
300	315.5	0.5
310	325.5	0.5
320	335.8	0.5
330	346.8	0.5
340	358.6	0.6
350	371.7	0.6
360	386.4	0.6

System: benzoylferrocene; phases: Crystal
Fixed: Pressure, kPa = 101.325
Property: Molar heat capacity at constant pressure, J/K/mol (Crystal); method: VADIAC:UFactor:4
Temperature, K	Molar heat capacity at constant pressure, J/K/mol	uncertainty
6.77	1.7395	0.0994
6.91	1.9065	0.1052
7.05	2.0479	0.1096
7.2	2.1991	0.1144
7.34	2.2367	0.1154
7.49	2.3415	0.1187
7.63	2.4245	0.1212
7.77	2.564	0.1254
7.92	2.4109	0.1202
8.05	3.0646	0.1413
8.2	3.0577	0.1406
8.34	3.2829	0.1477
8.49	3.3368	0.1491
8.63	3.6366	0.1583
8.78	3.8921	0.1661
8.92	3.7829	0.1621
9.07	4.3589	0.1802
9.21	4.3658	0.1797
9.36	4.2383	0.1751
9.5	4.8344	0.1934
9.64	5.0982	0.2011
9.79	5.2232	0.2044
9.93	5.417	0.2098
10.13	5.6117	0.2149
10.37	5.868	0.2217
10.61	6.2718	0.2327
10.86	6.5802	0.2408
11.1	7.0387	0.2533
11.34	7.5001	0.2656
11.59	7.8509	0.2745
11.83	8.0912	0.2799
12.07	8.6038	0.2933
12.31	9.2076	0.3091
12.56	9.428	0.3134
12.8	9.9271	0.3258
13.04	10.374	0.336
13.29	10.858	0.348
13.53	11.393	0.361
13.78	11.855	0.371
14.02	12.344	0.382
14.27	12.721	0.39
14.51	13.328	0.403
14.76	13.734	0.411
15.01	14.263	0.423
15.26	14.645	0.43
15.51	15.148	0.44
15.76	15.719	0.451
16.01	16.134	0.458
16.26	16.577	0.466
16.51	17.141	0.477
16.76	17.646	0.486
17.01	18.1	0.493
17.25	18.703	0.505
17.51	19.19	0.512
17.76	19.743	0.522
18.01	20.167	0.527
18.26	20.673	0.535
18.51	21.214	0.543
18.76	21.712	0.55
19.02	22.212	0.557
19.27	22.772	0.565
19.52	23.122	0.568
19.78	23.689	0.576
20.03	24.393	0.586
20.73	25.606	0.597
21.83	27.742	0.617
22.94	29.924	0.633
24.06	32.098	0.645
25.18	34.541	0.657
26.3	36.752	0.66
27.44	38.874	0.657
28.58	41.116	0.651
29.73	43.464	0.642
30.88	45.794	0.527
32.03	48.128	0.545
33.19	50.336	0.563
34.35	52.543	0.581
35.51	54.646	0.597
36.67	56.614	0.613
37.84	58.532	0.628
39.01	60.614	0.645
40.18	62.53	0.66
41.36	64.517	0.676
42.53	66.34	0.691
43.71	68.197	0.706
44.89	69.852	0.719
46.08	71.462	0.732
47.26	72.935	0.744
48.45	74.263	0.754
49.63	75.618	0.765
50.82	76.868	0.775
52.01	78.417	0.787
53.2	80.186	0.802
54.39	82.108	0.817
55.59	83.806	0.831
56.78	85.061	0.84
57.98	83.838	0.831
59.19	83.175	0.825
60.39	82.266	0.818
61.59	84.524	0.837
62.78	89.333	0.875
63.98	90.396	0.883
65.18	91.586	0.893
66.38	92.771	0.902
67.58	93.931	0.912
68.78	95.182	0.922
69.99	96.461	0.932
71.19	97.686	0.942
72.39	99.027	0.952
73.6	100.3	0.96
74.8	101.73	0.97
76.01	103	0.98
77.21	104.36	0.99
78.42	105.73	1.01
79.63	106.99	1.02
80.22	107.84	1.02
80.84	108.31	1.03
81.26	108.36	1.03
82.05	109.65	1.04
82.31	111.85	1.06
83.26	110.92	1.05
83.35	112.88	1.06
84.4	112.23	1.06
84.46	112.26	1.06
85.44	114.23	1.07
85.67	113.6	1.07
86.48	115.07	1.08
87.51	116.27	1.09
88.55	117.08	1.1
89.59	118.22	1.11
90.63	119.22	1.28
91.67	120.98	1.28
92.7	121.75	1.29
93.74	121.46	1.29
94.78	123.29	1.29
95.81	124.03	1.3
96.84	125.23	1.3
97.88	125.75	1.3
98.91	127.32	1.31
99.95	127.09	1.31
100.98	128.34	1.31
102.01	128.53	1.31
103.04	129.18	1.32
104.08	129.88	1.32
105.11	130.75	1.32
106.14	131.39	1.33
107.17	132.64	1.33
108.2	132.97	1.33
109.23	133.27	1.33
110.26	134.32	1.34
111.29	134.29	1.34
112.31	135.57	1.34
113.34	136.13	1.34
114.36	136.83	1.35
115.39	137.49	1.35
116.42	138.08	1.35
117.44	138.99	1.36
118.47	138.79	1.36
119.49	139.79	1.36
120.52	140.54	1.36
121.54	141.43	1.37
122.56	142.12	1.37
123.58	143.61	1.37
124.61	143.65	1.37
125.63	143.13	1.37
126.65	145.42	1.38
127.67	144.58	1.38
128.68	145.84	1.38
129.7	146.45	1.39
130.72	147.25	1.39
131.73	148.01	1.39
132.75	148.59	1.39
133.77	149.55	1.4
134.79	149.74	1.4
135.8	150.77	1.4
136.82	151.09	1.4
137.83	152.27	1.41
138.84	154.05	1.42
139.86	153.46	1.41
140.87	155.19	1.42
141.89	154.13	1.42
142.9	156.26	1.43
143.91	157.91	1.43
144.91	157.74	1.43
145.92	158.41	1.43
146.93	158.69	1.43
147.94	159.96	1.44
148.95	161.43	1.45
149.95	161.86	1.45
150.96	161.55	1.45
151.97	162.86	1.45
152.98	163.36	1.45
153.98	164.61	1.46
154.98	166.21	1.46
156.99	167.38	1.47
158	167.9	1.47
159	169.31	1.48
160	170.35	1.48
160.99	169.48	1.48
161.99	170.25	1.48
162.99	171.44	1.49
163.98	172.7	1.49
164.98	174.6	1.5
165.98	174.47	1.5
166.98	174.56	1.5
169.95	177.48	1.51
170.94	178.64	1.51
171.93	180.39	1.52
172.93	181.04	1.52
173.92	182.22	1.53
174.91	183.48	1.53
175.9	184.34	1.54
176.87	184.58	1.54
177.86	185.28	1.54
178.85	185.78	1.54
179.84	187.19	1.55
180.83	188.15	1.55
181.81	188.94	1.56
182.8	188.96	1.56
183.78	190.09	1.56
184.77	191.25	1.57
185.75	192.41	1.57
186.73	194.08	1.58
187.72	195.23	1.58
188.7	195.64	1.58
189.68	197.13	1.59
190.66	197.8	1.59
191.64	198.27	1.59
192.59	199.7	1.6
193.57	200.16	1.6
194.55	202.23	1.61
195.52	202.54	1.61
196.5	203.86	1.62
197.47	204	1.62
198.45	205.39	1.62
199.42	206.22	1.62
200.39	207.53	1.63
201.61	208.73	1.63
203.09	210.07	1.64
204.56	211.68	1.65
206.03	213.64	1.65
207.5	215.19	1.66
208.96	216.81	1.67
210.43	217.96	1.67
211.85	219.97	1.68
213.31	220.9	1.68
214.77	222.91	1.69
216.23	223.91	1.7
217.69	224.97	1.7
219.14	227.42	1.71
220.59	228.99	1.72
222.04	231.44	1.73
223.49	232.48	1.73
224.94	233.79	1.74
226.39	235.57	1.74
227.83	237.36	1.75
229.27	239.67	1.76
230.71	240.88	1.76
232.15	240.94	1.76
233.58	242.27	1.77
234.95	244.11	1.78
236.37	246.58	1.79
237.8	247.28	1.79
239.22	250.21	1.8
240.65	251.89	1.81
242.07	253.31	1.81
243.49	253.18	1.81
246.31	257.92	1.83
247.72	258.93	1.84
249.13	261.19	1.84
250.54	262.73	1.85
251.94	262.95	1.85
254.74	267.83	1.87
256.13	268.51	1.87
257.44	270	1.88
258.83	271.44	1.89
260.22	272.85	1.89
261.6	275.21	1.9
262.98	275.55	1.9
264.36	277.1	1.91
265.74	278.22	1.91
267.11	280.5	1.92
268.48	281.9	1.93
269.85	283.11	1.93
271.22	284.5	1.94
272.58	286.12	1.94
273.93	288.02	1.95
275.29	288.57	1.95
276.64	290.56	1.96
277.99	292.59	1.97
279.21	293.41	1.97
280.55	295.36	1.98
281.89	296.69	1.99
283.23	298.35	1.99
284.56	299.41	2
285.89	301.12	2
287.21	302.91	2.01
288.53	304.54	2.02
289.85	305.73	2.02
291.16	307.44	2.03
292.47	309.37	2.04
295.08	311.69	2.05
296.38	311.65	2.05
297.67	314.28	2.06
298.96	315.6	2.06
300.09	315.93	2.06
301.37	317.81	2.07
302.59	318.48	2.07
303.81	319.97	2.08
305.02	320.55	2.08
306.23	321.93	2.09
307.43	323.4	2.09
308.62	324.34	2.1
309.82	324.98	2.1
311	326.49	2.11
312.18	327.29	2.11
313.35	328.34	2.11
314.52	329.89	2.12
315.68	330.86	2.12
316.84	331.79	2.13
317.99	333.31	2.13
318.84	333.61	2.13
319.99	335.61	2.14
321.12	336.94	2.15
322.25	337.85	2.15
323.37	338.46	2.15
324.49	339.72	2.16
325.6	341.22	2.16
326.7	342.67	2.17
327.8	343.85	2.18
328.89	345.02	2.18
329.98	346	2.18
331.06	347.6	2.19
332.13	348.77	2.2
333.2	349.96	2.2
334.26	351.59	2.21
335.31	353.3	2.21
335.99	353.1	2.21
337.03	354.98	2.22
338.06	356.24	2.23
339.09	357.65	2.23
340.11	360.41	2.24
341.12	360.92	2.24
342.13	361.64	2.25
343.13	364.14	2.26
344.12	364.42	2.26
345.11	365.83	2.26
346.09	367.19	2.27
347.06	368.53	2.27
348.03	369.29	2.28
348.99	370.88	2.28
349.94	372.29	2.29
350.89	372.8	2.29
351.37	374.06	2.3
352.3	375.79	2.3
353.23	376.1	2.3
354.15	377.26	2.31
355.06	378.59	2.31
355.96	380.04	2.32
356.86	381.57	2.33
357.75	382.01	2.33
358.63	383.42	2.33
359.5	384.56	2.34
360.37	386.6	2.35
361.23	387.18	2.35
362.08	389.49	2.36
362.92	390.64	2.36
363.76	392.1	2.37
364.59	393.55	2.37
364.86	393.79	2.38
365.68	396.05	2.38
366.48	398.31	2.39

System: benzoylferrocene; phases: Crystal
Fixed: Pressure, kPa = 101.325
Property: Molar enthalpy, kJ/mol (Crystal); method: Vacuum adiabatic calorimetry
Temperature, K	Molar enthalpy, kJ/mol	uncertainty
5	0.00062	6e-05
10	0.01421	0.00022
15	0.06191	0.00058
20	0.1577	0.0011
25	0.3033	0.0017
30	0.4985	0.0022
35	0.7433	0.0029
40	1.033	0.004
45	1.364	0.005
50	1.731	0.006
55	2.13	0.007
60	2.557	0.008
65	3.006	0.009
70	3.478	0.01
75	3.973	0.011
80	4.496	0.012
90	5.63	0.024
100	6.863	0.027
110	8.17	0.03
120	9.542	0.034
130	10.98	0.04
140	12.48	0.04
150	14.06	0.04
160	15.71	0.05
170	17.45	0.05
180	19.28	0.06
190	21.2	0.06
200	23.22	0.06
210	25.34	0.07
220	27.57	0.07
230	29.91	0.08
240	32.36	0.08
250	34.92	0.09
260	37.59	0.09
270	40.37	0.09
280	43.26	0.1
290	46.27	0.1
298.15	48.79	0.11
300	49.37	0.11
310	52.58	0.11
320	55.88	0.12
330	59.3	0.13
340	62.82	0.13
350	66.47	0.14
360	70.26	0.14

System: benzoylferrocene; phases: Crystal
Fixed: Pressure, kPa = 101.325
Property: Molar entropy, J/K/mol (Crystal); method: Vacuum adiabatic calorimetry
Temperature, K	Molar entropy, J/K/mol	uncertainty
5	0.1202	0.0169
10	1.799	0.036
15	5.546	0.071
20	10.99	0.11
25	17.45	0.13
30	24.54	0.13
35	32.06	0.16
40	39.8	0.18
45	47.58	0.2
50	55.3	0.23
55	62.91	0.25
60	70.33	0.27
65	77.52	0.29
70	84.51	0.31
75	91.35	0.33
80	98.09	0.35
90	111.4	0.5
100	124.4	0.5
110	136.9	0.5
120	148.8	0.5
130	160.3	0.5
140	171.4	0.6
150	182.3	0.6
160	193	0.6
170	203.5	0.6
180	214	0.6
190	224.3	0.6
200	234.7	0.7
210	245	0.7
220	255.4	0.7
230	265.8	0.7
240	276.2	0.7
250	286.7	0.7
260	297.2	0.7
270	307.7	0.8
280	318.2	0.8
290	328.7	0.8
298.15	337.3	0.8
300	339.2	0.8
310	349.8	0.8
320	360.2	0.8
330	370.7	0.9
340	381.3	0.9
350	391.9	0.9
360	402.5	0.9

System: benzylferrocene; phases: Crystal 3, Crystal 2, Gas
Property: Molar enthalpy of transition or fusion, kJ/mol (Crystal 3); method: Adiabatic calorimetry
Molar enthalpy of transition or fusion, kJ/mol	uncertainty
23.8	0.4

System: benzylferrocene; phases: Crystal 1, Liquid, Air at 1 atmosphere
Property: Molar enthalpy of transition or fusion, kJ/mol (Crystal 1); method: DSC
Molar enthalpy of transition or fusion, kJ/mol	uncertainty
26.8	0.8

System: benzylferrocene; phases: Crystal 1, Liquid, Air at 1 atmosphere
Property: Molar enthalpy of transition or fusion, kJ/mol (Crystal 1); method: Adiabatic calorimetry
Molar enthalpy of transition or fusion, kJ/mol	uncertainty
25.54	1.88

System: benzylferrocene; phases: Crystal 2, Crystal 1, Gas
Property: Molar enthalpy of transition or fusion, kJ/mol (Crystal 2); method: Adiabatic calorimetry
Molar enthalpy of transition or fusion, kJ/mol	uncertainty
46.1	0.8

System: benzylferrocene; phases: Crystal 1, Liquid, Gas
Property: Triple point temperature, K (Crystal 1); method: Adiabatic calorimetry
Triple point temperature, K	uncertainty
349.57	0.2

System: benzylferrocene; phases: Crystal 3, Crystal 2, Gas
Property: Triple point temperature, K (Crystal 3); method: Adiabatic calorimetry
Triple point temperature, K	uncertainty
44.3	0.4

System: benzylferrocene; phases: Crystal 2, Crystal 1, Gas
Property: Triple point temperature, K (Crystal 2); method: Adiabatic calorimetry
Triple point temperature, K	uncertainty
51.1	0.6

System: benzylferrocene; phases: Crystal 1, Liquid, Air at 1 atmosphere
Property: Normal melting temperature, K (Crystal 1); method: DTA
Normal melting temperature, K	uncertainty
349.9	0.4

System: benzylferrocene; phases: Crystal 3
Fixed: Pressure, kPa = 101.325
Property: Molar heat capacity at constant pressure, J/K/mol (Crystal 3); method: Vacuum adiabatic calorimetry
Temperature, K	Molar heat capacity at constant pressure, J/K/mol	uncertainty
10	5.933	0.06
15	16.39	0.12
20	26.64	0.16
25	36.2	0.17
30	47.26	0.14
35	58.64	0.16
40	68.69	0.18
44.3	77.47	0.2

System: benzylferrocene; phases: Crystal 2
Fixed: Pressure, kPa = 101.325
Property: Molar heat capacity at constant pressure, J/K/mol (Crystal 2); method: Vacuum adiabatic calorimetry
Temperature, K	Molar heat capacity at constant pressure, J/K/mol	uncertainty
44.3	78.11	0.2
45	79.77	0.2
50	91.99	0.23
51.1	94.65	0.23

System: benzylferrocene; phases: Crystal 1
Fixed: Pressure, kPa = 101.325
Property: Molar heat capacity at constant pressure, J/K/mol (Crystal 1); method: Vacuum adiabatic calorimetry
Temperature, K	Molar heat capacity at constant pressure, J/K/mol	uncertainty
51.1	79.31	0.2
55	85.11	0.21
60	87.88	0.22
65	86.77	0.21
70	87.11	0.21
75	91.34	0.22
80	98.69	0.24
90	107.5	0.3
100	114.5	0.3
110	121.3	0.3
120	128.2	0.3
130	135.6	0.3
140	143.5	0.3
150	152	0.4
160	160.9	0.4
170	170.2	0.4
180	179.4	0.4
190	189.7	0.4
200	199.9	0.4
210	210.1	0.4
220	220.8	0.4
230	232	0.4
240	243.7	0.4
250	255.9	0.5
260	268.3	0.5
270	280.6	0.5
280	292.6	0.5
290	304	0.5
298.15	312.6	0.5
300	314.5	0.5
310	324.1	0.5
320	332.7	0.5
330	341.5	0.5
340	350.4	0.6
349.36	358.6	0.6

System: benzylferrocene; phases: Liquid
Fixed: Pressure, kPa = 101.325
Property: Molar heat capacity at constant pressure, J/K/mol (Liquid); method: Vacuum adiabatic calorimetry
Temperature, K	Molar heat capacity at constant pressure, J/K/mol	uncertainty
349.36	429.9	0.6
350	430.1	0.6
360	434	0.6
370	435.4	0.6

System: benzylferrocene; phases: Crystal 3
Fixed: Pressure, kPa = 101.325
Property: Molar heat capacity at constant pressure, J/K/mol (Crystal 3); method: VADIAC:UFactor:4
Temperature, K	Molar heat capacity at constant pressure, J/K/mol	uncertainty
9.31	4.5704	0.1861
9.45	4.8055	0.1929
9.59	5.0098	0.1991
9.73	5.3544	0.2091
9.87	5.5123	0.2137
10.01	5.9696	0.2281
10.2	6.4863	0.2425
10.44	7.0528	0.2575
10.68	6.9148	0.2518
10.91	7.5113	0.2698
11.15	8.2397	0.2904
11.39	8.9948	0.3103
11.63	9.218	0.3148
11.87	9.8023	0.3304
12.11	10.272	0.342
12.35	10.842	0.357
12.59	11.506	0.373
12.83	11.892	0.382
13.07	12.439	0.395
13.32	12.97	0.407
13.56	13.388	0.416
13.8	13.871	0.427
14.05	14.222	0.434
14.29	14.942	0.451
14.53	15.602	0.465
14.78	16.084	0.475
15.02	16.706	0.488
15.26	16.805	0.487
15.51	17.432	0.5
15.75	18.028	0.512
16	18.55	0.521
16.24	18.981	0.528
16.49	19.149	0.528
16.73	19.617	0.537
16.98	20.547	0.556
17.22	21.114	0.565
17.47	21.462	0.569
17.72	22.132	0.581
17.97	22.688	0.589
18.21	23.156	0.595
18.46	23.644	0.602
18.71	24.094	0.607
18.96	24.64	0.615
19.2	25.261	0.624
19.45	25.582	0.626
19.7	26.314	0.637
19.95	26.904	0.644
20.64	27.653	0.644
21.72	29.671	0.66
22.8	31.695	0.672
23.89	33.809	0.682
24.98	36.303	0.694
26.08	38.858	0.703
27.19	40.78	0.696
28.31	43.195	0.692
29.43	45.782	0.686
30.55	48.45	0.548
31.68	51.322	0.571
32.81	53.986	0.592
33.95	56.509	0.612
35.09	58.813	0.631
36.24	60.993	0.648
37.39	63.318	0.667
38.54	65.739	0.686
39.7	67.988	0.704
40.85	70.514	0.725
42.01	73.465	0.749
43.17	78.601	0.79

System: benzylferrocene; phases: Crystal 2
Fixed: Pressure, kPa = 101.325
Property: Molar heat capacity at constant pressure, J/K/mol (Crystal 2); method: VADIAC:UFactor:4
Temperature, K	Molar heat capacity at constant pressure, J/K/mol	uncertainty
44.32	87.795	0.863
45.68	83.6	0.829
46.44	83.065	0.825
47.22	85.307	0.843
48	87.393	0.859
48.79	89.081	0.873
49.57	90.728	0.886
50.35	93.552	0.909

System: benzylferrocene; phases: Crystal 1
Fixed: Pressure, kPa = 101.325
Property: Molar heat capacity at constant pressure, J/K/mol (Crystal 1); method: VADIAC:UFactor:4
Temperature, K	Molar heat capacity at constant pressure, J/K/mol	uncertainty
52.72	81.8	0.815
53.53	82.983	0.824
54.32	83.829	0.831
55.11	85.363	0.843
55.9	86.49	0.852
56.69	86.703	0.854
57.48	87.433	0.859
58.27	87.741	0.862
59.07	87.881	0.863
59.86	87.888	0.863
60.66	87.795	0.862
61.45	87.637	0.861
62.24	87.441	0.86
63.04	87.068	0.857
63.83	87.335	0.859
64.63	86.738	0.854
65.42	86.705	0.854
66.22	86.737	0.854
67.02	86.427	0.851
67.82	86.737	0.854
68.61	86.625	0.853
69.41	86.396	0.851
70.21	86.914	0.855
71.2	88.516	0.868
72.4	89.024	0.872
73.6	89.225	0.874
74.8	91.475	0.892
76	91.94	0.896
77.2	94.566	0.917
78.4	96.402	0.931
79.6	97.747	0.942
80.8	99.981	0.96
81.82	101.6	0.97
82	101.86	0.97
83.52	102.94	0.98
84.72	103.89	0.99
85.92	104.4	1
87.13	105.2	1
88.33	106.04	1.01
89.53	107.23	1.02
90.74	108.17	1.23
91.94	109.01	1.24
93.15	109.77	1.24
94.35	110.73	1.24
95.56	111.3	1.25
97.98	113.59	1.25
99.19	113.79	1.26
100.4	114.62	1.26
101.6	115.28	1.26
102.81	116.09	1.26
104.01	117.13	1.27
105.21	117.94	1.27
106.42	119.05	1.28
107.62	119.57	1.28
108.83	120.22	1.28
110.03	121.09	1.28
111.23	122.58	1.29
112.44	123.26	1.29
113.65	123.69	1.29
114.85	124.07	1.3
116.05	125.13	1.3
117.26	126.24	1.3
118.47	126.96	1.31
119.67	127.84	1.31
120.88	128.66	1.31
122.08	129.72	1.32
123.29	130.58	1.32
124.5	131.59	1.33
125.7	132.38	1.33
126.91	133.28	1.33
128.12	134.68	1.34
129.33	135.27	1.34
130.53	136.19	1.34
131.74	136.93	1.35
132.95	137.69	1.35
134.15	138.66	1.35
135.36	139.79	1.36
136.57	140.69	1.36
137.78	141.74	1.37
138.98	142.79	1.37
140.19	143.64	1.37
141.4	144.59	1.38
142.6	144.81	1.38
143.81	146.38	1.39
145.02	148.01	1.39
146.23	149.37	1.4
147.43	149.8	1.4
148.64	150.93	1.4
149.85	152	1.41
151.05	152.62	1.41
152.26	153.61	1.41
153.47	154.36	1.42
154.67	155.89	1.42
155.88	157.31	1.43
157.08	155.87	1.42
158.28	159.05	1.44
159.49	160.04	1.44
160.69	161.51	1.45
161.9	163.31	1.45
163.1	163.8	1.46
164.31	165.05	1.46
165.51	165.68	1.46
166.71	167.2	1.47
167.92	168.32	1.47
169.12	169.24	1.48
171.51	171.59	1.49
172.71	173.6	1.49
173.92	174.2	1.5
175.11	175.01	1.5
176.31	176.1	1.5
177.51	176.4	1.51
178.71	178.12	1.51
179.9	179.37	1.52
181.1	180.51	1.52
182.3	181.23	1.52
183.5	182.75	1.53
184.7	183.58	1.53
185.89	184.46	1.54
187.08	186.58	1.55
188.27	188.81	1.56
189.47	189.77	1.56
190.66	191.04	1.56
191.86	191.81	1.57
193.05	193.07	1.57
194.23	194.14	1.58
195.42	195.11	1.58
196.61	196.28	1.59
197.8	197.74	1.59
199	198.47	1.59
201.36	197.63	1.59
202.53	201.49	1.61
203.7	203.97	1.62
204.87	204.7	1.62
206.04	206.06	1.62
208.37	203.39	1.61
209.53	210.19	1.64
210.7	211.04	1.64
211.87	212.01	1.65
213.01	214.17	1.66
214.18	213.46	1.65
215.34	214.77	1.66
216.51	217.28	1.67
217.68	217.97	1.67
218.85	219.53	1.68
220.01	220.62	1.68
221.18	221.62	1.69
222.35	223.28	1.69
223.51	225.05	1.7
224.68	226.12	1.7
226.99	225.27	1.7
228.15	230.03	1.72
229.31	231.45	1.73
230.47	233.07	1.73
231.61	234.01	1.74
232.77	235.3	1.74
233.93	236.49	1.75
235.09	237.93	1.75
236.25	239.32	1.76
237.42	240.64	1.76
240.87	245.32	1.78
242.03	246.06	1.78
243.18	246.69	1.79
244.34	248.62	1.79
245.49	250.69	1.8
246.65	251.9	1.81
247.81	253.57	1.81
250.05	255.96	1.82
251.2	257.38	1.83
252.35	259.4	1.84
253.51	260.11	1.84
254.66	261.24	1.85
255.81	263.05	1.85
256.96	264.44	1.86
258.11	265.64	1.86
259.26	266.79	1.87
260.41	269.42	1.88
262.69	267.26	1.87
263.83	272.22	1.89
264.98	272.95	1.89
266.12	274.97	1.9
268.35	277.56	1.91
269.49	280.3	1.92
270.63	280.49	1.92
272.9	284.75	1.94
274.05	285.66	1.94
275.18	286.85	1.95
276.32	289.13	1.96
277.45	290.43	1.96
278.59	291.56	1.97
279.72	292.18	1.97
280.86	293.87	1.98
281.99	294.87	1.98
283.12	296.5	1.99
284.26	297.53	1.99
285.39	298.61	1.99
286.48	300.12	2
287.61	301.63	2.01
288.64	301.66	2.01
289.77	303.32	2.01
290.9	304.71	2.02
292.03	306.13	2.02
293.16	308.21	2.03
294.3	309.31	2.04
296.56	312.19	2.05
297.69	312.23	2.05
298.82	312.75	2.05
299.95	314.99	2.06
301.49	315.29	2.06
303.54	318.09	2.07
305.58	319.57	2.08
307.61	321.5	2.09
309.64	323.75	2.1
311.67	325.87	2.1
313.69	326.74	2.11
315.71	328.27	2.11
317.73	331.22	2.12
319.74	333.14	2.13
321.75	335.01	2.14
323.75	335.66	2.14
325.75	338.43	2.15
327.06	337.98	2.15
327.75	340.26	2.16
328.12	339.29	2.16
329.18	340.62	2.16
330.24	341.41	2.17
331.29	342.68	2.17
332.34	345.62	2.18
333.38	345.95	2.18
334.42	347.41	2.19
335.46	350.78	2.2
336.49	353.12	2.21
337.52	355.22	2.22
338.55	357.31	2.23
339.57	361.18	2.25

System: benzylferrocene; phases: Liquid
Fixed: Pressure, kPa = 101.325
Property: Molar heat capacity at constant pressure, J/K/mol (Liquid); method: VADIAC:UFactor:4
Temperature, K	Molar heat capacity at constant pressure, J/K/mol	uncertainty
351	430.04	2.52
351.95	430.6	2.52
352.91	432.45	2.53
353.86	431.51	2.53
354.81	430.83	2.52
355.75	432.36	2.53
356.7	433	2.53
357.63	432.67	2.53
358.57	433.87	2.54
359.5	434.36	2.54
360.43	434	2.54
361.35	433.5	2.53
362.27	434.95	2.54
363.19	436	2.54
364.86	435.56	2.54
365.77	435.48	2.54
366.67	436.26	2.55
367.57	434.88	2.54
368.47	436.17	2.54
369.36	435	2.54
370.25	434.71	2.54
371.14	434.3	2.54
372.02	436.24	2.55

System: benzylferrocene; phases: Crystal 3
Fixed: Pressure, kPa = 101.325
Property: Molar enthalpy, kJ/mol (Crystal 3); method: Vacuum adiabatic calorimetry
Temperature, K	Molar enthalpy, kJ/mol	uncertainty
10	0.01942	0.00028
15	0.07506	0.00067
20	0.183	0.0013
25	0.34	0.0018
30	0.5478	0.0023
35	0.8134	0.0031
40	1.132	0.004
44.3	1.447	0.005

System: benzylferrocene; phases: Crystal 2
Fixed: Pressure, kPa = 101.325
Property: Molar enthalpy, kJ/mol (Crystal 2); method: Vacuum adiabatic calorimetry
Temperature, K	Molar enthalpy, kJ/mol	uncertainty
44.3	1.471	0.005
45	1.525	0.005
50	1.954	0.006
51.1	2.057	0.006

System: benzylferrocene; phases: Crystal 1
Fixed: Pressure, kPa = 101.325
Property: Molar enthalpy, kJ/mol (Crystal 1); method: Vacuum adiabatic calorimetry
Temperature, K	Molar enthalpy, kJ/mol	uncertainty
51.1	2.102	0.006
55	2.424	0.007
60	2.859	0.008
65	3.296	0.009
70	3.729	0.01
75	4.174	0.011
80	4.65	0.01
90	5.68	0.02
100	6.79	0.03
110	7.97	0.03
120	9.22	0.03
130	10.54	0.04
140	11.93	0.04
150	13.41	0.04
160	14.97	0.05
170	16.63	0.05
180	18.38	0.05
190	20.22	0.06
200	22.17	0.06
210	24.22	0.07
220	26.37	0.07
230	28.64	0.07
240	31.01	0.08
250	33.51	0.08
260	36.13	0.09
270	38.88	0.09
280	41.74	0.1
290	44.73	0.1
298.15	47.24	0.11
300	47.82	0.11
310	51.01	0.11
320	54.29	0.12
330	57.66	0.12
340	61.12	0.13
349.36	64.44	0.13

System: benzylferrocene; phases: Liquid
Fixed: Pressure, kPa = 101.325
Property: Molar enthalpy, kJ/mol (Liquid); method: Vacuum adiabatic calorimetry
Temperature, K	Molar enthalpy, kJ/mol	uncertainty
349.36	89.98	0.16
350	90.26	0.16
360	94.58	0.17
370	98.92	0.17

System: benzylferrocene; phases: Crystal 3
Fixed: Pressure, kPa = 101.325
Property: Molar entropy, J/K/mol (Crystal 3); method: Vacuum adiabatic calorimetry
Temperature, K	Molar entropy, J/K/mol	uncertainty
10	3.199	0.053
15	7.562	0.092
20	13.7	0.13
25	20.67	0.16
30	28.22	0.15
35	36.38	0.17
40	44.86	0.2
44.3	52.35	0.22

System: benzylferrocene; phases: Crystal 2
Fixed: Pressure, kPa = 101.325
Property: Molar entropy, J/K/mol (Crystal 2); method: Vacuum adiabatic calorimetry
Temperature, K	Molar entropy, J/K/mol	uncertainty
44.3	52.89	0.22
45	54.09	0.22
50	63.13	0.25
51.1	65.13	0.26

System: benzylferrocene; phases: Crystal 1
Fixed: Pressure, kPa = 101.325
Property: Molar entropy, J/K/mol (Crystal 1); method: Vacuum adiabatic calorimetry
Temperature, K	Molar entropy, J/K/mol	uncertainty
51.1	65.98	0.26
55	72.04	0.28
60	79.62	0.3
65	86.61	0.32
70	93.04	0.34
75	99.17	0.36
80	105.3	0.4
90	117.5	0.5
100	129.2	0.5
110	140.4	0.5
120	151.2	0.5
130	161.8	0.5
140	172.1	0.6
150	182.3	0.6
160	192.4	0.6
170	202.4	0.6
180	212.4	0.6
190	222.4	0.6
200	232.4	0.7
210	242.4	0.7
220	252.4	0.7
230	262.5	0.7
240	272.6	0.7
250	282.8	0.7
260	293	0.7
270	303.4	0.8
280	313.8	0.8
290	324.3	0.8
298.15	332.8	0.8
300	334.8	0.8
310	345.2	0.8
320	355.7	0.8
330	366	0.9
340	376.4	0.9
349.36	386	0.9

System: benzylferrocene; phases: Liquid
Fixed: Pressure, kPa = 101.325
Property: Molar entropy, J/K/mol (Liquid); method: Vacuum adiabatic calorimetry
Temperature, K	Molar entropy, J/K/mol	uncertainty
349.36	459.1	1
350	459.9	1
360	472.1	1
370	484	1
