Measured thermophysical data. Determination of the standard Gibbs free energies of formation of barium zirconates in the temperature range (1073 to 1273)K
Source: J. Chem. Thermodyn., 2008, 10.1016/j.jct.2007.06.001
Compound 1: barium, Ba, InChI=1S/Ba
Compound 2: zirconium, Zr, InChI=1S/Zr
Compound 3: oxygen, O2, InChI=1S/O2/c1-2
Compound 4: barium zirconium(IV) oxide, BaO3Zr, InChI=1S/Ba.3O.Zr/q+2;3*-2;+4
Compound 5: barium tetraoxidozirconium, Ba2O4Zr, InChI=1S/2Ba.4O.Zr/q2*+2;4*-1;

Reaction: -1 barium + -1 zirconium + 1 barium zirconium(IV) oxide + -1.5 oxygen
Property: Molar Gibbs energy of reaction, kJ/mol
-1428.324
-1425.204
-1422.084
-1418.964
-1415.844
-1412.724
-1409.604
-1406.484
-1403.364
-1400.244
-1397.124
-1394.004
-1390.884
-1387.764
-1384.644
-1381.524
-1378.404
-1375.284
-1372.164
-1369.044
-1365.924

Reaction: -2 barium + -1 zirconium + 1 barium tetraoxidozirconium + -2 oxygen
Property: Molar Gibbs energy of reaction, kJ/mol
-1896.902
-1892.642
-1888.382
-1884.122
-1879.862
-1875.602
-1871.342
-1867.082
-1862.822
-1858.562
-1854.302
-1850.042
-1845.782
-1841.522
-1837.262
-1833.002
-1828.742
-1824.482
-1820.222
-1815.962
-1811.702
