Measured thermophysical data. Compressed liquid densities of 1-butanol and 2-butanol at temperatures from 313 K to 363 K and pressures up to 25 MPa
Source: J. Chem. Thermodyn., 2007, 10.1016/j.jct.2006.07.009
Compound 1: butan-1-ol, C4H10O, InChI=1S/C4H10O/c1-2-3-4-5/h5H,2-4H2,1H3, purity 99.8%
Compound 2: butan-2-ol, C4H10O, InChI=1S/C4H10O/c1-3-4(2)5/h4-5H,3H2,1-2H3, purity 99.5%

System: butan-1-ol; phases: Liquid
Property: Mass density, kg/m3 (Liquid); method: Vibrating tube method
Temperature, K	Pressure, kPa	Mass density, kg/m3	uncertainty
313.1	1013	794.97	0.24
313.1	2008	795.76	0.25
313.1	3007	796.55	0.25
313.1	3990	797.33	0.26
313.1	5000	798.11	0.26
313.1	6014	798.9	0.26
313.1	7006	799.69	0.27
313.1	8016	800.47	0.27
313.1	9008	801.23	0.28
313.1	9996	801.97	0.28
313.1	11012	802.72	0.29
313.1	12008	803.48	0.29
313.1	13036	804.23	0.3
313.1	14009	804.93	0.3
313.1	15034	805.67	0.31
313.1	16014	806.36	0.31
313.1	17013	807.07	0.31
313.1	18011	807.76	0.32
313.1	19027	808.46	0.32
313.1	20015	809.14	0.33
313.1	21034	809.84	0.33
313.1	22060	810.53	0.34
313.1	23039	811.19	0.34
313.1	24049	811.9	0.35
313.1	25048	812.56	0.35
323.08	1040	787.23	0.24
323.08	2043	788.06	0.25
323.08	3005	788.88	0.25
323.08	4009	789.7	0.26
323.08	5014	790.53	0.26
323.08	6024	791.38	0.27
323.08	7062	792.21	0.27
323.08	8033	792.99	0.28
323.08	9025	793.79	0.28
323.08	10008	794.58	0.29
323.08	11020	795.36	0.29
323.08	12027	796.15	0.29
323.08	13044	796.95	0.3
323.08	14035	797.69	0.3
323.08	15055	798.46	0.31
323.08	16063	799.21	0.31
323.08	17039	799.93	0.32
323.08	18057	800.67	0.32
323.08	18995	801.37	0.33
323.08	20045	802.11	0.33
323.08	21090	802.85	0.34
323.08	22039	803.52	0.34
323.08	23078	804.27	0.35
323.08	24010	804.94	0.35
323.08	25055	805.68	0.36
332.95	1095	779.28	0.25
332.95	2064	780.15	0.25
332.95	3035	781.02	0.26
332.95	4039	781.89	0.26
332.95	5007	782.76	0.26
332.95	6035	783.65	0.27
332.95	7048	784.53	0.27
332.95	8021	785.37	0.28
332.95	9035	786.23	0.28
332.95	10030	787.06	0.29
332.95	11057	787.9	0.29
332.95	12026	788.71	0.3
332.95	13041	789.54	0.3
332.95	14034	790.33	0.31
332.95	15074	791.16	0.31
332.95	16022	791.89	0.32
332.95	16957	792.61	0.32
332.95	18103	793.49	0.33
332.95	19053	794.22	0.34
332.95	20044	794.97	0.34
332.95	21090	795.75	0.35
332.95	21974	796.4	0.35
332.95	22960	797.13	0.36
332.95	24014	797.92	0.36
332.95	25045	798.67	0.37
342.89	1021	771.26	0.25
342.89	2060	772.26	0.25
342.89	3051	773.2	0.26
342.89	4044	774.13	0.26
342.89	5014	775.03	0.27
342.89	6024	775.96	0.27
342.89	7050	776.88	0.28
342.89	8037	777.76	0.28
342.89	9052	778.65	0.29
342.89	10057	779.53	0.29
342.89	11053	780.38	0.3
342.89	12027	781.22	0.3
342.89	13077	782.09	0.31
342.89	14026	782.86	0.31
342.89	15080	783.73	0.32
342.89	16028	784.48	0.32
342.89	17031	785.27	0.33
342.89	18020	786.04	0.34
342.89	19009	786.8	0.34
342.89	20030	787.58	0.35
342.89	21066	788.35	0.35
342.89	21978	789.03	0.36
342.89	23061	789.83	0.36
342.89	24031	790.55	0.37
342.89	25045	791.3	0.37
352.76	1033	762.72	0.25
352.76	2075	763.8	0.25
352.76	3038	764.75	0.26
352.76	4004	765.74	0.26
352.76	5017	766.75	0.27
352.76	6042	767.75	0.27
352.76	7041	768.72	0.28
352.76	8024	769.64	0.29
352.76	9042	770.61	0.29
352.76	10044	771.56	0.3
352.76	11026	772.44	0.3
352.76	12073	773.4	0.31
352.76	13002	774.25	0.31
352.76	14050	775.17	0.32
352.76	15000	776.03	0.32
352.76	15999	776.89	0.33
352.76	17008	777.76	0.34
352.76	18066	778.65	0.34
352.76	19002	779.43	0.35
352.76	20014	780.28	0.35
352.76	21043	781.12	0.36
352.76	22024	781.94	0.36
352.76	23025	782.75	0.37
352.76	24015	783.56	0.37
352.76	25100	784.44	0.38
362.68	1031	753.17	0.25
362.68	2065	754.33	0.26
362.68	3038	755.4	0.26
362.68	4026	756.45	0.27
362.68	5050	757.54	0.27
362.68	6018	758.55	0.28
362.68	6995	759.56	0.28
362.68	8100	760.7	0.29
362.68	9002	761.62	0.29
362.68	10021	762.62	0.3
362.68	10995	763.58	0.31
362.68	12059	764.62	0.31
362.68	13056	765.56	0.32
362.68	14029	766.47	0.32
362.68	15024	767.42	0.33
362.68	16010	768.33	0.34
362.68	17020	769.25	0.34
362.68	18041	770.16	0.35
362.68	19031	771.05	0.35
362.68	20045	771.93	0.36
362.68	21016	772.76	0.37
362.68	22022	773.64	0.37

System: butan-2-ol; phases: Liquid
Property: Mass density, kg/m3 (Liquid); method: Vibrating tube method
Temperature, K	Pressure, kPa	Mass density, kg/m3	uncertainty
313.14	1029	789.61	0.24
313.14	2044	790.47	0.25
313.14	3044	791.33	0.25
313.14	4020	792.13	0.26
313.14	5025	792.97	0.26
313.14	6034	793.81	0.27
313.14	7015	794.62	0.27
313.14	8047	795.46	0.28
313.14	9042	796.28	0.28
313.14	10036	797.07	0.28
313.14	11056	797.88	0.29
313.14	12015	798.62	0.29
313.14	12998	799.38	0.3
313.14	14031	800.18	0.3
313.14	15062	800.96	0.31
313.14	16045	801.69	0.31
313.14	17029	802.41	0.32
313.14	18032	803.15	0.32
313.14	19014	803.87	0.33
313.14	20007	804.59	0.33
313.14	21048	805.31	0.34
313.14	22005	806.01	0.34
313.14	23044	806.75	0.35
313.14	24040	807.45	0.35
313.14	25011	808.16	0.36
323.12	1024	780.71	0.25
323.12	2019	781.62	0.25
323.12	3028	782.53	0.26
323.12	4054	783.45	0.26
323.12	5025	784.31	0.26
323.12	6046	785.21	0.27
323.12	7009	786.05	0.27
323.12	8016	786.93	0.28
323.12	9036	787.81	0.28
323.12	10038	788.67	0.29
323.12	11085	789.54	0.29
323.12	12007	790.3	0.3
323.12	13058	791.16	0.3
323.12	14013	791.95	0.31
323.12	15014	792.76	0.31
323.12	16058	793.57	0.32
323.12	17014	794.33	0.32
323.12	18066	795.16	0.33
323.12	19017	795.87	0.33
323.12	20012	796.64	0.34
323.12	21035	797.41	0.34
323.12	22018	798.15	0.35
323.12	23008	798.89	0.35
323.12	24063	799.69	0.36
323.12	25023	800.41	0.36
333.03	1039	771.36	0.25
333.03	2067	772.38	0.25
333.03	3015	773.31	0.26
333.03	4021	774.28	0.26
333.03	5051	775.27	0.27
333.03	6077	776.24	0.27
333.03	7027	777.14	0.28
333.03	8030	778.08	0.28
333.03	9062	779.01	0.29
333.03	10008	779.89	0.29
333.03	11025	780.81	0.3
333.03	12015	781.69	0.3
333.03	13018	782.57	0.31
333.03	14014	783.42	0.31
333.03	15028	784.3	0.32
333.03	16021	785.13	0.32
333.03	16999	785.94	0.33
333.03	18050	786.8	0.34
333.03	19020	787.6	0.34
333.03	20010	788.39	0.35
333.03	21025	789.2	0.35
333.03	22010	789.98	0.36
333.03	23020	790.79	0.36
333.03	24018	791.59	0.37
333.03	25029	792.38	0.37
342.96	1035	761.81	0.25
342.96	2085	762.95	0.26
342.96	3051	763.94	0.26
342.96	4055	764.99	0.27
342.96	5022	765.98	0.27
342.96	6004	766.98	0.28
342.96	7054	768.04	0.28
342.96	8030	769	0.29
342.96	9030	769.98	0.29
342.96	10053	770.95	0.3
342.96	11019	771.86	0.3
342.96	12025	772.81	0.31
342.96	13011	773.71	0.31
342.96	14015	774.61	0.32
342.96	15006	775.48	0.32
342.96	16036	776.39	0.33
342.96	17036	777.26	0.34
342.96	18028	778.1	0.34
342.96	19010	778.91	0.35
342.96	20038	779.76	0.35
342.96	21011	780.56	0.36
342.96	22029	781.38	0.36
342.96	23030	782.18	0.37
342.96	24002	782.96	0.38
342.96	25033	783.79	0.38
352.86	1041	751.57	0.25
352.86	2041	752.74	0.26
352.86	3066	753.92	0.26
352.86	4033	755.01	0.27
352.86	5062	756.18	0.27
352.86	6051	757.26	0.28
352.86	7059	758.35	0.28
352.86	8019	759.39	0.29
352.86	9040	760.46	0.3
352.86	10062	761.53	0.3
352.86	11019	762.52	0.31
352.86	12023	763.54	0.31
352.86	13025	764.55	0.32
352.86	14025	765.53	0.32
352.86	15018	766.5	0.33
352.86	16019	767.48	0.34
352.86	17041	768.42	0.34
352.86	18025	769.37	0.35
352.86	19020	770.27	0.35
352.86	20020	771.19	0.36
352.86	21023	772.11	0.37
352.86	22008	772.97	0.37
352.86	23013	773.88	0.38
352.86	24029	774.79	0.38
352.86	25009	775.65	0.39
362.79	1034	740.13	0.26
362.79	2005	741.38	0.26
362.79	3035	742.67	0.27
362.79	3999	743.86	0.27
362.79	5056	745.14	0.28
362.79	6053	746.34	0.28
362.79	7031	747.5	0.29
362.79	8032	748.66	0.29
362.79	9052	749.84	0.3
362.79	10045	750.95	0.31
362.79	11009	752.02	0.31
362.79	12031	753.14	0.32
362.79	13018	754.21	0.32
362.79	14007	755.25	0.33
362.79	15026	756.31	0.34
362.79	15999	757.31	0.34
362.79	17038	758.37	0.35
362.79	18013	759.36	0.36
362.79	18998	760.34	0.36
362.79	20016	761.31	0.37
362.79	21005	762.29	0.37
362.79	22009	763.23	0.38
362.79	23012	764.19	0.39
362.79	24007	765.14	0.39
362.79	25037	766.09	0.4
