Measured thermophysical data. Gaseous pVTx measurements for (HFC134a + HC290) by a compact single-sinker densimeter
Source: J. Chem. Thermodyn., 2015, 10.1016/j.jct.2014.10.001
Compound 1: 1,1,1,2-tetrafluoroethane, C2H2F4, InChI=1S/C2H2F4/c3-1-2(4,5)6/h1H2, purity 99.99%
Compound 2: propane, C3H8, InChI=1S/C3H8/c1-3-2/h3H2,1-2H3, purity 99.9%

System: propane + 1,1,1,2-tetrafluoroethane; phases: Gas
Property: Mass density, kg/m3 (Gas); method: Buoyancy - hydrostatic balance with magnetic suspension - one sinker
Temperature, K	Pressure, kPa	Mole fraction of 1,1,1,2-tetrafluoroethane	Mass density, kg/m3	uncertainty
288.432	753.42	0.2391	21.238	0.0247
288.452	680.21	0.2391	18.823	0.0224
288.46	571.46	0.2391	15.4131	0.0192
288.451	459.95	0.2391	12.1079	0.0163
288.458	384.07	0.2391	9.9536	0.0144
288.459	302.44	0.2391	7.7138	0.0126
288.474	209.6	0.2391	5.253	0.0109
288.465	121.21	0.2391	2.9907	0.0098
283.173	636.31	0.2391	17.9209	0.0215
283.174	457.55	0.2391	12.3388	0.0168
283.178	383.01	0.2391	10.158	0.0147
283.177	298.86	0.2391	7.7872	0.0128
283.184	185.02	0.2391	4.7134	0.0108
283.174	114.18	0.2391	2.8713	0.0099
278.201	514.55	0.2391	14.4261	0.0185
278.195	442.42	0.2391	12.1807	0.0166
278.206	366.56	0.2391	9.9124	0.0146
278.204	233.61	0.2391	6.1346	0.0118
278.203	102.16	0.2391	2.6113	0.0101
273.123	451.8	0.2391	12.8024	0.0172
273.131	364.79	0.2391	10.1086	0.0151
273.126	288.63	0.2391	7.853	0.0132
273.129	204.71	0.2391	5.4646	0.0116
273.118	122.4	0.2391	3.2081	0.0105
268.168	365.93	0.2391	10.3898	0.0153
268.172	286.65	0.2391	7.9728	0.0135
268.156	198.02	0.2391	5.3921	0.0117
268.172	119.34	0.2391	3.1919	0.0106
263.165	305.05	0.2391	8.7279	0.0141
263.157	203.74	0.2391	5.6732	0.0121
263.154	102.04	0.2391	2.7715	0.0107
258.19	252.34	0.2391	7.2822	0.0132
258.157	168.96	0.2391	4.7661	0.0118
258.17	103.24	0.2391	2.8628	0.0109
293.152	856.96	0.5401	31.7378	0.0362
293.15	758.84	0.5401	27.3827	0.0321
293.164	662.93	0.5401	23.3629	0.0281
293.154	558.53	0.5401	19.2207	0.0241
293.154	454.02	0.5401	15.2811	0.0205
293.162	328.59	0.5401	10.787	0.0168
293.162	216.96	0.5401	6.9744	0.014
293.163	103.22	0.5401	3.2534	0.0122
288.123	709.34	0.5401	26.0161	0.0307
288.126	613.19	0.5401	21.9339	0.0269
288.131	514.46	0.5401	17.9692	0.0232
288.133	424.11	0.5401	14.5146	0.0201
288.132	317.7	0.5401	10.6307	0.0169
288.136	209.2	0.5401	6.8504	0.0142
288.131	102.08	0.5401	3.2763	0.0125
283.151	602.24	0.5401	22.0672	0.0271
283.139	501.49	0.5401	17.8976	0.0234
283.147	416.97	0.5401	14.5789	0.0203
283.144	311.18	0.5401	10.6211	0.0171
283.148	210.93	0.5401	7.0468	0.0145
283.154	101.13	0.5401	3.3055	0.0127
278.152	504.76	0.5401	18.5053	0.024
278.149	419.02	0.5401	15.0163	0.0209
278.15	289.3	0.5401	10.0435	0.017
278.152	194.41	0.5401	6.606	0.0145
278.158	115.44	0.5401	3.8575	0.0131
273.104	411.8	0.5401	15.1107	0.0211
273.112	323.14	0.5401	11.5758	0.0184
273.105	251.59	0.5401	8.853	0.0162
273.1	170.36	0.5401	5.8806	0.0143
273.113	105.09	0.5401	3.5743	0.0132
268.161	341.03	0.5401	12.5709	0.0191
268.152	268.92	0.5401	9.7174	0.0171
268.151	183.8	0.5401	6.4973	0.0149
268.142	104.92	0.5401	3.6381	0.0135
263.142	281.67	0.5401	10.4652	0.0176
263.137	220.07	0.5401	8.0347	0.0162
263.137	166.53	0.5401	5.9917	0.0148
263.128	101.58	0.5401	3.5946	0.0138
263.131	101.57	0.5401	3.5945	0.0138
258.151	242.95	0.5401	9.1445	0.0168
258.147	190.72	0.5401	7.0674	0.0157
258.143	154.11	0.5401	5.651	0.0148
258.144	113.78	0.5401	4.1262	0.014
293.191	728.09	0.6201	27.8461	0.0328
293.172	611.78	0.6201	22.7331	0.0281
293.183	525.37	0.6201	19.1338	0.0245
293.17	427.29	0.6201	15.2346	0.021
293.184	328.76	0.6201	11.4874	0.0179
293.177	229.76	0.6201	7.8762	0.0152
293.179	124.6	0.6201	4.1917	0.0133
288.151	553.06	0.6201	20.7897	0.0262
288.134	446.77	0.6201	16.3715	0.0223
288.145	332.05	0.6201	11.8593	0.0185
288.145	232.81	0.6201	8.1461	0.0156
288.154	122.39	0.6201	4.191	0.0135
283.164	514.53	0.6201	19.6465	0.0253
283.159	415.7	0.6201	15.476	0.0215
283.149	198.01	0.6201	7.0141	0.0156
283.154	120.94	0.6201	4.2161	0.0137
278.138	433.01	0.6201	16.603	0.0227
278.137	337.13	0.6201	12.6083	0.0195
278.135	236.83	0.6201	8.6438	0.0164
278.124	123.52	0.6201	4.396	0.0142
273.096	358.16	0.6201	13.8005	0.0205
273.096	283.04	0.6201	10.6873	0.0182
273.118	206.06	0.6201	7.6287	0.016
273.113	121.2	0.6201	4.3969	0.0143
268.138	300.29	0.6201	11.6624	0.019
268.133	213.45	0.6201	8.092	0.0166
268.137	125.37	0.6201	4.6466	0.0147
263.153	259.7	0.6201	10.2107	0.0179
263.147	194.24	0.6201	7.4918	0.0165
263.139	134.16	0.6201	5.0876	0.0153
293.153	637.77	0.7822	27.0005	0.0328
293.148	540.93	0.7822	22.3179	0.0285
293.153	425.23	0.7822	17.0517	0.0237
293.159	311.55	0.7822	12.1753	0.0197
293.162	213.45	0.7822	8.1673	0.0166
293.143	105.81	0.7822	3.9639	0.0146
288.121	552.56	0.7822	23.4963	0.0297
288.121	552.55	0.7822	23.4956	0.0297
288.126	448.02	0.7822	18.5148	0.0253
288.12	325.43	0.7822	13.0428	0.0206
288.118	214.43	0.7822	8.3795	0.0171
288.099	100.89	0.7822	3.85	0.0148
283.126	459.52	0.7822	19.5449	0.0261
283.128	329.43	0.7822	13.5211	0.0213
283.128	211.19	0.7822	8.4187	0.0174
283.147	102.6	0.7822	3.9912	0.0151
278.148	381.08	0.7989	16.4363	0.0238
278.149	381.08	0.7989	16.4338	0.0238
278.146	286.8	0.7989	12.0403	0.0206
278.163	230.77	0.7989	9.5443	0.0185
278.164	152.51	0.7989	6.1813	0.0164
278.154	103.41	0.7989	4.1428	0.0154
273.131	319.28	0.7989	13.8595	0.022
273.11	262.93	0.7989	11.2212	0.0202
273.133	216.26	0.7989	9.1063	0.0184
273.127	144.28	0.7989	5.9572	0.0166
273.117	100.04	0.7989	4.0831	0.0157
268.143	285.39	0.7989	12.5661	0.0213
268.123	231.64	0.7989	10.0266	0.0196
268.14	190.18	0.7989	8.1303	0.0182
268.131	150.69	0.7989	6.3684	0.017
268.135	104.95	0.7989	4.3792	0.0162
263.144	225.37	0.7989	9.9705	0.0196
263.138	183.78	0.7989	8.0203	0.0185
263.152	145.63	0.7989	6.2807	0.0173
263.147	99.9	0.7989	4.2498	0.0165
258.179	197.88	0.7989	8.8817	0.0192
258.159	154.01	0.7989	6.8087	0.018
258.168	106.9	0.7989	4.6538	0.017
