Measured thermophysical data. Molecular energetics of 4-methyldibenzothiophene: An experimental study
Source: J. Chem. Thermodyn., 2010, 10.1016/j.jct.2009.08.010
Compound 1: sulfuric acid, H2O4S, InChI=1S/H2O4S/c1-5(2,3)4/h(H2,1,2,3,4)
Compound 2: carbon dioxide, CO2, InChI=1S/CO2/c2-1-3
Compound 3: water, H2O, InChI=1S/H2O/h1H2
Compound 4: oxygen, O2, InChI=1S/O2/c1-2
Compound 5: 4-methyldibenzothiophene, C13H10S, InChI=1S/C13H10S/c1-9-5-4-7-11-10-6-2-3-8-12(10)14-13(9)11/h2-8H,1H3, purity 96%

System: 4-methyldibenzothiophene; phases: Crystal, Gas
Property: Molar enthalpy of transition or fusion, kJ/mol (Crystal); method: Flow calorimetry
Temperature, K	Molar enthalpy of transition or fusion, kJ/mol	uncertainty
298.15	90.3	1.4

System: 4-methyldibenzothiophene; phases: Gas
Property: Molar enthalpy, kJ/mol (Gas); method: Flow calorimetry
Temperature, K	Pressure, kPa	Molar enthalpy, kJ/mol	uncertainty
360.3	100	104	1

Reaction: -1 4-methyldibenzothiophene + 1 sulfuric acid + 13 carbon dioxide + 4 water + -17 oxygen
Property: Specific internal energy of reaction at constant volume, J/g
-36351.1
