Measured thermophysical data. Solubility of ethylbenzene and xylene in pure water and aqueous alkanolamine solutions
Source: J. Chem. Thermodyn., 2008, 10.1016/j.jct.2008.01.021
Compound 1: ethylbenzene, C8H10, InChI=1S/C8H10/c1-2-8-6-4-3-5-7-8/h3-7H,2H2,1H3
Compound 2: N-methyldiethanolamine, C5H13NO2, InChI=1S/C5H13NO2/c1-6(2-4-7)3-5-8/h7-8H,2-5H2,1H3
Compound 3: 2-(2-aminoethoxy)ethanol, C4H11NO2, InChI=1S/C4H11NO2/c5-1-3-7-4-2-6/h6H,1-5H2
Compound 4: water, H2O, InChI=1S/H2O/h1H2

System: ethylbenzene + water; phases: Liquid mixture 1, Liquid mixture 2, Gas
Property: Vapor or sublimation pressure, kPa (Liquid mixture 1); method: CCELL:UFactor:8
Temperature, K	Vapor or sublimation pressure, kPa	uncertainty
297.97	4	0.3
302.65	5.5	0.3
307.61	7.2	0.3
312.61	9.5	0.4
312.65	9.6	0.4
317.64	12.7	0.5
322.53	16.3	0.5
322.56	16.3	0.5
327.54	20.9	0.6
332.55	26.5	0.8
337.56	33.3	1
342.56	41.4	1.2
347.58	50.4	1.4
352.61	62.6	1.7
357.64	76.2	2
362.64	92.7	2.4
367.66	111.6	2.9
372.69	133.6	3.4
377.72	158.7	4.1
382.73	186.3	4.8
387.77	220.1	5.6
392.76	259.7	6.6
397.84	302.2	7.6
402.87	353.6	8.9

System: ethylbenzene + water; phases: Liquid mixture 1, Liquid mixture 2
Property: Mole fraction of ethylbenzene (Liquid mixture 1); method: Chromatography
Temperature, K	Pressure, kPa	Mole fraction of ethylbenzene	uncertainty
297.65	501.7	2.93e-05	1.2e-06
298.13	6898	2.64e-05	1.8e-06
313.2	503.4	3.21e-05	1.3e-06
343.1	6873	4.35e-05	1.8e-06
343.13	500.9	4.7e-05	1.9e-06
373.09	504.5	8.41e-05	3.6e-06
393.21	511	0.000132	5.4e-06
393.25	6851	0.000122	5e-06

System: ethylbenzene + 2-(2-aminoethoxy)ethanol + water; phases: Liquid mixture 1, Liquid mixture 2, Gas
Property: Vapor or sublimation pressure, kPa (Liquid mixture 1); method: CCELL:UFactor:8
Temperature, K	Solvent: Mass fraction of 2-(2-aminoethoxy)ethanol	Vapor or sublimation pressure, kPa	uncertainty
292.81	0.35	6.1	0.3
294.36	0.35	6.5	0.3
297.81	0.7	1.7	0.3
302.81	0.35	9.4	0.4
302.85	0.7	2.6	0.3
312.78	0.35	14.8	0.5
312.84	0.7	5.6	0.3
322.77	0.35	23.1	0.7
322.81	0.7	10	0.4
322.88	0.7	10.1	0.4
332.81	0.7	17.4	0.6
332.83	0.35	35.7	1
342.78	0.35	53.6	1.5
342.81	0.7	28.6	0.8
352.7	0.35	80.4	2.1
352.85	0.7	44.2	1.2
362.81	0.35	116	3
362.9	0.7	66.4	1.8
372.84	0.35	164.4	4.2
372.91	0.7	96.1	2.5
382.86	0.35	228.2	5.8
382.94	0.7	135.6	3.5
392.9	0.35	307.7	7.8
393.01	0.7	187.9	4.8
394.01	0.35	317.9	8

System: ethylbenzene + 2-(2-aminoethoxy)ethanol + water; phases: Liquid mixture 1, Liquid mixture 2
Property: Mole fraction of ethylbenzene (Liquid mixture 1); method: Chromatography
Solvent: Mass fraction of 2-(2-aminoethoxy)ethanol	Temperature, K	Pressure, kPa	Mole fraction of ethylbenzene	uncertainty
0.35	298.16	507.9	0.000164	1.9e-05
0.35	298.19	1911	0.000101	1.8e-05
0.35	298.27	510.4	0.000165	1.8e-05
0.35	333.18	504.8	0.000305	1.8e-05
0.35	333.19	5063.5	0.000182	3.6e-05
0.35	363.23	502	0.000607	3.7e-05
0.35	363.23	4977.7	0.000412	1.9e-05
0.35	393.34	523.3	0.00103	0.00011
0.7	298.23	507.9	0.00386	0.00037
0.7	298.25	5000	0.00374	0.00056
0.7	333.04	522.3	0.00708	0.00108
0.7	333.08	5055	0.00581	0.00054
0.7	363.22	5036	0.0108	0.0017
0.7	363.24	528.8	0.012	0.0013
0.7	393.33	509.7	0.0179	0.0018

System: ethylbenzene + N-methyldiethanolamine + water; phases: Liquid mixture 1, Liquid mixture 2
Property: Mole fraction of ethylbenzene (Liquid mixture 1); method: Chromatography
Solvent: Mass fraction of N-methyldiethanolamine	Temperature, K	Pressure, kPa	Mole fraction of ethylbenzene	uncertainty
0.5	333.25	506.2	0.00124	6e-05
