Measured thermophysical data. Influence of chlorine atom on interactions between halo-hydrocarbons and 1-nonanol: Density and speed of sound measurements
Source: J. Chem. Thermodyn., 2018, 10.1016/j.jct.2017.11.003
Compound 1: nonan-1-ol, C9H20O, InChI=1S/C9H20O/c1-2-3-4-5-6-7-8-9-10/h10H,2-9H2,1H3, purity 99.5%
Compound 2: 2-chlorotoluene, C7H7Cl, InChI=1S/C7H7Cl/c1-6-4-2-3-5-7(6)8/h2-5H,1H3, purity 99.5%
Compound 3: 3-chlorotoluene, C7H7Cl, InChI=1S/C7H7Cl/c1-6-3-2-4-7(8)5-6/h2-5H,1H3, purity 99.5%
Compound 4: 4-chlorotoluene, C7H7Cl, InChI=1S/C7H7Cl/c1-6-2-4-7(8)5-3-6/h2-5H,1H3, purity 99.6%
Compound 5: 1,2-dichloroethane, C2H4Cl2, InChI=1S/C2H4Cl2/c3-1-2-4/h1-2H2, purity 99.7%

System: nonan-1-ol; phases: Liquid
Fixed: Pressure, kPa = 100
Property: Mass density, kg/m3 (Liquid); method: Vibrating tube method
Temperature, K	Mass density, kg/m3	uncertainty
293.15	828	4
298.15	824	4
303.15	821	4
308.15	818	4

System: nonan-1-ol; phases: Liquid
Fixed: Pressure, kPa = 100
Fixed: Frequency, MHz = 2
Property: Speed of sound, m/s (Liquid); method: Linear variable-path acoustic interferometer
Temperature, K	Speed of sound, m/s	uncertainty
293.15	1380.5	4
298.15	1364.7	4
303.15	1348.1	4
308.15	1330.5	4

System: 2-chlorotoluene; phases: Liquid
Fixed: Pressure, kPa = 100
Property: Mass density, kg/m3 (Liquid); method: Vibrating tube method
Temperature, K	Mass density, kg/m3	uncertainty
293.15	1082	4
298.15	1077	4
303.15	1073	4
308.15	1068	4

System: 2-chlorotoluene; phases: Liquid
Fixed: Pressure, kPa = 100
Fixed: Frequency, MHz = 2
Property: Speed of sound, m/s (Liquid); method: Linear variable-path acoustic interferometer
Temperature, K	Speed of sound, m/s	uncertainty
293.15	1317	4
298.15	1299.7	4
303.15	1283.9	4
308.15	1265.8	4

System: 3-chlorotoluene; phases: Liquid
Fixed: Pressure, kPa = 100
Property: Mass density, kg/m3 (Liquid); method: Vibrating tube method
Temperature, K	Mass density, kg/m3	uncertainty
293.15	1072	4
298.15	1067	4
303.15	1063	4
308.15	1058	4

System: 3-chlorotoluene; phases: Liquid
Fixed: Pressure, kPa = 100
Fixed: Frequency, MHz = 2
Property: Speed of sound, m/s (Liquid); method: Linear variable-path acoustic interferometer
Temperature, K	Speed of sound, m/s	uncertainty
293.15	1313.8	4
298.15	1296.5	4
303.15	1279.5	4
308.15	1261.2	4

System: 4-chlorotoluene; phases: Liquid
Fixed: Pressure, kPa = 100
Property: Mass density, kg/m3 (Liquid); method: Vibrating tube method
Temperature, K	Mass density, kg/m3	uncertainty
293.15	1069	4
298.15	1065	4
303.15	1060	4
308.15	1054	4

System: 4-chlorotoluene; phases: Liquid
Fixed: Pressure, kPa = 100
Fixed: Frequency, MHz = 2
Property: Speed of sound, m/s (Liquid); method: Linear variable-path acoustic interferometer
Temperature, K	Speed of sound, m/s	uncertainty
293.15	1306.4	4
298.15	1288.2	4
303.15	1270	3.9
308.15	1252.1	3.9

System: 1,2-dichloroethane; phases: Liquid
Fixed: Pressure, kPa = 100
Property: Mass density, kg/m3 (Liquid); method: Vibrating tube method
Temperature, K	Mass density, kg/m3	uncertainty
293.15	1253	4
298.15	1246	4
303.15	1238	4
308.15	1231	4

System: 1,2-dichloroethane; phases: Liquid
Fixed: Pressure, kPa = 100
Fixed: Frequency, MHz = 2
Property: Speed of sound, m/s (Liquid); method: Linear variable-path acoustic interferometer
Temperature, K	Speed of sound, m/s	uncertainty
293.15	1212.5	3.9
298.15	1194.2	3.9
303.15	1174.1	3.9
308.15	1155.6	3.9

System: 2-chlorotoluene + nonan-1-ol; phases: Liquid
Fixed: Pressure, kPa = 100
Property: Mass density, kg/m3 (Liquid); method: Vibrating tube method
Temperature, K	Mole fraction of 2-chlorotoluene	Mass density, kg/m3	uncertainty
293.15	0	828	4
293.15	0.0846	843	4
293.15	0.1974	864	4
293.15	0.2911	883	4
293.15	0.3964	906	4
293.15	0.4896	928	4
293.15	0.5943	954	4
293.15	0.6918	981	4
293.15	0.7948	1011	4
293.15	0.898	1045	4
293.15	1	1082	4
298.15	0	824	4
298.15	0.0846	840	4
298.15	0.1974	861	4
298.15	0.2911	880	4
298.15	0.3964	902	4
298.15	0.4896	924	4
298.15	0.5943	950	4
298.15	0.6918	976	4
298.15	0.7948	1007	4
298.15	0.898	1040	4
298.15	1	1077	4
303.15	0	821	4
303.15	0.0846	836	4
303.15	0.1974	857	4
303.15	0.2911	876	4
303.15	0.3964	898	4
303.15	0.4896	920	4
303.15	0.5943	946	4
303.15	0.6918	972	4
303.15	0.7948	1002	4
303.15	0.898	1036	4
303.15	1	1073	4
308.15	0	818	4
308.15	0.0846	832	4
308.15	0.1974	853	4
308.15	0.2911	872	4
308.15	0.3964	894	4
308.15	0.4896	915	4
308.15	0.5943	941	4
308.15	0.6918	967	4
308.15	0.7948	997	4
308.15	0.898	1031	4
308.15	1	1068	4

System: 2-chlorotoluene + nonan-1-ol; phases: Liquid
Fixed: Pressure, kPa = 100
Fixed: Frequency, MHz = 2
Property: Speed of sound, m/s (Liquid); method: Linear variable-path acoustic interferometer
Temperature, K	Mole fraction of 2-chlorotoluene	Speed of sound, m/s	uncertainty
293.15	0	1380.5	4
293.15	0.0846	1375.9	4
293.15	0.1974	1367.7	4
293.15	0.2911	1359.7	4
293.15	0.3964	1349.9	4
293.15	0.4896	1341.3	4
293.15	0.5943	1331.5	4
293.15	0.6918	1324	4
293.15	0.7948	1318	4
293.15	0.898	1315.2	4
293.15	1	1317	4
298.15	0	1364.7	4
298.15	0.0846	1360.1	4
298.15	0.1974	1351.5	4
298.15	0.2911	1342.9	4
298.15	0.3964	1331.9	4
298.15	0.4896	1322.3	4
298.15	0.5943	1312.2	4
298.15	0.6918	1304.4	4
298.15	0.7948	1298.5	4
298.15	0.898	1297	4
298.15	1	1299.7	4
303.15	0	1348.1	4
303.15	0.0846	1348.7	4
303.15	0.1974	1339.2	4
303.15	0.2911	1329.6	4
303.15	0.3964	1318.6	4
303.15	0.4896	1308.2	4
303.15	0.5943	1298	4
303.15	0.6918	1290	4
303.15	0.7948	1284	4
303.15	0.898	1280.7	4
303.15	1	1283.9	4
308.15	0	1330.5	4
308.15	0.0846	1325.2	4
308.15	0.1974	1315.5	4
308.15	0.2911	1305.8	4
308.15	0.3964	1294	4
308.15	0.4896	1284	4
308.15	0.5943	1273.4	4
308.15	0.6918	1265.8	4
308.15	0.7948	1260.8	4
308.15	0.898	1259.9	4
308.15	1	1265.8	4

System: 3-chlorotoluene + nonan-1-ol; phases: Liquid
Fixed: Pressure, kPa = 100
Property: Mass density, kg/m3 (Liquid); method: Vibrating tube method
Temperature, K	Mole fraction of 3-chlorotoluene	Mass density, kg/m3	uncertainty
293.15	0	828	4
293.15	0.0967	844	4
293.15	0.1893	861	4
293.15	0.2985	883	4
293.15	0.3926	902	4
293.15	0.4834	923	4
293.15	0.5953	950	4
293.15	0.6918	975	4
293.15	0.7946	1004	4
293.15	0.8963	1036	4
293.15	1	1072	4
298.15	0	824	4
298.15	0.0967	841	4
298.15	0.1893	858	4
298.15	0.2985	879	4
298.15	0.3926	898	4
298.15	0.4834	919	4
298.15	0.5953	945	4
298.15	0.6918	970	4
298.15	0.7946	1000	4
298.15	0.8963	1031	4
298.15	1	1067	4
303.15	0	821	4
303.15	0.0967	838	4
303.15	0.1893	854	4
303.15	0.2985	875	4
303.15	0.3926	894	4
303.15	0.4834	914	4
303.15	0.5953	941	4
303.15	0.6918	966	4
303.15	0.7946	995	4
303.15	0.8963	1027	4
303.15	1	1063	4
308.15	0	818	4
308.15	0.0967	834	4
308.15	0.1893	850	4
308.15	0.2985	871	4
308.15	0.3926	890	4
308.15	0.4834	910	4
308.15	0.5953	937	4
308.15	0.6918	961	4
308.15	0.7946	990	4
308.15	0.8963	1022	4
308.15	1	1058	4

System: 3-chlorotoluene + nonan-1-ol; phases: Liquid
Fixed: Pressure, kPa = 100
Fixed: Frequency, MHz = 2
Property: Speed of sound, m/s (Liquid); method: Linear variable-path acoustic interferometer
Temperature, K	Mole fraction of 3-chlorotoluene	Speed of sound, m/s	uncertainty
293.15	0	1380.5	4
293.15	0.0967	1374.3	4
293.15	0.1893	1366.3	4
293.15	0.2985	1355.3	4
293.15	0.3926	1345	4
293.15	0.4834	1335.2	4
293.15	0.5953	1323.7	4
293.15	0.6918	1315.7	4
293.15	0.7946	1310.2	4
293.15	0.8963	1308.7	4
293.15	1	1313.8	4
298.15	0	1364.7	4
298.15	0.0967	1357.5	4
298.15	0.1893	1348.2	4
298.15	0.2985	1336.2	4
298.15	0.3926	1325.6	4
298.15	0.4834	1315.2	4
298.15	0.5953	1303.7	4
298.15	0.6918	1296	4
298.15	0.7946	1291.2	4
298.15	0.8963	1290.7	4
298.15	1	1296.5	4
303.15	0	1348.1	4
303.15	0.0967	1345.4	4
303.15	0.1893	1335.6	4
303.15	0.2985	1323	4
303.15	0.3926	1310.9	4
303.15	0.4834	1300	4
303.15	0.5953	1288.3	4
303.15	0.6918	1280.3	4
303.15	0.7946	1274.7	4
303.15	0.8963	1273.6	4
303.15	1	1279.5	4
308.15	0	1330.5	4
308.15	0.0967	1320.9	4
308.15	0.1893	1310.1	4
308.15	0.2985	1297.4	4
308.15	0.3926	1286	4
308.15	0.4834	1275.7	4
308.15	0.5953	1264.9	4
308.15	0.6918	1257.6	4
308.15	0.7946	1254	4
308.15	0.8963	1253.9	4
308.15	1	1261.2	4

System: 4-chlorotoluene + nonan-1-ol; phases: Liquid
Fixed: Pressure, kPa = 100
Property: Mass density, kg/m3 (Liquid); method: Vibrating tube method
Temperature, K	Mole fraction of 4-chlorotoluene	Mass density, kg/m3	uncertainty
293.15	0	828	4
293.15	0.0835	842	4
293.15	0.1905	862	4
293.15	0.2888	881	4
293.15	0.3983	904	4
293.15	0.4948	925	4
293.15	0.594	949	4
293.15	0.6925	974	4
293.15	0.7952	1003	4
293.15	0.899	1035	4
293.15	1	1069	4
298.15	0	824	4
298.15	0.0835	839	4
298.15	0.1905	858	4
298.15	0.2888	877	4
298.15	0.3983	900	4
298.15	0.4948	921	4
298.15	0.594	945	4
298.15	0.6925	970	4
298.15	0.7952	999	4
298.15	0.899	1031	4
298.15	1	1065	4
303.15	0	821	4
303.15	0.0835	835	4
303.15	0.1905	855	4
303.15	0.2888	873	4
303.15	0.3983	896	4
303.15	0.4948	917	4
303.15	0.594	940	4
303.15	0.6925	965	4
303.15	0.7952	994	4
303.15	0.899	1025	4
303.15	1	1060	4
308.15	0	818	4
308.15	0.0835	832	4
308.15	0.1905	851	4
308.15	0.2888	869	4
308.15	0.3983	891	4
308.15	0.4948	912	4
308.15	0.594	935	4
308.15	0.6925	960	4
308.15	0.7952	988	4
308.15	0.899	1020	4
308.15	1	1054	4

System: 4-chlorotoluene + nonan-1-ol; phases: Liquid
Fixed: Pressure, kPa = 100
Fixed: Frequency, MHz = 2
Property: Speed of sound, m/s (Liquid); method: Linear variable-path acoustic interferometer
Temperature, K	Mole fraction of 4-chlorotoluene	Speed of sound, m/s	uncertainty
293.15	0	1380.5	4
293.15	0.0835	1376.5	4
293.15	0.1905	1369.2	4
293.15	0.2888	1360.5	4
293.15	0.3983	1350	4
293.15	0.4948	1340.2	4
293.15	0.594	1330	4
293.15	0.6925	1321	4
293.15	0.7952	1313	4
293.15	0.899	1308	4
293.15	1	1306.4	4
298.15	0	1364.7	4
298.15	0.0835	1358.3	4
298.15	0.1905	1347.9	4
298.15	0.2888	1337.3	4
298.15	0.3983	1324.8	4
298.15	0.4948	1313.6	4
298.15	0.594	1303	4
298.15	0.6925	1294.2	4
298.15	0.7952	1287.5	4
298.15	0.899	1284.9	4
298.15	1	1288.2	4
303.15	0	1348.1	4
303.15	0.0835	1346.4	4
303.15	0.1905	1334.9	4
303.15	0.2888	1323.5	4
303.15	0.3983	1310.6	4
303.15	0.4948	1298.7	4
303.15	0.594	1287.9	4
303.15	0.6925	1278.5	4
303.15	0.7952	1271.4	4
303.15	0.899	1267.7	4
303.15	1	1270	3.9
308.15	0	1330.5	4
308.15	0.0835	1322.8	4
308.15	0.1905	1311.7	4
308.15	0.2888	1300.5	4
308.15	0.3983	1287.6	4
308.15	0.4948	1276.4	4
308.15	0.594	1266	4
308.15	0.6925	1257.4	4
308.15	0.7952	1250.9	3.9
308.15	0.899	1248.9	3.9
308.15	1	1252.1	3.9

System: 1,2-dichloroethane + nonan-1-ol; phases: Liquid
Fixed: Pressure, kPa = 100
Property: Mass density, kg/m3 (Liquid); method: Vibrating tube method
Temperature, K	Mole fraction of 1,2-dichloroethane	Mass density, kg/m3	uncertainty
293.15	0	828	4
293.15	0.0922	845	4
293.15	0.2067	869	4
293.15	0.2984	892	4
293.15	0.406	922	4
293.15	0.4896	950	4
293.15	0.6039	994	4
293.15	0.6928	1035	4
293.15	0.8087	1101	4
293.15	0.9063	1170	4
293.15	1	1253	4
298.15	0	824	4
298.15	0.0922	841	4
298.15	0.2067	866	4
298.15	0.2984	888	4
298.15	0.406	918	4
298.15	0.4896	946	4
298.15	0.6039	989	4
298.15	0.6928	1030	4
298.15	0.8087	1095	4
298.15	0.9063	1163	4
298.15	1	1246	4
303.15	0	821	4
303.15	0.0922	838	4
303.15	0.2067	862	4
303.15	0.2984	884	4
303.15	0.406	914	4
303.15	0.4896	941	4
303.15	0.6039	984	4
303.15	0.6928	1025	4
303.15	0.8087	1089	4
303.15	0.9063	1157	4
303.15	1	1238	4
308.15	0	818	4
308.15	0.0922	834	4
308.15	0.2067	858	4
308.15	0.2984	880	4
308.15	0.406	909	4
308.15	0.4896	936	4
308.15	0.6039	979	4
308.15	0.6928	1019	4
308.15	0.8087	1083	4
308.15	0.9063	1150	4
308.15	1	1231	4

System: 1,2-dichloroethane + nonan-1-ol; phases: Liquid
Fixed: Pressure, kPa = 100
Fixed: Frequency, MHz = 2
Property: Speed of sound, m/s (Liquid); method: Linear variable-path acoustic interferometer
Temperature, K	Mole fraction of 1,2-dichloroethane	Speed of sound, m/s	uncertainty
293.15	0	1380.5	4
293.15	0.0922	1357.5	4
293.15	0.2067	1332.2	4
293.15	0.2984	1313.7	4
293.15	0.406	1293.1	4
293.15	0.4896	1277.3	4
293.15	0.6039	1258.2	3.9
293.15	0.6928	1243.5	3.9
293.15	0.8087	1227.5	3.9
293.15	0.9063	1216.7	3.9
293.15	1	1212.5	3.9
298.15	0	1364.7	4
298.15	0.0922	1341.4	4
298.15	0.2067	1315.5	4
298.15	0.2984	1296.8	4
298.15	0.406	1275.5	4
298.15	0.4896	1260.3	3.9
298.15	0.6039	1240.6	3.9
298.15	0.6928	1226.4	3.9
298.15	0.8087	1210.5	3.9
298.15	0.9063	1199	3.9
298.15	1	1194.2	3.9
303.15	0	1348.1	4
303.15	0.0922	1329.7	4
303.15	0.2067	1301.2	4
303.15	0.2984	1280.6	4
303.15	0.406	1258	4
303.15	0.4896	1242.2	3.9
303.15	0.6039	1221.4	3.9
303.15	0.6928	1206.5	3.9
303.15	0.8087	1190	3.9
303.15	0.9063	1179.2	3.9
303.15	1	1174.1	3.9
308.15	0	1330.5	4
308.15	0.0922	1305.2	4
308.15	0.2067	1277.5	4
308.15	0.2984	1257.8	4
308.15	0.406	1235	3.9
308.15	0.4896	1219	3.9
308.15	0.6039	1199	3.9
308.15	0.6928	1184.8	3.9
308.15	0.8087	1169	3.9
308.15	0.9063	1159.9	3.9
308.15	1	1155.6	3.9
