Measured thermophysical data. Standard enthalpies of formation of 2-aminobenzothiazoles in the crystalline phase by rotating-bomb combustion calorimetry
Source: J. Chem. Thermodyn., 2014, 10.1016/j.jct.2014.01.018
Compound 1: sulfuric acid, H2O4S, InChI=1S/H2O4S/c1-5(2,3)4/h(H2,1,2,3,4)
Compound 2: carbon dioxide, CO2, InChI=1S/CO2/c2-1-3
Compound 3: nitrogen, N2, InChI=1S/N2/c1-2
Compound 4: water, H2O, InChI=1S/H2O/h1H2
Compound 5: oxygen, O2, InChI=1S/O2/c1-2
Compound 6: 2-benzothiazolamine, C7H6N2S, InChI=1S/C7H6N2S/c8-7-9-5-3-1-2-4-6(5)10-7/h1-4H,(H2,8,9), purity 98%
Compound 7: 4-methyl-2-benzothiazolamine, C8H8N2S, InChI=1S/C8H8N2S/c1-5-3-2-4-6-7(5)10-8(9)11-6/h2-4H,1H3,(H2,9,10), purity 98%
Compound 8: 6-methyl-2-benzothiazolamine, C8H8N2S, InChI=1S/C8H8N2S/c1-5-2-3-6-7(4-5)11-8(9)10-6/h2-4H,1H3,(H2,9,10), purity 98%

System: 2-benzothiazolamine; phases: Crystal
Property: Molar heat capacity at constant pressure, J/K/mol (Crystal); method: Small sample (50 mg) DSC
Temperature, K	Pressure, kPa	Molar heat capacity at constant pressure, J/K/mol	uncertainty
298.15	101.325	153.2060604	6.0080808

System: 2-benzothiazolamine; phases: Crystal, Liquid, Air at 1 atmosphere
Property: Normal melting temperature, K (Crystal); method: DTA
Normal melting temperature, K	uncertainty
402.25	0.39

System: 2-benzothiazolamine; phases: Crystal, Liquid, Air at 1 atmosphere
Property: Molar enthalpy of transition or fusion, kJ/mol (Crystal); method: DSC
Molar enthalpy of transition or fusion, kJ/mol	uncertainty
18.14	0.98

System: 4-methyl-2-benzothiazolamine; phases: Crystal
Property: Molar heat capacity at constant pressure, J/K/mol (Crystal); method: Small sample (50 mg) DSC
Temperature, K	Pressure, kPa	Molar heat capacity at constant pressure, J/K/mol	uncertainty
298.15	101.325	182.293746	6.569144

System: 4-methyl-2-benzothiazolamine; phases: Crystal, Liquid, Air at 1 atmosphere
Property: Normal melting temperature, K (Crystal); method: DTA
Normal melting temperature, K	uncertainty
410.65	0.4

System: 4-methyl-2-benzothiazolamine; phases: Crystal, Liquid, Air at 1 atmosphere
Property: Molar enthalpy of transition or fusion, kJ/mol (Crystal); method: DSC
Molar enthalpy of transition or fusion, kJ/mol	uncertainty
15.91	2.45

System: 6-methyl-2-benzothiazolamine; phases: Crystal
Property: Molar heat capacity at constant pressure, J/K/mol (Crystal); method: Small sample (50 mg) DSC
Temperature, K	Pressure, kPa	Molar heat capacity at constant pressure, J/K/mol	uncertainty
298.15	101.325	197.07432	9.853716

System: 6-methyl-2-benzothiazolamine; phases: Crystal, Liquid, Air at 1 atmosphere
Property: Normal melting temperature, K (Crystal); method: DTA
Normal melting temperature, K	uncertainty
412.45	0.5

System: 6-methyl-2-benzothiazolamine; phases: Crystal, Liquid, Air at 1 atmosphere
Property: Molar enthalpy of transition or fusion, kJ/mol (Crystal); method: DSC
Molar enthalpy of transition or fusion, kJ/mol	uncertainty
20.04	1.87

Reaction: -1 2-benzothiazolamine + 1 sulfuric acid + 7 carbon dioxide + 1 nitrogen + 2 water + -10 oxygen
Property: Specific internal energy of reaction at constant volume, J/g
-28419.5

Reaction: -1 4-methyl-2-benzothiazolamine + 1 sulfuric acid + 8 carbon dioxide + 1 nitrogen + 3 water + -11.5 oxygen
Property: Specific internal energy of reaction at constant volume, J/g
-29775.1

Reaction: -1 6-methyl-2-benzothiazolamine + 1 sulfuric acid + 8 carbon dioxide + 1 nitrogen + 3 water + -11.5 oxygen
Property: Specific internal energy of reaction at constant volume, J/g
-29841
