Measured thermophysical data. Experimental densities, dynamic viscosities and surface tensions of the ionic liquids series 1-ethyl-3-methylimizazolium acetate and dicyanamide and their binary and ternary mixtures with water and ethanol at T = (298.15 K to 343.15 K)
Source: J. Chem. Thermodyn., 2012, 10.1016/j.jct.2012.02.027
Compound 1: 1-ethyl-3-methylimidazolium acetate, C8H14N2O2, InChI=1S/C6H11N2.C2H4O2/c1-3-8-5-4-7(2)6-8;1-2(3)4/h4-6H,3H2,1-2H3;1H3,(H,3,4)/q+1;/p-1, purity 97%
Compound 2: 1-ethyl-3-methylimidazolium dicyanamide, C8H11N5, InChI=1S/C6H11N2.C2N3/c1-3-8-5-4-7(2)6-8;3-1-5-2-4/h4-6H,3H2,1-2H3;/q+1;-1, purity 98%
Compound 3: water, H2O, InChI=1S/H2O/h1H2, purity 99.9%
Compound 4: ethanol, C2H6O, InChI=1S/C2H6O/c1-2-3/h3H,2H2,1H3
Compound 5: 1-ethyl-3-methylimidazolium ethyl sulfate, C8H16N2O4S, InChI=1S/C6H11N2.C2H6O4S/c1-3-8-5-4-7(2)6-8;1-2-6-7(3,4)5/h4-6H,3H2,1-2H3;2H2,1H3,(H,3,4,5)/q+1;/p-1

System: 1-ethyl-3-methylimidazolium acetate; phases: Liquid, Gas
Property: Surface tension liquid-gas, N/m (Liquid); method: Ring tensiometer
Temperature, K	Surface tension liquid-gas, N/m	uncertainty
298.15	0.0429	0.0009

System: 1-ethyl-3-methylimidazolium acetate; phases: Liquid
Fixed: Pressure, kPa = 101.325
Property: Viscosity, Pa*s (Liquid); method: Capillary tube (Ostwald; Ubbelohde) method
Temperature, K	Viscosity, Pa*s	uncertainty
298.15	0.13291	0.00607
303.15	0.09798	0.00435
308.15	0.07434	0.00323
313.15	0.05772	0.00249
318.15	0.04576	0.00197
323.15	0.03692	0.00159
328.15	0.03031	0.00131
333.15	0.02519	0.00108
338.15	0.02124	0.00091
343.15	0.0181	0.00078

System: 1-ethyl-3-methylimidazolium acetate; phases: Liquid
Fixed: Pressure, kPa = 101.325
Property: Mass density, kg/m3 (Liquid); method: Vibrating tube method
Temperature, K	Mass density, kg/m3	uncertainty
298.15	1097.78	2.3
303.15	1094.72	2.29
308.15	1091.67	2.28
313.15	1088.62	2.26
318.15	1085.58	2.25
323.15	1082.55	2.23
328.15	1079.53	2.22
333.15	1076.53	2.21
338.15	1073.53	2.2
343.15	1070.54	2.18

System: 1-ethyl-3-methylimidazolium dicyanamide; phases: Liquid, Gas
Property: Surface tension liquid-gas, N/m (Liquid); method: Ring tensiometer
Temperature, K	Surface tension liquid-gas, N/m	uncertainty
298.15	0.0403	0.0008

System: 1-ethyl-3-methylimidazolium dicyanamide; phases: Liquid
Fixed: Pressure, kPa = 101.325
Property: Viscosity, Pa*s (Liquid); method: Capillary tube (Ostwald; Ubbelohde) method
Temperature, K	Viscosity, Pa*s	uncertainty
298.15	0.0149	0.00062
303.15	0.01293	0.00054
308.15	0.01136	0.00047
313.15	0.01007	0.00042
318.15	0.00898	0.00037
323.15	0.00805	0.00033
328.15	0.00726	0.0003
333.15	0.00658	0.00027
338.15	0.00599	0.00025
343.15	0.00548	0.00023

System: 1-ethyl-3-methylimidazolium dicyanamide; phases: Liquid
Fixed: Pressure, kPa = 101.325
Property: Mass density, kg/m3 (Liquid); method: Vibrating tube method
Temperature, K	Mass density, kg/m3	uncertainty
298.15	1101.98	1.05
303.15	1098.66	1.04
308.15	1095.37	1.04
313.15	1092.09	1.03
318.15	1088.83	1.02
323.15	1085.58	1.02
328.15	1082.36	1.01
333.15	1079.15	1
338.15	1075.95	1
343.15	1072.77	0.99

System: water; phases: Liquid, Gas
Property: Surface tension liquid-gas, N/m (Liquid); method: Ring tensiometer
Temperature, K	Surface tension liquid-gas, N/m	uncertainty
298.15	0.0715	0.0009

System: water; phases: Liquid
Property: Viscosity, Pa*s (Liquid); method: Capillary tube (Ostwald; Ubbelohde) method
Temperature, K	Pressure, kPa	Viscosity, Pa*s	uncertainty
298.15	101.325	0.00089	4e-05

System: water; phases: Liquid
Property: Mass density, kg/m3 (Liquid); method: Vibrating tube method
Temperature, K	Pressure, kPa	Mass density, kg/m3	uncertainty
298.15	101.325	997.039	0.059

System: ethanol; phases: Liquid, Gas
Property: Surface tension liquid-gas, N/m (Liquid); method: Ring tensiometer
Temperature, K	Surface tension liquid-gas, N/m	uncertainty
298.15	0.022	0.0007

System: ethanol; phases: Liquid
Property: Viscosity, Pa*s (Liquid); method: Capillary tube (Ostwald; Ubbelohde) method
Temperature, K	Pressure, kPa	Viscosity, Pa*s	uncertainty
298.15	101.325	0.001087	5.2e-05

System: ethanol; phases: Liquid
Property: Mass density, kg/m3 (Liquid); method: Vibrating tube method
Temperature, K	Pressure, kPa	Mass density, kg/m3	uncertainty
298.15	101.325	785.07	3.42

System: 1-ethyl-3-methylimidazolium ethyl sulfate; phases: Liquid, Gas
Property: Surface tension liquid-gas, N/m (Liquid); method: Ring tensiometer
Temperature, K	Surface tension liquid-gas, N/m	uncertainty
298.15	0.0469	0.0014

System: 1-ethyl-3-methylimidazolium ethyl sulfate; phases: Liquid
Property: Viscosity, Pa*s (Liquid); method: Capillary tube (Ostwald; Ubbelohde) method
Temperature, K	Pressure, kPa	Viscosity, Pa*s	uncertainty
298.15	101.325	0.10142	0.00513

System: 1-ethyl-3-methylimidazolium ethyl sulfate; phases: Liquid
Property: Mass density, kg/m3 (Liquid); method: Vibrating tube method
Temperature, K	Pressure, kPa	Mass density, kg/m3	uncertainty
298.15	101.325	1240.184	8.377

System: water + 1-ethyl-3-methylimidazolium dicyanamide; phases: Liquid
Fixed: Pressure, kPa = 101
Property: Viscosity, Pa*s (Liquid); method: Capillary tube (Ostwald; Ubbelohde) method
Temperature, K	Mole fraction of water	Viscosity, Pa*s	uncertainty
298.15	0	0.0149	0.00062
298.15	0.1299	0.01278	0.00053
298.15	0.2248	0.01124	0.00046
298.15	0.3042	0.01014	0.00041
298.15	0.4308	0.00839	0.00034
298.15	0.5429	0.00696	0.00028
298.15	0.6534	0.00541	0.00022
298.15	0.7355	0.00441	0.00018
298.15	0.7944	0.00361	0.00015
298.15	0.8803	0.00246	0.0001
298.15	0.953	0.00147	6e-05
298.15	1	0.00089	4e-05
313.15	0	0.01007	0.00042
313.15	0.1299	0.00871	0.00036
313.15	0.2248	0.00779	0.00032
313.15	0.3042	0.00704	0.00029
313.15	0.4308	0.0058	0.00024
313.15	0.5429	0.00481	0.0002
313.15	0.6534	0.00381	0.00015
313.15	0.7355	0.00311	0.00013
313.15	0.7944	0.00256	0.0001
313.15	0.8803	0.00173	7e-05
313.15	0.953	0.00108	4e-05
313.15	1	0.00065	3e-05
328.15	0	0.00726	0.0003
328.15	0.1299	0.00633	0.00026
328.15	0.2248	0.00565	0.00023
328.15	0.3042	0.00511	0.00021
328.15	0.4308	0.0043	0.00018
328.15	0.5429	0.00358	0.00015
328.15	0.6534	0.00284	0.00012
328.15	0.7355	0.00232	9e-05
328.15	0.7944	0.0019	8e-05
328.15	0.8803	0.00131	5e-05
328.15	0.953	0.00082	3e-05
328.15	1	0.00051	2e-05
343.15	0	0.00548	0.00023
343.15	0.1299	0.00484	0.0002
343.15	0.2248	0.00434	0.00018
343.15	0.3042	0.00394	0.00016
343.15	0.4308	0.00333	0.00014
343.15	0.5429	0.00278	0.00011
343.15	0.6534	0.00223	9e-05
343.15	0.7355	0.0018	7e-05
343.15	0.7944	0.00148	6e-05
343.15	0.8803	0.00104	4e-05
343.15	0.953	0.00066	3e-05
343.15	1	0.00041	2e-05

System: water + 1-ethyl-3-methylimidazolium dicyanamide; phases: Liquid
Fixed: Pressure, kPa = 101
Property: Mass density, kg/m3 (Liquid); method: Vibrating tube method
Temperature, K	Mole fraction of water	Mass density, kg/m3	uncertainty
298.15	0	1101.98	1.05
298.15	0.1299	1099.67	0.82
298.15	0.2248	1097.56	0.67
298.15	0.3042	1095.54	0.55
298.15	0.4308	1091.63	0.4
298.15	0.5429	1086.93	0.29
298.15	0.6534	1080.99	0.2
298.15	0.7355	1073.56	0.15
298.15	0.7944	1066.72	0.13
298.15	0.8803	1051.39	0.12
298.15	0.953	1027.46	0.18
298.15	1	997.04	0.04
313.15	0	1092.09	1.03
313.15	0.1299	1089.76	0.8
313.15	0.2248	1087.59	0.65
313.15	0.3042	1085.52	0.54
313.15	0.4308	1081.52	0.39
313.15	0.5429	1076.71	0.28
313.15	0.6534	1070.67	0.19
313.15	0.7355	1063.16	0.14
313.15	0.7944	1056.34	0.13
313.15	0.8803	1041.42	0.12
313.15	0.953	1019.08	0.17
313.15	1	992.21	0.04
328.15	0	1082.36	1.01
328.15	0.1299	1079.98	0.78
328.15	0.2248	1077.76	0.64
328.15	0.3042	1075.65	0.53
328.15	0.4308	1071.54	0.38
328.15	0.5429	1066.61	0.27
328.15	0.6534	1060.42	0.19
328.15	0.7355	1052.77	0.14
328.15	0.7944	1045.9	0.12
328.15	0.8803	1031.17	0.11
328.15	0.953	1009.92	0.15
328.15	1	985.69	0.04
343.15	0	1072.77	0.99
343.15	0.1299	1070.35	0.77
343.15	0.2248	1068.06	0.62
343.15	0.3042	1065.9	0.52
343.15	0.4308	1061.68	0.37
343.15	0.5429	1056.61	0.26
343.15	0.6534	1050.22	0.18
343.15	0.7355	1042.38	0.14
343.15	0.7944	1035.39	0.12
343.15	0.8803	1020.65	0.11
343.15	0.953	1000.07	0.15
343.15	1	977.77	0.05

System: water + 1-ethyl-3-methylimidazolium acetate; phases: Liquid
Fixed: Pressure, kPa = 101
Property: Viscosity, Pa*s (Liquid); method: Capillary tube (Ostwald; Ubbelohde) method
Temperature, K	Mole fraction of water	Viscosity, Pa*s	uncertainty
298.15	0	0.13291	0.00605
298.15	0.0992	0.10971	0.00484
298.15	0.222	0.08923	0.00382
298.15	0.3233	0.07297	0.00306
298.15	0.4207	0.05952	0.00245
298.15	0.5408	0.04442	0.00182
298.15	0.6135	0.03587	0.00146
298.15	0.6805	0.02875	0.00117
298.15	0.7482	0.0219	0.00089
298.15	0.8134	0.01544	0.00063
298.15	0.9067	0.00616	0.00025
298.15	1	0.00089	4e-05
313.15	0	0.05772	0.00249
313.15	0.0992	0.04947	0.00212
313.15	0.222	0.04226	0.00178
313.15	0.3233	0.03596	0.0015
313.15	0.4207	0.03019	0.00125
313.15	0.5408	0.02349	0.00096
313.15	0.6135	0.01909	0.00078
313.15	0.6805	0.01563	0.00064
313.15	0.7482	0.01199	0.00049
313.15	0.8134	0.00851	0.00035
313.15	0.9067	0.00374	0.00015
313.15	1	0.00065	3e-05
328.15	0	0.03031	0.00131
328.15	0.0992	0.027	0.00115
328.15	0.222	0.02349	0.00099
328.15	0.3233	0.02048	0.00085
328.15	0.4207	0.0175	0.00072
328.15	0.5408	0.01385	0.00057
328.15	0.6135	0.01144	0.00047
328.15	0.6805	0.00943	0.00038
328.15	0.7482	0.00732	0.0003
328.15	0.8134	0.0053	0.00022
328.15	0.9067	0.00254	0.0001
328.15	1	0.00051	2e-05
343.15	0	0.0181	0.00078
343.15	0.0992	0.01646	0.0007
343.15	0.222	0.01452	0.00061
343.15	0.3233	0.01321	0.00055
343.15	0.4207	0.01111	0.00046
343.15	0.5408	0.00898	0.00037
343.15	0.6135	0.00748	0.00031
343.15	0.6805	0.00622	0.00025
343.15	0.7482	0.00487	0.0002
343.15	0.8134	0.00357	0.00015
343.15	0.9067	0.00181	7e-05
343.15	1	0.00041	2e-05

System: water + 1-ethyl-3-methylimidazolium acetate; phases: Liquid
Fixed: Pressure, kPa = 101
Property: Mass density, kg/m3 (Liquid); method: Vibrating tube method
Temperature, K	Mole fraction of water	Mass density, kg/m3	uncertainty
298.15	0	1097.78	2.3
298.15	0.0992	1098.33	1.89
298.15	0.222	1099.6	1.43
298.15	0.3233	1101.35	1.11
298.15	0.4207	1103.42	0.85
298.15	0.5408	1105.9	0.57
298.15	0.6135	1106.48	0.44
298.15	0.6805	1105.86	0.33
298.15	0.7482	1103.95	0.24
298.15	0.8134	1097.9	0.19
298.15	0.9067	1072.45	0.24
298.15	1	997.04	0.04
313.15	0	1088.62	2.26
313.15	0.0992	1089.18	1.85
313.15	0.222	1090.43	1.41
313.15	0.3233	1092.26	1.09
313.15	0.4207	1094.04	0.83
313.15	0.5408	1096.47	0.56
313.15	0.6135	1097.1	0.43
313.15	0.6805	1096.11	0.32
313.15	0.7482	1094	0.23
313.15	0.8134	1087.7	0.18
313.15	0.9067	1062.85	0.22
313.15	1	992.21	0.04
328.15	0	1079.53	2.22
328.15	0.0992	1080.39	1.82
328.15	0.222	1081.38	1.38
328.15	0.3233	1083.22	1.07
328.15	0.4207	1084.88	0.81
328.15	0.5408	1087.18	0.55
328.15	0.6135	1087.62	0.42
328.15	0.6805	1086.39	0.31
328.15	0.7482	1084.04	0.23
328.15	0.8134	1077.42	0.18
328.15	0.9067	1052.88	0.21
328.15	1	985.69	0.04
343.15	0	1070.54	2.18
343.15	0.0992	1071.1	1.79
343.15	0.222	1072.43	1.36
343.15	0.3233	1074.22	1.05
343.15	0.4207	1075.89	0.8
343.15	0.5408	1077.99	0.54
343.15	0.6135	1078.18	0.41
343.15	0.6805	1076.67	0.3
343.15	0.7482	1074.06	0.22
343.15	0.8134	1067.07	0.17
343.15	0.9067	1042.51	0.22
343.15	1	977.77	0.05

System: ethanol + 1-ethyl-3-methylimidazolium acetate; phases: Liquid
Fixed: Pressure, kPa = 101
Property: Viscosity, Pa*s (Liquid); method: Capillary tube (Ostwald; Ubbelohde) method
Temperature, K	Mole fraction of ethanol	Viscosity, Pa*s	uncertainty
298.15	0	0.13291	0.00605
298.15	0.1059	0.09232	0.00409
298.15	0.1638	0.07501	0.0033
298.15	0.2471	0.05423	0.00238
298.15	0.3504	0.03517	0.00156
298.15	0.4165	0.02652	0.00118
298.15	0.4824	0.01982	0.00089
298.15	0.5572	0.01411	0.00064
298.15	0.6646	0.00827	0.00038
298.15	0.7494	0.00535	0.00025
298.15	0.8666	0.00267	0.00013
298.15	1	0.00109	5e-05
313.15	0	0.05772	0.00249
313.15	0.1059	0.04353	0.0019
313.15	0.1638	0.03691	0.00162
313.15	0.2471	0.02848	0.00125
313.15	0.3504	0.0203	0.0009
313.15	0.4165	0.01606	0.00072
313.15	0.4824	0.01248	0.00056
313.15	0.5572	0.00924	0.00042
313.15	0.6646	0.00579	0.00027
313.15	0.7494	0.00389	0.00018
313.15	0.8666	0.00202	9e-05
313.15	1	0.00083	4e-05
328.15	0	0.03031	0.00131
328.15	0.1059	0.02414	0.00105
328.15	0.1638	0.02114	0.00092
328.15	0.2471	0.01722	0.00076
328.15	0.3504	0.01277	0.00057
328.15	0.4165	0.01047	0.00047
328.15	0.4824	0.00844	0.00038
328.15	0.5572	0.00648	0.00029
328.15	0.6646	0.00427	0.0002
328.15	0.7494	0.00296	0.00014
328.15	0.8666	0.00159	7e-05
328.15	1	0.00064	3e-05
343.15	0	0.0181	0.00078
343.15	0.1059	0.01496	0.00065
343.15	0.1638	0.01351	0.00059
343.15	0.2471	0.01124	0.00049
343.15	0.3504	0.00869	0.00039
343.15	0.4165	0.00731	0.00033
343.15	0.4824	0.00605	0.00027
343.15	0.5572	0.00476	0.00022
343.15	0.6646	0.00327	0.00015
343.15	0.7494	0.00233	0.00011
343.15	0.8666	0.00128	6e-05
343.15	1	0.0005	2e-05

System: ethanol + 1-ethyl-3-methylimidazolium acetate; phases: Liquid
Fixed: Pressure, kPa = 101
Property: Mass density, kg/m3 (Liquid); method: Vibrating tube method
Temperature, K	Mole fraction of ethanol	Mass density, kg/m3	uncertainty
298.15	0	1097.78	2.3
298.15	0.1059	1086.81	2.58
298.15	0.1638	1079.68	2.74
298.15	0.2471	1068.14	2.95
298.15	0.3504	1051.16	3.21
298.15	0.4165	1038.74	3.37
298.15	0.4824	1024.87	3.51
298.15	0.5572	1006.85	3.65
298.15	0.6646	975.14	3.81
298.15	0.7494	945.23	3.9
298.15	0.8666	877.9	3.77
298.15	1	785.07	3.42
313.15	0	1088.62	2.26
313.15	0.1059	1077.54	2.54
313.15	0.1638	1070.35	2.69
313.15	0.2471	1058.71	2.9
313.15	0.3504	1041.58	3.15
313.15	0.4165	1029.05	3.3
313.15	0.4824	1015.06	3.44
313.15	0.5572	996.89	3.58
313.15	0.6646	964.88	3.74
313.15	0.7494	934.68	3.82
313.15	0.8666	866.4	3.68
313.15	1	772.02	3.32
328.15	0	1079.53	2.22
328.15	0.1059	1068.36	2.49
328.15	0.1638	1061.11	2.64
328.15	0.2471	1049.38	2.85
328.15	0.3504	1032.1	3.09
328.15	0.4165	1019.47	3.24
328.15	0.4824	1005.37	3.37
328.15	0.5572	987.03	3.51
328.15	0.6646	954.72	3.67
328.15	0.7494	924.2	3.74
328.15	0.8666	854.8	3.59
328.15	1	758.58	3.21
343.15	0	1070.54	2.18
343.15	0.1059	1059.28	2.45
343.15	0.1638	1051.98	2.59
343.15	0.2471	1040.14	2.79
343.15	0.3504	1022.74	3.03
343.15	0.4165	1010	3.17
343.15	0.4824	995.77	3.31
343.15	0.5572	977.26	3.45
343.15	0.6646	944.62	3.59
343.15	0.7494	913.74	3.66
343.15	0.8666	843.2	3.5
343.15	1	744.53	3.1

System: ethanol + 1-ethyl-3-methylimidazolium dicyanamide; phases: Liquid
Fixed: Pressure, kPa = 101
Property: Viscosity, Pa*s (Liquid); method: Capillary tube (Ostwald; Ubbelohde) method
Temperature, K	Mole fraction of ethanol	Viscosity, Pa*s	uncertainty
298.15	0	0.0149	0.00062
298.15	0.102	0.01269	0.00053
298.15	0.1981	0.0108	0.00046
298.15	0.279	0.00927	0.0004
298.15	0.3596	0.00785	0.00034
298.15	0.4741	0.00604	0.00026
298.15	0.6028	0.00442	0.0002
298.15	0.6867	0.00347	0.00016
298.15	0.7678	0.00272	0.00012
298.15	0.8503	0.00208	0.0001
298.15	0.9327	0.00153	7e-05
298.15	1	0.00109	5e-05
313.15	0	0.01007	0.00042
313.15	0.102	0.00869	0.00036
313.15	0.1981	0.00753	0.00032
313.15	0.279	0.00658	0.00028
313.15	0.3596	0.00568	0.00025
313.15	0.4741	0.00445	0.0002
313.15	0.6028	0.00331	0.00015
313.15	0.6867	0.00265	0.00012
313.15	0.7678	0.0021	0.0001
313.15	0.8503	0.00163	8e-05
313.15	0.9327	0.00119	6e-05
313.15	1	0.00083	4e-05
328.15	0	0.00726	0.0003
328.15	0.102	0.00632	0.00027
328.15	0.1981	0.0055	0.00023
328.15	0.279	0.00486	0.00021
328.15	0.3596	0.00429	0.00019
328.15	0.4741	0.00347	0.00015
328.15	0.6028	0.00259	0.00012
328.15	0.6867	0.00209	9e-05
328.15	0.7678	0.00167	8e-05
328.15	0.8503	0.0013	6e-05
328.15	0.9327	0.00093	4e-05
328.15	1	0.00064	3e-05
343.15	0	0.00548	0.00023
343.15	0.102	0.00485	0.0002
343.15	0.1981	0.00425	0.00018
343.15	0.279	0.00381	0.00016
343.15	0.3596	0.00337	0.00015
343.15	0.4741	0.00276	0.00012
343.15	0.6028	0.00213	0.0001
343.15	0.6867	0.0017	8e-05
343.15	0.7678	0.00137	6e-05
343.15	0.8503	0.0011	5e-05
343.15	0.9327	0.00075	4e-05
343.15	1	0.0005	2e-05

System: ethanol + 1-ethyl-3-methylimidazolium dicyanamide; phases: Liquid
Fixed: Pressure, kPa = 101
Property: Mass density, kg/m3 (Liquid); method: Vibrating tube method
Temperature, K	Mole fraction of ethanol	Mass density, kg/m3	uncertainty
298.15	0	1101.98	1.05
298.15	0.102	1091.28	1.35
298.15	0.1981	1079.7	1.66
298.15	0.279	1069.26	1.95
298.15	0.3596	1055.7	2.23
298.15	0.4741	1033.92	2.65
298.15	0.6028	1001.8	3.08
298.15	0.6867	975.18	3.34
298.15	0.7678	942.85	3.54
298.15	0.8503	901.43	3.65
298.15	0.9327	846.39	3.63
298.15	1	785.07	3.42
313.15	0	1092.09	1.03
313.15	0.102	1081.34	1.33
313.15	0.1981	1069.7	1.63
313.15	0.279	1059.21	1.91
313.15	0.3596	1045.58	2.19
313.15	0.4741	1023.67	2.59
313.15	0.6028	991.43	3.02
313.15	0.6867	964.48	3.27
313.15	0.7678	931.85	3.46
313.15	0.8503	889.97	3.57
313.15	0.9327	834.24	3.53
313.15	1	772.02	3.32
328.15	0	1082.36	1.01
328.15	0.102	1071.56	1.3
328.15	0.1981	1059.86	1.6
328.15	0.279	1049.32	1.87
328.15	0.3596	1035.61	2.14
328.15	0.4741	1013.56	2.54
328.15	0.6028	981.05	2.96
328.15	0.6867	953.88	3.21
328.15	0.7678	920.88	3.39
328.15	0.8503	878.48	3.48
328.15	0.9327	821.95	3.44
328.15	1	758.58	3.21
343.15	0	1072.77	0.99
343.15	0.102	1061.92	1.27
343.15	0.1981	1050.17	1.57
343.15	0.279	1039.56	1.83
343.15	0.3596	1025.77	2.1
343.15	0.4741	1003.56	2.48
343.15	0.6028	970.68	2.9
343.15	0.6867	943.33	3.14
343.15	0.7678	909.93	3.31
343.15	0.8503	866.93	3.4
343.15	0.9327	809.4	3.34
343.15	1	744.53	3.1

System: ethanol + water + 1-ethyl-3-methylimidazolium acetate; phases: Liquid
Fixed: Pressure, kPa = 101
Property: Viscosity, Pa*s (Liquid); method: Capillary tube (Ostwald; Ubbelohde) method
Temperature, K	Mole fraction of water	Mole fraction of ethanol	Viscosity, Pa*s	uncertainty
298.15	0.1068	0.4124	0.02057	0.0009
298.15	0.1068	0.5914	0.00843	0.00038
298.15	0.1967	0.7052	0.00319	0.00015
298.15	0.2523	0.463	0.01007	0.00044
298.15	0.3044	0.2002	0.03185	0.00135
298.15	0.3101	0.2242	0.02803	0.00119
298.15	0.4047	0.2995	0.01414	0.0006
298.15	0.4053	0.4916	0.00447	0.00019
298.15	0.6021	0.2489	0.00823	0.00034
298.15	0.6879	0.2635	0.0038	0.00016
298.15	0.7408	0.1179	0.00938	0.00038
298.15	0.8465	0.1044	0.00375	0.00016
313.15	0.1068	0.4124	0.0127	0.00056
313.15	0.2523	0.463	0.00666	0.00029
313.15	0.3044	0.2002	0.01816	0.00077
313.15	0.3101	0.2242	0.01628	0.00069
313.15	0.4047	0.2995	0.00883	0.00037
313.15	0.4053	0.4916	0.00299	0.00013
313.15	0.6021	0.2489	0.00506	0.00021
313.15	0.6879	0.2635	0.00241	0.0001
313.15	0.7408	0.1179	0.00557	0.00023
313.15	0.8465	0.1044	0.00234	0.0001
328.15	0.1068	0.4124	0.00857	0.00038
328.15	0.3044	0.2002	0.01145	0.00048
328.15	0.3101	0.2242	0.01041	0.00044
328.15	0.4047	0.2995	0.00591	0.00025
328.15	0.6879	0.2635	0.00164	7e-05
328.15	0.7408	0.1179	0.00358	0.00015
328.15	0.8465	0.1044	0.0016	7e-05
343.15	0.1068	0.4124	0.00609	0.00027
343.15	0.3044	0.2002	0.00786	0.00033
343.15	0.3101	0.2242	0.00722	0.00031
343.15	0.4047	0.2995	0.0042	0.00018
343.15	0.6879	0.2635	0.00119	5e-05
343.15	0.7408	0.1179	0.00249	0.0001
343.15	0.8465	0.1044	0.00115	5e-05

System: ethanol + water + 1-ethyl-3-methylimidazolium acetate; phases: Liquid
Fixed: Pressure, kPa = 101
Property: Mass density, kg/m3 (Liquid); method: Vibrating tube method
Temperature, K	Mole fraction of water	Mole fraction of ethanol	Mass density, kg/m3	uncertainty
298.15	0.1068	0.4124	1032.28	2.79
298.15	0.1068	0.5914	980.1	3.06
298.15	0.1967	0.7052	894.36	2.55
298.15	0.2523	0.463	998.72	2.15
298.15	0.3044	0.2002	1067.07	1.53
298.15	0.3101	0.2242	1061.76	1.55
298.15	0.4047	0.2995	1032.63	1.34
298.15	0.4053	0.4916	936.42	1.49
298.15	0.6021	0.2489	1014.17	0.76
298.15	0.6879	0.2635	959.83	0.61
298.15	0.7408	0.1179	1050	0.48
298.15	0.8465	0.1044	1010.34	0.4
313.15	0.1068	0.4124	1022.56	2.73
313.15	0.2523	0.463	988.61	2.11
313.15	0.3044	0.2002	1057.68	1.5
313.15	0.3101	0.2242	1052.32	1.52
313.15	0.4047	0.2995	1022.74	1.31
313.15	0.4053	0.4916	925.08	1.46
313.15	0.6021	0.2489	1003.5	0.75
313.15	0.6879	0.2635	948.17	0.61
313.15	0.7408	0.1179	1039.44	0.48
313.15	0.8465	0.1044	999.95	0.4
328.15	0.1068	0.4124	1012.94	2.68
328.15	0.3044	0.2002	1048.31	1.47
328.15	0.3101	0.2242	1042.89	1.49
328.15	0.4047	0.2995	1012.79	1.27
328.15	0.6879	0.2635	936.13	0.58
328.15	0.7408	0.1179	1028.63	0.48
328.15	0.8465	0.1044	989.08	0.4
343.15	0.1068	0.4124	1003.37	2.62
343.15	0.3044	0.2002	1038.96	1.45
343.15	0.3101	0.2242	1033.47	1.47
343.15	0.4047	0.2995	1002.75	1.24
343.15	0.6879	0.2635	923.67	0.58
343.15	0.7408	0.1179	1017.58	0.47
343.15	0.8465	0.1044	977.74	0.41

System: ethanol + water + 1-ethyl-3-methylimidazolium dicyanamide; phases: Liquid
Fixed: Pressure, kPa = 101
Property: Viscosity, Pa*s (Liquid); method: Capillary tube (Ostwald; Ubbelohde) method
Temperature, K	Mole fraction of water	Mole fraction of ethanol	Viscosity, Pa*s	uncertainty
298.15	0.1385	0.379	0.00589	0.00025
298.15	0.2046	0.6949	0.00227	0.0001
298.15	0.3032	0.4202	0.004	0.00017
298.15	0.3486	0.1191	0.00667	0.00027
298.15	0.404	0.2881	0.00463	0.00019
298.15	0.4093	0.4889	0.00277	0.00012
298.15	0.6015	0.2484	0.00339	0.00014
298.15	0.6986	0.2507	0.00265	0.00011
298.15	0.7083	0.2007	0.00287	0.00012
298.15	0.7595	0.0957	0.00315	0.00013
298.15	0.8359	0.1156	0.00225	9e-05
313.15	0.1385	0.379	0.00431	0.00018
313.15	0.3032	0.4202	0.00292	0.00012
313.15	0.3486	0.1191	0.00477	0.0002
313.15	0.404	0.2881	0.00333	0.00014
313.15	0.4093	0.4889	0.00195	8e-05
313.15	0.6015	0.2484	0.00236	0.0001
313.15	0.6986	0.2507	0.00176	7e-05
313.15	0.7083	0.2007	0.002	8e-05
313.15	0.7595	0.0957	0.00221	9e-05
313.15	0.8359	0.1156	0.00152	6e-05
328.15	0.1385	0.379	0.0033	0.00014
328.15	0.3032	0.4202	0.00223	0.0001
328.15	0.3486	0.1191	0.00364	0.00015
328.15	0.404	0.2881	0.00252	0.00011
328.15	0.6015	0.2484	0.00174	7e-05
328.15	0.6986	0.2507	0.00125	5e-05
328.15	0.7083	0.2007	0.00142	6e-05
343.15	0.1385	0.379	0.00263	0.00011
343.15	0.3032	0.4202	0.00177	8e-05
343.15	0.3486	0.1191	0.00285	0.00012
343.15	0.404	0.2881	0.00202	8e-05
343.15	0.6015	0.2484	0.00134	6e-05
343.15	0.6986	0.2507	0.00094	4e-05
343.15	0.7083	0.2007	0.00108	4e-05

System: ethanol + water + 1-ethyl-3-methylimidazolium dicyanamide; phases: Liquid
Fixed: Pressure, kPa = 101
Property: Mass density, kg/m3 (Liquid); method: Vibrating tube method
Temperature, K	Mole fraction of water	Mole fraction of ethanol	Mass density, kg/m3	uncertainty
298.15	0.1385	0.379	1039.72	1.89
298.15	0.2046	0.6949	899.79	2.39
298.15	0.3032	0.4202	1002.8	1.52
298.15	0.3486	0.1191	1064.03	0.71
298.15	0.404	0.2881	1028.54	1
298.15	0.4093	0.4889	935.14	1.37
298.15	0.6015	0.2484	1001.17	0.62
298.15	0.6986	0.2507	957.81	0.54
298.15	0.7083	0.2007	990.42	0.48
298.15	0.7595	0.0957	1033.09	0.25
298.15	0.8359	0.1156	992.82	0.33
313.15	0.1385	0.379	1029.47	1.84
313.15	0.3032	0.4202	992.19	1.49
313.15	0.3486	0.1191	1053.84	0.7
313.15	0.404	0.2881	1018.07	0.98
313.15	0.4093	0.4889	923.54	1.34
313.15	0.6015	0.2484	990.34	0.62
313.15	0.6986	0.2507	946.42	0.54
313.15	0.7083	0.2007	979.58	0.49
313.15	0.7595	0.0957	1022.66	0.26
313.15	0.8359	0.1156	982.93	0.33
328.15	0.1385	0.379	1019.34	1.8
328.15	0.3032	0.4202	981.61	1.46
328.15	0.3486	0.1191	1043.78	0.68
328.15	0.404	0.2881	1007.65	0.94
328.15	0.6015	0.2484	979.36	0.62
328.15	0.6986	0.2507	934.61	0.54
328.15	0.7083	0.2007	968.43	0.49
343.15	0.1385	0.379	1009.32	1.77
343.15	0.3032	0.4202	971.04	1.44
343.15	0.3486	0.1191	1033.82	0.67
343.15	0.404	0.2881	997.26	0.92
343.15	0.6015	0.2484	968.21	0.64
343.15	0.6986	0.2507	922.34	0.54
343.15	0.7083	0.2007	956.95	0.49
