Measured thermophysical data. Accurate (p,rho,T) data for two new (carbon dioxide + nitrogen) mixtures from (250 to 400) K at pressures up to 20 MPa
Source: J. Chem. Thermodyn., 2012, 10.1016/j.jct.2011.12.035
Compound 1: nitrogen, N2, InChI=1S/N2/c1-2, purity 99.9997%
Compound 2: carbon dioxide, CO2, InChI=1S/CO2/c2-1-3, purity 99.995%

System: carbon dioxide + nitrogen; phases: Gas
Property: 2nd virial coefficient, m3/mol (Gas); method: Derived graphically
Temperature, K	Mole fraction of carbon dioxide	2nd virial coefficient, m3/mol	uncertainty
250	0.1	-2.749e-05	1.47e-06
250	0.15	-3.343e-05	1.78e-06
250	0.2	-3.886e-05	2.07e-06
275	0.1	-1.925e-05	1.03e-06
275	0.15	-2.411e-05	1.29e-06
275	0.2	-2.903e-05	1.55e-06
275	0.5	-6.522e-05	3.48e-06
300	0.1	-1.28e-05	6.8e-07
300	0.15	-1.713e-05	9.1e-07
300	0.2	-2.069e-05	1.1e-06
300	0.5	-5.184e-05	2.77e-06
325	0.1	-7.44e-06	4e-07
325	0.15	-1.125e-05	6e-07
325	0.2	-1.46e-05	7.8e-07
325	0.5	-4.107e-05	2.19e-06
350	0.1	-2.89e-06	1.5e-07
350	0.15	-6.45e-06	3.4e-07
350	0.2	-9.25e-06	4.9e-07
350	0.5	-3.21e-05	1.71e-06
375	0.1	1e-06	5e-08
375	0.15	-1.96e-06	1e-07
375	0.2	-4.87e-06	2.6e-07
375	0.5	-2.516e-05	1.34e-06
400	0.1	3.9e-06	2.1e-07
400	0.15	1.53e-06	8e-08
400	0.2	-1.31e-06	7e-08
400	0.5	-1.938e-05	1.03e-06

System: carbon dioxide + nitrogen; phases: Gas
Property: Mass density, kg/m3 (Gas); method: Buoyancy - hydrostatic balance with magnetic suspension - one sinker
Temperature, K	Pressure, kPa	Mole fraction of carbon dioxide	Mass density, kg/m3	uncertainty
250.015	994.481	0.20004	15.21	0.037
250.018	1979.28	0.20004	30.827	0.075
250.018	4032.44	0.20004	65.204	0.158
250.019	6013.2	0.20004	100.543	0.244
250.019	16026.7	0.20004	288.385	0.697
250.02	8000.94	0.20004	137.785	0.334
250.02	10004.1	0.20004	176.401	0.427
250.02	12010.2	0.20004	215.101	0.521
250.02	14017.5	0.20004	252.741	0.611
250.02	18038.7	0.20004	321.449	0.777
250.02	19632.9	0.20004	345.629	0.835
250.044	2996.27	0.20004	47.559	0.116
250.044	4997.48	0.20004	82.144	0.199
250.046	488.236	0.20004	7.397	0.018
250.046	997.911	0.20004	15.262	0.037
250.046	8998.81	0.20004	156.893	0.38
250.046	13004.9	0.20004	233.864	0.566
250.046	17011.6	0.20004	304.796	0.737
250.047	15008.5	0.20004	270.511	0.654
250.047	17639.3	0.20004	314.981	0.761
250.048	6997.72	0.20004	118.767	0.288
250.049	11000.9	0.20004	195.63	0.474
274.985	19429.7	0.20004	290.888	0.709
274.986	18043.1	0.20004	272.044	0.659
274.987	998.226	0.20004	13.8	0.034
274.988	16009.1	0.20004	243.011	0.589
274.989	1987.81	0.20004	27.804	0.067
274.989	12004.8	0.20004	182.017	0.441
274.989	14005.7	0.20004	213.01	0.516
274.99	7998.88	0.20004	118.772	0.288
274.991	3995.64	0.20004	57.18	0.139
274.991	5997.21	0.20004	87.563	0.212
274.991	10000.3	0.20004	150.404	0.365
275.023	996.577	0.500985	16.162	0.039
275.023	1993.31	0.500985	33.323	0.081
275.023	4998.73	0.500985	92.411	0.225
275.023	5999.52	0.500985	114.98	0.28
275.023	7003.35	0.500985	139.278	0.34
275.023	8006	0.500985	165.225	0.402
275.023	9125.5	0.500985	196.081	0.479
275.023	10028.8	0.500985	222.169	0.541
275.024	2996.62	0.500985	51.754	0.126
275.024	3997.39	0.500985	71.374	0.173
275.024	11018.3	0.500985	251.523	0.614
275.025	12025.1	0.500985	281.541	0.685
275.025	13025.3	0.500985	310.916	0.757
275.027	14031.6	0.500985	339.405	0.824
275.027	15032.1	0.500985	366.266	0.889
275.029	15925.7	0.500985	388.806	0.942
275.037	17027	0.500985	414.634	1.004
275.039	17563	0.500985	426.437	1.032
299.95	11032.2	0.20004	146.5	0.355
299.951	4996.27	0.20004	64.833	0.157
299.951	6997.12	0.20004	91.756	0.222
299.951	8997.61	0.20004	118.906	0.288
299.951	13036.9	0.20004	173.362	0.42
299.951	15001.7	0.20004	199.149	0.482
299.953	2996.2	0.20004	38.386	0.093
299.953	17076.8	0.20004	225.549	0.546
299.954	18150.9	0.20004	238.85	0.58
299.956	984.743	0.20004	12.423	0.03
299.957	492.877	0.20004	6.193	0.015
299.964	995.865	0.500985	14.686	0.036
299.965	15998.5	0.500985	308.658	0.749
299.966	1995.12	0.500985	30.061	0.073
299.966	2998.82	0.500985	46.195	0.112
299.966	4000.17	0.500985	62.993	0.153
299.966	6023.74	0.500985	99.216	0.241
299.966	12998.2	0.500985	244.208	0.593
299.967	5015.81	0.500985	80.785	0.196
299.968	11994.8	0.500985	222.215	0.541
299.968	13996.2	0.500985	266	0.647
299.968	14995.7	0.500985	287.528	0.698
299.969	7004.9	0.500985	117.9	0.286
299.969	8009.05	0.500985	137.74	0.335
299.969	10996.5	0.500985	200.469	0.487
299.969	17997.2	0.500985	348.774	0.844
299.969	19020.4	0.500985	368.091	0.891
299.97	9014.33	0.500985	158.299	0.385
299.971	16995.8	0.500985	329.04	0.798
299.971	19969.6	0.500985	385.259	0.933
299.973	9993.3	0.500985	178.967	0.435
299.973	9996.5	0.500985	178.959	0.435
324.959	1994.04	0.20004	23.265	0.056
324.959	7997.47	0.20004	95.062	0.23
324.96	1994.09	0.20004	23.265	0.056
324.96	3976.58	0.20004	46.775	0.113
324.96	5997.1	0.20004	70.986	0.172
324.96	9999.31	0.20004	119.106	0.289
324.961	12001.3	0.20004	142.924	0.346
324.961	14001.5	0.20004	166.343	0.403
324.962	16003.6	0.20004	189.249	0.458
324.962	18002	0.20004	211.461	0.512
324.963	19963.8	0.20004	232.536	0.565
324.98	10003.6	0.500985	153.908	0.374
324.98	11001.2	0.500985	171.162	0.415
324.98	17012.4	0.500985	275.602	0.668
324.98	18018.1	0.500985	292.404	0.708
324.98	19023.1	0.500985	308.813	0.75
324.98	19435.7	0.500985	315.426	0.758
324.981	6998.07	0.500985	103.583	0.251
324.981	7998.25	0.500985	120.002	0.291
324.981	9001.91	0.500985	136.826	0.332
324.981	12005.1	0.500985	188.662	0.458
324.981	14010.9	0.500985	223.826	0.543
324.981	14990.8	0.500985	240.922	0.585
324.981	16017.5	0.500985	258.66	0.627
324.982	3995.31	0.500985	56.615	0.137
324.982	4997.25	0.500985	71.872	0.174
324.982	5995.09	0.500985	87.485	0.212
324.982	13008.4	0.500985	206.25	0.501
324.983	974.072	0.500985	13.176	0.035
324.983	2996.43	0.500985	41.83	0.102
324.984	1991.47	0.500985	27.367	0.066
349.947	5996.52	0.20004	65.117	0.158
349.948	3995.94	0.20004	43.283	0.105
349.948	9978.81	0.20004	108.381	0.263
349.948	11996.4	0.20004	129.976	0.315
349.948	13995.2	0.20004	151.019	0.366
349.948	15999.2	0.20004	171.67	0.416
349.948	17993.4	0.20004	191.695	0.464
349.948	19820.5	0.20004	209.531	0.508
349.949	1995.47	0.20004	21.523	0.052
349.949	7996.24	0.20004	86.91	0.211
349.96	7995.47	0.500985	107.379	0.26
349.96	8996.22	0.500985	121.83	0.295
349.961	2996.38	0.500985	38.326	0.094
349.961	5996.22	0.500985	79.074	0.192
349.961	6995.92	0.500985	93.129	0.226
349.961	9996.33	0.500985	136.421	0.331
349.961	10997.7	0.500985	151.155	0.367
349.961	12998.2	0.500985	180.741	0.438
349.961	14000.1	0.500985	195.573	0.474
349.961	16996.3	0.500985	239.453	0.58
349.961	17995.7	0.500985	253.79	0.615
349.961	19977.1	0.500985	281.556	0.683
349.961	9996.33	0.500985	136.421	0.331
349.962	983.48	0.500985	12.303	0.035
349.962	1988.3	0.500985	25.152	0.061
349.962	3997.02	0.500985	51.667	0.125
349.962	4995.93	0.500985	65.24	0.159
349.962	11997.2	0.500985	165.911	0.402
349.962	14997.5	0.500985	210.29	0.51
349.962	15994.6	0.500985	224.908	0.545
349.962	18997.3	0.500985	267.945	0.649
374.94	981.916	0.20004	9.845	0.024
374.94	3995.7	0.20004	40.155	0.097
374.94	13988.1	0.20004	138.676	0.336
374.941	1992.4	0.20004	19.995	0.049
374.941	5995.14	0.20004	60.236	0.146
374.941	7995.34	0.20004	80.217	0.194
374.941	11990	0.20004	119.489	0.289
374.941	17846.6	0.20004	174.574	0.422
374.942	9992.97	0.20004	99.987	0.242
374.942	16023.4	0.20004	157.817	0.382
374.942	19902.7	0.20004	192.989	0.467
374.951	1987.85	0.500985	23.329	0.057
374.951	19119.2	0.500985	240.354	0.582
374.952	3994.75	0.500985	47.603	0.115
374.952	4993.26	0.500985	59.918	0.146
374.952	6995.03	0.500985	85.031	0.207
374.953	2995.68	0.500985	35.439	0.088
374.953	5994.58	0.500985	72.415	0.176
374.953	8965.27	0.500985	110.186	0.267
374.953	9995.86	0.500985	123.471	0.299
374.953	11992.5	0.500985	149.335	0.362
374.953	14993.7	0.500985	188.172	0.456
374.953	15989.6	0.500985	200.942	0.487
374.953	16990.1	0.500985	213.677	0.518
374.953	17987.8	0.500985	226.253	0.548
374.953	19940.8	0.500985	250.44	0.609
374.953	9995.86	0.500985	123.471	0.299
374.954	987.061	0.500985	11.492	0.028
374.954	8053.62	0.500985	98.499	0.239
374.954	10995.2	0.500985	136.416	0.331
374.954	12991.5	0.500985	162.294	0.393
374.954	13994.7	0.500985	175.285	0.425
400.008	996.681	0.20004	9.356	0.023
400.01	1978.16	0.20004	18.57	0.045
400.011	15981.2	0.20004	145.821	0.353
400.011	19979	0.20004	179.326	0.434
400.012	3994.03	0.20004	37.452	0.091
400.012	5994.66	0.20004	56.097	0.136
400.012	7993.79	0.20004	74.576	0.181
400.012	9990.56	0.20004	92.826	0.225
400.012	11989.9	0.20004	110.835	0.268
400.012	13986.6	0.20004	128.512	0.311
400.012	17979.1	0.20004	162.772	0.394
400.017	8994.59	0.500985	101.571	0.246
400.018	975.887	0.500985	10.626	0.026
400.018	2995.64	0.500985	32.992	0.083
400.018	7992.41	0.500985	89.956	0.218
400.018	11986.4	0.500985	136.359	0.33
400.018	13985.9	0.500985	159.545	0.387
400.018	15985	0.500985	182.526	0.442
400.018	16983.8	0.500985	193.894	0.47
400.018	18983.1	0.500985	216.347	0.524
400.019	1987.61	0.500985	21.767	0.053
400.019	3980.88	0.500985	44.058	0.107
400.019	6991.41	0.500985	78.405	0.191
400.019	9979.78	0.500985	113.018	0.274
400.019	10987.4	0.500985	124.751	0.302
400.019	12983.7	0.500985	147.944	0.358
400.019	14983.9	0.500985	171.05	0.414
400.019	9979.78	0.500985	113.018	0.274
400.02	4993.16	0.500985	55.527	0.136
400.02	5994.2	0.500985	66.95	0.162
400.02	17964.7	0.500985	204.97	0.496
400.02	19960.3	0.500985	227.147	0.55
