Measured thermophysical data. The H20-D20 solvent isotope effects on the molar volumes of alkali-chloride solutions at T = (288.15, 298.15, and 308.15) K
Source: J. Chem. Thermodyn., 2007, 10.1016/j.jct.2007.05.002
Compound 1: lithium chloride, ClLi, InChI=1S/ClH.Li/h1H;/q;+1/p-1, purity 99.9%
Compound 2: sodium chloride, ClNa, InChI=1S/ClH.Na/h1H;/q;+1/p-1
Compound 3: potassium chloride, ClK, InChI=1S/ClH.K/h1H;/q;+1/p-1
Compound 4: cesium chloride, ClCs, InChI=1S/ClH.Cs/h1H;/q;+1/p-1
Compound 5: water-d2, D2O, InChI=1S/H2O/h1H2/i/hD2, purity 99.83%
Compound 6: water, H2O, InChI=1S/H2O/h1H2

System: lithium chloride + water-d2; phases: Liquid
Fixed: Pressure, kPa = 101
Property: Mass density, kg/m3 (Liquid); method: VIBTUB:UFactor:2
Temperature, K	Molality, mol/kg of lithium chloride	Mass density, kg/m3	uncertainty
288.15	0.16011	3.851	0.091
288.15	0.35997	8.484	0.1
288.15	0.63995	14.744	0.112
288.15	1.0005	22.5	0.128
288.15	1.4411	31.614	0.146
288.15	1.959	41.855	0.167
288.15	2.5615	53.163	0.189
288.15	3.243	65.302	0.214
288.15	4.0019	78.027	0.24
288.15	5.0008	93.719	0.272
298.15	0.16011	3.721	0.09
298.15	0.35997	8.217	0.099
298.15	0.63995	14.332	0.111
298.15	1.0005	21.946	0.126
298.15	1.4411	30.898	0.144
298.15	1.959	40.904	0.165
298.15	2.5615	52.105	0.187
298.15	3.243	64.126	0.212
298.15	4.0019	76.808	0.237
298.15	5.0008	92.76	0.27
308.15	0.16011	3.659	0.09
308.15	0.35997	8.099	0.099
308.15	0.63995	14.188	0.111
308.15	1.0005	21.713	0.126
308.15	1.4411	30.622	0.144
308.15	1.959	40.682	0.164
308.15	2.5615	51.786	0.187
308.15	3.243	63.727	0.211
308.15	4.0019	76.525	0.237
308.15	5.0008	92.154	0.269

System: lithium chloride + water; phases: Liquid
Fixed: Pressure, kPa = 101
Property: Mass density, kg/m3 (Liquid); method: VIBTUB:UFactor:2
Temperature, K	Molality, mol/kg of lithium chloride	Mass density, kg/m3	uncertainty
288.15	0.15998	3.994	0.091
288.15	0.35996	8.848	0.101
288.15	0.64025	15.479	0.114
288.15	1.0002	23.76	0.13
288.15	1.4416	33.502	0.15
288.15	1.9608	44.569	0.172
288.15	2.5617	56.78	0.197
288.15	3.2393	69.972	0.224
288.15	4.0015	84.196	0.252
288.15	5.0008	101.747	0.288
298.15	0.15998	3.947	0.091
298.15	0.35996	8.749	0.101
298.15	0.64025	15.314	0.114
298.15	1.0002	23.488	0.13
298.15	1.4416	33.142	0.149
298.15	1.9608	44.118	0.171
298.15	2.5617	56.328	0.196
298.15	3.2393	69.439	0.223
298.15	4.0015	83.641	0.251
298.15	5.0008	101.285	0.287
308.15	0.15998	3.945	0.091
308.15	0.35996	8.75	0.101
308.15	0.64025	15.308	0.114
308.15	1.0002	23.45	0.13
308.15	1.4416	33.123	0.149
308.15	1.9608	44.058	0.171
308.15	2.5617	56.277	0.196
308.15	3.2393	69.395	0.222
308.15	4.0015	83.5	0.251
308.15	5.0008	100.894	0.286

System: sodium chloride + water-d2; phases: Liquid
Fixed: Pressure, kPa = 101
Property: Mass density, kg/m3 (Liquid); method: VIBTUB:UFactor:2
Temperature, K	Molality, mol/kg of sodium chloride	Mass density, kg/m3	uncertainty
288.15	0.15988	6.624	0.102
288.15	0.36022	14.667	0.117
288.15	0.63975	25.56	0.138
288.15	0.99996	39.206	0.164
288.15	1.4408	55.189	0.196
288.15	1.963	73.419	0.232
288.15	2.5616	93.188	0.272
288.15	3.2359	114.443	0.315
288.15	4.0036	137.154	0.361
298.15	0.15988	6.38	0.101
298.15	0.36022	14.165	0.115
298.15	0.63975	24.697	0.136
298.15	0.99996	37.891	0.161
298.15	1.4408	53.435	0.192
298.15	1.963	71.192	0.228
298.15	2.5616	90.599	0.267
298.15	3.2359	111.403	0.309
298.15	4.0036	133.78	0.354
298.15	4.9997	160.769	0.409
308.15	0.15988	6.202	0.1
308.15	0.36022	13.795	0.114
308.15	0.63975	24.099	0.134
308.15	0.99996	37.041	0.16
308.15	1.4408	52.32	0.19
308.15	1.963	69.741	0.225
308.15	2.5616	88.819	0.263
308.15	3.2359	109.293	0.304
308.15	4.0036	131.346	0.349
308.15	4.9997	158.175	0.404

System: sodium chloride + water; phases: Liquid
Fixed: Pressure, kPa = 101
Property: Mass density, kg/m3 (Liquid); method: VIBTUB:UFactor:2
Temperature, K	Molality, mol/kg of sodium chloride	Mass density, kg/m3	uncertainty
288.15	0.16004	6.723	0.102
288.15	0.36008	14.914	0.118
288.15	0.6403	26.115	0.139
288.15	1.0003	40.107	0.166
288.15	1.4422	56.739	0.199
288.15	1.9608	75.503	0.237
288.15	2.5619	96.375	0.279
288.15	3.2436	118.892	0.324
288.15	4.0049	142.751	0.373
288.15	5.0014	172.019	0.432
298.15	0.16004	6.545	0.102
298.15	0.36008	14.544	0.117
298.15	0.6403	25.481	0.137
298.15	1.0003	39.171	0.164
298.15	1.4422	55.432	0.196
298.15	1.9608	73.895	0.233
298.15	2.5619	94.388	0.275
298.15	3.2436	116.646	0.32
298.15	4.0049	140.279	0.367
298.15	5.0014	169.197	0.426
308.15	0.16004	6.419	0.101
308.15	0.36008	14.286	0.116
308.15	0.6403	25.055	0.136
308.15	1.0003	38.553	0.163
308.15	1.4422	54.608	0.195
308.15	1.9608	72.799	0.231
308.15	2.5619	93.098	0.272
308.15	3.2436	115.061	0.316
308.15	4.0049	138.352	0.364
308.15	5.0014	167.243	0.422

System: potassium chloride + water-d2; phases: Liquid
Fixed: Pressure, kPa = 101
Property: Mass density, kg/m3 (Liquid); method: VIBTUB:UFactor:2
Temperature, K	Molality, mol/kg of potassium chloride	Mass density, kg/m3	uncertainty
288.15	0.16	7.311	0.105
288.15	0.35997	16.152	0.121
288.15	0.64056	28.187	0.144
288.15	1.00022	43.069	0.173
288.15	1.4412	60.474	0.207
288.15	1.9612	79.987	0.246
288.15	2.5554	101.077	0.288
288.15	3.2418	123.92	0.334
288.15	4.0001	147.371	0.382
298.15	0.16	7.108	0.104
298.15	0.35997	15.716	0.12
298.15	0.64056	27.467	0.142
298.15	1.00022	41.965	0.17
298.15	1.4412	59.044	0.204
298.15	1.9612	78.173	0.242
298.15	2.5554	98.918	0.284
298.15	3.2418	121.481	0.329
298.15	4.0001	144.824	0.377
308.15	0.16	6.971	0.103
308.15	0.35997	15.432	0.121
308.15	0.64056	28.976	0.145
308.15	1.00022	41.266	0.168
308.15	1.4412	58.104	0.202
308.15	1.9612	77.009	0.24
308.15	2.5554	97.519	0.281
308.15	3.2418	119.844	0.326
308.15	4.0001	142.902	0.373

System: potassium chloride + water; phases: Liquid
Fixed: Pressure, kPa = 101
Property: Mass density, kg/m3 (Liquid); method: VIBTUB:UFactor:2
Temperature, K	Molality, mol/kg of potassium chloride	Mass density, kg/m3	uncertainty
288.15	0.1598	7.596	0.106
288.15	0.3599	16.854	0.123
288.15	0.63995	29.485	0.147
288.15	1	45.171	0.177
288.15	1.4395	63.636	0.214
288.15	1.9608	84.476	0.255
288.15	2.561	107.282	0.301
288.15	3.2398	131.603	0.35
288.15	4.0002	157.287	0.402
298.15	0.1598	7.463	0.106
298.15	0.3599	16.569	0.122
298.15	0.63995	28.991	0.146
298.15	1	44.46	0.176
298.15	1.4395	62.597	0.212
298.15	1.9608	83.203	0.253
298.15	2.561	105.78	0.298
298.15	3.2398	129.878	0.347
298.15	4.0002	155.295	0.398
308.15	0.1598	7.365	0.105
308.15	0.3599	16.37	0.122
308.15	0.63995	28.658	0.145
308.15	1	43.962	0.175
308.15	1.4395	61.927	0.21
308.15	1.9608	82.316	0.251
308.15	2.561	104.658	0.296
308.15	3.2398	128.572	0.344
308.15	4.0002	153.784	0.395

System: cesium chloride + water-d2; phases: Liquid
Fixed: Pressure, kPa = 101
Property: Mass density, kg/m3 (Liquid); method: VIBTUB:UFactor:2
Temperature, K	Molality, mol/kg of cesium chloride	Mass density, kg/m3	uncertainty
288.15	0.09996	12.514	0.163
288.15	0.15998	19.938	0.173
288.15	0.19994	24.869	0.179
288.15	0.3596	44.276	0.209
288.15	0.49993	61.102	0.237
288.15	0.63999	77.6	0.265
288.15	0.99744	118.8	0.342
288.15	1.0012	119.183	0.342
288.15	1.4413	167.951	0.437
288.15	1.69491	195.132	0.49
288.15	1.9593	222.744	0.544
288.15	2.5533	282.503	0.664
288.15	2.99579	325.007	0.749
288.15	3.2294	346.666	0.792
288.15	4	415.116	0.931
298.15	0.09996	12.38	0.161
298.15	0.15998	19.718	0.171
298.15	0.19994	24.592	0.177
298.15	0.3596	43.791	0.207
298.15	0.49993	60.428	0.235
298.15	0.63999	76.775	0.263
298.15	0.99744	117.518	0.339
298.15	1.0012	117.956	0.34
298.15	1.4413	166.224	0.433
298.15	1.69491	193.106	0.485
298.15	1.9593	220.504	0.539
298.15	2.5533	279.669	0.658
298.15	2.99579	321.654	0.742
298.15	3.2294	343.248	0.785
298.15	4	411.325	0.923
298.15	5.00026	493.065	1.089
308.15	0.09996	12.264	0.16
308.15	0.15998	19.544	0.17
308.15	0.19994	24.378	0.176
308.15	0.3596	43.421	0.206
308.15	0.49993	59.929	0.234
308.15	0.63999	76.149	0.261
308.15	0.99744	116.558	0.337
308.15	1.0012	117.003	0.337
308.15	1.4413	164.912	0.43
308.15	1.69491	191.599	0.482
308.15	1.9593	218.782	0.536
308.15	2.5533	277.605	0.654
308.15	2.99579	319.417	0.738
308.15	3.2294	340.837	0.781
308.15	4	408.426	0.917
308.15	5.00026	489.753	1.082

System: cesium chloride + water; phases: Liquid
Fixed: Pressure, kPa = 101
Property: Mass density, kg/m3 (Liquid); method: VIBTUB:UFactor:2
Temperature, K	Molality, mol/kg of cesium chloride	Mass density, kg/m3	uncertainty
288.15	0.09998	12.88	0.166
288.15	0.16007	20.537	0.176
288.15	0.19988	25.582	0.183
288.15	0.36002	45.677	0.213
288.15	0.49948	62.883	0.242
288.15	0.64012	80.034	0.271
288.15	1.0004	122.872	0.351
288.15	1.00046	122.814	0.35
288.15	1.4407	173.239	0.448
288.15	1.69597	201.562	0.503
288.15	1.9597	230.123	0.56
288.15	2.24821	260.637	0.621
288.15	2.5619	292.845	0.685
288.15	2.99965	336.311	0.773
288.15	3.2419	359.668	0.819
288.15	3.99583	429.187	0.96
288.15	4.99888	514.813	1.134
298.15	0.09998	12.774	0.165
298.15	0.16007	20.37	0.175
298.15	0.19988	25.38	0.182
298.15	0.36002	45.293	0.212
298.15	0.49948	62.377	0.24
298.15	0.64012	79.376	0.269
298.15	1.0004	121.872	0.348
298.15	1.00046	121.847	0.348
298.15	1.4407	171.843	0.445
298.15	1.69597	199.964	0.5
298.15	1.9597	228.222	0.556
298.15	2.24821	258.487	0.616
298.15	2.5619	290.573	0.68
298.15	2.99965	333.702	0.767
298.15	3.2419	356.855	0.813
298.15	3.99583	425.916	0.953
298.15	4.99888	510.95	1.126
308.15	0.09998	12.682	0.164
308.15	0.16007	20.227	0.174
308.15	0.19988	25.189	0.181
308.15	0.36002	44.992	0.211
308.15	0.49948	61.964	0.239
308.15	0.64012	78.852	0.268
308.15	1.0004	121.073	0.347
308.15	1.00046	121.069	0.347
308.15	1.4407	170.767	0.443
308.15	1.69597	198.697	0.497
308.15	1.9597	226.846	0.553
308.15	2.24821	256.91	0.613
308.15	2.5619	288.771	0.677
308.15	2.99965	331.707	0.763
308.15	3.2419	354.804	0.809
308.15	3.99583	423.532	0.948
308.15	4.99888	508.515	1.121
