Measured thermophysical data. Measurements of pVT, viscosity, and surface tension of trihexyltetradecylphosphonium tris(pentafluoroethyl)trifluorophosphate ionic liquid and modelling with equations of state
Source: J. Chem. Thermodyn., 2012, 10.1016/j.jct.2011.10.012
Compound 1: trihexyl(tetradecyl)phosphonium tris(pentafluoroethyl)trifluorophosphate, C38H68F18P2, InChI=1S/C32H68P.C6F18P/c1-5-9-13-17-18-19-20-21-22-23-24-28-32-33(29-25-14-10-6-2,30-26-15-11-7-3)31-27-16-12-8-4;7-1(8,9)4(16,17)25(22,23,24,5(18,19)2(10,11)12)6(20,21)3(13,14)15/h5-32H2,1-4H3;/q+1;-1, purity 99.4%

System: trihexyl(tetradecyl)phosphonium tris(pentafluoroethyl)trifluorophosphate; phases: Liquid, Air at 1 atmosphere
Property: Surface tension liquid-gas, N/m (Liquid); method: Wilhelmy plate
Temperature, K	Surface tension liquid-gas, N/m	uncertainty
298.51	0.02899	0.00041
305.16	0.02868	0.00041
309.15	0.02844	0.00041
313.65	0.02814	0.00041
319.7	0.0278	0.00041
325.35	0.02758	0.00041
330.62	0.02728	0.00041
337.9	0.02685	0.00041
343.29	0.02657	0.00041

System: trihexyl(tetradecyl)phosphonium tris(pentafluoroethyl)trifluorophosphate; phases: Liquid
Fixed: Pressure, kPa = 101.325
Property: Viscosity, Pa*s (Liquid); method: Cone and plate viscometry
Temperature, K	Viscosity, Pa*s	uncertainty
283.09	0.9758	0.0672
283.09	0.9768	0.0673
283.1	0.9913	0.0685
283.1	0.9928	0.0687
283.1	0.9898	0.0684
288.13	0.6989	0.0451
288.13	0.6979	0.0451
288.13	0.6936	0.0447
288.13	0.6926	0.0447
293.07	0.5054	0.0305
293.07	0.5064	0.0306
293.07	0.5046	0.0304
293.07	0.5034	0.0303
293.07	0.5029	0.0303
298.15	0.3359	0.0186
298.15	0.3365	0.0186
303.15	0.2561	0.0132
303.15	0.2567	0.0132
303.15	0.2555	0.0131
303.15	0.2558	0.0131
303.15	0.2561	0.0132
303.15	0.2564	0.0132
308.15	0.1956	0.0095
308.15	0.1962	0.0095
308.15	0.195	0.0095
308.15	0.195	0.0095
308.15	0.195	0.0095
308.15	0.1953	0.0095
308.15	0.1962	0.0095
308.15	0.196	0.0095
308.15	0.1964	0.0095
313.15	0.1512	0.007
313.15	0.1518	0.007
313.15	0.1506	0.007
313.15	0.1506	0.007
313.15	0.1503	0.0069
313.15	0.1509	0.007
313.15	0.1512	0.007
313.15	0.151	0.007
313.15	0.1514	0.007
313.15	0.1516	0.007
318.15	0.1176	0.0052
318.15	0.1182	0.0052
318.15	0.1188	0.0052
318.15	0.1176	0.0052
318.15	0.1179	0.0052
318.15	0.1188	0.0052
318.15	0.1186	0.0052
318.15	0.1189	0.0052
318.15	0.1191	0.0053
318.15	0.1192	0.0053
323.15	0.0978	0.0042
323.15	0.0972	0.0041
323.15	0.0974	0.0042
323.15	0.0945	0.004
323.15	0.0948	0.004
323.15	0.0964	0.0041
323.15	0.0962	0.0041
323.15	0.096	0.0041
323.15	0.0952	0.0041
323.15	0.0954	0.0041
323.15	0.0951	0.004
323.15	0.0967	0.0041
323.15	0.0968	0.0041
323.15	0.0966	0.0041
323.15	0.0965	0.0041
328.15	0.081	0.0034
328.15	0.0816	0.0034
328.15	0.0801	0.0033
328.15	0.0804	0.0034
328.15	0.0798	0.0033
328.15	0.0794	0.0033
328.15	0.0796	0.0033
328.15	0.0789	0.0033
328.15	0.0787	0.0033
328.15	0.0786	0.0033
328.15	0.0788	0.0033
328.15	0.0789	0.0033
328.15	0.0787	0.0033
328.15	0.0786	0.0033
333.15	0.0684	0.0028
333.15	0.069	0.0028
333.15	0.0657	0.0027
333.15	0.0654	0.0027
333.15	0.0651	0.0027
333.15	0.0654	0.0027
333.15	0.0652	0.0027
333.15	0.065	0.0027
333.15	0.0648	0.0027
333.15	0.0646	0.0027
333.15	0.0645	0.0026
333.15	0.0646	0.0027
333.15	0.0645	0.0026
333.15	0.0646	0.0027
333.15	0.0643	0.0026
333.15	0.0642	0.0026
333.15	0.0639	0.0026
338.15	0.0576	0.0024
338.15	0.057	0.0023
338.15	0.0582	0.0024
338.15	0.0543	0.0022
338.15	0.0544	0.0022
338.15	0.0549	0.0023
338.15	0.054	0.0022
338.15	0.0538	0.0022
338.15	0.0534	0.0022
338.15	0.0535	0.0022
338.15	0.0533	0.0022
338.15	0.0529	0.0022
338.15	0.053	0.0022
343.15	0.0459	0.0019
343.15	0.0456	0.0019
343.15	0.0452	0.0019
343.15	0.045	0.0019
343.15	0.0439	0.0018
343.15	0.0441	0.0018
343.15	0.0438	0.0018
343.15	0.0442	0.0018
343.15	0.0443	0.0018
343.15	0.0441	0.0018
343.15	0.0443	0.0018
343.15	0.0442	0.0018
343.15	0.0442	0.0018
348.15	0.0384	0.0016
348.15	0.0381	0.0016
348.15	0.0376	0.0015
348.15	0.0378	0.0016
348.15	0.0375	0.0015
348.15	0.0373	0.0015
348.15	0.0372	0.0015
348.15	0.0373	0.0015
348.15	0.0372	0.0015
348.15	0.037	0.0015
348.15	0.0371	0.0015
353.15	0.0318	0.0013
353.15	0.0321	0.0013
353.15	0.032	0.0013
353.15	0.0318	0.0013
353.15	0.0316	0.0013
353.15	0.0319	0.0013
353.15	0.032	0.0013
353.15	0.032	0.0013
353.15	0.0322	0.0013
353.15	0.0321	0.0013
353.15	0.0323	0.0013
353.15	0.0324	0.0013
358.15	0.0279	0.0011
358.15	0.028	0.0011
358.15	0.028	0.0011
358.15	0.0281	0.0011
358.17	0.0282	0.0011
358.17	0.0281	0.0011
358.17	0.028	0.0011
363.17	0.0245	0.001
363.17	0.0244	0.001
363.18	0.0246	0.001
363.18	0.0245	0.001
363.2	0.0246	0.001
363.2	0.0245	0.001

System: trihexyl(tetradecyl)phosphonium tris(pentafluoroethyl)trifluorophosphate; phases: Liquid
Property: Mass density, kg/m3 (Liquid); method: Vibrating tube method
Pressure, kPa	Temperature, K	Mass density, kg/m3	uncertainty
100	293.15	1185.6	2
100	298.15	1181.8	2
100	303.15	1177.9	2
100	308.15	1174	2
100	313.15	1170.1	2
100	318.15	1166.2	2
100	323.15	1162.3	2
100	328.15	1158.3	2
100	333.15	1154.4	2
100	338.15	1150.4	2
100	343.15	1146.4	2
2000	293.15	1187	2
2000	298.15	1183.2	2
2000	303.15	1179.4	2
2000	308.15	1175.5	2
2000	313.15	1171.6	2
2000	318.15	1167.7	2
2000	323.15	1163.8	2
2000	328.15	1159.9	2
2000	333.15	1155.9	2
2000	338.15	1152	2
2000	343.15	1148	2
3000	293.15	1187.7	2
3000	298.15	1183.9	2
3000	303.15	1180.1	2
3000	308.15	1176.3	2
3000	313.15	1172.4	2
3000	318.15	1168.5	2
3000	323.15	1164.6	2
3000	328.15	1160.7	2
3000	333.15	1156.8	2
3000	338.15	1152.9	2
3000	343.15	1148.9	2
5000	293.15	1189.2	2
5000	298.15	1185.4	2
5000	303.15	1181.6	2
5000	308.15	1177.8	2
5000	313.15	1174	2
5000	318.15	1170.2	2
5000	323.15	1166.3	2
5000	328.15	1162.4	2
5000	333.15	1158.5	2
5000	338.15	1154.6	2
5000	343.15	1150.7	2
10000	293.15	1192.6	2
10000	298.15	1189	2
10000	303.15	1185.3	2
10000	308.15	1181.5	2
10000	313.15	1177.8	2
10000	318.15	1174.1	2
10000	323.15	1170.3	2
10000	328.15	1166.5	2
10000	333.15	1162.7	2
10000	338.15	1158.9	2
10000	343.15	1155	2
15000	293.15	1196.1	2
15000	298.15	1192.5	2
15000	303.15	1188.9	2
15000	308.15	1185.2	2
15000	313.15	1181.5	2
15000	318.15	1177.8	2
15000	323.15	1174.1	2
15000	328.15	1170.4	2
15000	333.15	1166.7	2
15000	338.15	1162.9	2
15000	343.15	1159.1	2
20000	293.15	1199.4	2
20000	298.15	1195.8	2
20000	303.15	1192.3	2
20000	308.15	1188.7	2
20000	313.15	1185.1	2
20000	318.15	1181.5	2
20000	323.15	1177.8	2
20000	328.15	1174.2	2
20000	333.15	1170.5	2
20000	338.15	1166.8	2
20000	343.15	1163.1	2
25000	293.15	1202.6	2
25000	298.15	1199.1	2
25000	303.15	1195.6	2
25000	308.15	1192.1	2
25000	313.15	1188.6	2
25000	318.15	1185	2
25000	323.15	1181.4	2
25000	328.15	1177.8	2
25000	333.15	1174.2	2
25000	338.15	1170.5	2
25000	343.15	1166.9	2
