Measured thermophysical data. Density, speed of sound, viscosity and refractive index properties of aqueous  solutions of vitamins B1.HCl and B6.HCl at temperatures (278.15, 288.15, and  298.15) K
Source: J. Chem. Thermodyn., 2013, 10.1016/j.jct.2012.10.027
Compound 1: thiamine hydrochloride, C12H18Cl2N4OS, InChI=1S/C12H17N4OS.2ClH/c1-8-11(3-4-17)18-7-16(8)6-10-5-14-9(2)15-12(10)13;;/h5,7,17H,3-4,6H2,1-2H3,(H2,13,14,15);2*1H/q+1;;/p-1
Compound 2: water, H2O, InChI=1S/H2O/h1H2, purity 99.5%
Compound 3: 5-hydroxy-6-methyl-3,4-pyridinedimethanol hydrochloride, C8H12ClNO3, InChI=1S/C8H11NO3.ClH/c1-5-8(12)7(4-11)6(3-10)2-9-5;/h2,10-12H,3-4H2,1H3;1H

System: thiamine hydrochloride + water; phases: Liquid
Fixed: Pressure, kPa = 101
Property: Mass density, kg/m3 (Liquid); method: PYCNOM:UFactor:4
Temperature, K	Molality, mol/kg of thiamine hydrochloride	Mass density, kg/m3	uncertainty
278.15	0	999.96	1.12
278.15	0.0251	1002.6	1.12
278.15	0.0749	1007.76	1.13
278.15	0.1004	1010.23	1.13
278.15	0.1491	1015	1.14
278.15	0.2015	1020.04	1.14
278.15	0.2542	1024.9	1.15
278.15	0.3013	1029.12	1.16
278.15	0.3548	1033.81	1.16
278.15	0.4109	1038.61	1.17
278.15	0.47	1043.57	1.17
278.15	0.5579	1050.7	1.18
288.15	0	999.1	1.02
288.15	0.0298	1002.18	1.03
288.15	0.0612	1005.34	1.03
288.15	0.0883	1008	1.03
288.15	0.1397	1012.96	1.04
288.15	0.2	1018.74	1.05
288.15	0.2401	1022.17	1.05
288.15	0.2832	1025.96	1.06
288.15	0.3453	1031.35	1.07
288.15	0.4002	1036.04	1.07
288.15	0.4489	1040.14	1.08
288.15	0.497	1044.13	1.08
288.15	0.5541	1048.8	1.09
298.15	0	997.05	1.02
298.15	0.0214	999.18	1.03
298.15	0.0406	1001.09	1.03
298.15	0.0594	1002.95	1.03
298.15	0.0808	1005.06	1.03
298.15	0.1069	1007.59	1.04
298.15	0.1604	1012.6	1.04
298.15	0.2069	1016.67	1.05
298.15	0.2528	1020.97	1.05
298.15	0.3018	1025.27	1.06
298.15	0.3501	1029.28	1.07
298.15	0.3997	1033.24	1.07
298.15	0.4454	1036.87	1.08
298.15	0.5073	1041.95	1.08
298.15	0.553	1045.84	1.09

System: thiamine hydrochloride + water; phases: Liquid
Fixed: Pressure, kPa = 101
Fixed: Frequency, MHz = 2
Property: Speed of sound, m/s (Liquid); method: ANNULAR:UFactor:6
Temperature, K	Molality, mol/kg of thiamine hydrochloride	Speed of sound, m/s	uncertainty
278.15	0	1426.2	4.1
278.15	0.0251	1431.6	4.1
278.15	0.0749	1441.8	4.1
278.15	0.1004	1446.7	4.1
278.15	0.1491	1455.2	4.1
278.15	0.2015	1464.9	4.2
278.15	0.2542	1476.3	4.2
278.15	0.3013	1484.3	4.2
278.15	0.3548	1493.6	4.2
278.15	0.4109	1505.4	4.2
278.15	0.47	1518.7	4.2
278.15	0.5579	1539	4.2
288.15	0	1465.9	4.2
288.15	0.0298	1472.1	4.2
288.15	0.0612	1478.4	4.2
288.15	0.0883	1484.1	4.2
288.15	0.1397	1492.7	4.2
288.15	0.2	1503.1	4.2
288.15	0.2401	1508.1	4.2
288.15	0.2832	1516.7	4.2
288.15	0.3453	1524	4.2
288.15	0.4002	1535.8	4.3
288.15	0.4489	1540.8	4.3
288.15	0.497	1552	4.3
288.15	0.5541	1560	4.3
298.15	0	1496.7	4.2
298.15	0.0214	1501.1	4.2
298.15	0.0406	1504.7	4.2
298.15	0.0594	1507.7	4.2
298.15	0.0808	1511.3	4.2
298.15	0.1069	1516.3	4.2
298.15	0.1604	1525.3	4.2
298.15	0.2069	1532.2	4.3
298.15	0.2528	1538.1	4.3
298.15	0.3018	1546	4.3
298.15	0.3501	1553.7	4.3
298.15	0.3997	1560.7	4.3
298.15	0.4454	1568.3	4.3
298.15	0.5073	1576.6	4.3
298.15	0.553	1583.2	4.3

System: thiamine hydrochloride + water; phases: Liquid
Fixed: Pressure, kPa = 101
Property: Viscosity, Pa*s (Liquid); method: CAPTUB:UFactor:4
Temperature, K	Molality, mol/kg of thiamine hydrochloride	Viscosity, Pa*s	uncertainty
278.15	0	0.001519	3.6e-05
278.15	0.0251	0.001564	3.7e-05
278.15	0.0749	0.001605	3.8e-05
278.15	0.1004	0.001638	3.9e-05
278.15	0.1491	0.001699	4e-05
278.15	0.2015	0.001763	4.1e-05
278.15	0.2542	0.00182	4.2e-05
278.15	0.3013	0.001883	4.4e-05
278.15	0.3548	0.001946	4.5e-05
278.15	0.4109	0.001995	4.6e-05
278.15	0.47	0.002083	4.8e-05
278.15	0.5579	0.002151	4.9e-05
288.15	0	0.001145	2.8e-05
288.15	0.0298	0.001176	2.9e-05
288.15	0.0612	0.001211	2.9e-05
288.15	0.0883	0.001239	3e-05
288.15	0.1397	0.001295	3.1e-05
288.15	0.2	0.001342	3.2e-05
288.15	0.2401	0.001383	3.3e-05
288.15	0.2832	0.001432	3.4e-05
288.15	0.3453	0.001484	3.5e-05
288.15	0.4002	0.001531	3.6e-05
288.15	0.4489	0.001573	3.7e-05
288.15	0.497	0.001616	3.8e-05
288.15	0.5541	0.001656	3.9e-05
298.15	0	0.000895	2.3e-05
298.15	0.0214	0.000914	2.3e-05
298.15	0.0406	0.000929	2.3e-05
298.15	0.0594	0.000941	2.4e-05
298.15	0.0808	0.00096	2.4e-05
298.15	0.1069	0.00098	2.4e-05
298.15	0.1604	0.001013	2.5e-05
298.15	0.2069	0.00105	2.6e-05
298.15	0.2528	0.001083	2.7e-05
298.15	0.3018	0.001111	2.7e-05
298.15	0.3501	0.001152	2.8e-05
298.15	0.3997	0.001185	2.9e-05
298.15	0.4454	0.001228	3e-05
298.15	0.5073	0.001254	3e-05
298.15	0.553	0.001281	3.1e-05

System: thiamine hydrochloride + water; phases: Liquid
Fixed: Pressure, kPa = 101
Property: Refractive index (Na D-line) (Liquid); method: ABBE:UFactor:4
Temperature, K	Molality, mol/kg of thiamine hydrochloride	Refractive index (Na D-line)	uncertainty
278.15	0	1.3339	0.0012
278.15	0.0251	1.3361	0.0012
278.15	0.0749	1.3391	0.0012
278.15	0.1004	1.3412	0.0012
278.15	0.1491	1.3443	0.0012
278.15	0.2015	1.3476	0.0012
278.15	0.2542	1.3515	0.0012
278.15	0.3013	1.3549	0.0012
278.15	0.3548	1.3584	0.0012
278.15	0.4109	1.3618	0.0012
278.15	0.47	1.3659	0.0012
278.15	0.5579	1.3713	0.0012
288.15	0	1.3334	0.0012
288.15	0.0298	1.3358	0.0012
288.15	0.0612	1.3379	0.0012
288.15	0.0883	1.3401	0.0012
288.15	0.1397	1.3438	0.0012
288.15	0.2	1.3478	0.0012
288.15	0.2401	1.3499	0.0012
288.15	0.2832	1.3535	0.0012
288.15	0.3453	1.3571	0.0012
288.15	0.4002	1.3606	0.0012
288.15	0.4489	1.3642	0.0012
288.15	0.497	1.3671	0.0012
288.15	0.5541	1.3697	0.0012
298.15	0	1.3325	0.0012
298.15	0.0214	1.3338	0.0012
298.15	0.0406	1.3354	0.0012
298.15	0.0594	1.3371	0.0012
298.15	0.0808	1.3387	0.0012
298.15	0.1069	1.3403	0.0012
298.15	0.1604	1.344	0.0012
298.15	0.2069	1.3477	0.0012
298.15	0.2528	1.351	0.0012
298.15	0.3018	1.3542	0.0012
298.15	0.3501	1.3573	0.0012
298.15	0.3997	1.3599	0.0012
298.15	0.4454	1.3638	0.0012
298.15	0.5073	1.3681	0.0012
298.15	0.553	1.3705	0.0012

System: 5-hydroxy-6-methyl-3,4-pyridinedimethanol hydrochloride + water; phases: Liquid
Fixed: Pressure, kPa = 101
Property: Mass density, kg/m3 (Liquid); method: PYCNOM:UFactor:4
Temperature, K	Molality, mol/kg of 5-hydroxy-6-methyl-3,4-pyridinedimethanol hydrochloride	Mass density, kg/m3	uncertainty
278.15	0	999.96	1.12
278.15	0.0301	1001.87	1.12
278.15	0.06	1003.73	1.12
278.15	0.08	1004.97	1.12
278.15	0.1196	1007.37	1.13
278.15	0.151	1009.26	1.13
278.15	0.2024	1012.29	1.13
278.15	0.2503	1015.1	1.14
278.15	0.3007	1018.03	1.14
278.15	0.3477	1020.75	1.14
278.15	0.4046	1023.87	1.15
278.15	0.4379	1026.1	1.15
278.15	0.5039	1029.76	1.16
278.15	0.5606	1032.67	1.16
288.15	0	999.1	1.02
288.15	0.0513	1002.26	1.03
288.15	0.0952	1004.91	1.03
288.15	0.1481	1008.04	1.03
288.15	0.1991	1011.03	1.04
288.15	0.2401	1013.41	1.04
288.15	0.3032	1017.1	1.05
288.15	0.3493	1019.28	1.05
288.15	0.4016	1022.28	1.05
288.15	0.45	1024.97	1.06
288.15	0.5006	1027.71	1.06
288.15	0.5526	1030.45	1.06
298.15	0	997.05	1.02
298.15	0.0505	1000.09	1.03
298.15	0.1006	1003.08	1.03
298.15	0.1479	1005.86	1.03
298.15	0.2027	1009.02	1.04
298.15	0.2502	1011.72	1.04
298.15	0.3017	1014.61	1.05
298.15	0.35	1017.25	1.05
298.15	0.4086	1020.32	1.05
298.15	0.455	1022.86	1.06
298.15	0.501	1025.34	1.06
298.15	0.5501	1027.9	1.06

System: 5-hydroxy-6-methyl-3,4-pyridinedimethanol hydrochloride + water; phases: Liquid
Fixed: Pressure, kPa = 101
Fixed: Frequency, MHz = 2
Property: Speed of sound, m/s (Liquid); method: ANNULAR:UFactor:6
Temperature, K	Molality, mol/kg of 5-hydroxy-6-methyl-3,4-pyridinedimethanol hydrochloride	Speed of sound, m/s	uncertainty
278.15	0	1426.2	4.1
278.15	0.0301	1430.2	4.1
278.15	0.06	1434.2	4.1
278.15	0.08	1436.5	4.1
278.15	0.1196	1441.8	4.1
278.15	0.151	1444.6	4.1
278.15	0.2024	1450	4.1
278.15	0.2503	1454.2	4.1
278.15	0.3007	1458.8	4.1
278.15	0.3477	1463.8	4.2
278.15	0.4046	1469.7	4.2
278.15	0.4379	1474.8	4.2
278.15	0.5039	1478.7	4.2
278.15	0.5606	1486.5	4.2
288.15	0	1465.9	4.2
288.15	0.0513	1472.3	4.2
288.15	0.0952	1477.3	4.2
288.15	0.1481	1482.7	4.2
288.15	0.1991	1486.1	4.2
288.15	0.2401	1491.5	4.2
288.15	0.3032	1496.7	4.2
288.15	0.3493	1502	4.2
288.15	0.4016	1508.8	4.2
288.15	0.45	1512.9	4.2
288.15	0.5006	1518.6	4.2
288.15	0.5526	1522.1	4.2
298.15	0	1496.7	4.2
298.15	0.0505	1501.9	4.2
298.15	0.1006	1507.2	4.2
298.15	0.1479	1511.3	4.2
298.15	0.2027	1516	4.2
298.15	0.2502	1520.1	4.2
298.15	0.3017	1523.1	4.2
298.15	0.35	1527.7	4.2
298.15	0.4086	1530	4.2
298.15	0.455	1536.1	4.2
298.15	0.501	1540	4.3
298.15	0.5501	1547.5	4.3

System: 5-hydroxy-6-methyl-3,4-pyridinedimethanol hydrochloride + water; phases: Liquid
Fixed: Pressure, kPa = 101
Property: Viscosity, Pa*s (Liquid); method: Capillary tube (Ostwald; Ubbelohde) method
Temperature, K	Molality, mol/kg of 5-hydroxy-6-methyl-3,4-pyridinedimethanol hydrochloride	Viscosity, Pa*s	uncertainty
278.15	0	0.001519	1.1e-05
278.15	0.0301	0.001538	1.1e-05
278.15	0.06	0.001559	1.1e-05
278.15	0.08	0.001569	1.1e-05
278.15	0.1196	0.001589	1.1e-05
278.15	0.151	0.001616	1.2e-05
278.15	0.2024	0.001637	1.2e-05
278.15	0.2503	0.001676	1.2e-05
278.15	0.3007	0.001704	1.2e-05
278.15	0.3477	0.001734	1.2e-05
278.15	0.4046	0.001764	1.3e-05
278.15	0.4379	0.001785	1.3e-05
278.15	0.5039	0.001813	1.3e-05
278.15	0.5606	0.001834	1.3e-05
288.15	0	0.001145	8e-06
288.15	0.0513	0.001172	9e-06
288.15	0.0952	0.001194	9e-06
288.15	0.1481	0.00122	9e-06
288.15	0.1991	0.001245	9e-06
288.15	0.2401	0.001275	9e-06
288.15	0.3032	0.001295	9e-06
288.15	0.3493	0.001318	1e-05
288.15	0.4016	0.001343	1e-05
288.15	0.45	0.001367	1e-05
288.15	0.5006	0.001392	1e-05
288.15	0.5526	0.001417	1e-05
298.15	0	0.000895	7e-06
298.15	0.0505	0.000918	7e-06
298.15	0.1006	0.00095	7e-06
298.15	0.1479	0.00096	7e-06
298.15	0.2027	0.00099	7e-06
298.15	0.2502	0.001007	7e-06
298.15	0.3017	0.001027	8e-06
298.15	0.35	0.00104	8e-06
298.15	0.4086	0.00106	8e-06
298.15	0.455	0.001073	8e-06
298.15	0.501	0.001084	8e-06
298.15	0.5501	0.001108	8e-06

System: 5-hydroxy-6-methyl-3,4-pyridinedimethanol hydrochloride + water; phases: Liquid
Fixed: Pressure, kPa = 101
Property: Refractive index (Na D-line) (Liquid); method: ABBE:UFactor:4
Temperature, K	Molality, mol/kg of 5-hydroxy-6-methyl-3,4-pyridinedimethanol hydrochloride	Refractive index (Na D-line)	uncertainty
278.15	0	1.3339	0.0012
278.15	0.0301	1.3351	0.0012
278.15	0.06	1.3367	0.0012
278.15	0.08	1.337	0.0012
278.15	0.1196	1.3391	0.0012
278.15	0.151	1.3401	0.0012
278.15	0.2024	1.3424	0.0012
278.15	0.2503	1.3444	0.0012
278.15	0.3007	1.3462	0.0012
278.15	0.3477	1.3482	0.0012
278.15	0.4046	1.3506	0.0012
278.15	0.4379	1.3517	0.0012
278.15	0.5039	1.3541	0.0012
278.15	0.5606	1.3565	0.0012
288.15	0	1.3334	0.0012
288.15	0.0513	1.3348	0.0012
288.15	0.0952	1.3364	0.0012
288.15	0.1481	1.3381	0.0012
288.15	0.1991	1.3398	0.0012
288.15	0.2401	1.3419	0.0012
288.15	0.3032	1.3446	0.0012
288.15	0.3493	1.3464	0.0012
288.15	0.4016	1.3484	0.0012
288.15	0.45	1.3499	0.0012
288.15	0.5006	1.3524	0.0012
288.15	0.5526	1.3544	0.0012
298.15	0	1.3325	0.0012
298.15	0.0505	1.3354	0.0012
298.15	0.1006	1.3368	0.0012
298.15	0.1479	1.34	0.0012
298.15	0.2027	1.3409	0.0012
298.15	0.2502	1.3428	0.0012
298.15	0.3017	1.3451	0.0012
298.15	0.35	1.3477	0.0012
298.15	0.4086	1.3502	0.0012
298.15	0.455	1.3521	0.0012
298.15	0.501	1.3538	0.0012
298.15	0.5501	1.3547	0.0012
