Measured thermophysical data. Thermodynamic and physicochemical properties of binary mixtures of nitromethane with {2-methoxyethanol + 2-butoxyethanol} systems at T = (293.15, 298.15, 303.15, 308.15, and 313.15) K
Source: J. Chem. Thermodyn., 2011, 10.1016/j.jct.2010.10.016
Compound 1: nitromethane, CH3NO2, InChI=1S/CH3NO2/c1-2(3)4/h1H3, purity 99%
Compound 2: 2-methoxyethan-1-ol, C3H8O2, InChI=1S/C3H8O2/c1-5-3-2-4/h4H,2-3H2,1H3, purity 99%
Compound 3: 2-butoxyethan-1-ol, C6H14O2, InChI=1S/C6H14O2/c1-2-3-5-8-6-4-7/h7H,2-6H2,1H3, purity 99%

System: nitromethane + 2-methoxyethan-1-ol; phases: Liquid
Fixed: Pressure, kPa = 101
Property: Viscosity, Pa*s (Liquid); method: Capillary tube (Ostwald; Ubbelohde) method
Temperature, K	Mole fraction of nitromethane	Viscosity, Pa*s	uncertainty
293.15	0	0.001708	1.5e-05
293.15	0.0501	0.001618	1.4e-05
293.15	0.1024	0.001527	1.3e-05
293.15	0.2162	0.001341	1.2e-05
293.15	0.3003	0.001216	1.1e-05
293.15	0.4076	0.001072	1e-05
293.15	0.451	0.00102	9e-06
293.15	0.4997	0.000964	9e-06
293.15	0.55	0.00091	8e-06
293.15	0.6026	0.000859	8e-06
293.15	0.6998	0.000775	8e-06
293.15	0.7991	0.00071	7e-06
293.15	0.9001	0.000663	7e-06
293.15	0.941	0.000653	7e-06
293.15	1	0.000648	7e-06
298.15	0	0.001544	1.3e-05
298.15	0.0506	0.001466	1.3e-05
298.15	0.1037	0.001387	1.2e-05
298.15	0.2002	0.001249	1.1e-05
298.15	0.3006	0.001118	1e-05
298.15	0.4052	0.000994	9e-06
298.15	0.4509	0.000944	9e-06
298.15	0.5016	0.000892	8e-06
298.15	0.5497	0.000846	8e-06
298.15	0.5991	0.0008	8e-06
298.15	0.694	0.000725	7e-06
298.15	0.7953	0.000666	7e-06
298.15	0.8997	0.000629	7e-06
298.15	0.9454	0.000621	6e-06
298.15	1	0.000619	6e-06
303.15	0	0.001404	1.3e-05
303.15	0.0585	0.001328	1.2e-05
303.15	0.1015	0.001271	1.1e-05
303.15	0.1989	0.001149	1e-05
303.15	0.3091	0.00102	1e-05
303.15	0.3978	0.000925	9e-06
303.15	0.449	0.000875	8e-06
303.15	0.4998	0.000828	8e-06
303.15	0.5549	0.000782	8e-06
303.15	0.59	0.000756	7e-06
303.15	0.6977	0.000684	7e-06
303.15	0.7979	0.000632	7e-06
303.15	0.9037	0.000594	6e-06
303.15	0.9508	0.000585	6e-06
303.15	1	0.000584	6e-06
308.15	0	0.001246	1.2e-05
308.15	0.0671	0.001175	1.1e-05
308.15	0.1029	0.001134	1.1e-05
308.15	0.1995	0.001025	1e-05
308.15	0.3053	0.000917	9e-06
308.15	0.4012	0.000833	8e-06
308.15	0.4528	0.000792	8e-06
308.15	0.5078	0.00075	8e-06
308.15	0.5514	0.000719	7e-06
308.15	0.5981	0.000689	7e-06
308.15	0.6981	0.000633	7e-06
308.15	0.7954	0.000594	6e-06
308.15	0.8985	0.000572	6e-06
308.15	0.9383	0.000569	6e-06
308.15	1	0.000563	6e-06
313.15	0	0.001098	1.1e-05
313.15	0.0498	0.001055	1e-05
313.15	0.1101	0.000999	1e-05
313.15	0.2081	0.000911	9e-06
313.15	0.3023	0.000835	8e-06
313.15	0.4004	0.000762	8e-06
313.15	0.4571	0.000722	7e-06
313.15	0.5015	0.000693	7e-06
313.15	0.5566	0.000659	7e-06
313.15	0.599	0.000636	7e-06
313.15	0.6995	0.000589	6e-06
313.15	0.8	0.000562	6e-06
313.15	0.8851	0.000555	6e-06
313.15	0.9387	0.000553	6e-06
313.15	1	0.000545	6e-06

System: nitromethane + 2-methoxyethan-1-ol; phases: Liquid
Fixed: Pressure, kPa = 101
Fixed: Frequency, MHz = 3
Property: Relative permittivity at various frequencies (Liquid); method: AC method
Temperature, K	Mole fraction of nitromethane	Relative permittivity at various frequencies	uncertainty
293.15	0	17.38	0.04
293.15	0.05	19.49	0.05
293.15	0.0998	21.49	0.05
293.15	0.2	25.34	0.05
293.15	0.3	29.02	0.05
293.15	0.4	32.43	0.05
293.15	0.5	35.32	0.05
293.15	0.6	37.67	0.06
293.15	0.7	39.53	0.06
293.15	0.8002	40.88	0.05
293.15	0.8999	40.91	0.06
293.15	0.9503	39.82	0.05
293.15	1	37.31	0.05
298.15	0	16.96	0.04
298.15	0.05	18.95	0.05
298.15	0.0998	20.81	0.05
298.15	0.2	24.57	0.05
298.15	0.3	28.08	0.05
298.15	0.4	31.42	0.06
298.15	0.5	34.24	0.06
298.15	0.6	36.51	0.06
298.15	0.7	38.31	0.06
298.15	0.8002	39.53	0.06
298.15	0.8999	39.5	0.07
298.15	0.9503	38.54	0.07
298.15	1	36.52	0.05
303.15	0	16.56	0.04
303.15	0.05	18.48	0.05
303.15	0.0998	20.26	0.05
303.15	0.2	23.89	0.05
303.15	0.3	27.27	0.05
303.15	0.4	30.47	0.06
303.15	0.5	33.22	0.06
303.15	0.6	35.49	0.06
303.15	0.7	37.26	0.06
303.15	0.8002	38.38	0.06
303.15	0.8999	38.23	0.07
303.15	0.9503	37.28	0.06
303.15	1	35.66	0.05
308.15	0	16.16	0.04
308.15	0.05	17.81	0.05
308.15	0.0998	19.57	0.05
308.15	0.2	23.11	0.05
308.15	0.3	26.43	0.06
308.15	0.4	29.45	0.06
308.15	0.5	32.16	0.06
308.15	0.6	34.47	0.06
308.15	0.7	36.18	0.06
308.15	0.8002	37.08	0.07
308.15	0.8999	36.88	0.07
308.15	0.9503	36.1	0.07
308.15	1	34.92	0.05
313.15	0	15.77	0.04
313.15	0.05	17.21	0.05
313.15	0.0998	18.85	0.05
313.15	0.2	22.12	0.06
313.15	0.3	25.3	0.06
313.15	0.4	28.29	0.06
313.15	0.5	31.09	0.06
313.15	0.6	33.47	0.06
313.15	0.7	35.12	0.07
313.15	0.8002	35.78	0.08
313.15	0.8999	35.27	0.08
313.15	0.9503	34.7	0.07
313.15	1	34.09	0.05

System: nitromethane + 2-methoxyethan-1-ol; phases: Liquid
Fixed: Pressure, kPa = 101
Property: Speed of sound, m/s (Liquid); method: Resonance method
Temperature, K	Mole fraction of nitromethane	Speed of sound, m/s	uncertainty
293.15	0	1359.3	2.3
293.15	0.05	1354.7	2.3
293.15	0.0998	1351.1	2.3
293.15	0.2	1345	2.3
293.15	0.2991	1340	2.3
293.15	0.4	1335.5	2.3
293.15	0.4998	1331.9	2.3
293.15	0.6	1329.2	2.3
293.15	0.7	1327.7	2.3
293.15	0.8	1327.5	2.3
293.15	0.8999	1330.3	2.4
293.15	0.9503	1333.7	2.4
293.15	1	1340.2	2.4
298.15	0	1342.1	2.3
298.15	0.05	1338.1	2.3
298.15	0.0998	1334.8	2.3
298.15	0.2	1329.2	2.3
298.15	0.2991	1324.1	2.3
298.15	0.4	1319.6	2.3
298.15	0.4998	1315.6	2.3
298.15	0.6	1312.6	2.3
298.15	0.7	1310.7	2.3
298.15	0.8	1310.6	2.3
298.15	0.8999	1312.9	2.4
298.15	0.9503	1315.8	2.4
298.15	1	1320.4	2.4
303.15	0	1325.1	2.3
303.15	0.05	1321.7	2.3
303.15	0.0998	1318.5	2.3
303.15	0.2	1312.9	2.3
303.15	0.2991	1307.4	2.3
303.15	0.4	1302.5	2.3
303.15	0.4998	1298.1	2.3
303.15	0.6	1294.5	2.3
303.15	0.7	1292.2	2.3
303.15	0.8	1291.7	2.3
303.15	0.8999	1293.4	2.3
303.15	0.9503	1295.1	2.4
303.15	1	1298.1	2.4
308.15	0	1313.5	2.3
308.15	0.05	1310.2	2.3
308.15	0.0998	1307.4	2.3
308.15	0.2	1301.4	2.3
308.15	0.2991	1295.7	2.3
308.15	0.4	1290.4	2.3
308.15	0.4998	1285.6	2.3
308.15	0.6	1281.5	2.3
308.15	0.7	1278.6	2.3
308.15	0.8	1277.7	2.3
308.15	0.8999	1278.6	2.3
308.15	0.9503	1279.6	2.3
308.15	1	1281.2	2.3
313.15	0	1296.8	2.3
313.15	0.05	1293.9	2.3
313.15	0.0998	1291.1	2.3
313.15	0.2	1285.4	2.3
313.15	0.2991	1279.7	2.3
313.15	0.4	1274.2	2.3
313.15	0.4998	1269.3	2.3
313.15	0.6	1265.1	2.3
313.15	0.7	1262.1	2.3
313.15	0.8	1260.9	2.3
313.15	0.8999	1261.5	2.3
313.15	0.9503	1262.2	2.3
313.15	1	1262.8	2.4

System: nitromethane + 2-methoxyethan-1-ol; phases: Liquid
Fixed: Pressure, kPa = 101
Property: Mass density, kg/m3 (Liquid); method: Pycnometric method
Temperature, K	Mole fraction of nitromethane	Mass density, kg/m3	uncertainty
293.15	0	964.88	0.48
293.15	0.05	970.66	0.49
293.15	0.0998	976.62	0.5
293.15	0.2	989.24	0.52
293.15	0.3	1002.64	0.54
293.15	0.4	1017.06	0.55
293.15	0.5	1032.73	0.57
293.15	0.6	1049.94	0.59
293.15	0.7	1068.86	0.62
293.15	0.8002	1089.69	0.64
293.15	0.8999	1112.46	0.65
293.15	0.9503	1124.81	0.66
293.15	1	1137.63	0.66
298.15	0	960.29	0.49
298.15	0.05	965.94	0.5
298.15	0.0998	971.79	0.5
298.15	0.2	984.22	0.52
298.15	0.3	997.42	0.53
298.15	0.4	1011.62	0.55
298.15	0.5	1027.07	0.56
298.15	0.6	1044.03	0.58
298.15	0.7	1062.69	0.6
298.15	0.8002	1083.23	0.62
298.15	0.8999	1105.69	0.65
298.15	0.9503	1117.91	0.66
298.15	1	1130.62	0.67
303.15	0	955.77	0.49
303.15	0.05	961.25	0.5
303.15	0.0998	966.98	0.51
303.15	0.2	979.15	0.52
303.15	0.3	992.16	0.54
303.15	0.4	1006.16	0.55
303.15	0.5	1021.4	0.57
303.15	0.6	1038.1	0.59
303.15	0.7	1056.45	0.61
303.15	0.8002	1076.63	0.63
303.15	0.8999	1098.72	0.65
303.15	0.9503	1110.81	0.66
303.15	1	1123.6	0.67
308.15	0	951.19	0.51
308.15	0.05	956.53	0.52
308.15	0.0998	962.12	0.52
308.15	0.2	974.11	0.54
308.15	0.3	986.95	0.55
308.15	0.4	1000.76	0.56
308.15	0.5	1015.8	0.58
308.15	0.6	1032.3	0.59
308.15	0.7	1050.38	0.61
308.15	0.8002	1070.27	0.63
308.15	0.8999	1092.11	0.66
308.15	0.9503	1104.13	0.67
308.15	1	1116.86	0.67
313.15	0	946.21	0.52
313.15	0.05	951.39	0.53
313.15	0.0998	956.87	0.53
313.15	0.2	968.71	0.54
313.15	0.3	981.39	0.55
313.15	0.4	995.04	0.56
313.15	0.5	1009.9	0.57
313.15	0.6	1026.19	0.59
313.15	0.7	1044.07	0.6
313.15	0.8002	1063.69	0.62
313.15	0.8999	1085.24	0.65
313.15	0.9503	1097.15	0.67
313.15	1	1109.87	0.68

System: nitromethane + 2-methoxyethan-1-ol; phases: Liquid
Fixed: Pressure, kPa = 101
Property: Excess molar volume, m3/mol (Liquid); method: Calculated with densities of this investigation
Temperature, K	Mole fraction of nitromethane	Excess molar volume, m3/mol	uncertainty
566.3	0	0	1e-08
566.3	0.05	1.5e-08	8e-09
566.3	0.0998	2.9e-08	8e-09
566.3	0.2	5.6e-08	8e-09
566.3	0.3	8.8e-08	8e-09
566.3	0.4	1.17e-07	8e-09
566.3	0.5	1.34e-07	8e-09
566.3	0.6	1.33e-07	8e-09
566.3	0.7	1.15e-07	8e-09
566.3	0.8002	8.4e-08	8e-09
566.3	0.8999	4.5e-08	8e-09
566.3	0.9503	2.4e-08	8e-09
566.3	1	0	1e-08
571.3	0	0	1e-08
571.3	0.05	2e-08	8e-09
571.3	0.0998	3.6e-08	8e-09
571.3	0.2	6.5e-08	8e-09
571.3	0.3	9.8e-08	8e-09
571.3	0.4	1.28e-07	8e-09
571.3	0.5	1.45e-07	8e-09
571.3	0.6	1.44e-07	8e-09
571.3	0.7	1.25e-07	8e-09
571.3	0.8002	9.3e-08	8e-09
571.3	0.8999	5.2e-08	8e-09
571.3	0.9503	2.8e-08	8e-09
571.3	1	0	1e-08
576.3	0	0	1e-08
576.3	0.05	2.7e-08	8e-09
576.3	0.0998	4.7e-08	8e-09
576.3	0.2	8.2e-08	8e-09
576.3	0.3	1.15e-07	8e-09
576.3	0.4	1.44e-07	8e-09
576.3	0.5	1.6e-07	8e-09
576.3	0.6	1.59e-07	8e-09
576.3	0.7	1.41e-07	8e-09
576.3	0.8002	1.11e-07	8e-09
576.3	0.8999	7e-08	8e-09
576.3	0.9503	4.2e-08	8e-09
576.3	1	0	1e-08
581.3	0	0	1e-08
581.3	0.05	3.4e-08	8e-09
581.3	0.0998	5.9e-08	8e-09
581.3	0.2	9.6e-08	8e-09
581.3	0.3	1.29e-07	8e-09
581.3	0.4	1.59e-07	8e-09
581.3	0.5	1.74e-07	8e-09
581.3	0.6	1.72e-07	8e-09
581.3	0.7	1.55e-07	8e-09
581.3	0.8002	1.25e-07	8e-09
581.3	0.8999	8.1e-08	8e-09
581.3	0.9503	4.8e-08	8e-09
581.3	1	0	1e-08
586.3	0	0	1e-08
586.3	0.05	4.2e-08	8e-09
586.3	0.0998	7.1e-08	8e-09
586.3	0.2	1.09e-07	8e-09
586.3	0.3	1.42e-07	8e-09
586.3	0.4	1.71e-07	8e-09
586.3	0.5	1.86e-07	8e-09
586.3	0.6	1.84e-07	8e-09
586.3	0.7	1.65e-07	8e-09
586.3	0.8002	1.36e-07	8e-09
586.3	0.8999	9.2e-08	8e-09
586.3	0.9503	5.6e-08	8e-09
586.3	1	0	1e-08

System: nitromethane + 2-butoxyethan-1-ol; phases: Liquid
Fixed: Pressure, kPa = 101
Property: Viscosity, Pa*s (Liquid); method: Capillary tube (Ostwald; Ubbelohde) method
Temperature, K	Mole fraction of nitromethane	Viscosity, Pa*s	uncertainty
293.15	0	0.003239	2.9e-05
293.15	0.0557	0.003019	2.7e-05
293.15	0.106	0.002815	2.5e-05
293.15	0.1974	0.002451	2.1e-05
293.15	0.3083	0.002031	1.7e-05
293.15	0.4014	0.001716	1.4e-05
293.15	0.4487	0.001571	1.3e-05
293.15	0.4997	0.001432	1.2e-05
293.15	0.5492	0.001307	1.1e-05
293.15	0.5947	0.001203	1e-05
293.15	0.699	0.000996	9e-06
293.15	0.8012	0.000838	8e-06
293.15	0.8981	0.00072	7e-06
293.15	0.9475	0.000679	7e-06
293.15	1	0.000648	7e-06
298.45	0	0.002825	2.6e-05
298.45	0.0506	0.002654	2.5e-05
298.45	0.1012	0.002483	2.3e-05
298.45	0.2015	0.002165	2e-05
298.45	0.2997	0.001873	1.7e-05
298.45	0.4047	0.001581	1.4e-05
298.45	0.4498	0.001464	1.3e-05
298.45	0.5008	0.001339	1.2e-05
298.45	0.5481	0.001234	1.1e-05
298.45	0.5976	0.001131	1e-05
298.45	0.6984	0.000943	9e-06
298.45	0.7981	0.0008	8e-06
298.45	0.8986	0.000689	7e-06
298.45	0.9394	0.000655	7e-06
298.45	1	0.000619	6e-06
303.15	0	0.002449	2.4e-05
303.15	0.0522	0.002307	2.3e-05
303.15	0.1004	0.002171	2.1e-05
303.15	0.2155	0.00185	1.8e-05
303.15	0.299	0.001635	1.6e-05
303.15	0.3996	0.001399	1.3e-05
303.15	0.4495	0.001292	1.2e-05
303.15	0.5002	0.001191	1.1e-05
303.15	0.5482	0.001102	1e-05
303.15	0.5993	0.00101	1e-05
303.15	0.6998	0.000858	8e-06
303.15	0.7994	0.000738	7e-06
303.15	0.9005	0.000648	7e-06
303.15	0.9436	0.000619	6e-06
303.15	1	0.000584	6e-06
308.15	0	0.002079	2.2e-05
308.15	0.0501	0.001967	2.1e-05
308.15	0.1048	0.001844	1.9e-05
308.15	0.198	0.001639	1.7e-05
308.15	0.3012	0.001427	1.4e-05
308.15	0.3999	0.001243	1.2e-05
308.15	0.4502	0.001154	1.1e-05
308.15	0.4998	0.001071	1.1e-05
308.15	0.5499	0.000991	1e-05
308.15	0.5998	0.000917	9e-06
308.15	0.6994	0.000786	8e-06
308.15	0.7997	0.000685	7e-06
308.15	0.8986	0.000616	7e-06
308.15	0.9465	0.00059	6e-06
308.15	1	0.000563	6e-06
313.15	0	0.001689	2e-05
313.15	0.0511	0.001606	1.9e-05
313.15	0.1135	0.001493	1.8e-05
313.15	0.2156	0.001314	1.6e-05
313.15	0.2993	0.00118	1.4e-05
313.15	0.3971	0.001042	1.2e-05
313.15	0.4497	0.000974	1.1e-05
313.15	0.4973	0.000915	1e-05
313.15	0.5458	0.000858	9e-06
313.15	0.5989	0.000798	9e-06
313.15	0.6958	0.000698	8e-06
313.15	0.8004	0.000617	7e-06
313.15	0.893	0.000572	6e-06
313.15	0.9491	0.000556	6e-06
313.15	1	0.000545	6e-06

System: nitromethane + 2-butoxyethan-1-ol; phases: Liquid
Fixed: Pressure, kPa = 101
Fixed: Frequency, MHz = 3
Property: Relative permittivity at various frequencies (Liquid); method: AC method
Temperature, K	Mole fraction of nitromethane	Relative permittivity at various frequencies	uncertainty
293.15	0	9.78	0.04
293.15	0.05	12.57	0.05
293.15	0.0999	14.98	0.05
293.15	0.2	19.71	0.05
293.15	0.3	24.36	0.06
293.15	0.4	28.77	0.06
293.15	0.5	32.64	0.06
293.15	0.6	35.72	0.06
293.15	0.7001	38.28	0.06
293.15	0.8	40.28	0.05
293.15	0.9005	40.93	0.05
293.15	0.95	39.91	0.05
293.15	1	37.31	0.05
298.15	0	9.35	0.04
298.15	0.05	11.95	0.05
298.15	0.0999	14.28	0.05
298.15	0.2	18.87	0.05
298.15	0.3	23.34	0.06
298.15	0.4	27.63	0.06
298.15	0.5	31.38	0.07
298.15	0.6	34.44	0.07
298.15	0.7001	36.93	0.07
298.15	0.8	38.93	0.07
298.15	0.9005	39.67	0.07
298.15	0.95	38.78	0.07
298.15	1	36.52	0.05
303.15	0	8.88	0.04
303.15	0.05	11.28	0.05
303.15	0.0999	13.54	0.05
303.15	0.2	18	0.05
303.15	0.3	22.34	0.06
303.15	0.4	26.37	0.06
303.15	0.5	29.98	0.07
303.15	0.6	32.99	0.07
303.15	0.7001	35.47	0.07
303.15	0.8	37.36	0.07
303.15	0.9005	37.93	0.07
303.15	0.95	37.3	0.07
303.15	1	35.66	0.05
308.15	0	8.39	0.04
308.15	0.05	10.61	0.05
308.15	0.0999	12.78	0.05
308.15	0.2	17.16	0.05
308.15	0.3	21.34	0.06
308.15	0.4	25.27	0.06
308.15	0.5	28.79	0.06
308.15	0.6	31.85	0.06
308.15	0.7001	34.31	0.06
308.15	0.8	36	0.07
308.15	0.9005	36.51	0.07
308.15	0.95	36.07	0.06
308.15	1	34.92	0.05
313.15	0	7.91	0.04
313.15	0.05	9.96	0.05
313.15	0.0999	12.04	0.05
313.15	0.2	16.23	0.06
313.15	0.3	20.28	0.06
313.15	0.4	24.13	0.06
313.15	0.5	27.65	0.07
313.15	0.6	30.75	0.07
313.15	0.7001	33.16	0.07
313.15	0.8	34.68	0.08
313.15	0.9005	35.07	0.08
313.15	0.95	34.84	0.07
313.15	1	34.09	0.05

System: nitromethane + 2-butoxyethan-1-ol; phases: Liquid
Fixed: Pressure, kPa = 101
Property: Speed of sound, m/s (Liquid); method: Resonance method
Temperature, K	Mole fraction of nitromethane	Speed of sound, m/s	uncertainty
293.15	0	1323.9	2.3
293.15	0.0507	1322.4	2.3
293.15	0.1001	1321.8	2.3
293.15	0.2003	1318.8	2.3
293.15	0.3003	1316.1	2.3
293.15	0.4005	1313.7	2.3
293.15	0.5002	1312	2.3
293.15	0.6	1311.8	2.3
293.15	0.7	1313.7	2.3
293.15	0.7999	1318.2	2.4
293.15	0.8999	1326.4	2.4
293.15	0.95	1332.4	2.4
293.15	1	1340.2	2.4
298.15	0	1306.8	2.3
298.15	0.0507	1305.6	2.3
298.15	0.1001	1304.5	2.3
298.15	0.2003	1302.2	2.3
298.15	0.3003	1299.6	2.3
298.15	0.4005	1297.2	2.3
298.15	0.5002	1295.5	2.3
298.15	0.6	1295.2	2.3
298.15	0.7	1296.8	2.3
298.15	0.7999	1300.9	2.3
298.15	0.8999	1308.5	2.4
298.15	0.95	1313.8	2.4
298.15	1	1320.4	2.4
303.15	0	1290.6	2.3
303.15	0.0507	1289.5	2.3
303.15	0.1001	1288.6	2.3
303.15	0.2003	1286.3	2.3
303.15	0.3003	1283.6	2.3
303.15	0.4005	1281.1	2.3
303.15	0.5002	1279.2	2.3
303.15	0.6	1278.5	2.3
303.15	0.7	1279.5	2.3
303.15	0.7999	1282.9	2.3
303.15	0.8999	1288.9	2.3
303.15	0.95	1293.2	2.4
303.15	1	1298.1	2.4
308.15	0	1273.5	2.3
308.15	0.0507	1273.1	2.3
308.15	0.1001	1272.2	2.3
308.15	0.2003	1270.2	2.3
308.15	0.3003	1267.9	2.3
308.15	0.4005	1265.9	2.3
308.15	0.5002	1264.2	2.3
308.15	0.6	1263.4	2.3
308.15	0.7	1264.3	2.3
308.15	0.7999	1267.3	2.3
308.15	0.8999	1273.2	2.3
308.15	0.95	1276.9	2.3
308.15	1	1281.2	2.3
313.15	0	1257.7	2.3
313.15	0.0507	1257.4	2.3
313.15	0.1001	1256.8	2.3
313.15	0.2003	1254.9	2.3
313.15	0.3003	1252.7	2.3
313.15	0.4005	1250.6	2.3
313.15	0.5002	1248.8	2.3
313.15	0.6	1248	2.3
313.15	0.7	1248.7	2.3
313.15	0.7999	1251.4	2.3
313.15	0.8999	1256.3	2.3
313.15	0.95	1259.5	2.3
313.15	1	1262.8	2.4

System: nitromethane + 2-butoxyethan-1-ol; phases: Liquid
Fixed: Pressure, kPa = 101
Property: Mass density, kg/m3 (Liquid); method: Pycnometric method
Temperature, K	Mole fraction of nitromethane	Mass density, kg/m3	uncertainty
293.15	0	901.19	0.46
293.15	0.05	905.83	0.47
293.15	0.0999	910.77	0.48
293.15	0.2	921.75	0.5
293.15	0.3	934.29	0.52
293.15	0.4	948.84	0.54
293.15	0.5	966.21	0.57
293.15	0.6	987.24	0.6
293.15	0.7	1013.09	0.64
293.15	0.8002	1045.18	0.7
293.15	0.8999	1085.39	0.7
293.15	0.9503	1109.89	0.69
293.15	1	1137.63	0.66
298.15	0	896.29	0.45
298.15	0.05	900.85	0.45
298.15	0.0999	905.68	0.46
298.15	0.2	916.48	0.47
298.15	0.3	928.9	0.49
298.15	0.4	943.34	0.5
298.15	0.5	960.53	0.52
298.15	0.6	981.35	0.54
298.15	0.7	1006.9	0.57
298.15	0.8002	1038.68	0.6
298.15	0.8999	1078.61	0.64
298.15	0.9503	1103.01	0.66
298.15	1	1130.62	0.67
303.15	0	892.35	0.45
303.15	0.05	896.7	0.46
303.15	0.0999	901.4	0.47
303.15	0.2	911.94	0.48
303.15	0.3	924.13	0.5
303.15	0.4	938.41	0.51
303.15	0.5	955.38	0.53
303.15	0.6	975.84	0.55
303.15	0.7	1000.85	0.58
303.15	0.8002	1032.09	0.61
303.15	0.8999	1071.54	0.64
303.15	0.9503	1095.83	0.66
303.15	1	1123.6	0.67
308.15	0	887.83	0.46
308.15	0.05	891.97	0.47
308.15	0.0999	896.44	0.48
308.15	0.2	906.69	0.49
308.15	0.3	918.65	0.51
308.15	0.4	932.71	0.52
308.15	0.5	949.47	0.54
308.15	0.6	969.67	0.56
308.15	0.7	994.45	0.58
308.15	0.8002	1025.45	0.62
308.15	0.8999	1064.77	0.65
308.15	0.9503	1089.08	0.67
308.15	1	1116.86	0.67
313.15	0	883.59	0.46
313.15	0.05	887.43	0.47
313.15	0.0999	891.75	0.47
313.15	0.2	901.79	0.48
313.15	0.3	913.58	0.49
313.15	0.4	927.46	0.49
313.15	0.5	943.98	0.5
313.15	0.6	963.96	0.51
313.15	0.7	988.46	0.52
313.15	0.8002	1018.86	0.54
313.15	0.8999	1057.69	0.6
313.15	0.9503	1081.78	0.64
313.15	1	1109.87	0.68

System: nitromethane + 2-butoxyethan-1-ol; phases: Liquid
Fixed: Pressure, kPa = 101
Property: Excess molar volume, m3/mol (Liquid); method: Calculated with densities of this investigation
Temperature, K	Mole fraction of nitromethane	Excess molar volume, m3/mol	uncertainty
566.3	0	0	1e-08
566.3	0.05	4.8e-08	8e-09
566.3	0.0999	9.4e-08	8e-09
566.3	0.2	1.73e-07	8e-09
566.3	0.3	2.51e-07	8e-09
566.3	0.4	3.19e-07	9e-09
566.3	0.5	3.47e-07	9e-09
566.3	0.6	3.32e-07	9e-09
566.3	0.7	2.72e-07	9e-09
566.3	0.8002	1.88e-07	8e-09
566.3	0.8999	9.6e-08	8e-09
566.3	0.9503	4.9e-08	8e-09
566.3	1	0	1e-08
571.3	0	0	1e-08
571.3	0.05	5.4e-08	8e-09
571.3	0.0999	1.09e-07	8e-09
571.3	0.2	1.99e-07	8e-09
571.3	0.3	2.77e-07	9e-09
571.3	0.4	3.41e-07	9e-09
571.3	0.5	3.7e-07	9e-09
571.3	0.6	3.55e-07	9e-09
571.3	0.7	2.98e-07	9e-09
571.3	0.8002	2.12e-07	8e-09
571.3	0.8999	1.12e-07	8e-09
571.3	0.9503	5.6e-08	8e-09
571.3	1	0	1e-08
576.3	0	0	1e-08
576.3	0.05	7.6e-08	8e-09
576.3	0.0999	1.41e-07	8e-09
576.3	0.2	2.45e-07	9e-09
576.3	0.3	3.29e-07	9e-09
576.3	0.4	3.88e-07	9e-09
576.3	0.5	4.14e-07	9e-09
576.3	0.6	4.03e-07	9e-09
576.3	0.7	3.57e-07	9e-09
576.3	0.8002	2.72e-07	9e-09
576.3	0.8999	1.58e-07	8e-09
576.3	0.9503	8.6e-08	8e-09
576.3	1	0	1e-08
581.3	0	0	1e-08
581.3	0.05	1.02e-07	8e-09
581.3	0.0999	1.92e-07	8e-09
581.3	0.2	3.19e-07	9e-09
581.3	0.3	4.11e-07	9e-09
581.3	0.4	4.73e-07	1e-08
581.3	0.5	4.96e-07	1e-08
581.3	0.6	4.84e-07	1e-08
581.3	0.7	4.28e-07	9e-09
581.3	0.8002	3.29e-07	9e-09
581.3	0.8999	1.92e-07	8e-09
581.3	0.9503	1.02e-07	8e-09
581.3	1	0	1e-08
586.3	0	0	1e-08
586.3	0.05	1.39e-07	8e-09
586.3	0.0999	2.43e-07	8e-09
586.3	0.2	3.78e-07	9e-09
586.3	0.3	4.71e-07	1e-08
586.3	0.4	5.31e-07	1e-08
586.3	0.5	5.54e-07	1e-08
586.3	0.6	5.34e-07	1e-08
586.3	0.7	4.72e-07	9e-09
586.3	0.8002	3.83e-07	9e-09
586.3	0.8999	2.38e-07	8e-09
586.3	0.9503	1.39e-07	8e-09
586.3	1	0	1e-08
