Measured thermophysical data. On the permittivity and density measurements of binary systems of {triglyme + (n-nonane or n-dodecane) } at various temperatures
Source: J. Chem. Thermodyn., 2005, 10.1016/j.jct.2004.08.003
Compound 1: 2,5,8,11-tetraoxadodecane, C8H18O4, InChI=1S/C8H18O4/c1-9-3-5-11-7-8-12-6-4-10-2/h3-8H2,1-2H3, purity 99%
Compound 2: nonane, C9H20, InChI=1S/C9H20/c1-3-5-7-9-8-6-4-2/h3-9H2,1-2H3, purity 99.5%
Compound 3: dodecane, C12H26, InChI=1S/C12H26/c1-3-5-7-9-11-12-10-8-6-4-2/h3-12H2,1-2H3, purity 99%

System: 2,5,8,11-tetraoxadodecane; phases: Liquid
Fixed: Pressure, kPa = 101.325
Property: Mass density, kg/m3 (Liquid); method: VIBTUB:UFactor:16
Temperature, K	Mass density, kg/m3	uncertainty
288.15	989.16	0.76
293.15	984.16	0.78
298.15	979.61	0.8
303.15	974.85	0.82
308.15	970.85	0.84
318.15	960.67	0.89
328.15	951.06	0.94

System: 2,5,8,11-tetraoxadodecane; phases: Liquid
Fixed: Pressure, kPa = 101.3
Fixed: Frequency, MHz = 1
Property: Relative permittivity at various frequencies (Liquid); method: HP4284A LCR Meter with HP16452A measuring cell
Temperature, K	Relative permittivity at various frequencies	uncertainty
288.15	7.88	0.16
293.15	7.73	0.15
298.15	7.58	0.15
303.15	7.46	0.15
308.15	7.33	0.15
318.15	7.09	0.14
328.15	6.88	0.14

System: nonane; phases: Liquid
Fixed: Pressure, kPa = 101.325
Property: Mass density, kg/m3 (Liquid); method: VIBTUB:UFactor:4
Temperature, K	Mass density, kg/m3	uncertainty
288.15	721.77	0.6
293.15	717.76	0.6
298.15	713.77	0.61
303.15	709.89	0.61
308.15	706.2	0.62
318.15	698.14	0.63
328.15	690.14	0.64

System: nonane; phases: Liquid
Fixed: Pressure, kPa = 101.3
Fixed: Frequency, MHz = 1
Property: Relative permittivity at various frequencies (Liquid); method: HP4284A LCR Meter with HP16452A measuring cell
Temperature, K	Relative permittivity at various frequencies	uncertainty
288.15	1.99	0.04
293.15	1.99	0.04
298.15	1.98	0.04
303.15	1.97	0.04
308.15	1.96	0.04
318.15	1.95	0.04
328.15	1.94	0.04

System: dodecane; phases: Liquid
Fixed: Pressure, kPa = 101.325
Property: Mass density, kg/m3 (Liquid); method: VIBTUB:UFactor:4
Temperature, K	Mass density, kg/m3	uncertainty
288.15	752.44	0.64
293.15	748.8	0.65
298.15	745.19	0.65
303.15	741.57	0.66
308.15	737.93	0.66
318.15	730.7	0.67
328.15	723.32	0.68

System: dodecane; phases: Liquid
Fixed: Pressure, kPa = 101.3
Fixed: Frequency, MHz = 1
Property: Relative permittivity at various frequencies (Liquid); method: HP4284A LCR Meter with HP16452A measuring cell
Temperature, K	Relative permittivity at various frequencies	uncertainty
288.15	2.04	0.04
293.15	2.03	0.04
298.15	2.02	0.04
303.15	2.02	0.04
308.15	2.01	0.04
318.15	2	0.04
328.15	1.99	0.04

System: nonane + 2,5,8,11-tetraoxadodecane; phases: Liquid
Fixed: Pressure, kPa = 101.3
Property: Relative permittivity at various frequencies (Liquid); method: HP4284A LCR Meter with HP16452A measuring cell
Temperature, K	Mole fraction of 2,5,8,11-tetraoxadodecane	Relative permittivity at various frequencies	uncertainty
288.15	0.0979	2.32	0.05
288.15	0.1997	2.72	0.05
288.15	0.2461	2.91	0.06
288.15	0.2965	3.15	0.06
288.15	0.3969	3.65	0.07
288.15	0.5043	4.24	0.08
288.15	0.6013	4.83	0.1
288.15	0.6972	5.48	0.11
288.15	0.7975	6.22	0.12
288.15	0.8996	7.02	0.14
288.15	0.9503	7.44	0.15
293.15	0.0979	2.3	0.05
293.15	0.1999	2.7	0.05
293.15	0.2483	2.9	0.06
293.15	0.2962	3.12	0.06
293.15	0.3968	3.61	0.07
293.15	0.5047	4.2	0.08
293.15	0.6015	4.78	0.1
293.15	0.6957	5.4	0.11
293.15	0.7975	6.11	0.12
293.15	0.8996	6.9	0.14
293.15	0.951	7.31	0.15
298.15	0.0975	2.3	0.05
298.15	0.2091	2.72	0.05
298.15	0.2569	2.92	0.06
298.15	0.2955	3.08	0.06
298.15	0.4035	3.61	0.07
298.15	0.5005	4.13	0.08
298.15	0.5944	4.67	0.09
298.15	0.6956	5.32	0.11
298.15	0.8007	6.04	0.12
298.15	0.901	6.79	0.14
298.15	0.9489	7.17	0.14
303.15	0.099	2.28	0.05
303.15	0.2015	2.66	0.05
303.15	0.2491	2.86	0.06
303.15	0.297	3.06	0.06
303.15	0.4001	3.56	0.07
303.15	0.4967	4.06	0.08
303.15	0.596	4.63	0.09
303.15	0.6976	5.27	0.11
303.15	0.7976	5.93	0.12
303.15	0.9012	6.69	0.13
303.15	0.9496	7.06	0.14
308.15	0.0979	2.26	0.05
308.15	0.1997	2.63	0.05
308.15	0.2461	2.81	0.06
308.15	0.2965	3.03	0.06
308.15	0.3969	3.49	0.07
308.15	0.5043	4.05	0.08
308.15	0.6013	4.6	0.09
308.15	0.6972	5.19	0.1
308.15	0.7975	5.85	0.12
308.15	0.8996	6.58	0.13
308.15	0.9503	6.96	0.14
318.15	0.0987	2.24	0.05
318.15	0.2016	2.6	0.05
318.15	0.248	2.78	0.06
318.15	0.2973	2.97	0.06
318.15	0.4	3.43	0.07
318.15	0.502	3.94	0.08
318.15	0.6006	4.48	0.09
318.15	0.6982	5.07	0.1
318.15	0.8053	5.75	0.12
318.15	0.9018	6.42	0.13
318.15	0.9503	6.75	0.14
328.15	0.1007	2.23	0.04
328.15	0.2003	2.57	0.05
328.15	0.2486	2.75	0.06
328.15	0.2973	2.95	0.06
328.15	0.3958	3.38	0.07
328.15	0.496	3.86	0.08
328.15	0.5967	4.38	0.09
328.15	0.6922	4.92	0.1
328.15	0.798	5.55	0.11
328.15	0.8997	6.21	0.12
328.15	0.9487	6.53	0.13

System: nonane + 2,5,8,11-tetraoxadodecane; phases: Liquid
Fixed: Pressure, kPa = 101.3
Property: Mass density, kg/m3 (Liquid); method: VIBTUB:UFactor:8
Temperature, K	Mole fraction of 2,5,8,11-tetraoxadodecane	Mass density, kg/m3	uncertainty
288.15	0.0981	746.25	1.06
288.15	0.1985	771.84	0.99
288.15	0.2459	784.06	0.96
288.15	0.2944	796.71	0.93
288.15	0.3937	822.83	0.86
288.15	0.4957	850.01	0.8
288.15	0.5957	876.93	0.73
288.15	0.6952	904	0.68
288.15	0.7937	931.06	0.63
288.15	0.9005	960.86	0.59
288.15	0.9494	974.71	0.58
293.15	0.1006	742.71	1.07
293.15	0.1961	766.97	1.01
293.15	0.2461	779.84	0.97
293.15	0.2982	793.34	0.94
293.15	0.3979	819.48	0.87
293.15	0.4995	846.49	0.81
293.15	0.5939	871.77	0.75
293.15	0.6986	900.11	0.69
293.15	0.7979	927.37	0.64
293.15	0.9022	956.37	0.6
293.15	0.95	969.87	0.59
298.15	0.1006	738.55	1.09
298.15	0.1961	762.73	1.02
298.15	0.2461	775.58	0.98
298.15	0.2982	789.07	0.95
298.15	0.3979	815.17	0.88
298.15	0.4995	842.12	0.82
298.15	0.5939	867.4	0.76
298.15	0.6986	895.69	0.7
298.15	0.7979	922.84	0.65
298.15	0.9022	951.81	0.61
298.15	0.95	965.31	0.6
303.15	0.0982	733.94	1.1
303.15	0.2002	759.61	1.03
303.15	0.2485	771.99	0.99
303.15	0.2996	785.17	0.96
303.15	0.3994	811.21	0.89
303.15	0.495	836.5	0.83
303.15	0.5989	864.2	0.77
303.15	0.6998	891.41	0.71
303.15	0.8005	918.9	0.66
303.15	0.8999	946.47	0.62
303.15	0.9499	960.53	0.6
308.15	0.0977	729.91	1.11
308.15	0.1975	754.98	1.04
308.15	0.2469	767.58	1.01
308.15	0.2964	780.35	0.97
308.15	0.3944	805.91	0.91
308.15	0.4956	832.62	0.84
308.15	0.5976	859.8	0.78
308.15	0.6967	886.45	0.72
308.15	0.7937	912.91	0.67
308.15	0.9021	942.91	0.62
308.15	0.9497	956.38	0.61
318.15	0.0998	722.15	1.14
318.15	0.1975	746.41	1.07
318.15	0.2484	759.29	1.03
318.15	0.3021	773.02	1
318.15	0.3883	795.32	0.94
318.15	0.4998	824.5	0.87
318.15	0.5991	850.79	0.8
318.15	0.6998	877.63	0.74
318.15	0.799	904.47	0.69
318.15	0.9009	932.54	0.64
318.15	0.9498	946.28	0.63
328.15	0.0998	713.9	1.16
328.15	0.1975	737.96	1.09
328.15	0.2484	750.75	1.06
328.15	0.3021	764.37	1.02
328.15	0.3883	786.52	0.96
328.15	0.4998	815.5	0.89
328.15	0.5991	841.63	0.83
328.15	0.6998	868.32	0.76
328.15	0.799	894.99	0.71
328.15	0.9009	922.95	0.66
328.15	0.95	936.74	0.64

System: dodecane + 2,5,8,11-tetraoxadodecane; phases: Liquid
Fixed: Pressure, kPa = 101.3
Fixed: Frequency, MHz = 1
Property: Relative permittivity at various frequencies (Liquid); method: HP4284A LCR Meter with HP16452A measuring cell
Temperature, K	Mole fraction of 2,5,8,11-tetraoxadodecane	Relative permittivity at various frequencies	uncertainty
288.15	0.0993	2.3	0.05
288.15	0.1981	2.61	0.05
288.15	0.2498	2.79	0.06
288.15	0.3051	3.01	0.06
288.15	0.396	3.4	0.07
288.15	0.5011	3.92	0.08
288.15	0.5991	4.51	0.09
288.15	0.7114	5.28	0.11
288.15	0.7994	5.98	0.12
288.15	0.8996	6.87	0.14
288.15	0.9504	7.37	0.15
293.15	0.0992	2.3	0.05
293.15	0.2005	2.6	0.05
293.15	0.252	2.78	0.06
293.15	0.2988	2.95	0.06
293.15	0.3978	3.37	0.07
293.15	0.5003	3.87	0.08
293.15	0.6016	4.45	0.09
293.15	0.698	5.08	0.1
293.15	0.7995	5.85	0.12
293.15	0.8997	6.73	0.13
293.15	0.9492	7.2	0.14
298.15	0.088	2.25	0.05
298.15	0.2006	2.58	0.05
298.15	0.2494	2.74	0.06
298.15	0.3046	2.95	0.06
298.15	0.4127	3.4	0.07
298.15	0.496	3.8	0.08
298.15	0.5972	4.35	0.09
298.15	0.6987	4.98	0.1
298.15	0.8028	5.76	0.12
298.15	0.9022	6.61	0.13
298.15	0.9504	7.07	0.14
303.15	0.099	2.26	0.05
303.15	0.1997	2.56	0.05
303.15	0.2517	2.73	0.05
303.15	0.2994	2.9	0.06
303.15	0.3976	3.3	0.07
303.15	0.4991	3.76	0.08
303.15	0.5969	4.29	0.09
303.15	0.699	4.94	0.1
303.15	0.8015	5.69	0.11
303.15	0.9058	6.55	0.13
303.15	0.9494	6.96	0.14
308.15	0.0988	2.25	0.05
308.15	0.1965	2.53	0.05
308.15	0.2471	2.7	0.05
308.15	0.307	2.91	0.06
308.15	0.4071	3.31	0.07
308.15	0.4983	3.73	0.07
308.15	0.598	4.25	0.09
308.15	0.6938	4.83	0.1
308.15	0.7997	5.57	0.11
308.15	0.9018	6.41	0.13
308.15	0.9501	6.86	0.14
318.15	0.0989	2.23	0.04
318.15	0.2	2.51	0.05
318.15	0.249	2.66	0.05
318.15	0.297	2.82	0.06
318.15	0.3929	3.18	0.06
318.15	0.5026	3.66	0.07
318.15	0.6015	4.16	0.08
318.15	0.7035	4.76	0.1
318.15	0.7989	5.4	0.11
318.15	0.9004	6.19	0.12
318.15	0.9505	6.62	0.13
328.15	0.0988	2.23	0.04
328.15	0.1986	2.49	0.05
328.15	0.2483	2.62	0.05
328.15	0.3062	2.81	0.06
328.15	0.3961	3.14	0.06
328.15	0.4986	3.56	0.07
328.15	0.596	4.03	0.08
328.15	0.6969	4.61	0.09
328.15	0.7914	5.22	0.1
328.15	0.8935	5.99	0.12
328.15	0.9494	6.44	0.13

System: dodecane + 2,5,8,11-tetraoxadodecane; phases: Liquid
Fixed: Pressure, kPa = 101.3
Property: Mass density, kg/m3 (Liquid); method: VIBTUB:UFactor:8
Temperature, K	Mole fraction of 2,5,8,11-tetraoxadodecane	Mass density, kg/m3	uncertainty
288.15	0.0983	769.24	1.05
288.15	0.2007	788.2	1
288.15	0.2526	798.35	0.97
288.15	0.2974	807.41	0.95
288.15	0.398	828.67	0.89
288.15	0.5097	853.81	0.84
288.15	0.5986	875.06	0.78
288.15	0.6981	900.28	0.73
288.15	0.8012	928.25	0.67
288.15	0.9009	957.48	0.62
288.15	0.951	973.13	0.59
293.15	0.0989	765.55	1.06
293.15	0.1969	783.56	1.01
293.15	0.2488	793.6	0.98
293.15	0.3069	805.3	0.95
293.15	0.4006	825.05	0.9
293.15	0.5006	847.38	0.85
293.15	0.5981	870.51	0.79
293.15	0.6989	895.89	0.74
293.15	0.7963	922.13	0.68
293.15	0.9032	953.28	0.62
293.15	0.95	967.84	0.6
298.15	0.0984	761.73	1.07
298.15	0.1995	780.21	1.02
298.15	0.2511	790.16	0.99
298.15	0.3005	800.04	0.97
298.15	0.3988	820.63	0.91
298.15	0.4974	842.53	0.86
298.15	0.598	866.25	0.8
298.15	0.6997	891.79	0.74
298.15	0.7954	917.48	0.69
298.15	0.9014	948.24	0.63
298.15	0.9513	963.73	0.61
303.15	0.0987	758.05	1.08
303.15	0.2033	777	1.03
303.15	0.2498	785.94	1
303.15	0.2994	795.76	0.98
303.15	0.3949	815.57	0.93
303.15	0.5002	838.84	0.87
303.15	0.5996	862.24	0.81
303.15	0.6979	886.84	0.76
303.15	0.7996	914.11	0.7
303.15	0.9015	943.66	0.64
303.15	0.9509	958.94	0.61
308.15	0.1	754.59	1.09
308.15	0.1987	772.42	1.04
308.15	0.2494	782.08	1.01
308.15	0.2992	791.92	0.99
308.15	0.3968	812.1	0.94
308.15	0.5058	836.19	0.88
308.15	0.5976	857.76	0.82
308.15	0.6974	882.71	0.76
308.15	0.7998	910.17	0.7
308.15	0.9025	939.96	0.65
308.15	0.9512	955.04	0.62
318.15	0.0976	746.77	1.11
318.15	0.1979	764.58	1.06
318.15	0.248	773.96	1.03
318.15	0.3015	784.34	1.01
318.15	0.4004	804.52	0.96
318.15	0.5013	826.47	0.9
318.15	0.6035	850.21	0.84
318.15	0.6959	873.06	0.79
318.15	0.7956	899.51	0.73
318.15	0.9025	930.16	0.66
318.15	0.949	944.39	0.64
328.15	0.0996	739.48	1.13
328.15	0.208	758.56	1.08
328.15	0.2561	767.51	1.05
328.15	0.3036	776.66	1.03
328.15	0.3988	795.88	0.98
328.15	0.4898	815.4	0.93
328.15	0.5972	839.96	0.87
328.15	0.6906	862.83	0.81
328.15	0.8023	892.19	0.74
328.15	0.8988	919.73	0.68
328.15	0.9518	935.78	0.65
