Measured thermophysical data. Densities and speeds of sound for binary mixtures of (1,3-dioxolane or 1,4-dioxane) with (2-methyl-1-propanol or 2-methyl-2-propanol) at the temperatures 298.15 K and 313.15 K
Source: J. Chem. Thermodyn., 2004, 10.1016/j.jct.2004.07.015
Compound 1: 1,3-dioxolane, C3H6O2, InChI=1S/C3H6O2/c1-2-5-3-4-1/h1-3H2, purity 99%
Compound 2: 1,4-dioxane, C4H8O2, InChI=1S/C4H8O2/c1-2-6-4-3-5-1/h1-4H2, purity 99.9%
Compound 3: 2-methyl-1-propanol, C4H10O, InChI=1S/C4H10O/c1-4(2)3-5/h4-5H,3H2,1-2H3, purity 99.5%
Compound 4: 2-methylpropan-2-ol, C4H10O, InChI=1S/C4H10O/c1-4(2,3)5/h5H,1-3H3, purity 99.5%

System: 1,3-dioxolane; phases: Liquid
Fixed: Pressure, kPa = 101.325
Property: Speed of sound, m/s (Liquid); method: FPINT:UFactor:2
Temperature, K	Speed of sound, m/s	uncertainty
298.15	1340.2	1.7
313.15	1270.9	1.6

System: 1,3-dioxolane; phases: Liquid
Fixed: Pressure, kPa = 101.325
Property: Mass density, kg/m3 (Liquid); method: VIBTUB:UFactor:4
Temperature, K	Mass density, kg/m3	uncertainty
298.15	1058.98	0.58
313.15	1040	0.56

System: 1,4-dioxane; phases: Liquid
Fixed: Pressure, kPa = 101.325
Property: Speed of sound, m/s (Liquid); method: FPINT:UFactor:2
Temperature, K	Speed of sound, m/s	uncertainty
298.15	1344.8	1.4
313.15	1279.8	1.3

System: 1,4-dioxane; phases: Liquid
Fixed: Pressure, kPa = 101.325
Property: Mass density, kg/m3 (Liquid); method: VIBTUB:UFactor:4
Temperature, K	Mass density, kg/m3	uncertainty
298.15	1027.96	0.18
313.15	1010.8	0.15

System: 2-methyl-1-propanol; phases: Liquid
Fixed: Pressure, kPa = 101.325
Property: Speed of sound, m/s (Liquid); method: FPINT:UFactor:2
Temperature, K	Speed of sound, m/s	uncertainty
298.15	1188.5	1.3
313.15	1138.4	1.3

System: 2-methyl-1-propanol; phases: Liquid
Fixed: Pressure, kPa = 101.325
Property: Mass density, kg/m3 (Liquid); method: VIBTUB:UFactor:4
Temperature, K	Mass density, kg/m3	uncertainty
298.15	797.83	0.49
313.15	785.96	0.51

System: 2-methylpropan-2-ol; phases: Liquid
Fixed: Pressure, kPa = 101.325
Property: Speed of sound, m/s (Liquid); method: FPINT:UFactor:2
Temperature, K	Speed of sound, m/s	uncertainty
298.15	1122.8	1.3
313.15	1057.4	1.2

System: 2-methylpropan-2-ol; phases: Liquid
Fixed: Pressure, kPa = 101.325
Property: Mass density, kg/m3 (Liquid); method: VIBTUB:UFactor:4
Temperature, K	Mass density, kg/m3	uncertainty
298.15	780.86	0.51
313.15	765.16	0.54

System: 2-methyl-1-propanol + 1,3-dioxolane; phases: Liquid
Fixed: Pressure, kPa = 101.3
Property: Speed of sound, m/s (Liquid); method: FPINT:UFactor:2
Temperature, K	Mole fraction of 1,3-dioxolane	Speed of sound, m/s	uncertainty
298.15	0.0675	1193.2	1.3
298.15	0.0932	1195.3	1.4
298.15	0.2005	1205.1	1.4
298.15	0.2946	1214.8	1.4
298.15	0.395	1226.7	1.4
298.15	0.5062	1241.8	1.5
298.15	0.6065	1258.1	1.5
298.15	0.6977	1274.3	1.6
298.15	0.7995	1295.4	1.6
298.15	0.8957	1316.5	1.6
298.15	0.9451	1327.6	1.7
313.15	0.0434	1140.5	1.3
313.15	0.0922	1143.6	1.3
313.15	0.1938	1151.2	1.3
313.15	0.2946	1159.9	1.4
313.15	0.3984	1170.5	1.4
313.15	0.5044	1182.9	1.4
313.15	0.6042	1196.4	1.5
313.15	0.6962	1211.4	1.5
313.15	0.8009	1230.6	1.6
313.15	0.8928	1249.5	1.6
313.15	0.9439	1260.2	1.6

System: 2-methyl-1-propanol + 1,3-dioxolane; phases: Liquid
Fixed: Pressure, kPa = 101.3
Property: Mass density, kg/m3 (Liquid); method: VIBTUB:UFactor:2
Temperature, K	Mole fraction of 1,3-dioxolane	Mass density, kg/m3	uncertainty
298.15	0.0675	810.83	0.3
298.15	0.0932	815.89	0.31
298.15	0.2005	837.99	0.32
298.15	0.2946	858.48	0.33
298.15	0.395	881.68	0.35
298.15	0.5062	908.95	0.37
298.15	0.6065	935.18	0.4
298.15	0.6977	960.69	0.42
298.15	0.7995	991.23	0.46
298.15	0.8957	1022.45	0.5
298.15	0.9451	1039.33	0.52
313.15	0.0434	793.86	0.31
313.15	0.0922	802.94	0.31
313.15	0.1938	822.73	0.32
313.15	0.2946	843.76	0.33
313.15	0.3984	866.86	0.35
313.15	0.5044	892.29	0.37
313.15	0.6042	917.95	0.39
313.15	0.6962	943.18	0.42
313.15	0.8009	974.09	0.45
313.15	0.8928	1003.34	0.49
313.15	0.9439	1020.41	0.51

System: 2-methylpropan-2-ol + 1,3-dioxolane; phases: Liquid
Fixed: Pressure, kPa = 101.3
Property: Speed of sound, m/s (Liquid); method: FPINT:UFactor:2
Temperature, K	Mole fraction of 1,3-dioxolane	Speed of sound, m/s	uncertainty
298.15	0.0495	1129.2	1.3
298.15	0.0965	1135.6	1.3
298.15	0.1996	1151	1.3
298.15	0.2909	1165.8	1.4
298.15	0.4049	1186.2	1.4
298.15	0.4972	1204.9	1.5
298.15	0.5974	1226.8	1.5
298.15	0.7033	1252.5	1.5
298.15	0.8033	1279.3	1.6
298.15	0.8944	1305.9	1.6
298.15	0.9439	1321.3	1.7
313.15	0.0567	1065.2	1.3
313.15	0.0949	1071.1	1.3
313.15	0.1973	1087.4	1.3
313.15	0.2919	1103.5	1.3
313.15	0.4039	1123.4	1.4
313.15	0.4951	1141.2	1.4
313.15	0.5948	1162.4	1.5
313.15	0.6997	1187.1	1.5
313.15	0.8031	1213.5	1.5
313.15	0.8959	1239.6	1.6
313.15	0.9464	1254.3	1.6

System: 2-methylpropan-2-ol + 1,3-dioxolane; phases: Liquid
Fixed: Pressure, kPa = 101.3
Property: Mass density, kg/m3 (Liquid); method: VIBTUB:UFactor:2
Temperature, K	Mole fraction of 1,3-dioxolane	Mass density, kg/m3	uncertainty
298.15	0.0495	789.79	0.31
298.15	0.0965	798.83	0.31
298.15	0.1996	820.33	0.32
298.15	0.2909	840.96	0.33
298.15	0.4049	868.7	0.35
298.15	0.4972	892.83	0.37
298.15	0.5974	920.82	0.39
298.15	0.7033	952.73	0.42
298.15	0.8033	985.46	0.46
298.15	0.8944	1017.75	0.49
298.15	0.9439	1036.49	0.52
313.15	0.0567	775.49	0.32
313.15	0.0949	782.77	0.32
313.15	0.1973	803.78	0.33
313.15	0.2919	824.8	0.34
313.15	0.4039	851.81	0.35
313.15	0.4951	875.4	0.37
313.15	0.5948	903.12	0.39
313.15	0.6997	934.45	0.42
313.15	0.8031	967.86	0.45
313.15	0.8959	1000.17	0.49
313.15	0.9464	1018.99	0.51

System: 2-methyl-1-propanol + 1,4-dioxane; phases: Liquid
Fixed: Pressure, kPa = 101.3
Property: Speed of sound, m/s (Liquid); method: FPINT:UFactor:2
Temperature, K	Mole fraction of 1,4-dioxane	Speed of sound, m/s	uncertainty
298.15	0.0559	1196.2	1.3
298.15	0.0943	1201.4	1.3
298.15	0.1959	1215.5	1.3
298.15	0.2981	1229.7	1.3
298.15	0.4039	1245.1	1.3
298.15	0.5062	1260.6	1.3
298.15	0.603	1276.1	1.3
298.15	0.7021	1292.4	1.3
298.15	0.7966	1308.7	1.3
298.15	0.8943	1326	1.3
298.15	0.9328	1333	1.4
313.15	0.0612	1146	1.3
313.15	0.0898	1149.5	1.3
313.15	0.1946	1162.3	1.3
313.15	0.3039	1176.2	1.3
313.15	0.4033	1189.2	1.3
313.15	0.5086	1203.6	1.3
313.15	0.5674	1211.8	1.3
313.15	0.7018	1232	1.3
313.15	0.8296	1251.9	1.3
313.15	0.8879	1261	1.3
313.15	0.9298	1267.7	1.3

System: 2-methyl-1-propanol + 1,4-dioxane; phases: Liquid
Fixed: Pressure, kPa = 101.3
Property: Mass density, kg/m3 (Liquid); method: VIBTUB:UFactor:2
Temperature, K	Mole fraction of 1,4-dioxane	Mass density, kg/m3	uncertainty
298.15	0.0559	809.27	0.29
298.15	0.0943	817.3	0.28
298.15	0.1959	838.82	0.26
298.15	0.2981	860.89	0.24
298.15	0.4039	884.22	0.22
298.15	0.5062	907.2	0.19
298.15	0.603	929.49	0.17
298.15	0.7021	952.9	0.15
298.15	0.7966	976	0.12
298.15	0.8943	1000.57	0.1
298.15	0.9328	1010.53	0.1
313.15	0.0612	798.12	0.29
313.15	0.0898	803.92	0.29
313.15	0.1946	825.35	0.27
313.15	0.3039	848.25	0.24
313.15	0.4033	869.73	0.22
313.15	0.5086	892.99	0.2
313.15	0.5674	906.3	0.19
313.15	0.7018	937.3	0.15
313.15	0.8296	967.84	0.12
313.15	0.8879	982.25	0.11
313.15	0.9298	992.74	0.1

System: 2-methylpropan-2-ol + 1,4-dioxane; phases: Liquid
Fixed: Pressure, kPa = 101.3
Property: Speed of sound, m/s (Liquid); method: FPINT:UFactor:2
Temperature, K	Mole fraction of 1,4-dioxane	Speed of sound, m/s	uncertainty
298.15	0.0502	1133.5	1.3
298.15	0.0802	1139.5	1.3
298.15	0.2164	1166.2	1.3
298.15	0.2915	1180.4	1.3
298.15	0.3944	1201.4	1.3
298.15	0.496	1222.4	1.3
298.15	0.5929	1243.8	1.3
298.15	0.6814	1264.1	1.3
298.15	0.8029	1293.2	1.3
298.15	0.8893	1315.3	1.3
298.15	0.9287	1325.5	1.3
313.15	0.0525	1069.8	1.2
313.15	0.0886	1078.1	1.2
313.15	0.2051	1102.3	1.2
313.15	0.287	1118.9	1.2
313.15	0.3926	1139.9	1.2
313.15	0.4938	1160.8	1.2
313.15	0.592	1181.6	1.3
313.15	0.6904	1202.7	1.3
313.15	0.7994	1227.9	1.3
313.15	0.8871	1250.3	1.3
313.15	0.9421	1264.2	1.3

System: 2-methylpropan-2-ol + 1,4-dioxane; phases: Liquid
Fixed: Pressure, kPa = 101.3
Property: Mass density, kg/m3 (Liquid); method: VIBTUB:UFactor:2
Temperature, K	Mole fraction of 1,4-dioxane	Mass density, kg/m3	uncertainty
298.15	0.0502	791.11	0.3
298.15	0.0802	797.29	0.29
298.15	0.2164	826.41	0.26
298.15	0.2915	843.19	0.25
298.15	0.3944	867.16	0.22
298.15	0.496	891.65	0.2
298.15	0.5929	915.92	0.18
298.15	0.6814	938.8	0.16
298.15	0.8029	971.23	0.12
298.15	0.8893	995.28	0.1
298.15	0.9287	1006.7	0.1
313.15	0.0525	776.05	0.3
313.15	0.0886	783.75	0.3
313.15	0.2051	808.89	0.27
313.15	0.287	827.2	0.26
313.15	0.3926	851.46	0.23
313.15	0.4938	875.49	0.21
313.15	0.592	899.61	0.19
313.15	0.6904	924.78	0.16
313.15	0.7994	953.91	0.14
313.15	0.8871	978.21	0.11
313.15	0.9421	993.91	0.1
