Measured thermophysical data. Determination of solution enthalpy of zirconium in liquid aluminum
Source: J. Chem. Thermodyn., 2019, 10.1016/j.jct.2019.03.037
Compound 1: aluminum, Al, InChI=1S/Al, purity 99.99%
Compound 2: zirconium, Zr, InChI=1S/Zr, purity 99%

System: aluminum + zirconium; phases: Liquid
Property: Molar enthalpy of solution, kJ/mol (Liquid); method: Calvet calorimetry
Temperature, K	Pressure, kPa	Mole fraction of zirconium	Molar enthalpy of solution, kJ/mol	uncertainty
1173	110	0	-175	10
