Measured thermophysical data. High-temperature heat capacity of Gd-pyrochlore oGd2Ti2O7P
Source: J. Chem. Thermodyn., 2009, 10.1016/j.jct.2009.04.011
Compound 1: gadolinium titanium oxide Gd2Ti2O7, Gd2O7Ti2, InChI=1S/2Gd.7O.2Ti/q2*+3;7*-2;2*+4

System: gadolinium titanium oxide Gd2Ti2O7; phases: Crystal
Property: Molar enthalpy, kJ/mol (Crystal); method: Drop calorimetry
Temperature, K	Pressure, kPa	Molar enthalpy, kJ/mol	uncertainty
584.6	101.325	70.49	8.41

System: gadolinium titanium oxide Gd2Ti2O7; phases: Crystal
Property: Molar enthalpy, kJ/mol (Crystal); method: Drop calorimetry
Temperature, K	Pressure, kPa	Molar enthalpy, kJ/mol	uncertainty
687.9	101.325	99.22	11.12

System: gadolinium titanium oxide Gd2Ti2O7; phases: Crystal
Property: Molar enthalpy, kJ/mol (Crystal); method: Drop calorimetry
Temperature, K	Pressure, kPa	Molar enthalpy, kJ/mol	uncertainty
790.2	101.325	130.05	20.01

System: gadolinium titanium oxide Gd2Ti2O7; phases: Crystal
Property: Molar enthalpy, kJ/mol (Crystal); method: Drop calorimetry
Temperature, K	Pressure, kPa	Molar enthalpy, kJ/mol	uncertainty
891.9	101.325	150.21	22.15

System: gadolinium titanium oxide Gd2Ti2O7; phases: Crystal
Property: Molar enthalpy, kJ/mol (Crystal); method: Drop calorimetry
Temperature, K	Pressure, kPa	Molar enthalpy, kJ/mol	uncertainty
992.7	101.325	179.89	17.6

System: gadolinium titanium oxide Gd2Ti2O7; phases: Crystal
Property: Molar enthalpy, kJ/mol (Crystal); method: Drop calorimetry
Temperature, K	Pressure, kPa	Molar enthalpy, kJ/mol	uncertainty
1092.8	101.325	209.52	22.53

System: gadolinium titanium oxide Gd2Ti2O7; phases: Crystal
Fixed: Pressure, kPa = 101.325
Property: Molar enthalpy, kJ/mol (Crystal); method: Drop calorimetry
Temperature, K	Molar enthalpy, kJ/mol	uncertainty
1191.9	232.85	30.91
1290.3	256.88	10.42
1387.9	294.56	18.01
1484.8	316.3	27.81
