Measured thermophysical data. Thermodynamic study of solubility for pyrazinamide in ten solvents from T = (283.15 to 323.15) K
Source: J. Chem. Thermodyn., 2017, 10.1016/j.jct.2017.04.014
Compound 1: water, H2O, InChI=1S/H2O/h1H2
Compound 2: pyrazinecarboxamide, C5H5N3O, InChI=1S/C5H5N3O/c6-5(9)4-3-7-1-2-8-4/h1-3H,(H2,6,9), purity 99%
Compound 3: methanol, CH4O, InChI=1S/CH4O/c1-2/h2H,1H3, purity 99.5%
Compound 4: ethanol, C2H6O, InChI=1S/C2H6O/c1-2-3/h3H,2H2,1H3, purity 99.5%
Compound 5: propan-1-ol, C3H8O, InChI=1S/C3H8O/c1-2-3-4/h4H,2-3H2,1H3, purity 99.5%
Compound 6: propan-2-ol, C3H8O, InChI=1S/C3H8O/c1-3(2)4/h3-4H,1-2H3, purity 99.5%
Compound 7: butan-1-ol, C4H10O, InChI=1S/C4H10O/c1-2-3-4-5/h5H,2-4H2,1H3, purity 99.5%
Compound 8: butan-2-ol, C4H10O, InChI=1S/C4H10O/c1-3-4(2)5/h4-5H,3H2,1-2H3, purity 99.5%
Compound 9: acetone, C3H6O, InChI=1S/C3H6O/c1-3(2)4/h1-2H3, purity 99.5%
Compound 10: acetonitrile, C2H3N, InChI=1S/C2H3N/c1-2-3/h1H3, purity 99.5%
Compound 11: ethyl acetate, C4H8O2, InChI=1S/C4H8O2/c1-3-6-4(2)5/h3H2,1-2H3, purity 99.5%

System: pyrazinecarboxamide + water; phases: Liquid, Crystal
Fixed: Pressure, kPa = 100
Property: Mole fraction of pyrazinecarboxamide (Liquid); method: gravimetric method
Temperature, K	Mole fraction of pyrazinecarboxamide	uncertainty
278.15	0.001048	8.2e-05
283.15	0.001312	0.000103
288.15	0.001684	0.000132
293.15	0.001941	0.000152
298.15	0.002396	0.000188
303.15	0.002839	0.000223
308.15	0.003622	0.000284
313.15	0.004211	0.00033
318.15	0.00521	0.000408
323.15	0.006	0.000469

System: methanol + pyrazinecarboxamide; phases: Liquid, Crystal
Fixed: Pressure, kPa = 100
Property: Mole fraction of pyrazinecarboxamide (Liquid); method: gravimetric
Temperature, K	Mole fraction of pyrazinecarboxamide	uncertainty
278.15	0.002078	0.000164
283.15	0.002652	0.000208
288.15	0.003278	0.000257
293.15	0.003841	0.000301
298.15	0.004698	0.000368
303.15	0.005633	0.000442
308.15	0.007098	0.000556
313.15	0.008278	0.000649
318.15	0.010028	0.000786

System: ethanol + pyrazinecarboxamide; phases: Liquid, Crystal
Fixed: Pressure, kPa = 100
Property: Mole fraction of pyrazinecarboxamide (Liquid); method: gravimetric
Temperature, K	Mole fraction of pyrazinecarboxamide	uncertainty
278.15	0.001025	8.1e-05
283.15	0.001406	0.000111
288.15	0.001878	0.000148
293.15	0.002307	0.000181
298.15	0.002806	0.00022
303.15	0.003439	0.00027
308.15	0.004327	0.00034
313.15	0.005402	0.000424
318.15	0.006514	0.00051

System: propan-1-ol + pyrazinecarboxamide; phases: Liquid, Crystal
Fixed: Pressure, kPa = 100
Property: Mole fraction of pyrazinecarboxamide (Liquid); method: gravimetric
Temperature, K	Mole fraction of pyrazinecarboxamide	uncertainty
278.15	0.000775	6.3e-05
283.15	0.001228	9.7e-05
288.15	0.001451	0.000114
293.15	0.001795	0.000141
298.15	0.002453	0.000193
303.15	0.002971	0.000234
308.15	0.003935	0.00031
313.15	0.005033	0.000395
318.15	0.006158	0.000482
323.15	0.007065	0.000552

System: propan-2-ol + pyrazinecarboxamide; phases: Liquid, Crystal
Fixed: Pressure, kPa = 100
Property: Mole fraction of pyrazinecarboxamide (Liquid); method: gravimetric
Temperature, K	Mole fraction of pyrazinecarboxamide	uncertainty
278.15	0.000619	5e-05
283.15	0.000973	7.7e-05
288.15	0.00136	0.000107
293.15	0.001813	0.000143
298.15	0.00224	0.000176
303.15	0.002787	0.000219
308.15	0.003652	0.000287
313.15	0.004665	0.000366
318.15	0.005742	0.00045
323.15	0.006916	0.000542

System: butan-1-ol + pyrazinecarboxamide; phases: Liquid, Crystal
Fixed: Pressure, kPa = 100
Property: Mole fraction of pyrazinecarboxamide (Liquid); method: gravimetric
Temperature, K	Mole fraction of pyrazinecarboxamide	uncertainty
278.15	0.000772	6.2e-05
283.15	0.001157	9.1e-05
288.15	0.001479	0.000116
293.15	0.001922	0.000151
298.15	0.00237	0.000186
303.15	0.003091	0.000243
308.15	0.003956	0.000311
313.15	0.005124	0.000402
318.15	0.006228	0.000488
323.15	0.007313	0.000572

System: butan-2-ol + pyrazinecarboxamide; phases: Liquid, Crystal
Fixed: Pressure, kPa = 100
Property: Mole fraction of pyrazinecarboxamide (Liquid); method: gravimetric
Temperature, K	Mole fraction of pyrazinecarboxamide	uncertainty
278.15	0.00053	4.3e-05
283.15	0.00081	6.4e-05
288.15	0.001084	8.6e-05
293.15	0.001496	0.000118
298.15	0.001879	0.000148
303.15	0.002522	0.000199
308.15	0.003318	0.000261
313.15	0.004345	0.000342
318.15	0.005643	0.000443
323.15	0.006956	0.000545

System: acetone + pyrazinecarboxamide; phases: Liquid, Crystal
Fixed: Pressure, kPa = 100
Property: Mole fraction of pyrazinecarboxamide (Liquid); method: gravimetric
Temperature, K	Mole fraction of pyrazinecarboxamide	uncertainty
278.15	0.002488	0.000195
283.15	0.00304	0.000238
288.15	0.003574	0.00028
293.15	0.004239	0.000332
298.15	0.004948	0.000387
303.15	0.005744	0.00045
308.15	0.006738	0.000527
313.15	0.00784	0.000613
318.15	0.008967	0.000701
323.15	0.009749	0.000761

System: acetonitrile + pyrazinecarboxamide; phases: Liquid, Crystal
Fixed: Pressure, kPa = 100
Property: Mole fraction of pyrazinecarboxamide (Liquid); method: gravimetric
Temperature, K	Mole fraction of pyrazinecarboxamide	uncertainty
278.15	0.001255	9.9e-05
283.15	0.001625	0.000128
288.15	0.002046	0.000161
293.15	0.00248	0.000194
298.15	0.002936	0.00023
303.15	0.003513	0.000275
308.15	0.004197	0.000329
313.15	0.004969	0.000389
318.15	0.005801	0.000453
323.15	0.006334	0.000495

System: pyrazinecarboxamide + ethyl acetate; phases: Liquid, Crystal
Fixed: Pressure, kPa = 100
Property: Mole fraction of pyrazinecarboxamide (Liquid); method: gravimetric method
Temperature, K	Mole fraction of pyrazinecarboxamide	uncertainty
278.15	0.001599	0.000127
283.15	0.002191	0.000172
288.15	0.002401	0.000188
293.15	0.003118	0.000244
298.15	0.003496	0.000274
303.15	0.004156	0.000325
308.15	0.004748	0.000372
313.15	0.005812	0.000455
318.15	0.006663	0.000521
323.15	0.007754	0.000607
