Measured thermophysical data. Heat capacity and thermodynamics of a synthetic two-line ferrihydrite, FeOOH 0.027H2O
Source: J. Chem. Thermodyn., 2013, 10.1016/j.jct.2012.11.012
Compound 1: iron, Fe, InChI=1S/Fe
Compound 2: hydrogen, H2, InChI=1S/H2/h1H
Compound 3: oxygen, O2, InChI=1S/O2/c1-2
Compound 4: iron oxyhydroxide, FeHO2, InChI=1S/Fe.H2O.O/h;1H2;/q+3;;-2/p-1, purity 99.5%

System: iron oxyhydroxide; phases: Crystal 1
Fixed: Pressure, kPa = 101.325
Property: Molar heat capacity at constant pressure, J/K/mol (Crystal 1); method: Small (less than 1 g) adiabatic calorimetry
Temperature, K	Molar heat capacity at constant pressure, J/K/mol	uncertainty
1.951	0.005624	0.020108
2.15	0.005941	0.020114
2.23	0.006145	0.020118
2.495	0.007233	0.020138
2.753	0.008728	0.020166
3.052	0.01122	0.02021
3.43	0.01514	0.02028
3.795	0.01995	0.02037
4.202	0.02636	0.02049
4.675	0.03497	0.02064
5.194	0.046	0.02083
5.8	0.0607	0.02108
6.426	0.07843	0.02137
7.178	0.1023	0.0218
7.946	0.131	0.0222
8.84	0.1687	0.0228
10.05	0.2277	0.0237
11.173	0.2939	0.0246
12.398	0.3767	0.0257
13.77	0.4825	0.027
15.271	0.6075	0.0285
16.957	0.7886	0.0305
18.83	1.017	0.033
20.899	1.307	0.035
23.205	1.66	0.038
25.803	2.125	0.041
28.596	2.7	0.043
31.79	3.415	0.117
35.329	4.313	0.122
39.236	5.399	0.127
43.57	6.676	0.134
48.391	8.203	0.141
53.731	9.983	0.15
59.673	12.05	0.16
66.264	14.379	0.172
73.604	17.013	0.185
81.714	20.033	0.2
90.74	23.419	0.294
100.755	27.008	0.308
100.769	27.028	0.308
111.326	30.751	0.323
121.993	34.428	0.338
132.64	38.062	0.352
143.232	41.484	0.366
153.936	44.763	0.379
164.51	47.993	0.392
175.193	51.141	0.405
185.84	54.228	0.417
196.423	57.129	0.429
207.06	60.032	0.44
217.688	62.624	0.451
228.301	64.723	0.459
238.902	67.171	0.469
249.516	70.006	0.48
260.178	72.937	0.492
270.766	75.426	0.502
281.345	77.523	0.51
291.832	78.654	0.515
302.491	81.302	0.525

System: iron oxyhydroxide; phases: Crystal 1
Fixed: Pressure, kPa = 101.325
Property: Molar heat capacity at constant pressure, J/K/mol (Crystal 1); method: Small (less than 1 g) adiabatic calorimetry
Temperature, K	Molar heat capacity at constant pressure, J/K/mol	uncertainty
2	0.005673	0.020109
2.5	0.007236	0.020137
3	0.01071	0.0202
3.5	0.01602	0.0203
4	0.02303	0.02042
4.5	0.03161	0.02058
5	0.04168	0.02075
5.5	0.05319	0.02095
6	0.06614	0.02116
6.5	0.08055	0.0214
7	0.09645	0.02166
7.5	0.1139	0.0219
8	0.1329	0.0222
8.5	0.1536	0.0225
9	0.1759	0.0229
9.5	0.1998	0.0232
10	0.2256	0.0236
11	0.2827	0.0244
12	0.3472	0.0253
13	0.4195	0.0262
14	0.5	0.0272
15	0.5891	0.0282
16	0.687	0.0293
17	0.794	0.0305
18	0.9096	0.0316
19	1.035	0.033
20	1.17	0.034
25	1.98	0.04
30	3.007	0.115
35	4.228	0.121
40	5.61	0.128
45	7.121	0.136
50	8.742	0.144
55	10.38	0.15
60	12.12	0.16
65	13.91	0.17
70	15.74	0.18
75	17.59	0.19
80	19.44	0.2
85	21.28	0.21
90	23.12	0.29
95	24.94	0.3
100	26.74	0.31
110	30.28	0.32
120	33.75	0.34
130	37.13	0.35
140	40.42	0.36
150	43.62	0.37
160	46.71	0.39
170	49.69	0.4
180	52.57	0.41
190	55.34	0.42
200	58.01	0.43
210	60.57	0.44
220	63.03	0.45
230	65.4	0.46
240	67.68	0.47
250	69.88	0.48
260	72	0.49
270	74.04	0.5
273.15	74.67	0.5
280	76.02	0.5
290	77.94	0.51
298.15	79.46	0.52
300	79.8	0.52

System: iron oxyhydroxide; phases: Crystal 1
Fixed: Pressure, kPa = 101.325
Property: Molar entropy, J/K/mol (Crystal 1); method: Small (less than 1 g) adiabatic calorimetry
Temperature, K	Molar entropy, J/K/mol	uncertainty
2	0.012694	0.030366
2.5	0.014092	0.030402
3	0.01569	0.03044
3.5	0.01772	0.03049
4	0.02029	0.03056
4.5	0.02349	0.03064
5	0.02733	0.03074
5.5	0.03183	0.03085
6	0.037	0.03098
6.5	0.04285	0.03112
7	0.04939	0.03128
7.5	0.0566	0.0314
8	0.0646	0.0316
8.5	0.0733	0.0318
9	0.0827	0.032
9.5	0.0928	0.0323
10	0.1037	0.0325
11	0.1278	0.033
12	0.1551	0.0335
13	0.1857	0.0341
14	0.2197	0.0348
15	0.2572	0.0354
16	0.2982	0.0361
17	0.3431	0.0368
18	0.3917	0.0375
19	0.444	0.038
20	0.501	0.039
25	0.845	0.043
30	1.293	0.16
35	1.846	0.164
40	2.499	0.169
45	3.246	0.174
50	4.079	0.181
55	4.99	0.19
60	5.97	0.19
65	7.01	0.2
70	8.1	0.21
75	9.25	0.22
80	10.45	0.23
85	11.68	0.24
90	12.95	0.38
95	14.25	0.39
100	15.57	0.39
110	18.29	0.41
120	21.07	0.43
130	23.91	0.44
140	26.78	0.46
150	29.68	0.48
160	32.59	0.5
170	35.51	0.51
180	38.44	0.53
190	41.35	0.55
200	44.26	0.57
210	47.15	0.58
220	50.03	0.6
230	52.88	0.62
240	55.71	0.63
250	58.52	0.65
260	61.3	0.67
270	64.06	0.68
273.15	64.92	0.69
280	66.79	0.7
290	69.49	0.72
298.15	71.67	0.73
300	72.16	0.73

Reaction: -1 iron + 1 iron oxyhydroxide + -.5 hydrogen + -1 oxygen
Property: Molar enthalpy of reaction, kJ/mol
-542.48
