Measured thermophysical data. Calorimetric study of the entropy relation in the NaCl - KCl system
Source: J. Chem. Thermodyn., 2013, 10.1016/j.jct.2013.03.015
Compound 1: sodium chloride, ClNa, InChI=1S/ClH.Na/h1H;/q;+1/p-1
Compound 2: potassium chloride, ClK, InChI=1S/ClH.K/h1H;/q;+1/p-1

System: potassium chloride + sodium chloride; phases: Crystal
Fixed: Pressure, kPa = 101
Property: Molar heat capacity at constant pressure, J/K/mol (Crystal); method: relaxation calorimetry - PPMS by Quantum Design
Temperature, K	Mole fraction of sodium chloride	Molar heat capacity at constant pressure, J/K/mol	uncertainty
5.095	0.1	0.0387	0.0028
5.458	0.1	0.0485	0.0031
5.879	0.1	0.0601	0.0035
6.294	0.1	0.0738	0.0041
6.752	0.1	0.0936	0.0049
7.188	0.1	0.1141	0.0058
7.702	0.1	0.1425	0.0069
8.252	0.1	0.1787	0.0082
8.84	0.1	0.2244	0.0099
9.475	0.1	0.2828	0.0109
10.15	0.1	0.357	0.0139
10.89	0.1	0.4512	0.0166
11.67	0.1	0.5685	0.02
12.5	0.1	0.7153	0.0238
13.4	0.1	0.8969	0.0282
14.36	0.1	1.1196	0.0336
15.39	0.1	1.3953	0.0399
16.49	0.1	1.7261	0.0471
17.67	0.1	2.1251	0.0555
18.94	0.1	2.5991	0.0652
20.29	0.1	3.1559	0.0765
21.74	0.1	3.8101	0.0898
23.29	0.1	4.5784	0.105
24.96	0.1	5.4629	0.1228
26.74	0.1	6.5085	0.1432
28.66	0.1	7.6739	0.1642
30.71	0.1	8.8238	0.1869
32.91	0.1	10.287	0.216
35.28	0.1	11.821	0.245
37.81	0.1	13.477	0.277
40.52	0.1	15.247	0.312
43.43	0.1	17.109	0.348
46.57	0.1	19.041	0.386
49.91	0.1	21.012	0.424
53.5	0.1	23.001	0.463
57.34	0.1	25.022	0.503
61.47	0.1	26.984	0.542
65.89	0.1	28.949	0.581
70.63	0.1	30.883	0.619
75.7	0.1	32.61	0.653
81.13	0.1	34.397	0.689
86.95	0.1	36.068	0.722
93.14	0.1	37.493	0.75
99.83	0.1	39.053	0.781
107.02	0.1	40.326	0.807
114.72	0.1	41.626	0.833
122.97	0.1	42.707	0.854
131.81	0.1	43.696	0.874
141.3	0.1	44.687	0.894
151.46	0.1	45.557	0.911
162.37	0.1	46.296	0.926
174.06	0.1	47.074	0.941
186.58	0.1	47.688	0.954
199.99	0.1	48.315	0.966
214.36	0.1	48.855	0.977
229.76	0.1	49.264	0.985
246.27	0.1	49.829	0.997
263.93	0.1	50.305	1.006
282.87	0.1	50.877	1.018
303.18	0.1	51.268	1.025
5.086	0.2	0.0361	0.0027
5.454	0.2	0.0452	0.003
5.856	0.2	0.0564	0.0034
6.274	0.2	0.07	0.0039
6.728	0.2	0.0878	0.0047
7.176	0.2	0.1084	0.0056
7.691	0.2	0.1356	0.0067
8.238	0.2	0.1702	0.0079
8.829	0.2	0.215	0.0095
9.461	0.2	0.2712	0.0105
10.14	0.2	0.3435	0.0135
10.87	0.2	0.4354	0.0163
11.65	0.2	0.5511	0.0195
12.48	0.2	0.6946	0.0232
13.38	0.2	0.8732	0.0276
14.34	0.2	1.0918	0.0329
15.37	0.2	1.3623	0.0392
16.47	0.2	1.6913	0.0464
17.65	0.2	2.0874	0.0546
18.91	0.2	2.55	0.0642
20.26	0.2	3.1048	0.0756
21.71	0.2	3.7558	0.0886
23.26	0.2	4.5137	0.1037
24.93	0.2	5.3961	0.1213
26.72	0.2	6.4288	0.1417
28.63	0.2	7.596	0.1629
30.69	0.2	8.7684	0.1854
32.89	0.2	10.163	0.213
35.25	0.2	11.673	0.242
37.78	0.2	13.296	0.274
40.5	0.2	15.059	0.308
43.41	0.2	16.885	0.343
46.53	0.2	18.806	0.381
49.87	0.2	20.732	0.418
53.47	0.2	22.726	0.458
57.32	0.2	24.731	0.497
61.44	0.2	26.705	0.536
65.86	0.2	28.669	0.575
70.6	0.2	30.604	0.613
75.67	0.2	32.387	0.649
81.11	0.2	34.171	0.684
86.93	0.2	35.847	0.717
93.15	0.2	37.318	0.747
99.85	0.2	38.835	0.777
107.03	0.2	40.148	0.803
114.72	0.2	41.454	0.829
122.97	0.2	42.568	0.851
131.82	0.2	43.531	0.871
141.3	0.2	44.511	0.89
151.45	0.2	45.392	0.908
162.35	0.2	46.183	0.924
174.02	0.2	46.929	0.939
186.55	0.2	47.504	0.95
199.96	0.2	48.186	0.964
214.35	0.2	48.716	0.974
229.74	0.2	49.194	0.984
246.25	0.2	49.804	0.996
263.91	0.2	50.181	1.004
282.86	0.2	50.682	1.014
303.12	0.2	51.207	1.024
5.041	0.9	0.0176	0.0013
5.409	0.9	0.0219	0.0014
5.793	0.9	0.027	0.0016
6.208	0.9	0.0335	0.0019
6.664	0.9	0.0417	0.0022
7.14	0.9	0.0518	0.0026
7.653	0.9	0.0641	0.003
8.202	0.9	0.0801	0.0036
8.791	0.9	0.1001	0.0043
9.422	0.9	0.1252	0.0047
10.1	0.9	0.157	0.0061
10.83	0.9	0.198	0.0073
11.61	0.9	0.2499	0.0089
12.45	0.9	0.3169	0.0108
13.34	0.9	0.4021	0.0135
14.23	0.9	0.51	0.016
15.33	0.9	0.6479	0.0192
16.43	0.9	0.8219	0.0238
17.61	0.9	1.0395	0.0289
18.87	0.9	1.31	0.035
20.24	0.9	1.6491	0.0423
21.7	0.9	2.0608	0.0512
23.25	0.9	2.5635	0.0617
24.92	0.9	3.165	0.0736
26.71	0.9	3.8591	0.0877
28.64	0.9	4.7159	0.1047
30.7	0.9	5.6711	0.1234
32.9	0.9	6.785	0.1453
35.27	0.9	8.0388	0.1696
37.81	0.9	9.4367	0.1969
40.53	0.9	10.981	0.227
43.45	0.9	12.635	0.259
46.58	0.9	14.398	0.293
49.93	0.9	16.28	0.33
53.53	0.9	18.229	0.368
57.38	0.9	20.247	0.408
61.51	0.9	22.264	0.448
65.94	0.9	24.311	0.488
70.69	0.9	26.324	0.528
75.77	0.9	28.265	0.566
81.21	0.9	30.128	0.604
87.05	0.9	32.292	0.647
93.3	0.9	34.009	0.681
100.02	0.9	35.792	0.716
107.21	0.9	37.382	0.748
114.92	0.9	38.916	0.779
123.18	0.9	40.265	0.805
132.04	0.9	41.449	0.829
141.54	0.9	42.607	0.852
151.71	0.9	43.668	0.873
162.61	0.9	44.814	0.896
174.32	0.9	45.519	0.91
186.88	0.9	46.208	0.924
200.33	0.9	47.112	0.942
214.74	0.9	47.779	0.956
230.17	0.9	48.365	0.967
246.73	0.9	49.073	0.981
264.44	0.9	49.551	0.991
283.42	0.9	50.221	1.004
303.77	0.9	50.613	1.012
