Measured thermophysical data. Enthalpy of formation of zinc acetate dihydrate
Source: J. Chem. Thermodyn., 2011, 10.1016/j.jct.2011.02.004
Compound 1: sodium hydroxide, HNaO, InChI=1S/Na.H2O/h;1H2/q+1;/p-1
Compound 2: graphite, C
Compound 3: zinc, Zn, InChI=1S/Zn
Compound 4: hydrogen, H2, InChI=1S/H2/h1H
Compound 5: oxygen, O2, InChI=1S/O2/c1-2
Compound 6: hydrogen chloride, ClH, InChI=1S/ClH/h1H, purity 99.2%
Compound 7: zinc(II) acetate dihydrate, C4H10O6Zn, InChI=1S/2C2H4O2.2H2O.Zn/c2*1-2(3)4;;;/h2*1H3,(H,3,4);2*1H2;/q;;;;+2/p-2, purity 98%
Compound 8: zinc(II) oxide, OZn, InChI=1S/O.Zn/q-2;+2, purity 99.99%
Compound 9: acetic acid, C2H4O2, InChI=1S/C2H4O2/c1-2(3)4/h1H3,(H,3,4), purity 99.7%
Compound 10: water, H2O, InChI=1S/H2O/h1H2

System: acetic acid + sodium hydroxide + water; phases: Liquid
Property: Molar enthalpy of solution, kJ/mol (Liquid); method: Titration calorimetry
Amount concentration (molarity), mol/dm3 of acetic acid	Temperature, K	Pressure, kPa	Solvent: Amount concentration (molarity), mol/dm3 of sodium hydroxide	Molar enthalpy of solution, kJ/mol	uncertainty
0	298	101	5	-55.35	0.7

System: sodium hydroxide + zinc(II) acetate dihydrate + water; phases: Liquid
Property: Molar enthalpy of solution, kJ/mol (Liquid); method: Titration calorimetry
Amount concentration (molarity), mol/dm3 of zinc(II) acetate dihydrate	Temperature, K	Pressure, kPa	Solvent: Amount concentration (molarity), mol/dm3 of sodium hydroxide	Molar enthalpy of solution, kJ/mol	uncertainty
0	298	101	5	-44.78	0.46

System: zinc(II) acetate dihydrate + hydrogen chloride + water; phases: Liquid
Property: Molar enthalpy of solution, kJ/mol (Liquid); method: Titration calorimetry
Amount concentration (molarity), mol/dm3 of zinc(II) acetate dihydrate	Temperature, K	Pressure, kPa	Solvent: Amount concentration (molarity), mol/dm3 of hydrogen chloride	Molar enthalpy of solution, kJ/mol	uncertainty
0	298	101	5	-5.97	0.11

System: acetic acid + hydrogen chloride + water; phases: Liquid
Property: Molar enthalpy of solution, kJ/mol (Liquid); method: Titration calorimetry
Amount concentration (molarity), mol/dm3 of acetic acid	Temperature, K	Pressure, kPa	Solvent: Amount concentration (molarity), mol/dm3 of hydrogen chloride	Molar enthalpy of solution, kJ/mol	uncertainty
0	298	101	5	-0.21	0.02

System: sodium hydroxide + zinc(II) oxide + water; phases: Liquid
Property: Molar enthalpy of solution, kJ/mol (Liquid); method: Titration calorimetry
Amount concentration (molarity), mol/dm3 of zinc(II) oxide	Temperature, K	Pressure, kPa	Solvent: Amount concentration (molarity), mol/dm3 of sodium hydroxide	Molar enthalpy of solution, kJ/mol	uncertainty
0	298	101	5	-0.0015	0.0026

Reaction: -2 acetic acid + -1 zinc(II) oxide + 1 zinc(II) acetate dihydrate + -1 water
Property: Molar enthalpy of reaction, kJ/mol
-65.42

Reaction: -2 acetic acid + -1 zinc(II) oxide + 1 zinc(II) acetate dihydrate + -1 water
Property: Molar enthalpy of reaction, kJ/mol
-65.85

Reaction: -4 graphite + -1 zinc + 1 zinc(II) acetate dihydrate + -5 hydrogen + -3 oxygen
Property: Molar enthalpy of reaction, kJ/mol
-1668.76

Reaction: -4 graphite + -1 zinc + 1 zinc(II) acetate dihydrate + -5 hydrogen + -3 oxygen
Property: Molar enthalpy of reaction, kJ/mol
-1669.18
