Measured thermophysical data. Experimental and theoretical excess molar properties of imidazolium based ionic liquids with molecular organic solvents  I. 1-Hexyl-3- methylimidazlouim tetraflouroborate and 1-octyl-3-methylimidazlouim tetraflouroborate with cyclic ethers
Source: J. Chem. Thermodyn., 2014, 10.1016/j.jct.2013.11.027
Compound 1: 1-hexyl-3-methylimidazolium tetrafluoroborate, C10H19BF4N2, InChI=1S/C10H19N2.BF4/c1-3-4-5-6-7-12-9-8-11(2)10-12;2-1(3,4)5/h8-10H,3-7H2,1-2H3;/q+1;-1
Compound 2: 1-methyl-3-octylimidazolium tetrafluoroborate, C12H23BF4N2, InChI=1S/C12H23N2.BF4/c1-3-4-5-6-7-8-9-14-11-10-13(2)12-14;2-1(3,4)5/h10-12H,3-9H2,1-2H3;/q+1;-1
Compound 3: 1,4-dioxane, C4H8O2, InChI=1S/C4H8O2/c1-2-6-4-3-5-1/h1-4H2, purity 99.5%
Compound 4: tetrahydrofuran, C4H8O, InChI=1S/C4H8O/c1-2-4-5-3-1/h1-4H2, purity 99%

System: 1-hexyl-3-methylimidazolium tetrafluoroborate; phases: Liquid
Fixed: Pressure, kPa = 101.325
Property: Mass density, kg/m3 (Liquid); method: Vibrating tube method
Temperature, K	Mass density, kg/m3	uncertainty
293.15	1148.76	1.15
298.15	1145.11	1.15
303.15	1141.47	1.14
308.15	1137.71	1.13
313.15	1134.09	1.12
318.15	1130.49	1.11
323.15	1126.89	1.11

System: 1-hexyl-3-methylimidazolium tetrafluoroborate; phases: Liquid
Fixed: Pressure, kPa = 101.325
Property: Speed of sound, m/s (Liquid); method: Sing-around technique in a fixed-path interferometer
Temperature, K	Speed of sound, m/s	uncertainty
293.15	1509.3	2.3
298.15	1496.7	2.3
303.15	1484.3	2.3
308.15	1472	2.3
313.15	1459.8	2.3
318.15	1447.7	2.3
323.15	1435.7	2.3

System: 1-hexyl-3-methylimidazolium tetrafluoroborate; phases: Liquid
Fixed: Pressure, kPa = 101.325
Property: Refractive index (Na D-line) (Liquid); method: Standard Abbe refractometry
Temperature, K	Refractive index (Na D-line)	uncertainty
293.15	1.43308	0.00053
298.15	1.43167	0.00053
303.15	1.43029	0.00053
308.15	1.4289	0.00053
313.15	1.42752	0.00053
318.15	1.42612	0.00053
323.15	1.42474	0.00053

System: 1-methyl-3-octylimidazolium tetrafluoroborate; phases: Liquid
Fixed: Pressure, kPa = 101.325
Property: Mass density, kg/m3 (Liquid); method: Vibrating tube method
Temperature, K	Mass density, kg/m3	uncertainty
293.15	1100.59	1.05
298.15	1097.61	1.04
303.15	1094.07	1.03
308.15	1090.9	1.03
313.15	1087.41	1.02
318.15	1084.17	1.01
323.15	1080.75	1.01

System: 1-methyl-3-octylimidazolium tetrafluoroborate; phases: Liquid
Fixed: Pressure, kPa = 101.325
Property: Speed of sound, m/s (Liquid); method: Sing-around technique in a fixed-path interferometer
Temperature, K	Speed of sound, m/s	uncertainty
293.15	1495.5	2.3
298.15	1481.1	2.3
303.15	1467.3	2.3
308.15	1453.9	2.3
313.15	1440.9	2.3
318.15	1428.2	2.3
323.15	1414.7	2.3

System: 1-methyl-3-octylimidazolium tetrafluoroborate; phases: Liquid
Fixed: Pressure, kPa = 101.325
Property: Refractive index (Na D-line) (Liquid); method: Standard Abbe refractometry
Temperature, K	Refractive index (Na D-line)	uncertainty
293.15	1.43389	0.00167
298.15	1.43296	0.00167
303.15	1.43192	0.00167
308.15	1.42939	0.00167
313.15	1.42772	0.00167
318.15	1.42684	0.00166
323.15	1.42696	0.00166

System: 1,4-dioxane; phases: Liquid
Fixed: Pressure, kPa = 101.325
Property: Mass density, kg/m3 (Liquid); method: Vibrating tube method
Temperature, K	Mass density, kg/m3	uncertainty
293.15	1033.5	0.12
298.15	1027.85	0.12
303.15	1022.19	0.12
308.15	1016.52	0.12
313.15	1010.83	0.12
318.15	1005.12	0.12
323.15	999.4	0.12

System: 1,4-dioxane; phases: Liquid
Fixed: Pressure, kPa = 101.325
Property: Speed of sound, m/s (Liquid); method: Sing-around technique in a fixed-path interferometer
Temperature, K	Speed of sound, m/s	uncertainty
293.15	1367.15	1.25
298.15	1345.04	1.24
303.15	1322.98	1.24
308.15	1301.09	1.24
313.15	1279.36	1.23
318.15	1257.75	1.23
323.15	1236.29	1.23

System: 1,4-dioxane; phases: Liquid
Fixed: Pressure, kPa = 101.325
Property: Refractive index (Na D-line) (Liquid); method: Standard Abbe refractometry
Temperature, K	Refractive index (Na D-line)	uncertainty
293.15	1.42215	0.00037
298.15	1.41967	0.00037
303.15	1.41725	0.00037
308.15	1.4148	0.00037
313.15	1.41236	0.00037
318.15	1.40993	0.00037
323.15	1.40749	0.00037

System: tetrahydrofuran; phases: Liquid
Fixed: Pressure, kPa = 101.325
Property: Mass density, kg/m3 (Liquid); method: Vibrating tube method
Temperature, K	Mass density, kg/m3	uncertainty
293.15	888.69	0.17
298.15	882.21	0.17
303.15	877.7	0.17
308.15	872.16	0.17
313.15	866.58	0.18
318.15	860.96	0.18
323.15	855.29	0.18
298.15	882.209	0.173
308.15	871.159	0.175
318.15	859.955	0.177

System: tetrahydrofuran; phases: Liquid
Fixed: Pressure, kPa = 101.325
Property: Speed of sound, m/s (Liquid); method: Sing-around technique in a fixed-path interferometer
Temperature, K	Speed of sound, m/s	uncertainty
293.15	1304.63	1.36
298.15	1280.48	1.36
303.15	1256.43	1.36
308.15	1232.53	1.35
313.15	1208.78	1.35
318.15	1185.25	1.35
323.15	1161.74	1.34

System: tetrahydrofuran; phases: Liquid
Fixed: Pressure, kPa = 101.325
Property: Refractive index (Na D-line) (Liquid); method: Standard Abbe refractometry
Temperature, K	Refractive index (Na D-line)	uncertainty
293.15	1.40696	0.00039
298.15	1.4042	0.00039
303.15	1.40157	0.00039
308.15	1.39885	0.00039
313.15	1.39623	0.00039
318.15	1.39349	0.00039
323.15	1.39083	0.00039

System: tetrahydrofuran + 1-hexyl-3-methylimidazolium tetrafluoroborate; phases: Liquid
Fixed: Pressure, kPa = 101
Property: Mass density, kg/m3 (Liquid); method: Vibrating tube method
Temperature, K	Mole fraction of 1-hexyl-3-methylimidazolium tetrafluoroborate	Mass density, kg/m3	uncertainty
298.15	0	882.209	0.172
298.15	0.0989	954.559	0.222
298.15	0.2022	1005.225	0.239
298.15	0.3014	1040.838	0.309
298.15	0.3985	1066.083	0.394
298.15	0.5109	1089.276	0.507
298.15	0.5974	1103.2	0.602
298.15	0.6974	1116.294	0.72
298.15	0.8045	1128.297	0.86
298.15	0.8865	1135.576	0.974
298.15	1	1145.11	1.145
308.15	0	871.159	0.174
308.15	0.0989	945.509	0.225
308.15	0.2022	996.175	0.237
308.15	0.3014	1032.558	0.302
308.15	0.3985	1058.033	0.386
308.15	0.5109	1081.226	0.497
308.15	0.5974	1095.15	0.591
308.15	0.6974	1109.244	0.71
308.15	0.8045	1121.247	0.847
308.15	0.8865	1128.526	0.96
308.15	1	1137.71	1.129
318.15	0	859.955	0.176
318.15	0.0989	936.105	0.229
318.15	0.2022	987.171	0.238
318.15	0.3014	1023.554	0.295
318.15	0.3985	1049.529	0.378
318.15	0.5109	1072.722	0.488
318.15	0.5974	1087.746	0.581
318.15	0.6974	1102.04	0.699
318.15	0.8045	1114.443	0.836
318.15	0.8865	1121.522	0.946
318.15	1	1130.486	1.113

System: tetrahydrofuran + 1-hexyl-3-methylimidazolium tetrafluoroborate; phases: Liquid
Fixed: Pressure, kPa = 101
Property: Speed of sound, m/s (Liquid); method: Sing-around technique in a fixed-path interferometer
Temperature, K	Mole fraction of 1-hexyl-3-methylimidazolium tetrafluoroborate	Speed of sound, m/s	uncertainty
298.15	0	1280.48	1.36
298.15	0.0989	1306.31	1.44
298.15	0.2022	1346.37	1.52
298.15	0.3014	1379.6	1.61
298.15	0.3985	1406.73	1.7
298.15	0.5109	1431.26	1.81
298.15	0.5974	1447.03	1.9
298.15	0.6974	1462.78	2
298.15	0.8045	1477.27	2.12
298.15	0.8865	1486.88	2.21
298.15	1	1496.74	2.33
308.15	0	1232.53	1.35
308.15	0.0989	1263.47	1.43
308.15	0.2022	1308.02	1.52
308.15	0.3014	1344.66	1.61
308.15	0.3985	1374.44	1.7
308.15	0.5109	1401.33	1.81
308.15	0.5974	1418.49	1.9
308.15	0.6974	1435.59	2
308.15	0.8045	1451.14	2.12
308.15	0.8865	1461.31	2.21
308.15	1	1472	2.33
318.15	0	1185.25	1.35
318.15	0.0989	1221.17	1.42
318.15	0.2022	1270.12	1.51
318.15	0.3014	1310.13	1.6
318.15	0.3985	1342.58	1.69
318.15	0.5109	1371.77	1.81
318.15	0.5974	1390.35	1.89
318.15	0.6974	1408.71	2
318.15	0.8045	1425.38	2.11
318.15	0.8865	1436.21	2.2
318.15	1	1447.68	2.33

System: tetrahydrofuran + 1-hexyl-3-methylimidazolium tetrafluoroborate; phases: Liquid
Fixed: Pressure, kPa = 101
Property: Refractive index (Na D-line) (Liquid); method: Standard Abbe refractometry
Temperature, K	Mole fraction of 1-hexyl-3-methylimidazolium tetrafluoroborate	Refractive index (Na D-line)	uncertainty
298.15	0	1.4042	0.00039
298.15	0.0989	1.41416	0.00039
298.15	0.2022	1.42016	0.0004
298.15	0.3014	1.42373	0.00041
298.15	0.3985	1.42607	0.00043
298.15	0.5109	1.4279	0.00044
298.15	0.5974	1.42888	0.00046
298.15	0.6974	1.42974	0.00048
298.15	0.8045	1.4305	0.00049
298.15	0.8865	1.43095	0.00051
298.15	1	1.43167	0.00053
308.15	0	1.39885	0.00039
308.15	0.0989	1.41006	0.00039
308.15	0.2022	1.41657	0.0004
308.15	0.3014	1.42043	0.00041
308.15	0.3985	1.42284	0.00043
308.15	0.5109	1.42491	0.00045
308.15	0.5974	1.42609	0.00046
308.15	0.6974	1.427	0.00048
308.15	0.8045	1.42774	0.00049
308.15	0.8865	1.42822	0.00051
308.15	1	1.4289	0.00053
318.15	0	1.39349	0.00039
318.15	0.0989	1.40595	0.0004
318.15	0.2022	1.41275	0.00041
318.15	0.3014	1.4171	0.00042
318.15	0.3985	1.41964	0.00043
318.15	0.5109	1.42175	0.00045
318.15	0.5974	1.42305	0.00046
318.15	0.6974	1.42418	0.00048
318.15	0.8045	1.42511	0.00049
318.15	0.8865	1.42548	0.00051
318.15	1	1.42612	0.00053

System: tetrahydrofuran + 1-methyl-3-octylimidazolium tetrafluoroborate; phases: Liquid
Fixed: Pressure, kPa = 101
Property: Mass density, kg/m3 (Liquid); method: Vibrating tube method
Temperature, K	Mole fraction of 1-methyl-3-octylimidazolium tetrafluoroborate	Mass density, kg/m3	uncertainty
298.15	0	882.209	0.172
298.15	0.0963	944.168	0.214
298.15	0.2018	987.574	0.23
298.15	0.312	1018.457	0.294
298.15	0.4027	1037.106	0.367
298.15	0.4917	1051.3	0.446
298.15	0.6241	1067.659	0.578
298.15	0.6862	1073.958	0.645
298.15	0.7615	1080.764	0.731
298.15	0.8612	1088.583	0.854
298.15	1	1097.608	1.041
308.15	0	871.159	0.174
308.15	0.0963	934.385	0.216
308.15	0.2018	978.487	0.231
308.15	0.312	1010.188	0.287
308.15	0.4027	1029.204	0.359
308.15	0.4917	1043.649	0.438
308.15	0.6241	1060.321	0.568
308.15	0.6862	1066.728	0.634
308.15	0.7615	1073.651	0.72
308.15	0.8612	1081.552	0.841
308.15	1	1090.896	1.026
318.15	0	859.955	0.176
318.15	0.0963	924.531	0.22
318.15	0.2018	969.198	0.233
318.15	0.312	1001.931	0.28
318.15	0.4027	1021.318	0.352
318.15	0.4917	1035.823	0.429
318.15	0.6241	1053.015	0.558
318.15	0.6862	1059.488	0.624
318.15	0.7615	1066.46	0.708
318.15	0.8612	1074.555	0.828
318.15	1	1084.168	1.012

System: tetrahydrofuran + 1-methyl-3-octylimidazolium tetrafluoroborate; phases: Liquid
Fixed: Pressure, kPa = 101
Property: Speed of sound, m/s (Liquid); method: Sing-around technique in a fixed-path interferometer
Temperature, K	Mole fraction of 1-methyl-3-octylimidazolium tetrafluoroborate	Speed of sound, m/s	uncertainty
298.15	0	1280.48	1.36
298.15	0.0963	1310.76	1.44
298.15	0.2018	1351.15	1.52
298.15	0.312	1384.88	1.62
298.15	0.4027	1406.34	1.71
298.15	0.4917	1422.94	1.79
298.15	0.6241	1442.53	1.93
298.15	0.6862	1450.24	1.99
298.15	0.7615	1458.64	2.07
298.15	0.8612	1470.21	2.18
298.15	1	1481.11	2.33
308.15	0	1232.53	1.35
308.15	0.0963	1268.48	1.43
308.15	0.2018	1313.44	1.52
308.15	0.312	1350.74	1.62
308.15	0.4027	1374.42	1.7
308.15	0.4917	1392.59	1.79
308.15	0.6241	1413.9	1.92
308.15	0.6862	1422.2	1.99
308.15	0.7615	1431.14	2.07
308.15	0.8612	1444.22	2.18
308.15	1	1453.88	2.33
318.15	0	1185.25	1.35
318.15	0.0963	1226.76	1.42
318.15	0.2018	1276.23	1.51
318.15	0.312	1317.08	1.61
318.15	0.4027	1342.97	1.7
318.15	0.4917	1362.77	1.79
318.15	0.6241	1385.94	1.92
318.15	0.6862	1394.88	1.99
318.15	0.7615	1404.47	2.07
318.15	0.8612	1416.32	2.17
318.15	1	1428.17	2.33

System: tetrahydrofuran + 1-methyl-3-octylimidazolium tetrafluoroborate; phases: Liquid
Fixed: Pressure, kPa = 101
Property: Refractive index (Na D-line) (Liquid); method: Standard Abbe refractometry
Temperature, K	Mole fraction of 1-methyl-3-octylimidazolium tetrafluoroborate	Refractive index (Na D-line)	uncertainty
298.15	0	1.4042	0.00039
298.15	0.0963	1.41425	0.00039
298.15	0.2018	1.42039	0.0004
298.15	0.312	1.42432	0.00042
298.15	0.4027	1.42658	0.00043
298.15	0.4917	1.42817	0.00044
298.15	0.6241	1.42996	0.00047
298.15	0.6862	1.43062	0.00048
298.15	0.7615	1.43129	0.00049
298.15	0.8612	1.43207	0.00051
298.15	1	1.43296	0.00053
308.15	0	1.39885	0.00039
308.15	0.0963	1.40956	0.00039
308.15	0.2018	1.4162	0.0004
308.15	0.312	1.42045	0.00042
308.15	0.4027	1.4228	0.00043
308.15	0.4917	1.42451	0.00044
308.15	0.6241	1.42631	0.00046
308.15	0.6862	1.42695	0.00047
308.15	0.7615	1.4277	0.00049
308.15	0.8612	1.42846	0.00051
308.15	1	1.42939	0.00053
318.15	0	1.39349	0.00039
318.15	0.0963	1.40529	0.0004
318.15	0.2018	1.41236	0.00041
318.15	0.312	1.41715	0.00042
318.15	0.4027	1.41965	0.00043
318.15	0.4917	1.42147	0.00044
318.15	0.6241	1.42348	0.00046
318.15	0.6862	1.42415	0.00047
318.15	0.7615	1.42493	0.00049
318.15	0.8612	1.4258	0.00051
318.15	1	1.42684	0.00053

System: 1,4-dioxane + 1-hexyl-3-methylimidazolium tetrafluoroborate; phases: Liquid
Fixed: Pressure, kPa = 101
Property: Mass density, kg/m3 (Liquid); method: Vibrating tube method
Temperature, K	Mole fraction of 1-hexyl-3-methylimidazolium tetrafluoroborate	Mass density, kg/m3	uncertainty
298.15	0	1027.851	0.123
298.15	0.0956	1060.242	0.16
298.15	0.2039	1084.245	0.201
298.15	0.2945	1098.98	0.252
298.15	0.368	1107.752	0.311
298.15	0.4876	1119.028	0.424
298.15	0.5831	1125.924	0.529
298.15	0.6816	1131.924	0.651
298.15	0.7695	1136.187	0.772
298.15	0.8594	1140.024	0.908
298.15	1	1145.11	1.145
308.15	0	1016.516	0.121
308.15	0.0956	1050.107	0.158
308.15	0.2039	1074.91	0.197
308.15	0.2945	1089.945	0.246
308.15	0.368	1099.017	0.304
308.15	0.4876	1110.693	0.416
308.15	0.5831	1118.089	0.519
308.15	0.6816	1124.089	0.64
308.15	0.7695	1128.652	0.76
308.15	0.8594	1132.689	0.894
308.15	1	1137.71	1.129
318.15	0	1005.124	0.118
318.15	0.0956	1040.215	0.157
318.15	0.2039	1065.518	0.194
318.15	0.2945	1081.153	0.242
318.15	0.368	1090.425	0.297
318.15	0.4876	1102.501	0.408
318.15	0.5831	1110.197	0.51
318.15	0.6816	1116.497	0.63
318.15	0.7695	1121.26	0.748
318.15	0.8594	1125.897	0.882
318.15	1	1130.486	1.113

System: 1,4-dioxane + 1-hexyl-3-methylimidazolium tetrafluoroborate; phases: Liquid
Fixed: Pressure, kPa = 101
Property: Speed of sound, m/s (Liquid); method: Sing-around technique in a fixed-path interferometer
Temperature, K	Mole fraction of 1-hexyl-3-methylimidazolium tetrafluoroborate	Speed of sound, m/s	uncertainty
298.15	0	1345.04	1.24
298.15	0.0956	1373.29	1.31
298.15	0.2039	1403.05	1.39
298.15	0.2945	1422.04	1.48
298.15	0.368	1434.02	1.55
298.15	0.4876	1450.55	1.68
298.15	0.5831	1461.02	1.79
298.15	0.6816	1470.46	1.91
298.15	0.7695	1478.14	2.03
298.15	0.8594	1485.92	2.14
298.15	1	1496.74	2.33
308.15	0	1301.09	1.24
308.15	0.0956	1332.34	1.3
308.15	0.2039	1364.1	1.39
308.15	0.2945	1384.09	1.47
308.15	0.368	1398.07	1.55
308.15	0.4876	1417.6	1.68
308.15	0.5831	1430.07	1.79
308.15	0.6816	1441.51	1.91
308.15	0.7695	1450.49	2.02
308.15	0.8594	1459.67	2.14
308.15	1	1472	2.33
318.15	0	1257.75	1.23
318.15	0.0956	1291	1.29
318.15	0.2039	1324.76	1.38
318.15	0.2945	1346.75	1.47
318.15	0.368	1362.73	1.54
318.15	0.4876	1384.26	1.67
318.15	0.5831	1398.73	1.78
318.15	0.6816	1412.17	1.91
318.15	0.7695	1423.15	2.02
318.15	0.8594	1433.33	2.14
318.15	1	1447.68	2.33

System: 1,4-dioxane + 1-hexyl-3-methylimidazolium tetrafluoroborate; phases: Liquid
Fixed: Pressure, kPa = 101
Property: Refractive index (Na D-line) (Liquid); method: Standard Abbe refractometry
Temperature, K	Mole fraction of 1-hexyl-3-methylimidazolium tetrafluoroborate	Refractive index (Na D-line)	uncertainty
298.15	0	1.41967	0.00037
298.15	0.0956	1.4241	0.00037
298.15	0.2039	1.42717	0.00038
298.15	0.2945	1.42874	0.00039
298.15	0.368	1.42944	0.0004
298.15	0.4876	1.43034	0.00042
298.15	0.5831	1.43075	0.00044
298.15	0.6816	1.43106	0.00046
298.15	0.7695	1.43149	0.00048
298.15	0.8594	1.43152	0.0005
298.15	1	1.43167	0.00053
308.15	0	1.4148	0.00037
308.15	0.0956	1.42009	0.00037
308.15	0.2039	1.42329	0.00038
308.15	0.2945	1.42525	0.00039
308.15	0.368	1.42625	0.0004
308.15	0.4876	1.42727	0.00042
308.15	0.5831	1.42802	0.00044
308.15	0.6816	1.42839	0.00046
308.15	0.7695	1.42861	0.00048
308.15	0.8594	1.42868	0.0005
308.15	1	1.4289	0.00053
318.15	0	1.40993	0.00037
318.15	0.0956	1.41587	0.00038
318.15	0.2039	1.41958	0.00038
318.15	0.2945	1.42174	0.00039
318.15	0.368	1.42294	0.0004
318.15	0.4876	1.42429	0.00042
318.15	0.5831	1.42519	0.00044
318.15	0.6816	1.42546	0.00046
318.15	0.7695	1.42574	0.00048
318.15	0.8594	1.42604	0.0005
318.15	1	1.42612	0.00053

System: 1,4-dioxane + 1-methyl-3-octylimidazolium tetrafluoroborate; phases: Liquid
Fixed: Pressure, kPa = 101
Property: Mass density, kg/m3 (Liquid); method: Vibrating tube method
Temperature, K	Mole fraction of 1-methyl-3-octylimidazolium tetrafluoroborate	Mass density, kg/m3	uncertainty
298.15	0	1027.851	0.123
298.15	0.0859	1049.949	0.149
298.15	0.192	1064.93	0.185
298.15	0.2914	1074.441	0.234
298.15	0.3963	1080.957	0.31
298.15	0.4955	1085.463	0.397
298.15	0.5947	1088.932	0.497
298.15	0.69	1091.4	0.605
298.15	0.7938	1093.659	0.736
298.15	0.8893	1095.196	0.869
298.15	1	1097.608	1.041
308.15	0	1016.52	0.121
308.15	0.0859	1040.081	0.147
308.15	0.192	1055.922	0.181
308.15	0.2914	1066.144	0.23
308.15	0.3963	1073.078	0.304
308.15	0.4955	1077.848	0.39
308.15	0.5947	1081.574	0.488
308.15	0.69	1084.178	0.595
308.15	0.7938	1086.61	0.725
308.15	0.8893	1088.293	0.856
308.15	1	1090.896	1.026
318.15	0	1005.12	0.118
318.15	0.0859	1030.184	0.147
318.15	0.192	1047.487	0.178
318.15	0.2914	1057.865	0.225
318.15	0.3963	1065.23	0.297
318.15	0.4955	1070.109	0.382
318.15	0.5947	1074.246	0.48
318.15	0.69	1076.982	0.585
318.15	0.7938	1079.531	0.713
318.15	0.8893	1081.416	0.844
318.15	1	1084.168	1.012

System: 1,4-dioxane + 1-methyl-3-octylimidazolium tetrafluoroborate; phases: Liquid
Fixed: Pressure, kPa = 101
Property: Speed of sound, m/s (Liquid); method: Sing-around technique in a fixed-path interferometer
Temperature, K	Mole fraction of 1-methyl-3-octylimidazolium tetrafluoroborate	Speed of sound, m/s	uncertainty
298.15	0	1345.04	1.24
298.15	0.0859	1380.75	1.3
298.15	0.192	1414.19	1.39
298.15	0.2914	1436.81	1.48
298.15	0.3963	1451.61	1.58
298.15	0.4955	1460.44	1.69
298.15	0.5947	1466.45	1.81
298.15	0.69	1469.05	1.92
298.15	0.7938	1475.08	2.06
298.15	0.8893	1477.79	2.18
298.15	1	1481.11	2.33
308.15	0	1301.09	1.24
308.15	0.0859	1341.09	1.3
308.15	0.192	1378.14	1.38
308.15	0.2914	1403.64	1.47
308.15	0.3963	1420.59	1.58
308.15	0.4955	1430.86	1.69
308.15	0.5947	1437.97	1.8
308.15	0.69	1440.76	1.92
308.15	0.7938	1447.9	2.05
308.15	0.8893	1450.87	2.18
308.15	1	1453.88	2.33
318.15	0	1257.75	1.23
318.15	0.0859	1301.85	1.29
318.15	0.192	1343.08	1.37
318.15	0.2914	1370.88	1.47
318.15	0.3963	1390	1.57
318.15	0.4955	1401.76	1.68
318.15	0.5947	1410.13	1.8
318.15	0.69	1414.76	1.92
318.15	0.7938	1421.66	2.05
318.15	0.8893	1425.07	2.18
318.15	1	1428.17	2.33

System: 1,4-dioxane + 1-methyl-3-octylimidazolium tetrafluoroborate; phases: Liquid
Fixed: Pressure, kPa = 101
Property: Refractive index (Na D-line) (Liquid); method: Standard Abbe refractometry
Temperature, K	Mole fraction of 1-methyl-3-octylimidazolium tetrafluoroborate	Refractive index (Na D-line)	uncertainty
298.15	0	1.41967	0.00037
298.15	0.0859	1.42308	0.00037
298.15	0.192	1.42601	0.00038
298.15	0.2914	1.42812	0.00039
298.15	0.3963	1.42935	0.00041
298.15	0.4955	1.43039	0.00043
298.15	0.5947	1.43124	0.00045
298.15	0.69	1.43181	0.00046
298.15	0.7938	1.43221	0.00049
298.15	0.8893	1.43262	0.00051
298.15	1	1.43296	0.00053
308.15	0	1.4148	0.00037
308.15	0.0859	1.41854	0.00037
308.15	0.192	1.42173	0.00038
308.15	0.2914	1.42412	0.00039
308.15	0.3963	1.42549	0.00041
308.15	0.4955	1.42664	0.00043
308.15	0.5947	1.42746	0.00044
308.15	0.69	1.42809	0.00046
308.15	0.7938	1.42865	0.00049
308.15	0.8893	1.42907	0.00051
308.15	1	1.42939	0.00053
318.15	0	1.40993	0.00037
318.15	0.0859	1.41465	0.00037
318.15	0.192	1.41833	0.00038
318.15	0.2914	1.42107	0.00039
318.15	0.3963	1.42264	0.00041
318.15	0.4955	1.42387	0.00042
318.15	0.5947	1.42483	0.00044
318.15	0.69	1.42548	0.00046
318.15	0.7938	1.42605	0.00048
318.15	0.8893	1.42628	0.00051
318.15	1	1.42684	0.00053
