Measured thermophysical data. A calorimetric and thermodynamic investigation of cesium uranyl tungstate Cs8[(UO2)4(WO4)4(WO5)2]
Source: J. Chem. Thermodyn., 2019, 10.1016/j.jct.2019.05.012
Compound 1: tungsten, W, InChI=1S/W
Compound 2: cesium, Cs, InChI=1S/Cs
Compound 3: uranium, U, InChI=1S/U
Compound 4: oxygen, O2, InChI=1S/O2/c1-2
Compound 5: cesium uranyl tungstate (Cs8U4W6O34), Cs8O34U4W6, InChI=1S/8Cs.34O.4U.6W/q8*+1;;;;;;;;;;;;;;;;;;;16*-1;4*+2;;;;;;, purity 98%

System: cesium uranyl tungstate (Cs8U4W6O34); phases: Crystal
Fixed: Pressure, kPa = 101.325
Property: Molar heat capacity at constant pressure, J/K/mol (Crystal); method: Small (less than 1 g) adiabatic calorimetry
Temperature, K	Molar heat capacity at constant pressure, J/K/mol	uncertainty
4.95	3.61	0.23
5.14	3.9	0.24
5.23	3.97	0.25
5.33	4.16	0.24
5.43	4.39	0.24
5.55	4.68	0.26
5.68	4.86	0.26
5.83	5.25	0.28
5.98	5.74	0.29
6.13	6.01	0.31
6.25	6.3	0.32
6.4	6.57	0.34
6.47	6.79	0.33
6.59	7.28	0.34
6.71	7.58	0.37
6.83	8.13	0.38
6.91	8.28	0.39
7.03	8.86	0.39
7.16	9.26	0.4
7.28	9.57	0.42
7.41	10.22	0.44
7.54	10.37	0.44
7.67	11.15	0.47
7.81	11.56	0.48
7.94	12.16	0.49
8.08	12.43	0.5
8.22	12.93	0.51
8.36	13.6	0.52
8.5	14.05	0.55
8.64	14.89	0.57
8.79	15.61	0.58
8.93	16.14	0.6
9.05	16.72	0.62
9.2	17.43	0.65
9.36	17.95	0.66
9.51	18.84	0.71
9.66	19.74	0.72
9.82	20.38	0.77
9.97	21.3	0.8
10.23	22.9	0.8
10.55	25.3	0.9
10.88	27.9	1
11.22	30.3	1
11.57	32.5	1.1
11.92	35.2	1.1
12.28	38	1.1
12.64	40.4	1.2
13	42.9	1.2
13.36	45.4	1.3
13.74	47.9	1.4
14.11	50.5	1.4
14.49	53.9	1.5
14.88	57.7	1.6
15.27	60.5	1.7
15.66	64	1.8
16.06	68.2	1.9
16.45	72.4	2
16.85	76.1	2.1
17.26	81.2	2.2
17.66	85.9	2.3
18.07	90.5	2.4
18.5	94.6	2.4
18.9	99.6	2.5
19.31	104.8	2.6
19.73	108.9	2.7
20.15	113.7	1.6
20.89	122.5	1.7
21.93	134	1.7
22.98	146.6	1.8
23.66	155.2	1.8
24.05	159.3	1.8
24.92	168.8	1.8
26.01	180.6	1.9
27.11	192.4	1.9
28.22	203.8	1.9
29.33	215.1	1.9
30.46	226	1.7
31.59	236.3	1.7
32.73	246.4	1.8
33.87	256.2	1.8
35.02	265.9	1.9
36.17	275.5	1.9
37.33	284.8	1.9
38.49	292.8	2
39.66	301.4	2
40.83	309.9	2.1
42.03	318.1	2.1
43.21	325.1	2.1
44.39	332.3	2.2
45.58	340.3	2.2
46.77	347.9	2.3
47.96	356.7	2.3
49.16	364	2.3
52	381	2.4
53.5	389.7	2.5
54.71	396.7	2.5
55.92	403.7	2.6
57.13	410.5	2.6
58.34	417	2.7
59.56	426.8	2.7
60.78	433.6	2.2
62	442.3	2.2
63.22	448.1	2.2
64.44	455	2.2
65.67	463.1	2.3
66.89	471.2	2.3
68.12	477.4	2.3
69.35	483.7	2.4
70.58	489.9	2.4
71.69	494.9	2.4
72.92	500	2.4
74.2	504.8	2.4
75.33	511.5	2.5
76.61	516.7	2.5
77.84	521.7	2.5
79.08	528.5	2.6
81.64	541.1	2.6
83.64	551.1	2.7
85.64	560.3	2.7
87.64	569.6	2.7
89.64	579.8	2.8
91.63	588.4	2.6
93.63	597.6	2.6
95.62	605.9	2.6
97.61	615.2	2.7
99.59	623.8	2.7
102.07	633.5	2.7
105.04	645.9	2.8
108.03	657.4	2.8
111.02	666.9	2.9
114.01	679.1	2.9
117.02	687.8	3
120.03	698.5	3
123.04	708	3
126.05	716.5	3.1
129.07	724.4	3.1
132.09	733	3.1
135.12	742.3	3.2
138.15	750.8	3.2
141.18	759.6	3.2
144.21	769.4	3.3
147.25	776.4	3.3
150.29	784.4	3.3
153.33	793.6	3.4
156.37	800.2	3.4
159.42	808.8	3.4
162.46	817	3.5
165.55	825.4	3.5
168.6	831.2	3.5
171.65	838	3.6
174.71	844.1	3.6
177.76	852	3.6
180.81	858.1	3.6
183.87	863.3	3.7
186.93	869	3.7
189.99	874	3.7
193.05	878.8	3.7
196.11	883.5	3.7
199.17	889.6	3.8
202.23	894.8	3.8
205.3	898.7	3.8
208.36	903	3.8
211.43	905.6	3.8
214.57	910.6	3.9
217.64	915.9	3.9
220.71	921.2	3.9
223.79	924.4	3.9
226.86	929.9	3.9
229.93	932.4	3.9
233	936.6	4
236.08	940.9	4
239.17	946.4	4
242.24	952.2	4
245.31	957.7	4
248.39	960.9	4.1
251.46	968.1	4.1
254.53	971	4.1
257.6	975.1	4.1
260.67	977.7	4.1
263.79	981.1	4.1
266.85	984.7	4.2
269.91	987.5	4.2
272.97	990.5	4.2
276.02	995.3	4.2
279.06	998.1	4.2
282.11	1002.1	4.2
285.14	1005.4	4.2
288.17	1006.2	4.2
291.19	1009.4	4.3
294.2	1009.4	4.3
297.2	1013.3	4.3
300.19	1017	4.3
303.64	1019.2	4.3
308.25	1022.7	4.3
313.46	1025.4	4.3
318.63	1029	4.3
323.74	1033.2	4.4
328.78	1038.5	4.4

System: cesium uranyl tungstate (Cs8U4W6O34); phases: Crystal
Fixed: Pressure, kPa = 101.325
Property: Molar heat capacity at constant pressure, J/K/mol (Crystal); method: Small (less than 1 g) adiabatic calorimetry
Temperature, K	Molar heat capacity at constant pressure, J/K/mol	uncertainty
5	3.7	0.38
10	21.5	0.9
15	58.6	2.2
20	111.8	1.8
25	169.6	2.2
30	221.7	2.4
35	265.7	2.7
40	303.9	3
45	336.5	3.3
50	369	3.6
70	487	3.5
90	581.4	3.9
110	663.5	4.5
130	726.9	4.9
150	783.6	5.3
170	834.3	5.6
190	874	5.9
210	904.3	6.1
230	932.5	6.2
250	964.7	6.5
270	987.6	6.6
273.15	990.7	6.6
290	1008.3	6.8
298.15	1014.7	6.8
300	1016.8	6.8
320	1030.1	6.9

System: cesium uranyl tungstate (Cs8U4W6O34); phases: Crystal
Fixed: Pressure, kPa = 101.325
Property: Molar enthalpy, kJ/mol (Crystal); method: Small (less than 1 g) adiabatic calorimetry
Temperature, K	Molar enthalpy, kJ/mol	uncertainty
5	0.0052	0.0011
10	0.06	0.003
15	0.257	0.011
20	0.678	0.014
25	1.38	0.023
30	2.36	0.03
35	3.59	0.04
40	5.01	0.06
45	6.62	0.07
50	8.38	0.09
70	16.95	0.13
90	27.62	0.2
110	40.11	0.28
130	54.1	0.4
150	69.2	0.5
170	85.4	0.6
190	102.5	0.7
210	120.3	0.8
230	138.7	0.9
250	157.6	1.1
270	177.2	1.2
273.15	180.3	1.2
290	197.2	1.3
298.15	205.4	1.4
300	207.3	1.4
320	227.7	1.5

System: cesium uranyl tungstate (Cs8U4W6O34); phases: Crystal
Fixed: Pressure, kPa = 101.325
Property: Molar entropy, J/K/mol (Crystal); method: Small (less than 1 g) adiabatic calorimetry
Temperature, K	Molar entropy, J/K/mol	uncertainty
5	1.51	0.17
10	8.46	0.5
15	23.9	1.3
20	47.8	1.1
25	79	1.5
30	114.6	1.9
35	152.2	2.4
40	190.2	2.9
45	228	3.4
50	265.1	4
70	408.2	4.4
90	541.8	5.5
110	666.8	6.8
130	783.1	7.9
150	891.3	9
170	992.6	10
190	1087.7	10.9
210	1176.8	11.8
230	1260.4	12.6
250	1339.4	13.4
270	1414.6	14.2
273.15	1426	14.3
290	1485.9	14.9
298.15	1514	15.2
300	1520.2	15.2
320	1586.3	15.9

Reaction: -6 tungsten + -8 cesium + -4 uranium + 1 cesium uranyl tungstate (Cs8U4W6O34) + -17 oxygen
Property: Molar enthalpy of reaction, kJ/mol
-13163
