Measured thermophysical data. Weak barium and radium hydrolysis using an ion exchange method and its uncertainty assessment
Source: J. Chem. Thermodyn., 2019, 10.1016/j.jct.2018.08.037
Compound 1: water, H2O, InChI=1S/H2O/h1H2, purity 99.9%
Compound 2: sodium hydroxide, HNaO, InChI=1S/Na.H2O/h;1H2/q+1;/p-1, purity 99.9%
Compound 3: sodium perchlorate, ClNaO4, InChI=1S/ClHO4.Na/c2-1(3,4)5;/h(H,2,3,4,5);/q;+1/p-1, purity 99.9%

System: water + sodium hydroxide + sodium perchlorate; phases: Liquid
Fixed: Pressure, kPa = 100
Fixed: Temperature, K = 298.15
Property: Mass density, kg/m3 (Liquid); method: Buoyancy - hydrostatic balance
Molality, mol/kg of sodium hydroxide	Molality, mol/kg of sodium perchlorate	Mass density, kg/m3	uncertainty
0	1.05	1076	14
0.05	0.99	1077	14
0.1	0.94	1073	14
0.21	0.83	1070	14
0.31	0.72	1069	14
0.41	0.61	1068	14
0.51	0.51	1065	15
0.61	0.41	1056	14
0.71	0.3	1052	14
0.81	0.2	1049	14
0.9	0.1	1046	14
1	0	1043	14
0	2.21	1148	14
0.06	2.16	1145	14
0.11	2.09	1144	14
0.22	1.99	1134	14
0.54	1.62	1128	14
0.75	1.39	1121	14
1.05	1.05	1113	14
1.16	0.95	1106	14
1.25	0.84	1104	14
1.35	0.73	1102	14
1.45	0.62	1098	14
1.54	0.51	1096	14
1.63	0.41	1093	14
1.73	0.31	1088	14
1.82	0.2	1086	14
1.91	0.1	1083	14
2	0	1081	14
0	2.84	1185	16
0.06	2.78	1183	14
0.11	2.72	1180	14
0.22	2.59	1179	14
0.55	2.21	1171	14
0.77	1.97	1163	20
1.08	1.62	1149	14
1.18	1.5	1147	14
1.28	1.39	1145	14
1.38	1.27	1141	14
1.48	1.16	1139	14
1.58	1.05	1134	14
1.68	0.94	1129	14
1.77	0.83	1125	14
1.87	0.73	1121	14
1.96	0.62	1117	14
2.05	0.51	1117	14
0	3.51	1223	14
0.06	3.47	1213	14
0.12	3.39	1215	14
0.23	3.25	1211	14
0.57	2.86	1199	14
0.79	2.6	1193	14
1.11	2.21	1188	14
1.22	2.1	1180	14
1.32	1.98	1178	14
1.42	1.86	1174	14
1.52	1.74	1172	14
1.62	1.62	1168	14
1.72	1.51	1164	14
1.82	1.39	1162	14
1.92	1.28	1157	14
2.02	1.17	1152	14
2.11	1.05	1150	14
0	6.68	1360	14
0.07	6.59	1359	14
0.13	6.51	1357	14
0.26	6.33	1353	14
0.65	5.84	1341	14
0.89	5.49	1337	14
1.26	5.04	1323	14
1.38	4.88	1320	14
1.5	4.74	1315	14
1.61	4.57	1314	14
1.72	4.42	1310	14
1.83	4.27	1307	14
1.95	4.14	1302	14
2.06	3.99	1298	14
2.17	3.85	1295	14
2.27	3.71	1291	14
2.38	3.57	1288	14
0	1.05	1072	15
0.1	0.94	1069	14
0.16	0.89	1066	14
0.21	0.83	1065	14
0.26	0.78	1064	14
0.31	0.73	1063	14
0.36	0.67	1061	14
0.41	0.62	1061	14
0.46	0.57	1058	14
0.51	0.51	1054	14
0.61	0.41	1053	14
0.71	0.3	1050	14
0.81	0.2	1047	14
0.9	0.1	1044	14
1	0	1041	14
0	1.62	1110	14
0.11	1.5	1108	14
0.16	1.44	1105	14
0.21	1.39	1104	14
0.27	1.33	1102	14
0.32	1.28	1100	14
0.37	1.22	1098	14
0.42	1.16	1095	14
0.47	1.11	1094	14
0.53	1.05	1092	14
0.63	0.94	1091	14
0.73	0.83	1087	14
0.83	0.73	1083	14
0.93	0.62	1078	14
1.03	0.51	1077	14
0	2.22	1145	14
0.11	2.1	1143	14
0.17	2.04	1140	14
0.22	1.98	1139	14
0.27	1.92	1137	14
0.33	1.86	1135	14
0.38	1.8	1133	14
0.44	1.74	1131	14
0.49	1.68	1130	14
0.54	1.62	1128	14
0.64	1.5	1126	14
0.75	1.39	1122	14
0.85	1.28	1117	14
0.95	1.17	1114	14
1.05	1.05	1110	14
0	2.86	1180	16
0.11	2.73	1176	14
0.17	2.67	1173	14
0.23	2.61	1169	14
0.28	2.55	1169	14
0.34	2.48	1167	14
0.39	2.42	1166	14
0.45	2.36	1164	14
0.5	2.3	1161	14
0.56	2.23	1160	14
0.67	2.11	1158	14
0.77	1.99	1154	20
0.88	1.87	1150	14
0.98	1.75	1148	14
1.09	1.63	1143	14

System: water + sodium perchlorate; phases: Liquid
Fixed: Pressure, kPa = 100
Fixed: Temperature, K = 298.15
Property: Mass density, kg/m3 (Liquid); method: Buoyancy - hydrostatic balance
Molality, mol/kg of sodium perchlorate	Mass density, kg/m3	uncertainty
1.05	1076	14
2.21	1148	14
2.84	1185	16
3.51	1223	14
6.68	1360	14
1.05	1072	15
1.62	1110	14
2.22	1145	14
2.86	1180	16

System: water + sodium hydroxide; phases: Liquid
Fixed: Pressure, kPa = 100
Fixed: Temperature, K = 298.15
Property: Mass density, kg/m3 (Liquid); method: Buoyancy - hydrostatic balance
Molality, mol/kg of sodium hydroxide	Mass density, kg/m3	uncertainty
1	1043	14
2	1081	14
1	1041	14
