Measured thermophysical data. Solubility and solution thermodynamics of 2,3,4,5-tetrabromothiophene  in (ethanol + tetrahydrofuran) binary solvent mixtures
Source: J. Chem. Thermodyn., 2013, 10.1016/j.jct.2013.05.023
Compound 1: perbromothiophene, C4Br4S, InChI=1S/C4Br4S/c5-1-2(6)4(8)9-3(1)7
Compound 2: ethanol, C2H6O, InChI=1S/C2H6O/c1-2-3/h3H,2H2,1H3, purity 99.7%
Compound 3: tetrahydrofuran, C4H8O, InChI=1S/C4H8O/c1-2-4-5-3-1/h1-4H2, purity 99%

System: ethanol + tetrahydrofuran + perbromothiophene; phases: Liquid, Crystal
Fixed: Pressure, kPa = 101
Property: Mole fraction of perbromothiophene (Liquid); method: gravimetric
Temperature, K	Solvent: Mole fraction of ethanol	Mole fraction of perbromothiophene	uncertainty
278.15	0	0.03967	0.00127
278.15	0.216	0.027	0.00086
278.15	0.401	0.01748	0.00056
278.15	0.562	0.0107	0.00034
278.15	0.701	0.00616	0.0002
278.15	0.824	0.00346	0.00011
278.15	0.934	0.00193	6e-05
278.15	1	0.00126	6e-05
282.15	0	0.04296	0.00137
282.15	0.216	0.02937	0.00094
282.15	0.401	0.01931	0.00062
282.15	0.562	0.0119	0.00038
282.15	0.701	0.00694	0.00022
282.15	0.824	0.00393	0.00013
282.15	0.934	0.00212	7e-05
282.15	1	0.00134	6e-05
286.15	0	0.04635	0.00148
286.15	0.216	0.03237	0.00103
286.15	0.401	0.02135	0.00068
286.15	0.562	0.01346	0.00043
286.15	0.701	0.008	0.00026
286.15	0.824	0.00452	0.00014
286.15	0.934	0.00246	8e-05
286.15	1	0.00151	6e-05
290.15	0	0.04998	0.00159
290.15	0.216	0.03471	0.00111
290.15	0.401	0.02311	0.00074
290.15	0.562	0.01461	0.00047
290.15	0.701	0.0088	0.00028
290.15	0.824	0.00498	0.00016
290.15	0.934	0.0028	9e-05
290.15	1	0.00181	6e-05
294.15	0	0.05395	0.00172
294.15	0.216	0.03765	0.0012
294.15	0.401	0.02537	0.00081
294.15	0.562	0.01611	0.00051
294.15	0.701	0.00979	0.00031
294.15	0.824	0.00562	0.00018
294.15	0.934	0.00316	0.0001
294.15	1	0.00206	7e-05
298.15	0	0.05814	0.00185
298.15	0.216	0.04118	0.00131
298.15	0.401	0.02783	0.00089
298.15	0.562	0.01812	0.00058
298.15	0.701	0.01098	0.00035
298.15	0.824	0.0063	0.0002
298.15	0.934	0.00356	0.00011
298.15	1	0.00241	8e-05
302.15	0	0.06269	0.002
302.15	0.216	0.04463	0.00142
302.15	0.401	0.03045	0.00097
302.15	0.562	0.01967	0.00063
302.15	0.701	0.01195	0.00038
302.15	0.824	0.00688	0.00022
302.15	0.934	0.00397	0.00013
302.15	1	0.00268	9e-05
306.15	0	0.06713	0.00214
306.15	0.216	0.04831	0.00154
306.15	0.401	0.03296	0.00105
306.15	0.562	0.02125	0.00068
306.15	0.701	0.0133	0.00042
306.15	0.824	0.00777	0.00025
306.15	0.934	0.00459	0.00015
306.15	1	0.00305	0.0001
310.15	0	0.07189	0.00229
310.15	0.216	0.05172	0.00165
310.15	0.401	0.03588	0.00114
310.15	0.562	0.02308	0.00074
310.15	0.701	0.01465	0.00047
310.15	0.824	0.00852	0.00027
310.15	0.934	0.00523	0.00017
310.15	1	0.00353	0.00011
314.15	0	0.07663	0.00244
314.15	0.216	0.05551	0.00177
314.15	0.401	0.03876	0.00124
314.15	0.562	0.02479	0.00079
314.15	0.701	0.01586	0.00051
314.15	0.824	0.00938	0.0003
314.15	0.934	0.00592	0.00019
314.15	1	0.00389	0.00012
318.15	0	0.08204	0.00262
318.15	0.216	0.05909	0.00188
318.15	0.401	0.04296	0.00137
318.15	0.562	0.02731	0.00087
318.15	0.701	0.01725	0.00055
318.15	0.824	0.01052	0.00034
318.15	0.934	0.00681	0.00022
318.15	1	0.00442	0.00014
322.15	0	0.08687	0.00277
322.15	0.216	0.06262	0.002
322.15	0.401	0.04691	0.0015
322.15	0.562	0.03096	0.00099
322.15	0.701	0.01929	0.00062
322.15	0.824	0.01202	0.00038
322.15	0.934	0.00769	0.00025
322.15	1	0.00501	0.00016

System: tetrahydrofuran + perbromothiophene; phases: Liquid, Crystal
Fixed: Pressure, kPa = 101
Property: Mole fraction of perbromothiophene (Liquid); method: gravimetric
Temperature, K	Mole fraction of perbromothiophene	uncertainty
278.15	0.03967	0.00127
282.15	0.04296	0.00137
286.15	0.04635	0.00148
290.15	0.04998	0.00159
294.15	0.05395	0.00172
298.15	0.05814	0.00185
302.15	0.06269	0.002
306.15	0.06713	0.00214
310.15	0.07189	0.00229
314.15	0.07663	0.00244
318.15	0.08204	0.00262
322.15	0.08687	0.00277

System: ethanol + perbromothiophene; phases: Liquid, Crystal
Fixed: Pressure, kPa = 101
Property: Mole fraction of perbromothiophene (Liquid); method: gravimetric
Temperature, K	Mole fraction of perbromothiophene	uncertainty
278.15	0.00126	6e-05
282.15	0.00134	6e-05
286.15	0.00151	6e-05
290.15	0.00181	6e-05
294.15	0.00206	7e-05
298.15	0.00241	8e-05
302.15	0.00268	9e-05
306.15	0.00305	0.0001
310.15	0.00353	0.00011
314.15	0.00389	0.00012
318.15	0.00442	0.00014
322.15	0.00501	0.00016
