Measured thermophysical data. Determination and correlation of Avermectin B1a solubility in different binary solvent mixtures at temperatures from (283.15 to 313.15) K
Source: J. Chem. Thermodyn., 2017, 10.1016/j.jct.2016.10.022
Compound 1: Avermectin B1a, C48H72O14, InChI=1S/C48H72O14/c1-11-25(2)43-28(5)17-18-47(62-43)23-34-20-33(61-47)16-15-27(4)42(26(3)13-12-14-32-24-55-45-40(49)29(6)19-35(46(51)58-34)48(32,45)52)59-39-22-37(54-10)44(31(8)57-39)60-38-21-36(53-9)41(50)30(7)56-38/h12-15,17-19,25-26,28,30-31,33-45,49-50,52H,11,16,20-24H2,1-10H3/b13-12+,27-15+,32-14+/t25-,26-,28-,30-,31-,33+,34-,35-,36-,37-,38-,39-,40+,41-,42-,43+,44-,45+,47+,48+/m0/s1
Compound 2: acetone, C3H6O, InChI=1S/C3H6O/c1-3(2)4/h1-2H3, purity 99.5%
Compound 3: hexane, C6H14, InChI=1S/C6H14/c1-3-5-6-4-2/h3-6H2,1-2H3, purity 99.5%
Compound 4: propan-2-ol, C3H8O, InChI=1S/C3H8O/c1-3(2)4/h3-4H,1-2H3, purity 99.5%
Compound 5: water, H2O, InChI=1S/H2O/h1H2

System: Avermectin B1a; phases: Crystal, Liquid, Air at 1 atmosphere
Property: Normal melting temperature, K (Crystal); method: DTA
Normal melting temperature, K	uncertainty
436.44	0.61

System: Avermectin B1a; phases: Crystal, Liquid, Air at 1 atmosphere
Property: Molar enthalpy of transition or fusion, kJ/mol (Crystal); method: DSC
Molar enthalpy of transition or fusion, kJ/mol	uncertainty
28.92	0.64

System: acetone + water + Avermectin B1a; phases: Liquid, Crystal
Fixed: Pressure, kPa = 100
Property: Mole fraction of Avermectin B1a (Liquid); method: Gravimetric analysis method
Temperature, K	Solvent: Mole fraction of acetone	Mole fraction of Avermectin B1a	uncertainty
283.15	0.2367	2.61e-05	9.3e-06
283.15	0.3175	0.0001677	3.63e-05
283.15	0.4199	0.0007102	0.0001294
283.15	0.5537	0.001883	0.000319
283.15	0.7363	0.004426	0.000714
283.15	1	0.009162	0.001467
288.15	0.2367	3.1e-05	9.9e-06
288.15	0.3175	0.00018	3.81e-05
288.15	0.4199	0.0007273	0.0001357
288.15	0.5537	0.002101	0.000355
288.15	0.7363	0.004657	0.000752
288.15	1	0.01037	0.00166
293.15	0.2367	4.5e-05	1.22e-05
293.15	0.3175	0.0002176	4.51e-05
293.15	0.4199	0.0008462	0.0001574
293.15	0.5537	0.002421	0.000407
293.15	0.7363	0.00525	0.000848
293.15	1	0.01191	0.00191
298.15	0.2367	7.44e-05	1.78e-05
298.15	0.3175	0.0002957	5.83e-05
298.15	0.4199	0.001027	0.000187
298.15	0.5537	0.002723	0.000457
298.15	0.7363	0.0058	0.000938
298.15	1	0.01343	0.00215
303.15	0.2367	9.2e-05	2.14e-05
303.15	0.3175	0.0003588	7.06e-05
303.15	0.4199	0.001243	0.000225
303.15	0.5537	0.003236	0.000541
303.15	0.7363	0.00669	0.001082
303.15	1	0.01514	0.00242
308.15	0.2367	0.0001161	2.92e-05
308.15	0.3175	0.0005031	9.69e-05
308.15	0.4199	0.001625	0.000293
308.15	0.5537	0.004185	0.0007
308.15	0.7363	0.008601	0.001387
308.15	1	0.0175	0.0028
313.15	0.2367	0.0001475	3.48e-05
313.15	0.3175	0.0005846	0.0001133
313.15	0.4199	0.00193	0.000349
313.15	0.5537	0.005017	0.000837
313.15	0.7363	0.0101	0.00163
313.15	1	0.01945	0.00311

System: acetone + hexane + Avermectin B1a; phases: Liquid, Crystal
Fixed: Pressure, kPa = 100
Property: Mole fraction of Avermectin B1a (Liquid); method: Gravimetric analysis method
Temperature, K	Solvent: Mole fraction of acetone	Mole fraction of Avermectin B1a	uncertainty
283.15	0.2706	0.0005443	0.0001004
283.15	0.3887	0.001631	0.00028
283.15	0.4973	0.003515	0.000592
283.15	0.5974	0.005534	0.000899
283.15	0.69	0.007141	0.001146
283.15	0.7759	0.008038	0.001288
283.15	0.8558	0.008694	0.001392
283.15	0.9303	0.00919	0.001471
283.15	1	0.009162	0.001467
288.15	0.2706	0.0006544	0.000116
288.15	0.3887	0.00173	0.000298
288.15	0.4973	0.003904	0.000654
288.15	0.5974	0.005781	0.000938
288.15	0.69	0.007575	0.001218
288.15	0.7759	0.009076	0.001454
288.15	0.8558	0.009727	0.001557
288.15	0.9303	0.01026	0.00164
288.15	1	0.01037	0.00166
293.15	0.2706	0.0007382	0.0001295
293.15	0.3887	0.001914	0.000325
293.15	0.4973	0.003924	0.000655
293.15	0.5974	0.005853	0.000953
293.15	0.69	0.008138	0.00131
293.15	0.7759	0.009764	0.001564
293.15	0.8558	0.01081	0.00173
293.15	0.9303	0.01145	0.00183
293.15	1	0.01191	0.00191
298.15	0.2706	0.0008932	0.0001559
298.15	0.3887	0.002286	0.000384
298.15	0.4973	0.004281	0.000718
298.15	0.5974	0.00677	0.001102
298.15	0.69	0.009063	0.001457
298.15	0.7759	0.01076	0.00172
298.15	0.8558	0.01206	0.00193
298.15	0.9303	0.01294	0.00207
298.15	1	0.01343	0.00215
303.15	0.2706	0.0012	0.000205
303.15	0.3887	0.002732	0.000457
303.15	0.4973	0.005024	0.000839
303.15	0.5974	0.007754	0.001261
303.15	0.69	0.01026	0.00165
303.15	0.7759	0.01204	0.00193
303.15	0.8558	0.01348	0.00216
303.15	0.9303	0.01472	0.00236
303.15	1	0.01514	0.00242
308.15	0.2706	0.00135	0.000233
308.15	0.3887	0.00321	0.000536
308.15	0.4973	0.00575	0.000963
308.15	0.5974	0.00912	0.001485
308.15	0.69	0.01209	0.00195
308.15	0.7759	0.01492	0.00239
308.15	0.8558	0.01601	0.00256
308.15	0.9303	0.01678	0.00269
308.15	1	0.0175	0.0028
313.15	0.2706	0.00145	0.000255
313.15	0.3887	0.003774	0.000633
313.15	0.4973	0.006904	0.001157
313.15	0.5974	0.01087	0.00177
313.15	0.69	0.01422	0.00229
313.15	0.7759	0.01689	0.00271
313.15	0.8558	0.01872	0.003
313.15	0.9303	0.01931	0.00309
313.15	1	0.01945	0.00311

System: propan-2-ol + hexane + Avermectin B1a; phases: Liquid, Crystal
Fixed: Pressure, kPa = 100
Property: Mole fraction of Avermectin B1a (Liquid); method: Gravimetric analysis method
Temperature, K	Solvent: Mole fraction of propan-2-ol	Mole fraction of Avermectin B1a	uncertainty
283.15	0.2623	0.0009538	0.0001639
283.15	0.3787	0.002227	0.000367
283.15	0.4867	0.003438	0.000565
283.15	0.5871	0.004825	0.000781
283.15	0.6808	0.005785	0.000931
283.15	0.7684	0.006485	0.001041
283.15	0.8505	0.006536	0.001049
283.15	0.9275	0.006001	0.000963
283.15	1	0.004806	0.00077
288.15	0.2623	0.00136	0.000227
288.15	0.3787	0.002739	0.000452
288.15	0.4867	0.004531	0.000744
288.15	0.5871	0.006217	0.001005
288.15	0.6808	0.007616	0.001223
288.15	0.7684	0.008246	0.001322
288.15	0.8505	0.008423	0.00135
288.15	0.9275	0.00758	0.001215
288.15	1	0.005886	0.000943
293.15	0.2623	0.001673	0.000278
293.15	0.3787	0.003367	0.000556
293.15	0.4867	0.005606	0.000921
293.15	0.5871	0.007742	0.00125
293.15	0.6808	0.00925	0.001484
293.15	0.7684	0.01016	0.00163
293.15	0.8505	0.01039	0.00166
293.15	0.9275	0.009276	0.001486
293.15	1	0.007102	0.001137
298.15	0.2623	0.002234	0.00037
298.15	0.3787	0.004297	0.000706
298.15	0.4867	0.00687	0.001127
298.15	0.5871	0.009504	0.001534
298.15	0.6808	0.0112	0.0018
298.15	0.7684	0.01196	0.00192
298.15	0.8505	0.0121	0.00194
298.15	0.9275	0.01061	0.0017
298.15	1	0.008039	0.001287
303.15	0.2623	0.002818	0.000465
303.15	0.3787	0.005316	0.00087
303.15	0.4867	0.00814	0.001334
303.15	0.5871	0.01126	0.00182
303.15	0.6808	0.0129	0.00207
303.15	0.7684	0.01375	0.0022
303.15	0.8505	0.01352	0.00216
303.15	0.9275	0.0124	0.00199
303.15	1	0.009604	0.001538
308.15	0.2623	0.003413	0.000564
308.15	0.3787	0.006533	0.001071
308.15	0.4867	0.01027	0.00168
308.15	0.5871	0.01353	0.00218
308.15	0.6808	0.01538	0.00247
308.15	0.7684	0.01604	0.00257
308.15	0.8505	0.01572	0.00252
308.15	0.9275	0.01476	0.00236
308.15	1	0.01126	0.0018
313.15	0.2623	0.004015	0.000662
313.15	0.3787	0.007557	0.00124
313.15	0.4867	0.01193	0.00195
313.15	0.5871	0.01589	0.00256
313.15	0.6808	0.01862	0.00298
313.15	0.7684	0.01954	0.00313
313.15	0.8505	0.01906	0.00305
313.15	0.9275	0.0178	0.00285
313.15	1	0.01372	0.0022

System: acetone + Avermectin B1a; phases: Liquid, Crystal
Fixed: Pressure, kPa = 100
Property: Mole fraction of Avermectin B1a (Liquid); method: Gravimetric analysis method
Temperature, K	Mole fraction of Avermectin B1a	uncertainty
283.15	0.009162	0.001467
288.15	0.01037	0.00166
293.15	0.01191	0.00191
298.15	0.01343	0.00215
303.15	0.01514	0.00242
308.15	0.0175	0.0028
313.15	0.01945	0.00311

System: propan-2-ol + Avermectin B1a; phases: Liquid, Crystal
Fixed: Pressure, kPa = 100
Property: Mole fraction of Avermectin B1a (Liquid); method: Gravimetric analysis method
Temperature, K	Mole fraction of Avermectin B1a	uncertainty
283.15	0.004806	0.00077
288.15	0.005886	0.000943
293.15	0.007102	0.001137
298.15	0.008039	0.001287
303.15	0.009604	0.001538
308.15	0.01126	0.0018
313.15	0.01372	0.0022

System: propan-2-ol + Avermectin B1a; phases: Liquid, Crystal
Fixed: Pressure, kPa = 100
Property: Mole fraction of Avermectin B1a (Liquid); method: Chromatography
Temperature, K	Mole fraction of Avermectin B1a	uncertainty
283.15	0.004441	0.000357
288.15	0.005247	0.000422
293.15	0.006489	0.000521
298.15	0.007321	0.000588
303.15	0.008889	0.000714
308.15	0.01041	0.00084
313.15	0.01286	0.00103
