Measured thermophysical data. Thermodynamics of aqueous solutions of ionic liquids composed of [BMPYR] or [BMIM] cations and tetraflate or dicyanamide anions
Source: J. Chem. Thermodyn., 2018, 10.1016/j.jct.2018.02.017
Compound 1: 1-butyl-1-methylpyrrolidinium dicyanamide, C11H20N4, InChI=1S/C9H20N.C2N3/c1-3-4-7-10(2)8-5-6-9-10;3-1-5-2-4/h3-9H2,1-2H3;/q+1;-1, purity 99.5%
Compound 2: 1-butyl-3-methylimidazolium dicyanamide, C10H15N5, InChI=1S/C8H15N2.C2N3/c1-3-4-5-10-7-6-9(2)8-10;3-1-5-2-4/h6-8H,3-5H2,1-2H3;/q+1;-1, purity 99.9%
Compound 3: 1-butyl-3-methylimidazolium 1,1,2,2-tetrafluoroethanesulfonate, C10H16F4N2O3S, InChI=1S/C8H15N2.C2H2F4O3S/c1-3-4-5-10-7-6-9(2)8-10;3-1(4)2(5,6)10(7,8)9/h6-8H,3-5H2,1-2H3;1H,(H,7,8,9)/q+1;/p-1, purity 99.9%
Compound 4: 1-butyl-1-methylpyrrolidinium 1,1,2,2-tetrafluoroethanesulfonate, C11H21F4NO3S, InChI=1S/C9H20N.C2H2F4O3S/c1-3-4-7-10(2)8-5-6-9-10;3-1(4)2(5,6)10(7,8)9/h3-9H2,1-2H3;1H,(H,7,8,9)/q+1;/p-1, purity 99.5%
Compound 5: water, H2O, InChI=1S/H2O/h1H2

System: 1-butyl-1-methylpyrrolidinium dicyanamide; phases: Liquid
Fixed: Pressure, kPa = 100
Property: Mass density, kg/m3 (Liquid); method: Vibrating tube method
Temperature, K	Mass density, kg/m3	uncertainty
288.15	1019.08	0.22
293.15	1016.25	0.22
298.15	1013.43	0.22
303.15	1010.62	0.21
308.15	1007.83	0.21
313.15	1005.05	0.21
318.15	1002.29	0.21

System: 1-butyl-3-methylimidazolium dicyanamide; phases: Liquid
Fixed: Pressure, kPa = 100
Property: Mass density, kg/m3 (Liquid); method: Vibrating tube method
Temperature, K	Mass density, kg/m3	uncertainty
288.15	1065.64	1
293.15	1062.04	1
298.15	1059.22	1
303.15	1056.04	1
308.15	1052.88	1
313.15	1049.74	1
318.15	1046.63	1
323.15	1043.5	1
328.15	1040.4	1
333.15	1037.38	1

System: 1-butyl-3-methylimidazolium 1,1,2,2-tetrafluoroethanesulfonate; phases: Liquid
Fixed: Pressure, kPa = 100
Property: Mass density, kg/m3 (Liquid); method: Vibrating tube method
Temperature, K	Mass density, kg/m3	uncertainty
288.15	1355.49	1.01
293.15	1351.46	1.01
298.15	1347.31	1.01
303.15	1343.19	1.01
308.15	1339.08	1.01
313.15	1335.01	1.01
318.15	1330.9	1.01
323.15	1326.84	1.01
328.15	1322.8	1.01
333.15	1318.77	1.01

System: 1-butyl-1-methylpyrrolidinium 1,1,2,2-tetrafluoroethanesulfonate; phases: Crystal 2, Crystal 1, Air at 1 atmosphere
Property: Triple point temperature, K (Crystal 2); method: DSC
Triple point temperature, K	uncertainty
279.3	1.2

System: 1-butyl-1-methylpyrrolidinium 1,1,2,2-tetrafluoroethanesulfonate; phases: Crystal 1, Liquid, Air at 1 atmosphere
Property: Triple point temperature, K (Crystal 1); method: DSC
Triple point temperature, K	uncertainty
318.5	1.2

System: 1-butyl-1-methylpyrrolidinium 1,1,2,2-tetrafluoroethanesulfonate; phases: Crystal 2, Crystal 1, Air at 1 atmosphere
Property: Molar enthalpy of transition or fusion, kJ/mol (Crystal 2); method: DSC
Molar enthalpy of transition or fusion, kJ/mol	uncertainty
12.6	1

System: 1-butyl-1-methylpyrrolidinium 1,1,2,2-tetrafluoroethanesulfonate; phases: Crystal 1, Liquid, Air at 1 atmosphere
Property: Molar enthalpy of transition or fusion, kJ/mol (Crystal 1); method: DSC
Molar enthalpy of transition or fusion, kJ/mol	uncertainty
10.9	1

System: water + 1-butyl-1-methylpyrrolidinium dicyanamide; phases: Liquid
Fixed: Pressure, kPa = 100
Property: (Relative) activity of water (Liquid); method: dew point method
Mole fraction of water	Temperature, K	(Relative) activity of water	uncertainty
0.2022	288.05	0.0546	0.002
0.2022	293.11	0.0575	0.002
0.2022	298.07	0.0589	0.002
0.2022	303.02	0.0588	0.002
0.2022	308	0.0598	0.002
0.2022	313.01	0.0597	0.002
0.2022	318.03	0.061	0.002
0.252	288.08	0.0722	0.002
0.252	293.08	0.0745	0.002
0.252	298.09	0.0755	0.002
0.252	303.06	0.0757	0.002
0.252	308.04	0.077	0.002
0.252	313.02	0.0772	0.002
0.252	318.02	0.0787	0.002
0.2986	288.11	0.0996	0.002
0.2986	293.11	0.1023	0.002
0.2986	298.11	0.1039	0.002
0.2986	303.07	0.1043	0.002
0.2986	308.04	0.1059	0.002
0.2986	313.02	0.1063	0.002
0.2986	318.03	0.1081	0.002
0.4028	288.12	0.1687	0.002
0.4028	293.12	0.1717	0.002
0.4028	298.12	0.1739	0.002
0.4028	303.07	0.175	0.002
0.4028	308.07	0.1773	0.002
0.4028	313.05	0.1782	0.002
0.4028	318.05	0.1806	0.002
0.4993	288.13	0.2647	0.002
0.4993	293.13	0.268	0.002
0.4993	298.12	0.2707	0.002
0.4993	303.1	0.2727	0.002
0.4993	308.09	0.2755	0.002
0.4993	313.06	0.2768	0.002
0.4993	318.06	0.2796	0.002
0.5896	288.16	0.3855	0.002
0.5896	293.16	0.3895	0.002
0.5896	298.16	0.3924	0.002
0.5896	303.12	0.395	0.002
0.5896	308.1	0.3976	0.002
0.5896	313.07	0.3992	0.002
0.5896	318.08	0.4019	0.002
0.7052	288.16	0.5864	0.002
0.7052	293.17	0.5897	0.002
0.7052	298.18	0.5915	0.002
0.7052	303.13	0.5938	0.002
0.7052	308.12	0.5957	0.002
0.7052	313.1	0.5966	0.002
0.7052	318.11	0.5976	0.002
0.7462	288.17	0.6784	0.002
0.7462	293.17	0.6814	0.002
0.7462	298.17	0.6824	0.002
0.7462	303.13	0.6843	0.002
0.7462	308.12	0.6846	0.002
0.7462	313.09	0.6851	0.002
0.7462	318.1	0.6853	0.002
0.798	288.17	0.7806	0.002
0.798	293.18	0.7813	0.002
0.798	298.19	0.7819	0.002
0.798	303.14	0.7829	0.002
0.798	308.13	0.7826	0.002
0.798	313.11	0.7827	0.002
0.798	318.12	0.7818	0.002
0.9058	288.17	0.9375	0.002
0.9058	293.17	0.937	0.002
0.9058	298.18	0.937	0.002
0.9058	303.14	0.9366	0.002
0.9058	308.12	0.9372	0.002
0.9058	313.09	0.9371	0.002
0.9058	318.1	0.9352	0.002
0.96	288.17	0.9729	0.002
0.96	293.18	0.9708	0.002
0.96	298.17	0.9718	0.002
0.96	303.14	0.9717	0.002
0.96	308.13	0.9722	0.002
0.96	313.1	0.9725	0.002
0.96	318.11	0.9717	0.002

System: water + 1-butyl-1-methylpyrrolidinium dicyanamide; phases: Liquid
Fixed: Pressure, kPa = 100
Property: Excess molar enthalpy (molar enthalpy of mixing), kJ/mol (Liquid); method: Flow calorimetry
Temperature, K	Mole fraction of 1-butyl-1-methylpyrrolidinium dicyanamide	Excess molar enthalpy (molar enthalpy of mixing), kJ/mol	uncertainty
288.15	0.001827	-0.00885	0.00085
288.15	0.001462	-0.00731	0.00083
288.15	0.001097	-0.00559	0.00082
288.15	0.000732	-0.00384	0.00081
288.15	0.000366	-0.00201	0.00079
298.15	0.002193	-0.00577	0.00082
298.15	0.001828	-0.00491	0.00081
298.15	0.001463	-0.00403	0.00081
298.15	0.001098	-0.00311	0.0008
298.15	0.000732	-0.00216	0.00079
298.15	0.000366	-0.00113	0.00078
308.15	0.002192	-0.00092	0.00078
308.15	0.001827	-0.00084	0.00078
308.15	0.001462	-0.00067	0.00078
308.15	0.001097	-0.00053	0.00078
308.15	0.000731	-0.00042	0.00078
308.15	0.000366	-0.00026	0.00078
318.15	0.002192	0.00417	0.00081
318.15	0.001826	0.00343	0.0008
318.15	0.001462	0.00269	0.0008
318.15	0.001097	0.00197	0.00079
318.15	0.000731	0.00126	0.00078
318.15	0.000366	0.00059	0.00078

System: water + 1-butyl-1-methylpyrrolidinium dicyanamide; phases: Liquid
Fixed: Pressure, kPa = 100
Property: Mass density, kg/m3 (Liquid); method: Vibrating tube method
Temperature, K	Mole fraction of 1-butyl-1-methylpyrrolidinium dicyanamide	Mass density, kg/m3	uncertainty
288.15	0.002192	999.945	0.034
288.15	0.001827	999.827	0.034
288.15	0.001462	999.693	0.034
288.15	0.001097	999.558	0.034
288.15	0.000732	999.415	0.034
288.15	0.000366	999.262	0.034
298.15	0.002193	997.632	0.037
298.15	0.001828	997.547	0.035
298.15	0.001463	997.458	0.035
298.15	0.001098	997.365	0.035
298.15	0.000732	997.266	0.034
298.15	0.000366	997.161	0.035
308.15	0.002192	994.4	0.038
308.15	0.001827	994.349	0.036
308.15	0.001462	994.294	0.036
308.15	0.001097	994.237	0.036
308.15	0.000731	994.175	0.036
308.15	0.000366	994.108	0.036
318.15	0.002192	990.398	0.038
318.15	0.001826	990.377	0.038
318.15	0.001462	990.353	0.038
318.15	0.001097	990.326	0.038
318.15	0.000731	990.295	0.038
318.15	0.000366	990.258	0.038

System: water + 1-butyl-1-methylpyrrolidinium dicyanamide; phases: Liquid
Fixed: Pressure, kPa = 100
Property: Mass density, kg/m3 (Liquid); method: Vibrating tube method
Temperature, K	Molality, mol/kg of 1-butyl-1-methylpyrrolidinium dicyanamide	Mass density, kg/m3	uncertainty
288.15	0.10161	0.725	0.01
288.15	0.09073	0.647	0.01
288.15	0.08129	0.589	0.01
288.15	0.0703	0.514	0.01
288.15	0.04839	0.36	0.01
288.15	0.03088	0.234	0.01
288.15	0.01538	0.117	0.01
293.15	0.09073	0.546	0.01
293.15	0.0703	0.436	0.01
293.15	0.04839	0.308	0.01
293.15	0.03088	0.202	0.01
293.15	0.01538	0.103	0.01
293.15	0.01007	0.068	0.01
298.15	0.12201	0.587	0.01
298.15	0.10166	0.5	0.01
298.15	0.09073	0.45	0.01
298.15	0.08133	0.411	0.01
298.15	0.0703	0.36	0.01
298.15	0.061	0.317	0.01
298.15	0.04839	0.256	0.01
298.15	0.04067	0.219	0.01
298.15	0.03088	0.168	0.01
298.15	0.02033	0.114	0.01
298.15	0.01538	0.085	0.01
298.15	0.01007	0.056	0.01
303.15	0.09073	0.366	0.01
303.15	0.0703	0.293	0.01
303.15	0.04839	0.209	0.01
303.15	0.03088	0.137	0.01
303.15	0.01538	0.071	0.01
303.15	0.01007	0.046	0.01
308.15	0.12192	0.367	0.01
308.15	0.10159	0.317	0.01
308.15	0.09073	0.289	0.01
308.15	0.08127	0.262	0.01
308.15	0.0703	0.234	0.01
308.15	0.06095	0.204	0.01
308.15	0.04839	0.167	0.01
308.15	0.04063	0.143	0.01
308.15	0.03088	0.111	0.01
308.15	0.02032	0.075	0.01
308.15	0.01538	0.06	0.01
308.15	0.01007	0.039	0.01
313.15	0.09073	0.216	0.01
313.15	0.0703	0.177	0.01
313.15	0.04839	0.128	0.01
313.15	0.03088	0.086	0.01
313.15	0.01538	0.046	0.01
313.15	0.01007	0.03	0.01
318.15	0.12192	0.186	0.01
318.15	0.10157	0.165	0.01
318.15	0.09073	0.152	0.01
318.15	0.08125	0.141	0.01
318.15	0.0703	0.126	0.01
318.15	0.06094	0.114	0.01
318.15	0.04839	0.094	0.01
318.15	0.04062	0.083	0.01
318.15	0.03088	0.065	0.01
318.15	0.02031	0.046	0.01
318.15	0.01538	0.035	0.01

System: water + 1-butyl-1-methylpyrrolidinium dicyanamide; phases: Liquid
Fixed: Temperature, K = 298.15
Fixed: Pressure, kPa = 100
Property: Viscosity, Pa*s (Liquid); method: Falling or rolling sphere viscometry
Molality, mol/kg of 1-butyl-1-methylpyrrolidinium dicyanamide	Viscosity, Pa*s	uncertainty
0.09073	0.0009308	1.15e-05
0.0703	0.000921	1.13e-05
0.04839	0.0009119	1.12e-05
0.03088	0.0009043	1.11e-05
0.01538	0.0008983	1.11e-05
0.01007	0.0008956	1.1e-05

System: water + 1-butyl-3-methylimidazolium dicyanamide; phases: Liquid
Fixed: Pressure, kPa = 100
Property: (Relative) activity of water (Liquid); method: dew point method
Mole fraction of water	Temperature, K	(Relative) activity of water	uncertainty
0.2011	288.1	0.0637	0.002
0.2011	293.07	0.0655	0.002
0.2011	298.07	0.0657	0.002
0.2011	303.06	0.0665	0.002
0.2011	308.04	0.0667	0.002
0.2011	313.02	0.0674	0.002
0.2011	318.03	0.0688	0.002
0.2895	288.11	0.1118	0.002
0.2895	293.11	0.1138	0.002
0.2895	298.12	0.1141	0.002
0.2895	303.08	0.1149	0.002
0.2895	308.08	0.1151	0.002
0.2895	313.03	0.1157	0.002
0.2895	318.05	0.1172	0.002
0.3986	288.13	0.1927	0.002
0.3986	293.13	0.1946	0.002
0.3986	298.13	0.195	0.002
0.3986	303.09	0.1955	0.002
0.3986	308.09	0.1962	0.002
0.3986	313.05	0.1964	0.002
0.3986	318.06	0.198	0.002
0.4955	288.14	0.2923	0.002
0.4955	293.14	0.2941	0.002
0.4955	298.14	0.2944	0.002
0.4955	303.12	0.2949	0.002
0.4955	308.11	0.2955	0.002
0.4955	313.09	0.2954	0.002
0.4955	318.09	0.2968	0.002
0.5902	288.15	0.4215	0.002
0.5902	293.16	0.4223	0.002
0.5902	298.17	0.4226	0.002
0.5902	303.13	0.423	0.002
0.5902	308.12	0.4235	0.002
0.5902	313.09	0.4231	0.002
0.5902	318.1	0.4237	0.002
0.6969	288.16	0.6083	0.002
0.6969	293.17	0.608	0.002
0.6969	298.18	0.6077	0.002
0.6969	303.14	0.6073	0.002
0.6969	308.14	0.6072	0.002
0.6969	313.11	0.6061	0.002
0.6969	318.13	0.6054	0.002
0.7933	288.17	0.7859	0.002
0.7933	293.18	0.7834	0.002
0.7933	298.19	0.7828	0.002
0.7933	303.14	0.7813	0.002
0.7933	308.13	0.7807	0.002
0.7933	313.11	0.7789	0.002
0.7933	318.12	0.7771	0.002
0.8988	288.18	0.9388	0.002
0.8988	293.19	0.9358	0.002
0.8988	298.2	0.9348	0.002
0.8988	303.15	0.9342	0.002
0.8988	308.14	0.9335	0.002
0.8988	313.12	0.934	0.002
0.8988	318.13	0.9305	0.002
0.9435	288.16	0.9716	0.002
0.9435	293.17	0.9692	0.002
0.9435	298.17	0.9687	0.002
0.9435	303.13	0.9688	0.002
0.9435	308.12	0.9687	0.002
0.9435	313.09	0.9688	0.002
0.9435	318.1	0.9676	0.002

System: water + 1-butyl-3-methylimidazolium dicyanamide; phases: Liquid
Fixed: Pressure, kPa = 100
Property: Excess molar enthalpy (molar enthalpy of mixing), kJ/mol (Liquid); method: Flow calorimetry
Temperature, K	Mole fraction of 1-butyl-3-methylimidazolium dicyanamide	Excess molar enthalpy (molar enthalpy of mixing), kJ/mol	uncertainty
288.15	0.002327	0.00229	0.00079
288.15	0.00194	0.00183	0.00079
288.15	0.001552	0.0014	0.00079
288.15	0.001165	0.00097	0.00078
288.15	0.000777	0.00058	0.00078
288.15	0.000389	0.00023	0.00078
298.15	0.002327	0.00586	0.00082
298.15	0.001939	0.0048	0.00081
298.15	0.001552	0.00378	0.0008
298.15	0.001165	0.00278	0.0008
298.15	0.000777	0.00179	0.00079
298.15	0.000388	0.00083	0.00078
308.15	0.002327	0.00962	0.00087
308.15	0.00194	0.00797	0.00084
308.15	0.001552	0.00635	0.00083
308.15	0.001165	0.00473	0.00081
308.15	0.000777	0.00309	0.0008
308.15	0.000389	0.00147	0.00079
318.15	0.002328	0.01351	0.00098
318.15	0.00194	0.01126	0.00091
318.15	0.001552	0.00898	0.00086
318.15	0.001165	0.00672	0.00083
318.15	0.000777	0.00443	0.00081
318.15	0.000388	0.00214	0.00079

System: water + 1-butyl-3-methylimidazolium dicyanamide; phases: Liquid
Fixed: Pressure, kPa = 100
Property: Mass density, kg/m3 (Liquid); method: Vibrating tube method
Temperature, K	Mole fraction of 1-butyl-3-methylimidazolium dicyanamide	Mass density, kg/m3	uncertainty
288.15	0.002327	1001.11	0.04
288.15	0.00194	1000.79	0.04
288.15	0.001552	1000.47	0.04
288.15	0.001165	1000.14	0.04
288.15	0.000777	999.8	0.03
288.15	0.000389	999.45	0.03
298.15	0.002327	998.75	0.03
298.15	0.001939	998.48	0.04
298.15	0.001552	998.21	0.04
298.15	0.001165	997.93	0.04
298.15	0.000777	997.65	0.04
298.15	0.000388	997.35	0.04
308.15	0.002327	995.48	0.04
308.15	0.00194	995.25	0.04
308.15	0.001552	995.02	0.04
308.15	0.001165	994.79	0.04
308.15	0.000777	994.54	0.04
308.15	0.000389	994.29	0.04
318.15	0.002328	991.45	0.04
318.15	0.00194	991.25	0.04
318.15	0.001552	991.06	0.04
318.15	0.001165	990.85	0.04
318.15	0.000777	990.65	0.04
318.15	0.000388	990.43	0.04

System: water + 1-butyl-3-methylimidazolium dicyanamide; phases: Liquid
Fixed: Pressure, kPa = 100
Property: Mass density, kg/m3 (Liquid); method: Vibrating tube method
Temperature, K	Molality, mol/kg of 1-butyl-3-methylimidazolium dicyanamide	Mass density, kg/m3	uncertainty
288.15	0.12949	2.005	0.01
288.15	0.10789	1.692	0.01
288.15	0.08631	1.37	0.01
288.15	0.08186	1.302	0.01
288.15	0.06874	1.103	0.01
288.15	0.06473	1.039	0.01
288.15	0.05091	0.825	0.01
288.15	0.04315	0.701	0.01
288.15	0.03084	0.507	0.01
293.15	0.08186	1.2	0.01
293.15	0.06874	1.021	0.01
293.15	0.05091	0.766	0.01
293.15	0.03084	0.472	0.01
293.15	0.01522	0.236	0.01
293.15	0.01061	0.164	0.01
298.15	0.12947	1.702	0.01
298.15	0.10787	1.434	0.01
298.15	0.0863	1.165	0.01
298.15	0.08186	1.107	0.01
298.15	0.06874	0.939	0.01
298.15	0.06473	0.887	0.01
298.15	0.05091	0.704	0.01
298.15	0.04315	0.6	0.01
298.15	0.03084	0.436	0.01
298.15	0.02157	0.305	0.01
298.15	0.01522	0.218	0.01
298.15	0.01061	0.151	0.01
303.15	0.08186	1.021	0.01
303.15	0.06874	0.867	0.01
303.15	0.05091	0.65	0.01
303.15	0.03084	0.402	0.01
303.15	0.01522	0.2	0.01
303.15	0.01061	0.14	0.01
308.15	0.12948	1.45	0.01
308.15	0.10788	1.221	0.01
308.15	0.08631	0.991	0.01
308.15	0.08186	0.943	0.01
308.15	0.06874	0.802	0.01
308.15	0.06473	0.753	0.01
308.15	0.05091	0.602	0.01
308.15	0.04315	0.508	0.01
308.15	0.03084	0.371	0.01
308.15	0.01522	0.186	0.01
308.15	0.01061	0.13	0.01
313.15	0.08186	0.87	0.01
313.15	0.06874	0.739	0.01
313.15	0.05091	0.555	0.01
313.15	0.03084	0.343	0.01
313.15	0.01522	0.172	0.01
313.15	0.01061	0.119	0.01
318.15	0.1295	1.233	0.01
318.15	0.10789	1.041	0.01
318.15	0.08631	0.848	0.01
318.15	0.08186	0.804	0.01
318.15	0.06874	0.683	0.01
318.15	0.06472	0.642	0.01
318.15	0.05091	0.513	0.01
318.15	0.04314	0.434	0.01
318.15	0.03084	0.318	0.01
318.15	0.01522	0.158	0.01
318.15	0.01061	0.111	0.01

System: water + 1-butyl-3-methylimidazolium dicyanamide; phases: Liquid
Fixed: Temperature, K = 298.15
Fixed: Pressure, kPa = 100
Property: Viscosity, Pa*s (Liquid); method: Falling or rolling sphere viscometry
Molality, mol/kg of 1-butyl-3-methylimidazolium dicyanamide	Viscosity, Pa*s	uncertainty
0.08186	0.0009219	1.14e-05
0.06874	0.0009157	1.13e-05
0.05091	0.0009086	1.12e-05
0.03084	0.000901	1.11e-05
0.01522	0.000895	1.1e-05
0.01061	0.0008936	1.1e-05

System: water + 1-butyl-1-methylpyrrolidinium 1,1,2,2-tetrafluoroethanesulfonate; phases: Liquid
Fixed: Pressure, kPa = 100
Property: (Relative) activity of water (Liquid); method: dew point method
Mole fraction of water	Temperature, K	(Relative) activity of water	uncertainty
0.2298	288.14	0.2694	0.002
0.2298	293.14	0.2632	0.002
0.2298	298.14	0.2569	0.002
0.2298	303.11	0.2504	0.002
0.2298	308.1	0.2452	0.002
0.2298	313.05	0.2392	0.002
0.2298	318.07	0.2346	0.002
0.3142	288.16	0.3761	0.002
0.3142	293.16	0.3684	0.002
0.3142	298.18	0.3607	0.002
0.3142	303.14	0.3532	0.002
0.3142	308.13	0.3462	0.002
0.3142	313.1	0.3386	0.002
0.3142	318.11	0.3325	0.002
0.4151	288.17	0.4981	0.002
0.4151	293.18	0.4901	0.002
0.4151	298.18	0.4813	0.002
0.4151	303.13	0.4733	0.002
0.4151	308.12	0.4657	0.002
0.4151	313.08	0.4575	0.002
0.4151	318.09	0.4501	0.002
0.508	288.17	0.613	0.002
0.508	293.18	0.6054	0.002
0.508	298.18	0.5971	0.002
0.508	303.14	0.5903	0.002
0.508	308.13	0.5825	0.002
0.508	313.1	0.5749	0.002
0.508	318.1	0.5668	0.002
0.6105	288.17	0.736	0.002
0.6105	293.17	0.7303	0.002
0.6105	298.18	0.7241	0.002
0.6105	303.13	0.7189	0.002
0.6105	308.11	0.7122	0.002
0.6105	313.08	0.7058	0.002
0.6105	318.09	0.6992	0.002
0.7036	288.19	0.8343	0.002
0.7036	293.2	0.8309	0.002
0.7036	298.19	0.8276	0.002
0.7036	303.16	0.8242	0.002
0.7036	308.15	0.8192	0.002
0.7036	313.13	0.815	0.002
0.7036	318.14	0.8098	0.002
0.8177	288.2	0.928	0.002
0.8177	293.21	0.9227	0.002
0.8177	298.21	0.9205	0.002
0.8177	303.16	0.9186	0.002
0.8177	308.15	0.9171	0.002
0.8177	313.12	0.9153	0.002
0.8177	318.12	0.912	0.002
0.8599	288.18	0.9484	0.002
0.8599	293.18	0.9476	0.002
0.8599	298.18	0.9475	0.002
0.8599	303.13	0.9469	0.002
0.8599	308.11	0.9469	0.002
0.8599	313.08	0.9462	0.002
0.8599	318.09	0.9441	0.002
0.898	288.19	0.9651	0.002
0.898	293.19	0.9646	0.002
0.898	298.2	0.9648	0.002
0.898	303.15	0.9652	0.002
0.898	308.14	0.9655	0.002
0.898	313.11	0.9652	0.002
0.898	318.12	0.9644	0.002
0.9404	288.19	0.9745	0.002
0.9404	293.19	0.9737	0.002
0.9404	298.17	0.9749	0.002
0.9404	303.14	0.9758	0.002
0.9404	308.13	0.9769	0.002
0.9404	313.09	0.9768	0.002
0.9404	318.1	0.9761	0.002

System: water + 1-butyl-1-methylpyrrolidinium 1,1,2,2-tetrafluoroethanesulfonate; phases: Liquid, Crystal
Fixed: Pressure, kPa = 100
Property: Solid-liquid equilibrium temperature, K (Liquid); method: VISOBS
Mole fraction of water	Solid-liquid equilibrium temperature, K	uncertainty
1	273.2	0.3
0.895	269.2	0.3
0.8037	265.9	0.3
0.7533	262.1	0.3

System: water + 1-butyl-1-methylpyrrolidinium 1,1,2,2-tetrafluoroethanesulfonate; phases: Liquid, Crystal 2
Fixed: Pressure, kPa = 100
Property: Solid-liquid equilibrium temperature, K (Liquid); method: VISOBS
Mole fraction of water	Solid-liquid equilibrium temperature, K	uncertainty
0.6519	266	0.3
0.5963	269.6	0.3
0.5043	274.6	0.3

System: water + 1-butyl-1-methylpyrrolidinium 1,1,2,2-tetrafluoroethanesulfonate; phases: Liquid, Crystal 1
Fixed: Pressure, kPa = 100
Property: Solid-liquid equilibrium temperature, K (Liquid); method: VISOBS
Mole fraction of water	Solid-liquid equilibrium temperature, K	uncertainty
0.4043	284.8	0.3
0.3602	287.9	0.3
0.2042	303	0.3
0	318.5	1

System: water + 1-butyl-1-methylpyrrolidinium 1,1,2,2-tetrafluoroethanesulfonate; phases: Liquid
Fixed: Temperature, K = 298.15
Fixed: Pressure, kPa = 100
Property: Viscosity, Pa*s (Liquid); method: Falling or rolling sphere viscometry
Molality, mol/kg of 1-butyl-1-methylpyrrolidinium 1,1,2,2-tetrafluoroethanesulfonate	Viscosity, Pa*s	uncertainty
0.09124	0.0009463	1.17e-05
0.07113	0.000934	1.15e-05
0.05104	0.0009233	1.14e-05
0.02912	0.0009095	1.12e-05
0.02018	0.0009033	1.11e-05
0.01177	0.0008996	1.11e-05

System: water + 1-butyl-1-methylpyrrolidinium 1,1,2,2-tetrafluoroethanesulfonate; phases: Liquid
Fixed: Pressure, kPa = 100
Property: Mass density, kg/m3 (Liquid); method: Vibrating tube method
Temperature, K	Molality, mol/kg of 1-butyl-1-methylpyrrolidinium 1,1,2,2-tetrafluoroethanesulfonate	Mass density, kg/m3	uncertainty
288.15	0.09124	7.082	0.01
288.15	0.07113	5.541	0.01
288.15	0.05104	3.991	0.01
288.15	0.02912	2.286	0.01
288.15	0.02018	1.588	0.01
288.15	0.01177	0.926	0.01
288.15	0.01026	0.807	0.01
293.15	0.09124	6.995	0.01
293.15	0.07113	5.475	0.01
293.15	0.05104	3.945	0.01
293.15	0.02912	2.263	0.01
293.15	0.02018	1.572	0.01
293.15	0.01177	0.918	0.01
293.15	0.01026	0.802	0.01
298.15	0.09124	6.911	0.01
298.15	0.07113	5.41	0.01
298.15	0.05104	3.9	0.01
298.15	0.02912	2.237	0.01
298.15	0.02018	1.554	0.01
298.15	0.01177	0.908	0.01
298.15	0.01026	0.791	0.01
303.15	0.09124	6.829	0.01
303.15	0.07113	5.349	0.01
303.15	0.05104	3.855	0.01
303.15	0.02912	2.211	0.01
303.15	0.02018	1.537	0.01
303.15	0.01177	0.899	0.01
303.15	0.01026	0.783	0.01
308.15	0.09124	6.755	0.01
308.15	0.07113	5.291	0.01
308.15	0.05104	3.815	0.01
308.15	0.02912	2.189	0.01
308.15	0.02018	1.523	0.01
308.15	0.01177	0.89	0.01
308.15	0.01026	0.777	0.01
313.15	0.09124	6.681	0.01
313.15	0.07113	5.231	0.01
313.15	0.05104	3.772	0.01
313.15	0.02912	2.165	0.01
313.15	0.02018	1.506	0.01
313.15	0.01177	0.881	0.01
313.15	0.01026	0.768	0.01
318.15	0.09124	6.611	0.01
318.15	0.07113	5.178	0.01
318.15	0.05104	3.734	0.01
318.15	0.02912	2.144	0.01
318.15	0.02018	1.491	0.01
318.15	0.01177	0.871	0.01
318.15	0.01026	0.76	0.01

System: water + 1-butyl-3-methylimidazolium 1,1,2,2-tetrafluoroethanesulfonate; phases: Liquid
Fixed: Pressure, kPa = 100
Property: (Relative) activity of water (Liquid); method: dew point method
Mole fraction of water	Temperature, K	(Relative) activity of water	uncertainty
0.1911	288.14	0.2311	0.002
0.1911	293.15	0.2254	0.002
0.1911	298.14	0.2186	0.002
0.1911	303.11	0.2124	0.002
0.1911	308.09	0.2064	0.002
0.1911	313.07	0.2005	0.002
0.1911	318.07	0.1963	0.002
0.3004	288.14	0.379	0.002
0.3004	293.15	0.3697	0.002
0.3004	298.16	0.3598	0.002
0.3004	303.13	0.3505	0.002
0.3004	308.11	0.3421	0.002
0.3004	313.08	0.333	0.002
0.3004	318.09	0.3258	0.002
0.3938	288.16	0.5008	0.002
0.3938	293.17	0.4901	0.002
0.3938	298.16	0.4793	0.002
0.3938	303.14	0.4688	0.002
0.3938	308.12	0.4594	0.002
0.3938	313.1	0.4491	0.002
0.3938	318.1	0.4403	0.002
0.5034	288.19	0.645	0.002
0.5034	293.18	0.6336	0.002
0.5034	298.19	0.6231	0.002
0.5034	303.15	0.6132	0.002
0.5034	308.13	0.6036	0.002
0.5034	313.11	0.5933	0.002
0.5034	318.12	0.5838	0.002
0.5969	288.18	0.7628	0.002
0.5969	293.18	0.7524	0.002
0.5969	298.19	0.7442	0.002
0.5969	303.15	0.7359	0.002
0.5969	308.15	0.7277	0.002
0.5969	313.12	0.7186	0.002
0.5969	318.13	0.7098	0.002
0.6792	288.18	0.8504	0.002
0.6792	293.19	0.8424	0.002
0.6792	298.2	0.8357	0.002
0.6792	303.16	0.8299	0.002
0.6792	308.15	0.8234	0.002
0.6792	313.13	0.8166	0.002
0.6792	318.14	0.8094	0.002
0.7038	288.18	0.8681	0.002
0.7038	293.19	0.8607	0.002
0.7038	298.19	0.8545	0.002
0.7038	303.15	0.8494	0.002
0.7038	308.14	0.8433	0.002
0.7038	313.12	0.837	0.002
0.7038	318.13	0.8301	0.002
0.7977	288.18	0.9405	0.002
0.7977	293.2	0.9362	0.002
0.7977	298.2	0.9331	0.002
0.7977	303.16	0.93	0.002
0.7977	308.14	0.9272	0.002
0.7977	313.12	0.9243	0.002
0.7977	318.13	0.9195	0.002
0.8239	288.17	0.9537	0.002
0.8239	293.17	0.9503	0.002
0.8239	298.17	0.9481	0.002
0.8239	303.13	0.9458	0.002
0.8239	308.12	0.944	0.002
0.8239	313.09	0.9414	0.002
0.8239	318.1	0.9377	0.002
0.8895	288.19	0.9747	0.002
0.8895	293.19	0.9724	0.002
0.8895	298.2	0.9715	0.002
0.8895	303.15	0.9714	0.002
0.8895	308.14	0.9703	0.002
0.8895	313.11	0.9702	0.002
0.8895	318.12	0.9676	0.002
0.94	288.16	0.9818	0.002
0.94	293.17	0.9807	0.002
0.94	298.18	0.9803	0.002
0.94	303.14	0.9809	0.002
0.94	308.13	0.9803	0.002
0.94	313.1	0.981	0.002
0.94	318.11	0.9803	0.002

System: water + 1-butyl-3-methylimidazolium 1,1,2,2-tetrafluoroethanesulfonate; phases: Liquid, Crystal
Fixed: Pressure, kPa = 100
Property: Solid-liquid equilibrium temperature, K (Liquid); method: VISOBS
Mole fraction of water	Solid-liquid equilibrium temperature, K	uncertainty
0.5969	253.3	0.3
0.7032	262.6	0.3
0.8044	268.3	0.3
0.9012	270.5	0.3
0.9505	270.9	0.3
1	273.2	0.3

System: water + 1-butyl-3-methylimidazolium 1,1,2,2-tetrafluoroethanesulfonate; phases: Liquid
Fixed: Temperature, K = 298.15
Fixed: Pressure, kPa = 100
Property: Viscosity, Pa*s (Liquid); method: Falling or rolling sphere viscometry
Molality, mol/kg of 1-butyl-3-methylimidazolium 1,1,2,2-tetrafluoroethanesulfonate	Viscosity, Pa*s	uncertainty
0.0811	0.0009328	1.15e-05
0.0705	0.0009269	1.14e-05
0.06272	0.0009229	1.14e-05
0.05086	0.0009161	1.13e-05
0.02818	0.0009042	1.11e-05
0.0216	0.0009005	1.11e-05

System: water + 1-butyl-3-methylimidazolium 1,1,2,2-tetrafluoroethanesulfonate; phases: Liquid
Fixed: Pressure, kPa = 100
Property: Mass density, kg/m3 (Liquid); method: Vibrating tube method
Temperature, K	Molality, mol/kg of 1-butyl-3-methylimidazolium 1,1,2,2-tetrafluoroethanesulfonate	Mass density, kg/m3	uncertainty
288.15	0.09772	8.414	0.01
288.15	0.0811	7.012	0.01
288.15	0.0705	6.099	0.01
288.15	0.06272	5.431	0.01
288.15	0.05086	4.416	0.01
288.15	0.02818	2.455	0.01
288.15	0.0216	1.881	0.01
293.15	0.09772	8.31	0.01
293.15	0.0811	6.928	0.01
293.15	0.0705	6.027	0.01
293.15	0.06272	5.365	0.01
293.15	0.05086	4.367	0.01
293.15	0.02818	2.431	0.01
293.15	0.0216	1.863	0.01
298.15	0.09772	8.21	0.01
298.15	0.0811	6.844	0.01
298.15	0.0705	5.955	0.01
298.15	0.06272	5.302	0.01
298.15	0.05086	4.313	0.01
298.15	0.02818	2.402	0.01
298.15	0.0216	1.841	0.01
303.15	0.09772	8.112	0.01
303.15	0.0811	6.763	0.01
303.15	0.0705	5.885	0.01
303.15	0.06272	5.241	0.01
303.15	0.05086	4.266	0.01
303.15	0.02818	2.376	0.01
303.15	0.0216	1.822	0.01
308.15	0.09772	8.021	0.01
308.15	0.0811	6.689	0.01
308.15	0.0705	5.821	0.01
308.15	0.06272	5.184	0.01
308.15	0.05086	4.22	0.01
308.15	0.02818	2.35	0.01
308.15	0.0216	1.803	0.01
313.15	0.09772	7.931	0.01
313.15	0.0811	6.614	0.01
313.15	0.0705	5.755	0.01
313.15	0.06272	5.127	0.01
313.15	0.05086	4.173	0.01
313.15	0.02818	2.324	0.01
313.15	0.0216	1.782	0.01
318.15	0.09772	7.847	0.01
318.15	0.0811	6.545	0.01
318.15	0.0705	5.696	0.01
318.15	0.06272	5.072	0.01
318.15	0.05086	4.13	0.01
318.15	0.02818	2.301	0.01
318.15	0.0216	1.766	0.01
