Measured thermophysical data. (Liquid + liquid) equilibria of {benzene + cyclohexane + two ionic liquids} at different temperature and atmospheric pressure
Source: J. Chem. Thermodyn., 2012, 10.1016/j.jct.2012.01.010
Compound 1: benzene, C6H6, InChI=1S/C6H6/c1-2-4-6-5-3-1/h1-6H, purity 99%
Compound 2: cyclohexane, C6H12, InChI=1S/C6H12/c1-2-4-6-5-3-1/h1-6H2, purity 99%
Compound 3: 1,3-dimethylimidazolium dimethylphosphate, C7H15N2O4P, InChI=1S/C5H9N2.C2H7O4P/c1-6-3-4-7(2)5-6;1-5-7(3,4)6-2/h3-5H,1-2H3;1-2H3,(H,3,4)/q+1;/p-1
Compound 4: 1-methylimidazolium tetrafluoroborate, C4H7BF4N2, InChI=1S/C4H6N2.BF4/c1-6-3-2-5-4-6;2-1(3,4)5/h2-4H,1H3;/q;-1/p+1

System: benzene + cyclohexane + 1,3-dimethylimidazolium dimethylphosphate; phases: Liquid mixture 2, Liquid mixture 1
Fixed: Temperature, K = 298.15
Fixed: Pressure, kPa = 101.3
Property: Mole fraction of cyclohexane (Liquid mixture 2); method: Chromatography
Property: Mole fraction of cyclohexane (Liquid mixture 1); method: Chromatography
Property: Mole fraction of benzene (Liquid mixture 1); method: Chromatography
Mole fraction of benzene	Mole fraction of cyclohexane	uncertainty	Mole fraction of cyclohexane	uncertainty	Mole fraction of benzene	uncertainty
0.0388	0.0928	0.001	0.9262	0.001	0.0738	
0.0497	0.108	0.0011	0.8981	0.0011	0.1019	
0.0522	0.1048	0.0011	0.8899	0.0011	0.1101	
0.0948	0.0872	0.001	0.7669	0.0019	0.2331	
0.131	0.0904	0.001	0.691	0.0024	0.309	
0.1338	0.0742	0.001	0.5992	0.0031	0.4008	
0.1618	0.0727	0.001	0.5161	0.0037	0.4839	
0.1656	0.0768	0.001	0.5063	0.0038	0.4937	
0.1769	0.0874	0.001	0.4977	0.0039	0.5023	
0.2101	0.0718	0.001	0.4046	0.0032	0.5954	
0.2372	0.0702	0.0009	0.3147	0.0024	0.6853	
0.2595	0.0802	0.001	0.3024	0.0023	0.6976	
0.2785	0.0628	0.0009	0.1748	0.0015	0.8252	
0.2738	0.0544	0.001	0.123	0.0012	0.877	
0.3027	0.0593	0.0009	0.1166	0.0012	0.8834	

System: benzene + cyclohexane + 1-methylimidazolium tetrafluoroborate; phases: Liquid mixture 1, Liquid mixture 2
Fixed: Temperature, K = 338.15
Fixed: Pressure, kPa = 101.3
Property: Mole fraction of cyclohexane (Liquid mixture 1); method: Chromatography
Property: Mole fraction of cyclohexane (Liquid mixture 2); method: Chromatography
Property: Mole fraction of benzene (Liquid mixture 2); method: Chromatography
Mole fraction of benzene	Mole fraction of cyclohexane	uncertainty	Mole fraction of cyclohexane	uncertainty	Mole fraction of benzene	uncertainty
0.109	0.891	0.0011	0.0451	0.0005	0.0122	
0.2963	0.7037	0.0023	0.0512	0.0006	0.0309	
0.499	0.501	0.0039	0.0544	0.0006	0.0475	
0.695	0.305	0.0024	0.054	0.0006	0.063	
0.8793	0.1207	0.0012	0.0524	0.0005	0.1012	
