Measured thermophysical data. Thermodynamics of uranium in (Ga + Sn) eutectic alloy
Source: J. Chem. Thermodyn., 2016, 10.1016/j.jct.2015.09.023
Compound 1: gallium, Ga, InChI=1S/Ga, purity 99.9999%
Compound 2: tin, Sn, InChI=1S/Sn, purity 99.9995%
Compound 3: uranium, U, InChI=1S/U, purity 99.97%

System: tin + gallium + uranium; phases: Liquid, Crystal of intercomponent compound 1
Fixed: Pressure, kPa = 100
Fixed: Solvent: Mass fraction of tin = 0.135
Property: (Relative) activity of uranium (Liquid); method: Calculated from emf measurements
Temperature, K	(Relative) activity of uranium	uncertainty
571	1.08e-12	1.08e-12
601	3.01e-12	3.01e-12
654	4.64e-11	4.64e-11
707	3.04e-10	3.04e-10
761	2.86e-09	2.86e-09
812	1.58e-08	1.58e-08
864	6.42e-08	6.42e-08
915	2.75e-07	2.75e-07
966	1.01e-06	1.01e-06
1016	3.83e-06	3.83e-06

System: tin + gallium + uranium; phases: Liquid, Crystal of intercomponent compound 1
Fixed: Solvent: Mass fraction of tin = 0.135
Fixed: Pressure, kPa = 100
Property: Mole fraction of uranium (Liquid); method: ICP-MS Spectrometry
Temperature, K	Mole fraction of uranium	uncertainty
1075	0.0033	0.001
976	0.0018	0.0005
877	0.00086	0.00026
785	0.00024	7e-05
729	0.00012	4e-05
683	7.4e-05	2.2e-05
647	2.7e-05	8e-06
647	3.7e-05	1.1e-05
584	8.7e-06	8.7e-06
584	2e-05	2e-05
534	9.4e-06	9.4e-06
527	1.2e-05	1.2e-05
478	3.1e-06	3.1e-06
476	1.4e-06	1.4e-06
428	9e-07	9e-07
366.7	1.7e-07	1.7e-07
325.2	3.1e-08	3.1e-08
325	3.1e-08	3.1e-08
292.7	3.6e-08	3.6e-08

System: tin + uranium; phases: Liquid, Crystal of intercomponent compound 1
Fixed: Pressure, kPa = 100
Property: (Relative) activity of uranium (Liquid); method: Calculated from emf measurements
Temperature, K	(Relative) activity of uranium	uncertainty
569	1.04e-12	1.04e-12
621	1.55e-11	1.55e-11
672	1.55e-10	1.55e-10
720	9.8e-10	9.8e-10
770	4.95e-09	4.95e-09
823	2.38e-08	2.38e-08
874	9.11e-08	9.11e-08
924	4e-07	4e-07
975	1.28e-06	1.28e-06
1025	3.99e-06	3.99e-06

System: gallium + uranium; phases: Liquid, Crystal of intercomponent compound 1
Fixed: Pressure, kPa = 100
Property: Mole fraction of uranium (Liquid); method: ICP-MS Spectometry
Temperature, K	Mole fraction of uranium	uncertainty
1073	0.0046	0.0018
973	0.0032	0.0013
867	0.0011	0.0004
777	0.00035	0.00014
727	0.00017	7e-05
678	8.2e-05	4.3e-05
676	0.00011	5e-05
627	4.4e-05	1.8e-05
621	3.7e-05	1.5e-05
575	1.9e-05	8e-06
575	3.5e-05	1.4e-05
547	1.4e-05	1.1e-05
524	1.6e-05	1.3e-05
518	2.4e-05	1.9e-05
498	1.4e-05	1.1e-05
474	7.1e-06	6.7e-06
473	5.3e-06	5.3e-06
447	2.9e-06	2.3e-06
399.5	3.7e-06	3e-06
379.4	3.4e-06	2.7e-06
348.4	8.2e-07	6.6e-07
296.5	2.3e-07	1.8e-07
