Measured thermophysical data. Activity coefficients at infinite dilution and enthalpies of solution of methanol, 1-butanol, and 1-hexanol in 1-hexyl-3-methyl-imidazolium bis(trifluoromethyl-sulfonyl) imide
Source: J. Chem. Thermodyn., 2007, 10.1016/j.jct.2006.07.006
Compound 1: methanol, CH4O, InChI=1S/CH4O/c1-2/h2H,1H3, purity 99.9%
Compound 2: 1-hexyl-3-methylimidazolium bis[(trifluoromethyl)sulfonyl]imide, C12H19F6N3O4S2, InChI=1S/C10H19N2.C2F6NO4S2/c1-3-4-5-6-7-12-9-8-11(2)10-12;3-1(4,5)14(10,11)9-15(12,13)2(6,7)8/h8-10H,3-7H2,1-2H3;/q+1;-1
Compound 3: butan-1-ol, C4H10O, InChI=1S/C4H10O/c1-2-3-4-5/h5H,2-4H2,1H3, purity 99.9%
Compound 4: hexan-1-ol, C6H14O, InChI=1S/C6H14O/c1-2-3-4-5-6-7/h7H,2-6H2,1H3, purity 99.9%

System: methanol + 1-hexyl-3-methylimidazolium bis[(trifluoromethyl)sulfonyl]imide; phases: Liquid
Fixed: Pressure, kPa = 101
Fixed: Mole fraction of methanol = 0
Property: Activity coefficient of methanol (Liquid); method: CHROM:UFactor:4
Temperature, K	Activity coefficient of methanol	uncertainty
301.8	1.43	0.21
301.8	1.5	0.23
301.8	1.46	0.22
301.8	1.46	0.22
301.8	1.34	0.19
312.4	1.27	0.17
312.4	1.35	0.19
312.4	1.34	0.19
312.4	1.29	0.18
312.4	1.17	0.14
322.9	1.15	0.14
322.9	1.25	0.17
322.9	1.22	0.16
322.9	1.15	0.14
333.2	1.05	0.11
333.2	1.17	0.14
333.2	1.1	0.13
333.2	1.07	0.12
344	1.02	0.11
344	0.99	0.1
344	0.98	0.1
344	1	0.1
354.3	0.87	0.11
354.3	0.93	0.1
354.3	0.9	0.11

System: methanol + 1-hexyl-3-methylimidazolium bis[(trifluoromethyl)sulfonyl]imide; phases: Liquid
Fixed: Temperature, K = 298.15
Fixed: Pressure, kPa = 101
Property: Molar enthalpy of solution, kJ/mol (Liquid); method: ISOPERIBOL:UFactor:2
Mole fraction of methanol	Molar enthalpy of solution, kJ/mol	uncertainty
0.0242	7.2	0.144
0.0359	6.941	0.139
0.0473	6.939	0.139
0.0584	6.732	0.135
0.0693	6.55	0.131
0.0799	6.609	0.132
0.0903	6.454	0.129
0.1004	6.298	0.126
0.1104	6.231	0.125
0.1201	6.103	0.122
0.1296	6.091	0.122
0.1389	5.875	0.118
0.148	5.802	0.116
0.1569	5.722	0.114
0.1656	5.651	0.113
0.1741	5.573	0.112

System: butan-1-ol + 1-hexyl-3-methylimidazolium bis[(trifluoromethyl)sulfonyl]imide; phases: Liquid
Fixed: Pressure, kPa = 101
Fixed: Mole fraction of butan-1-ol = 0
Property: Activity coefficient of butan-1-ol (Liquid); method: CHROM:UFactor:4
Temperature, K	Activity coefficient of butan-1-ol	uncertainty
323.1	1.99	0.28
323.1	1.98	0.28
323.1	1.99	0.28
323.1	2.06	0.29
323.1	1.99	0.28
333.5	1.78	0.24
333.5	1.77	0.24
333.5	1.78	0.24
333.5	1.83	0.25
333.5	1.78	0.24
333.5	1.87	0.26
344	1.6	0.2
344	1.57	0.2
344	1.6	0.2
344	1.67	0.22
344	1.61	0.21
344	1.6	0.2
344	1.68	0.22
354.5	1.45	0.18
354.5	1.42	0.17
354.5	1.45	0.18
354.5	1.53	0.19
354.5	1.46	0.18
354.5	1.46	0.18
354.5	1.52	0.19
364.9	1.34	0.16
364.9	1.3	0.15
364.9	1.34	0.16
364.9	1.32	0.15
364.9	1.32	0.15
364.9	1.37	0.16
375.4	1.23	0.14
375.4	1.23	0.14
375.4	1.23	0.14
375.4	1.28	0.14
386.1	1.14	0.12

System: butan-1-ol + 1-hexyl-3-methylimidazolium bis[(trifluoromethyl)sulfonyl]imide; phases: Liquid
Fixed: Temperature, K = 298.15
Fixed: Pressure, kPa = 101
Property: Molar enthalpy of solution, kJ/mol (Liquid); method: ISOPERIBOL:UFactor:2
Mole fraction of butan-1-ol	Molar enthalpy of solution, kJ/mol	uncertainty
0.0132	9.141	0.183
0.0197	9.063	0.181
0.026	9.034	0.181
0.0276	8.962	0.179
0.0323	8.901	0.178
0.0365	8.851	0.177
0.0386	8.893	0.178
0.0447	8.782	0.176
0.0452	8.73	0.175
0.0508	8.706	0.174
0.0538	8.654	0.173
0.0567	8.659	0.173
0.0622	8.56	0.171
0.0626	8.558	0.171
0.0685	8.459	0.169
0.0705	8.453	0.169
0.0742	8.436	0.169
0.0786	8.359	0.167
0.0799	8.325	0.167
0.0856	8.254	0.165
0.0866	8.236	0.165

System: hexan-1-ol + 1-hexyl-3-methylimidazolium bis[(trifluoromethyl)sulfonyl]imide; phases: Liquid
Fixed: Pressure, kPa = 101
Fixed: Mole fraction of hexan-1-ol = 0
Property: Activity coefficient of hexan-1-ol (Liquid); method: CHROM:UFactor:4
Temperature, K	Activity coefficient of hexan-1-ol	uncertainty
333.4	2.57	0.47
343.9	2.32	0.42
343.9	2.25	0.41
343.9	2.37	0.43
354.4	2.03	0.37
354.4	1.98	0.35
354.4	2.13	0.39
354.4	2.18	0.4
354.4	2.15	0.39
354.4	2.14	0.39
354.4	2.19	0.4
364.8	1.83	0.32
364.8	1.8	0.31
364.8	1.97	0.35
364.8	1.97	0.35
364.8	1.95	0.35
364.8	1.95	0.35
364.8	1.99	0.36
375.2	1.67	0.27
375.2	1.8	0.31
375.2	1.82	0.31
375.2	1.77	0.3
375.2	1.82	0.31
375.2	1.85	0.32
386	1.67	0.27
386	1.67	0.27
386	1.69	0.28
386	1.7	0.28
396	1.56	0.25

System: hexan-1-ol + 1-hexyl-3-methylimidazolium bis[(trifluoromethyl)sulfonyl]imide; phases: Liquid
Fixed: Temperature, K = 298.15
Fixed: Pressure, kPa = 101
Property: Molar enthalpy of solution, kJ/mol (Liquid); method: ISOPERIBOL:UFactor:4
Mole fraction of hexan-1-ol	Molar enthalpy of solution, kJ/mol	uncertainty
0.0152	8.719	0.349
0.0226	8.54	0.342
0.0299	8.372	0.335
0.0371	8.099	0.324
0.0444	8.106	0.324
0.0512	8.078	0.323
0.0549	7.847	0.314
0.0652	7.41	0.296
0.0752	7.253	0.29
0.0851	7.175	0.287
0.0947	7.051	0.282
0.1041	6.663	0.267
