Measured thermophysical data. Quaternary (liquid + liquid) equilibria for (water + 2-propanol + 1,1-dimethylethyl methyl ether + diisopropyl ether) at the temperature 298.15 K
Source: J. Chem. Thermodyn., 2006, 10.1016/j.jct.2005.06.016
Compound 1: 2-methoxy-2-methylpropane, C5H12O, InChI=1S/C5H12O/c1-5(2,3)6-4/h1-4H3, purity 99.8%
Compound 2: water, H2O, InChI=1S/H2O/h1H2, purity 99.9%
Compound 3: propan-2-ol, C3H8O, InChI=1S/C3H8O/c1-3(2)4/h3-4H,1-2H3, purity 99.7%

System: 2-methoxy-2-methylpropane + water; phases: Liquid mixture 1, Liquid mixture 2
Property: Mole fraction of water (Liquid mixture 1); method: CHROM:UFactor:8
Temperature, K	Pressure, kPa	Mole fraction of water	uncertainty
298.15	101.3	0.0574	0.0046

System: 2-methoxy-2-methylpropane + water; phases: Liquid mixture 2, Liquid mixture 1
Property: Mole fraction of water (Liquid mixture 2); method: CHROM:UFactor:8
Temperature, K	Pressure, kPa	Mole fraction of water	uncertainty
298.15	101.3	0.9933	0.0005

System: propan-2-ol + 2-methoxy-2-methylpropane + water; phases: Liquid mixture 1, Liquid mixture 2
Fixed: Temperature, K = 298.15
Fixed: Pressure, kPa = 101.3
Property: Mole fraction of propan-2-ol (Liquid mixture 1); method: CHROM:UFactor:8
Property: Mole fraction of propan-2-ol (Liquid mixture 2); method: CHROM:UFactor:8
Property: Mole fraction of water (Liquid mixture 2); method: CHROM:UFactor:8
Mole fraction of water	Mole fraction of propan-2-ol	uncertainty	Mole fraction of propan-2-ol	uncertainty	Mole fraction of water	uncertainty
0.0574	0	0.0001	0	0.0001	0.9933	
0.0867	0.0545	0.0044	0.0134	0.0011	0.9794	
0.1115	0.0834	0.0067	0.0216	0.0017	0.9707	
0.1619	0.1255	0.01	0.0299	0.0024	0.9623	
0.2151	0.1608	0.0129	0.0356	0.0028	0.9561	
0.2889	0.1936	0.0155	0.0388	0.0031	0.9524	
0.3174	0.2212	0.0177	0.0431	0.0034	0.9473	
0.3499	0.2353	0.0188	0.0474	0.0038	0.9429	
0.421	0.2438	0.0195	0.0532	0.0043	0.9369	
0.4963	0.246	0.0197	0.0609	0.0049	0.9262	
0.5808	0.2266	0.0181	0.0737	0.0059	0.908	
