Measured thermophysical data. Density and isothermal compressibility for two trialkylimidazolium-based ionic liquids at temperatures from (278 to 398) K and up to 120 MPa
Source: J. Chem. Thermodyn., 2015, 10.1016/j.jct.2014.09.014
Compound 1: 1-butyl-2,3-dimethyl-1H-imidazolium trifluorotris(perfluoroethyl)phosphate(V), C15H17F18N2P, InChI=1S/C9H17N2.C6F18P/c1-4-5-6-11-8-7-10(3)9(11)2;7-1(8,9)4(16,17)25(22,23,24,5(18,19)2(10,11)12)6(20,21)3(13,14)15/h7-8H,4-6H2,1-3H3;/q+1;-1, purity 98%
Compound 2: 1-butyl-2,3-dimethyl-1H-imidazolium bis(trifluoromethylsulfonyl)amide, C11H17F6N3O4S2, InChI=1S/C9H17N2.C2F6NO4S2/c1-4-5-6-11-8-7-10(3)9(11)2;3-1(4,5)14(10,11)9-15(12,13)2(6,7)8/h7-8H,4-6H2,1-3H3;/q+1;-1, purity 98%

System: 1-butyl-2,3-dimethyl-1H-imidazolium trifluorotris(perfluoroethyl)phosphate(V); phases: Liquid
Property: Mass density, kg/m3 (Liquid); method: Vibrating tube method
Temperature, K	Pressure, kPa	Mass density, kg/m3	uncertainty
278.15	100	1623.1	2.4
278.15	1000	1623.4	2.4
278.15	10000	1630.7	2.7
278.15	20000	1638.2	2.9
278.15	40000	1652.6	3.5
278.15	60000	1665.7	4.1
278.15	80000	1677.9	4.7
278.15	100000	1689.3	5.3
278.15	120000	1699.9	5.9
298.15	100	1599.9	2.3
298.15	1000	1600.3	2.4
298.15	10000	1608.1	2.6
298.15	20000	1616.2	2.9
298.15	40000	1631.4	3.4
298.15	60000	1645.5	4
298.15	80000	1658.4	4.5
298.15	100000	1670.5	5.1
298.15	120000	1681.8	5.7
313.15	100	1583.4	2.3
313.15	1000	1583.9	2.3
313.15	10000	1592.1	2.5
313.15	20000	1600.6	2.8
313.15	40000	1616.5	3.3
313.15	60000	1631	3.9
313.15	80000	1644.3	4.5
313.15	100000	1656.8	5
313.15	120000	1668.5	5.6
333.15	100	1561.2	2.2
333.15	1000	1561.8	2.2
333.15	10000	1570.7	2.5
333.15	20000	1579.8	2.7
333.15	40000	1596.8	3.2
333.15	60000	1612.1	3.8
333.15	80000	1626.2	4.3
333.15	100000	1639.3	4.9
333.15	120000	1651.4	5.5
348.15	100	1544.7	2.2
348.15	1000	1545.4	2.2
348.15	10000	1554.8	2.4
348.15	20000	1564.4	2.7
348.15	40000	1582.2	3.2
348.15	60000	1598.2	3.7
348.15	80000	1612.9	4.3
348.15	100000	1626.4	4.8
348.15	120000	1639	5.4
373.15	100	1516.3	5.4
373.15	1000	1517.7	3.6
373.15	10000	1528	3.7
373.15	20000	1538.5	3.8
373.15	40000	1557.7	4.1
373.15	60000	1574.8	4.4
373.15	80000	1590.4	4.8
373.15	100000	1604.7	5.2
373.15	120000	1618	5.7
398.15	100	1489	5.3
398.15	1000	1490.6	3.5
398.15	10000	1501.8	3.6
398.15	20000	1513.3	3.8
398.15	40000	1533.9	4
398.15	60000	1552.1	4.4
398.15	80000	1568.7	4.7
398.15	100000	1583.9	5.1
398.15	120000	1597.8	5.5

System: 1-butyl-2,3-dimethyl-1H-imidazolium bis(trifluoromethylsulfonyl)amide; phases: Liquid
Property: Mass density, kg/m3 (Liquid); method: Vibrating tube method
Temperature, K	Pressure, kPa	Mass density, kg/m3	uncertainty
278.15	100	1439.8	0.7
278.15	1000	1440	0.7
278.15	10000	1445.9	0.8
278.15	20000	1452.2	0.9
278.15	40000	1464	1.1
278.15	60000	1475	1.4
278.15	80000	1485.2	1.7
278.15	100000	1494.7	2.1
278.15	120000	1503.9	2.6
298.15	100	1420.9	0.7
298.15	1000	1421.2	0.7
298.15	10000	1427.5	0.8
298.15	20000	1434.1	0.9
298.15	40000	1446.5	1.1
298.15	60000	1458	1.4
298.15	80000	1468.8	1.7
298.15	100000	1479	2.1
298.15	120000	1488.7	2.5
313.15	100	1407.1	0.7
313.15	1000	1407.5	0.7
313.15	10000	1414	0.8
313.15	20000	1420.9	0.9
313.15	40000	1433.9	1.1
313.15	60000	1445.8	1.3
313.15	80000	1457	1.6
313.15	100000	1467.3	2
313.15	120000	1477.2	2.4
333.15	100	1388.5	0.7
333.15	1000	1389	0.7
333.15	10000	1396	0.8
333.15	20000	1403.4	0.8
333.15	40000	1417.1	1
333.15	60000	1429.7	1.3
333.15	80000	1441.4	1.6
333.15	100000	1452.2	2
333.15	120000	1462.6	2.4
348.15	100	1374.7	0.7
348.15	1000	1375.3	0.7
348.15	10000	1382.7	0.8
348.15	20000	1390.4	0.8
348.15	40000	1404.7	1
348.15	60000	1417.8	1.3
348.15	80000	1429.9	1.6
348.15	100000	1441.1	1.9
348.15	120000	1451.7	2.3
373.15	100	1351.1	5
373.15	1000	1352.3	3
373.15	10000	1360.4	3
373.15	20000	1368.7	3
373.15	40000	1384	3.1
373.15	60000	1397.9	3.2
373.15	80000	1410.6	3.3
373.15	100000	1422.5	3.4
373.15	120000	1433.6	3.6
398.15	100	1328.4	5
398.15	1000	1329.7	3
398.15	10000	1338.4	3
398.15	20000	1347.4	3
398.15	40000	1363.8	3.1
398.15	60000	1378.5	3.2
398.15	80000	1392.1	3.3
398.15	100000	1404.6	3.4
398.15	120000	1416	3.6
