Measured thermophysical data. Excess molar volumes and excess isentropic compressibilities of mixtures containing lactam, cyclic ethers and cyclic alkanones
Source: J. Chem. Thermodyn., 2018, 10.1016/j.jct.2018.05.012
Compound 1: 1,3-dioxolane, C3H6O2, InChI=1S/C3H6O2/c1-2-5-3-4-1/h1-3H2, purity 98.4%
Compound 2: 1,4-dioxane, C4H8O2, InChI=1S/C4H8O2/c1-2-6-4-3-5-1/h1-4H2, purity 98.3%
Compound 3: N-methylpyrrolidone, C5H9NO, InChI=1S/C5H9NO/c1-6-4-2-3-5(6)7/h2-4H2,1H3, purity 98%
Compound 4: cyclohexanone, C6H10O, InChI=1S/C6H10O/c7-6-4-2-1-3-5-6/h1-5H2, purity 99%
Compound 5: cycloheptanone, C7H12O, InChI=1S/C7H12O/c8-7-5-3-1-2-4-6-7/h1-6H2, purity 98%

System: 1,3-dioxolane + 1,4-dioxane; phases: Liquid
Fixed: Pressure, kPa = 100
Property: Mass density, kg/m3 (Liquid); method: Vibrating tube method
Temperature, K	Mole fraction of 1,3-dioxolane	Mass density, kg/m3	uncertainty
293.15	0.1184	1036.5	1
293.15	0.1694	1037.8	1
293.15	0.2145	1039	1
293.15	0.2632	1040.4	1
293.15	0.3154	1041.8	1
293.15	0.3689	1043.3	1
293.15	0.4184	1044.8	1
293.15	0.4697	1046.3	1
293.15	0.5124	1047.6	1
293.15	0.5674	1049.4	1
293.15	0.6282	1051.4	1
293.15	0.6734	1052.9	1
293.15	0.7231	1054.6	1
293.15	0.7626	1055.9	1
293.15	0.7992	1057.2	1
293.15	0.8486	1059	1
293.15	0.8815	1060.2	1
293.15	0.9102	1061.3	1
298.15	0.1184	1030.8	1
298.15	0.1694	1032.1	1
298.15	0.2145	1033.3	1
298.15	0.2632	1034.6	1
298.15	0.3154	1036.1	1
298.15	0.3689	1037.6	1
298.15	0.4184	1039	1
298.15	0.4697	1040.5	1
298.15	0.5124	1041.8	1
298.15	0.5674	1043.6	1
298.15	0.6282	1045.5	1
298.15	0.6734	1047	1
298.15	0.7231	1048.7	1
298.15	0.7626	1050.1	1
298.15	0.7992	1051.4	1
298.15	0.8486	1053.1	1
298.15	0.8815	1054.3	1
298.15	0.9102	1055.4	1
303.15	0.1184	1025.1	1
303.15	0.1694	1026.4	1
303.15	0.2145	1027.5	1
303.15	0.2632	1028.8	1
303.15	0.3154	1030.2	1
303.15	0.3689	1031.7	1
303.15	0.4184	1033.1	1
303.15	0.4697	1034.6	1
303.15	0.5124	1035.8	1
303.15	0.5674	1037.5	1
303.15	0.6282	1039.5	1
303.15	0.6734	1040.9	1
303.15	0.7231	1042.6	1
303.15	0.7626	1043.9	1
303.15	0.7992	1045.2	1
303.15	0.8486	1046.9	1
303.15	0.8815	1048.1	1
303.15	0.9102	1049.1	1
308.15	0.1184	1019.3	1
308.15	0.1694	1020.6	1
308.15	0.2145	1021.7	1
308.15	0.2632	1022.9	1
308.15	0.3154	1024.3	1
308.15	0.3689	1025.8	1
308.15	0.4184	1027.2	1
308.15	0.4697	1028.6	1
308.15	0.5124	1029.9	1
308.15	0.5674	1031.5	1
308.15	0.6282	1033.4	1
308.15	0.6734	1034.8	1
308.15	0.7231	1036.5	1
308.15	0.7626	1037.8	1
308.15	0.7992	1039	1
308.15	0.8486	1040.7	1
308.15	0.8815	1041.9	1
308.15	0.9102	1042.9	1

System: 1,3-dioxolane + 1,4-dioxane; phases: Liquid
Fixed: Pressure, kPa = 100
Fixed: Frequency, MHz = 3
Property: Speed of sound, m/s (Liquid); method: Single path-length method
Temperature, K	Mole fraction of 1,3-dioxolane	Speed of sound, m/s	uncertainty
293.15	0.1184	1367	1.4
293.15	0.1694	1366.7	1.4
293.15	0.2145	1366.4	1.4
293.15	0.2632	1366.1	1.4
293.15	0.3154	1365.8	1.4
293.15	0.3689	1365.5	1.4
293.15	0.4184	1365.2	1.4
293.15	0.4697	1364.9	1.4
293.15	0.5124	1364.6	1.4
293.15	0.5674	1364.3	1.4
293.15	0.6282	1363.9	1.4
293.15	0.6734	1363.6	1.4
293.15	0.7231	1363.3	1.4
293.15	0.7626	1363	1.4
293.15	0.7992	1362.7	1.4
293.15	0.8486	1362.4	1.4
293.15	0.8815	1362.1	1.4
293.15	0.9102	1361.9	1.4
298.15	0.1184	1345.1	1.4
298.15	0.1694	1344.8	1.4
298.15	0.2145	1344.5	1.4
298.15	0.2632	1344.1	1.4
298.15	0.3154	1343.8	1.4
298.15	0.3689	1343.5	1.4
298.15	0.4184	1343.1	1.4
298.15	0.4697	1342.8	1.4
298.15	0.5124	1342.5	1.4
298.15	0.5674	1342.1	1.4
298.15	0.6282	1341.7	1.4
298.15	0.6734	1341.4	1.4
298.15	0.7231	1341	1.4
298.15	0.7626	1340.7	1.4
298.15	0.7992	1340.4	1.4
298.15	0.8486	1340	1.4
298.15	0.8815	1339.8	1.4
298.15	0.9102	1339.5	1.4
303.15	0.1184	1323.5	1.4
303.15	0.1694	1323.1	1.4
303.15	0.2145	1322.8	1.4
303.15	0.2632	1322.4	1.4
303.15	0.3154	1322.1	1.4
303.15	0.3689	1321.7	1.4
303.15	0.4184	1321.3	1.4
303.15	0.4697	1321	1.4
303.15	0.5124	1320.7	1.4
303.15	0.5674	1320.3	1.4
303.15	0.6282	1319.8	1.4
303.15	0.6734	1319.5	1.4
303.15	0.7231	1319.1	1.4
303.15	0.7626	1318.8	1.4
303.15	0.7992	1318.5	1.4
303.15	0.8486	1318.1	1.4
303.15	0.8815	1317.8	1.4
303.15	0.9102	1317.5	1.4
308.15	0.1184	1301.6	1.4
308.15	0.1694	1301.2	1.4
308.15	0.2145	1300.8	1.4
308.15	0.2632	1300.5	1.4
308.15	0.3154	1300.1	1.4
308.15	0.3689	1299.7	1.4
308.15	0.4184	1299.4	1.4
308.15	0.4697	1299	1.4
308.15	0.5124	1298.7	1.4
308.15	0.5674	1298.3	1.4
308.15	0.6282	1297.9	1.4
308.15	0.6734	1297.5	1.4
308.15	0.7231	1297.1	1.4
308.15	0.7626	1296.8	1.4
308.15	0.7992	1296.5	1.4
308.15	0.8486	1296.1	1.4
308.15	0.8815	1295.8	1.4
308.15	0.9102	1295.5	1.4

System: 1,3-dioxolane + N-methylpyrrolidone + cyclohexanone; phases: Liquid
Fixed: Pressure, kPa = 100
Property: Mass density, kg/m3 (Liquid); method: Vibrating tube method
Temperature, K	Mole fraction of 1,3-dioxolane	Mole fraction of N-methylpyrrolidone	Mass density, kg/m3	uncertainty
293.15	0.1012	0.4404	996.44	1.01
293.15	0.1289	0.4334	999.09	1.01
293.15	0.1452	0.4209	1000.1	1
293.15	0.1619	0.4104	1001.3	1
293.15	0.1808	0.401	1002.8	1
293.15	0.203	0.3987	1005.3	1
293.15	0.2166	0.3876	1006.1	1
293.15	0.2367	0.3754	1007.5	1
293.15	0.2539	0.3627	1008.5	1
293.15	0.2773	0.3595	1010.1	1
293.15	0.2918	0.3439	1011.4	1
293.15	0.3112	0.3322	1012.6	1
293.15	0.3358	0.3262	1014.9	1
293.15	0.3568	0.3117	1016.1	1
293.15	0.3783	0.3073	1017.8	1
293.15	0.398	0.2933	1018.8	1
293.15	0.4241	0.2661	1019.7	1
293.15	0.4464	0.2532	1020.9	1
293.15	0.4654	0.2439	1022.1	1
293.15	0.4862	0.2316	1023.3	1
293.15	0.505	0.2256	1025.4	1
293.15	0.5229	0.2153	1026.4	1
293.15	0.5457	0.2039	1027.9	1
293.15	0.5641	0.1989	1029.4	1
293.15	0.5885	0.1874	1031.1	1
293.15	0.6021	0.1784	1032.4	1
293.15	0.6216	0.1651	1033.4	1
293.15	0.6493	0.1592	1036	1
293.15	0.6688	0.1477	1037.4	1
293.15	0.6811	0.1409	1038.3	1
293.15	0.7046	0.1335	1039.9	1
293.15	0.7296	0.1289	1041.5	1
298.15	0.1012	0.4404	991.74	1.01
298.15	0.1289	0.4334	994.71	1.01
298.15	0.1452	0.4209	995.73	1.01
298.15	0.1619	0.4104	996.96	1.01
298.15	0.1808	0.401	998.51	1.01
298.15	0.203	0.3987	1001	1
298.15	0.2166	0.3876	1001.7	1
298.15	0.2367	0.3754	1003.1	1
298.15	0.2539	0.3627	1004.2	1
298.15	0.2773	0.3595	1006.5	1
298.15	0.2918	0.3439	1007	1
298.15	0.3112	0.3322	1008.3	1
298.15	0.3358	0.3262	1010.5	1
298.15	0.3568	0.3117	1011.7	1
298.15	0.3783	0.3073	1013.5	1
298.15	0.398	0.2933	1014.3	1
298.15	0.4241	0.2661	1015.2	1
298.15	0.4464	0.2532	1016.1	1
298.15	0.4654	0.2439	1017.4	1
298.15	0.4862	0.2316	1018.6	1
298.15	0.505	0.2256	1020.7	1
298.15	0.5229	0.2153	1021.8	1
298.15	0.5457	0.2039	1023.2	1
298.15	0.5641	0.1989	1024.7	1
298.15	0.5885	0.1874	1026.2	1
298.15	0.6021	0.1784	1027.7	1
298.15	0.6216	0.1651	1028.7	1
298.15	0.6493	0.1592	1031.1	1
298.15	0.6688	0.1477	1032.6	1
298.15	0.6811	0.1409	1033.3	1
298.15	0.7046	0.1335	1034.9	1
298.15	0.7296	0.1289	1036.3	1
303.15	0.1012	0.4404	987.13	1.01
303.15	0.1289	0.4334	990.12	1.01
303.15	0.1452	0.4209	991.15	1.01
303.15	0.1619	0.4104	992.39	1.01
303.15	0.1808	0.401	993.94	1.01
303.15	0.203	0.3987	996.43	1.01
303.15	0.2166	0.3876	997.18	1.01
303.15	0.2367	0.3754	998.58	1.01
303.15	0.2539	0.3627	999.6	1.01
303.15	0.2773	0.3595	1001.9	1
303.15	0.2918	0.3439	1002.4	1
303.15	0.3112	0.3322	1003.7	1
303.15	0.3358	0.3262	1005.8	1
303.15	0.3568	0.3117	1007	1
303.15	0.3783	0.3073	1008.8	1
303.15	0.398	0.2933	1009.7	1
303.15	0.4241	0.2661	1010.6	1
303.15	0.4464	0.2532	1011.2	1
303.15	0.4654	0.2439	1012.4	1
303.15	0.4862	0.2316	1013.6	1
303.15	0.505	0.2256	1015.8	1
303.15	0.5229	0.2153	1016.8	1
303.15	0.5457	0.2039	1018.2	1
303.15	0.5641	0.1989	1019.6	1
303.15	0.5885	0.1874	1021.1	1
303.15	0.6021	0.1784	1022.7	1
303.15	0.6216	0.1651	1023.6	1
303.15	0.6493	0.1592	1025.9	1
303.15	0.6688	0.1477	1027.5	1
303.15	0.6811	0.1409	1028.1	1
303.15	0.7046	0.1335	1029.6	1
303.15	0.7296	0.1289	1030.7	1
308.15	0.1012	0.4404	982.53	1.01
308.15	0.1289	0.4334	985.54	1.01
308.15	0.1452	0.4209	986.58	1.01
308.15	0.1619	0.4104	987.82	1.01
308.15	0.1808	0.401	989.38	1.01
308.15	0.203	0.3987	991.85	1.01
308.15	0.2166	0.3876	992.6	1.01
308.15	0.2367	0.3754	994	1.01
308.15	0.2539	0.3627	995	1.01
308.15	0.2773	0.3595	997.36	1.01
308.15	0.2918	0.3439	997.81	1.01
308.15	0.3112	0.3322	999.04	1.01
308.15	0.3358	0.3262	1001.2	1
308.15	0.3568	0.3117	1002.3	1
308.15	0.3783	0.3073	1004.1	1
308.15	0.398	0.2933	1004.8	1
308.15	0.4241	0.2661	1005.9	1
308.15	0.4464	0.2532	1006.7	1
308.15	0.4654	0.2439	1007.6	1
308.15	0.4862	0.2316	1008.7	1
308.15	0.505	0.2256	1010.9	1
308.15	0.5229	0.2153	1011.8	1
308.15	0.5457	0.2039	1013.1	1
308.15	0.5641	0.1989	1014.5	1
308.15	0.5885	0.1874	1016	1
308.15	0.6021	0.1784	1017.6	1
308.15	0.6216	0.1651	1018.6	1
308.15	0.6493	0.1592	1020.6	1
308.15	0.6688	0.1477	1022.4	1
308.15	0.6811	0.1409	1022.9	1
308.15	0.7046	0.1335	1024.4	1
308.15	0.7296	0.1289	1025.2	1

System: 1,3-dioxolane + N-methylpyrrolidone + cyclohexanone; phases: Liquid
Fixed: Pressure, kPa = 100
Fixed: Frequency, MHz = 3
Property: Speed of sound, m/s (Liquid); method: Single path-length method
Temperature, K	Mole fraction of 1,3-dioxolane	Mole fraction of N-methylpyrrolidone	Speed of sound, m/s	uncertainty
293.15	0.1012	0.4404	1509.5	1.2
293.15	0.1289	0.4334	1505.9	1.2
293.15	0.1452	0.4209	1503.7	1.2
293.15	0.1619	0.4104	1501.6	1.2
293.15	0.1808	0.401	1499.4	1.2
293.15	0.203	0.3987	1497.7	1.3
293.15	0.2166	0.3876	1495.4	1.3
293.15	0.2367	0.3754	1492.8	1.3
293.15	0.2539	0.3627	1489.7	1.3
293.15	0.2773	0.3595	1487	1.3
293.15	0.2918	0.3439	1484.1	1.3
293.15	0.3112	0.3322	1480.9	1.3
293.15	0.3358	0.3262	1477.4	1.3
293.15	0.3568	0.3117	1473.7	1.3
293.15	0.3783	0.3073	1470.4	1.3
293.15	0.398	0.2933	1466.9	1.3
293.15	0.4241	0.2661	1461.5	1.3
293.15	0.4464	0.2532	1457.1	1.3
293.15	0.4654	0.2439	1454.2	1.3
293.15	0.4862	0.2316	1450.4	1.3
293.15	0.505	0.2256	1446.5	1.3
293.15	0.5229	0.2153	1443.1	1.3
293.15	0.5457	0.2039	1438.8	1.3
293.15	0.5641	0.1989	1435.4	1.3
293.15	0.5885	0.1874	1430.7	1.3
293.15	0.6021	0.1784	1427.6	1.3
293.15	0.6216	0.1651	1423.4	1.3
293.15	0.6493	0.1592	1418.6	1.3
293.15	0.6688	0.1477	1414.6	1.3
293.15	0.6811	0.1409	1411.9	1.3
293.15	0.7046	0.1335	1408.9	1.3
293.15	0.7296	0.1289	1404.6	1.3
298.15	0.1012	0.4404	1487.6	1.2
298.15	0.1289	0.4334	1485.9	1.2
298.15	0.1452	0.4209	1484	1.2
298.15	0.1619	0.4104	1482	1.2
298.15	0.1808	0.401	1479.8	1.2
298.15	0.203	0.3987	1478.1	1.3
298.15	0.2166	0.3876	1475.8	1.3
298.15	0.2367	0.3754	1473.1	1.3
298.15	0.2539	0.3627	1470.4	1.3
298.15	0.2773	0.3595	1467.5	1.3
298.15	0.2918	0.3439	1464.9	1.3
298.15	0.3112	0.3322	1461.6	1.3
298.15	0.3358	0.3262	1458	1.3
298.15	0.3568	0.3117	1454.4	1.3
298.15	0.3783	0.3073	1450.7	1.3
298.15	0.398	0.2933	1447.4	1.3
298.15	0.4241	0.2661	1442.6	1.3
298.15	0.4464	0.2532	1438.9	1.3
298.15	0.4654	0.2439	1435.3	1.3
298.15	0.4862	0.2316	1431.3	1.3
298.15	0.505	0.2256	1427.3	1.3
298.15	0.5229	0.2153	1423.8	1.3
298.15	0.5457	0.2039	1419.4	1.3
298.15	0.5641	0.1989	1415.7	1.3
298.15	0.5885	0.1874	1410.9	1.3
298.15	0.6021	0.1784	1407.6	1.3
298.15	0.6216	0.1651	1403.7	1.3
298.15	0.6493	0.1592	1398.3	1.3
298.15	0.6688	0.1477	1394.1	1.3
298.15	0.6811	0.1409	1391.7	1.3
298.15	0.7046	0.1335	1387.4	1.3
298.15	0.7296	0.1289	1383.5	1.3
303.15	0.1012	0.4404	1466.7	1.2
303.15	0.1289	0.4334	1465.2	1.2
303.15	0.1452	0.4209	1463.4	1.2
303.15	0.1619	0.4104	1461.5	1.2
303.15	0.1808	0.401	1459.5	1.2
303.15	0.203	0.3987	1457.4	1.3
303.15	0.2166	0.3876	1455.6	1.3
303.15	0.2367	0.3754	1452.8	1.3
303.15	0.2539	0.3627	1450.3	1.3
303.15	0.2773	0.3595	1447.2	1.3
303.15	0.2918	0.3439	1444.8	1.3
303.15	0.3112	0.3322	1441.7	1.3
303.15	0.3358	0.3262	1437.8	1.3
303.15	0.3568	0.3117	1434.3	1.3
303.15	0.3783	0.3073	1430.5	1.3
303.15	0.398	0.2933	1427.2	1.3
303.15	0.4241	0.2661	1422.8	1.3
303.15	0.4464	0.2532	1419.3	1.3
303.15	0.4654	0.2439	1415.6	1.3
303.15	0.4862	0.2316	1411.8	1.3
303.15	0.505	0.2256	1407.3	1.3
303.15	0.5229	0.2153	1403.8	1.3
303.15	0.5457	0.2039	1399.4	1.3
303.15	0.5641	0.1989	1395.5	1.3
303.15	0.5885	0.1874	1390.5	1.3
303.15	0.6021	0.1784	1387.2	1.3
303.15	0.6216	0.1651	1383.4	1.3
303.15	0.6493	0.1592	1377.6	1.3
303.15	0.6688	0.1477	1373.2	1.3
303.15	0.6811	0.1409	1370.9	1.3
303.15	0.7046	0.1335	1366.4	1.3
303.15	0.7296	0.1289	1362.3	1.3
308.15	0.1012	0.4404	1444.9	1.2
308.15	0.1289	0.4334	1443.5	1.2
308.15	0.1452	0.4209	1441.8	1.2
308.15	0.1619	0.4104	1440.1	1.2
308.15	0.1808	0.401	1438.2	1.2
308.15	0.203	0.3987	1436.1	1.3
308.15	0.2166	0.3876	1434.3	1.3
308.15	0.2367	0.3754	1431.7	1.3
308.15	0.2539	0.3627	1429.2	1.3
308.15	0.2773	0.3595	1426	1.3
308.15	0.2918	0.3439	1423.8	1.3
308.15	0.3112	0.3322	1420.9	1.3
308.15	0.3358	0.3262	1416.7	1.3
308.15	0.3568	0.3117	1413.4	1.3
308.15	0.3783	0.3073	1409.5	1.3
308.15	0.398	0.2933	1406.3	1.3
308.15	0.4241	0.2661	1402.1	1.3
308.15	0.4464	0.2532	1399	1.3
308.15	0.4654	0.2439	1395.2	1.3
308.15	0.4862	0.2316	1391.2	1.3
308.15	0.505	0.2256	1386.9	1.3
308.15	0.5229	0.2153	1383.5	1.3
308.15	0.5457	0.2039	1378.8	1.3
308.15	0.5641	0.1989	1374.7	1.3
308.15	0.5885	0.1874	1369.7	1.3
308.15	0.6021	0.1784	1366.4	1.3
308.15	0.6216	0.1651	1362.5	1.3
308.15	0.6493	0.1592	1356.4	1.3
308.15	0.6688	0.1477	1352.1	1.3
308.15	0.6811	0.1409	1349.7	1.3
308.15	0.7046	0.1335	1345	1.3
308.15	0.7296	0.1289	1340.8	1.3

System: 1,3-dioxolane + N-methylpyrrolidone + cycloheptanone; phases: Liquid
Fixed: Pressure, kPa = 100
Property: Mass density, kg/m3 (Liquid); method: Vibrating tube method
Temperature, K	Mole fraction of 1,3-dioxolane	Mole fraction of N-methylpyrrolidone	Mass density, kg/m3	uncertainty
293.15	0.1178	0.4951	1002.4	1
293.15	0.1391	0.4831	1004	1
293.15	0.1625	0.4636	1005.2	1
293.15	0.1808	0.4509	1006.2	1
293.15	0.2147	0.4324	1008.6	1
293.15	0.2377	0.4147	1009.7	1
293.15	0.2565	0.4026	1010.8	1
293.15	0.2783	0.382	1011.6	1
293.15	0.2939	0.3754	1012.8	1
293.15	0.3151	0.3595	1013.8	1
293.15	0.3357	0.3481	1015.1	1
293.15	0.3609	0.3361	1016.8	1
293.15	0.381	0.325	1018	1
293.15	0.4009	0.314	1019.2	1
293.15	0.4269	0.3014	1020.8	1
293.15	0.4496	0.2869	1022	1
293.15	0.4687	0.2763	1023.2	1
293.15	0.4898	0.2625	1024.2	1
293.15	0.5084	0.2555	1025.6	1
293.15	0.5265	0.2439	1026.5	1
293.15	0.5421	0.2348	1027.4	1
293.15	0.5674	0.225	1029.2	1
293.15	0.5836	0.2128	1029.9	1
293.15	0.6058	0.202	1031.3	1
293.15	0.6201	0.19	1031.9	1
293.15	0.6525	0.18	1034.8	1
293.15	0.6751	0.1747	1036.6	1
293.15	0.7194	0.1502	1039.6	1
293.15	0.7312	0.1454	1040.6	1
293.15	0.7504	0.1328	1041.7	1
293.15	0.7665	0.1255	1043.1	1
293.15	0.7789	0.1187	1044	1
298.15	0.1178	0.4951	997.94	1.02
298.15	0.1391	0.4831	999.52	1.02
298.15	0.1625	0.4636	1000.6	1
298.15	0.1808	0.4509	1001.7	1
298.15	0.2147	0.4324	1004	1
298.15	0.2377	0.4147	1005.2	1
298.15	0.2565	0.4026	1006.3	1
298.15	0.2783	0.382	1007.1	1
298.15	0.2939	0.3754	1008.2	1
298.15	0.3151	0.3595	1009.3	1
298.15	0.3357	0.3481	1010.5	1
298.15	0.3609	0.3361	1012.2	1
298.15	0.381	0.325	1013.4	1
298.15	0.4009	0.314	1014.6	1
298.15	0.4269	0.3014	1016.2	1
298.15	0.4496	0.2869	1017.4	1
298.15	0.4687	0.2763	1018.5	1
298.15	0.4898	0.2625	1019.5	1
298.15	0.5084	0.2555	1020.8	1
298.15	0.5265	0.2439	1021.7	1
298.15	0.5421	0.2348	1022.6	1
298.15	0.5674	0.225	1024.4	1
298.15	0.5836	0.2128	1025	1
298.15	0.6058	0.202	1026.4	1
298.15	0.6201	0.19	1027	1
298.15	0.6525	0.18	1029.8	1
298.15	0.6751	0.1747	1031.5	1
298.15	0.7194	0.1502	1033.8	1
298.15	0.7312	0.1454	1034.8	1
298.15	0.7504	0.1328	1036.5	1
298.15	0.7665	0.1255	1037.9	1
298.15	0.7789	0.1187	1038.7	1
303.15	0.1178	0.4951	993.28	1.02
303.15	0.1391	0.4831	994.87	1.02
303.15	0.1625	0.4636	996.01	1.02
303.15	0.1808	0.4509	997.09	1.02
303.15	0.2147	0.4324	999.42	1.02
303.15	0.2377	0.4147	1000.5	1
303.15	0.2565	0.4026	1001.6	1
303.15	0.2783	0.382	1002.4	1
303.15	0.2939	0.3754	1003.5	1
303.15	0.3151	0.3595	1004.6	1
303.15	0.3357	0.3481	1005.8	1
303.15	0.3609	0.3361	1007.4	1
303.15	0.381	0.325	1008.6	1
303.15	0.4009	0.314	1009.8	1
303.15	0.4269	0.3014	1011.4	1
303.15	0.4496	0.2869	1012.6	1
303.15	0.4687	0.2763	1013.6	1
303.15	0.4898	0.2625	1014.6	1
303.15	0.5084	0.2555	1015.9	1
303.15	0.5265	0.2439	1016.8	1
303.15	0.5421	0.2348	1017.6	1
303.15	0.5674	0.225	1019.3	1
303.15	0.5836	0.2128	1019.9	1
303.15	0.6058	0.202	1021.3	1
303.15	0.6201	0.19	1021.8	1
303.15	0.6525	0.18	1024.5	1
303.15	0.6751	0.1747	1026.2	1
303.15	0.7194	0.1502	1028.9	1
303.15	0.7312	0.1454	1029.8	1
303.15	0.7504	0.1328	1030.9	1
303.15	0.7665	0.1255	1032.3	1
303.15	0.7789	0.1187	1033.1	1
308.15	0.1178	0.4951	988.64	1.02
308.15	0.1391	0.4831	990.21	1.02
308.15	0.1625	0.4636	991.36	1.02
308.15	0.1808	0.4509	992.44	1.02
308.15	0.2147	0.4324	994.73	1.02
308.15	0.2377	0.4147	995.88	1.02
308.15	0.2565	0.4026	996.96	1.02
308.15	0.2783	0.382	997.77	1.02
308.15	0.2939	0.3754	998.87	1.02
308.15	0.3151	0.3595	999.9	1.02
308.15	0.3357	0.3481	1001.1	1
308.15	0.3609	0.3361	1002.7	1
308.15	0.381	0.325	1003.8	1
308.15	0.4009	0.314	1005	1
308.15	0.4269	0.3014	1006.5	1
308.15	0.4496	0.2869	1007.7	1
308.15	0.4687	0.2763	1008.7	1
308.15	0.4898	0.2625	1009.7	1
308.15	0.5084	0.2555	1010.9	1
308.15	0.5265	0.2439	1011.8	1
308.15	0.5421	0.2348	1012.6	1
308.15	0.5674	0.225	1014.2	1
308.15	0.5836	0.2128	1014.9	1
308.15	0.6058	0.202	1016.2	1
308.15	0.6201	0.19	1016.4	1
308.15	0.6525	0.18	1019.2	1
308.15	0.6751	0.1747	1020.8	1
308.15	0.7194	0.1502	1023.5	1
308.15	0.7312	0.1454	1024.3	1
308.15	0.7504	0.1328	1025.4	1
308.15	0.7665	0.1255	1026.7	1
308.15	0.7789	0.1187	1027.5	1

System: 1,3-dioxolane + N-methylpyrrolidone + cycloheptanone; phases: Liquid
Fixed: Pressure, kPa = 100
Fixed: Frequency, MHz = 3
Property: Speed of sound, m/s (Liquid); method: Single path-length method
Temperature, K	Mole fraction of 1,3-dioxolane	Mole fraction of N-methylpyrrolidone	Speed of sound, m/s	uncertainty
293.15	0.1178	0.4951	1537	1.4
293.15	0.1391	0.4831	1534.1	1.4
293.15	0.1625	0.4636	1530.1	1.4
293.15	0.1808	0.4509	1527	1.4
293.15	0.2147	0.4324	1521.7	1.4
293.15	0.2377	0.4147	1517.1	1.4
293.15	0.2565	0.4026	1513.7	1.4
293.15	0.2783	0.382	1508.4	1.4
293.15	0.2939	0.3754	1505.8	1.4
293.15	0.3151	0.3595	1500.8	1.4
293.15	0.3357	0.3481	1496.9	1.4
293.15	0.3609	0.3361	1492.1	1.4
293.15	0.381	0.325	1487.8	1.4
293.15	0.4009	0.314	1483.7	1.4
293.15	0.4269	0.3014	1478.5	1.4
293.15	0.4496	0.2869	1473.2	1.4
293.15	0.4687	0.2763	1469	1.4
293.15	0.4898	0.2625	1463.9	1.4
293.15	0.5084	0.2555	1460.5	1.4
293.15	0.5265	0.2439	1456	1.4
293.15	0.5421	0.2348	1452.5	1.4
293.15	0.5674	0.225	1447.7	1.4
293.15	0.5836	0.2128	1443.5	1.4
293.15	0.6058	0.202	1438.9	1.4
293.15	0.6201	0.19	1435	1.4
293.15	0.6525	0.18	1429.2	1.4
293.15	0.6751	0.1747	1425.3	1.4
293.15	0.7194	0.1502	1415.7	1.4
293.15	0.7312	0.1454	1413.4	1.4
293.15	0.7504	0.1328	1409	1.4
293.15	0.7665	0.1255	1405.8	1.4
293.15	0.7789	0.1187	1403.2	1.4
298.15	0.1178	0.4951	1514.6	1.4
298.15	0.1391	0.4831	1512	1.4
298.15	0.1625	0.4636	1508.1	1.4
298.15	0.1808	0.4509	1505.2	1.4
298.15	0.2147	0.4324	1500	1.4
298.15	0.2377	0.4147	1495.4	1.4
298.15	0.2565	0.4026	1492.2	1.4
298.15	0.2783	0.382	1486.7	1.4
298.15	0.2939	0.3754	1484	1.4
298.15	0.3151	0.3595	1479.3	1.4
298.15	0.3357	0.3481	1475.2	1.4
298.15	0.3609	0.3361	1470.5	1.4
298.15	0.381	0.325	1466.3	1.4
298.15	0.4009	0.314	1462	1.4
298.15	0.4269	0.3014	1457	1.4
298.15	0.4496	0.2869	1451.5	1.4
298.15	0.4687	0.2763	1447.3	1.4
298.15	0.4898	0.2625	1442.1	1.4
298.15	0.5084	0.2555	1438.6	1.4
298.15	0.5265	0.2439	1434.2	1.4
298.15	0.5421	0.2348	1430.5	1.4
298.15	0.5674	0.225	1425.9	1.4
298.15	0.5836	0.2128	1421.5	1.4
298.15	0.6058	0.202	1416.8	1.4
298.15	0.6201	0.19	1412.7	1.4
298.15	0.6525	0.18	1407.2	1.4
298.15	0.6751	0.1747	1403.4	1.4
298.15	0.7194	0.1502	1393.6	1.4
298.15	0.7312	0.1454	1391.3	1.4
298.15	0.7504	0.1328	1386.9	1.4
298.15	0.7665	0.1255	1383.5	1.4
298.15	0.7789	0.1187	1380.9	1.4
303.15	0.1178	0.4951	1492.6	1.4
303.15	0.1391	0.4831	1490.1	1.4
303.15	0.1625	0.4636	1486.4	1.4
303.15	0.1808	0.4509	1483.5	1.4
303.15	0.2147	0.4324	1478.5	1.4
303.15	0.2377	0.4147	1473.9	1.4
303.15	0.2565	0.4026	1470.8	1.4
303.15	0.2783	0.382	1465.1	1.4
303.15	0.2939	0.3754	1462.6	1.4
303.15	0.3151	0.3595	1457.7	1.4
303.15	0.3357	0.3481	1453.5	1.4
303.15	0.3609	0.3361	1449	1.4
303.15	0.381	0.325	1444.8	1.4
303.15	0.4009	0.314	1440.5	1.4
303.15	0.4269	0.3014	1435.5	1.4
303.15	0.4496	0.2869	1429.9	1.4
303.15	0.4687	0.2763	1425.6	1.4
303.15	0.4898	0.2625	1420.3	1.4
303.15	0.5084	0.2555	1417	1.4
303.15	0.5265	0.2439	1412.4	1.4
303.15	0.5421	0.2348	1408.8	1.4
303.15	0.5674	0.225	1404.1	1.4
303.15	0.5836	0.2128	1399.6	1.4
303.15	0.6058	0.202	1394.9	1.4
303.15	0.6201	0.19	1390.7	1.4
303.15	0.6525	0.18	1385.3	1.4
303.15	0.6751	0.1747	1381.7	1.4
303.15	0.7194	0.1502	1371.8	1.4
303.15	0.7312	0.1454	1369.5	1.4
303.15	0.7504	0.1328	1365	1.4
303.15	0.7665	0.1255	1361.6	1.4
303.15	0.7789	0.1187	1359	1.4
308.15	0.1178	0.4951	1469.7	1.4
308.15	0.1391	0.4831	1467.6	1.4
308.15	0.1625	0.4636	1464	1.4
308.15	0.1808	0.4509	1461.3	1.4
308.15	0.2147	0.4324	1456.5	1.4
308.15	0.2377	0.4147	1452	1.4
308.15	0.2565	0.4026	1448.9	1.4
308.15	0.2783	0.382	1443.1	1.4
308.15	0.2939	0.3754	1440.7	1.4
308.15	0.3151	0.3595	1435.7	1.4
308.15	0.3357	0.3481	1431.7	1.4
308.15	0.3609	0.3361	1427.2	1.4
308.15	0.381	0.325	1422.9	1.4
308.15	0.4009	0.314	1418.8	1.4
308.15	0.4269	0.3014	1413.7	1.4
308.15	0.4496	0.2869	1408	1.4
308.15	0.4687	0.2763	1403.8	1.4
308.15	0.4898	0.2625	1398.3	1.4
308.15	0.5084	0.2555	1395.2	1.4
308.15	0.5265	0.2439	1390.5	1.4
308.15	0.5421	0.2348	1386.7	1.4
308.15	0.5674	0.225	1382.3	1.4
308.15	0.5836	0.2128	1377.5	1.4
308.15	0.6058	0.202	1372.9	1.4
308.15	0.6201	0.19	1368.5	1.4
308.15	0.6525	0.18	1363.3	1.4
308.15	0.6751	0.1747	1359.9	1.4
308.15	0.7194	0.1502	1349.9	1.4
308.15	0.7312	0.1454	1347.6	1.4
308.15	0.7504	0.1328	1343	1.4
308.15	0.7665	0.1255	1339.6	1.4
308.15	0.7789	0.1187	1336.9	1.4

System: 1,3-dioxolane + 1,4-dioxane + cyclohexanone; phases: Liquid
Fixed: Pressure, kPa = 100
Property: Mass density, kg/m3 (Liquid); method: Vibrating tube method
Temperature, K	Mole fraction of 1,3-dioxolane	Mole fraction of 1,4-dioxane	Mass density, kg/m3	uncertainty
293.15	0.0974	0.5025	988.93	1.01
293.15	0.1165	0.4921	989.46	1.01
293.15	0.1374	0.4801	990.08	1.01
293.15	0.1542	0.4712	990.78	1.01
293.15	0.1808	0.4511	992.1	1.01
293.15	0.2211	0.4315	993.62	1.01
293.15	0.2389	0.4258	995.02	1.01
293.15	0.2584	0.4085	995.42	1.01
293.15	0.2783	0.3981	996.74	1.01
293.15	0.2941	0.3844	996.97	1.01
293.15	0.3189	0.3641	997.82	1.01
293.15	0.3358	0.3541	998.52	1.01
293.15	0.3612	0.3361	999.6	1.01
293.15	0.3811	0.3241	1000.8	1
293.15	0.4013	0.3152	1002.7	1
293.15	0.4269	0.3014	1004.9	1
293.15	0.4474	0.2874	1006	1
293.15	0.4676	0.2761	1007.6	1
293.15	0.5046	0.2577	1011.3	1
293.15	0.5265	0.2439	1012.9	1
293.15	0.5461	0.2344	1015	1
293.15	0.5677	0.2214	1016.8	1
293.15	0.5836	0.2115	1018.1	1
293.15	0.6041	0.2011	1020.3	1
293.15	0.6212	0.1965	1022.4	1
293.15	0.6501	0.1785	1025.5	1
293.15	0.6741	0.1644	1027.9	1
293.15	0.6931	0.1514	1029.4	1
293.15	0.7145	0.1402	1031.8	1
293.15	0.7541	0.1232	1036.4	1
293.15	0.7665	0.1101	1037.3	1
293.15	0.7841	0.1015	1039.4	1
298.15	0.0974	0.5025	984.3	1.01
298.15	0.1165	0.4921	984.86	1.01
298.15	0.1374	0.4801	985.55	1.01
298.15	0.1542	0.4712	986.24	1.01
298.15	0.1808	0.4511	987.54	1.01
298.15	0.2211	0.4315	989.16	1.01
298.15	0.2389	0.4258	990.8	1.01
298.15	0.2584	0.4085	991.22	1.01
298.15	0.2783	0.3981	992.33	1.01
298.15	0.2941	0.3844	992.55	1.01
298.15	0.3189	0.3641	993.45	1.01
298.15	0.3358	0.3541	994.1	1.01
298.15	0.3612	0.3361	995.16	1.01
298.15	0.3811	0.3241	996.4	1.01
298.15	0.4013	0.3152	998.31	1.01
298.15	0.4269	0.3014	1000.3	1
298.15	0.4474	0.2874	1001.4	1
298.15	0.4676	0.2761	1003.1	1
298.15	0.5046	0.2577	1006.6	1
298.15	0.5265	0.2439	1008.2	1
298.15	0.5461	0.2344	1010.3	1
298.15	0.5677	0.2214	1012	1
298.15	0.5836	0.2115	1013.3	1
298.15	0.6041	0.2011	1015.5	1
298.15	0.6212	0.1965	1017.5	1
298.15	0.6501	0.1785	1020.6	1
298.15	0.6741	0.1644	1022.8	1
298.15	0.6931	0.1514	1024.3	1
298.15	0.7145	0.1402	1026.7	1
298.15	0.7541	0.1232	1031.2	1
298.15	0.7665	0.1101	1032	1
298.15	0.7841	0.1015	1034.1	1
303.15	0.0974	0.5025	979.54	1.01
303.15	0.1165	0.4921	980.16	1.01
303.15	0.1374	0.4801	980.87	1.01
303.15	0.1542	0.4712	981.63	1.01
303.15	0.1808	0.4511	982.91	1.01
303.15	0.2211	0.4315	984.63	1.01
303.15	0.2389	0.4258	986.25	1.01
303.15	0.2584	0.4085	986.68	1.01
303.15	0.2783	0.3981	987.8	1.01
303.15	0.2941	0.3844	988	1.01
303.15	0.3189	0.3641	988.84	1.01
303.15	0.3358	0.3541	989.55	1.01
303.15	0.3612	0.3361	990.58	1.01
303.15	0.3811	0.3241	991.81	1.01
303.15	0.4013	0.3152	993.71	1.01
303.15	0.4269	0.3014	995.72	1.01
303.15	0.4474	0.2874	996.78	1.01
303.15	0.4676	0.2761	998.37	1.01
303.15	0.5046	0.2577	1001.8	1
303.15	0.5265	0.2439	1003.3	1
303.15	0.5461	0.2344	1005.3	1
303.15	0.5677	0.2214	1007	1
303.15	0.5836	0.2115	1008.2	1
303.15	0.6041	0.2011	1010.3	1
303.15	0.6212	0.1965	1012.3	1
303.15	0.6501	0.1785	1015.3	1
303.15	0.6741	0.1644	1017.4	1
303.15	0.6931	0.1514	1018.9	1
303.15	0.7145	0.1402	1021.1	1
303.15	0.7541	0.1232	1025.6	1
303.15	0.7665	0.1101	1026.3	1
303.15	0.7841	0.1015	1028.3	1
308.15	0.0974	0.5025	974.78	1.01
308.15	0.1165	0.4921	975.45	1.01
308.15	0.1374	0.4801	976.21	1.01
308.15	0.1542	0.4712	977	1.01
308.15	0.1808	0.4511	978.42	1.01
308.15	0.2211	0.4315	980.09	1.01
308.15	0.2389	0.4258	981.73	1.01
308.15	0.2584	0.4085	982.21	1.01
308.15	0.2783	0.3981	983.28	1.01
308.15	0.2941	0.3844	983.52	1.01
308.15	0.3189	0.3641	984.38	1.01
308.15	0.3358	0.3541	985.04	1.01
308.15	0.3612	0.3361	986.06	1.01
308.15	0.3811	0.3241	987.27	1.01
308.15	0.4013	0.3152	989.13	1.01
308.15	0.4269	0.3014	991.1	1.01
308.15	0.4474	0.2874	992.13	1.01
308.15	0.4676	0.2761	993.67	1.01
308.15	0.5046	0.2577	997.04	1.01
308.15	0.5265	0.2439	998.53	1.01
308.15	0.5461	0.2344	1000.4	1
308.15	0.5677	0.2214	1002.1	1
308.15	0.5836	0.2115	1003.2	1
308.15	0.6041	0.2011	1005.3	1
308.15	0.6212	0.1965	1007.2	1
308.15	0.6501	0.1785	1010	1
308.15	0.6741	0.1644	1012.1	1
308.15	0.6931	0.1514	1013.5	1
308.15	0.7145	0.1402	1015.7	1
308.15	0.7541	0.1232	1019.9	1
308.15	0.7665	0.1101	1020.7	1
308.15	0.7841	0.1015	1022.7	1

System: 1,3-dioxolane + 1,4-dioxane + cyclohexanone; phases: Liquid
Fixed: Pressure, kPa = 100
Fixed: Frequency, MHz = 3
Property: Speed of sound, m/s (Liquid); method: Single path-length method
Temperature, K	Mole fraction of 1,3-dioxolane	Mole fraction of 1,4-dioxane	Speed of sound, m/s	uncertainty
293.15	0.0974	0.5025	1407.1	1.3
293.15	0.1165	0.4921	1409.2	1.3
293.15	0.1374	0.4801	1411.2	1.3
293.15	0.1542	0.4712	1412.5	1.3
293.15	0.1808	0.4511	1414.3	1.3
293.15	0.2211	0.4315	1416.2	1.3
293.15	0.2389	0.4258	1416.7	1.3
293.15	0.2584	0.4085	1417.3	1.3
293.15	0.2783	0.3981	1417.7	1.3
293.15	0.2941	0.3844	1418.3	1.3
293.15	0.3189	0.3641	1419	1.3
293.15	0.3358	0.3541	1418.7	1.3
293.15	0.3612	0.3361	1418.8	1.3
293.15	0.3811	0.3241	1418.2	1.3
293.15	0.4013	0.3152	1416.8	1.3
293.15	0.4269	0.3014	1415.3	1.3
293.15	0.4474	0.2874	1414.6	1.3
293.15	0.4676	0.2761	1413.2	1.3
293.15	0.5046	0.2577	1409.9	1.3
293.15	0.5265	0.2439	1408.4	1.3
293.15	0.5461	0.2344	1406.4	1.3
293.15	0.5677	0.2214	1404.6	1.3
293.15	0.5836	0.2115	1403.2	1.3
293.15	0.6041	0.2011	1401	1.3
293.15	0.6212	0.1965	1399	1.3
293.15	0.6501	0.1785	1395.6	1.3
293.15	0.6741	0.1644	1393.1	1.3
293.15	0.6931	0.1514	1391.4	1.3
293.15	0.7145	0.1402	1388.9	1.3
293.15	0.7541	0.1232	1383.8	1.3
293.15	0.7665	0.1101	1382.5	1.3
293.15	0.7841	0.1015	1381	1.3
298.15	0.0974	0.5025	1388.5	1.3
298.15	0.1165	0.4921	1390.5	1.3
298.15	0.1374	0.4801	1392.4	1.3
298.15	0.1542	0.4712	1393.7	1.3
298.15	0.1808	0.4511	1395	1.3
298.15	0.2211	0.4315	1397.2	1.3
298.15	0.2389	0.4258	1397.4	1.3
298.15	0.2584	0.4085	1397.9	1.3
298.15	0.2783	0.3981	1398.4	1.3
298.15	0.2941	0.3844	1399.1	1.3
298.15	0.3189	0.3641	1399.3	1.3
298.15	0.3358	0.3541	1399.4	1.3
298.15	0.3612	0.3361	1399.4	1.3
298.15	0.3811	0.3241	1398.6	1.3
298.15	0.4013	0.3152	1397.2	1.3
298.15	0.4269	0.3014	1395.5	1.3
298.15	0.4474	0.2874	1394.8	1.3
298.15	0.4676	0.2761	1393.3	1.3
298.15	0.5046	0.2577	1389.8	1.3
298.15	0.5265	0.2439	1388.1	1.3
298.15	0.5461	0.2344	1386	1.3
298.15	0.5677	0.2214	1384.1	1.3
298.15	0.5836	0.2115	1382.7	1.3
298.15	0.6041	0.2011	1380.3	1.3
298.15	0.6212	0.1965	1378.2	1.3
298.15	0.6501	0.1785	1374.6	1.3
298.15	0.6741	0.1644	1372.1	1.3
298.15	0.6931	0.1514	1370.3	1.3
298.15	0.7145	0.1402	1367.7	1.3
298.15	0.7541	0.1232	1362.7	1.3
298.15	0.7665	0.1101	1361.1	1.3
298.15	0.7841	0.1015	1359.6	1.3
303.15	0.0974	0.5025	1368	1.3
303.15	0.1165	0.4921	1370	1.3
303.15	0.1374	0.4801	1371.9	1.3
303.15	0.1542	0.4712	1373.1	1.3
303.15	0.1808	0.4511	1374.4	1.3
303.15	0.2211	0.4315	1376.4	1.3
303.15	0.2389	0.4258	1376.6	1.3
303.15	0.2584	0.4085	1377	1.3
303.15	0.2783	0.3981	1377.4	1.3
303.15	0.2941	0.3844	1378.1	1.3
303.15	0.3189	0.3641	1378.5	1.3
303.15	0.3358	0.3541	1378.4	1.3
303.15	0.3612	0.3361	1378.4	1.3
303.15	0.3811	0.3241	1377.6	1.3
303.15	0.4013	0.3152	1376.1	1.3
303.15	0.4269	0.3014	1374.3	1.3
303.15	0.4474	0.2874	1373.6	1.3
303.15	0.4676	0.2761	1372.1	1.3
303.15	0.5046	0.2577	1368.5	1.3
303.15	0.5265	0.2439	1366.9	1.3
303.15	0.5461	0.2344	1364.6	1.3
303.15	0.5677	0.2214	1362.7	1.3
303.15	0.5836	0.2115	1361.3	1.3
303.15	0.6041	0.2011	1358.8	1.3
303.15	0.6212	0.1965	1357.2	1.3
303.15	0.6501	0.1785	1353.1	1.3
303.15	0.6741	0.1644	1350.5	1.3
303.15	0.6931	0.1514	1348.7	1.3
303.15	0.7145	0.1402	1346.1	1.3
303.15	0.7541	0.1232	1340.9	1.3
303.15	0.7665	0.1101	1339.5	1.3
303.15	0.7841	0.1015	1338	1.3
308.15	0.0974	0.5025	1347.5	1.3
308.15	0.1165	0.4921	1349.4	1.3
308.15	0.1374	0.4801	1351.3	1.3
308.15	0.1542	0.4712	1352.5	1.3
308.15	0.1808	0.4511	1353.6	1.3
308.15	0.2211	0.4315	1355.7	1.3
308.15	0.2389	0.4258	1355.8	1.3
308.15	0.2584	0.4085	1356.2	1.3
308.15	0.2783	0.3981	1356.6	1.3
308.15	0.2941	0.3844	1357.2	1.3
308.15	0.3189	0.3641	1357.5	1.3
308.15	0.3358	0.3541	1357.5	1.3
308.15	0.3612	0.3361	1357.4	1.3
308.15	0.3811	0.3241	1356.7	1.3
308.15	0.4013	0.3152	1354.9	1.3
308.15	0.4269	0.3014	1353.2	1.3
308.15	0.4474	0.2874	1352.3	1.3
308.15	0.4676	0.2761	1350.9	1.3
308.15	0.5046	0.2577	1347	1.3
308.15	0.5265	0.2439	1345.5	1.3
308.15	0.5461	0.2344	1343.2	1.3
308.15	0.5677	0.2214	1341.1	1.3
308.15	0.5836	0.2115	1339.8	1.3
308.15	0.6041	0.2011	1337.2	1.3
308.15	0.6212	0.1965	1335.4	1.3
308.15	0.6501	0.1785	1331.4	1.3
308.15	0.6741	0.1644	1328.7	1.3
308.15	0.6931	0.1514	1327	1.3
308.15	0.7145	0.1402	1324.3	1.3
308.15	0.7541	0.1232	1319.1	1.3
308.15	0.7665	0.1101	1317.7	1.3
308.15	0.7841	0.1015	1316	1.3

System: 1,3-dioxolane + 1,4-dioxane + cycloheptanone; phases: Liquid
Fixed: Pressure, kPa = 100
Property: Mass density, kg/m3 (Liquid); method: Vibrating tube method
Temperature, K	Mole fraction of 1,3-dioxolane	Mole fraction of 1,4-dioxane	Mass density, kg/m3	uncertainty
293.15	0.0751	0.5142	995.46	1.02
293.15	0.0962	0.4951	996.91	1.02
293.15	0.1156	0.4831	998.63	1.02
293.15	0.1342	0.4762	1000.6	1
293.15	0.1601	0.4601	1002.7	1
293.15	0.1874	0.4412	1004.7	1
293.15	0.2045	0.4265	1005.7	1
293.15	0.2213	0.4125	1006.7	1
293.15	0.2412	0.4052	1008.5	1
293.15	0.2688	0.3974	1011.2	1
293.15	0.2912	0.382	1012.6	1
293.15	0.3384	0.3595	1016.1	1
293.15	0.3562	0.3341	1017	1
293.15	0.3742	0.3285	1017.7	1
293.15	0.4056	0.3017	1019.1	1
293.15	0.4255	0.2942	1020.6	1
293.15	0.4671	0.2744	1023.5	1
293.15	0.4871	0.2601	1024.4	1
293.15	0.5011	0.2472	1024.6	1
293.15	0.5562	0.2211	1028.5	1
293.15	0.5781	0.2145	1030.3	1
293.15	0.5836	0.2128	1030.7	1
293.15	0.6058	0.202	1032.2	1
293.15	0.6201	0.19	1032.7	1
293.15	0.6452	0.1745	1034	1
293.15	0.6601	0.1642	1034.7	1
293.15	0.6871	0.1432	1035.9	1
293.15	0.7245	0.1241	1038	1
293.15	0.7458	0.1174	1039.7	1
293.15	0.7611	0.1044	1040.4	1
293.15	0.7785	0.0942	1041.5	1
293.15	0.7984	0.0842	1043.1	1
298.15	0.0751	0.5142	990.81	1.02
298.15	0.0962	0.4951	992.33	1.02
298.15	0.1156	0.4831	994.12	1.02
298.15	0.1342	0.4762	996.12	1.02
298.15	0.1601	0.4601	998.32	1.02
298.15	0.1874	0.4412	1000.3	1
298.15	0.2045	0.4265	1001.4	1
298.15	0.2213	0.4125	1002.4	1
298.15	0.2412	0.4052	1004.2	1
298.15	0.2688	0.3974	1006.9	1
298.15	0.2912	0.382	1008.3	1
298.15	0.3384	0.3595	1011.9	1
298.15	0.3562	0.3341	1012.6	1
298.15	0.3742	0.3285	1013.5	1
298.15	0.4056	0.3017	1014.9	1
298.15	0.4255	0.2942	1016.4	1
298.15	0.4671	0.2744	1019.2	1
298.15	0.4871	0.2601	1020.1	1
298.15	0.5011	0.2472	1020.6	1
298.15	0.5562	0.2211	1024.1	1
298.15	0.5781	0.2145	1025.8	1
298.15	0.5836	0.2128	1026.2	1
298.15	0.6058	0.202	1027.6	1
298.15	0.6201	0.19	1028.1	1
298.15	0.6452	0.1745	1029.4	1
298.15	0.6601	0.1642	1030	1
298.15	0.6871	0.1432	1031.1	1
298.15	0.7245	0.1241	1033.2	1
298.15	0.7458	0.1174	1035.1	1
298.15	0.7611	0.1044	1035.5	1
298.15	0.7785	0.0942	1036.5	1
298.15	0.7984	0.0842	1037.9	1
303.15	0.0751	0.5142	986.02	1.02
303.15	0.0962	0.4951	987.61	1.02
303.15	0.1156	0.4831	989.45	1.02
303.15	0.1342	0.4762	991.48	1.02
303.15	0.1601	0.4601	993.7	1.02
303.15	0.1874	0.4412	995.82	1.02
303.15	0.2045	0.4265	996.87	1.02
303.15	0.2213	0.4125	997.94	1.02
303.15	0.2412	0.4052	999.76	1.02
303.15	0.2688	0.3974	1002.3	1
303.15	0.2912	0.382	1003.8	1
303.15	0.3384	0.3595	1007.3	1
303.15	0.3562	0.3341	1008.1	1
303.15	0.3742	0.3285	1009	1
303.15	0.4056	0.3017	1010.4	1
303.15	0.4255	0.2942	1011.8	1
303.15	0.4671	0.2744	1014.6	1
303.15	0.4871	0.2601	1015.5	1
303.15	0.5011	0.2472	1016.4	1
303.15	0.5562	0.2211	1019.3	1
303.15	0.5781	0.2145	1020.9	1
303.15	0.5836	0.2128	1021.3	1
303.15	0.6058	0.202	1022.7	1
303.15	0.6201	0.19	1023.1	1
303.15	0.6452	0.1745	1024.4	1
303.15	0.6601	0.1642	1025	1
303.15	0.6871	0.1432	1026.2	1
303.15	0.7245	0.1241	1028.1	1
303.15	0.7458	0.1174	1029.8	1
303.15	0.7611	0.1044	1030.2	1
303.15	0.7785	0.0942	1031.2	1
303.15	0.7984	0.0842	1032.5	1
308.15	0.0751	0.5142	981.23	1.02
308.15	0.0962	0.4951	982.89	1.02
308.15	0.1156	0.4831	984.76	1.02
308.15	0.1342	0.4762	986.81	1.02
308.15	0.1601	0.4601	989.08	1.02
308.15	0.1874	0.4412	991.22	1.02
308.15	0.2045	0.4265	992.31	1.02
308.15	0.2213	0.4125	993.4	1.02
308.15	0.2412	0.4052	995.23	1.02
308.15	0.2688	0.3974	997.77	1.02
308.15	0.2912	0.382	999.23	1.02
308.15	0.3384	0.3595	1002.6	1
308.15	0.3562	0.3341	1003.7	1
308.15	0.3742	0.3285	1004.4	1
308.15	0.4056	0.3017	1005.9	1
308.15	0.4255	0.2942	1007.3	1
308.15	0.4671	0.2744	1009.9	1
308.15	0.4871	0.2601	1010.8	1
308.15	0.5011	0.2472	1012.2	1
308.15	0.5562	0.2211	1014.5	1
308.15	0.5781	0.2145	1016	1
308.15	0.5836	0.2128	1016.4	1
308.15	0.6058	0.202	1017.7	1
308.15	0.6201	0.19	1018.1	1
308.15	0.6452	0.1745	1019.3	1
308.15	0.6601	0.1642	1019.9	1
308.15	0.6871	0.1432	1021.2	1
308.15	0.7245	0.1241	1022.8	1
308.15	0.7458	0.1174	1024.5	1
308.15	0.7611	0.1044	1024.9	1
308.15	0.7785	0.0942	1025.7	1
308.15	0.7984	0.0842	1027	1

System: 1,3-dioxolane + 1,4-dioxane + cycloheptanone; phases: Liquid
Fixed: Pressure, kPa = 100
Fixed: Frequency, MHz = 3
Property: Speed of sound, m/s (Liquid); method: Single path-length method
Temperature, K	Mole fraction of 1,3-dioxolane	Mole fraction of 1,4-dioxane	Speed of sound, m/s	uncertainty
293.15	0.0751	0.5142	1418.9	1.4
293.15	0.0962	0.4951	1420.1	1.4
293.15	0.1156	0.4831	1420.5	1.4
293.15	0.1342	0.4762	1420.9	1.4
293.15	0.1601	0.4601	1421.3	1.4
293.15	0.1874	0.4412	1421.5	1.4
293.15	0.2045	0.4265	1421.4	1.4
293.15	0.2213	0.4125	1421	1.4
293.15	0.2412	0.4052	1420.4	1.4
293.15	0.2688	0.3974	1419.2	1.4
293.15	0.2912	0.382	1418.7	1.4
293.15	0.3384	0.3595	1416.6	1.4
293.15	0.3562	0.3341	1415.4	1.4
293.15	0.3742	0.3285	1414.8	1.4
293.15	0.4056	0.3017	1412.8	1.4
293.15	0.4255	0.2942	1411.5	1.4
293.15	0.4671	0.2744	1408.5	1.4
293.15	0.4871	0.2601	1406.9	1.4
293.15	0.5011	0.2472	1405.9	1.4
293.15	0.5562	0.2211	1401.2	1.4
293.15	0.5781	0.2145	1399.4	1.4
293.15	0.5836	0.2128	1398.9	1.4
293.15	0.6058	0.202	1397	1.4
293.15	0.6201	0.19	1395.8	1.4
293.15	0.6452	0.1745	1393.5	1.4
293.15	0.6601	0.1642	1392.2	1.4
293.15	0.6871	0.1432	1389.8	1.4
293.15	0.7245	0.1241	1386.8	1.4
293.15	0.7458	0.1174	1385	1.4
293.15	0.7611	0.1044	1383.8	1.4
293.15	0.7785	0.0942	1382.4	1.4
293.15	0.7984	0.0842	1380.6	1.4
298.15	0.0751	0.5142	1397.2	1.4
298.15	0.0962	0.4951	1398.3	1.4
298.15	0.1156	0.4831	1398.7	1.4
298.15	0.1342	0.4762	1399	1.4
298.15	0.1601	0.4601	1399.5	1.4
298.15	0.1874	0.4412	1399.4	1.4
298.15	0.2045	0.4265	1399.5	1.4
298.15	0.2213	0.4125	1399	1.4
298.15	0.2412	0.4052	1398.3	1.4
298.15	0.2688	0.3974	1397.3	1.4
298.15	0.2912	0.382	1396.6	1.4
298.15	0.3384	0.3595	1394.4	1.4
298.15	0.3562	0.3341	1393.2	1.4
298.15	0.3742	0.3285	1392.5	1.4
298.15	0.4056	0.3017	1390.5	1.4
298.15	0.4255	0.2942	1389.2	1.4
298.15	0.4671	0.2744	1386.1	1.4
298.15	0.4871	0.2601	1384.5	1.4
298.15	0.5011	0.2472	1383.1	1.4
298.15	0.5562	0.2211	1378.6	1.4
298.15	0.5781	0.2145	1376.8	1.4
298.15	0.5836	0.2128	1376.4	1.4
298.15	0.6058	0.202	1374.4	1.4
298.15	0.6201	0.19	1373.1	1.4
298.15	0.6452	0.1745	1370.9	1.4
298.15	0.6601	0.1642	1369.6	1.4
298.15	0.6871	0.1432	1367.1	1.4
298.15	0.7245	0.1241	1364	1.4
298.15	0.7458	0.1174	1362.1	1.4
298.15	0.7611	0.1044	1361	1.4
298.15	0.7785	0.0942	1359.6	1.4
298.15	0.7984	0.0842	1358	1.4
303.15	0.0751	0.5142	1375.4	1.4
303.15	0.0962	0.4951	1376.5	1.4
303.15	0.1156	0.4831	1376.9	1.4
303.15	0.1342	0.4762	1377.3	1.4
303.15	0.1601	0.4601	1377.6	1.4
303.15	0.1874	0.4412	1377.5	1.4
303.15	0.2045	0.4265	1377.6	1.4
303.15	0.2213	0.4125	1377.2	1.4
303.15	0.2412	0.4052	1376.4	1.4
303.15	0.2688	0.3974	1375.4	1.4
303.15	0.2912	0.382	1374.6	1.4
303.15	0.3384	0.3595	1372.5	1.4
303.15	0.3562	0.3341	1371.2	1.4
303.15	0.3742	0.3285	1370.6	1.4
303.15	0.4056	0.3017	1368.3	1.4
303.15	0.4255	0.2942	1367	1.4
303.15	0.4671	0.2744	1363.9	1.4
303.15	0.4871	0.2601	1362.3	1.4
303.15	0.5011	0.2472	1360.7	1.4
303.15	0.5562	0.2211	1356.4	1.4
303.15	0.5781	0.2145	1354.6	1.4
303.15	0.5836	0.2128	1354.2	1.4
303.15	0.6058	0.202	1352.2	1.4
303.15	0.6201	0.19	1350.9	1.4
303.15	0.6452	0.1745	1348.5	1.4
303.15	0.6601	0.1642	1347.2	1.4
303.15	0.6871	0.1432	1344.6	1.4
303.15	0.7245	0.1241	1341.7	1.4
303.15	0.7458	0.1174	1339.8	1.4
303.15	0.7611	0.1044	1338.7	1.4
303.15	0.7785	0.0942	1337.3	1.4
303.15	0.7984	0.0842	1335.7	1.4
308.15	0.0751	0.5142	1353.4	1.4
308.15	0.0962	0.4951	1354.5	1.4
308.15	0.1156	0.4831	1354.8	1.4
308.15	0.1342	0.4762	1355.1	1.4
308.15	0.1601	0.4601	1355.5	1.4
308.15	0.1874	0.4412	1355.4	1.4
308.15	0.2045	0.4265	1355.4	1.4
308.15	0.2213	0.4125	1355	1.4
308.15	0.2412	0.4052	1354.2	1.4
308.15	0.2688	0.3974	1353.2	1.4
308.15	0.2912	0.382	1352.4	1.4
308.15	0.3384	0.3595	1350.2	1.4
308.15	0.3562	0.3341	1348.9	1.4
308.15	0.3742	0.3285	1348.3	1.4
308.15	0.4056	0.3017	1346	1.4
308.15	0.4255	0.2942	1344.7	1.4
308.15	0.4671	0.2744	1341.6	1.4
308.15	0.4871	0.2601	1339.9	1.4
308.15	0.5011	0.2472	1337.9	1.4
308.15	0.5562	0.2211	1334	1.4
308.15	0.5781	0.2145	1332.2	1.4
308.15	0.5836	0.2128	1331.8	1.4
308.15	0.6058	0.202	1329.7	1.4
308.15	0.6201	0.19	1328.4	1.4
308.15	0.6452	0.1745	1326.1	1.4
308.15	0.6601	0.1642	1324.8	1.4
308.15	0.6871	0.1432	1322.1	1.4
308.15	0.7245	0.1241	1319.2	1.4
308.15	0.7458	0.1174	1317.3	1.4
308.15	0.7611	0.1044	1316.3	1.4
308.15	0.7785	0.0942	1314.9	1.4
308.15	0.7984	0.0842	1313.3	1.4
