Measured thermophysical data. Thermodynamic study of aceclofenac solubility, distribution and sublimation
Source: J. Chem. Thermodyn., 2019, 10.1016/j.jct.2019.05.014
Compound 1: Aceclofenac, C16H13Cl2NO4, InChI=1S/C16H13Cl2NO4/c17-11-5-3-6-12(18)16(11)19-13-7-2-1-4-10(13)8-15(22)23-9-14(20)21/h1-7,19H,8-9H2,(H,20,21), purity 99.9%
Compound 2: octan-1-ol, C8H18O, InChI=1S/C8H18O/c1-2-3-4-5-6-7-8-9/h9H,2-8H2,1H3, purity 99%
Compound 3: hexane, C6H14, InChI=1S/C6H14/c1-3-5-6-4-2/h3-6H2,1-2H3, purity 97%

System: Aceclofenac; phases: Crystal, Liquid, Air at 1 atmosphere
Property: Normal melting temperature, K (Crystal); method: DTA
Normal melting temperature, K	uncertainty
425.95	0.4

System: Aceclofenac; phases: Crystal, Liquid, Air at 1 atmosphere
Property: Molar enthalpy of transition or fusion, kJ/mol (Crystal); method: DSC
Molar enthalpy of transition or fusion, kJ/mol	uncertainty
49.3	1.1

System: Aceclofenac; phases: Crystal, Gas
Property: Vapor or sublimation pressure, kPa (Crystal); method: Transpiration method
Temperature, K	Vapor or sublimation pressure, kPa	uncertainty
355.15	5.3e-06	2e-06
356.15	5.9e-06	2e-06
357.15	6.5e-06	2e-06
358.15	7.1e-06	2e-06
359.15	7.6e-06	2e-06
360.15	8.5e-06	2.1e-06
361.15	9.4e-06	2.1e-06
362.15	1.03e-05	2.1e-06
363.15	1.12e-05	2.1e-06
365.15	1.34e-05	2.1e-06
367.15	1.6e-05	2.1e-06
369.15	1.9e-05	2.2e-06
371.15	2.26e-05	2.3e-06
372.15	2.46e-05	2.3e-06

System: Aceclofenac + octan-1-ol; phases: Liquid, Crystal
Fixed: Pressure, kPa = 100
Property: Mole fraction of Aceclofenac (Liquid); method: Spectrophotometry
Temperature, K	Mole fraction of Aceclofenac	uncertainty
293.15	0.00803	0.00066
298.15	0.0108	0.00089
303.15	0.01462	0.0012
308.15	0.02009	0.00165
313.15	0.02634	0.00214

System: Aceclofenac + hexane; phases: Liquid, Crystal
Fixed: Pressure, kPa = 100
Property: Mole fraction of Aceclofenac (Liquid); method: Spectrophotometry
Temperature, K	Mole fraction of Aceclofenac	uncertainty
293.15	1.25e-05	1e-06
298.15	1.74e-05	1.4e-06
303.15	2.4e-05	2e-06
308.15	3.33e-05	2.7e-06
313.15	4.56e-05	3.7e-06
