Measured thermophysical data. Crystal structure, lattice potential energy, and thermochemical properties of a novel compound barium D-gluconate tetrahydrate
Source: J. Chem. Thermodyn., 2014, 10.1016/j.jct.2013.10.005
Compound 1: barium, Ba, InChI=1S/Ba
Compound 2: hydrogen, H2, InChI=1S/H2/h1H
Compound 3: graphite, C
Compound 4: oxygen, O2, InChI=1S/O2/c1-2
Compound 5: sodium (2R,3S,4R,5R)-2,3,4,5,6-pentahydroxyhexanoate, C6H11NaO7, InChI=1S/C6H12O7.Na/c7-1-2(8)3(9)4(10)5(11)6(12)13;/h2-5,7-11H,1H2,(H,12,13);/q;+1/p-1/t2-,3-,4+,5-;/m1./s1, purity 99%
Compound 6: barium chloride dihydrate, BaCl2H4O2, InChI=1S/Ba.2ClH.2H2O/h;2*1H;2*1H2/q+2;;;;/p-2, purity 99.5%
Compound 7: sodium chloride, ClNa, InChI=1S/ClH.Na/h1H;/q;+1/p-1
Compound 8: water, H2O, InChI=1S/H2O/h1H2
Compound 9: barium D-gluconate tetrahydrate, C12H30BaO18, InChI=1S/2C6H12O7.Ba.4H2O/c2*7-1-2(8)3(9)4(10)5(11)6(12)13;;;;;/h2*2-5,7-11H,1H2,(H,12,13);;4*1H2/q;;+2;;;;/p-2/t2*2-,3-,4+,5-;;;;;/m11...../s1

System: barium D-gluconate tetrahydrate; phases: Crystal
Property: Mass density, kg/m3 (Crystal); method: X-ray diffraction
Temperature, K	Pressure, kPa	Mass density, kg/m3	uncertainty
298	101.325	1969	10

System: sodium (2R,3S,4R,5R)-2,3,4,5,6-pentahydroxyhexanoate + water; phases: Liquid
Property: Molar enthalpy of solution, kJ/mol (Liquid); method: ISOPERIBOL
Molality, mol/kg of sodium (2R,3S,4R,5R)-2,3,4,5,6-pentahydroxyhexanoate	Pressure, kPa	Temperature, K	Molar enthalpy of solution, kJ/mol	uncertainty
0.01	101	298.15	18.936	0.517

System: sodium chloride + water; phases: Liquid
Property: Molar enthalpy of solution, kJ/mol (Liquid); method: ISOPERIBOL
Molality, mol/kg of sodium chloride	Pressure, kPa	Temperature, K	Molar enthalpy of solution, kJ/mol	uncertainty
0.01	101	298.15	4.539	0.167

Reaction: 1 barium D-gluconate tetrahydrate + -2 sodium (2R,3S,4R,5R)-2,3,4,5,6-pentahydroxyhexanoate + 2 sodium chloride + -1 barium chloride dihydrate + -2 water
Property: Molar enthalpy of reaction, kJ/mol
10.494

Reaction: 1 barium D-gluconate tetrahydrate + -1 barium + -15 hydrogen + -12 graphite + -9 oxygen
Property: Molar enthalpy of reaction, kJ/mol
-4712.85
