Measured thermophysical data. Partial molar volumes of organic solutes in water. XVI. Selected aliphatic hydroxyderivatives(aq) at T =(298 to 573) K and at pressures up to 30 MPa
Source: J. Chem. Thermodyn., 2007, 10.1016/j.jct.2006.09.013
Compound 1: 1,6-hexanediol, C6H14O2, InChI=1S/C6H14O2/c7-5-3-1-2-4-6-8/h7-8H,1-6H2, purity 99%
Compound 2: 2,2-dimethyl-1,3-propanediol, C5H12O2, InChI=1S/C5H12O2/c1-5(2,3-6)4-7/h6-7H,3-4H2,1-2H3, purity 99%
Compound 3: 2,2-bis(hydroxymethyl)-1,3-propanediol, C5H12O4, InChI=1S/C5H12O4/c6-1-5(2-7,3-8)4-9/h6-9H,1-4H2, purity 98%
Compound 4: water, H2O, InChI=1S/H2O/h1H2
Compound 5: SRS-1,2,3,4,5-pentanepentol, C5H12O5, InChI=1S/C5H12O5/c6-1-3(8)5(10)4(9)2-7/h3-10H,1-2H2/t3-,4+,5-, purity 99%

System: 1,6-hexanediol + water; phases: Liquid
Property: Mass density, kg/m3 (Liquid); method: VIBTUB:UFactor:0.25
Pressure, kPa	Temperature, K	Molality, mol/kg of 1,6-hexanediol	Mass density, kg/m3	uncertainty
330	298.17	0.04986	-0.0949	0.0081
330	298.17	0.09995	-0.1796	0.0082
330	298.17	0.19986	-0.3258	0.0082
330	298.17	0.30024	-0.4457	0.0082
330	298.17	0.39904	-0.5408	0.0083
330	298.17	0.04986	-0.0957	0.0081
330	298.17	0.09995	-0.181	0.0082
330	298.17	0.19986	-0.3292	0.0082
330	298.17	0.30024	-0.4502	0.0082
330	298.17	0.39904	-0.5435	0.0083
330	298.17	0.04986	-0.0957	0.0081
330	298.17	0.09995	-0.181	0.0082
330	298.17	0.19986	-0.3298	0.0082
330	298.17	0.30024	-0.4525	0.0082
330	298.17	0.39904	-0.544	0.0083
470	318.26	0.04986	-0.1342	0.0081
470	318.26	0.09995	-0.2657	0.0082
470	318.26	0.19986	-0.5085	0.0082
470	318.26	0.30024	-0.7379	0.0083
470	318.26	0.39904	-0.9448	0.0083
470	318.26	0.04986	-0.1345	0.0081
470	318.26	0.09995	-0.2649	0.0082
470	318.26	0.19986	-0.5086	0.0082
470	318.26	0.30024	-0.7382	0.0083
470	318.26	0.39904	-0.9442	0.0083
470	318.26	0.04986	-0.1345	0.0081
470	318.26	0.09995	-0.2662	0.0082
470	318.26	0.19986	-0.5081	0.0082
470	318.26	0.30024	-0.7377	0.0083
470	318.26	0.39904	-0.9448	0.0083
480	338.17	0.04986	-0.1749	0.0082
480	338.17	0.09995	-0.3494	0.0082
480	338.17	0.19986	-0.6792	0.0083
480	338.17	0.30024	-1.0022	0.0083
480	338.17	0.39904	-1.3051	0.0084
480	338.17	0.04986	-0.1755	0.0082
480	338.17	0.09995	-0.3491	0.0082
480	338.17	0.19986	-0.6788	0.0083
480	338.17	0.30024	-1.0017	0.0083
480	338.17	0.39904	-1.3044	0.0084
480	338.17	0.19986	-0.6795	0.0083
480	338.17	0.30024	-1.002	0.0083
480	338.17	0.39904	-1.3054	0.0084
1950	408.16	0.05989	-0.3583	0.0088
1950	408.16	0.09995	-0.5995	0.0088
1950	408.16	0.19986	-1.1827	0.009
1950	408.16	0.30024	-1.759	0.0091
1950	408.16	0.39904	-2.3012	0.0095
1950	408.16	0.05989	-0.3593	0.0088
1950	408.16	0.09995	-0.5989	0.0088
1950	408.16	0.19986	-1.1825	0.009
1950	408.16	0.30024	-1.7591	0.0091
1950	408.16	0.39904	-2.3019	0.0095
1970	473.16	0.05989	-0.4607	0.0124
1970	473.16	0.11993	-0.9118	0.0125
1970	473.16	0.17928	-1.3482	0.0126
1970	473.16	0.24036	-1.791	0.0127
1970	473.16	0.29914	-2.2003	0.0129
1970	473.16	0.05989	-0.4607	0.0124
1970	473.16	0.11993	-0.9144	0.0125
1970	473.16	0.17928	-1.3478	0.0126
1970	473.16	0.24036	-1.7903	0.0127
1970	473.16	0.29914	-2.2008	0.0129
1990	373.16	0.04986	-0.2415	0.0083
1990	373.16	0.09995	-0.484	0.0084
1990	373.16	0.19986	-0.9516	0.0085
1990	373.16	0.30024	-1.4162	0.0086
1990	373.16	0.39904	-1.8535	0.0087
1990	373.16	0.04986	-0.2412	0.0083
1990	373.16	0.09995	-0.4826	0.0084
1990	373.16	0.19986	-0.9514	0.0085
1990	373.16	0.30024	-1.4149	0.0086
1990	373.16	0.39904	-1.8537	0.0087
2020	443.15	0.05989	-0.4217	0.01
2020	443.15	0.11993	-0.8361	0.0101
2020	443.15	0.17928	-1.2367	0.0102
2020	443.15	0.24036	-1.6408	0.0103
2020	443.15	0.29914	-2.0204	0.0104
2020	443.15	0.05989	-0.4203	0.01
2020	443.15	0.11993	-0.8356	0.0101
2020	443.15	0.17928	-1.2355	0.0102
2020	443.15	0.24036	-1.6442	0.0103
2020	443.15	0.29914	-2.0213	0.0104
3020	498.17	0.05989	-0.4832	0.0156
3020	498.17	0.11993	-0.9594	0.0157
3020	498.17	0.17928	-1.4124	0.0159
3020	498.17	0.24036	-1.8729	0.016
3020	498.17	0.29914	-2.2984	0.0161
3020	498.17	0.05989	-0.4839	0.0156
3020	498.17	0.11993	-0.959	0.0157
3020	498.17	0.17928	-1.4137	0.0159
3020	498.17	0.24036	-1.8728	0.016
3020	498.17	0.29914	-2.3003	0.0161
5070	523.17	0.05989	-0.4943	0.0202
5070	523.17	0.11993	-0.9809	0.0204
5070	523.17	0.17928	-1.4429	0.0206
5070	523.17	0.24036	-1.9098	0.0208
5070	523.17	0.29914	-2.3434	0.021
6970	548.16	0.05989	-0.5017	0.0267
6970	548.16	0.11993	-0.9925	0.0269
6970	548.16	0.17928	-1.4581	0.0272
6970	548.16	0.24036	-1.9211	0.0274
6970	548.16	0.29914	-2.359	0.0276
6970	548.16	0.05989	-0.5018	0.0267
6970	548.16	0.11993	-0.9911	0.0269
6970	548.16	0.17928	-1.4581	0.0272
6970	548.16	0.24036	-1.921	0.0274
6970	548.16	0.29914	-2.3582	0.0276
10220	573.17	0.05997	-0.4912	0.0355
10220	573.17	0.12015	-0.961	0.0357
10220	573.17	0.18045	-1.4195	0.036
10220	573.17	0.2403	-1.8577	0.0363
10220	573.17	0.30176	-2.2918	0.0365
10220	573.17	0.05997	-0.4898	0.0355
10220	573.17	0.12015	-0.9631	0.0357
10220	573.17	0.18045	-1.4184	0.036
10220	573.17	0.2403	-1.8618	0.0363
10220	573.17	0.30176	-2.2939	0.0365
10220	573.17	0.05997	-0.4906	0.0355
10220	573.17	0.12015	-0.9617	0.0357
10220	573.17	0.18045	-1.4166	0.036
10220	573.17	0.2403	-1.8588	0.0363
10220	573.17	0.30176	-2.2913	0.0365
14980	298.16	0.04986	-0.1242	0.0082
14980	298.16	0.09995	-0.2407	0.0083
14980	298.16	0.19986	-0.4497	0.0084
14980	298.16	0.30024	-0.6278	0.0085
14980	298.16	0.39904	-0.769	0.0086
14980	298.16	0.04986	-0.1248	0.0082
14980	298.16	0.09995	-0.2416	0.0083
14980	298.16	0.19986	-0.4499	0.0084
14980	298.16	0.30024	-0.6291	0.0085
14980	298.16	0.39904	-0.7691	0.0086
14980	298.16	0.04986	-0.1249	0.0082
14980	298.16	0.09995	-0.2413	0.0083
14980	298.16	0.19986	-0.4502	0.0084
14980	298.16	0.30024	-0.6292	0.0085
14980	298.16	0.39904	-0.7697	0.0086
15040	373.16	0.04986	-0.2393	0.0084
15040	373.16	0.09995	-0.4788	0.0085
15040	373.16	0.19986	-0.9475	0.0088
15040	373.16	0.30024	-1.4089	0.0091
15040	373.16	0.39904	-1.8439	0.0094
15040	373.16	0.04986	-0.2395	0.0084
15040	373.16	0.09995	-0.4834	0.0086
15040	373.16	0.19986	-0.9485	0.0088
15040	373.16	0.30024	-1.4197	0.0092
15040	373.16	0.39904	-1.8446	0.0094
15120	318.26	0.04986	-0.1561	0.0082
15120	318.26	0.09995	-0.3059	0.0083
15120	318.26	0.19986	-0.5851	0.0085
15120	318.26	0.30024	-0.8478	0.0087
15120	318.26	0.39904	-1.0806	0.0088
15120	318.26	0.04986	-0.155	0.0082
15120	318.26	0.09995	-0.3059	0.0083
15120	318.26	0.19986	-0.584	0.0085
15120	318.26	0.30024	-0.8459	0.0087
15120	318.26	0.39904	-1.081	0.0088
15120	318.26	0.04986	-0.1547	0.0082
15120	318.26	0.09995	-0.3057	0.0083
15120	318.26	0.19986	-0.5843	0.0085
15120	318.26	0.30024	-0.8462	0.0087
15120	318.26	0.39904	-1.0816	0.0088
15140	338.17	0.04986	-0.1851	0.0083
15140	338.17	0.09995	-0.3692	0.0084
15140	338.17	0.19986	-0.7217	0.0086
15140	338.17	0.30024	-1.0584	0.0088
15140	338.17	0.39904	-1.3759	0.009
15140	338.17	0.04986	-0.186	0.0083
15140	338.17	0.09995	-0.3695	0.0084
15140	338.17	0.19986	-0.7187	0.0086
15140	338.17	0.30024	-1.0612	0.0088
15140	338.17	0.39904	-1.374	0.009
15390	573.18	0.05997	-0.4378	0.0355
15390	573.18	0.12015	-0.8598	0.0358
15390	573.18	0.18045	-1.2695	0.0362
15390	573.18	0.2403	-1.6629	0.0365
15390	573.18	0.30176	-2.0443	0.0368
15390	573.18	0.05997	-0.4374	0.0355
15390	573.18	0.12015	-0.8601	0.0358
15390	573.18	0.18045	-1.2693	0.0362
15390	573.18	0.2403	-1.6598	0.0365
15390	573.18	0.30176	-2.0497	0.0368
15680	473.15	0.05989	-0.4244	0.0126
15680	473.15	0.11993	-0.8445	0.0129
15680	473.15	0.17928	-1.2462	0.0132
15680	473.15	0.24036	-1.656	0.0136
15680	473.15	0.29914	-2.0324	0.0139
15680	473.15	0.05989	-0.4236	0.0126
15680	473.15	0.11993	-0.8451	0.0129
15680	473.15	0.17928	-1.2457	0.0132
15680	473.15	0.24036	-1.6557	0.0136
15680	473.15	0.29914	-2.0327	0.0139
15710	443.15	0.05989	-0.3968	0.0102
15710	443.15	0.11993	-0.7911	0.0105
15710	443.15	0.17928	-1.1696	0.0108
15710	443.15	0.24036	-1.5549	0.0111
15710	443.15	0.29914	-1.9105	0.0114
15710	443.15	0.05989	-0.3969	0.0102
15710	443.15	0.11993	-0.7909	0.0105
15710	443.15	0.17928	-1.1662	0.0108
15710	443.15	0.24036	-1.5545	0.0111
15710	443.15	0.29914	-1.9118	0.0114
15830	408.15	0.05989	-0.3481	0.0089
15830	408.15	0.09995	-0.5801	0.0091
15830	408.15	0.19986	-1.1443	0.0094
15830	408.15	0.30024	-1.7016	0.0098
15830	408.15	0.39904	-2.2247	0.0104
15830	408.15	0.05989	-0.3491	0.0089
15830	408.15	0.09995	-0.5804	0.0091
15830	408.15	0.19986	-1.1443	0.0094
15830	408.15	0.30024	-1.7017	0.0098
15830	408.15	0.39904	-2.2241	0.0104
16160	498.14	0.05989	-0.4382	0.0158
16160	498.14	0.11993	-0.869	0.0161
16160	498.14	0.17928	-1.2811	0.0165
16160	498.14	0.24036	-1.6985	0.0168
16160	498.14	0.29914	-2.086	0.0171
16160	523.16	0.05989	-0.4413	0.0204
16160	523.16	0.11993	-0.8778	0.0208
16160	523.16	0.17928	-1.2923	0.0211
16160	523.16	0.24036	-1.7113	0.0214
16160	523.16	0.29914	-2.0995	0.0218
16160	498.14	0.05989	-0.4388	0.0158
16160	498.14	0.11993	-0.8702	0.0161
16160	498.14	0.17928	-1.2815	0.0165
16160	498.14	0.24036	-1.7002	0.0168
16160	498.14	0.29914	-2.0859	0.0171
16160	523.16	0.05989	-0.443	0.0204
16160	523.16	0.11993	-0.8777	0.0208
16160	523.16	0.17928	-1.2929	0.0211
16160	523.16	0.24036	-1.7112	0.0214
16160	523.16	0.29914	-2.0991	0.0218
18170	548.17	0.06017	-0.4285	0.0269
18170	548.17	0.11993	-0.847	0.0272
18170	548.17	0.17928	-1.245	0.0276
18170	548.17	0.24036	-1.6486	0.028
18170	548.17	0.29914	-2.0203	0.0283
18170	548.17	0.06017	-0.4272	0.0269
18170	548.17	0.11993	-0.8483	0.0272
18170	548.17	0.17928	-1.2473	0.0276
18170	548.17	0.24036	-1.6481	0.028
18170	548.17	0.29914	-2.0198	0.0283
20300	573.17	0.05997	-0.4011	0.0356
20300	573.17	0.12015	-0.788	0.0359
20300	573.17	0.18045	-1.1615	0.0363
20300	573.17	0.2403	-1.5211	0.0367
20300	573.17	0.30176	-1.8718	0.037
20300	573.17	0.05997	-0.4013	0.0356
20300	573.17	0.12015	-0.7864	0.0359
20300	573.17	0.18045	-1.162	0.0363
20300	573.17	0.2403	-1.5179	0.0367
20300	573.17	0.30176	-1.873	0.037
25460	573.18	0.05997	-0.3679	0.0356
25460	573.18	0.12015	-0.7246	0.036
25460	573.18	0.18045	-1.0693	0.0364
25460	573.18	0.2403	-1.3996	0.0368
25460	573.18	0.30176	-1.7261	0.0372
30120	548.17	0.06017	-0.377	0.027
30120	548.17	0.11993	-0.7487	0.0275
30120	548.17	0.17928	-1.0957	0.028
30120	548.17	0.24036	-1.4528	0.0285
30120	548.17	0.29914	-1.7793	0.0289
30120	548.17	0.06017	-0.3738	0.027
30120	548.17	0.11993	-0.7462	0.0275
30120	548.17	0.17928	-1.1041	0.028
30120	548.17	0.24036	-1.4541	0.0285
30120	548.17	0.29914	-1.7856	0.0289
30180	373.14	0.04986	-0.2394	0.0085
30180	373.14	0.09995	-0.4815	0.0088
30180	373.14	0.19986	-0.947	0.0093
30180	373.14	0.30024	-1.4076	0.0098
30180	373.14	0.39904	-1.839	0.0104
30180	373.14	0.04986	-0.2421	0.0085
30180	373.14	0.09995	-0.4818	0.0088
30180	373.14	0.19986	-0.9484	0.0093
30180	373.14	0.30024	-1.4138	0.0098
30180	373.14	0.39904	-1.8385	0.0104
30200	573.16	0.05997	-0.3445	0.0356
30200	573.16	0.12015	-0.68	0.0361
30200	573.16	0.18045	-1.0042	0.0365
30200	573.16	0.2403	-1.3142	0.037
30200	573.16	0.30176	-1.6198	0.0374
30200	573.16	0.05997	-0.3442	0.0356
30200	573.16	0.12015	-0.6829	0.0361
30200	573.16	0.18045	-1.0082	0.0365
30200	573.16	0.2403	-1.3187	0.037
30200	573.16	0.30176	-1.6239	0.0374
30230	338.17	0.04986	-0.1968	0.0084
30230	338.17	0.09995	-0.3897	0.0086
30230	338.17	0.19986	-0.7558	0.009
30230	338.17	0.30024	-1.1169	0.0094
30230	338.17	0.39904	-1.4476	0.0098
30230	338.17	0.04986	-0.1942	0.0083
30230	338.17	0.09995	-0.3929	0.0086
30230	338.17	0.19986	-0.7578	0.009
30230	338.17	0.30024	-1.1163	0.0094
30230	338.17	0.39904	-1.4481	0.0098
30270	443.15	0.05989	-0.3759	0.0104
30270	443.15	0.11993	-0.7522	0.0109
30270	443.15	0.17928	-1.1131	0.0114
30270	443.15	0.24036	-1.4801	0.0119
30270	443.15	0.29914	-1.8185	0.0124
30270	443.15	0.05989	-0.3764	0.0104
30270	443.15	0.11993	-0.7511	0.0109
30270	443.15	0.17928	-1.1119	0.0114
30270	443.15	0.24036	-1.4784	0.0119
30270	443.15	0.29914	-1.818	0.0124
30280	408.15	0.05989	-0.3481	0.0091
30280	408.15	0.09995	-0.5801	0.0093
30280	408.15	0.19986	-1.1443	0.01
30280	408.15	0.30024	-1.7016	0.0108
30280	408.15	0.39904	-2.2247	0.0115
30280	408.15	0.05989	-0.3491	0.0091
30280	408.15	0.09995	-0.5804	0.0093
30280	408.15	0.19986	-1.1443	0.01
30280	408.15	0.30024	-1.7017	0.0108
30280	408.15	0.39904	-2.2241	0.0115
30340	473.16	0.05989	-0.3957	0.0128
30340	473.16	0.11993	-0.7877	0.0133
30340	473.16	0.17928	-1.1623	0.0138
30340	473.16	0.24036	-1.5469	0.0144
30340	473.16	0.29914	-1.8987	0.0149
30340	473.16	0.05989	-0.3944	0.0128
30340	473.16	0.11993	-0.7892	0.0133
30340	473.16	0.17928	-1.1639	0.0138
30340	473.16	0.24036	-1.5456	0.0144
30340	473.16	0.29914	-1.8999	0.0149
30400	298.16	0.04986	-0.1586	0.0083
30400	298.16	0.09995	-0.3044	0.0085
30400	298.16	0.19986	-0.5734	0.0088
30400	298.16	0.30024	-0.8061	0.009
30400	298.16	0.39904	-0.9964	0.0093
30400	523.15	0.05989	-0.3902	0.0206
30400	523.15	0.11993	-0.7821	0.0211
30400	523.15	0.17928	-1.1494	0.0216
30400	523.15	0.24036	-1.5288	0.0222
30400	523.15	0.29914	-1.8743	0.0226
30400	298.16	0.04986	-0.1596	0.0083
30400	298.16	0.09995	-0.3042	0.0085
30400	298.16	0.19986	-0.5753	0.0088
30400	298.16	0.30024	-0.8089	0.0091
30400	298.16	0.39904	-1	0.0093
30400	523.15	0.05989	-0.3905	0.0206
30400	523.15	0.11993	-0.7808	0.0211
30400	523.15	0.17928	-1.1497	0.0216
30400	523.15	0.24036	-1.5269	0.0221
30400	523.15	0.29914	-1.8737	0.0226
30400	298.16	0.04986	-0.1594	0.0083
30400	298.16	0.09995	-0.3074	0.0085
30400	298.16	0.19986	-0.5771	0.0088
30400	298.16	0.30024	-0.8066	0.009
30400	298.16	0.39904	-0.9998	0.0093
30450	318.45	0.04986	-0.1766	0.0083
30450	318.45	0.09995	-0.3468	0.0085
30450	318.45	0.19986	-0.6613	0.0089
30450	318.45	0.30024	-0.9579	0.0092
30450	318.45	0.39904	-1.22	0.0095
30450	318.45	0.04986	-0.1754	0.0083
30450	318.45	0.09995	-0.3447	0.0085
30450	318.45	0.19986	-0.6609	0.0089
30450	318.45	0.30024	-0.9585	0.0092
30450	318.45	0.39904	-1.2206	0.0095
30450	318.45	0.04986	-0.176	0.0083
30450	318.45	0.09995	-0.348	0.0085
30450	318.45	0.19986	-0.6613	0.0089
30450	318.45	0.30024	-0.9575	0.0092
30450	318.45	0.39904	-1.2224	0.0095
30460	498.15	0.05989	-0.4045	0.016
30460	498.15	0.11993	-0.8008	0.0165
30460	498.15	0.17928	-1.1788	0.017
30460	498.15	0.24036	-1.5619	0.0176
30460	498.15	0.29914	-1.9147	0.0181
30460	498.15	0.05989	-0.4072	0.016
30460	498.15	0.11993	-0.8034	0.0165
30460	498.15	0.17928	-1.1815	0.0171
30460	498.15	0.24036	-1.5649	0.0176
30460	498.15	0.29914	-1.92	0.0181

System: 2,2-dimethyl-1,3-propanediol + water; phases: Liquid
Property: Mass density, kg/m3 (Liquid); method: VIBTUB:UFactor:0.25
Pressure, kPa	Temperature, K	Molality, mol/kg of 2,2-dimethyl-1,3-propanediol	Mass density, kg/m3	uncertainty
330	298.17	0.0501	0.1059	0.0081
330	298.17	0.10032	0.2156	0.0082
330	298.17	0.20028	0.445	0.0082
330	298.17	0.30285	0.6954	0.0083
330	298.17	0.40064	0.9452	0.0083
330	298.17	0.10032	0.2136	0.0082
330	298.17	0.20028	0.443	0.0082
330	298.17	0.30285	0.6951	0.0083
330	298.17	0.40064	0.9443	0.0083
330	298.17	0.10032	0.2122	0.0082
330	298.17	0.20028	0.4429	0.0082
330	298.17	0.30285	0.6943	0.0083
330	298.17	0.40064	0.9446	0.0083
470	318.26	0.0501	0.0668	0.0081
470	318.26	0.10032	0.1506	0.0082
470	318.26	0.20028	0.3116	0.0082
470	318.26	0.30285	0.4851	0.0082
470	318.26	0.40064	0.6539	0.0083
470	318.26	0.0501	0.0679	0.0081
470	318.26	0.10032	0.1506	0.0082
470	318.26	0.20028	0.3125	0.0082
470	318.26	0.30285	0.4845	0.0082
470	318.26	0.40064	0.6535	0.0083
470	318.26	0.0501	0.0684	0.0081
470	318.26	0.10032	0.1504	0.0082
470	318.26	0.20028	0.312	0.0082
470	318.26	0.30285	0.4844	0.0082
470	318.26	0.40064	0.6535	0.0083
480	338.17	0.0501	0.0364	0.0081
480	338.17	0.10032	0.0863	0.0082
480	338.17	0.20028	0.1771	0.0082
480	338.17	0.30285	0.2723	0.0082
480	338.17	0.40064	0.3642	0.0082
480	338.17	0.0501	0.0341	0.0081
480	338.17	0.10032	0.0848	0.0082
480	338.17	0.20028	0.1757	0.0082
480	338.17	0.30285	0.2728	0.0082
480	338.17	0.40064	0.3645	0.0082
480	338.17	0.0501	0.036	0.0081
480	338.17	0.10032	0.0861	0.0082
480	338.17	0.20028	0.1765	0.0082
480	338.17	0.30285	0.2722	0.0082
480	338.17	0.40064	0.364	0.0082
480	338.17	0.0501	0.0363	0.0081
480	338.17	0.10032	0.0858	0.0082
480	338.17	0.20028	0.1767	0.0082
1960	408.16	0.06009	-0.0847	0.0087
1960	408.16	0.10032	-0.1469	0.0087
1960	408.16	0.20028	-0.295	0.0088
1960	408.16	0.30082	-0.4445	0.0088
1960	408.16	0.40064	-0.5964	0.0089
1960	408.16	0.06009	-0.0857	0.0087
1960	408.16	0.10032	-0.1467	0.0087
1960	408.16	0.20028	-0.2954	0.0088
1960	408.16	0.30082	-0.4462	0.0088
1960	408.16	0.40064	-0.5971	0.0089
1980	373.16	0.0501	-0.0162	0.0082
1980	373.16	0.10032	-0.0388	0.0083
1980	373.16	0.20028	-0.0639	0.0083
1980	373.16	0.30285	-0.0973	0.0083
1980	373.16	0.40064	-0.1331	0.0083
1980	473.16	0.06009	-0.2113	0.0123
1980	473.16	0.1201	-0.4187	0.0124
1980	473.16	0.18049	-0.6266	0.0124
1980	473.16	0.2403	-0.8295	0.0125
1980	473.16	0.30065	-1.0298	0.0125
1980	373.16	0.0501	-0.0174	0.0083
1980	373.16	0.10032	-0.0378	0.0083
1980	373.16	0.20028	-0.0648	0.0083
1980	373.16	0.30285	-0.0984	0.0083
1980	373.16	0.40064	-0.134	0.0083
1980	473.16	0.06009	-0.2099	0.0123
1980	473.16	0.1201	-0.4189	0.0124
1980	473.16	0.18049	-0.6252	0.0124
1980	473.16	0.2403	-0.8281	0.0125
1980	473.16	0.30065	-1.0298	0.0125
2030	443.15	0.06009	-0.1572	0.0099
2030	443.15	0.1201	-0.312	0.01
2030	443.15	0.18049	-0.4639	0.01
2030	443.15	0.2403	-0.6196	0.01
2030	443.15	0.30065	-0.7687	0.0101
2030	443.15	0.06009	-0.155	0.0099
2030	443.15	0.1201	-0.312	0.01
2030	443.15	0.18049	-0.4652	0.01
2030	443.15	0.2403	-0.619	0.01
2030	443.15	0.30065	-0.7692	0.0101
3020	498.17	0.06009	-0.2522	0.0155
3020	498.17	0.1201	-0.5011	0.0156
3020	498.17	0.18049	-0.749	0.0157
3020	498.17	0.2403	-0.9916	0.0157
3020	498.17	0.30065	-1.2316	0.0158
3020	498.17	0.06009	-0.2531	0.0155
3020	498.17	0.1201	-0.5011	0.0156
3020	498.17	0.18049	-0.7507	0.0157
3020	498.17	0.2403	-0.9908	0.0157
3020	498.17	0.30065	-1.2312	0.0158
5080	523.18	0.05954	-0.2886	0.0202
5080	523.18	0.06009	-0.2905	0.0202
5080	523.18	0.1201	-0.5769	0.0203
5080	523.18	0.18049	-0.8638	0.0204
5080	523.18	0.2403	-1.1404	0.0205
5080	523.18	0.30065	-1.4161	0.0206
5080	523.18	0.06009	-0.2908	0.0202
5080	523.18	0.1201	-0.577	0.0203
5080	523.18	0.18049	-0.8629	0.0204
5080	523.18	0.2403	-1.1395	0.0205
6970	548.17	0.05954	-0.3348	0.0266
6970	548.17	0.06009	-0.3387	0.0266
6970	548.17	0.1201	-0.6683	0.0268
6970	548.17	0.18049	-0.9985	0.0269
6970	548.17	0.2403	-1.3165	0.0271
6970	548.17	0.30065	-1.6343	0.0273
6970	548.17	0.30082	-1.6311	0.0273
6970	548.17	0.05954	-0.3328	0.0266
6970	548.17	0.06009	-0.3367	0.0266
6970	548.17	0.1201	-0.6683	0.0268
6970	548.17	0.18049	-0.9974	0.0269
6970	548.17	0.2403	-1.316	0.0271
6970	548.17	0.30065	-1.6351	0.0273
6970	548.17	0.30082	-1.6304	0.0273
10220	573.17	0.05954	-0.3807	0.0354
10220	573.17	0.11978	-0.7556	0.0356
10220	573.17	0.18066	-1.1267	0.0358
10220	573.17	0.24051	-1.4889	0.0361
10220	573.17	0.30082	-1.846	0.0363
10220	573.17	0.05954	-0.3806	0.0354
10220	573.17	0.11978	-0.7564	0.0356
10220	573.17	0.18066	-1.1285	0.0358
10220	573.17	0.24051	-1.4902	0.0361
10220	573.17	0.30082	-1.8441	0.0363
10220	573.17	0.05954	-0.3808	0.0354
10220	573.17	0.11978	-0.7573	0.0356
10220	573.17	0.18066	-1.1268	0.0358
10220	573.17	0.24051	-1.4886	0.0361
10220	573.17	0.30082	-1.8448	0.0363
14980	298.16	0.0501	0.0717	0.0082
14980	298.16	0.10032	0.1577	0.0082
14980	298.16	0.20028	0.3336	0.0083
14980	298.16	0.30285	0.5313	0.0085
14980	298.16	0.40064	0.7338	0.0086
14980	298.16	0.0501	0.0716	0.0082
14980	298.16	0.10032	0.1565	0.0082
14980	298.16	0.20028	0.3333	0.0083
14980	298.16	0.30285	0.5313	0.0085
14980	298.16	0.40064	0.7331	0.0086
14980	298.16	0.0501	0.0708	0.0082
14980	298.16	0.10032	0.1565	0.0082
14980	298.16	0.20028	0.3329	0.0083
14980	298.16	0.30285	0.5316	0.0085
14980	298.16	0.40064	0.7343	0.0086
15040	373.15	0.0501	-0.0167	0.0083
15040	373.15	0.10032	-0.035	0.0083
15040	373.15	0.20028	-0.0651	0.0083
15040	373.15	0.30285	-0.0986	0.0083
15040	373.15	0.40064	-0.1333	0.0084
15040	373.15	0.0501	-0.0187	0.0083
15040	373.15	0.10032	-0.0375	0.0083
15040	373.15	0.20028	-0.0674	0.0083
15040	373.15	0.30285	-0.0989	0.0083
15040	373.15	0.40064	-0.1341	0.0084
15120	318.26	0.0501	0.0479	0.0082
15120	318.26	0.10032	0.113	0.0082
15120	318.26	0.20028	0.2405	0.0083
15120	318.26	0.30285	0.379	0.0084
15120	318.26	0.40064	0.5169	0.0085
15120	318.26	0.0501	0.0484	0.0082
15120	318.26	0.10032	0.1135	0.0082
15120	318.26	0.20028	0.2407	0.0083
15120	318.26	0.30285	0.3814	0.0084
15120	318.26	0.40064	0.5185	0.0085
15120	318.26	0.0501	0.0485	0.0082
15120	318.26	0.10032	0.1131	0.0082
15120	318.26	0.20028	0.2398	0.0083
15120	318.26	0.30285	0.3789	0.0084
15120	318.26	0.40064	0.5169	0.0085
15140	338.17	0.0501	0.0262	0.0082
15140	338.17	0.10032	0.0622	0.0082
15140	338.17	0.20028	0.1353	0.0082
15140	338.17	0.30285	0.2118	0.0083
15140	338.17	0.40064	0.2876	0.0083
15140	338.17	0.0501	0.0264	0.0082
15140	338.17	0.10032	0.0622	0.0082
15140	338.17	0.20028	0.1361	0.0082
15140	338.17	0.30285	0.2114	0.0083
15140	338.17	0.40064	0.2868	0.0083
15400	573.18	0.05954	-0.3184	0.0354
15400	573.18	0.11978	-0.6319	0.0357
15400	573.18	0.18066	-0.9395	0.0359
15400	573.18	0.24051	-1.2456	0.0362
15400	573.18	0.30082	-1.5412	0.0364
15400	573.18	0.05954	-0.317	0.0354
15400	573.18	0.11978	-0.6306	0.0357
15400	573.18	0.18066	-0.9385	0.0359
15400	573.18	0.24051	-1.243	0.0362
15400	573.18	0.30082	-1.5423	0.0364
15690	473.15	0.06009	-0.1753	0.0124
15690	473.15	0.1201	-0.3519	0.0125
15690	473.15	0.18049	-0.5275	0.0127
15690	473.15	0.2403	-0.6996	0.0128
15690	473.15	0.30065	-0.8685	0.013
15690	473.15	0.06009	-0.1766	0.0124
15690	473.15	0.1201	-0.3523	0.0125
15690	473.15	0.18049	-0.5274	0.0127
15690	473.15	0.2403	-0.7002	0.0128
15690	473.15	0.30065	-0.8691	0.013
15710	443.15	0.06009	-0.1352	0.01
15710	443.15	0.1201	-0.2728	0.0101
15710	443.15	0.18049	-0.4054	0.0102
15710	443.15	0.2403	-0.5413	0.0103
15710	443.15	0.30065	-0.6676	0.0104
15710	443.15	0.06009	-0.1364	0.01
15710	443.15	0.1201	-0.2706	0.0101
15710	443.15	0.18049	-0.4061	0.0102
15710	443.15	0.2403	-0.5397	0.0103
15710	443.15	0.30065	-0.6708	0.0104
15830	408.15	0.06009	-0.0796	0.0087
15830	408.15	0.1201	-0.1559	0.0088
15830	408.15	0.20028	-0.2648	0.0089
15830	408.15	0.2403	-0.3177	0.0089
15830	408.15	0.30065	-0.3976	0.009
15830	408.15	0.06009	-0.0792	0.0087
15830	408.15	0.1201	-0.1588	0.0088
15830	408.15	0.20028	-0.2652	0.0089
15830	408.15	0.2403	-0.3205	0.0089
15830	408.15	0.30065	-0.399	0.009
16150	498.15	0.06009	-0.2068	0.0156
16150	498.15	0.1201	-0.412	0.0158
16150	498.15	0.18049	-0.6172	0.0159
16150	498.15	0.2403	-0.8157	0.0161
16150	498.15	0.30065	-1.0133	0.0163
16150	498.15	0.06009	-0.2076	0.0156
16150	498.15	0.1201	-0.4132	0.0158
16150	498.15	0.18049	-0.6183	0.0159
16150	498.15	0.2403	-0.8162	0.0161
16150	498.15	0.30065	-1.0149	0.0163
16160	523.15	0.05954	-0.2336	0.0202
16160	523.15	0.06009	-0.2362	0.0202
16160	523.15	0.1201	-0.4703	0.0204
16160	523.15	0.18049	-0.704	0.0206
16160	523.15	0.2403	-0.9296	0.0208
16160	523.15	0.30065	-1.1538	0.021
16160	523.15	0.30082	-1.1586	0.021
16160	523.15	0.05954	-0.2342	0.0202
16160	523.15	0.06009	-0.2364	0.0202
16160	523.15	0.1201	-0.4702	0.0204
16160	523.15	0.18049	-0.7045	0.0206
16160	523.15	0.2403	-0.9293	0.0208
16160	523.15	0.30065	-1.1546	0.021
16160	523.15	0.30082	-1.1576	0.021
18170	548.17	0.05954	-0.2537	0.0267
18170	548.17	0.1201	-0.5093	0.0269
18170	548.17	0.18049	-0.7614	0.0272
18170	548.17	0.2403	-1.0053	0.0274
18170	548.17	0.30065	-1.2495	0.0276
18170	548.17	0.30082	-1.2456	0.0276
18170	548.17	0.05954	-0.2529	0.0267
18170	548.17	0.1201	-0.5107	0.0269
18170	548.17	0.18049	-0.7619	0.0272
18170	548.17	0.2403	-1.0052	0.0274
18170	548.17	0.30065	-1.2482	0.0276
18170	548.17	0.30082	-1.2455	0.0276
20330	573.17	0.05954	-0.2729	0.0354
20330	573.17	0.11978	-0.5425	0.0357
20330	573.17	0.18066	-0.8081	0.036
20330	573.17	0.24051	-1.0695	0.0362
20330	573.17	0.30082	-1.3224	0.0365
20330	573.17	0.05954	-0.2738	0.0354
20330	573.17	0.11978	-0.5421	0.0357
20330	573.17	0.18066	-0.8052	0.036
20330	573.17	0.24051	-1.0673	0.0362
20330	573.17	0.30082	-1.3233	0.0365
25460	573.18	0.05954	-0.2338	0.0354
25460	573.18	0.11978	-0.4645	0.0357
25460	573.18	0.18066	-0.6943	0.036
25460	573.18	0.24051	-0.9175	0.0363
25460	573.18	0.30082	-1.1345	0.0365
25460	573.18	0.05954	-0.2334	0.0354
25460	573.18	0.11978	-0.4677	0.0357
25460	573.18	0.18066	-0.6942	0.036
25460	573.18	0.24051	-0.9194	0.0363
25460	573.18	0.30082	-1.138	0.0365
30120	548.17	0.05954	-0.196	0.0267
30120	548.17	0.11978	-0.3953	0.027
30120	548.17	0.18049	-0.5955	0.0273
30120	548.17	0.2403	-0.7863	0.0276
30120	548.17	0.30065	-0.976	0.0278
30120	548.17	0.05954	-0.1967	0.0267
30120	548.17	0.11978	-0.4098	0.027
30120	548.17	0.18049	-0.598	0.0273
30120	548.17	0.2403	-0.7845	0.0276
30120	548.17	0.30065	-0.9762	0.0278
30180	373.14	0.0501	-0.019	0.0083
30180	373.14	0.10032	-0.0366	0.0083
30180	373.14	0.20028	-0.0715	0.0083
30180	373.14	0.30285	-0.1069	0.0084
30180	373.14	0.40064	-0.1436	0.0084
30180	373.14	0.0501	-0.0204	0.0083
30180	373.14	0.10032	-0.0388	0.0083
30180	373.14	0.20028	-0.0722	0.0083
30180	373.14	0.30285	-0.1097	0.0084
30180	373.14	0.40064	-0.1461	0.0084
30200	573.17	0.05954	-0.2062	0.0354
30200	573.17	0.11978	-0.414	0.0357
30200	573.17	0.18066	-0.6137	0.036
30200	573.17	0.24051	-0.8104	0.0363
30200	573.17	0.30082	-1.0074	0.0366
30200	573.17	0.05954	-0.2033	0.0354
30200	573.17	0.11978	-0.4148	0.0357
30200	573.17	0.18066	-0.6145	0.036
30200	573.17	0.24051	-0.8121	0.0363
30200	573.17	0.30082	-1.0101	0.0366
30230	338.17	0.0501	0.0161	0.0082
30230	338.17	0.10032	0.0407	0.0082
30230	338.17	0.20028	0.0915	0.0082
30230	338.17	0.30285	0.1489	0.0083
30230	338.17	0.40064	0.2073	0.0084
30230	338.17	0.0501	0.0174	0.0082
30230	338.17	0.10032	0.0409	0.0082
30230	338.17	0.20028	0.0928	0.0082
30230	338.17	0.30285	0.1482	0.0083
30230	338.17	0.40064	0.2065	0.0084
30260	443.15	0.06009	-0.1167	0.01
30260	443.15	0.1201	-0.2391	0.0102
30260	443.15	0.18049	-0.3574	0.0104
30260	443.15	0.2403	-0.4759	0.0105
30260	443.15	0.30065	-0.5862	0.0107
30260	443.15	0.06009	-0.1192	0.01
30260	443.15	0.1201	-0.2388	0.0102
30260	443.15	0.18049	-0.3527	0.0104
30260	443.15	0.2403	-0.4808	0.0105
30260	443.15	0.30065	-0.5842	0.0107
30280	408.15	0.06009	-0.0709	0.0088
30280	408.15	0.1201	-0.1448	0.0089
30280	408.15	0.18049	-0.2175	0.0089
30280	408.15	0.2403	-0.2948	0.009
30280	408.15	0.30065	-0.3635	0.0091
30280	408.15	0.06009	-0.0703	0.0088
30280	408.15	0.1201	-0.1468	0.0089
30280	408.15	0.18049	-0.2181	0.0089
30280	408.15	0.2403	-0.2932	0.009
30280	408.15	0.30065	-0.3613	0.0091
30340	473.16	0.06009	-0.1497	0.0125
30340	473.16	0.1201	-0.3007	0.0127
30340	473.16	0.18049	-0.4496	0.0129
30340	473.16	0.2403	-0.5939	0.0131
30340	473.16	0.30065	-0.7405	0.0133
30340	473.16	0.06009	-0.1496	0.0125
30340	473.16	0.1201	-0.2994	0.0127
30340	473.16	0.18049	-0.4487	0.0129
30340	473.16	0.2403	-0.5966	0.0131
30340	473.16	0.30065	-0.7407	0.0133
30390	523.15	0.05954	-0.1818	0.0203
30390	523.15	0.06009	-0.183	0.0203
30390	523.15	0.1201	-0.37	0.0205
30390	523.15	0.18049	-0.5569	0.0208
30390	523.15	0.2403	-0.7364	0.0211
30390	523.15	0.30065	-0.9136	0.0213
30390	523.15	0.30082	-0.913	0.0213
30390	523.15	0.05954	-0.1829	0.0203
30390	523.15	0.06009	-0.182	0.0203
30390	523.15	0.1201	-0.3701	0.0205
30390	523.15	0.18049	-0.5561	0.0208
30390	523.15	0.2403	-0.7347	0.0211
30390	523.15	0.30065	-0.9163	0.0213
30390	523.15	0.30082	-0.9156	0.0213
30400	298.16	0.0501	0.0394	0.0082
30400	298.16	0.10032	0.1002	0.0082
30400	298.16	0.20028	0.2229	0.0084
30400	298.16	0.30285	0.3676	0.0086
30400	298.16	0.40064	0.5213	0.0087
30400	298.16	0.0501	0.0366	0.0082
30400	298.16	0.10032	0.1001	0.0082
30400	298.16	0.20028	0.219	0.0084
30400	298.16	0.30285	0.3683	0.0086
30400	298.16	0.40064	0.52	0.0087
30400	298.16	0.0501	0.0389	0.0082
30400	298.16	0.10032	0.0988	0.0082
30400	298.16	0.20028	0.2217	0.0084
30400	298.16	0.30285	0.3674	0.0086
30400	298.16	0.40064	0.5204	0.0087
30450	318.45	0.0501	0.0297	0.0082
30450	318.45	0.10032	0.0746	0.0082
30450	318.45	0.20028	0.1664	0.0083
30450	318.45	0.30285	0.2715	0.0084
30450	318.45	0.40064	0.3782	0.0086
30450	318.45	0.0501	0.0275	0.0082
30450	318.45	0.10032	0.0754	0.0082
30450	318.45	0.20028	0.1659	0.0083
30450	318.45	0.30285	0.2695	0.0084
30450	318.45	0.40064	0.3772	0.0086
30450	318.45	0.0501	0.0276	0.0082
30450	318.45	0.10032	0.0747	0.0082
30450	318.45	0.20028	0.165	0.0083
30450	318.45	0.30285	0.2695	0.0084
30450	318.45	0.40064	0.3762	0.0086
30470	498.15	0.06009	-0.1714	0.0157
30470	498.15	0.1201	-0.3434	0.0159
30470	498.15	0.18049	-0.5131	0.0161
30470	498.15	0.2403	-0.6776	0.0164
30470	498.15	0.30065	-0.8423	0.0166
30470	498.15	0.06009	-0.1753	0.0157
30470	498.15	0.1201	-0.347	0.0159
30470	498.15	0.18049	-0.5171	0.0161
30470	498.15	0.2403	-0.684	0.0164
30470	498.15	0.30065	-0.8474	0.0166

System: 2,2-bis(hydroxymethyl)-1,3-propanediol + water; phases: Liquid
Property: Mass density, kg/m3 (Liquid); method: VIBTUB:UFactor:0.25
Pressure, kPa	Temperature, K	Molality, mol/kg of 2,2-bis(hydroxymethyl)-1,3-propanediol	Mass density, kg/m3	uncertainty
470	318.26	0.10162	3.3726	0.0103
470	318.26	0.19899	6.5402	0.0156
470	318.26	0.29938	9.7319	0.0215
470	318.26	0.38891	12.5488	0.0269
470	338.17	0.05159	1.6897	0.0085
470	338.17	0.10162	3.313	0.0103
470	338.17	0.19899	6.4261	0.0154
470	338.17	0.29938	9.5608	0.0211
470	338.17	0.38891	12.3262	0.0264
470	338.17	0.10162	3.3121	0.0103
470	338.17	0.19899	6.4218	0.0154
470	338.17	0.29938	9.5607	0.0211
470	338.17	0.38891	12.3244	0.0264
770	298.17	0.05159	1.7678	0.0085
770	298.17	0.07349	2.5053	0.0092
770	298.17	0.10162	3.4677	0.0105
770	298.17	0.15262	5.1753	0.0132
770	298.17	0.19899	6.7191	0.0159
770	298.17	0.29938	10.0012	0.022
770	298.17	0.38891	12.8933	0.0276
770	298.17	0.05159	1.7664	0.0085
770	298.17	0.07349	2.5051	0.0092
770	298.17	0.10162	3.4658	0.0105
770	298.17	0.15262	5.1746	0.0132
770	298.17	0.19899	6.7183	0.0159
770	298.17	0.29938	9.999	0.022
770	298.17	0.38891	12.8934	0.0276
770	298.17	0.05159	1.7671	0.0085
770	298.17	0.07349	2.5053	0.0092
770	298.17	0.10162	3.4655	0.0105
770	298.17	0.15262	5.1731	0.0132
770	298.17	0.19899	6.7168	0.0159
770	298.17	0.29938	9.9981	0.022
770	298.17	0.38891	12.892	0.0276
1830	408.16	0.05159	1.654	0.0091
1830	408.16	0.10162	3.2384	0.0108
1830	408.16	0.19899	6.2843	0.0156
1830	408.16	0.29938	9.3538	0.0212
1830	408.16	0.38891	12.044	0.0264
1830	443.15	0.06001	1.9368	0.0105
1830	443.15	0.12011	3.8578	0.0126
1830	443.15	0.18017	5.7487	0.0156
1830	443.15	0.23977	7.612	0.0187
1830	443.15	0.30036	9.4822	0.0221
1830	408.16	0.05159	1.6548	0.0091
1830	408.16	0.10162	3.2363	0.0108
1830	408.16	0.19899	6.2836	0.0156
1830	408.16	0.29938	9.3533	0.0212
1830	408.16	0.38891	12.0429	0.0264
1830	443.15	0.06001	1.9341	0.0105
1830	443.15	0.12011	3.8571	0.0126
1830	443.15	0.18017	5.7433	0.0155
1830	443.15	0.23977	7.6075	0.0187
1830	443.15	0.30036	9.4813	0.0221
1930	373.15	0.05159	1.6643	0.0087
1930	373.15	0.07349	2.3627	0.0092
1930	373.15	0.10162	3.26	0.0104
1930	373.15	0.15262	4.8632	0.0129
1930	373.15	0.19899	6.318	0.0154
1930	373.15	0.29938	9.4011	0.0211
1930	373.15	0.38891	12.1035	0.0263
1930	373.15	0.05159	1.6641	0.0087
1930	373.15	0.07349	2.3611	0.0092
1930	373.15	0.10162	3.2585	0.0104
1930	373.15	0.15262	4.863	0.0129
1930	373.15	0.19899	6.3163	0.0154
1930	373.15	0.29938	9.3987	0.0211
1930	373.15	0.38891	12.1005	0.0263
2000	473.16	0.06001	1.9739	0.0128
2000	473.16	0.07349	2.4154	0.013
2000	473.16	0.12011	3.9279	0.0145
2000	473.16	0.18017	5.8549	0.0173
2000	473.16	0.23977	7.7525	0.0203
2000	473.16	0.30036	9.6569	0.0236
2000	473.16	0.06001	1.9718	0.0128
2000	473.16	0.07349	2.416	0.013
2000	473.16	0.12011	3.9273	0.0145
2000	473.16	0.18017	5.8537	0.0173
2000	473.16	0.23977	7.7516	0.0203
2000	473.16	0.30036	9.6549	0.0236
2980	498.17	0.06001	2.0189	0.0161
2980	498.17	0.07349	2.4688	0.0162
2980	498.17	0.12011	4.0214	0.0173
2980	498.17	0.15262	5.0854	0.0186
2980	498.17	0.18017	5.9964	0.0199
2980	498.17	0.23977	7.9341	0.0228
2980	498.17	0.30036	9.8831	0.026
2980	498.17	0.07349	2.4686	0.0162
2980	498.17	0.12011	4.0193	0.0173
2980	498.17	0.15262	5.0856	0.0186
2980	498.17	0.18017	5.9946	0.0199
2980	498.17	0.23977	7.9324	0.0228
2980	498.17	0.30036	9.8788	0.026
2980	498.17	0.12011	4.0189	0.0173
2980	498.17	0.18017	5.9937	0.0199
2980	498.17	0.23977	7.9314	0.0228
2980	498.17	0.30036	9.8784	0.026
5000	523.18	0.06001	2.0884	0.0209
5000	523.18	0.12011	4.1579	0.0217
5000	523.18	0.18017	6.2069	0.024
5000	523.18	0.23977	8.2124	0.0269
5000	523.18	0.30036	10.2201	0.0301
5000	523.18	0.06001	2.0884	0.0209
5000	523.18	0.12011	4.1576	0.0217
5000	523.18	0.18017	6.2057	0.024
5000	523.18	0.23977	8.2113	0.0269
5000	523.18	0.30036	10.2199	0.0301
6990	548.17	0.06001	2.2049	0.0275
6990	548.17	0.12015	4.3979	0.0286
6990	548.17	0.18017	6.5555	0.03
6990	548.17	0.23977	8.6619	0.0329
6990	548.17	0.30036	10.8071	0.0361
6990	548.17	0.06001	2.2056	0.0275
6990	548.17	0.12015	4.3975	0.0286
6990	548.17	0.18017	6.5554	0.03
6990	548.17	0.23977	8.6598	0.0329
6990	548.17	0.30036	10.8052	0.0361
10210	573.17	0.05952	2.3636	0.0366
10210	573.17	0.12015	4.7433	0.038
10210	573.17	0.18029	7.1068	0.0394
10210	573.17	0.24145	9.4687	0.0418
10210	573.17	0.29886	11.6682	0.045
10210	573.17	0.05952	2.3661	0.0366
10210	573.17	0.12015	4.7461	0.038
10210	573.17	0.18029	7.1091	0.0394
10210	573.17	0.24145	9.4679	0.0418
10210	573.17	0.29886	11.6674	0.045
14930	298.16	0.05159	1.7475	0.0093
14930	298.16	0.07349	2.4774	0.0102
14930	298.16	0.10162	3.4236	0.0118
14930	298.16	0.15262	5.1078	0.0148
14930	298.16	0.19899	6.6364	0.0178
14930	298.16	0.29938	9.8721	0.0243
14930	298.16	0.38891	12.7336	0.0301
14930	298.16	0.05159	1.7473	0.0093
14930	298.16	0.07349	2.478	0.0102
14930	298.16	0.10162	3.4237	0.0118
14930	298.16	0.15262	5.107	0.0148
14930	298.16	0.19899	6.6357	0.0178
14930	298.16	0.29938	9.8724	0.0243
14930	298.16	0.38891	12.734	0.0301
14930	298.16	0.05159	1.7471	0.0093
14930	298.16	0.07349	2.4782	0.0102
14930	298.16	0.10162	3.4233	0.0118
14930	298.16	0.15262	5.1078	0.0148
14930	298.16	0.19899	6.6356	0.0178
14930	298.16	0.29938	9.8714	0.0243
14930	298.16	0.38891	12.7333	0.0301
15050	373.15	0.05159	1.6554	0.0094
15050	373.15	0.07349	2.3506	0.0101
15050	373.15	0.10162	3.2406	0.0116
15050	373.15	0.15262	4.8358	0.0144
15050	373.15	0.19899	6.2818	0.0172
15050	373.15	0.29938	9.3482	0.0233
15050	373.15	0.38891	12.0404	0.0288
15050	373.15	0.05159	1.6546	0.0094
15050	373.15	0.07349	2.3535	0.0101
15050	373.15	0.10162	3.2404	0.0116
15050	373.15	0.15262	4.8351	0.0144
15050	373.15	0.19899	6.2805	0.0172
15050	373.15	0.29938	9.3464	0.0233
15050	373.15	0.38891	12.0405	0.0288
15120	318.26	0.05159	1.7235	0.0093
15120	318.26	0.10162	3.3432	0.0116
15120	318.26	0.19899	6.4714	0.0175
15120	318.26	0.29938	9.6388	0.0238
15120	318.26	0.38891	12.4269	0.0295
15120	318.26	0.05159	1.697	0.0093
15120	318.26	0.10162	3.3402	0.0116
15120	318.26	0.19899	6.4799	0.0175
15120	318.26	0.29938	9.6516	0.0238
15120	318.26	0.38891	12.4328	0.0296
15120	318.26	0.05159	1.7065	0.0093
15120	318.26	0.10162	3.3401	0.0116
15120	318.26	0.19899	6.4774	0.0175
15120	318.26	0.29938	9.6393	0.0238
15120	318.26	0.38891	12.4317	0.0296
15130	338.17	0.05159	1.6785	0.0093
15130	338.17	0.10162	3.2896	0.0116
15130	338.17	0.19899	6.3773	0.0173
15130	338.17	0.29938	9.4903	0.0235
15130	338.17	0.38891	12.2323	0.0291
15130	338.17	0.05159	1.6789	0.0093
15130	338.17	0.10162	3.2897	0.0116
15130	338.17	0.19899	6.375	0.0173
15130	338.17	0.29938	9.4893	0.0235
15130	338.17	0.38891	12.2301	0.0291
15400	573.18	0.05952	2.2996	0.037
15400	573.18	0.12015	4.6154	0.0389
15400	573.18	0.18029	6.9098	0.0407
15400	573.18	0.24145	9.2051	0.043
15400	573.18	0.29886	11.3473	0.0463
15400	573.18	0.05952	2.2997	0.037
15400	573.18	0.12015	4.6166	0.0389
15400	573.18	0.18029	6.9105	0.0407
15400	573.18	0.24145	9.2061	0.043
15400	573.18	0.29886	11.3464	0.0463
15670	473.16	0.06001	1.9558	0.0139
15670	473.16	0.07349	2.3962	0.0142
15670	473.16	0.12011	3.8939	0.0161
15670	473.16	0.15262	4.9282	0.0178
15670	473.16	0.18017	5.8021	0.0193
15670	473.16	0.23977	7.6829	0.0228
15670	473.16	0.30036	9.568	0.0264
15670	473.16	0.06001	1.9529	0.0139
15670	473.16	0.07349	2.3965	0.0142
15670	473.16	0.12011	3.8937	0.0161
15670	473.16	0.15262	4.9285	0.0178
15670	473.16	0.18017	5.8034	0.0193
15670	473.16	0.23977	7.6808	0.0228
15670	473.16	0.30036	9.5686	0.0264
15700	443.15	0.06001	1.928	0.0115
15700	443.15	0.12011	3.8363	0.0141
15700	443.15	0.18017	5.7154	0.0175
15700	443.15	0.23977	7.5647	0.021
15700	443.15	0.30036	9.4232	0.0247
15700	443.15	0.06001	1.93	0.0115
15700	443.15	0.12011	3.836	0.0141
15700	443.15	0.18017	5.7162	0.0175
15700	443.15	0.23977	7.5662	0.021
15700	443.15	0.30036	9.4245	0.0247
15850	408.16	0.05159	1.6461	0.0099
15850	408.16	0.12011	3.8116	0.0131
15850	408.16	0.19899	6.246	0.0176
15850	408.16	0.29938	9.3018	0.0237
15850	408.16	0.38891	11.9766	0.0291
15850	408.16	0.05159	1.6457	0.0099
15850	408.16	0.12011	3.8123	0.0131
15850	408.16	0.19899	6.2467	0.0176
15850	408.16	0.29938	9.3011	0.0237
15850	408.16	0.38891	11.9772	0.0291
16150	523.15	0.06001	2.0553	0.0218
16150	523.15	0.12011	4.0905	0.0234
16150	523.15	0.18017	6.1048	0.026
16150	523.15	0.23977	8.077	0.0293
16150	523.15	0.30036	10.0523	0.0328
16150	523.15	0.06001	2.0553	0.0218
16150	523.15	0.12011	4.0902	0.0234
16150	523.15	0.18017	6.1045	0.026
16150	523.15	0.23977	8.0762	0.0293
16150	523.15	0.30036	10.052	0.0328
16170	498.15	0.06001	1.9957	0.0171
16170	498.15	0.07349	2.4398	0.0175
16170	498.15	0.12011	3.9716	0.0189
16170	498.15	0.15262	5.0275	0.0205
16170	498.15	0.18017	5.9214	0.022
16170	498.15	0.23977	7.8347	0.0254
16170	498.15	0.30036	9.7576	0.029
16170	498.15	0.06001	1.9955	0.0171
16170	498.15	0.07349	2.4399	0.0175
16170	498.15	0.12011	3.9714	0.0189
16170	498.15	0.15262	5.026	0.0205
16170	498.15	0.18017	5.9205	0.022
16170	498.15	0.23977	7.8335	0.0254
16170	498.15	0.30036	9.7567	0.029
18180	548.17	0.06001	2.1452	0.0284
18180	548.17	0.12015	4.275	0.0304
18180	548.17	0.18017	6.3669	0.0322
18180	548.17	0.23977	8.4036	0.0354
18180	548.17	0.30036	10.4939	0.039
18180	548.17	0.06001	2.1433	0.0284
18180	548.17	0.12015	4.2741	0.0304
18180	548.17	0.18017	6.3664	0.0322
18180	548.17	0.23977	8.4045	0.0354
18180	548.17	0.30036	10.4941	0.039
20320	573.17	0.05952	2.2512	0.0374
20320	573.17	0.12015	4.5328	0.0397
20320	573.17	0.18029	6.7664	0.0419
20320	573.17	0.24145	9.0102	0.0441
20320	573.17	0.29886	11.1134	0.0477
20320	573.17	0.05952	2.2525	0.0374
20320	573.17	0.12015	4.5284	0.0396
20320	573.17	0.18029	6.7698	0.0419
20320	573.17	0.24145	9.0141	0.0441
20320	573.17	0.29886	11.1132	0.0477
25450	573.17	0.05952	2.2108	0.0378
25450	573.17	0.12015	4.4332	0.0404
25450	573.17	0.18029	6.6366	0.043
25450	573.17	0.24145	8.8561	0.0457
25450	573.17	0.29886	10.9125	0.049
25450	573.17	0.05952	2.214	0.0378
25450	573.17	0.12015	4.4332	0.0404
25450	573.17	0.18029	6.6381	0.043
25450	573.17	0.29886	10.9133	0.049
25450	573.17	0.05952	2.2132	0.0378
25450	573.17	0.12015	4.4416	0.0404
25450	573.17	0.18029	6.6356	0.043
25450	573.17	0.29886	10.9102	0.049
30110	548.17	0.18017	6.2087	0.035
30110	548.17	0.23977	8.237	0.0382
30110	548.17	0.30036	10.2712	0.0423
30200	573.16	0.05952	2.1741	0.0382
30200	573.16	0.12015	4.3926	0.0412
30200	573.16	0.18029	6.5543	0.0441
30200	573.16	0.24145	8.7318	0.0471
30200	573.16	0.29886	10.7579	0.0504
30200	573.16	0.05952	2.1771	0.0382
30200	573.16	0.12015	4.3841	0.0412
30200	573.16	0.18029	6.5573	0.0441
30200	573.16	0.24145	8.7255	0.0471
30210	373.15	0.05159	1.6438	0.0102
30210	373.15	0.07349	2.3365	0.0112
30210	373.15	0.10162	3.2218	0.013
30210	373.15	0.19899	6.2446	0.0195
30210	373.15	0.29938	9.2932	0.0265
30210	373.15	0.38891	11.9718	0.0326
30210	373.15	0.07349	2.3339	0.0112
30210	373.15	0.10162	3.2191	0.013
30210	373.15	0.19899	6.2423	0.0195
30210	373.15	0.29938	9.2882	0.0264
30210	373.15	0.38891	11.9664	0.0326
30260	338.17	0.05159	1.6641	0.0101
30260	338.17	0.10162	3.2606	0.013
30260	338.17	0.19899	6.3262	0.0196
30260	338.17	0.29938	9.4116	0.0266
30260	338.17	0.38891	12.1242	0.0329
30260	473.16	0.06001	1.9388	0.0149
30260	473.16	0.07349	2.3775	0.0155
30260	473.16	0.12011	3.8577	0.0178
30260	473.16	0.15262	4.8834	0.0199
30260	473.16	0.18017	5.7497	0.0217
30260	473.16	0.23977	7.6125	0.0257
30260	473.16	0.30036	9.4787	0.0298
30260	338.17	0.05159	1.6633	0.0101
30260	338.17	0.10162	3.255	0.013
30260	338.17	0.19899	6.3229	0.0196
30260	338.17	0.29938	9.4085	0.0266
30260	338.17	0.38891	12.1295	0.0329
30260	473.16	0.06001	1.9356	0.0149
30260	473.16	0.07349	2.3761	0.0155
30260	473.16	0.12011	3.8566	0.0178
30260	473.16	0.15262	4.8845	0.0199
30260	473.16	0.18017	5.7487	0.0217
30260	473.16	0.23977	7.6111	0.0257
30260	473.16	0.30036	9.4795	0.0298
30270	408.15	0.05159	1.6347	0.0108
30270	408.15	0.12011	3.7881	0.0146
30270	408.15	0.19899	6.2103	0.0199
30270	408.15	0.29938	9.2473	0.0267
30270	408.15	0.38891	11.9032	0.0328
30270	408.15	0.05159	1.636	0.0108
30270	408.15	0.12011	3.7871	0.0146
30270	408.15	0.19899	6.2113	0.0199
30270	408.15	0.29938	9.2454	0.0267
30270	408.15	0.38891	11.9038	0.0328
30290	443.15	0.06001	1.917	0.0126
30290	443.15	0.12011	3.8136	0.0158
30290	443.15	0.18017	5.684	0.0197
30290	443.15	0.23977	7.5187	0.0238
30290	443.15	0.30036	9.3659	0.0279
30290	443.15	0.06001	1.9172	0.0126
30290	443.15	0.12011	3.8116	0.0158
30290	443.15	0.18017	5.6818	0.0197
30290	443.15	0.23977	7.5193	0.0238
30290	443.15	0.30036	9.3649	0.0279
30400	298.15	0.05159	1.7234	0.0102
30400	298.15	0.07349	2.4443	0.0113
30400	298.15	0.10162	3.3795	0.0132
30400	298.15	0.15262	5.043	0.0168
30400	298.15	0.19899	6.5492	0.0202
30400	298.15	0.29938	9.7449	0.0274
30400	298.15	0.38891	12.5713	0.034
30400	523.15	0.06001	2.0246	0.0228
30400	523.15	0.12011	4.0216	0.0256
30400	523.15	0.18017	5.9948	0.0285
30400	523.15	0.23977	7.9369	0.0324
30400	523.15	0.30036	9.8688	0.0365
30400	298.15	0.05159	1.724	0.0102
30400	298.15	0.07349	2.4489	0.0113
30400	298.15	0.10162	3.3779	0.0132
30400	298.15	0.15262	5.042	0.0168
30400	298.15	0.19899	6.5498	0.0202
30400	298.15	0.29938	9.7451	0.0274
30400	298.15	0.38891	12.5702	0.034
30400	523.15	0.06001	2.0242	0.0228
30400	523.15	0.12011	4.0197	0.0256
30400	523.15	0.18017	6.0017	0.0285
30400	523.15	0.23977	7.9361	0.0324
30400	523.15	0.30036	9.8758	0.0365
30400	298.15	0.05159	1.7251	0.0102
30400	298.15	0.07349	2.4462	0.0113
30400	298.15	0.10162	3.3753	0.0132
30400	298.15	0.15262	5.0422	0.0168
30400	298.15	0.19899	6.5489	0.0202
30400	298.15	0.29938	9.7443	0.0274
30400	298.15	0.38891	12.5691	0.034
30450	318.29	0.05159	1.6908	0.0102
30450	318.29	0.10162	3.3109	0.0131
30450	318.29	0.19899	6.419	0.0199
30450	318.29	0.29938	9.547	0.027
30450	318.29	0.38891	12.3133	0.0334
30450	318.29	0.05159	1.6894	0.0102
30450	318.29	0.10162	3.3109	0.0131
30450	318.29	0.19899	6.4178	0.0199
30450	318.29	0.29938	9.5452	0.027
30450	318.29	0.38891	12.314	0.0334
30450	318.29	0.05159	1.6883	0.0101
30450	318.29	0.10162	3.3073	0.0131
30450	318.29	0.19899	6.4116	0.0199
30450	318.29	0.29938	9.5429	0.027
30450	318.29	0.38891	12.3103	0.0334
30460	498.15	0.06001	1.9766	0.0182
30460	498.15	0.07349	2.4133	0.0188
30460	498.15	0.12011	3.9314	0.0209
30460	498.15	0.15262	4.9788	0.0227
30460	498.15	0.18017	5.8586	0.0245
30460	498.15	0.23977	7.7499	0.0284
30460	498.15	0.30036	9.6529	0.0326
30460	498.15	0.06001	1.9755	0.0182
30460	498.15	0.07349	2.4131	0.0188
30460	498.15	0.12011	3.9304	0.0209
30460	498.15	0.15262	4.9769	0.0227
30460	498.15	0.18017	5.8566	0.0244
30460	498.15	0.23977	7.7501	0.0284
30460	498.15	0.30036	9.6533	0.0326

System: SRS-1,2,3,4,5-pentanepentol + water; phases: Liquid
Property: Mass density, kg/m3 (Liquid); method: VIBTUB:UFactor:0.25
Pressure, kPa	Temperature, K	Molality, mol/kg of SRS-1,2,3,4,5-pentanepentol	Mass density, kg/m3	uncertainty
330	298.17	0.05025	2.5073	0.0093
330	298.17	0.0991	4.9154	0.0128
330	298.17	0.20174	9.8984	0.0218
330	298.17	0.30105	14.6093	0.0309
330	298.17	0.40142	19.2696	0.0401
330	298.17	0.05025	2.5061	0.0093
330	298.17	0.0991	4.9134	0.0128
330	298.17	0.20174	9.8937	0.0218
330	298.17	0.30105	14.6093	0.0309
330	298.17	0.40142	19.268	0.0401
330	298.17	0.05025	2.5034	0.0093
330	298.17	0.0991	4.9123	0.0128
330	298.17	0.20174	9.8914	0.0218
330	298.17	0.30105	14.607	0.0309
330	298.17	0.40142	19.2668	0.0401
470	318.26	0.05025	2.4248	0.0092
470	318.26	0.0991	4.7629	0.0126
470	318.26	0.20174	9.5941	0.0213
470	318.26	0.30105	14.1711	0.0301
470	318.26	0.40142	18.6906	0.0389
470	338.17	0.05025	2.3745	0.0091
470	338.17	0.0991	4.6635	0.0124
470	338.17	0.20174	9.4013	0.0209
470	338.17	0.30105	13.8926	0.0295
470	338.17	0.40142	18.3172	0.0382
470	338.17	0.05025	2.3738	0.0091
470	338.17	0.20174	9.3989	0.0209
470	338.17	0.30105	13.8908	0.0295
470	338.17	0.40142	18.3156	0.0382
1830	408.16	0.05025	2.3162	0.0097
1830	408.16	0.0991	4.5351	0.0128
1830	408.16	0.20174	9.1541	0.0209
1830	408.16	0.30105	13.5027	0.0292
1830	408.16	0.40142	17.8009	0.0376
1830	408.16	0.05025	2.3085	0.0096
1830	408.16	0.0991	4.5309	0.0128
1830	408.16	0.20174	9.1516	0.0209
1830	408.16	0.30105	13.502	0.0292
1830	408.16	0.40142	17.7998	0.0376
1850	443.15	0.06001	2.7693	0.0113
1850	443.15	0.12002	5.5171	0.0152
1850	443.15	0.18034	8.2404	0.0199
1850	443.15	0.23492	10.6788	0.0244
1850	443.15	0.29978	13.5337	0.0298
1850	443.15	0.06001	2.7685	0.0113
1850	443.15	0.12002	5.5164	0.0152
1850	443.15	0.18034	8.2336	0.0199
1850	443.15	0.23492	10.6779	0.0244
1850	443.15	0.29978	13.5239	0.0298
1920	373.15	0.05025	2.3316	0.0093
1920	373.15	0.0991	4.5739	0.0125
1920	373.15	0.20174	9.2271	0.0208
1920	373.15	0.30105	13.6054	0.0292
1920	373.15	0.40142	17.953	0.0378
1920	373.15	0.05025	2.3298	0.0093
1920	373.15	0.0991	4.5705	0.0125
1920	373.15	0.20174	9.2222	0.0208
1920	373.15	0.30105	13.593	0.0292
1920	373.15	0.40142	17.9473	0.0378
2010	473.16	0.06001	2.8095	0.0133
2010	473.16	0.12002	5.5951	0.0169
2010	473.16	0.18034	8.3547	0.0214
2010	473.16	0.23492	10.8282	0.0258
2010	473.16	0.29978	13.7259	0.0311
2010	473.16	0.06001	2.8106	0.0133
2010	473.16	0.12002	5.5921	0.0169
2010	473.16	0.18034	8.3544	0.0214
2010	473.16	0.23492	10.8278	0.0258
2010	473.16	0.29978	13.7237	0.0311
2980	498.17	0.06001	2.8678	0.0164
2980	498.17	0.12002	5.7016	0.0195
2980	498.17	0.18034	8.5205	0.0238
2980	498.17	0.23492	11.0413	0.0281
2980	498.17	0.29978	13.999	0.0334
2980	498.17	0.06001	2.8608	0.0164
2980	498.17	0.12002	5.695	0.0195
2980	498.17	0.18034	8.5163	0.0238
2980	498.17	0.23492	11.0316	0.028
2980	498.17	0.29978	13.993	0.0334
2980	498.17	0.06001	2.8628	0.0164
2980	498.17	0.12002	5.6962	0.0195
2980	498.17	0.18034	8.5176	0.0238
2980	498.17	0.23492	11.033	0.028
2980	498.17	0.29978	13.9917	0.0333
5000	523.18	0.06001	2.9346	0.0213
5000	523.18	0.12002	5.8436	0.0236
5000	523.18	0.18034	8.7551	0.0277
5000	523.18	0.23492	11.3507	0.0319
5000	523.18	0.29978	14.3935	0.0372
5000	523.18	0.12002	5.8435	0.0236
5000	523.18	0.18034	8.7548	0.0277
5000	523.18	0.23492	11.3503	0.0319
5000	523.18	0.29978	14.3914	0.0372
6990	548.17	0.06028	3.1006	0.028
6990	548.17	0.12031	6.1588	0.0296
6990	548.17	0.18034	9.1752	0.0336
6990	548.17	0.23492	11.8808	0.0378
6990	548.17	0.29978	15.0481	0.043
6990	548.17	0.06028	3.1007	0.028
6990	548.17	0.12031	6.157	0.0296
6990	548.17	0.18034	9.1699	0.0336
6990	548.17	0.23492	11.8715	0.0377
6990	548.17	0.29978	15.0432	0.043
10200	573.17	0.06028	3.3101	0.0372
10200	573.17	0.12031	6.5627	0.0391
10200	573.17	0.18002	9.7794	0.0422
10200	573.17	0.24069	12.9848	0.047
10200	573.17	0.30063	16.1227	0.0521
10200	573.17	0.06028	3.3087	0.0372
10200	573.17	0.12031	6.5642	0.0391
10200	573.17	0.18002	9.7783	0.0422
10200	573.17	0.24069	12.9823	0.047
10200	573.17	0.30063	16.1243	0.0521
14930	298.16	0.05025	2.4742	0.0103
14930	298.16	0.0991	4.8643	0.0144
14930	298.16	0.20174	9.79	0.0241
14930	298.16	0.30105	14.4626	0.0337
14930	298.16	0.40142	19.0725	0.0434
14930	298.16	0.05025	2.4742	0.0103
14930	298.16	0.0991	4.8639	0.0144
14930	298.16	0.20174	9.7892	0.0241
14930	298.16	0.30105	14.4623	0.0337
14930	298.16	0.40142	19.0703	0.0434
14930	298.16	0.05025	2.474	0.0103
14930	298.16	0.0991	4.8643	0.0144
14930	298.16	0.20174	9.7887	0.0241
14930	298.16	0.30105	14.4605	0.0337
14930	298.16	0.40142	19.0719	0.0434
15060	373.16	0.05025	2.3157	0.0102
15060	373.16	0.0991	4.5461	0.014
15060	373.16	0.20174	9.1645	0.023
15060	373.16	0.30105	13.5214	0.0319
15060	373.16	0.40142	17.847	0.0409
15060	373.16	0.05025	2.3171	0.0102
15060	373.16	0.0991	4.5459	0.014
15060	373.16	0.20174	9.1651	0.023
15060	373.16	0.30105	13.5216	0.0319
15060	373.16	0.40142	17.844	0.0409
15120	318.26	0.05025	2.4084	0.0102
15120	318.26	0.0991	4.7233	0.0142
15120	318.26	0.20174	9.5211	0.0236
15120	318.26	0.30105	14.0558	0.0329
15120	318.26	0.40142	18.5378	0.0423
15120	318.26	0.05025	2.4079	0.0102
15120	318.26	0.0991	4.7238	0.0142
15120	318.26	0.20174	9.5213	0.0236
15120	318.26	0.30105	14.0569	0.033
15120	318.26	0.40142	18.543	0.0423
15120	318.26	0.05025	2.4071	0.0102
15120	318.26	0.0991	4.7178	0.0142
15120	318.26	0.20174	9.5085	0.0236
15120	318.26	0.30105	14.0566	0.0329
15120	318.26	0.40142	18.5427	0.0423
15160	338.17	0.05025	2.3591	0.0101
15160	338.17	0.0991	4.6761	0.0141
15160	338.17	0.20174	9.3366	0.0233
15160	338.17	0.30105	13.7967	0.0324
15160	338.17	0.40142	18.1945	0.0416
15160	338.17	0.05025	2.3588	0.0101
15160	338.17	0.0991	4.6581	0.0141
15160	338.17	0.20174	9.3368	0.0233
15160	338.17	0.30105	13.7925	0.0324
15160	338.17	0.40142	18.1935	0.0416
15400	573.17	0.06028	3.2152	0.0378
15400	573.17	0.12031	6.3729	0.0403
15400	573.17	0.18002	9.4916	0.0434
15400	573.17	0.24069	12.6069	0.0484
15400	573.17	0.30063	15.6577	0.0537
15400	573.17	0.06028	3.2114	0.0378
15400	573.17	0.12031	6.3744	0.0403
15400	573.17	0.18002	9.4921	0.0434
15400	573.17	0.24069	12.6073	0.0484
15400	573.17	0.30063	15.6573	0.0537
15660	473.16	0.06001	2.7798	0.0146
15660	473.16	0.12002	5.536	0.0189
15660	473.16	0.18034	8.2654	0.0239
15660	473.16	0.23492	10.7102	0.0287
15660	473.16	0.29978	13.5772	0.0344
15660	473.16	0.06001	2.7811	0.0146
15660	473.16	0.12002	5.5352	0.0189
15660	473.16	0.18034	8.2655	0.0239
15660	473.16	0.23492	10.7086	0.0287
15660	473.16	0.29978	13.5791	0.0344
15700	443.15	0.06001	2.7494	0.0124
15700	443.15	0.12002	5.4758	0.0171
15700	443.15	0.18034	8.1772	0.0223
15700	443.15	0.23492	10.5924	0.0271
15700	443.15	0.29978	13.4296	0.0329
15700	443.15	0.06001	2.749	0.0124
15700	443.15	0.12002	5.4747	0.0171
15700	443.15	0.18034	8.1763	0.0223
15700	443.15	0.23492	10.5926	0.0271
15700	443.15	0.29978	13.4303	0.0329
15700	443.15	0.06001	2.7513	0.0125
15700	443.15	0.12002	5.4739	0.0171
15870	408.16	0.06001	2.7489	0.0113
15870	408.16	0.12002	5.4647	0.0161
15870	408.16	0.18034	8.1579	0.0214
15870	408.16	0.23492	10.5646	0.0263
15870	408.16	0.29978	13.3898	0.0321
15870	408.16	0.06001	2.7466	0.0113
15870	408.16	0.12002	5.4625	0.0161
15870	408.16	0.18034	8.1569	0.0214
15870	408.16	0.23492	10.5635	0.0263
15870	408.16	0.29978	13.3887	0.0321
16150	523.15	0.06001	2.8837	0.0225
16150	523.15	0.12002	5.7386	0.0254
16150	523.15	0.18034	8.6005	0.0302
16150	523.15	0.23492	11.1532	0.0348
16150	523.15	0.29978	14.13	0.0405
16150	523.15	0.06001	2.8837	0.0225
16150	523.15	0.12002	5.7345	0.0254
16150	523.15	0.18034	8.5992	0.0302
16150	523.15	0.23492	11.1437	0.0348
16150	523.15	0.29978	14.1283	0.0405
16170	498.15	0.06001	2.8223	0.0178
16170	498.15	0.12002	5.6169	0.0215
16170	498.15	0.18034	8.3893	0.0265
16170	498.15	0.23492	10.8707	0.0311
16170	498.15	0.29978	13.7888	0.0369
16170	498.15	0.06001	2.8222	0.0178
16170	498.15	0.12002	5.6176	0.0215
16170	498.15	0.18034	8.3897	0.0265
16170	498.15	0.23492	10.8704	0.0311
16170	498.15	0.29978	13.7882	0.0369
18180	548.17	0.06028	3.0055	0.0292
18180	548.17	0.12031	5.9705	0.0319
18180	548.17	0.18034	8.8816	0.0362
18180	548.17	0.23492	11.5035	0.0408
18180	548.17	0.29978	14.5772	0.0465
18180	548.17	0.06028	3.0033	0.0292
18180	548.17	0.12031	5.9695	0.0319
18180	548.17	0.18034	8.8797	0.0362
18180	548.17	0.23492	11.5011	0.0408
18180	548.17	0.29978	14.5804	0.0465
20320	573.17	0.06028	3.1452	0.0383
20320	573.17	0.12031	6.2399	0.0414
20320	573.17	0.18002	9.2957	0.0446
20320	573.17	0.24069	12.3331	0.0498
20320	573.17	0.30063	15.3248	0.0553
20320	573.17	0.06028	3.1443	0.0383
20320	573.17	0.12031	6.2393	0.0414
20320	573.17	0.18002	9.2958	0.0446
20320	573.17	0.24069	12.3326	0.0498
20320	573.17	0.30063	15.3286	0.0553
25450	573.18	0.06028	3.0863	0.0389
25450	573.18	0.12031	6.1188	0.0424
25450	573.18	0.18002	9.1137	0.046
25450	573.18	0.24069	12.1027	0.0513
25450	573.18	0.30063	15.0236	0.057
25450	573.18	0.06028	3.0834	0.0389
25450	573.18	0.12031	6.1152	0.0424
25450	573.18	0.18002	9.1069	0.046
25450	573.18	0.24069	12.0945	0.0513
25450	573.18	0.30063	15.0235	0.057
25450	573.18	0.06028	3.0827	0.0389
25450	573.18	0.12031	6.1146	0.0424
25450	573.18	0.18002	9.1068	0.046
25450	573.18	0.24069	12.0935	0.0513
25450	573.18	0.30063	15.0235	0.057
30100	548.17	0.06028	2.9251	0.0305
30100	548.17	0.12031	5.8194	0.0345
30100	548.17	0.18002	8.6685	0.0391
30100	548.17	0.24069	11.5105	0.0449
30100	548.17	0.30063	14.3011	0.0508
30200	373.16	0.05025	2.3011	0.0112
30200	373.16	0.0991	4.5195	0.0158
30200	373.16	0.20174	9.1084	0.0261
30200	373.16	0.30105	13.4469	0.0361
30200	373.16	0.40142	17.7414	0.046
30200	408.16	0.06001	2.7269	0.0125
30200	408.16	0.12002	5.4243	0.0182
30200	408.16	0.18034	8.0976	0.0241
30200	408.16	0.23492	10.4926	0.0296
30200	408.16	0.29978	13.2988	0.036
30200	573.16	0.06028	3.0375	0.0394
30200	573.16	0.12031	6.0231	0.0434
30200	573.16	0.18002	8.9828	0.0475
30200	573.16	0.24069	11.9177	0.0527
30200	573.16	0.30063	14.7999	0.0587
30200	373.16	0.05025	2.2999	0.0112
30200	373.16	0.0991	4.5167	0.0158
30200	373.16	0.20174	9.1039	0.026
30200	373.16	0.30105	13.4362	0.036
30200	373.16	0.40142	17.7298	0.046
30200	408.16	0.06001	2.7283	0.0125
30200	408.16	0.12002	5.4241	0.0182
30200	408.16	0.18034	8.0987	0.0241
30200	408.16	0.23492	10.4923	0.0296
30200	408.16	0.29978	13.2951	0.036
30200	573.16	0.06028	3.0344	0.0394
30200	573.16	0.12031	6.026	0.0434
30200	573.16	0.18002	8.9804	0.0475
30200	573.16	0.24069	11.9085	0.0527
30200	573.16	0.30063	14.8019	0.0587
30260	473.16	0.06001	2.7484	0.0161
30260	473.16	0.12002	5.4725	0.0211
30260	473.16	0.18034	8.175	0.027
30260	473.16	0.23492	10.5913	0.0324
30260	473.16	0.29978	13.4321	0.0388
30260	473.16	0.06001	2.7495	0.0161
30260	473.16	0.12002	5.4735	0.0211
30260	473.16	0.18034	8.1736	0.027
30260	473.16	0.23492	10.5922	0.0324
30260	473.16	0.29978	13.4316	0.0388
30290	443.15	0.06001	2.7308	0.0137
30290	443.15	0.12002	5.4352	0.0193
30290	443.15	0.18034	8.1139	0.0252
30290	443.15	0.23492	10.5126	0.0306
30290	443.15	0.29978	13.3228	0.037
30290	443.15	0.06001	2.73	0.0137
30290	443.15	0.12002	5.4363	0.0193
30290	443.15	0.18034	8.1182	0.0252
30290	443.15	0.23492	10.5119	0.0306
30290	443.15	0.29978	13.3264	0.037
30300	338.17	0.05025	2.3415	0.0112
30300	338.17	0.0991	4.5999	0.0159
30300	338.17	0.20174	9.2671	0.0264
30300	338.17	0.30105	13.6851	0.0366
30300	338.17	0.40142	18.0541	0.0467
30300	338.17	0.05025	2.3401	0.0112
30300	338.17	0.0991	4.5995	0.0159
30300	338.17	0.20174	9.2696	0.0264
30300	338.17	0.30105	13.6855	0.0366
30300	338.17	0.40142	18.0621	0.0468
30400	298.16	0.05025	2.4486	0.0114
30400	298.16	0.0991	4.8128	0.0164
30400	298.16	0.20174	9.688	0.0273
30400	298.16	0.30105	14.3112	0.0381
30400	298.16	0.40142	18.8738	0.0487
30400	523.15	0.06001	2.8242	0.024
30400	523.15	0.12002	5.6208	0.0278
30400	523.15	0.18034	8.4285	0.0335
30400	523.15	0.23492	10.9199	0.0388
30400	523.15	0.29978	13.8389	0.0452
30400	298.16	0.05025	2.4469	0.0114
30400	298.16	0.0991	4.8121	0.0164
30400	298.16	0.20174	9.688	0.0273
30400	298.16	0.30105	14.3094	0.038
30400	298.16	0.40142	18.8741	0.0487
30400	523.15	0.06001	2.8274	0.024
30400	523.15	0.12002	5.623	0.0278
30400	523.15	0.18034	8.4272	0.0335
30400	523.15	0.23492	10.9166	0.0388
30400	523.15	0.29978	13.8386	0.0452
30400	298.16	0.05025	2.4475	0.0114
30400	298.16	0.0991	4.812	0.0164
30400	298.16	0.20174	9.6867	0.0273
30400	298.16	0.30105	14.3095	0.038
30400	298.16	0.40142	18.8707	0.0487
30450	318.29	0.05025	2.3877	0.0113
30450	318.29	0.0991	4.6865	0.0161
30450	318.29	0.20174	9.4474	0.0268
30450	318.29	0.30105	13.9439	0.0372
30450	318.29	0.40142	18.3906	0.0476
30450	498.16	0.06001	2.7877	0.0193
30450	498.16	0.12002	5.55	0.0239
30450	498.16	0.18034	8.2867	0.0296
30450	498.16	0.23492	10.7379	0.035
30450	498.16	0.29978	13.6185	0.0414
30450	318.29	0.05025	2.3874	0.0113
30450	318.29	0.0991	4.6863	0.0161
30450	318.29	0.20174	9.4555	0.0268
30450	318.29	0.30105	13.9417	0.0372
30450	318.29	0.40142	18.3817	0.0476
30450	498.16	0.06001	2.7858	0.0193
30450	498.16	0.12002	5.5505	0.0239
30450	498.16	0.18034	8.2842	0.0296
30450	498.16	0.23492	10.7356	0.035
30450	498.16	0.29978	13.6165	0.0414
30450	318.29	0.05025	2.388	0.0113
30450	318.29	0.0991	4.6864	0.0161
30450	318.29	0.20174	9.4552	0.0268
30450	318.29	0.30105	13.943	0.0372
30450	318.29	0.40142	18.3862	0.0476
