Measured thermophysical data. Thermophysical property characterization of aqueous amino acid salt solutions containing .alpha.-aminobutyric acid
Source: J. Chem. Thermodyn., 2015, 10.1016/j.jct.2014.10.005
Compound 1: sodium DL-.alpha.-aminobutyrate, C4H8NNaO2, InChI=1S/C4H9NO2.Na/c1-2-3(5)4(6)7;/h3H,2,5H2,1H3,(H,6,7);/q;+1/p-1, purity 98%
Compound 2: potassium 2-aminobutanoate, C4H8KNO2, InChI=1S/C4H9NO2.K/c1-2-3(5)4(6)7;/h3H,2,5H2,1H3,(H,6,7);/q;+1/p-1, purity 98%
Compound 3: water, H2O, InChI=1S/H2O/h1H2

System: water; phases: Liquid
Fixed: Pressure, kPa = 101.3
Property: Mass density, kg/m3 (Liquid); method: Vibrating tube method
Temperature, K	Mass density, kg/m3	uncertainty
303.15	995.5	1.6
308.15	993.9	1.6
313.15	992.3	1.6
318.15	990.2	1.6
323.15	988.1	1.6
328.15	985.8	1.6
333.15	983.3	1.6
338.15	980.6	1.6
343.15	977.8	1.6

System: water; phases: Liquid
Fixed: Pressure, kPa = 101.3
Property: Refractive index (Na D-line) (Liquid); method: Standard Abbe refractometry
Temperature, K	Refractive index (Na D-line)	uncertainty
303.15	1.33188	0.00031
308.15	1.33125	0.00031
313.15	1.33053	0.00031
318.15	1.32974	0.00031
323.15	1.32889	0.00031
328.15	1.32799	0.00031
333.15	1.32703	0.00031
338.15	1.32604	0.00031
343.15	1.32494	0.00031

System: water; phases: Liquid
Fixed: Pressure, kPa = 101.3
Property: Viscosity, Pa*s (Liquid); method: Falling or rolling sphere viscometry
Temperature, K	Viscosity, Pa*s	uncertainty
303.15	0.000798	1.7e-05
308.15	0.000716	1.5e-05
313.15	0.000653	1.4e-05
318.15	0.000594	1.3e-05
323.15	0.000547	1.2e-05
328.15	0.000502	1.1e-05
333.15	0.000466	1e-05
338.15	0.000435	9e-06
343.15	0.000408	9e-06

System: water + potassium 2-aminobutanoate; phases: Liquid
Fixed: Pressure, kPa = 101.3
Property: Mass density, kg/m3 (Liquid); method: Vibrating tube method
Temperature, K	Mole fraction of potassium 2-aminobutanoate	Mass density, kg/m3	uncertainty
303.15	0	995.5	1.6
303.15	0.009	1022.6	5.9
303.15	0.019	1049.6	5.5
303.15	0.029	1075.6	5.3
303.15	0.039	1100.6	5
303.15	0.05	1125.6	5
303.15	0.06	1150.3	5.2
308.15	0	993.9	1.6
308.15	0.009	1020.9	5.9
308.15	0.019	1047.7	5.5
308.15	0.029	1073.5	5.3
308.15	0.039	1098.3	5
308.15	0.05	1123.1	4.9
308.15	0.06	1147.5	5.1
313.15	0	992.3	1.6
313.15	0.009	1019	5.8
313.15	0.019	1045.6	5.5
313.15	0.029	1071.2	5.3
313.15	0.039	1095.8	5
313.15	0.05	1120.5	4.9
313.15	0.06	1144.7	5.1
318.15	0	990.2	1.6
318.15	0.009	1016.9	5.8
318.15	0.019	1043.3	5.4
318.15	0.029	1068.8	5.2
318.15	0.039	1093.2	4.9
318.15	0.05	1117.7	4.9
318.15	0.06	1141.8	5.1
323.15	0	988.1	1.6
323.15	0.009	1014.7	5.8
323.15	0.019	1041	5.4
323.15	0.029	1066.2	5.2
323.15	0.039	1090.5	4.9
323.15	0.05	1114.9	4.9
323.15	0.06	1138.8	5
328.15	0	985.8	1.6
328.15	0.009	1012.2	5.8
328.15	0.019	1038.4	5.4
328.15	0.029	1063.6	5.2
328.15	0.039	1087.8	4.9
328.15	0.05	1112	4.8
328.15	0.06	1135.8	5
333.15	0	983.3	1.6
333.15	0.009	1009.6	5.7
333.15	0.019	1035.6	5.4
333.15	0.029	1061	5.2
333.15	0.039	1085	4.8
333.15	0.05	1108.9	4.8
333.15	0.06	1132.6	5
338.15	0	980.6	1.6
338.15	0.009	1006.9	5.7
338.15	0.019	1032.7	5.4
338.15	0.029	1058	5.2
338.15	0.039	1082	4.8
338.15	0.05	1105.9	4.8
338.15	0.06	1129.5	5
343.15	0	977.8	1.6
343.15	0.009	1003.9	5.7
343.15	0.019	1029.8	5.4
343.15	0.029	1055	5.2
343.15	0.039	1079	4.8
343.15	0.05	1102.7	4.8
343.15	0.06	1126.2	5

System: water + potassium 2-aminobutanoate; phases: Liquid
Fixed: Pressure, kPa = 101.3
Property: Refractive index (Na D-line) (Liquid); method: Standard Abbe refractometry
Temperature, K	Mole fraction of potassium 2-aminobutanoate	Refractive index (Na D-line)	uncertainty
303.15	0	1.33188	0.00031
303.15	0.009	1.34291	0.00217
303.15	0.019	1.35229	0.00205
303.15	0.028	1.36221	0.00207
303.15	0.038	1.37178	0.00182
303.15	0.049	1.38107	0.00169
303.15	0.06	1.39004	0.00166
308.15	0	1.33125	0.00031
308.15	0.009	1.34227	0.00215
308.15	0.019	1.35154	0.00203
308.15	0.028	1.3614	0.00206
308.15	0.038	1.3709	0.00179
308.15	0.049	1.37991	0.00167
308.15	0.06	1.389	0.00167
313.15	0	1.33053	0.00031
313.15	0.009	1.34079	0.00215
313.15	0.019	1.35075	0.0021
313.15	0.028	1.36053	0.00204
313.15	0.038	1.36999	0.00177
313.15	0.049	1.37887	0.00165
313.15	0.06	1.38777	0.00166
318.15	0	1.32974	0.00031
318.15	0.009	1.33997	0.00214
318.15	0.019	1.34989	0.00209
318.15	0.028	1.35964	0.00204
318.15	0.038	1.36906	0.00176
318.15	0.049	1.37787	0.00164
318.15	0.06	1.38677	0.00164
323.15	0	1.32889	0.00031
323.15	0.009	1.33911	0.00213
323.15	0.019	1.34899	0.00208
323.15	0.028	1.35868	0.00203
323.15	0.038	1.3681	0.00175
323.15	0.049	1.37685	0.00163
323.15	0.06	1.38568	0.00163
328.15	0	1.32799	0.00031
328.15	0.009	1.3382	0.00213
328.15	0.019	1.34805	0.00208
328.15	0.028	1.35772	0.00203
328.15	0.038	1.36712	0.00175
328.15	0.049	1.3758	0.00161
328.15	0.06	1.38449	0.00163
333.15	0	1.32703	0.00031
333.15	0.009	1.33723	0.00213
333.15	0.019	1.34709	0.00207
333.15	0.028	1.35674	0.00203
333.15	0.038	1.36616	0.00174
333.15	0.049	1.37475	0.00162
333.15	0.06	1.38367	0.00164
338.15	0	1.32604	0.00031
338.15	0.009	1.33622	0.00213
338.15	0.019	1.3461	0.00208
338.15	0.028	1.35577	0.00203
338.15	0.038	1.36519	0.00173
338.15	0.049	1.37368	0.00161
338.15	0.06	1.38257	0.00165
343.15	0	1.32494	0.00031
343.15	0.009	1.33509	0.00214
343.15	0.019	1.34505	0.0021
343.15	0.028	1.35481	0.00204
343.15	0.038	1.36419	0.00172
343.15	0.049	1.37264	0.0016
343.15	0.06	1.38146	0.00163

System: water + potassium 2-aminobutanoate; phases: Liquid
Fixed: Pressure, kPa = 101.3
Fixed: Frequency, MHz = 6e-05
Property: Electrical conductivity, S/m (Liquid); method: Alternating current cell with electrodes
Temperature, K	Mole fraction of potassium 2-aminobutanoate	Electrical conductivity, S/m	uncertainty
303.15	0.009	3.52	0.57
303.15	0.019	6.36	0.48
303.15	0.028	7.86	0.28
303.15	0.038	8.59	0.2
303.15	0.049	8.88	0.19
303.15	0.06	8.39	0.19
308.15	0.009	3.88	0.63
308.15	0.019	6.99	0.53
308.15	0.028	8.66	0.32
308.15	0.038	9.52	0.23
308.15	0.049	9.88	0.2
308.15	0.06	9.42	0.21
313.15	0.009	4.26	0.68
313.15	0.019	7.64	0.58
313.15	0.028	9.49	0.35
313.15	0.038	10.48	0.25
313.15	0.049	10.93	0.22
313.15	0.06	10.48	0.23
318.15	0.009	4.64	0.73
318.15	0.019	8.28	0.63
318.15	0.028	10.33	0.39
318.15	0.038	11.46	0.28
318.15	0.049	12	0.24
318.15	0.06	11.57	0.25
323.15	0.009	5.01	0.79
323.15	0.019	8.94	0.68
323.15	0.028	11.19	0.43
323.15	0.038	12.45	0.31
323.15	0.049	13.1	0.27
323.15	0.06	12.69	0.27
328.15	0.009	5.4	0.85
328.15	0.019	9.61	0.73
328.15	0.028	12.06	0.47
328.15	0.038	13.46	0.34
328.15	0.049	14.22	0.29
328.15	0.06	13.84	0.29
333.15	0.009	5.79	0.91
333.15	0.019	10.28	0.79
333.15	0.028	12.95	0.51
333.15	0.038	14.48	0.37
333.15	0.049	15.35	0.31
333.15	0.06	15	0.31
338.15	0.009	6.18	0.96
338.15	0.019	10.95	0.85
338.15	0.028	13.92	0.55
338.15	0.038	15.51	0.4
338.15	0.049	16.49	0.34
338.15	0.06	16.18	0.33
343.15	0.009	6.66	1
343.15	0.019	11.62	0.88
343.15	0.028	14.72	0.59
343.15	0.038	16.54	0.43
343.15	0.049	17.63	0.36
343.15	0.06	17.36	0.35

System: water + potassium 2-aminobutanoate; phases: Liquid
Fixed: Pressure, kPa = 101.3
Property: Viscosity, Pa*s (Liquid); method: Falling or rolling sphere viscometry
Temperature, K	Mole fraction of potassium 2-aminobutanoate	Viscosity, Pa*s	uncertainty
303.15	0	0.000798	1.7e-05
303.15	0.009	0.000988	5e-05
303.15	0.019	0.001223	6.2e-05
303.15	0.029	0.001552	8.2e-05
303.15	0.039	0.001974	0.000101
303.15	0.05	0.002518	0.000137
303.15	0.06	0.003297	0.000171
308.15	0	0.000716	1.5e-05
308.15	0.009	0.000884	4.4e-05
308.15	0.019	0.001093	5.6e-05
308.15	0.029	0.001394	7.1e-05
308.15	0.039	0.00174	8.6e-05
308.15	0.05	0.002206	0.000118
308.15	0.06	0.002877	0.000153
313.15	0	0.000653	1.4e-05
313.15	0.009	0.000803	3.9e-05
313.15	0.019	0.000984	5e-05
313.15	0.029	0.001257	6.3e-05
313.15	0.039	0.001559	7.5e-05
313.15	0.05	0.001962	0.000102
313.15	0.06	0.002544	0.000131
318.15	0	0.000594	1.3e-05
318.15	0.009	0.000728	3.5e-05
318.15	0.019	0.00089	4.5e-05
318.15	0.029	0.001133	5.6e-05
318.15	0.039	0.001399	6.7e-05
318.15	0.05	0.001757	9e-05
318.15	0.06	0.002257	0.000114
323.15	0	0.000547	1.2e-05
323.15	0.009	0.00067	3.1e-05
323.15	0.019	0.000813	4e-05
323.15	0.029	0.001032	5.1e-05
323.15	0.039	0.001272	5.9e-05
323.15	0.05	0.001585	7.8e-05
323.15	0.06	0.002017	0.0001
328.15	0	0.000502	1.1e-05
328.15	0.009	0.000617	2.9e-05
328.15	0.019	0.000745	3.7e-05
328.15	0.029	0.000953	4.7e-05
328.15	0.039	0.001165	5.3e-05
328.15	0.05	0.001447	7e-05
328.15	0.06	0.001834	8.8e-05
333.15	0	0.000466	1e-05
333.15	0.009	0.000572	2.6e-05
333.15	0.019	0.000688	3.3e-05
333.15	0.029	0.000869	4.2e-05
333.15	0.039	0.001066	4.9e-05
333.15	0.05	0.001326	6.4e-05
333.15	0.06	0.001672	8e-05
338.15	0	0.000435	9e-06
338.15	0.009	0.000533	2.4e-05
338.15	0.019	0.000637	3e-05
338.15	0.029	0.0008	3.8e-05
338.15	0.039	0.000982	4.4e-05
338.15	0.05	0.001204	5.9e-05
338.15	0.06	0.001545	7.6e-05
343.15	0	0.000408	9e-06
343.15	0.009	0.000499	2.2e-05
343.15	0.019	0.000592	2.7e-05
343.15	0.029	0.000743	3.5e-05
343.15	0.039	0.000906	4e-05
343.15	0.05	0.00111	5.4e-05
343.15	0.06	0.001414	6.8e-05

System: water + sodium DL-.alpha.-aminobutyrate; phases: Liquid
Fixed: Pressure, kPa = 101.3
Property: Mass density, kg/m3 (Liquid); method: Vibrating tube method
Temperature, K	Mole fraction of sodium DL-.alpha.-aminobutyrate	Mass density, kg/m3	uncertainty
303.15	0	995.5	1.6
303.15	0.009	1019.8	5.5
303.15	0.018	1043.1	5
303.15	0.029	1066.9	4.7
303.15	0.039	1089.6	4.5
303.15	0.05	1111.1	4
303.15	0.062	1131.9	3.8
308.15	0	993.9	1.6
308.15	0.009	1017.6	5.5
308.15	0.018	1041.2	4.9
308.15	0.029	1064.4	4.6
308.15	0.039	1086.5	4.5
308.15	0.05	1108.4	4
308.15	0.062	1129	3.8
313.15	0	992.3	1.6
313.15	0.009	1015.7	5.4
313.15	0.018	1039	4.9
313.15	0.029	1062	4.6
313.15	0.039	1083.9	4.4
313.15	0.05	1105.5	4
313.15	0.062	1126	3.8
318.15	0	990.2	1.6
318.15	0.009	1013.5	5.4
318.15	0.018	1036.6	4.9
318.15	0.029	1059.6	4.5
318.15	0.039	1081.2	4.3
318.15	0.05	1102.1	4
318.15	0.062	1122.8	3.8
323.15	0	988.1	1.6
323.15	0.009	1011.2	5.4
323.15	0.018	1034.2	4.8
323.15	0.029	1057	4.5
323.15	0.039	1078.4	4.4
323.15	0.05	1099.7	3.9
323.15	0.062	1119.6	3.7
328.15	0	985.8	1.6
328.15	0.009	1008.8	5.3
328.15	0.018	1031.7	4.8
328.15	0.029	1054.2	4.5
328.15	0.039	1075.5	4.3
328.15	0.05	1096.7	3.9
328.15	0.062	1116.4	3.6
333.15	0	983.3	1.6
333.15	0.009	1006.3	5.3
333.15	0.018	1029.1	4.8
333.15	0.029	1051.4	4.4
333.15	0.039	1072.6	4.3
333.15	0.05	1093.5	3.9
333.15	0.062	1113.1	3.6
338.15	0	980.6	1.6
338.15	0.009	1003.6	5.3
338.15	0.018	1026.2	4.7
338.15	0.029	1048.5	4.4
338.15	0.039	1069.6	4.3
338.15	0.05	1090.3	3.8
338.15	0.062	1109.8	3.6
343.15	0	977.8	1.6
343.15	0.009	1000.8	5.3
343.15	0.018	1023.2	4.7
343.15	0.029	1045.5	4.4
343.15	0.039	1066.8	4.3
343.15	0.05	1087	3.8
343.15	0.062	1106.4	3.6

System: water + sodium DL-.alpha.-aminobutyrate; phases: Liquid
Fixed: Pressure, kPa = 101.3
Property: Refractive index (Na D-line) (Liquid); method: Standard Abbe refractometry
Temperature, K	Mole fraction of sodium DL-.alpha.-aminobutyrate	Refractive index (Na D-line)	uncertainty
303.15	0	1.33188	0.00031
303.15	0.009	1.3422	0.00215
303.15	0.019	1.35214	0.00198
303.15	0.029	1.36177	0.00194
303.15	0.039	1.37133	0.00184
303.15	0.05	1.3808	0.0016
303.15	0.062	1.38942	0.00147
308.15	0	1.33125	0.00031
308.15	0.009	1.34148	0.00213
308.15	0.019	1.35134	0.00197
308.15	0.029	1.36092	0.00193
308.15	0.039	1.3704	0.00182
308.15	0.05	1.37979	0.00159
308.15	0.062	1.38836	0.00146
313.15	0	1.33053	0.00031
313.15	0.009	1.3407	0.00212
313.15	0.019	1.35051	0.00196
313.15	0.029	1.36004	0.00192
313.15	0.039	1.36944	0.00179
313.15	0.05	1.37856	0.00158
313.15	0.062	1.38725	0.00148
318.15	0	1.32974	0.00031
318.15	0.009	1.33988	0.00212
318.15	0.019	1.34966	0.00195
318.15	0.029	1.35913	0.0019
318.15	0.039	1.36842	0.00178
318.15	0.05	1.3776	0.00157
318.15	0.062	1.38612	0.00145
323.15	0	1.32889	0.00031
323.15	0.009	1.33902	0.00211
323.15	0.019	1.34877	0.00194
323.15	0.029	1.35816	0.00188
323.15	0.039	1.36736	0.00173
323.15	0.05	1.37611	0.00156
323.15	0.062	1.38496	0.00151
328.15	0	1.32799	0.00031
328.15	0.009	1.33812	0.00211
328.15	0.019	1.34783	0.00193
328.15	0.029	1.35716	0.00188
328.15	0.039	1.36634	0.00173
328.15	0.05	1.37506	0.00155
328.15	0.062	1.38381	0.00149
333.15	0	1.32703	0.00031
333.15	0.009	1.33718	0.00211
333.15	0.019	1.34688	0.00192
333.15	0.029	1.35617	0.00187
333.15	0.039	1.36533	0.00173
333.15	0.05	1.3741	0.00153
333.15	0.062	1.38262	0.00145
338.15	0	1.32604	0.00031
338.15	0.009	1.33627	0.00211
338.15	0.019	1.34589	0.00192
338.15	0.029	1.35521	0.00186
338.15	0.039	1.36425	0.00173
338.15	0.05	1.3731	0.00152
338.15	0.062	1.38138	0.00141
343.15	0	1.32494	0.00031
343.15	0.009	1.33523	0.00212
343.15	0.019	1.34488	0.00193
343.15	0.029	1.35423	0.00185
343.15	0.039	1.36315	0.00173
343.15	0.05	1.37206	0.0015
343.15	0.062	1.38006	0.00137

System: water + sodium DL-.alpha.-aminobutyrate; phases: Liquid
Fixed: Pressure, kPa = 101.3
Fixed: Frequency, MHz = 6e-05
Property: Electrical conductivity, S/m (Liquid); method: Alternating current cell with electrodes
Temperature, K	Mole fraction of sodium DL-.alpha.-aminobutyrate	Electrical conductivity, S/m	uncertainty
303.15	0.009	2.65	0.3
303.15	0.019	4.11	0.24
303.15	0.029	4.84	0.14
303.15	0.039	5.04	0.11
303.15	0.05	4.84	0.11
303.15	0.062	4.44	0.11
308.15	0.009	2.94	0.33
308.15	0.019	4.58	0.26
308.15	0.029	5.41	0.16
308.15	0.039	5.7	0.12
308.15	0.05	5.54	0.12
308.15	0.062	5.14	0.12
313.15	0.009	3.24	0.37
313.15	0.019	5.05	0.3
313.15	0.029	6.02	0.18
313.15	0.039	6.4	0.13
313.15	0.05	6.29	0.14
313.15	0.062	5.89	0.14
318.15	0.009	3.54	0.41
318.15	0.019	5.55	0.33
318.15	0.029	6.66	0.21
318.15	0.039	7.12	0.15
318.15	0.05	7.06	0.15
318.15	0.062	6.68	0.15
323.15	0.009	3.85	0.45
323.15	0.019	6.06	0.37
323.15	0.029	7.3	0.23
323.15	0.039	7.87	0.17
323.15	0.05	7.86	0.16
323.15	0.062	7.5	0.16
328.15	0.009	4.17	0.49
328.15	0.019	6.58	0.4
328.15	0.029	7.97	0.26
328.15	0.039	8.64	0.19
328.15	0.05	8.69	0.18
328.15	0.062	8.35	0.18
333.15	0.009	4.5	0.53
333.15	0.019	7.11	0.44
333.15	0.029	8.65	0.29
333.15	0.039	9.42	0.21
333.15	0.05	9.53	0.19
333.15	0.062	9.23	0.19
338.15	0.009	4.83	0.57
338.15	0.019	7.65	0.48
338.15	0.029	9.34	0.32
338.15	0.039	10.21	0.23
338.15	0.05	10.39	0.21
338.15	0.062	10.12	0.21
343.15	0.009	5.15	0.62
343.15	0.019	8.19	0.51
343.15	0.029	10.03	0.35
343.15	0.039	11.02	0.25
343.15	0.05	11.27	0.23
343.15	0.062	11.03	0.23

System: water + sodium DL-.alpha.-aminobutyrate; phases: Liquid
Fixed: Pressure, kPa = 101.3
Property: Viscosity, Pa*s (Liquid); method: Falling or rolling sphere viscometry
Temperature, K	Mole fraction of sodium DL-.alpha.-aminobutyrate	Viscosity, Pa*s	uncertainty
303.15	0	0.000798	1.7e-05
303.15	0.009	0.001034	6.6e-05
303.15	0.018	0.00136	8.3e-05
303.15	0.029	0.001815	0.000114
303.15	0.039	0.002492	0.00017
303.15	0.05	0.003501	0.000227
303.15	0.062	0.004954	0.000264
308.15	0	0.000716	1.5e-05
308.15	0.009	0.000924	5.9e-05
308.15	0.018	0.001217	7.2e-05
308.15	0.029	0.001595	9.6e-05
308.15	0.039	0.002167	0.000142
308.15	0.05	0.003005	0.000191
308.15	0.062	0.004223	0.00023
313.15	0	0.000653	1.4e-05
313.15	0.009	0.000836	5.2e-05
313.15	0.018	0.001093	6.3e-05
313.15	0.029	0.001417	8.3e-05
313.15	0.039	0.00191	0.000121
313.15	0.05	0.002608	0.000161
313.15	0.062	0.003646	0.000195
318.15	0	0.000594	1.3e-05
318.15	0.009	0.00076	4.6e-05
318.15	0.018	0.00098	5.5e-05
318.15	0.029	0.00127	7.3e-05
318.15	0.039	0.001695	0.000104
318.15	0.05	0.002295	0.000138
318.15	0.062	0.003173	0.000165
323.15	0	0.000547	1.2e-05
323.15	0.009	0.000697	4.2e-05
323.15	0.018	0.0009	4.9e-05
323.15	0.029	0.001143	6.3e-05
323.15	0.039	0.001516	9.1e-05
323.15	0.05	0.002029	0.000118
323.15	0.062	0.002777	0.000143
328.15	0	0.000502	1.1e-05
328.15	0.009	0.000639	3.7e-05
328.15	0.018	0.000815	4.4e-05
328.15	0.029	0.001042	5.8e-05
328.15	0.039	0.001376	8e-05
328.15	0.05	0.001823	0.000103
328.15	0.062	0.002471	0.000122
333.15	0	0.000466	1e-05
333.15	0.009	0.000591	3.5e-05
333.15	0.018	0.000756	3.9e-05
333.15	0.029	0.00095	5.1e-05
333.15	0.039	0.001246	7.1e-05
333.15	0.05	0.001637	9.1e-05
333.15	0.062	0.002206	0.000107
338.15	0	0.000435	9e-06
338.15	0.009	0.000552	3.2e-05
338.15	0.018	0.0007	3.5e-05
338.15	0.029	0.000872	4.5e-05
338.15	0.039	0.001137	6.3e-05
338.15	0.05	0.001481	7.9e-05
338.15	0.062	0.001971	9.4e-05
343.15	0	0.000408	9e-06
343.15	0.009	0.000514	2.9e-05
343.15	0.018	0.000647	3.2e-05
343.15	0.029	0.000803	4.1e-05
343.15	0.039	0.001042	5.7e-05
343.15	0.05	0.001349	7e-05
343.15	0.062	0.001775	8e-05
