Measured thermophysical data. (Liquid + liquid) equilibria of (water + butyric acid + isoamyl alcohol) ternary system
Source: J. Chem. Thermodyn., 2005, 10.1016/j.jct.2004.09.022
Compound 1: water, H2O, InChI=1S/H2O/h1H2
Compound 2: butanoic acid, C4H8O2, InChI=1S/C4H8O2/c1-2-3-4(5)6/h2-3H2,1H3,(H,5,6)
Compound 3: 3-methylbutan-1-ol, C5H12O, InChI=1S/C5H12O/c1-5(2)3-4-6/h5-6H,3-4H2,1-2H3

System: water; phases: Liquid, Gas
Property: Normal boiling temperature, K (Liquid); method: OTHER:UFactor:8:sMethod:Fisher boiling point apparatus
Normal boiling temperature, K	uncertainty
373.2	0.2

System: water; phases: Liquid
Property: Refractive index (Na D-line) (Liquid); method: Standard Abbe refractometry
Temperature, K	Pressure, kPa	Refractive index (Na D-line)	uncertainty
293.15	101.325	1.3324	0.0008

System: water; phases: Liquid
Property: Mass density, kg/m3 (Liquid); method: VIBTUB:UFactor:4
Temperature, K	Pressure, kPa	Mass density, kg/m3	uncertainty
293.15	101.325	999.9	0.6

System: butanoic acid; phases: Liquid, Gas
Property: Normal boiling temperature, K (Liquid); method: Fisher boiling point apparatus
Normal boiling temperature, K	uncertainty
436.67	0.2

System: butanoic acid; phases: Liquid
Property: Refractive index (Na D-line) (Liquid); method: Standard Abbe refractometry
Temperature, K	Pressure, kPa	Refractive index (Na D-line)	uncertainty
293.15	101.325	1.3982	0.0008

System: butanoic acid; phases: Liquid
Property: Mass density, kg/m3 (Liquid); method: Vibrating tube method
Temperature, K	Pressure, kPa	Mass density, kg/m3	uncertainty
293.15	101.325	957.6	2.2

System: 3-methylbutan-1-ol; phases: Liquid, Gas
Property: Normal boiling temperature, K (Liquid); method: Fisher boiling point apparatus
Normal boiling temperature, K	uncertainty
404.55	0.2

System: 3-methylbutan-1-ol; phases: Liquid
Property: Refractive index (Na D-line) (Liquid); method: Standard Abbe refractometry
Temperature, K	Pressure, kPa	Refractive index (Na D-line)	uncertainty
293.15	101.325	1.4075	0.0008

System: 3-methylbutan-1-ol; phases: Liquid
Property: Mass density, kg/m3 (Liquid); method: Vibrating tube method
Temperature, K	Pressure, kPa	Mass density, kg/m3	uncertainty
293.15	101.325	808.4	2.2

System: butanoic acid + 3-methylbutan-1-ol + water; phases: Liquid mixture 2, Liquid mixture 1
Fixed: Pressure, kPa = 101.3
Property: Mass fraction of water (Liquid mixture 2); method: CHROM:UFactor:8
Property: Mass fraction of butanoic acid (Liquid mixture 1); method: CHROM:UFactor:8
Property: Mass fraction of water (Liquid mixture 1); method: CHROM:UFactor:8
Temperature, K	Mass fraction of butanoic acid	Mass fraction of water	uncertainty	Mass fraction of butanoic acid	uncertainty	Mass fraction of water	uncertainty
298.15	0.1148	0.0852	0.0068	0.0082	0.0007	0.9677	
298.15	0.238	0.0849	0.0068	0.0195	0.0016	0.9563	
298.15	0.325	0.0938	0.0075	0.0286	0.0023	0.947	
298.15	0.4105	0.11	0.0088	0.0377	0.003	0.9379	
298.15	0.4549	0.1253	0.01	0.0477	0.0038	0.9277	
298.15	0.5115	0.142	0.0114	0.0515	0.0041	0.9238	
298.15	0.5547	0.1601	0.0128	0.0554	0.0044	0.9197	
308.15	0.3108	0.1227	0.0098	0.0338	0.0027	0.9469	
308.15	0.3851	0.1269	0.0102	0.0386	0.0031	0.942	
308.15	0.4332	0.1483	0.0119	0.0472	0.0038	0.9334	
308.15	0.4984	0.1611	0.0129	0.0506	0.004	0.9298	
308.15	0.5351	0.1809	0.0145	0.0551	0.0044	0.9252	
308.15	0.1124	0.0966	0.0077	0.0093	0.0007	0.9716	
308.15	0.2185	0.1055	0.0084	0.0196	0.0016	0.9613	
318.15	0.3002	0.1359	0.0109	0.031	0.0025	0.9497	
318.15	0.38	0.1559	0.0125	0.0386	0.0031	0.942	
318.15	0.4304	0.1693	0.0135	0.0481	0.0038	0.9324	
318.15	0.22	0.125	0.01	0.0195	0.0016	0.9612	
318.15	0.1164	0.1135	0.0091	0.0093	0.0007	0.9715	
318.15	0.4803	0.1946	0.0156	0.0543	0.0043	0.9262	
318.15	0.5154	0.2236	0.0179	0.0567	0.0045	0.9237	
