Measured thermophysical data. An experimental investigation of molecular interactions between [Emim][triflate] ionic liquid & 2-alkoxyethanols and theoretical comparison by PFP theory
Source: J. Chem. Thermodyn., 2019, 10.1016/j.jct.2019.05.023
Compound 1: 1-ethyl-3-methylimidazolium trifluoromethanesulfonate, C7H11F3N2O3S, InChI=1S/C6H11N2.CHF3O3S/c1-3-8-5-4-7(2)6-8;2-1(3,4)8(5,6)7/h4-6H,3H2,1-2H3;(H,5,6,7)/q+1;/p-1, purity 99%
Compound 2: 2-ethoxyethan-1-ol, C4H10O2, InChI=1S/C4H10O2/c1-2-6-4-3-5/h5H,2-4H2,1H3, purity 99.5%
Compound 3: 2-propoxyethanol, C5H12O2, InChI=1S/C5H12O2/c1-2-4-7-5-3-6/h6H,2-5H2,1H3, purity 99.5%

System: 1-ethyl-3-methylimidazolium trifluoromethanesulfonate; phases: Liquid
Fixed: Pressure, kPa = 101.3
Property: Mass density, kg/m3 (Liquid); method: Vibrating tube method
Temperature, K	Mass density, kg/m3	uncertainty
298.15	1383	2
303.15	1379	2
308.15	1374	2
313.15	1370	2
318.15	1366	2

System: 1-ethyl-3-methylimidazolium trifluoromethanesulfonate; phases: Liquid
Fixed: Pressure, kPa = 101.3
Fixed: Frequency, MHz = 3
Property: Speed of sound, m/s (Liquid); method: Single path-length method
Temperature, K	Speed of sound, m/s	uncertainty
298.15	1436	10
303.15	1425	10
308.15	1413	10
313.15	1402	10
318.15	1391	10

System: 2-ethoxyethan-1-ol; phases: Liquid
Fixed: Pressure, kPa = 101.3
Property: Mass density, kg/m3 (Liquid); method: Vibrating tube method
Temperature, K	Mass density, kg/m3	uncertainty
298.15	926	2
303.15	921	2
308.15	917	2
313.15	912	2
318.15	907	2

System: 2-ethoxyethan-1-ol; phases: Liquid
Fixed: Pressure, kPa = 101.3
Fixed: Frequency, MHz = 3
Property: Speed of sound, m/s (Liquid); method: Single path-length method
Temperature, K	Speed of sound, m/s	uncertainty
298.15	1304	10
303.15	1287	10
308.15	1270	10
313.15	1252	10
318.15	1234	10

System: 2-propoxyethanol; phases: Liquid
Fixed: Pressure, kPa = 101.3
Property: Mass density, kg/m3 (Liquid); method: Vibrating tube method
Temperature, K	Mass density, kg/m3	uncertainty
298.15	908	2
303.15	903	2
308.15	899	2
313.15	895	2
318.15	890	2

System: 2-propoxyethanol; phases: Liquid
Fixed: Pressure, kPa = 101.3
Fixed: Frequency, MHz = 3
Property: Speed of sound, m/s (Liquid); method: Single path-length method
Temperature, K	Speed of sound, m/s	uncertainty
298.15	1301	10
303.15	1283	10
308.15	1266	10
313.15	1248	10
318.15	1231	10

System: 1-ethyl-3-methylimidazolium trifluoromethanesulfonate + 2-ethoxyethan-1-ol; phases: Liquid
Fixed: Pressure, kPa = 101.3
Property: Mass density, kg/m3 (Liquid); method: Vibrating tube method
Temperature, K	Mole fraction of 1-ethyl-3-methylimidazolium trifluoromethanesulfonate	Mass density, kg/m3	uncertainty
298.15	0	926	2
298.15	0.067	981	3
298.15	0.133	1029	2
298.15	0.192	1066	2
298.15	0.268	1112	2
298.15	0.35	1157	2
298.15	0.428	1196	2
298.15	0.54	1245	2
298.15	0.609	1272	2
298.15	0.674	1295	2
298.15	0.734	1314	2
298.15	0.799	1332	2
298.15	0.884	1354	2
298.15	0.951	1371	2
298.15	1	1383	2
303.15	0	921	2
303.15	0.067	976	3
303.15	0.133	1024	2
303.15	0.192	1062	2
303.15	0.268	1107	2
303.15	0.35	1152	2
303.15	0.428	1191	2
303.15	0.54	1241	2
303.15	0.609	1268	2
303.15	0.674	1291	2
303.15	0.734	1310	2
303.15	0.799	1328	2
303.15	0.884	1350	2
303.15	0.951	1367	2
303.15	1	1379	2
308.15	0	917	2
308.15	0.067	971	3
308.15	0.133	1020	3
308.15	0.192	1058	2
308.15	0.268	1103	2
308.15	0.35	1148	2
308.15	0.428	1187	2
308.15	0.54	1237	2
308.15	0.609	1264	2
308.15	0.674	1287	2
308.15	0.734	1306	2
308.15	0.799	1324	2
308.15	0.884	1346	2
308.15	0.951	1363	2
308.15	1	1374	2
313.15	0	912	2
313.15	0.067	967	3
313.15	0.133	1015	2
313.15	0.192	1053	2
313.15	0.268	1099	2
313.15	0.35	1144	2
313.15	0.428	1183	2
313.15	0.54	1233	2
313.15	0.609	1260	2
313.15	0.674	1283	2
313.15	0.734	1302	2
313.15	0.799	1320	2
313.15	0.884	1342	2
313.15	0.951	1359	2
313.15	1	1370	2
318.15	0	907	2
318.15	0.067	962	3
318.15	0.133	1011	3
318.15	0.192	1049	2
318.15	0.268	1094	2
318.15	0.35	1139	2
318.15	0.428	1178	2
318.15	0.54	1228	2
318.15	0.609	1255	2
318.15	0.674	1278	2
318.15	0.734	1297	2
318.15	0.799	1315	2
318.15	0.884	1337	2
318.15	0.951	1354	2
318.15	1	1366	2

System: 1-ethyl-3-methylimidazolium trifluoromethanesulfonate + 2-ethoxyethan-1-ol; phases: Liquid
Fixed: Pressure, kPa = 101.3
Fixed: Frequency, MHz = 3
Property: Speed of sound, m/s (Liquid); method: Single path-length method
Temperature, K	Mole fraction of 1-ethyl-3-methylimidazolium trifluoromethanesulfonate	Speed of sound, m/s	uncertainty
298.15	0	1304	10
298.15	0.067	1321	10
298.15	0.133	1333	10
298.15	0.192	1344	10
298.15	0.268	1356	10
298.15	0.35	1369	10
298.15	0.428	1380	10
298.15	0.54	1395	10
298.15	0.609	1403	10
298.15	0.674	1411	10
298.15	0.734	1417	10
298.15	0.799	1424	10
298.15	0.884	1431	10
298.15	0.951	1437	10
298.15	1	1436	10
303.15	0	1287	10
303.15	0.067	1305	10
303.15	0.133	1318	10
303.15	0.192	1329	10
303.15	0.268	1342	10
303.15	0.35	1355	10
303.15	0.428	1367	10
303.15	0.54	1383	10
303.15	0.609	1391	10
303.15	0.674	1399	10
303.15	0.734	1406	10
303.15	0.799	1412	10
303.15	0.884	1420	10
303.15	0.951	1425	10
303.15	1	1425	10
308.15	0	1270	10
308.15	0.067	1289	10
308.15	0.133	1302	10
308.15	0.192	1314	10
308.15	0.268	1328	10
308.15	0.35	1342	10
308.15	0.428	1354	10
308.15	0.54	1370	10
308.15	0.609	1379	10
308.15	0.674	1387	10
308.15	0.734	1394	10
308.15	0.799	1401	10
308.15	0.884	1409	10
308.15	0.951	1414	10
308.15	1	1413	10
313.15	0	1252	10
313.15	0.067	1272	10
313.15	0.133	1286	10
313.15	0.192	1299	10
313.15	0.268	1313	10
313.15	0.35	1328	10
313.15	0.428	1341	10
313.15	0.54	1358	10
313.15	0.609	1368	10
313.15	0.674	1376	10
313.15	0.734	1383	10
313.15	0.799	1390	10
313.15	0.884	1398	10
313.15	0.951	1403	10
313.15	1	1402	10
318.15	0	1234	10
318.15	0.067	1256	10
318.15	0.133	1271	10
318.15	0.192	1283	10
318.15	0.268	1299	10
318.15	0.35	1315	10
318.15	0.428	1328	10
318.15	0.54	1346	10
318.15	0.609	1356	10
318.15	0.674	1364	10
318.15	0.734	1372	10
318.15	0.799	1379	10
318.15	0.884	1387	10
318.15	0.951	1392	10
318.15	1	1391	10

System: 1-ethyl-3-methylimidazolium trifluoromethanesulfonate + 2-propoxyethanol; phases: Liquid
Fixed: Pressure, kPa = 101.3
Property: Mass density, kg/m3 (Liquid); method: Vibrating tube method
Temperature, K	Mole fraction of 1-ethyl-3-methylimidazolium trifluoromethanesulfonate	Mass density, kg/m3	uncertainty
298.15	0	908	2
298.15	0.051	945	3
298.15	0.104	981	2
298.15	0.199	1042	2
298.15	0.241	1067	2
298.15	0.296	1098	2
298.15	0.416	1161	2
298.15	0.506	1204	2
298.15	0.606	1247	2
298.15	0.698	1284	2
298.15	0.808	1324	2
298.15	0.845	1336	2
298.15	0.898	1353	2
298.15	0.953	1369	2
298.15	1	1383	2
303.15	0	903	2
303.15	0.051	940	3
303.15	0.104	976	2
303.15	0.199	1037	2
303.15	0.241	1063	2
303.15	0.296	1094	2
303.15	0.416	1157	2
303.15	0.506	1200	2
303.15	0.606	1243	2
303.15	0.698	1280	2
303.15	0.808	1320	2
303.15	0.845	1332	2
303.15	0.898	1349	2
303.15	0.953	1365	2
303.15	1	1379	2
308.15	0	899	2
308.15	0.051	936	3
308.15	0.104	972	2
308.15	0.199	1033	2
308.15	0.241	1059	2
308.15	0.296	1089	2
308.15	0.416	1153	2
308.15	0.506	1196	2
308.15	0.606	1239	2
308.15	0.698	1276	2
308.15	0.808	1316	2
308.15	0.845	1328	2
308.15	0.898	1344	2
308.15	0.953	1361	2
308.15	1	1374	2
313.15	0	895	2
313.15	0.051	931	3
313.15	0.104	968	2
313.15	0.199	1029	2
313.15	0.241	1054	2
313.15	0.296	1085	2
313.15	0.416	1149	2
313.15	0.506	1192	2
313.15	0.606	1235	2
313.15	0.698	1272	2
313.15	0.808	1311	2
313.15	0.845	1324	2
313.15	0.898	1340	2
313.15	0.953	1357	2
313.15	1	1370	2
318.15	0	890	2
318.15	0.051	927	3
318.15	0.104	963	2
318.15	0.199	1024	2
318.15	0.241	1050	2
318.15	0.296	1081	2
318.15	0.416	1145	2
318.15	0.506	1187	2
318.15	0.606	1231	2
318.15	0.698	1268	2
318.15	0.808	1307	2
318.15	0.845	1320	2
318.15	0.898	1336	2
318.15	0.953	1353	2
318.15	1	1366	2

System: 1-ethyl-3-methylimidazolium trifluoromethanesulfonate + 2-propoxyethanol; phases: Liquid
Fixed: Pressure, kPa = 101.3
Fixed: Frequency, MHz = 3
Property: Speed of sound, m/s (Liquid); method: Single path-length method
Temperature, K	Mole fraction of 1-ethyl-3-methylimidazolium trifluoromethanesulfonate	Speed of sound, m/s	uncertainty
298.15	0	1301	10
298.15	0.051	1308	10
298.15	0.104	1317	10
298.15	0.199	1331	10
298.15	0.241	1338	10
298.15	0.296	1346	10
298.15	0.416	1364	10
298.15	0.506	1377	10
298.15	0.606	1391	10
298.15	0.698	1404	10
298.15	0.808	1419	10
298.15	0.845	1424	10
298.15	0.898	1431	10
298.15	0.953	1438	10
298.15	1	1436	10
303.15	0	1283	10
303.15	0.051	1292	10
303.15	0.104	1300	10
303.15	0.199	1316	10
303.15	0.241	1323	10
303.15	0.296	1332	10
303.15	0.416	1351	10
303.15	0.506	1364	10
303.15	0.606	1379	10
303.15	0.698	1392	10
303.15	0.808	1408	10
303.15	0.845	1413	10
303.15	0.898	1420	10
303.15	0.953	1427	10
303.15	1	1425	10
308.15	0	1266	10
308.15	0.051	1275	10
308.15	0.104	1284	10
308.15	0.199	1301	10
308.15	0.241	1308	10
308.15	0.296	1318	10
308.15	0.416	1338	10
308.15	0.506	1352	10
308.15	0.606	1367	10
308.15	0.698	1381	10
308.15	0.808	1396	10
308.15	0.845	1402	10
308.15	0.898	1409	10
308.15	0.953	1416	10
308.15	1	1413	10
313.15	0	1248	10
313.15	0.051	1258	10
313.15	0.104	1268	10
313.15	0.199	1286	10
313.15	0.241	1294	10
313.15	0.296	1304	10
313.15	0.416	1324	10
313.15	0.506	1339	10
313.15	0.606	1355	10
313.15	0.698	1369	10
313.15	0.808	1385	10
313.15	0.845	1390	10
313.15	0.898	1398	10
313.15	0.953	1405	10
313.15	1	1402	10
318.15	0	1231	10
318.15	0.051	1241	10
318.15	0.104	1252	10
318.15	0.199	1271	10
318.15	0.241	1279	10
318.15	0.296	1289	10
318.15	0.416	1311	10
318.15	0.506	1327	10
318.15	0.606	1343	10
318.15	0.698	1357	10
318.15	0.808	1374	10
318.15	0.845	1379	10
318.15	0.898	1386	10
318.15	0.953	1394	10
318.15	1	1391	10
