Measured thermophysical data. Solvent screening and liquid-liquid measurement for extraction of phenols from aromatic hydrocarbon mixtures
Source: J. Chem. Thermodyn., 2019, 10.1016/j.jct.2018.09.006
Compound 1: 1,2-ethanediol, C2H6O2, InChI=1S/C2H6O2/c3-1-2-4/h3-4H,1-2H2, purity 99.31%
Compound 2: phenol, C6H6O, InChI=1S/C6H6O/c7-6-4-2-1-3-5-6/h1-5,7H, purity 99.21%
Compound 3: 3-methylphenol, C7H8O, InChI=1S/C7H8O/c1-6-3-2-4-7(8)5-6/h2-5,8H,1H3, purity 99.23%
Compound 4: toluene, C7H8, InChI=1S/C7H8/c1-7-5-3-2-4-6-7/h2-6H,1H3, purity 99.63%

System: 1,2-ethanediol + phenol + toluene; phases: Liquid mixture 2, Liquid mixture 1
Fixed: Pressure, kPa = 101.3
Property: Mass fraction of phenol (Liquid mixture 2); method: Chromatography
Property: Mass fraction of 1,2-ethanediol (Liquid mixture 1); method: Chromatography
Property: Mass fraction of phenol (Liquid mixture 1); method: Chromatography
Temperature, K	Mass fraction of 1,2-ethanediol	Mass fraction of phenol	uncertainty	Mass fraction of 1,2-ethanediol	uncertainty	Mass fraction of phenol	uncertainty
303.15	0.9684	0		0.0022	0.0022	0	
303.15	0.8501	0.097	0.0148	0.0328	0.0148	0.0284	
303.15	0.7766	0.1571	0.0148	0.0437	0.0148	0.0418	
303.15	0.7105	0.2013	0.0149	0.0486	0.0148	0.049	
303.15	0.6484	0.2352	0.0149	0.0399	0.0148	0.0474	
303.15	0.5816	0.2688	0.0149	0.048	0.0148	0.0597	
303.15	0.5333	0.2861	0.0149	0.0486	0.0148	0.0601	
313.15	0.9673	0		0.0027	0.0027	0	
313.15	0.8556	0.0927	0.0148	0.0413	0.0148	0.0347	
313.15	0.7822	0.1492	0.0148	0.0415	0.0148	0.0414	
313.15	0.7061	0.1957	0.0149	0.0494	0.0148	0.0509	
313.15	0.6385	0.2338	0.0149	0.048	0.0148	0.0572	
313.15	0.5759	0.2612	0.0149	0.0512	0.0148	0.0668	
313.15	0.5268	0.2757	0.0149	0.056	0.0148	0.0797	
323.15	0.9654	0		0.0037	0.0037	0	
323.15	0.8596	0.0875	0.0148	0.0385	0.0148	0.0338	
323.15	0.776	0.1458	0.0148	0.047	0.0148	0.0451	
323.15	0.7093	0.1929	0.0149	0.0535	0.0148	0.0585	
323.15	0.641	0.2312	0.0149	0.0431	0.0148	0.0589	
323.15	0.5808	0.2552	0.0149	0.0529	0.0148	0.0747	
323.15	0.5217	0.2789	0.0149	0.0603	0.0148	0.0878	

System: 1,2-ethanediol + 3-methylphenol + toluene; phases: Liquid mixture 2, Liquid mixture 1
Fixed: Pressure, kPa = 101.3
Property: Mass fraction of 3-methylphenol (Liquid mixture 2); method: Chromatography
Property: Mass fraction of 1,2-ethanediol (Liquid mixture 1); method: Chromatography
Property: Mass fraction of 3-methylphenol (Liquid mixture 1); method: Chromatography
Temperature, K	Mass fraction of 1,2-ethanediol	Mass fraction of 3-methylphenol	uncertainty	Mass fraction of 1,2-ethanediol	uncertainty	Mass fraction of 3-methylphenol	uncertainty
303.15	0.9684	0		0.0022	0.0022	0	
303.15	0.8842	0.071	0.0194	0.0024	0.0024	0.0062	
303.15	0.7982	0.1344	0.0194	0.0047	0.0047	0.0188	
303.15	0.7207	0.1797	0.0194	0.008	0.008	0.0316	
303.15	0.6439	0.2244	0.0195	0.0184	0.0184	0.045	
303.15	0.5938	0.2382	0.0195	0.0199	0.0194	0.056	
303.15	0.5088	0.2549	0.0195	0.0362	0.0194	0.0747	
313.15	0.9673	0		0.0027	0.0027	0	
313.15	0.8934	0.0618	0.0194	0.0055	0.0055	0.0071	
313.15	0.815	0.1276	0.0194	0.0058	0.0058	0.0271	
313.15	0.7216	0.1647	0.0194	0.0098	0.0098	0.0337	
313.15	0.6526	0.2063	0.0195	0.0183	0.0183	0.0489	
313.15	0.5917	0.223	0.0195	0.0264	0.0194	0.0639	
313.15	0.501	0.2389	0.0195	0.0454	0.0194	0.0766	
323.15	0.9654	0		0.0037	0.0037	0	
323.15	0.8855	0.0625	0.0194	0.0055	0.0055	0.0071	
323.15	0.7992	0.1237	0.0194	0.0126	0.0126	0.0213	
323.15	0.7307	0.1649	0.0194	0.0144	0.0144	0.0401	
323.15	0.6501	0.2098	0.0195	0.0252	0.0194	0.0597	
323.15	0.573	0.2282	0.0195	0.038	0.0194	0.0732	
323.15	0.4911	0.2442	0.0195	0.0617	0.0194	0.1007	

System: 1,2-ethanediol + toluene; phases: Liquid mixture 2, Liquid mixture 1
Fixed: Pressure, kPa = 101.3
Property: Mass fraction of 1,2-ethanediol (Liquid mixture 2); method: Chromatography
Temperature, K	Mass fraction of 1,2-ethanediol	uncertainty
303.15	0.9684	0.0148
323.15	0.9654	0.0148
313.15	0.9673	0.0148

System: 1,2-ethanediol + toluene; phases: Liquid mixture 1, Liquid mixture 2
Fixed: Pressure, kPa = 101.3
Property: Mass fraction of 1,2-ethanediol (Liquid mixture 1); method: Chromatography
Temperature, K	Mass fraction of 1,2-ethanediol	uncertainty
303.15	0.0022	0.0022
323.15	0.0037	0.0037
313.15	0.0027	0.0027
