Measured thermophysical data. Extraction of o-, m- and p-cresol from aqueous solution with methyl isopropyl ketone: Equilibrium, correlations, and COSMO-RS predictions
Source: J. Chem. Thermodyn., 2017, 10.1016/j.jct.2017.07.033
Compound 1: 3-methyl-2-butanone, C5H10O, InChI=1S/C5H10O/c1-4(2)5(3)6/h4H,1-3H3, purity 99%
Compound 2: 2-methylphenol, C7H8O, InChI=1S/C7H8O/c1-6-4-2-3-5-7(6)8/h2-5,8H,1H3, purity 99.5%
Compound 3: 3-methylphenol, C7H8O, InChI=1S/C7H8O/c1-6-3-2-4-7(8)5-6/h2-5,8H,1H3, purity 99.5%
Compound 4: 4-methylphenol, C7H8O, InChI=1S/C7H8O/c1-6-2-4-7(8)5-3-6/h2-5,8H,1H3, purity 99%
Compound 5: water, H2O, InChI=1S/H2O/h1H2, purity 99.8%

System: 2-methylphenol + 3-methyl-2-butanone + water; phases: Liquid mixture 2, Liquid mixture 1
Fixed: Pressure, kPa = 101.3
Property: Mole fraction of 2-methylphenol (Liquid mixture 2); method: Chromatography
Property: Mole fraction of 2-methylphenol (Liquid mixture 1); method: Chromatography
Property: Mole fraction of 3-methyl-2-butanone (Liquid mixture 1); method: Chromatography
Temperature, K	Mole fraction of 3-methyl-2-butanone	Mole fraction of 2-methylphenol	uncertainty	Mole fraction of 2-methylphenol	uncertainty	Mole fraction of 3-methyl-2-butanone	uncertainty
333.2	0.8307	0		0		0.00875	
333.2	0.7389	0.0805	0.0228	0.0001	0.0001	0.00675	
333.2	0.6502	0.1248	0.0228	0.00021	0.00021	0.00582	
333.2	0.5737	0.1653	0.0228	0.00035	0.00035	0.00475	
333.2	0.49	0.2113	0.0228	0.00069	0.0005	0.00414	
333.2	0.448	0.2381	0.0229	0.00092	0.0005	0.00332	
333.2	0.4103	0.2609	0.0229	0.00117	0.0005	0.00282	
333.2	0.3527	0.2951	0.0229	0.00138	0.0005	0.00215	
333.2	0.2917	0.3227	0.0229	0.00154	0.0005	0.00191	
333.2	0	0.4866	0.0231	0.00527	0.0005	0	
343.2	0.8115	0		0		0.00742	
343.2	0.7617	0.0597	0.0228	0.00012	0.00012	0.00594	
343.2	0.6601	0.1057	0.0228	0.00027	0.00027	0.00498	
343.2	0.5829	0.1412	0.0228	0.00037	0.00037	0.00476	
343.2	0.4941	0.1888	0.0228	0.00064	0.0005	0.00433	
343.2	0.4387	0.2073	0.0228	0.00082	0.0005	0.00346	
343.2	0.3594	0.2514	0.0229	0.00106	0.0005	0.00286	
343.2	0.3384	0.2667	0.0229	0.00118	0.0005	0.00227	
343.2	0.2613	0.3071	0.0229	0.00145	0.0005	0.00155	
343.2	0	0.4614	0.023	0.00585	0.0005	0	

System: 3-methylphenol + 3-methyl-2-butanone + water; phases: Liquid mixture 2, Liquid mixture 1
Fixed: Pressure, kPa = 101.3
Property: Mole fraction of 3-methylphenol (Liquid mixture 2); method: Chromatography
Property: Mole fraction of 3-methylphenol (Liquid mixture 1); method: Chromatography
Property: Mole fraction of 3-methyl-2-butanone (Liquid mixture 1); method: Chromatography
Temperature, K	Mole fraction of 3-methyl-2-butanone	Mole fraction of 3-methylphenol	uncertainty	Mole fraction of 3-methylphenol	uncertainty	Mole fraction of 3-methyl-2-butanone	uncertainty
333.2	0.8307	0		0		0.00875	
333.2	0.741	0.0803	0.0228	7e-05	7e-05	0.0067	
333.2	0.6463	0.1337	0.0228	0.00017	0.00017	0.00589	
333.2	0.5739	0.171	0.0228	0.00033	0.00033	0.00502	
333.2	0.5104	0.2199	0.0229	0.00044	0.00044	0.004	
333.2	0.4433	0.2569	0.0229	0.00064	0.0005	0.00358	
333.2	0.4078	0.2736	0.0229	0.00089	0.0005	0.00299	
333.2	0.3581	0.2962	0.0229	0.00128	0.0005	0.00254	
333.2	0.283	0.3358	0.0229	0.0015	0.0005	0.00208	
333.2	0	0.469	0.023	0.00509	0.0005	0	
343.2	0.8115	0		0		0.00742	
343.2	0.7702	0.0525	0.0228	0.00014	0.00014	0.00622	
343.2	0.6839	0.0943	0.0228	0.00027	0.00027	0.00584	
343.2	0.5958	0.1451	0.0228	0.00048	0.00048	0.00527	
343.2	0.4925	0.2201	0.0229	0.00074	0.0005	0.00413	
343.2	0.4048	0.2641	0.0229	0.00104	0.0005	0.0031	
343.2	0.3627	0.2855	0.0229	0.00116	0.0005	0.00253	
343.2	0.2895	0.3186	0.0229	0.00134	0.0005	0.00189	
343.2	0.2379	0.3476	0.0229	0.00161	0.0005	0.00145	
343.2	0	0.4509	0.023	0.00617	0.0005	0	

System: 4-methylphenol + 3-methyl-2-butanone + water; phases: Liquid mixture 2, Liquid mixture 1
Fixed: Pressure, kPa = 101.3
Property: Mole fraction of 4-methylphenol (Liquid mixture 2); method: Chromatography
Property: Mole fraction of 4-methylphenol (Liquid mixture 1); method: Chromatography
Property: Mole fraction of 3-methyl-2-butanone (Liquid mixture 1); method: Chromatography
Temperature, K	Mole fraction of 3-methyl-2-butanone	Mole fraction of 4-methylphenol	uncertainty	Mole fraction of 4-methylphenol	uncertainty	Mole fraction of 3-methyl-2-butanone	uncertainty
333.2	0.8307	0		0		0.00875	
333.2	0.7395	0.0706	0.0228	7e-05	7e-05	0.0068	
333.2	0.6239	0.1291	0.0228	0.00017	0.00017	0.00584	
333.2	0.5662	0.1681	0.0228	0.00031	0.00031	0.00482	
333.2	0.5003	0.2157	0.0229	0.00044	0.00044	0.00398	
333.2	0.4717	0.2386	0.0229	0.00052	0.0005	0.00349	
333.2	0.4087	0.2849	0.0229	0.00073	0.0005	0.00322	
333.2	0.3644	0.309	0.0229	0.00122	0.0005	0.00246	
333.2	0.3119	0.3487	0.0229	0.00157	0.0005	0.00207	
333.2	0	0.4674	0.023	0.00482	0.0005	0	
343.2	0.8115	0		0		0.00742	
343.2	0.7287	0.0401	0.0228	9e-05	9e-05	0.00694	
343.2	0.643	0.0978	0.0228	0.00023	0.00023	0.00589	
343.2	0.5674	0.1539	0.0228	0.00043	0.00043	0.00482	
343.2	0.4882	0.2079	0.0228	0.00072	0.0005	0.00409	
343.2	0.4295	0.2535	0.0229	0.00092	0.0005	0.00331	
343.2	0.3446	0.3083	0.0229	0.00115	0.0005	0.0027	
343.2	0.3133	0.3248	0.0229	0.00138	0.0005	0.00201	
343.2	0.2527	0.3537	0.0229	0.00156	0.0005	0.00156	
343.2	0	0.4423	0.023	0.00631	0.0005	0	

System: 3-methyl-2-butanone + water; phases: Liquid mixture 2, Liquid mixture 1
Fixed: Pressure, kPa = 101.3
Property: Mole fraction of 3-methyl-2-butanone (Liquid mixture 2); method: Chromatography
Temperature, K	Mole fraction of 3-methyl-2-butanone	uncertainty
333.2	0.8307	0.0264
343.2	0.8115	0.0264

System: 3-methyl-2-butanone + water; phases: Liquid mixture 1, Liquid mixture 2
Fixed: Pressure, kPa = 101.3
Property: Mole fraction of 3-methyl-2-butanone (Liquid mixture 1); method: Chromatography
Temperature, K	Mole fraction of 3-methyl-2-butanone	uncertainty
333.2	0.00875	0.00068
343.2	0.00742	0.00068

System: 2-methylphenol + water; phases: Liquid mixture 2, Liquid mixture 1
Fixed: Pressure, kPa = 101.3
Property: Mole fraction of 2-methylphenol (Liquid mixture 2); method: Chromatography
Temperature, K	Mole fraction of 2-methylphenol	uncertainty
333.2	0.4866	0.0231
343.2	0.4614	0.023

System: 2-methylphenol + water; phases: Liquid mixture 1, Liquid mixture 2
Fixed: Pressure, kPa = 101.3
Property: Mole fraction of 2-methylphenol (Liquid mixture 1); method: Chromatography
Temperature, K	Mole fraction of 2-methylphenol	uncertainty
333.2	0.00527	0.0005
343.2	0.00585	0.0005

System: 3-methylphenol + water; phases: Liquid mixture 2, Liquid mixture 1
Fixed: Pressure, kPa = 101.3
Property: Mole fraction of 3-methylphenol (Liquid mixture 2); method: Chromatography
Temperature, K	Mole fraction of 3-methylphenol	uncertainty
333.2	0.469	0.023
343.2	0.4509	0.023

System: 3-methylphenol + water; phases: Liquid mixture 1, Liquid mixture 2
Fixed: Pressure, kPa = 101.3
Property: Mole fraction of 3-methylphenol (Liquid mixture 1); method: Chromatography
Temperature, K	Mole fraction of 3-methylphenol	uncertainty
333.2	0.00509	0.0005
343.2	0.00617	0.0005

System: 4-methylphenol + water; phases: Liquid mixture 2, Liquid mixture 1
Fixed: Pressure, kPa = 101.3
Property: Mole fraction of 4-methylphenol (Liquid mixture 2); method: Chromatography
Temperature, K	Mole fraction of 4-methylphenol	uncertainty
333.2	0.4674	0.023
343.2	0.4423	0.023

System: 4-methylphenol + water; phases: Liquid mixture 1, Liquid mixture 2
Fixed: Pressure, kPa = 101.3
Property: Mole fraction of 4-methylphenol (Liquid mixture 1); method: Chromatography
Temperature, K	Mole fraction of 4-methylphenol	uncertainty
333.2	0.00482	0.0005
343.2	0.00631	0.0005
