Measured thermophysical data. Crystal structure and thermodynamic properties of myclobutanil
Source: J. Chem. Thermodyn., 2016, 10.1016/j.jct.2016.05.014
Compound 1: .alpha.-butyl-.alpha.-(4-chlorophenyl)-1H-1,2,4-triazole-1-propanenitrile, C15H17ClN4, InChI=1S/C15H17ClN4/c1-2-3-8-15(9-17,10-20-12-18-11-19-20)13-4-6-14(16)7-5-13/h4-7,11-12H,2-3,8,10H2,1H3, purity 95%
Compound 2: naphthalene, C10H8, InChI=1S/C10H8/c1-2-6-10-8-4-3-7-9(10)5-1/h1-8H, purity 99.7%

System: .alpha.-butyl-.alpha.-(4-chlorophenyl)-1H-1,2,4-triazole-1-propanenitrile; phases: Crystal, Liquid, Air at 1 atmosphere
Property: Normal melting temperature, K (Crystal); method: VISOBS
Normal melting temperature, K	uncertainty
343.45	0.58

System: .alpha.-butyl-.alpha.-(4-chlorophenyl)-1H-1,2,4-triazole-1-propanenitrile; phases: Crystal
Property: Mass density, kg/m3 (Crystal); method: X-ray diffraction
Temperature, K	Pressure, kPa	Mass density, kg/m3	uncertainty
296	101.325	1238	6

System: .alpha.-butyl-.alpha.-(4-chlorophenyl)-1H-1,2,4-triazole-1-propanenitrile; phases: Crystal
Fixed: Pressure, kPa = 101.325
Property: Molar heat capacity at constant pressure, J/K/mol (Crystal); method: Small sample (50 mg) DSC
Temperature, K	Molar heat capacity at constant pressure, J/K/mol	uncertainty
283.15	343.21	9.5
288.15	349.73	9.68
293.15	356.25	9.86
298.15	362.78	10.04
303.15	369.3	10.22
308.15	375.82	10.4
313.15	382.35	10.59
318.15	388.87	10.77
323.15	395.39	10.95
328.15	401.92	11.13
333.15	408.44	11.31
283.15	340.09	9.42
288.15	349.62	9.68
293.15	357.56	9.9
298.15	364.3	10.09
303.15	370.21	10.25
308.15	375.66	10.4
313.15	381.03	10.55
318.15	386.69	10.71
323.15	393.03	10.88
328.15	400.42	11.09
333.15	409.23	11.33

System: naphthalene; phases: Crystal
Fixed: Pressure, kPa = 101.325
Property: Molar heat capacity at constant pressure, J/K/mol (Crystal); method: Small sample (50 mg) DSC
Temperature, K	Molar heat capacity at constant pressure, J/K/mol	uncertainty
283.15	158.4	3.9
288.15	161.6	4
293.15	164.8	4.1
298.15	168	4.2
303.15	171.2	4.2
308.15	174.5	4.3
313.15	177.8	4.4
318.15	181.1	4.5
323.15	184.5	4.6
328.15	187.9	4.7
333.15	191.3	4.7
