Measured thermophysical data. Densities and viscosities for binary mixtures of polyoxymethylene dimethyl ethers with different CH2O chain length n = 2, 3, 4 at different temperatures
Source: J. Chem. Thermodyn., 2017, 10.1016/j.jct.2017.06.002
Compound 1: 2,4,6-trioxaheptane, C4H10O3, InChI=1S/C4H10O3/c1-5-3-7-4-6-2/h3-4H2,1-2H3, purity 94.6%
Compound 2: 2,4,6,8-tetraoxanonane, C5H12O4, InChI=1S/C5H12O4/c1-6-3-8-5-9-4-7-2/h3-5H2,1-2H3, purity 92.3%
Compound 3: 2,4,6,8,10-pentaoxaundecane, C6H14O5, InChI=1S/C6H14O5/c1-7-3-9-5-11-6-10-4-8-2/h3-6H2,1-2H3, purity 97.6%

System: 2,4,6-trioxaheptane; phases: Liquid
Property: Mass density, kg/m3 (Liquid); method: Buoyancy - hydrostatic balance
Temperature, K	Pressure, kPa	Mass density, kg/m3	uncertainty
298.15	100	989.2	2

System: 2,4,6-trioxaheptane; phases: Liquid
Fixed: Pressure, kPa = 100
Property: Viscosity, Pa*s (Liquid); method: Concentric cylinders viscometry
Temperature, K	Viscosity, Pa*s	uncertainty
288.15	0.0009255	5.04e-05
293.15	0.0009152	5.04e-05
298.15	0.0009028	5.04e-05
303.15	0.0008885	5.04e-05
308.15	0.0008726	5.04e-05
313.15	0.0008554	5.04e-05

System: 2,4,6-trioxaheptane; phases: Liquid
Fixed: Pressure, kPa = 100
Property: Mass density, kg/m3 (Liquid); method: Vibrating tube method
Temperature, K	Mass density, kg/m3	uncertainty
288.15	999.4	2
293.15	995.3	2
298.15	989.9	2
303.15	984.3	2
308.15	978.8	2
313.15	974.2	2

System: 2,4,6,8-tetraoxanonane; phases: Liquid
Property: Mass density, kg/m3 (Liquid); method: Buoyancy - hydrostatic balance
Temperature, K	Pressure, kPa	Mass density, kg/m3	uncertainty
298.15	100	1023.1	2

System: 2,4,6,8-tetraoxanonane; phases: Liquid
Fixed: Pressure, kPa = 100
Property: Viscosity, Pa*s (Liquid); method: Concentric cylinders viscometry
Temperature, K	Viscosity, Pa*s	uncertainty
288.15	0.0012594	5.06e-05
293.15	0.0011656	5.06e-05
298.15	0.0010838	5.05e-05
303.15	0.0010277	5.05e-05
308.15	0.0009921	5.05e-05
313.15	0.0009521	5.04e-05

System: 2,4,6,8-tetraoxanonane; phases: Liquid
Fixed: Pressure, kPa = 100
Property: Mass density, kg/m3 (Liquid); method: Vibrating tube method
Temperature, K	Mass density, kg/m3	uncertainty
288.15	1037.5	2
293.15	1030.2	2
298.15	1023.4	2
303.15	1016.6	2
308.15	1011	2
313.15	1005	2

System: 2,4,6,8,10-pentaoxaundecane; phases: Liquid
Property: Mass density, kg/m3 (Liquid); method: Buoyancy - hydrostatic balance
Temperature, K	Pressure, kPa	Mass density, kg/m3	uncertainty
298.15	100	1067.8	2

System: 2,4,6,8,10-pentaoxaundecane; phases: Liquid
Fixed: Pressure, kPa = 100
Property: Viscosity, Pa*s (Liquid); method: Concentric cylinders viscometry
Temperature, K	Viscosity, Pa*s	uncertainty
288.15	0.0022071	5.13e-05
293.15	0.0020146	5.11e-05
298.15	0.0018479	5.1e-05
303.15	0.0017027	5.09e-05
308.15	0.0015755	5.08e-05
313.15	0.0014637	5.07e-05

System: 2,4,6,8,10-pentaoxaundecane; phases: Liquid
Fixed: Pressure, kPa = 100
Property: Mass density, kg/m3 (Liquid); method: Vibrating tube method
Temperature, K	Mass density, kg/m3	uncertainty
288.15	1078.8	2
293.15	1073.3	2
298.15	1068.2	2
303.15	1063.4	2
308.15	1059.1	2
313.15	1055.2	2

System: 2,4,6-trioxaheptane + 2,4,6,8-tetraoxanonane; phases: Liquid
Fixed: Pressure, kPa = 100
Property: Mass density, kg/m3 (Liquid); method: Vibrating tube method
Temperature, K	Mole fraction of 2,4,6-trioxaheptane	Mass density, kg/m3	uncertainty
288.15	1	999.4	2
288.15	0.92	1002.3	2.2
288.15	0.83	1006.2	2.2
288.15	0.74	1010.1	2.2
288.15	0.65	1014.3	2.2
288.15	0.55	1018.1	2.1
288.15	0.45	1021.1	2.1
288.15	0.35	1024.2	2.1
288.15	0.24	1027.1	2.1
288.15	0.18	1029.5	2.1
288.15	0.12	1031.3	2.2
288.15	0.06	1034.7	2.3
288.15	0	1037.5	2
293.15	1	995.3	2
293.15	0.92	998.2	2.1
293.15	0.83	1001.7	2.2
293.15	0.74	1005.3	2.2
293.15	0.65	1009.1	2.2
293.15	0.55	1012.8	2.1
293.15	0.45	1016.1	2.1
293.15	0.35	1019.5	2.1
293.15	0.24	1022.7	2.1
293.15	0.18	1024.5	2.1
293.15	0.12	1025.9	2.1
293.15	0.06	1028.4	2.1
293.15	0	1030.2	2
298.15	1	989.9	2
298.15	0.92	993	2.1
298.15	0.83	996.4	2.2
298.15	0.74	1000.5	2.2
298.15	0.65	1004.1	2.1
298.15	0.55	1007.8	2.1
298.15	0.45	1011.2	2.1
298.15	0.35	1014.5	2.1
298.15	0.24	1018.1	2.1
298.15	0.18	1019.5	2.1
298.15	0.12	1021.2	2.1
298.15	0.06	1022.3	2
298.15	0	1023.4	2
303.15	1	984.3	2
303.15	0.92	987.6	2.2
303.15	0.83	991.3	2.2
303.15	0.74	995.5	2.2
303.15	0.65	999.3	2.2
303.15	0.55	1003.2	2.1
303.15	0.45	1006.5	2.1
303.15	0.35	1009.9	2.1
303.15	0.24	1013.1	2.1
303.15	0.18	1014.5	2.1
303.15	0.12	1015.9	2
303.15	0.06	1016.4	2
303.15	0	1016.6	2
308.15	1	978.8	2
308.15	0.92	982.8	2.2
308.15	0.83	986.8	2.2
308.15	0.74	990.8	2.2
308.15	0.65	995	2.2
308.15	0.55	998.9	2.1
308.15	0.45	1002.1	2.1
308.15	0.35	1005.6	2.1
308.15	0.24	1008.6	2.1
308.15	0.18	1010.32	2.03
308.15	0.12	1010.7	2
308.15	0.06	1011.01	2
308.15	0	1011	2
313.15	1	974.2	2
313.15	0.92	979	2.3
313.15	0.83	983	2.2
313.15	0.74	987	2.2
313.15	0.65	990.8	2.2
313.15	0.55	994.9	2.1
313.15	0.45	998.3	2.1
313.15	0.35	1002.4	2.1
313.15	0.24	1005.5	2.1
313.15	0.18	1006.3	2
313.15	0.12	1007	2
313.15	0.06	1006.5	2
313.15	0	1005	2

System: 2,4,6-trioxaheptane + 2,4,6,8-tetraoxanonane; phases: Liquid
Fixed: Pressure, kPa = 100
Property: Viscosity, Pa*s (Liquid); method: Concentric cylinders viscometry
Temperature, K	Mole fraction of 2,4,6-trioxaheptane	Viscosity, Pa*s	uncertainty
288.15	1	0.0009255	5.04e-05
288.15	0.92	0.0009612	5.12e-05
288.15	0.83	0.0010007	5.14e-05
288.15	0.74	0.0010512	5.16e-05
288.15	0.65	0.0010961	5.14e-05
288.15	0.55	0.0011416	5.13e-05
288.15	0.45	0.0011855	5.13e-05
288.15	0.35	0.0012283	5.11e-05
288.15	0.24	0.001261	5.09e-05
288.15	0.18	0.0012734	5.07e-05
288.15	0.12	0.0012814	5.06e-05
288.15	0.06	0.0012781	5.07e-05
288.15	0	0.0012594	5.06e-05
293.15	1	0.0009152	5.04e-05
293.15	0.92	0.0009384	5.07e-05
293.15	0.83	0.0009628	5.08e-05
293.15	0.74	0.0009894	5.09e-05
293.15	0.65	0.0010206	5.1e-05
293.15	0.55	0.0010583	5.1e-05
293.15	0.45	0.0010934	5.1e-05
293.15	0.35	0.0011277	5.09e-05
293.15	0.24	0.0011585	5.08e-05
293.15	0.18	0.0011698	5.06e-05
293.15	0.12	0.0011766	5.06e-05
293.15	0.06	0.0011739	5.06e-05
293.15	0	0.0011656	5.06e-05
298.15	1	0.0009028	5.04e-05
298.15	0.92	0.0009189	5.06e-05
298.15	0.83	0.0009353	5.06e-05
298.15	0.74	0.0009543	5.06e-05
298.15	0.65	0.0009754	5.07e-05
298.15	0.55	0.0010024	5.08e-05
298.15	0.45	0.0010318	5.08e-05
298.15	0.35	0.0010595	5.07e-05
298.15	0.24	0.0010844	5.07e-05
298.15	0.18	0.0010925	5.06e-05
298.15	0.12	0.0010977	5.05e-05
298.15	0.06	0.0010931	5.06e-05
298.15	0	0.0010838	5.05e-05
303.15	1	0.0008885	5.04e-05
303.15	0.92	0.0009007	5.05e-05
303.15	0.83	0.0009135	5.05e-05
303.15	0.74	0.0009283	5.06e-05
303.15	0.65	0.0009452	5.06e-05
303.15	0.55	0.0009667	5.07e-05
303.15	0.45	0.0009913	5.06e-05
303.15	0.35	0.0010103	5.06e-05
303.15	0.24	0.0010308	5.06e-05
303.15	0.18	0.0010372	5.05e-05
303.15	0.12	0.0010416	5.05e-05
303.15	0.06	0.0010384	5.05e-05
303.15	0	0.0010277	5.05e-05
308.15	1	0.0008726	5.04e-05
308.15	0.92	0.0008828	5.05e-05
308.15	0.83	0.0008938	5.05e-05
308.15	0.74	0.0009067	5.05e-05
308.15	0.65	0.0009204	5.05e-05
308.15	0.55	0.000938	5.06e-05
308.15	0.45	0.0009577	5.06e-05
308.15	0.35	0.0009741	5.05e-05
308.15	0.24	0.0009894	5.05e-05
308.15	0.18	0.0009959	5.05e-05
308.15	0.12	0.0009977	5.05e-05
308.15	0.06	0.0009966	5.05e-05
308.15	0	0.0009921	5.05e-05
313.15	1	0.0008554	5.04e-05
313.15	0.92	0.0008652	5.05e-05
313.15	0.83	0.0008758	5.05e-05
313.15	0.74	0.0008876	5.05e-05
313.15	0.65	0.0009008	5.05e-05
313.15	0.55	0.000916	5.05e-05
313.15	0.45	0.0009308	5.05e-05
313.15	0.35	0.0009453	5.05e-05
313.15	0.24	0.0009597	5.05e-05
313.15	0.18	0.0009671	5.05e-05
313.15	0.12	0.0009724	5.05e-05
313.15	0.06	0.0009668	5.06e-05
313.15	0	0.0009521	5.04e-05

System: 2,4,6-trioxaheptane + 2,4,6,8,10-pentaoxaundecane; phases: Liquid
Fixed: Pressure, kPa = 100
Property: Mass density, kg/m3 (Liquid); method: Vibrating tube method
Temperature, K	Mole fraction of 2,4,6-trioxaheptane	Mass density, kg/m3	uncertainty
288.15	1	999.4	2
288.15	0.92	1005.8	2.6
288.15	0.83	1013.2	2.6
288.15	0.74	1021	2.7
288.15	0.65	1029	2.6
288.15	0.55	1037.2	2.6
288.15	0.45	1045.4	2.6
288.15	0.35	1053.5	2.5
288.15	0.24	1061.6	2.5
288.15	0.12	1069.8	2.5
288.15	0	1078.8	2
293.15	1	995.3	2
293.15	0.92	1001.8	2.6
293.15	0.83	1009	2.6
293.15	0.74	1016.7	2.6
293.15	0.65	1024.6	2.6
293.15	0.55	1032.6	2.6
293.15	0.45	1040.6	2.6
293.15	0.35	1048.6	2.5
293.15	0.24	1056.5	2.4
293.15	0.12	1064.6	2.4
293.15	0	1073.3	2
298.15	1	989.9	2
298.15	0.92	996.8	2.6
298.15	0.83	1004.4	2.6
298.15	0.74	1012.1	2.7
298.15	0.65	1020.1	2.6
298.15	0.55	1028	2.6
298.15	0.45	1036	2.6
298.15	0.35	1043.9	2.5
298.15	0.24	1051.9	2.4
298.15	0.12	1059.7	2.4
298.15	0	1068.2	2
303.15	1	984.3	2
303.15	0.92	991.7	2.7
303.15	0.83	999.4	2.7
303.15	0.74	1007.4	2.7
303.15	0.65	1015.4	2.6
303.15	0.55	1023.5	2.6
303.15	0.45	1031.5	2.6
303.15	0.35	1039.4	2.5
303.15	0.24	1047.3	2.4
303.15	0.12	1055.2	2.4
303.15	0	1063.4	2
308.15	1	978.8	2
308.15	0.92	986.9	2.8
308.15	0.83	995	2.7
308.15	0.74	1003.2	2.7
308.15	0.65	1011.3	2.6
308.15	0.55	1019.2	2.6
308.15	0.45	1027.2	2.6
308.15	0.35	1035	2.5
308.15	0.24	1043	2.4
308.15	0.12	1050.9	2.4
308.15	0	1059.1	2
313.15	1	974.2	2
313.15	0.92	982.8	2.8
313.15	0.83	991.3	2.8
313.15	0.74	999.8	2.7
313.15	0.65	1007.9	2.6
313.15	0.55	1015.8	2.6
313.15	0.45	1023.7	2.5
313.15	0.35	1031.5	2.5
313.15	0.24	1039.4	2.4
313.15	0.12	1047.2	2.4
313.15	0	1055.2	2

System: 2,4,6-trioxaheptane + 2,4,6,8,10-pentaoxaundecane; phases: Liquid
Fixed: Pressure, kPa = 100
Property: Viscosity, Pa*s (Liquid); method: Concentric cylinders viscometry
Temperature, K	Mole fraction of 2,4,6-trioxaheptane	Viscosity, Pa*s	uncertainty
288.15	1	0.0009255	5.04e-05
288.15	0.92	0.000977	5.23e-05
288.15	0.83	0.0010429	5.29e-05
288.15	0.74	0.0011186	5.38e-05
288.15	0.65	0.001209	5.48e-05
288.15	0.55	0.0013181	5.6e-05
288.15	0.45	0.0014488	5.84e-05
288.15	0.35	0.0016077	6.02e-05
288.15	0.24	0.0017879	6.08e-05
288.15	0.12	0.0019903	6.19e-05
288.15	0	0.0022071	5.13e-05
293.15	1	0.0009152	5.04e-05
293.15	0.92	0.000962	5.19e-05
293.15	0.83	0.0010189	5.22e-05
293.15	0.74	0.0010822	5.31e-05
293.15	0.65	0.0011661	5.41e-05
293.15	0.55	0.0012654	5.49e-05
293.15	0.45	0.0013779	5.66e-05
293.15	0.35	0.0015179	5.78e-05
293.15	0.24	0.001669	5.78e-05
293.15	0.12	0.0018345	5.85e-05
293.15	0	0.0020146	5.11e-05
298.15	1	0.0009028	5.04e-05
298.15	0.92	0.000943	5.15e-05
298.15	0.83	0.0009918	5.19e-05
298.15	0.74	0.0010505	5.26e-05
298.15	0.65	0.0011252	5.33e-05
298.15	0.55	0.0012124	5.4e-05
298.15	0.45	0.0013146	5.51e-05
298.15	0.35	0.0014304	5.57e-05
298.15	0.24	0.0015569	5.58e-05
298.15	0.12	0.0016971	5.64e-05
298.15	0	0.0018479	5.1e-05
303.15	1	0.0008885	5.04e-05
303.15	0.92	0.0009255	5.13e-05
303.15	0.83	0.00097	5.15e-05
303.15	0.74	0.0010167	5.19e-05
303.15	0.65	0.0010787	5.25e-05
303.15	0.55	0.0011529	5.31e-05
303.15	0.45	0.0012431	5.41e-05
303.15	0.35	0.0013437	5.44e-05
303.15	0.24	0.0014524	5.45e-05
303.15	0.12	0.0015747	5.49e-05
303.15	0	0.0017027	5.09e-05
308.15	1	0.0008726	5.04e-05
308.15	0.92	0.0009043	5.11e-05
308.15	0.83	0.000943	5.12e-05
308.15	0.74	0.0009843	5.15e-05
308.15	0.65	0.0010356	5.19e-05
308.15	0.55	0.0010992	5.24e-05
308.15	0.45	0.0011752	5.32e-05
308.15	0.35	0.0012645	5.36e-05
308.15	0.24	0.0013609	5.36e-05
308.15	0.12	0.0014664	5.38e-05
308.15	0	0.0015755	5.08e-05
313.15	1	0.0008554	5.04e-05
313.15	0.92	0.0008847	5.09e-05
313.15	0.83	0.000916	5.1e-05
313.15	0.74	0.0009504	5.12e-05
313.15	0.65	0.0009955	5.15e-05
313.15	0.55	0.0010497	5.19e-05
313.15	0.45	0.001117	5.25e-05
313.15	0.35	0.0011938	5.28e-05
313.15	0.24	0.0012783	5.29e-05
313.15	0.12	0.0013712	5.3e-05
313.15	0	0.0014637	5.07e-05

System: 2,4,6,8,10-pentaoxaundecane + 2,4,6,8-tetraoxanonane; phases: Liquid
Fixed: Pressure, kPa = 100
Property: Mass density, kg/m3 (Liquid); method: Vibrating tube method
Temperature, K	Mole fraction of 2,4,6,8-tetraoxanonane	Mass density, kg/m3	uncertainty
288.15	1	1037.5	2
288.15	0.96	1039.1	2.1
288.15	0.92	1039.9	2.1
288.15	0.86	1042.2	2.2
288.15	0.83	1043.9	2.2
288.15	0.74	1047.6	2.2
288.15	0.65	1051.8	2.2
288.15	0.55	1056.3	2.2
288.15	0.45	1061.1	2.2
288.15	0.35	1065.8	2.2
288.15	0.24	1070.3	2.1
288.15	0.12	1074.7	2.1
288.15	0	1078.8	2
293.15	1	1030.2	2
293.15	0.96	1032.4	2.3
293.15	0.92	1034.6	2.2
293.15	0.86	1036.6	2.2
293.15	0.83	1038.9	2.2
293.15	0.74	1043.1	2.2
293.15	0.65	1047.5	2.2
293.15	0.55	1052.2	2.2
293.15	0.45	1056.7	2.2
293.15	0.35	1061	2.2
293.15	0.24	1065.1	2.1
293.15	0.12	1069.2	2.1
293.15	0	1073.3	2
298.15	1	1023.4	2
298.15	0.96	1026.3	2.5
298.15	0.92	1029.3	2.2
298.15	0.86	1031.3	2.2
298.15	0.83	1034.1	2.3
298.15	0.74	1038.5	2.2
298.15	0.65	1043.1	2.2
298.15	0.55	1047.1	2.2
298.15	0.45	1051.3	2.2
298.15	0.35	1055.5	2.2
298.15	0.24	1060	2.1
298.15	0.12	1064.2	2.1
298.15	0	1068.2	2
303.15	1	1016.6	2
303.15	0.96	1020.7	2.8
303.15	0.92	1024.2	2.3
303.15	0.86	1026.8	2.3
303.15	0.83	1029.5	2.3
303.15	0.74	1033.9	2.2
303.15	0.65	1038	2.2
303.15	0.55	1041.8	2.2
303.15	0.45	1046.1	2.2
303.15	0.35	1050.5	2.2
303.15	0.24	1055.1	2.2
303.15	0.12	1059.7	2.1
303.15	0	1063.4	2
308.15	1	1011	2
308.15	0.96	1015.6	3
308.15	0.92	1019.8	2.4
308.15	0.86	1022.6	2.3
308.15	0.83	1025.5	2.3
308.15	0.74	1029.8	2.2
308.15	0.65	1033.7	2.2
308.15	0.55	1037.5	2.2
308.15	0.45	1041.8	2.2
308.15	0.35	1046.2	2.2
308.15	0.24	1050.8	2.2
308.15	0.12	1055.5	2.1
308.15	0	1059.1	2
313.15	1	1005	2
313.15	0.96	1011.6	3.4
313.15	0.92	1016.2	2.5
313.15	0.86	1018.9	2.4
313.15	0.83	1022.1	2.3
313.15	0.74	1026.4	2.2
313.15	0.65	1030.3	2.2
313.15	0.55	1034.2	2.2
313.15	0.45	1038.2	2.2
313.15	0.35	1042.8	2.2
313.15	0.24	1047.2	2.1
313.15	0.12	1051.7	2.1
313.15	0	1055.2	2

System: 2,4,6,8,10-pentaoxaundecane + 2,4,6,8-tetraoxanonane; phases: Liquid
Fixed: Pressure, kPa = 100
Property: Viscosity, Pa*s (Liquid); method: Concentric cylinders viscometry
Temperature, K	Mole fraction of 2,4,6,8-tetraoxanonane	Viscosity, Pa*s	uncertainty
288.15	1	0.0012594	5.06e-05
288.15	0.92	0.0014415	6.13e-05
288.15	0.83	0.0015534	5.54e-05
288.15	0.74	0.0016419	5.36e-05
288.15	0.65	0.0017074	5.26e-05
288.15	0.55	0.0017689	5.24e-05
288.15	0.45	0.0018299	5.26e-05
288.15	0.35	0.0018991	5.3e-05
288.15	0.24	0.0019817	5.36e-05
288.15	0.12	0.0020853	5.45e-05
288.15	0	0.0022071	5.13e-05
293.15	1	0.0011656	5.06e-05
293.15	0.92	0.0013111	5.82e-05
293.15	0.83	0.0014121	5.46e-05
293.15	0.74	0.0014936	5.32e-05
293.15	0.65	0.0015562	5.21e-05
293.15	0.55	0.0016063	5.19e-05
293.15	0.45	0.0016635	5.22e-05
293.15	0.35	0.0017241	5.25e-05
293.15	0.24	0.0017984	5.31e-05
293.15	0.12	0.0018951	5.41e-05
293.15	0	0.0020146	5.11e-05
298.15	1	0.0010838	5.05e-05
298.15	0.92	0.0012101	5.65e-05
298.15	0.83	0.0012997	5.38e-05
298.15	0.74	0.0013742	5.27e-05
298.15	0.65	0.0014292	5.17e-05
298.15	0.55	0.0014724	5.16e-05
298.15	0.45	0.0015232	5.18e-05
298.15	0.35	0.0015744	5.2e-05
298.15	0.24	0.0016389	5.26e-05
298.15	0.12	0.0017293	5.38e-05
298.15	0	0.0018479	5.1e-05
303.15	1	0.0010277	5.05e-05
303.15	0.92	0.0011388	5.51e-05
303.15	0.83	0.0012172	5.27e-05
303.15	0.74	0.0012732	5.19e-05
303.15	0.65	0.0013188	5.13e-05
303.15	0.55	0.0013542	5.12e-05
303.15	0.45	0.0013945	5.14e-05
303.15	0.35	0.0014373	5.16e-05
303.15	0.24	0.0014964	5.23e-05
303.15	0.12	0.0015816	5.36e-05
303.15	0	0.0017027	5.09e-05
308.15	1	0.0009921	5.05e-05
308.15	0.92	0.0010873	5.37e-05
308.15	0.83	0.0011491	5.19e-05
308.15	0.74	0.0011922	5.14e-05
308.15	0.65	0.0012302	5.09e-05
308.15	0.55	0.0012482	5.08e-05
308.15	0.45	0.00128	5.1e-05
308.15	0.35	0.001313	5.13e-05
308.15	0.24	0.0013662	5.2e-05
308.15	0.12	0.001448	5.36e-05
308.15	0	0.0015755	5.08e-05
313.15	1	0.0009521	5.04e-05
313.15	0.92	0.0010438	5.31e-05
313.15	0.83	0.0010919	5.12e-05
313.15	0.74	0.0011211	5.08e-05
313.15	0.65	0.0011433	5.07e-05
313.15	0.55	0.0011546	5.07e-05
313.15	0.45	0.0011798	5.08e-05
313.15	0.35	0.0012072	5.1e-05
313.15	0.24	0.0012515	5.17e-05
313.15	0.12	0.001331	5.36e-05
313.15	0	0.0014637	5.07e-05
