Measured thermophysical data. Thermo-acoustical studies of 1,3,4-oxadiazole as binary mixture at three different temperatures
Source: J. Chem. Thermodyn., 2014, 10.1016/j.jct.2013.10.008
Compound 1: trichloromethane, CHCl3, InChI=1S/CHCl3/c2-1(3)4/h1H, purity 99.4%
Compound 2: dimethylformamide, C3H7NO, InChI=1S/C3H7NO/c1-4(2)3-5/h3H,1-2H3, purity 99.5%
Compound 3: 2-[[[4-acetyl-5-(4-chlorophenyl)-4,5-dihydro-5-methyl-1,3,4-oxadiazol-2-yl]methyl]thio]-3-(2-methylphenyl)-4(3H)-quinazolinone, C27H23ClN4O3S, InChI=1S/C27H23ClN4O3S/c1-17-8-4-7-11-23(17)31-25(34)21-9-5-6-10-22(21)29-26(31)36-16-24-30-32(18(2)33)27(3,35-24)19-12-14-20(28)15-13-19/h4-15H,16H2,1-3H3

System: trichloromethane; phases: Liquid
Fixed: Pressure, kPa = 101
Property: Mass density, kg/m3 (Liquid); method: Pycnometric method
Temperature, K	Mass density, kg/m3	uncertainty
303	1475.3	20
308	1470.8	20
313	1465.8	20

System: trichloromethane; phases: Liquid
Fixed: Pressure, kPa = 101
Property: Viscosity, Pa*s (Liquid); method: Capillary tube (Ostwald; Ubbelohde) method
Temperature, K	Viscosity, Pa*s	uncertainty
303	0.0006628	0.0001326
308	0.0006279	0.0001257
313	0.0005781	0.0001157

System: trichloromethane; phases: Liquid
Fixed: Pressure, kPa = 101
Fixed: Frequency, MHz = 2
Property: Speed of sound, m/s (Liquid); method: Linear variable-path acoustic interferometer
Temperature, K	Speed of sound, m/s	uncertainty
303	960	4.1
308	950.8	4
313	932.4	4

System: dimethylformamide; phases: Liquid
Fixed: Pressure, kPa = 101
Property: Mass density, kg/m3 (Liquid); method: Pycnometric method
Temperature, K	Mass density, kg/m3	uncertainty
303	941.7	20
308	937.2	20
313	933.6	20

System: dimethylformamide; phases: Liquid
Fixed: Pressure, kPa = 101
Property: Viscosity, Pa*s (Liquid); method: Capillary tube (Ostwald; Ubbelohde) method
Temperature, K	Viscosity, Pa*s	uncertainty
303	0.0007588	0.0001519
308	0.0007056	0.0001412
313	0.0006353	0.0001272

System: dimethylformamide; phases: Liquid
Fixed: Pressure, kPa = 101
Fixed: Frequency, MHz = 2
Property: Speed of sound, m/s (Liquid); method: Linear variable-path acoustic interferometer
Temperature, K	Speed of sound, m/s	uncertainty
303	1442	6
308	1432	6
313	1402	5.9

System: trichloromethane + 2-[[[4-acetyl-5-(4-chlorophenyl)-4,5-dihydro-5-methyl-1,3,4-oxadiazol-2-yl]methyl]thio]-3-(2-methylphenyl)-4(3H)-quinazolinone; phases: Liquid
Fixed: Pressure, kPa = 101
Property: Mass density, kg/m3 (Liquid); method: Pycnometric method
Temperature, K	Molality, mol/kg of 2-[[[4-acetyl-5-(4-chlorophenyl)-4,5-dihydro-5-methyl-1,3,4-oxadiazol-2-yl]methyl]thio]-3-(2-methylphenyl)-4(3H)-quinazolinone	Mass density, kg/m3	uncertainty
303	0	1475.3	20.1
303	0.000677781	1476.8	20.1
303	0.001355837	1477.1	20
303	0.002712955	1477.4	20
303	0.004071355	1477.9	20
303	0.005431039	1478.2	20
303	0.006790165	1478.5	20
308	0	1470.8	20
308	0.000679809	1470.9	20
308	0.001359708	1471.3	20
308	0.002720705	1472.1	20
308	0.004083269	1472.5	20
308	0.005447681	1472.8	20
308	0.006810512	1473.2	20
313	0	1465.8	20
313	0.000682127	1466.1	20
313	0.001364346	1466.3	20
313	0.002729989	1466.7	20
313	0.00409749	1466.9	20
313	0.00546592	1467.1	20
313	0.006833783	1467.3	20

System: trichloromethane + 2-[[[4-acetyl-5-(4-chlorophenyl)-4,5-dihydro-5-methyl-1,3,4-oxadiazol-2-yl]methyl]thio]-3-(2-methylphenyl)-4(3H)-quinazolinone; phases: Liquid
Fixed: Pressure, kPa = 101
Property: Viscosity, Pa*s (Liquid); method: Capillary tube (Ostwald; Ubbelohde) method
Temperature, K	Molality, mol/kg of 2-[[[4-acetyl-5-(4-chlorophenyl)-4,5-dihydro-5-methyl-1,3,4-oxadiazol-2-yl]methyl]thio]-3-(2-methylphenyl)-4(3H)-quinazolinone	Viscosity, Pa*s	uncertainty
303	0	0.0006628	0.0001326
303	0.000677781	0.0006646	0.000133
303	0.001355837	0.0006655	0.0001332
303	0.002712955	0.0006671	0.0001335
303	0.004071355	0.0006689	0.0001339
303	0.005431039	0.0006701	0.0001341
303	0.006790165	0.0006714	0.0001344
308	0	0.0006279	0.0001257
308	0.000679809	0.0006294	0.000126
308	0.001359708	0.0006303	0.0001261
308	0.002720705	0.0006321	0.0001265
308	0.004083269	0.0006334	0.0001268
308	0.005447681	0.0006346	0.000127
308	0.006810512	0.0006359	0.0001273
313	0	0.0005781	0.0001157
313	0.000682127	0.0005795	0.000116
313	0.001364346	0.0005803	0.0001161
313	0.002729989	0.0005822	0.0001165
313	0.00409749	0.0005836	0.0001168
313	0.00546592	0.0005844	0.000117
313	0.006833783	0.0005862	0.0001173

System: trichloromethane + 2-[[[4-acetyl-5-(4-chlorophenyl)-4,5-dihydro-5-methyl-1,3,4-oxadiazol-2-yl]methyl]thio]-3-(2-methylphenyl)-4(3H)-quinazolinone; phases: Liquid
Fixed: Pressure, kPa = 101
Fixed: Frequency, MHz = 2
Property: Speed of sound, m/s (Liquid); method: Linear variable-path acoustic interferometer
Temperature, K	Molality, mol/kg of 2-[[[4-acetyl-5-(4-chlorophenyl)-4,5-dihydro-5-methyl-1,3,4-oxadiazol-2-yl]methyl]thio]-3-(2-methylphenyl)-4(3H)-quinazolinone	Speed of sound, m/s	uncertainty
303	0	960	4.1
303	0.000677781	963.2	4.1
303	0.001355837	964	4.1
303	0.002712955	967.2	4.1
303	0.004071355	970	4.1
303	0.005431039	971.6	4.1
303	0.006790165	974.4	4.1
308	0	950.8	4
308	0.000679809	954.8	4.1
308	0.001359708	956.4	4.1
308	0.002720705	958.8	4.1
308	0.004083269	961.6	4.1
308	0.005447681	964	4.1
308	0.006810512	966.8	4.1
313	0	932.4	4
313	0.000682127	934	4
313	0.001364346	934.8	4
313	0.002729989	935.2	4
313	0.00409749	936.4	4.1
313	0.00546592	938.4	4.1
313	0.006833783	939.2	4.1

System: dimethylformamide + 2-[[[4-acetyl-5-(4-chlorophenyl)-4,5-dihydro-5-methyl-1,3,4-oxadiazol-2-yl]methyl]thio]-3-(2-methylphenyl)-4(3H)-quinazolinone; phases: Liquid
Fixed: Pressure, kPa = 101
Property: Mass density, kg/m3 (Liquid); method: Pycnometric method
Temperature, K	Molality, mol/kg of 2-[[[4-acetyl-5-(4-chlorophenyl)-4,5-dihydro-5-methyl-1,3,4-oxadiazol-2-yl]methyl]thio]-3-(2-methylphenyl)-4(3H)-quinazolinone	Mass density, kg/m3	uncertainty
303	0	941.7	20
303	0.001061907	943	20
303	0.002124262	943.2	20
303	0.004251668	943.7	20
303	0.006380868	944.2	20
303	0.008512317	944.9	20
303	0.01064375	945.3	20
308	0	937.2	20
308	0.001066323	937.4	20
308	0.002133325	937.6	20
308	0.004270277	938.2	20
308	0.006410181	938.6	20
308	0.008552357	939.4	20
308	0.01068926	939.8	20
313	0	933.6	20
313	0.001070662	933.8	20
313	0.002141778	934.1	20
313	0.004286752	934.5	20
313	0.006434931	935.2	20
313	0.008587242	935.9	20
313	0.01073747	936.6	20

System: dimethylformamide + 2-[[[4-acetyl-5-(4-chlorophenyl)-4,5-dihydro-5-methyl-1,3,4-oxadiazol-2-yl]methyl]thio]-3-(2-methylphenyl)-4(3H)-quinazolinone; phases: Liquid
Fixed: Pressure, kPa = 101
Property: Viscosity, Pa*s (Liquid); method: Capillary tube (Ostwald; Ubbelohde) method
Temperature, K	Molality, mol/kg of 2-[[[4-acetyl-5-(4-chlorophenyl)-4,5-dihydro-5-methyl-1,3,4-oxadiazol-2-yl]methyl]thio]-3-(2-methylphenyl)-4(3H)-quinazolinone	Viscosity, Pa*s	uncertainty
303	0	0.0007588	0.0001519
303	0.001061907	0.0007609	0.0001523
303	0.002124262	0.0007625	0.0001526
303	0.004251668	0.0007646	0.000153
303	0.006380868	0.0007674	0.0001536
303	0.008512317	0.0007706	0.0001542
303	0.01064375	0.0007727	0.0001546
308	0	0.0007056	0.0001412
308	0.001066323	0.0007071	0.0001415
308	0.002133325	0.0007089	0.0001419
308	0.004270277	0.0007112	0.0001423
308	0.006410181	0.0007143	0.000143
308	0.008552357	0.0007166	0.0001434
308	0.01068926	0.000719	0.0001439
313	0	0.0006353	0.0001272
313	0.001070662	0.0006358	0.0001273
313	0.002141778	0.0006373	0.0001276
313	0.004286752	0.0006396	0.000128
313	0.006434931	0.000642	0.0001285
313	0.008587242	0.0006451	0.0001291
313	0.01073747	0.0006484	0.0001298

System: dimethylformamide + 2-[[[4-acetyl-5-(4-chlorophenyl)-4,5-dihydro-5-methyl-1,3,4-oxadiazol-2-yl]methyl]thio]-3-(2-methylphenyl)-4(3H)-quinazolinone; phases: Liquid
Fixed: Pressure, kPa = 101
Fixed: Frequency, MHz = 2
Property: Speed of sound, m/s (Liquid); method: Linear variable-path acoustic interferometer
Temperature, K	Molality, mol/kg of 2-[[[4-acetyl-5-(4-chlorophenyl)-4,5-dihydro-5-methyl-1,3,4-oxadiazol-2-yl]methyl]thio]-3-(2-methylphenyl)-4(3H)-quinazolinone	Speed of sound, m/s	uncertainty
303	0	1442	6
303	0.001061907	1444	6
303	0.002124262	1445.6	6
303	0.004251668	1448	6
303	0.006380868	1450.8	6
303	0.008512317	1452	6
303	0.01064375	1454	6
308	0	1432	6
308	0.001066323	1434	6
308	0.002133325	1435.2	6
308	0.004270277	1436	6
308	0.006410181	1437.6	6
308	0.008552357	1439.6	6
308	0.01068926	1442	6
313	0	1402	5.9
313	0.001070662	1404	5.9
313	0.002141778	1405.2	5.9
313	0.004286752	1407.2	5.9
313	0.006434931	1408.4	5.9
313	0.008587242	1410.4	5.9
313	0.01073747	1412	6
