Measured thermophysical data. Density, viscosity, and N2O solubility of aqueous amino acid salt and amine amino acid salt solutions
Source: J. Chem. Thermodyn., 2012, 10.1016/j.jct.2011.09.012
Compound 1: sarcosine, C3H7NO2, InChI=1S/C3H7NO2/c1-4-2-3(5)6/h4H,2H2,1H3,(H,5,6), purity 98%
Compound 2: potassium hydroxide, HKO, InChI=1S/K.H2O/h;1H2/q+1;/p-1, purity 85%
Compound 3: N-methyl-1,3-diaminopropane, C4H12N2, InChI=1S/C4H12N2/c1-6-4-2-3-5/h6H,2-5H2,1H3, purity 98%
Compound 4: water, H2O, InChI=1S/H2O/h1H2, purity 99.8%

System: sarcosine + potassium hydroxide + water; phases: Liquid
Fixed: Pressure, kPa = 101
Property: Viscosity, Pa*s (Liquid); method: Cone and plate viscometry
Temperature, K	Mole fraction of sarcosine	Mole fraction of potassium hydroxide	Viscosity, Pa*s	uncertainty
293.15	0.01935	0.01941	0.001285	1.1e-05
293.15	0.04168	0.04176	0.001885	1.7e-05
293.15	0.06693	0.06705	0.002857	2.9e-05
293.15	0.08374	0.08377	0.00363	4e-05
293.15	0.09792	0.09787	0.004578	5.4e-05
303.15	0.01935	0.01941	0.001044	1e-05
303.15	0.04168	0.04176	0.001489	1.4e-05
303.15	0.06693	0.06705	0.00219	2.3e-05
303.15	0.08374	0.08377	0.002743	3.1e-05
303.15	0.09792	0.09787	0.003409	4.2e-05
313.15	0.01935	0.01941	0.000872	9e-06
313.15	0.04168	0.04176	0.001221	1.2e-05
313.15	0.06693	0.06705	0.001773	1.8e-05
313.15	0.08374	0.08377	0.002161	2.4e-05
313.15	0.09792	0.09787	0.002662	3.2e-05
323.15	0.01935	0.01941	0.000755	8e-06
323.15	0.04168	0.04176	0.001033	1e-05
323.15	0.06693	0.06705	0.001462	1.5e-05
323.15	0.08374	0.08377	0.001765	2e-05
323.15	0.09792	0.09787	0.002165	2.6e-05
333.15	0.01935	0.01941	0.000661	7e-06
333.15	0.04168	0.04176	0.000893	9e-06
333.15	0.06693	0.06705	0.001253	1.3e-05
333.15	0.08374	0.08377	0.001488	1.7e-05
333.15	0.09792	0.09787	0.001805	2.1e-05
343.15	0.01935	0.01941	0.000593	7e-06
343.15	0.04168	0.04176	0.00081	9e-06
343.15	0.06693	0.06705	0.00108	1.2e-05
343.15	0.08374	0.08377	0.001278	1.5e-05
343.15	0.09792	0.09787	0.001614	1.9e-05

System: sarcosine + potassium hydroxide + water; phases: Liquid
Fixed: Pressure, kPa = 101
Property: Mass density, kg/m3 (Liquid); method: Vibrating tube method
Temperature, K	Mole fraction of sarcosine	Mole fraction of potassium hydroxide	Mass density, kg/m3	uncertainty
298.15	0.01935	0.01941	1051.12	0.15
298.15	0.04168	0.04176	1101.98	0.28
298.15	0.05434	0.05427	1126.72	0.79
298.15	0.06693	0.06705	1148.62	0.55
298.15	0.08374	0.08377	1174.53	0.81
298.15	0.09792	0.09787	1193.76	1.07
298.15	0.13625	0.13619	1236.05	2.01
298.15	0.18232	0.18236	1274.74	3.64
298.15	0.24794	0.24812	1311.82	6.94
313.15	0.01935	0.01941	1045.5	0.15
313.15	0.04168	0.04176	1095.38	0.27
313.15	0.05434	0.05427	1119.78	0.7
313.15	0.06693	0.06705	1141.2	0.55
313.15	0.08374	0.08377	1166.7	0.79
313.15	0.09792	0.09787	1185.48	1.05
313.15	0.13625	0.13619	1227.21	1.98
313.15	0.18232	0.18236	1264.81	3.58
313.15	0.24794	0.24812	1301.85	6.84
333.15	0.01935	0.01941	1039	0.15
333.15	0.04168	0.04176	1085.65	0.26
333.15	0.05434	0.05427	1109.49	0.61
333.15	0.06693	0.06705	1134.48	0.54
333.15	0.08374	0.08377	1154.78	0.78
333.15	0.09792	0.09787	1177.66	1.04
333.15	0.13625	0.13619	1215.69	1.94
333.15	0.18232	0.18236	1253.56	3.52
333.15	0.24794	0.24812	1288.57	6.7
353.15	0.01935	0.01941	1020.12	0.15
353.15	0.04168	0.04176	1073.81	0.26
353.15	0.05434	0.05427	1097.43	0.43
353.15	0.06693	0.06705	1122.2	0.53
353.15	0.08374	0.08377	1142.19	0.76
353.15	0.09792	0.09787	1165.18	1.02
353.15	0.13625	0.13619	1202.72	1.9
353.15	0.18232	0.18236	1240.21	3.44
353.15	0.24794	0.24812	1275.06	6.55

System: sarcosine + N-methyl-1,3-diaminopropane + water; phases: Liquid
Fixed: Pressure, kPa = 101
Property: Viscosity, Pa*s (Liquid); method: Cone and plate viscometry
Temperature, K	Mole fraction of sarcosine	Mole fraction of N-methyl-1,3-diaminopropane	Viscosity, Pa*s	uncertainty
293.15	0.01964	0.00982	0.001446	1.2e-05
293.15	0.04315	0.0216	0.002465	2e-05
293.15	0.0721	0.03605	0.004832	3.9e-05
293.15	0.10919	0.05462	0.011545	0.000102
293.15	0.15751	0.07874	0.033629	0.000336
303.15	0.01964	0.00982	0.001152	1.1e-05
303.15	0.04315	0.0216	0.001888	1.6e-05
303.15	0.0721	0.03605	0.003482	3.1e-05
303.15	0.10919	0.05462	0.007705	7.6e-05
303.15	0.15751	0.07874	0.020355	0.000241
313.15	0.01964	0.00982	0.000969	9e-06
313.15	0.04315	0.0216	0.001495	1.3e-05
313.15	0.0721	0.03605	0.00264	2.2e-05
313.15	0.10919	0.05462	0.005519	4.9e-05
313.15	0.15751	0.07874	0.013185	0.000139
323.15	0.01964	0.00982	0.00081	8e-06
323.15	0.04315	0.0216	0.001231	1.1e-05
323.15	0.0721	0.03605	0.002087	1.7e-05
323.15	0.10919	0.05462	0.004098	3.5e-05
323.15	0.15751	0.07874	0.009109	8.7e-05
333.15	0.01964	0.00982	0.00071	7e-06
333.15	0.04315	0.0216	0.001054	9e-06
333.15	0.0721	0.03605	0.001729	1.3e-05
333.15	0.10919	0.05462	0.00323	2.4e-05
333.15	0.15751	0.07874	0.006689	5.9e-05
343.15	0.01964	0.00982	0.000628	7e-06
343.15	0.04315	0.0216	0.001018	9e-06
343.15	0.0721	0.03605	0.001639	1.2e-05
343.15	0.10919	0.05462	0.002934	2e-05
343.15	0.15751	0.07874	0.005088	4.6e-05

System: sarcosine + N-methyl-1,3-diaminopropane + water; phases: Liquid
Fixed: Pressure, kPa = 101
Property: Mass density, kg/m3 (Liquid); method: Vibrating tube method
Temperature, K	Mole fraction of sarcosine	Mole fraction of N-methyl-1,3-diaminopropane	Mass density, kg/m3	uncertainty
298.15	0.01964	0.00982	1021.42	0.11
298.15	0.04315	0.0216	1044.65	0.13
298.15	0.05396	0.02698	1055.92	0.14
298.15	0.0721	0.03605	1066.9	0.14
298.15	0.08912	0.04457	1077.33	0.15
298.15	0.10919	0.05462	1087.66	0.16
298.15	0.15751	0.07874	1105.51	0.19
298.15	0.22725	0.11342	1118.79	0.25
313.15	0.01964	0.00982	1015.77	0.11
313.15	0.04315	0.0216	1038.25	0.13
313.15	0.05396	0.02698	1049.1	0.14
313.15	0.0721	0.03605	1059.76	0.14
313.15	0.08912	0.04457	1069.75	0.15
313.15	0.10919	0.05462	1079.72	0.16
313.15	0.15751	0.07874	1097.04	0.19
313.15	0.22725	0.11342	1110.24	0.24
333.15	0.01964	0.00982	1006.57	0.11
333.15	0.04315	0.0216	1028.37	0.13
333.15	0.05396	0.02698	1039.06	0.13
333.15	0.0721	0.03605	1049.22	0.14
333.15	0.08912	0.04457	1058.87	0.15
333.15	0.10919	0.05462	1068.61	0.16
333.15	0.15751	0.07874	1085.26	0.18
333.15	0.22725	0.11342	1098.07	0.24
353.15	0.01964	0.00982	995.3	0.11
353.15	0.04315	0.0216	1015.75	0.13
353.15	0.05396	0.02698	1027.31	0.14
353.15	0.0721	0.03605	1037.31	0.13
353.15	0.08912	0.04457	1046.8	0.14
353.15	0.10919	0.05462	1056.38	0.15
353.15	0.15751	0.07874	1072.81	0.18
353.15	0.22725	0.11342	1085.56	0.23
