Measured thermophysical data. Measurement of spectral emissivity and constant pressure heat capacity of liquid platinum with an electrostatic levitator
Source: J. Chem. Thermodyn., 2017, 10.1016/j.jct.2017.04.006
Compound 1: platinum, Pt, InChI=1S/Pt, purity 99.8%

System: platinum; phases: Liquid
Property: Molar heat capacity at constant pressure, J/K/mol (Liquid); method: Levitation methods
Temperature, K	Pressure, kPa	Molar heat capacity at constant pressure, J/K/mol	uncertainty
2041.2	101.325	38.8	3.8
