Measured thermophysical data. (Liquid + liquid) equilibria of the (water + butyric acid + dodecanol) ternary system
Source: J. Chem. Thermodyn., 2006, 10.1016/j.jct.2005.07.025
Compound 1: water, H2O, InChI=1S/H2O/h1H2
Compound 2: butanoic acid, C4H8O2, InChI=1S/C4H8O2/c1-2-3-4(5)6/h2-3H2,1H3,(H,5,6), purity 99%
Compound 3: dodecan-1-ol, C12H26O, InChI=1S/C12H26O/c1-2-3-4-5-6-7-8-9-10-11-12-13/h13H,2-12H2,1H3, purity 98%

System: butanoic acid; phases: Liquid
Property: Refractive index (Na D-line) (Liquid); method: Standard Abbe refractometry
Temperature, K	Pressure, kPa	Refractive index (Na D-line)	uncertainty
298.2	101.325	1.3975	0.0008

System: butanoic acid; phases: Liquid, Gas
Property: Boiling temperature at pressure P, K (Liquid); method: Fischer boiling point apparatus
Pressure, kPa	Boiling temperature at pressure P, K	uncertainty
101.325	436.7	0.2

System: butanoic acid; phases: Liquid
Property: Mass density, kg/m3 (Liquid); method: VIBTUB:UFactor:4
Temperature, K	Pressure, kPa	Mass density, kg/m3	uncertainty
298.2	101.325	952.8	0.52

System: dodecan-1-ol; phases: Liquid
Property: Refractive index (Na D-line) (Liquid); method: Standard Abbe refractometry
Temperature, K	Pressure, kPa	Refractive index (Na D-line)	uncertainty
298.2	101.325	1.3964	0.05

System: dodecan-1-ol; phases: Liquid, Gas
Property: Boiling temperature at pressure P, K (Liquid); method: Fischer boiling point apparatus
Pressure, kPa	Boiling temperature at pressure P, K	uncertainty
101.325	532.5	1

System: dodecan-1-ol; phases: Liquid
Property: Mass density, kg/m3 (Liquid); method: VIBTUB:UFactor:8
Temperature, K	Pressure, kPa	Mass density, kg/m3	uncertainty
297.2	101.325	830.8	1.16

System: butanoic acid + dodecan-1-ol + water; phases: Liquid mixture 2, Liquid mixture 1
Fixed: Pressure, kPa = 101.325
Property: Mass fraction of butanoic acid (Liquid mixture 2); method: CHROM:UFactor:4
Property: Mass fraction of water (Liquid mixture 1); method: CHROM:UFactor:4
Property: Mass fraction of butanoic acid (Liquid mixture 1); method: CHROM:UFactor:4
Temperature, K	Mass fraction of water	Mass fraction of butanoic acid	uncertainty	Mass fraction of water	uncertainty	Mass fraction of butanoic acid	uncertainty
298.2	0.98	0.019	0.0008	0.0328	0.0039	0.0952	
298.2	0.963	0.0348	0.0014	0.0391	0.0047	0.1689	
298.2	0.9482	0.0483	0.0019	0.0405	0.0049	0.2345	
298.2	0.934	0.0615	0.0025	0.0512	0.0061	0.3008	
298.2	0.9236	0.0709	0.0028	0.0568	0.0068	0.3532	
298.2	0.9103	0.0832	0.0033	0.0671	0.0081	0.4099	
298.2	0.8995	0.093	0.0037	0.0865	0.0104	0.4605	
298.2	0.8887	0.1028	0.0041	0.1255	0.0151	0.5345	
298.2	0.88	0.11	0.0044	0.1075	0.0129	0.5075	
308.2	0.978	0.0219	0.0009	0.0355	0.0043	0.1045	
308.2	0.966	0.0338	0.0014	0.0413	0.005	0.1607	
308.2	0.95	0.0486	0.0019	0.0479	0.0057	0.2321	
308.2	0.9367	0.0613	0.0025	0.0602	0.0072	0.2998	
308.2	0.9253	0.0722	0.0029	0.0619	0.0074	0.3521	
308.2	0.9144	0.0826	0.0033	0.0697	0.0084	0.4053	
308.2	0.9018	0.0947	0.0038	0.0914	0.011	0.4616	
308.2	0.8945	0.1015	0.0041	0.0983	0.0118	0.4967	
308.2	0.8863	0.1092	0.0044	0.1104	0.0132	0.5256	
318.2	0.9714	0.0231	0.0009	0.038	0.0046	0.104	
318.2	0.9586	0.0364	0.0015	0.0493	0.0059	0.2017	
318.2	0.9476	0.0479	0.0019	0.0539	0.0065	0.2631	
318.2	0.9363	0.0597	0.0024	0.0711	0.0085	0.3609	
318.2	0.9241	0.0724	0.0029	0.089	0.0107	0.423	
318.2	0.9145	0.0825	0.0033	0.0958	0.0115	0.4362	
318.2	0.9043	0.0932	0.0037	0.1091	0.0131	0.4669	
318.2	0.893	0.105	0.0042	0.1303	0.0156	0.5097	
318.2	0.8881	0.1103	0.0044	0.1628	0.0195	0.5522	
