Measured thermophysical data. Vapour pressures and thermodynamic stability of the three aminophenol isomers
Source: J. Chem. Thermodyn., 2019, 10.1016/j.jct.2018.09.011
Compound 1: 2-hydroxybenzenamine, C6H7NO, InChI=1S/C6H7NO/c7-5-3-1-2-4-6(5)8/h1-4,8H,7H2
Compound 2: 3-hydroxybenzenamine, C6H7NO, InChI=1S/C6H7NO/c7-5-2-1-3-6(8)4-5/h1-4,8H,7H2
Compound 3: 4-hydroxybenzenamine, C6H7NO, InChI=1S/C6H7NO/c7-5-1-3-6(8)4-2-5/h1-4,8H,7H2

System: 2-hydroxybenzenamine; phases: Crystal, Liquid, Air at 1 atmosphere
Property: Normal melting temperature, K (Crystal); method: DTA
Normal melting temperature, K	uncertainty
447.53	0.68

System: 2-hydroxybenzenamine; phases: Crystal, Liquid, Air at 1 atmosphere
Property: Molar enthalpy of transition or fusion, kJ/mol (Crystal); method: DSC
Molar enthalpy of transition or fusion, kJ/mol	uncertainty
32.6	0.81

System: 2-hydroxybenzenamine; phases: Crystal, Gas
Property: Vapor or sublimation pressure, kPa (Crystal); method: Calculated from knudsen effusion weight loss
Temperature, K	Vapor or sublimation pressure, kPa	uncertainty
321.12	0.000107	2e-05
323.43	0.000138	2.1e-05
325.14	0.00017	2.1e-05
327.13	0.000214	2.1e-05
329.3	0.000275	2.2e-05
331.21	0.00034	2.3e-05
333.13	0.000419	2.5e-05
335.33	0.000538	2.8e-05
337.2	0.000657	3.1e-05
339.14	0.000826	3.5e-05
341.33	0.001036	8.1e-05
343.26	0.00129	0.000105
321.12	0.000105	2e-05
323.43	0.000141	2.1e-05
325.14	0.00017	2.1e-05
327.13	0.000212	2.1e-05
329.3	0.000271	2.2e-05
331.21	0.000343	2.3e-05
333.13	0.000423	2.5e-05
335.33	0.000534	2.8e-05
337.2	0.000661	3.1e-05
339.14	0.000824	3.5e-05
341.33	0.001041	8.1e-05
343.26	0.00129	0.000105
321.12	0.000106	2e-05
323.43	0.000139	2.1e-05
325.14	0.000172	2.1e-05
327.13	0.000212	2.1e-05
329.3	0.000277	2.2e-05
331.21	0.000335	2.3e-05
333.13	0.000423	2.5e-05
335.33	0.000541	2.8e-05
337.2	0.000654	3.1e-05
339.14	0.000835	3.6e-05
341.33	0.001043	8.2e-05
343.26	0.001263	0.000103

System: 3-hydroxybenzenamine; phases: Crystal, Liquid, Air at 1 atmosphere
Property: Normal melting temperature, K (Crystal); method: DTA
Normal melting temperature, K	uncertainty
394.63	0.63

System: 3-hydroxybenzenamine; phases: Crystal, Liquid, Air at 1 atmosphere
Property: Molar enthalpy of transition or fusion, kJ/mol (Crystal); method: DSC
Molar enthalpy of transition or fusion, kJ/mol	uncertainty
23.44	0.65

System: 3-hydroxybenzenamine; phases: Crystal, Gas
Property: Vapor or sublimation pressure, kPa (Crystal); method: CCELL1
Temperature, K	Vapor or sublimation pressure, kPa	uncertainty
354.45	0.00426	0.00023
356.39	0.00515	0.00023
358.34	0.00622	0.00025
360.33	0.00754	0.00026
362.32	0.00913	0.00026
364.28	0.01083	0.00028
366.24	0.01321	0.00029
368.21	0.01572	0.00032
370.19	0.01886	0.00035
372.14	0.02314	0.00038
374.12	0.02745	0.00041
376.1	0.03277	0.00045
378.06	0.0385	0.00051
380.03	0.04532	0.00056
382.13	0.05475	0.00065
383.96	0.06316	0.00072
385.9	0.07525	0.00082
387.9	0.08917	0.00094
389.85	0.1058	0.0011
391.83	0.1242	0.0012

System: 3-hydroxybenzenamine; phases: Metastable liquid, Gas
Property: Vapor or sublimation pressure, kPa (Metastable liquid); method: CCELL1
Temperature, K	Vapor or sublimation pressure, kPa	uncertainty
369.99	0.02985	0.00042
371.93	0.03445	0.00047
373.94	0.03983	0.00051
375.91	0.04535	0.00055
377.86	0.05245	0.00062
379.83	0.06035	0.00069
381.81	0.06885	0.00076
383.79	0.07865	0.00085
385.75	0.08925	0.00093
387.75	0.1024	0.0011
389.74	0.1162	0.0012
391.73	0.131	0.0013
393.68	0.1478	0.0015
395.67	0.1684	0.0016
397.62	0.1915	0.0019
399.72	0.2191	0.002
401.54	0.2426	0.0023
403.63	0.2731	0.0026
405.59	0.3119	0.0029
407.46	0.3461	0.0032
409.54	0.3932	0.0036
411.5	0.4342	0.004
413.47	0.4825	0.0044
415.43	0.5451	0.005
417.4	0.6031	0.0054
419.39	0.6721	0.006
421.33	0.7506	0.0067
423.31	0.8416	0.0075

System: 3-hydroxybenzenamine; phases: Crystal, Gas
Property: Vapor or sublimation pressure, kPa (Crystal); method: Calculated from knudsen effusion weight loss
Temperature, K	Vapor or sublimation pressure, kPa	uncertainty
321.35	0.000101	2e-05
323.2	0.000127	2.1e-05
325.17	0.000162	2.1e-05
327.4	0.00021	2.1e-05
329.2	0.000259	2.2e-05
331.17	0.000328	2.3e-05
333.37	0.00042	2.5e-05
335.2	0.00051	2.7e-05
337.16	0.000633	3e-05
339.36	0.000818	3.5e-05
341.19	0.00099	4e-05
343.33	0.001245	0.000101
321.35	0.000102	2e-05
323.2	0.000127	2.1e-05
325.17	0.000163	2.1e-05
327.4	0.000209	2.1e-05
329.2	0.00026	2.2e-05
331.17	0.000327	2.3e-05
333.37	0.000422	2.5e-05
335.2	0.000513	2.7e-05
337.16	0.00063	3e-05
339.36	0.000816	3.5e-05
341.19	0.000998	4.1e-05
343.33	0.001241	0.000101
321.35	0.000101	2e-05
323.2	0.000126	2.1e-05
325.17	0.000161	2.1e-05
327.4	0.000211	2.1e-05
329.2	0.000259	2.2e-05
331.17	0.00033	2.3e-05
333.37	0.00042	2.5e-05
335.2	0.0005	2.7e-05
337.16	0.000633	3e-05
339.36	0.000808	3.5e-05
341.19	0.001	4.1e-05
343.33	0.001238	0.0001

System: 4-hydroxybenzenamine; phases: Crystal, Liquid, Air at 1 atmosphere
Property: Normal melting temperature, K (Crystal); method: DTA
Normal melting temperature, K	uncertainty
460.04	0.68

System: 4-hydroxybenzenamine; phases: Crystal, Liquid, Air at 1 atmosphere
Property: Molar enthalpy of transition or fusion, kJ/mol (Crystal); method: DSC
Molar enthalpy of transition or fusion, kJ/mol	uncertainty
31.42	0.83

System: 4-hydroxybenzenamine; phases: Crystal, Gas
Property: Vapor or sublimation pressure, kPa (Crystal); method: Calculated from knudsen effusion weight loss
Temperature, K	Vapor or sublimation pressure, kPa	uncertainty
337.15	0.000113	2e-05
339.54	0.000147	2.1e-05
341.2	0.000177	2.1e-05
343.15	0.000219	2.1e-05
345.47	0.000287	2.2e-05
347.19	0.000344	2.3e-05
349.15	0.000431	2.5e-05
351.21	0.00053	2.7e-05
353.2	0.000645	3e-05
355.14	0.000796	3.5e-05
357.46	0.001018	7.9e-05
359.19	0.001205	9.7e-05
337.15	0.000111	2e-05
339.54	0.000144	2.1e-05
341.2	0.000179	2.1e-05
343.15	0.000223	2.2e-05
345.47	0.000284	2.2e-05
347.19	0.000348	2.4e-05
349.15	0.000425	2.5e-05
351.21	0.000527	2.7e-05
353.2	0.000653	3.1e-05
355.14	0.000787	3.4e-05
357.46	0.001002	7.8e-05
359.19	0.001211	9.8e-05
337.15	0.000111	2e-05
339.54	0.000145	2.1e-05
341.2	0.000175	2.1e-05
343.15	0.000221	2.1e-05
345.47	0.00028	2.2e-05
347.19	0.000342	2.3e-05
349.15	0.000418	2.5e-05
351.21	0.000533	2.8e-05
353.2	0.000634	3e-05
355.14	0.000786	3.4e-05
357.46	0.001003	7.8e-05
359.19	0.001198	9.6e-05
