Measured thermophysical data. Experimental and computational study of the energetics of 5- and 6-aminoindazole
Source: J. Chem. Thermodyn., 2010, 10.1016/j.jct.2010.04.026
Compound 1: carbon dioxide, CO2, InChI=1S/CO2/c2-1-3
Compound 2: nitrogen, N2, InChI=1S/N2/c1-2
Compound 3: water, H2O, InChI=1S/H2O/h1H2
Compound 4: oxygen, O2, InChI=1S/O2/c1-2
Compound 5: 5-aminoindazole, C7H7N3, InChI=1S/C7H7N3/c8-6-1-2-7-5(3-6)4-9-10-7/h1-4H,8H2,(H,9,10), purity 97%
Compound 6: 6-aminoindazole, C7H7N3, InChI=1S/C7H7N3/c8-6-2-1-5-4-9-10-7(5)3-6/h1-4H,8H2,(H,9,10), purity 98%

System: 5-aminoindazole; phases: Crystal
Property: Mass density, kg/m3 (Crystal); method: pellet size and mass
Temperature, K	Pressure, kPa	Mass density, kg/m3	uncertainty
295.1	101.325	1400	30

System: 5-aminoindazole; phases: Crystal, Gas
Property: Vapor or sublimation pressure, kPa (Crystal); method: Calculated from knudsen effusion weight loss
Temperature, K	Vapor or sublimation pressure, kPa	uncertainty
358.123	8.43e-05	4.2e-06
358.123	8.3e-05	4.2e-06
360.177	0.000101	5.1e-06
360.177	0.0001064	5.3e-06
360.177	0.000103	5.2e-06
362.163	0.0001305	6.5e-06
362.163	0.0001265	6.3e-06
362.163	0.0001259	6.3e-06
364.114	0.0001589	8e-06
364.114	0.0001556	7.8e-06
364.114	0.0001563	7.8e-06
366.166	0.0001991	1e-05
366.166	0.0001966	9.8e-06
366.166	0.0001879	9.4e-06
368.167	0.0002397	1.2e-05
368.167	0.0002332	1.17e-05
368.167	0.0002247	1.13e-05
370.135	0.0002948	1.48e-05
370.135	0.0002986	1.49e-05
372.179	0.0003483	1.74e-05
372.179	0.0003696	1.85e-05
372.179	0.0003499	1.75e-05
374.155	0.0004435	2.22e-05
374.155	0.0004334	2.17e-05
374.155	0.0004198	2.1e-05
376.133	0.0005419	2.71e-05
376.133	0.000534	2.67e-05
376.133	0.0005297	2.65e-05
378.172	0.0006618	3.31e-05
378.172	0.000668	3.34e-05
378.172	0.0006232	3.12e-05
380.162	0.0007639	3.82e-05
380.162	0.0007696	3.85e-05
380.162	0.0007519	3.76e-05

System: 6-aminoindazole; phases: Crystal
Property: Mass density, kg/m3 (Crystal); method: pellet size and mass
Temperature, K	Pressure, kPa	Mass density, kg/m3	uncertainty
295.1	101.325	1450	30

System: 6-aminoindazole; phases: Crystal, Gas
Property: Vapor or sublimation pressure, kPa (Crystal); method: Calculated from knudsen effusion weight loss
Temperature, K	Vapor or sublimation pressure, kPa	uncertainty
366.142	0.0001031	5.2e-06
366.142	0.0001023	5.1e-06
366.142	0.0001025	5.1e-06
368.169	0.0001275	6.4e-06
368.169	0.0001257	6.3e-06
368.169	0.0001221	6.1e-06
370.179	0.0001528	7.7e-06
370.179	0.0001513	7.6e-06
370.179	0.0001468	7.4e-06
372.138	0.0001923	9.6e-06
372.138	0.0001919	9.6e-06
372.138	0.0001878	9.4e-06
374.159	0.0002356	1.18e-05
374.159	0.000234	1.17e-05
374.159	0.0002228	1.12e-05
376.174	0.0002875	1.44e-05
376.174	0.0002739	1.37e-05
378.149	0.0003523	1.76e-05
378.149	0.0003592	1.8e-05
378.149	0.0003463	1.73e-05
380.164	0.0004332	2.17e-05
380.164	0.000428	2.14e-05
380.164	0.0004138	2.07e-05
382.172	0.0005244	2.62e-05
382.172	0.0005044	2.52e-05
382.172	0.0005114	2.56e-05
384.151	0.0006281	3.14e-05
384.151	0.0006132	3.07e-05
384.151	0.0006304	3.16e-05
386.158	0.0007813	3.91e-05
386.158	0.0007708	3.86e-05
386.158	0.0007396	3.7e-05
388.167	0.0009109	4.56e-05
388.167	0.0008984	4.49e-05
388.167	0.0008878	4.44e-05

Reaction: -1 5-aminoindazole + 7 carbon dioxide + 1.5 nitrogen + 3.5 water + -8.75 oxygen
Property: Specific internal energy of reaction at constant volume, J/g
-29299.4

Reaction: -1 6-aminoindazole + 7 carbon dioxide + 1.5 nitrogen + 3.5 water + -8.75 oxygen
Property: Specific internal energy of reaction at constant volume, J/g
-29255.9
