Measured thermophysical data. Thermochemical properties of microporous materials for two borogermanates, .beta.-K2[B2Ge3O10] and NH4[BGe3O8]
Source: J. Chem. Thermodyn., 2016, 10.1016/j.jct.2015.08.032
Compound 1: potassium, K, InChI=1S/K
Compound 2: boron, B, InChI=1S/B
Compound 3: germanium, Ge, InChI=1S/Ge
Compound 4: oxygen, O2, InChI=1S/O2/c1-2
Compound 5: hydrogen, H2, InChI=1S/H2/h1H
Compound 6: nitrogen, N2, InChI=1S/N2/c1-2
Compound 7: germanium potassium borate oxide [K2(B2Ge3O10)], B2Ge3K2O10, InChI=1S/2B.3Ge.2K.10O/q2*+3;3*+4;2*+1;10*-2, purity 99.32%
Compound 8: ammonium germanium borate oxide [NH4(BGe3O8)], BGe3H4NO8, InChI=1S/B.3Ge.H3N.8O/h;;;;1H3;;;;;;;;/q+3;3*+4;;8*-2/p+1, purity 98.96%

Reaction: -2 potassium + -2 boron + -3 germanium + 1 germanium potassium borate oxide [K2(B2Ge3O10)] + -5 oxygen
Property: Molar enthalpy of reaction, kJ/mol
-3937.1

Reaction: -1 boron + -3 germanium + 1 ammonium germanium borate oxide [NH4(BGe3O8)] + -2 hydrogen + -.5 nitrogen + -4 oxygen
Property: Molar enthalpy of reaction, kJ/mol
-2713.7
