Measured thermophysical data. Solubility measurement and modelling of 1,8-dinitronaphthalene in nine organic solvents from T = (273.15 to 308.15) K and mixing properties of solutions
Source: J. Chem. Thermodyn., 2015, 10.1016/j.jct.2015.07.010
Compound 1: 1,8-dinitronaphthalene, C10H6N2O4, InChI=1S/C10H6N2O4/c13-11(14)8-5-1-3-7-4-2-6-9(10(7)8)12(15)16/h1-6H, purity 98.5%
Compound 2: acetonitrile, C2H3N, InChI=1S/C2H3N/c1-2-3/h1H3, purity 99%
Compound 3: methanol, CH4O, InChI=1S/CH4O/c1-2/h2H,1H3, purity 99.5%
Compound 4: ethanol, C2H6O, InChI=1S/C2H6O/c1-2-3/h3H,2H2,1H3, purity 99.7%
Compound 5: trichloromethane, CHCl3, InChI=1S/CHCl3/c2-1(3)4/h1H, purity 99%
Compound 6: propan-2-ol, C3H8O, InChI=1S/C3H8O/c1-3(2)4/h3-4H,1-2H3, purity 99.7%
Compound 7: acetone, C3H6O, InChI=1S/C3H6O/c1-3(2)4/h1-2H3, purity 99.5%
Compound 8: toluene, C7H8, InChI=1S/C7H8/c1-7-5-3-2-4-6-7/h2-6H,1H3, purity 99.5%
Compound 9: ethyl acetate, C4H8O2, InChI=1S/C4H8O2/c1-3-6-4(2)5/h3H2,1-2H3, purity 99.5%
Compound 10: butan-1-ol, C4H10O, InChI=1S/C4H10O/c1-2-3-4-5/h5H,2-4H2,1H3, purity 99.5%

System: acetonitrile + 1,8-dinitronaphthalene; phases: Liquid, Crystal
Fixed: Pressure, kPa = 100
Property: Mole fraction of 1,8-dinitronaphthalene (Liquid); method: Chromatography
Temperature, K	Mole fraction of 1,8-dinitronaphthalene	uncertainty
273.15	0.002951	0.000118
275.65	0.003306	0.000133
278.15	0.003899	0.000157
280.65	0.004648	0.000187
283.15	0.005285	0.000212
285.65	0.005971	0.000239
288.15	0.00661	0.000265
291.15	0.007609	0.000305
293.15	0.008214	0.000329
295.65	0.009209	0.000369
298.15	0.01022	0.00041
300.65	0.01115	0.00045
303.15	0.01199	0.00048
305.65	0.01297	0.00052
308.15	0.01398	0.00056

System: methanol + 1,8-dinitronaphthalene; phases: Liquid, Crystal
Fixed: Pressure, kPa = 100
Property: Mole fraction of 1,8-dinitronaphthalene (Liquid); method: Chromatography
Temperature, K	Mole fraction of 1,8-dinitronaphthalene	uncertainty
273.15	0.0002933	1.18e-05
275.65	0.0003269	1.31e-05
278.15	0.0003563	1.43e-05
280.65	0.0003983	1.6e-05
283.15	0.0004291	1.72e-05
285.65	0.0004855	1.95e-05
288.15	0.0005358	2.15e-05
291.15	0.0005987	2.4e-05
293.15	0.0006414	2.57e-05
295.65	0.0006957	2.79e-05
298.15	0.000758	3.04e-05
300.65	0.0008209	3.29e-05
303.15	0.0008907	3.57e-05
305.65	0.0009705	3.89e-05
308.15	0.001063	4.3e-05

System: ethanol + 1,8-dinitronaphthalene; phases: Liquid, Crystal
Fixed: Pressure, kPa = 100
Property: Mole fraction of 1,8-dinitronaphthalene (Liquid); method: Chromatography
Temperature, K	Mole fraction of 1,8-dinitronaphthalene	uncertainty
273.15	0.0002416	9.7e-06
275.65	0.0002668	1.07e-05
278.15	0.000294	1.18e-05
280.65	0.0003234	1.3e-05
283.15	0.0003505	1.4e-05
285.65	0.0003848	1.54e-05
288.15	0.0004275	1.71e-05
291.15	0.0004841	1.94e-05
293.15	0.0005288	2.12e-05
295.65	0.0005838	2.34e-05
298.15	0.0006456	2.59e-05
300.65	0.0007101	2.85e-05
303.15	0.0007889	3.16e-05
305.65	0.0008775	3.52e-05
308.15	0.0009938	3.99e-05

System: trichloromethane + 1,8-dinitronaphthalene; phases: Liquid, Crystal
Fixed: Pressure, kPa = 100
Property: Mole fraction of 1,8-dinitronaphthalene (Liquid); method: Chromatography
Temperature, K	Mole fraction of 1,8-dinitronaphthalene	uncertainty
273.15	0.003105	0.000125
275.65	0.003497	0.00014
278.15	0.003817	0.000153
280.65	0.004201	0.000168
283.15	0.004735	0.00019
285.65	0.005078	0.000204
288.15	0.005608	0.000225
291.15	0.006007	0.000241
293.15	0.006509	0.000261
295.65	0.007316	0.000293
298.15	0.007869	0.000315
300.65	0.008396	0.000336
303.15	0.009225	0.00037
305.65	0.009833	0.000394
308.15	0.01071	0.00043

System: propan-2-ol + 1,8-dinitronaphthalene; phases: Liquid, Crystal
Fixed: Pressure, kPa = 100
Property: Mole fraction of 1,8-dinitronaphthalene (Liquid); method: Chromatography
Temperature, K	Mole fraction of 1,8-dinitronaphthalene	uncertainty
273.15	8.974e-05	3.6e-06
275.65	0.0001033	4.1e-06
278.15	0.0001259	5.1e-06
280.65	0.0001463	5.9e-06
283.15	0.0001727	6.9e-06
285.65	0.0001978	7.9e-06
288.15	0.0002239	9e-06
291.15	0.0002646	1.06e-05
293.15	0.0002965	1.19e-05
295.65	0.000334	1.34e-05
298.15	0.0003825	1.53e-05
300.65	0.0004296	1.72e-05
303.15	0.0004818	1.93e-05
305.65	0.0005357	2.15e-05
308.15	0.0006052	2.43e-05

System: acetone + 1,8-dinitronaphthalene; phases: Liquid, Crystal
Fixed: Pressure, kPa = 100
Property: Mole fraction of 1,8-dinitronaphthalene (Liquid); method: Chromatography
Temperature, K	Mole fraction of 1,8-dinitronaphthalene	uncertainty
273.15	0.01035	0.00041
275.65	0.01126	0.00045
278.15	0.0119	0.00048
280.65	0.01298	0.00052
283.15	0.01397	0.00056
285.65	0.01519	0.00061
288.15	0.01634	0.00065
291.15	0.01768	0.00071
293.15	0.01893	0.00076
295.65	0.02053	0.00082
298.15	0.02231	0.00089
300.65	0.0243	0.00097
303.15	0.02609	0.00105
305.65	0.02801	0.00112
308.15	0.03061	0.00123

System: toluene + 1,8-dinitronaphthalene; phases: Liquid, Crystal
Fixed: Pressure, kPa = 100
Property: Mole fraction of 1,8-dinitronaphthalene (Liquid); method: Chromatography
Temperature, K	Mole fraction of 1,8-dinitronaphthalene	uncertainty
273.15	0.001187	4.8e-05
275.65	0.001251	5e-05
278.15	0.001379	5.5e-05
280.65	0.001571	6.3e-05
283.15	0.001712	6.9e-05
285.65	0.001885	7.6e-05
288.15	0.002052	8.2e-05
291.15	0.002353	9.4e-05
293.15	0.002555	0.000102
295.65	0.002804	0.000112
298.15	0.003093	0.000124
300.65	0.003441	0.000138
303.15	0.003821	0.000153
305.65	0.004268	0.000171
308.15	0.00468	0.000188

System: ethyl acetate + 1,8-dinitronaphthalene; phases: Liquid, Crystal
Fixed: Pressure, kPa = 100
Property: Mole fraction of 1,8-dinitronaphthalene (Liquid); method: Chromatography
Temperature, K	Mole fraction of 1,8-dinitronaphthalene	uncertainty
273.15	0.004137	0.000166
275.65	0.004456	0.000179
278.15	0.004712	0.000189
280.65	0.005223	0.000209
283.15	0.005507	0.000221
285.65	0.006073	0.000243
288.15	0.006592	0.000264
291.15	0.007203	0.000289
293.15	0.00765	0.000307
295.65	0.008223	0.00033
298.15	0.008795	0.000352
300.65	0.009469	0.000379
303.15	0.01016	0.00041
305.65	0.01102	0.00044
308.15	0.01194	0.00048

System: butan-1-ol + 1,8-dinitronaphthalene; phases: Liquid, Crystal
Fixed: Pressure, kPa = 100
Property: Mole fraction of 1,8-dinitronaphthalene (Liquid); method: Chromatography
Temperature, K	Mole fraction of 1,8-dinitronaphthalene	uncertainty
273.15	0.0001553	6.2e-06
275.65	0.0001783	7.2e-06
278.15	0.0002099	8.4e-06
280.65	0.0002371	9.5e-06
283.15	0.0002721	1.09e-05
285.65	0.0003136	1.26e-05
288.15	0.0003555	1.43e-05
291.15	0.0004113	1.65e-05
293.15	0.0004489	1.8e-05
295.65	0.0005039	2.02e-05
298.15	0.0005619	2.25e-05
300.65	0.0006234	2.5e-05
303.15	0.0006901	2.77e-05
305.65	0.0007594	3.04e-05
308.15	0.000832	3.33e-05
