Measured thermophysical data. Study on the phase behaviour and thermodynamic properties of ionic liquids containing imidazolium cation with ethanol at several temperatures
Source: J. Chem. Thermodyn., 2007, 10.1016/j.jct.2006.10.017
Compound 1: ethanol, C2H6O, InChI=1S/C2H6O/c1-2-3/h3H,2H2,1H3, purity 99.8%
Compound 2: 1,3-dimethylimidazolium methylsulfate, C6H12N2O4S, InChI=1S/C5H9N2.CH4O4S/c1-6-3-4-7(2)5-6;1-5-6(2,3)4/h3-5H,1-2H3;1H3,(H,2,3,4)/q+1;/p-1, purity 98%
Compound 3: 1-butyl-3-methylimidazolium methyl sulfate, C9H18N2O4S, InChI=1S/C8H15N2.CH4O4S/c1-3-4-5-10-7-6-9(2)8-10;1-5-6(2,3)4/h6-8H,3-5H2,1-2H3;1H3,(H,2,3,4)/q+1;/p-1, purity 98%
Compound 4: 1-butyl-3-methylimidazolium hexafluorophosphate, C8H15F6N2P, InChI=1S/C8H15N2.F6P/c1-3-4-5-10-7-6-9(2)8-10;1-7(2,3,4,5)6/h6-8H,3-5H2,1-2H3;/q+1;-1, purity 98%
Compound 5: 1-hexyl-3-methylimidazolium hexafluorophosphate, C10H19F6N2P, InChI=1S/C10H19N2.F6P/c1-3-4-5-6-7-12-9-8-11(2)10-12;1-7(2,3,4,5)6/h8-10H,3-7H2,1-2H3;/q+1;-1, purity 98%
Compound 6: 1-octyl-3-methylimidazolium hexafluorophosphate, C12H23F6N2P, InChI=1S/C12H23N2.F6P/c1-3-4-5-6-7-8-9-14-11-10-13(2)12-14;1-7(2,3,4,5)6/h10-12H,3-9H2,1-2H3;/q+1;-1, purity 98%

System: ethanol; phases: Liquid
Fixed: Pressure, kPa = 101.325
Property: Refractive index (Na D-line) (Liquid); method: ABBE:UFactor:4
Temperature, K	Refractive index (Na D-line)	uncertainty
293.15	1.36138	0.00131
298.15	1.35929	0.00131
303.15	1.35725	0.00131

System: ethanol; phases: Liquid
Fixed: Pressure, kPa = 101
Property: Speed of sound, m/s (Liquid); method: FPINT:UFactor:16
Temperature, K	Speed of sound, m/s	uncertainty
293.15	1160	10
298.15	1143	10
303.15	1127	9

System: ethanol; phases: Liquid
Fixed: Pressure, kPa = 101
Property: Mass density, kg/m3 (Liquid); method: VIBTUB:UFactor:8
Temperature, K	Mass density, kg/m3	uncertainty
293.15	789.3	0.9
298.15	785.1	0.9
303.15	780.7	0.9

System: 1,3-dimethylimidazolium methylsulfate; phases: Liquid
Fixed: Pressure, kPa = 101.325
Property: Refractive index (Na D-line) (Liquid); method: ABBE::UFactor:4
Temperature, K	Refractive index (Na D-line)	uncertainty
293.15	1.48392	0.00132
298.15	1.4827	0.00133
303.15	1.48129	0.00133

System: 1,3-dimethylimidazolium methylsulfate; phases: Liquid
Fixed: Pressure, kPa = 101
Property: Speed of sound, m/s (Liquid); method: FPINT::UFactor:16
Temperature, K	Speed of sound, m/s	uncertainty
293.15	1826	14
298.15	1813	14
303.15	1801	14

System: 1,3-dimethylimidazolium methylsulfate; phases: Liquid
Fixed: Pressure, kPa = 101
Property: Mass density, kg/m3 (Liquid); method: VIBTUB::UFactor:8
Temperature, K	Mass density, kg/m3	uncertainty
293.15	1330.9	2.7
298.15	1327.2	2.7
303.15	1323.7	2.7

System: 1-butyl-3-methylimidazolium methyl sulfate; phases: Liquid
Fixed: Pressure, kPa = 101.325
Property: Refractive index (Na D-line) (Liquid); method: ABBE::UFactor:4
Temperature, K	Refractive index (Na D-line)	uncertainty
293.15	1.48077	0.00133
298.15	1.47942	0.00133
303.15	1.47806	0.00133

System: 1-butyl-3-methylimidazolium methyl sulfate; phases: Liquid
Fixed: Pressure, kPa = 101
Property: Speed of sound, m/s (Liquid); method: FPINT::UFactor:16
Temperature, K	Speed of sound, m/s	uncertainty
293.15	1671	13
298.15	1658	13
303.15	1645	13

System: 1-butyl-3-methylimidazolium methyl sulfate; phases: Liquid
Fixed: Pressure, kPa = 101
Property: Mass density, kg/m3 (Liquid); method: VIBTUB::UFactor:8
Temperature, K	Mass density, kg/m3	uncertainty
293.15	1215.6	2.1
298.15	1212.2	2.1
303.15	1208.8	2.1

System: 1-butyl-3-methylimidazolium hexafluorophosphate; phases: Liquid
Fixed: Pressure, kPa = 101.325
Property: Refractive index (Na D-line) (Liquid); method: ABBE::UFactor:4
Temperature, K	Refractive index (Na D-line)	uncertainty
293.15	1.41069	0.00133
298.15	1.40937	0.00133
303.15	1.40808	0.00133

System: 1-butyl-3-methylimidazolium hexafluorophosphate; phases: Liquid
Fixed: Pressure, kPa = 101
Property: Speed of sound, m/s (Liquid); method: FPINT::UFactor:16
Temperature, K	Speed of sound, m/s	uncertainty
293.15	1455	12
298.15	1443	12
303.15	1431	12

System: 1-butyl-3-methylimidazolium hexafluorophosphate; phases: Liquid
Fixed: Pressure, kPa = 101
Property: Mass density, kg/m3 (Liquid); method: VIBTUB::UFactor:8
Temperature, K	Mass density, kg/m3	uncertainty
293.15	1371.6	2.9
298.15	1367.3	2.9
303.15	1363	2.9

System: 1-hexyl-3-methylimidazolium hexafluorophosphate; phases: Liquid
Fixed: Pressure, kPa = 101.325
Property: Refractive index (Na D-line) (Liquid); method: ABBE::UFactor:4
Temperature, K	Refractive index (Na D-line)	uncertainty
293.15	1.41923	0.00133
298.15	1.41787	0.00133
303.15	1.41643	0.00133

System: 1-hexyl-3-methylimidazolium hexafluorophosphate; phases: Liquid
Fixed: Pressure, kPa = 101
Property: Speed of sound, m/s (Liquid); method: FPINT::UFactor:16
Temperature, K	Speed of sound, m/s	uncertainty
293.15	1438	12
298.15	1424	11
303.15	1411	11

System: 1-hexyl-3-methylimidazolium hexafluorophosphate; phases: Liquid
Fixed: Pressure, kPa = 101
Property: Mass density, kg/m3 (Liquid); method: VIBTUB::UFactor:8
Temperature, K	Mass density, kg/m3	uncertainty
293.15	1297.9	2.5
298.15	1293.7	2.5
303.15	1289.6	2.5

System: 1-octyl-3-methylimidazolium hexafluorophosphate; phases: Liquid
Fixed: Pressure, kPa = 101.325
Property: Refractive index (Na D-line) (Liquid); method: ABBE::UFactor:4
Temperature, K	Refractive index (Na D-line)	uncertainty
293.15	1.4244	0.00133
298.15	1.42302	0.00133
303.15	1.42165	0.00133

System: 1-octyl-3-methylimidazolium hexafluorophosphate; phases: Liquid
Fixed: Pressure, kPa = 101
Property: Speed of sound, m/s (Liquid); method: FPINT::UFactor:16
Temperature, K	Speed of sound, m/s	uncertainty
293.15	1424	11
298.15	1408	11
303.15	1393	11

System: 1-octyl-3-methylimidazolium hexafluorophosphate; phases: Liquid
Fixed: Pressure, kPa = 101
Property: Mass density, kg/m3 (Liquid); method: VIBTUB::UFactor:8
Temperature, K	Mass density, kg/m3	uncertainty
293.15	1239.6	2.2
298.15	1235.7	2.2
303.15	1231.9	2.2

System: ethanol + 1,3-dimethylimidazolium methylsulfate; phases: Liquid
Fixed: Pressure, kPa = 101
Property: Refractive index (Na D-line) (Liquid); method: ABBE:UFactor:4
Temperature, K	Mole fraction of 1,3-dimethylimidazolium methylsulfate	Refractive index (Na D-line)	uncertainty
293.15	0	1.36138	0.00131
293.15	0.0738	1.3881	0.00128
293.15	0.1356	1.40426	0.00127
293.15	0.2275	1.42272	0.00126
293.15	0.3317	1.43794	0.00125
293.15	0.429	1.44915	0.00126
293.15	0.5395	1.45944	0.00127
293.15	0.6331	1.4665	0.00128
293.15	0.7308	1.472	0.0013
293.15	0.8142	1.47624	0.0013
293.15	0.9081	1.48029	0.00132
293.15	0.9512	1.48211	0.00132
293.15	1	1.48392	0.00132
298.15	0	1.35929	0.00131
298.15	0.0738	1.38734	0.00125
298.15	0.1356	1.40398	0.00125
298.15	0.2275	1.42173	0.00126
298.15	0.3317	1.43648	0.00127
298.15	0.429	1.44761	0.00128
298.15	0.5395	1.45819	0.00128
298.15	0.6331	1.4651	0.0013
298.15	0.7308	1.47068	0.0013
298.15	0.8142	1.47489	0.00131
298.15	0.9081	1.47895	0.00132
298.15	0.9512	1.48079	0.00132
298.15	1	1.4827	0.00133
303.15	0	1.35725	0.00131
303.15	0.0738	1.38689	0.00143
303.15	0.1356	1.40322	0.00134
303.15	0.2275	1.42109	0.00134
303.15	0.3317	1.4356	0.0013
303.15	0.429	1.44677	0.0013
303.15	0.5395	1.45699	0.00131
303.15	0.6331	1.46385	0.00132
303.15	0.7308	1.4694	0.00131
303.15	0.8142	1.47353	0.00132
303.15	0.9081	1.47763	0.00132
303.15	0.9512	1.47949	0.00133
303.15	1	1.48129	0.00133

System: ethanol + 1,3-dimethylimidazolium methylsulfate; phases: Liquid
Fixed: Pressure, kPa = 101
Property: Speed of sound, m/s (Liquid); method: FPINT:UFactor:16
Temperature, K	Mole fraction of 1,3-dimethylimidazolium methylsulfate	Speed of sound, m/s	uncertainty
293.15	0	1160	10
293.15	0.0738	1241	10
293.15	0.1356	1305	11
293.15	0.2275	1396	11
293.15	0.3317	1490	12
293.15	0.429	1568	12
293.15	0.5395	1642	13
293.15	0.6331	1693	13
293.15	0.7308	1737	13
293.15	0.8142	1769	14
293.15	0.9081	1800	14
293.15	0.9512	1812	14
293.15	1	1826	14
298.15	0	1143	10
298.15	0.0738	1226	10
298.15	0.1356	1291	11
298.15	0.2275	1383	11
298.15	0.3317	1477	12
298.15	0.429	1555	12
298.15	0.5395	1629	13
298.15	0.6331	1681	13
298.15	0.7308	1725	13
298.15	0.8142	1757	13
298.15	0.9081	1787	14
298.15	0.9512	1800	14
298.15	1	1813	14
303.15	0	1127	9
303.15	0.0738	1211	10
303.15	0.1356	1277	10
303.15	0.2275	1370	11
303.15	0.3317	1465	12
303.15	0.429	1542	12
303.15	0.5395	1617	13
303.15	0.6331	1668	13
303.15	0.7308	1713	13
303.15	0.8142	1745	13
303.15	0.9081	1775	14
303.15	0.9512	1788	14
303.15	1	1801	14

System: ethanol + 1,3-dimethylimidazolium methylsulfate; phases: Liquid
Fixed: Pressure, kPa = 101
Property: Mass density, kg/m3 (Liquid); method: VIBTUB:UFactor:8
Temperature, K	Mole fraction of 1,3-dimethylimidazolium methylsulfate	Mass density, kg/m3	uncertainty
293.15	0	789.3	0.9
293.15	0.0738	891.5	0.7
293.15	0.1356	959.7	0.5
293.15	0.2275	1040.6	0.5
293.15	0.3317	1111.6	0.8
293.15	0.429	1163.9	1
293.15	0.5395	1211.1	1.3
293.15	0.6331	1243.6	1.6
293.15	0.7308	1272	1.8
293.15	0.8142	1293	2.1
293.15	0.9081	1313.3	2.4
293.15	0.9512	1321.7	2.5
293.15	1	1330.9	2.7
298.15	0	785.1	0.9
298.15	0.0738	887.4	0.7
298.15	0.1356	955.7	0.5
298.15	0.2275	1036.7	0.5
298.15	0.3317	1107.8	0.8
298.15	0.429	1160.2	1
298.15	0.5395	1207.5	1.3
298.15	0.6331	1239.9	1.6
298.15	0.7308	1268.4	1.8
298.15	0.8142	1289.3	2.1
298.15	0.9081	1309.7	2.4
298.15	0.9512	1318.1	2.5
298.15	1	1327.2	2.7
303.15	0	780.7	0.9
303.15	0.0738	883.3	0.7
303.15	0.1356	951.7	0.5
303.15	0.2275	1032.8	0.5
303.15	0.3317	1104	0.7
303.15	0.429	1156.5	1
303.15	0.5395	1203.8	1.3
303.15	0.6331	1236.3	1.5
303.15	0.7308	1264.8	1.8
303.15	0.8142	1285.7	2.1
303.15	0.9081	1306.1	2.4
303.15	0.9512	1314.5	2.5
303.15	1	1323.7	2.7

System: ethanol + 1-butyl-3-methylimidazolium methyl sulfate; phases: Liquid
Fixed: Pressure, kPa = 101
Property: Refractive index (Na D-line) (Liquid); method: ABBE:UFactor:4
Temperature, K	Mole fraction of 1-butyl-3-methylimidazolium methyl sulfate	Refractive index (Na D-line)	uncertainty
293.15	0	1.36138	0.00131
293.15	0.0501	1.38149	0.00125
293.15	0.1015	1.39827	0.00125
293.15	0.1961	1.42043	0.00126
293.15	0.299	1.43625	0.00125
293.15	0.3914	1.44713	0.00126
293.15	0.5025	1.45714	0.00126
293.15	0.6073	1.46429	0.00128
293.15	0.6982	1.46926	0.00129
293.15	0.8002	1.47391	0.0013
293.15	0.8992	1.47757	0.00131
293.15	0.9498	1.47901	0.00133
293.15	1	1.48077	0.00133
298.15	0	1.35929	0.00131
298.15	0.0501	1.3797	0.00127
298.15	0.1015	1.39667	0.00128
298.15	0.1961	1.41884	0.0013
298.15	0.299	1.43478	0.00128
298.15	0.3914	1.4456	0.00129
298.15	0.5025	1.45586	0.00128
298.15	0.6073	1.46284	0.0013
298.15	0.6982	1.4678	0.00131
298.15	0.8002	1.47249	0.00131
298.15	0.8992	1.47623	0.00132
298.15	0.9498	1.47766	0.00133
298.15	1	1.47942	0.00133
303.15	0	1.35725	0.00131
303.15	0.0501	1.37885	0.00135
303.15	0.1015	1.39541	0.00142
303.15	0.1961	1.41656	0.00151
303.15	0.299	1.43335	0.00138
303.15	0.3914	1.44408	0.00132
303.15	0.5025	1.45509	0.00133
303.15	0.6073	1.46136	0.00131
303.15	0.6982	1.46639	0.00132
303.15	0.8002	1.47111	0.00132
303.15	0.8992	1.47485	0.00133
303.15	0.9498	1.47622	0.00132
303.15	1	1.47806	0.00133

System: ethanol + 1-butyl-3-methylimidazolium methyl sulfate; phases: Liquid
Fixed: Pressure, kPa = 101
Property: Speed of sound, m/s (Liquid); method: FPINT:UFactor:16
Temperature, K	Mole fraction of 1-butyl-3-methylimidazolium methyl sulfate	Speed of sound, m/s	uncertainty
293.15	0	1160	10
293.15	0.0501	1218	10
293.15	0.1015	1277	10
293.15	0.1961	1358	11
293.15	0.299	1425	11
293.15	0.3914	1479	12
293.15	0.5025	1538	12
293.15	0.6073	1576	12
293.15	0.6982	1598	12
293.15	0.8002	1626	13
293.15	0.8992	1650	13
293.15	0.9498	1659	13
293.15	1	1671	13
298.15	0	1143	10
298.15	0.0501	1203	10
298.15	0.1015	1262	10
298.15	0.1961	1343	11
298.15	0.299	1412	11
298.15	0.3914	1466	12
298.15	0.5025	1525	12
298.15	0.6073	1563	12
298.15	0.6982	1584	12
298.15	0.8002	1612	13
298.15	0.8992	1636	13
298.15	0.9498	1645	13
298.15	1	1658	13
303.15	0	1127	9
303.15	0.0501	1189	10
303.15	0.1015	1248	10
303.15	0.1961	1324	11
303.15	0.299	1392	11
303.15	0.3914	1446	11
303.15	0.5025	1508	12
303.15	0.6073	1553	12
303.15	0.6982	1574	12
303.15	0.8002	1602	13
303.15	0.8992	1626	13
303.15	0.9498	1633	13
303.15	1	1645	13

System: ethanol + 1-butyl-3-methylimidazolium methyl sulfate; phases: Liquid
Fixed: Pressure, kPa = 101
Property: Mass density, kg/m3 (Liquid); method: VIBTUB:UFactor:8
Temperature, K	Mole fraction of 1-butyl-3-methylimidazolium methyl sulfate	Mass density, kg/m3	uncertainty
293.15	0	789.3	0.9
293.15	0.0501	860.2	0.7
293.15	0.1015	916.9	0.6
293.15	0.1961	993.7	0.4
293.15	0.299	1052.2	0.5
293.15	0.3914	1091.3	0.7
293.15	0.5025	1127.3	1
293.15	0.6073	1153.5	1.2
293.15	0.6982	1172	1.4
293.15	0.8002	1189.2	1.6
293.15	0.8992	1203.1	1.8
293.15	0.9498	1209.5	2
293.15	1	1215.6	2.1
298.15	0	785.1	0.9
298.15	0.0501	856.4	0.8
298.15	0.1015	913	0.6
298.15	0.1961	990	0.4
298.15	0.299	1048.6	0.5
298.15	0.3914	1087.8	0.7
298.15	0.5025	1123.7	0.9
298.15	0.6073	1150	1.2
298.15	0.6982	1168.5	1.4
298.15	0.8002	1185.6	1.6
298.15	0.8992	1199.7	1.8
298.15	0.9498	1206.1	2
298.15	1	1212.2	2.1
303.15	0	780.7	0.9
303.15	0.0501	852.2	0.8
303.15	0.1015	909	0.6
303.15	0.1961	986.2	0.4
303.15	0.299	1044.9	0.5
303.15	0.3914	1084.1	0.7
303.15	0.5025	1120.1	0.9
303.15	0.6073	1146.5	1.1
303.15	0.6982	1165	1.3
303.15	0.8002	1182.2	1.6
303.15	0.8992	1196.3	1.8
303.15	0.9498	1202.7	1.9
303.15	1	1208.8	2.1

System: ethanol + 1-butyl-3-methylimidazolium hexafluorophosphate; phases: Liquid mixture 1, Liquid mixture 2
Fixed: Pressure, kPa = 101.3
Property: Mole fraction of 1-butyl-3-methylimidazolium hexafluorophosphate (Liquid mixture 1); method: Density calibration data
Temperature, K	Mole fraction of 1-butyl-3-methylimidazolium hexafluorophosphate	uncertainty
278.15	0.003	0.003
283.15	0.004	0.004
288.15	0.005	0.005
293.15	0.006	0.006
298.15	0.008	0.006
303.15	0.01	0.006
308.15	0.012	0.006
313.15	0.019	0.006
318.15	0.028	0.006
323.15	0.036	0.006
325.15	0.047	0.006

System: ethanol + 1-butyl-3-methylimidazolium hexafluorophosphate; phases: Liquid mixture 2, Liquid mixture 1
Fixed: Pressure, kPa = 101.3
Property: Mole fraction of 1-butyl-3-methylimidazolium hexafluorophosphate (Liquid mixture 2); method: Density calibration data
Temperature, K	Mole fraction of 1-butyl-3-methylimidazolium hexafluorophosphate	uncertainty
278.15	0.592	0.014
283.15	0.563	0.014
288.15	0.53	0.014
293.15	0.493	0.014
298.15	0.455	0.014
303.15	0.414	0.014
308.15	0.368	0.014
313.15	0.331	0.014
318.15	0.264	0.014
323.15	0.206	0.014
325.15	0.179	0.014

System: ethanol + 1-butyl-3-methylimidazolium hexafluorophosphate; phases: Liquid
Fixed: Pressure, kPa = 101
Property: Refractive index (Na D-line) (Liquid); method: ABBE:UFactor:4
Temperature, K	Mole fraction of 1-butyl-3-methylimidazolium hexafluorophosphate	Refractive index (Na D-line)	uncertainty
293.15	0	1.36138	0.00131
293.15	0.0009	1.36162	0.00131
293.15	0.0021	1.36196	0.00131
293.15	0.0033	1.36222	0.00131
293.15	0.0056	1.36281	0.0013
293.15	0.496	1.40171	0.00129
293.15	0.5032	1.40193	0.00129
293.15	0.5981	1.40432	0.00129
293.15	0.7045	1.40639	0.0013
293.15	0.8003	1.4079	0.00131
293.15	0.9002	1.4093	0.00132
293.15	0.9834	1.41052	0.00133
293.15	1	1.41069	0.00133
298.15	0	1.35929	0.00131
298.15	0.0009	1.35956	0.00131
298.15	0.0021	1.3599	0.00131
298.15	0.0033	1.36018	0.00131
298.15	0.0056	1.3608	0.00131
298.15	0.496	1.40034	0.00128
298.15	0.5032	1.40055	0.00128
298.15	0.5981	1.40294	0.00129
298.15	0.7045	1.40507	0.0013
298.15	0.8003	1.40656	0.00131
298.15	0.9002	1.40799	0.00132
298.15	0.9834	1.40923	0.00133
298.15	1	1.40937	0.00133
303.15	0	1.35725	0.00131
303.15	0.0009	1.35751	0.00131
303.15	0.0021	1.35781	0.00131
303.15	0.0033	1.35812	0.00131
303.15	0.0056	1.35871	0.00131
303.15	0.496	1.3994	0.00127
303.15	0.5032	1.39959	0.00127
303.15	0.5981	1.40176	0.00129
303.15	0.7045	1.40376	0.00131
303.15	0.8003	1.40522	0.00131
303.15	0.9002	1.40666	0.00132
303.15	0.9834	1.40795	0.00133
303.15	1	1.40808	0.00133

System: ethanol + 1-butyl-3-methylimidazolium hexafluorophosphate; phases: Liquid
Fixed: Pressure, kPa = 101
Property: Speed of sound, m/s (Liquid); method: FPINT:UFactor:16
Temperature, K	Mole fraction of 1-butyl-3-methylimidazolium hexafluorophosphate	Speed of sound, m/s	uncertainty
293.15	0	1160	10
293.15	0.0009	1163	10
293.15	0.0021	1162	10
293.15	0.0033	1164	10
293.15	0.0056	1166	10
293.15	0.496	1371	11
293.15	0.5032	1373	11
293.15	0.5981	1397	11
293.15	0.7045	1417	11
293.15	0.8003	1431	11
293.15	0.9002	1443	12
293.15	0.9834	1454	12
293.15	1	1455	12
298.15	0	1143	10
298.15	0.0009	1144	10
298.15	0.0021	1145	10
298.15	0.0033	1146	10
298.15	0.0056	1147	10
298.15	0.496	1359	11
298.15	0.5032	1361	11
298.15	0.5981	1384	11
298.15	0.7045	1404	11
298.15	0.8003	1418	11
298.15	0.9002	1430	12
298.15	0.9834	1440	12
298.15	1	1443	12
303.15	0	1127	9
303.15	0.0009	1126	9
303.15	0.0021	1128	9
303.15	0.0033	1128	9
303.15	0.0056	1130	10
303.15	0.496	1347	11
303.15	0.5032	1349	11
303.15	0.5981	1372	11
303.15	0.7045	1391	11
303.15	0.8003	1405	11
303.15	0.9002	1418	11
303.15	0.9834	1428	12
303.15	1	1431	12

System: ethanol + 1-butyl-3-methylimidazolium hexafluorophosphate; phases: Liquid
Fixed: Pressure, kPa = 101
Property: Mass density, kg/m3 (Liquid); method: VIBTUB:UFactor:8
Temperature, K	Mole fraction of 1-butyl-3-methylimidazolium hexafluorophosphate	Mass density, kg/m3	uncertainty
293.15	0	789.3	0.9
293.15	0.0009	791.5	1
293.15	0.0021	794.3	1
293.15	0.0033	797	1
293.15	0.0056	802.3	1
293.15	0.496	1246.7	1.4
293.15	0.5032	1249.4	1.4
293.15	0.5981	1282	1.7
293.15	0.7045	1311.6	2
293.15	0.8003	1333.9	2.3
293.15	0.9002	1354.1	2.6
293.15	0.9834	1368.8	2.9
293.15	1	1371.6	2.9
298.15	0	785.1	0.9
298.15	0.0009	787.4	1
298.15	0.0021	790.1	1
298.15	0.0033	792.8	1
298.15	0.0056	798.1	1
298.15	0.496	1242.2	1.4
298.15	0.5032	1245	1.4
298.15	0.5981	1277.6	1.6
298.15	0.7045	1307.3	1.9
298.15	0.8003	1329.6	2.2
298.15	0.9002	1349.9	2.6
298.15	0.9834	1364.7	2.8
298.15	1	1367.3	2.9
303.15	0	780.7	0.9
303.15	0.0009	783.1	1
303.15	0.0021	785.8	1
303.15	0.0033	788.5	1
303.15	0.0056	793.8	1
303.15	0.496	1237.9	1.4
303.15	0.5032	1240.7	1.4
303.15	0.5981	1273.4	1.6
303.15	0.7045	1303	1.9
303.15	0.8003	1325.4	2.2
303.15	0.9002	1345.7	2.5
303.15	0.9834	1360.5	2.8
303.15	1	1363	2.9

System: ethanol + 1-hexyl-3-methylimidazolium hexafluorophosphate; phases: Liquid mixture 1, Liquid mixture 2
Fixed: Pressure, kPa = 101.3
Property: Mole fraction of 1-hexyl-3-methylimidazolium hexafluorophosphate (Liquid mixture 1); method: Density calibration data
Temperature, K	Mole fraction of 1-hexyl-3-methylimidazolium hexafluorophosphate	uncertainty
278.15	0.01	0.006
283.15	0.013	0.006
288.15	0.019	0.006
293.15	0.036	0.006

System: ethanol + 1-hexyl-3-methylimidazolium hexafluorophosphate; phases: Liquid mixture 2, Liquid mixture 1
Fixed: Pressure, kPa = 101.3
Property: Mole fraction of 1-hexyl-3-methylimidazolium hexafluorophosphate (Liquid mixture 2); method: Density calibration data
Temperature, K	Mole fraction of 1-hexyl-3-methylimidazolium hexafluorophosphate	uncertainty
278.15	0.366	0.01
283.15	0.318	0.01
288.15	0.263	0.01
293.15	0.183	0.01

System: ethanol + 1-hexyl-3-methylimidazolium hexafluorophosphate; phases: Liquid
Fixed: Pressure, kPa = 101
Property: Refractive index (Na D-line) (Liquid); method: ABBE:UFactor:4
Temperature, K	Mole fraction of 1-hexyl-3-methylimidazolium hexafluorophosphate	Refractive index (Na D-line)	uncertainty
293.15	0	1.36138	0.00131
293.15	0.0198	1.36597	0.00126
293.15	0.2033	1.39358	0.00132
293.15	0.312	1.40092	0.00126
293.15	0.3897	1.40471	0.00126
293.15	0.5002	1.40893	0.00126
293.15	0.5982	1.41163	0.00127
293.15	0.6961	1.41394	0.00128
293.15	0.7902	1.41562	0.0013
293.15	0.9033	1.41784	0.00131
293.15	0.992	1.41884	0.00132
293.15	1	1.41923	0.00133
298.15	0	1.35929	0.00131
298.15	0.0198	1.36482	0.00128
298.15	0.0465	1.37109	0.00125
298.15	0.0991	1.38024	0.00126
298.15	0.2033	1.3921	0.00128
298.15	0.312	1.39964	0.00128
298.15	0.3897	1.40388	0.00127
298.15	0.5002	1.4081	0.00127
298.15	0.5982	1.41098	0.00128
298.15	0.6961	1.41313	0.00129
298.15	0.7902	1.41472	0.0013
298.15	0.9033	1.41645	0.00132
298.15	0.992	1.41775	0.00133
298.15	1	1.41787	0.00133
303.15	0	1.35725	0.00131
303.15	0.0198	1.36297	0.00132
303.15	0.0465	1.36941	0.00133
303.15	0.0991	1.3787	0.00137
303.15	0.2033	1.39057	0.00139
303.15	0.312	1.39816	0.00131
303.15	0.3897	1.40239	0.00131
303.15	0.5002	1.40693	0.0013
303.15	0.5982	1.40986	0.0013
303.15	0.6961	1.41197	0.0013
303.15	0.7902	1.41366	0.0013
303.15	0.9033	1.41525	0.00132
303.15	0.992	1.41635	0.00133
303.15	1	1.41643	0.00133

System: ethanol + 1-hexyl-3-methylimidazolium hexafluorophosphate; phases: Liquid
Fixed: Pressure, kPa = 101
Property: Speed of sound, m/s (Liquid); method: FPINT:UFactor:16
Temperature, K	Mole fraction of 1-hexyl-3-methylimidazolium hexafluorophosphate	Speed of sound, m/s	uncertainty
293.15	0	1160	10
293.15	0.0198	1164	10
293.15	0.2033	1248	10
293.15	0.312	1300	11
293.15	0.3897	1329	11
293.15	0.5002	1360	11
293.15	0.5982	1380	11
293.15	0.6961	1396	11
293.15	0.7902	1410	11
293.15	0.9033	1423	11
293.15	0.992	1435	12
293.15	1	1438	12
298.15	0	1143	10
298.15	0.0198	1150	10
298.15	0.0465	1160	10
298.15	0.0991	1185	10
298.15	0.2033	1237	10
298.15	0.312	1288	11
298.15	0.3897	1317	11
298.15	0.5002	1348	11
298.15	0.5982	1368	11
298.15	0.6961	1384	11
298.15	0.7902	1397	11
298.15	0.9033	1410	11
298.15	0.992	1421	11
298.15	1	1424	11
303.15	0	1127	9
303.15	0.0198	1134	10
303.15	0.0465	1144	10
303.15	0.0991	1169	10
303.15	0.2033	1226	10
303.15	0.312	1277	10
303.15	0.3897	1306	11
303.15	0.5002	1336	11
303.15	0.5982	1357	11
303.15	0.6961	1372	11
303.15	0.7902	1386	11
303.15	0.9033	1399	11
303.15	0.992	1409	11
303.15	1	1411	11

System: ethanol + 1-hexyl-3-methylimidazolium hexafluorophosphate; phases: Liquid
Fixed: Pressure, kPa = 101
Property: Mass density, kg/m3 (Liquid); method: VIBTUB:UFactor:8
Temperature, K	Mole fraction of 1-hexyl-3-methylimidazolium hexafluorophosphate	Mass density, kg/m3	uncertainty
293.15	0	789.3	0.9
293.15	0.0198	830	0.9
293.15	0.2033	1055.6	0.6
293.15	0.312	1125.6	0.8
293.15	0.3897	1161.8	1
293.15	0.5002	1201.4	1.2
293.15	0.5982	1228.4	1.5
293.15	0.6961	1250.2	1.7
293.15	0.7902	1267.6	1.9
293.15	0.9033	1285.2	2.2
293.15	0.992	1297	2.5
293.15	1	1297.9	2.5
298.15	0	785.1	0.9
298.15	0.0198	825.8	0.9
298.15	0.0465	873.5	0.7
298.15	0.0991	948.7	0.5
298.15	0.2033	1051.6	0.5
298.15	0.312	1121.5	0.8
298.15	0.3897	1157.7	1
298.15	0.5002	1197.2	1.2
298.15	0.5982	1224.4	1.4
298.15	0.6961	1246.2	1.7
298.15	0.7902	1263.5	1.9
298.15	0.9033	1281.1	2.2
298.15	0.992	1292.8	2.5
298.15	1	1293.7	2.5
303.15	0	780.7	0.9
303.15	0.0198	821.8	0.9
303.15	0.0465	869.8	0.7
303.15	0.0991	944.8	0.5
303.15	0.2033	1047.5	0.5
303.15	0.312	1117.3	0.8
303.15	0.3897	1153.6	0.9
303.15	0.5002	1193.3	1.2
303.15	0.5982	1220.4	1.4
303.15	0.6961	1242.2	1.7
303.15	0.7902	1259.5	1.9
303.15	0.9033	1277	2.2
303.15	0.992	1288.7	2.5
303.15	1	1289.6	2.5

System: ethanol + 1-octyl-3-methylimidazolium hexafluorophosphate; phases: Liquid
Fixed: Pressure, kPa = 101
Property: Refractive index (Na D-line) (Liquid); method: ABBE:UFactor:4
Temperature, K	Mole fraction of 1-octyl-3-methylimidazolium hexafluorophosphate	Refractive index (Na D-line)	uncertainty
293.15	0	1.36138	0.00131
293.15	0.0447	1.37484	0.00124
293.15	0.0982	1.38484	0.00124
293.15	0.1976	1.3975	0.00124
293.15	0.2897	1.40449	0.00126
293.15	0.3897	1.41009	0.00127
293.15	0.499	1.41448	0.00128
293.15	0.5896	1.41703	0.00129
293.15	0.708	1.41965	0.0013
293.15	0.8037	1.4215	0.00131
293.15	0.904	1.42304	0.00132
293.15	0.9502	1.42375	0.00133
293.15	1	1.4244	0.00133
298.15	0	1.35929	0.00131
298.15	0.0447	1.37299	0.00129
298.15	0.0982	1.38315	0.00126
298.15	0.1976	1.3959	0.00127
298.15	0.2897	1.40291	0.00128
298.15	0.3897	1.40855	0.00128
298.15	0.499	1.41289	0.00129
298.15	0.5896	1.41553	0.0013
298.15	0.708	1.41817	0.00131
298.15	0.8037	1.42004	0.00132
298.15	0.904	1.42165	0.00132
298.15	0.9502	1.42231	0.00132
298.15	1	1.42302	0.00133
303.15	0	1.35725	0.00131
303.15	0.0447	1.37124	0.00141
303.15	0.0982	1.38286	0.00134
303.15	0.1976	1.39478	0.00134
303.15	0.2897	1.40181	0.00129
303.15	0.3897	1.40752	0.0013
303.15	0.499	1.41174	0.0013
303.15	0.5896	1.41412	0.0013
303.15	0.708	1.41682	0.00131
303.15	0.8037	1.41858	0.00132
303.15	0.904	1.42026	0.00132
303.15	0.9502	1.42112	0.00132
303.15	1	1.42165	0.00133

System: ethanol + 1-octyl-3-methylimidazolium hexafluorophosphate; phases: Liquid
Fixed: Pressure, kPa = 101
Property: Speed of sound, m/s (Liquid); method: FPINT:UFactor:16
Temperature, K	Mole fraction of 1-octyl-3-methylimidazolium hexafluorophosphate	Speed of sound, m/s	uncertainty
293.15	0	1160	10
293.15	0.0447	1180	10
293.15	0.0982	1206	10
293.15	0.1976	1257	10
293.15	0.2897	1295	11
293.15	0.3897	1327	11
293.15	0.499	1352	11
293.15	0.5896	1369	11
293.15	0.708	1386	11
293.15	0.8037	1398	11
293.15	0.904	1411	11
293.15	0.9502	1416	11
293.15	1	1424	11
298.15	0	1143	10
298.15	0.0447	1165	10
298.15	0.0982	1193	10
298.15	0.1976	1245	10
298.15	0.2897	1283	10
298.15	0.3897	1315	11
298.15	0.499	1340	11
298.15	0.5896	1357	11
298.15	0.708	1373	11
298.15	0.8037	1385	11
298.15	0.904	1397	11
298.15	0.9502	1401	11
298.15	1	1408	11
303.15	0	1127	9
303.15	0.0447	1151	10
303.15	0.0982	1180	10
303.15	0.1976	1233	10
303.15	0.2897	1271	10
303.15	0.3897	1303	11
303.15	0.499	1328	11
303.15	0.5896	1344	11
303.15	0.708	1360	11
303.15	0.8037	1372	11
303.15	0.904	1383	11
303.15	0.9502	1387	11
303.15	1	1393	11

System: ethanol + 1-octyl-3-methylimidazolium hexafluorophosphate; phases: Liquid
Fixed: Pressure, kPa = 101
Property: Mass density, kg/m3 (Liquid); method: VIBTUB:UFactor:8
Temperature, K	Mole fraction of 1-octyl-3-methylimidazolium hexafluorophosphate	Mass density, kg/m3	uncertainty
293.15	0	789.3	0.9
293.15	0.0447	873.9	0.7
293.15	0.0982	946.5	0.5
293.15	0.1976	1035.8	0.5
293.15	0.2897	1089.5	0.7
293.15	0.3897	1130.4	0.9
293.15	0.499	1162.8	1.1
293.15	0.5896	1183.2	1.3
293.15	0.708	1204.3	1.5
293.15	0.8037	1217.9	1.7
293.15	0.904	1229.9	2
293.15	0.9502	1234.7	2.1
293.15	1	1239.6	2.2
298.15	0	785.1	0.9
298.15	0.0447	869.7	0.7
298.15	0.0982	942.3	0.5
298.15	0.1976	1031.7	0.5
298.15	0.2897	1085.3	0.6
298.15	0.3897	1126.3	0.9
298.15	0.499	1158.8	1.1
298.15	0.5896	1179.3	1.3
298.15	0.708	1200.4	1.5
298.15	0.8037	1214	1.7
298.15	0.904	1226	2
298.15	0.9502	1230.9	2.1
298.15	1	1235.7	2.2
303.15	0	780.7	0.9
303.15	0.0447	865.4	0.8
303.15	0.0982	938.1	0.5
303.15	0.1976	1027.5	0.5
303.15	0.2897	1081.1	0.6
303.15	0.3897	1122.2	0.8
303.15	0.499	1154.8	1.1
303.15	0.5896	1175.3	1.2
303.15	0.708	1196.5	1.5
303.15	0.8037	1210.2	1.7
303.15	0.904	1222.2	1.9
303.15	0.9502	1227.1	2.1
303.15	1	1231.9	2.2
