Measured thermophysical data. Mixing properties in the continuous solid solution of the system (CsNO3 + TlNO3) at T = 473 K
Source: J. Chem. Thermodyn., 2016, 10.1016/j.jct.2015.08.019
Compound 1: cesium nitrate, CsNO3, InChI=1S/Cs.NO3/c;2-1(3)4/q+1;-1, purity 99%
Compound 2: thallium nitrate, NO3Tl, InChI=1S/NO3.Tl/c2-1(3)4;/q-1;+1, purity 99%

System: cesium nitrate + thallium nitrate; phases: Crystal
Fixed: Temperature, K = 473
Fixed: Pressure, kPa = 101.3
Property: Excess molar enthalpy (molar enthalpy of mixing), kJ/mol (Crystal); method: Calvet calorimetry
Mole fraction of cesium nitrate	Excess molar enthalpy (molar enthalpy of mixing), kJ/mol	uncertainty
0.25	1.253	0.263
0.5	1.435	0.302
0.75	1.038	0.219
