Measured thermophysical data. Standard partial molar heat capacities and volumes of aqueous N-methylpiperidine and N-methylpiperidinium chloride from 283 K to 393 K
Source: J. Chem. Thermodyn., 2017, 10.1016/j.jct.2017.05.033
Compound 1: N-methylpiperidine, C6H13N, InChI=1S/C6H13N/c1-7-5-3-2-4-6-7/h2-6H2,1H3, purity 97%
Compound 2: water, H2O, InChI=1S/H2O/h1H2
Compound 3: N-methylpiperidinium chloride, C6H14ClN, InChI=1S/C6H13N.ClH/c1-7-5-3-2-4-6-7;/h2-6H2,1H3;1H, purity 97%

System: N-methylpiperidine + water; phases: Liquid
Fixed: Pressure, kPa = 100
Property: Mass density, kg/m3 (Liquid); method: Vibrating tube method
Molality, mol/kg of N-methylpiperidine	Temperature, K	Mass density, kg/m3	uncertainty
0.1952	283.15	-1.726	0.09
0.1952	293.15	-1.827	0.09
0.1952	303.15	-1.924	0.09
0.1952	303.15	-1.929	0.09
0.1952	313.15	-2.035	0.09
0.1952	323.15	-2.147	0.09
0.1952	333.15	-2.268	0.09
0.1952	333.15	-2.299	0.09
0.1952	343.15	-2.399	0.09
0.1952	353.15	-2.508	0.09
0.1952	363.15	-2.621	0.09
0.1952	283.15	-1.687	0.09
0.1952	293.15	-1.782	0.09
0.1952	303.15	-1.875	0.09
0.1952	303.15	-1.866	0.09
0.1952	313.15	-1.968	0.09
0.1952	323.15	-2.082	0.09
0.1952	333.15	-2.202	0.09
0.1952	333.15	-2.209	0.09
0.1952	343.15	-2.318	0.09
0.1952	353.15	-2.432	0.09
0.1952	363.15	-2.548	0.09
0.1954	283.15	-1.716	0.089
0.1954	293.15	-1.815	0.089
0.1954	303.15	-1.912	0.089
0.1954	303.15	-1.887	0.089
0.1954	313.15	-1.995	0.089
0.1954	323.15	-2.116	0.089
0.1954	333.15	-2.243	0.089
0.1954	333.15	-2.307	0.089
0.1954	343.15	-2.403	0.089
0.1954	353.15	-2.506	0.089
0.1954	363.15	-2.613	0.089

System: N-methylpiperidine + water; phases: Liquid
Fixed: Pressure, kPa = 400
Property: Heat capacity at constant pressure per volume, J/K/m3 (Liquid); method: Large sample (1 g) DSC
Molality, mol/kg of N-methylpiperidine	Temperature, K	Heat capacity at constant pressure per volume, J/K/m3	uncertainty
0.1952	288.15	12700	400
0.1952	293.15	12400	400
0.1952	298.15	11500	400
0.1952	303.15	10700	400
0.1952	308.15	10000	400
0.1952	313.15	9240	420
0.1952	318.15	8510	420
0.1952	323.15	7840	420
0.1952	328.15	7200	410
0.1952	333.15	6590	410
0.1952	338.15	5990	410
0.1952	343.15	5430	410
0.1952	348.15	4870	410
0.1952	353.15	4330	400
0.1952	358.15	3810	400
0.1952	363.15	3300	400
0.1952	368.15	2820	400
0.1952	373.15	2330	400
0.1952	378.15	1850	400
0.1952	383.15	1340	400
0.1952	388.15	900	400
0.1952	393.15	480	400
0.1952	288.15	12600	400
0.1952	293.15	12400	400
0.1952	298.15	11600	400
0.1952	303.15	10800	400
0.1952	308.15	10100	400
0.1952	313.15	9460	420
0.1952	318.15	8790	420
0.1952	323.15	8130	420
0.1952	328.15	7490	410
0.1952	333.15	6870	410
0.1952	338.15	6270	410
0.1952	343.15	5700	410
0.1952	348.15	5130	410
0.1952	353.15	4580	410
0.1952	358.15	4050	400
0.1952	363.15	3530	400
0.1952	368.15	3040	400
0.1952	373.15	2540	400
0.1952	378.15	2040	400
0.1952	383.15	1510	400
0.1952	388.15	1000	400
0.1952	393.15	520	400
0.1954	288.15	13300	400
0.1954	293.15	12900	400
0.1954	298.15	12000	400
0.1954	303.15	11100	400
0.1954	308.15	10300	400
0.1954	313.15	9580	420
0.1954	318.15	8880	420
0.1954	323.15	8100	420
0.1954	328.15	7380	410
0.1954	333.15	6810	410
0.1954	338.15	6110	410
0.1954	343.15	5510	410
0.1954	348.15	4940	410
0.1954	353.15	4350	400
0.1954	358.15	3810	400
0.1954	363.15	3280	400
0.1954	368.15	2770	400
0.1954	373.15	2280	400
0.1954	378.15	1780	400
0.1954	383.15	1270	400
0.1954	388.15	850	400
0.1954	393.15	420	400

System: water + N-methylpiperidinium chloride; phases: Liquid
Fixed: Pressure, kPa = 100
Property: Mass density, kg/m3 (Liquid); method: Vibrating tube method
Molality, mol/kg of N-methylpiperidinium chloride	Temperature, K	Mass density, kg/m3	uncertainty
0.1007	283.15	1.171	0.089
0.1007	293.15	1.094	0.089
0.1007	303.15	1.05	0.089
0.1007	303.15	1.039	0.089
0.1007	313.15	1.006	0.089
0.1007	323.15	0.978	0.089
0.1007	333.15	0.96	0.089
0.1007	333.15	0.865	0.089
0.1007	343.15	0.897	0.089
0.1007	353.15	0.934	0.089
0.1007	363.15	0.97	0.089
0.1007	283.15	1.145	0.089
0.1007	293.15	1.063	0.089
0.1007	303.15	1.011	0.089
0.1007	303.15	1.02	0.089
0.1007	313.15	0.978	0.089
0.1007	323.15	0.953	0.089
0.1007	333.15	0.939	0.089
0.1007	333.15	0.906	0.089
0.1007	343.15	0.92	0.089
0.1007	353.15	0.946	0.089
0.1007	363.15	0.973	0.089
0.0981	283.15	1.171	0.091
0.0981	293.15	1.07	0.091
0.0981	303.15	1.017	0.091
0.0981	313.15	0.987	0.091
0.0981	323.15	0.968	0.091
0.0981	333.15	0.961	0.091
0.0981	343.15	0.961	0.091
0.0981	353.15	0.974	0.091
0.0981	363.15	0.995	0.091

System: water + N-methylpiperidinium chloride; phases: Liquid
Fixed: Pressure, kPa = 400
Property: Heat capacity at constant pressure per volume, J/K/m3 (Liquid); method: Large sample (1 g) DSC
Molality, mol/kg of N-methylpiperidinium chloride	Temperature, K	Heat capacity at constant pressure per volume, J/K/m3	uncertainty
0.1007	288.15	-26900	600
0.1007	293.15	-26300	500
0.1007	298.15	-25800	500
0.1007	303.15	-25300	500
0.1007	308.15	-24900	500
0.1007	313.15	-24600	500
0.1007	318.15	-24300	500
0.1007	323.15	-24000	500
0.1007	328.15	-23800	500
0.1007	333.15	-23700	500
0.1007	338.15	-23400	500
0.1007	343.15	-23200	500
0.1007	348.15	-23100	500
0.1007	353.15	-22900	500
0.1007	358.15	-22800	500
0.1007	363.15	-22700	500
0.1007	368.15	-22600	500
0.1007	373.15	-22400	500
0.1007	378.15	-22400	500
0.1007	383.15	-22200	500
0.1007	388.15	-22200	500
0.1007	393.15	-22200	500
0.0981	288.15	-26400	500
0.0981	293.15	-25600	500
0.0981	298.15	-25100	500
0.0981	303.15	-24700	500
0.0981	308.15	-24200	500
0.0981	313.15	-23900	500
0.0981	318.15	-23600	500
0.0981	323.15	-23400	500
0.0981	328.15	-23100	500
0.0981	338.15	-22800	500
0.0981	343.15	-22600	500
0.0981	348.15	-22500	500
0.0981	353.15	-22300	500
0.0981	358.15	-22200	500
0.0981	363.15	-22000	500
0.0981	368.15	-21900	500
0.0981	373.15	-21800	500
0.0981	378.15	-21700	500
0.0981	383.15	-21700	500
0.0981	388.15	-21600	500
0.0981	393.15	-21600	500
0.0958	288.15	-26900	600
0.0958	293.15	-26200	500
0.0958	298.15	-25600	500
0.0958	303.15	-25200	500
0.0958	308.15	-24700	500
0.0958	313.15	-24400	500
0.0958	318.15	-24100	500
0.0958	323.15	-23800	500
0.0958	328.15	-23500	500
0.0958	338.15	-23200	500
0.0958	343.15	-23100	500
0.0958	348.15	-22900	500
0.0958	353.15	-22800	500
0.0958	358.15	-22700	500
0.0958	363.15	-22500	500
0.0958	368.15	-22500	500
0.0958	373.15	-22300	500
0.0958	378.15	-22300	500
0.0958	383.15	-22200	500
0.0958	388.15	-22200	500
0.0958	393.15	-22200	500
