Measured thermophysical data. Volumetric properties of 1-butyl-3-methylimidazolium tetrafluoroborate and 2-pyrrolidone from T = (298.15 to 323.15) K at atmospheric pressure
Source: J. Chem. Thermodyn., 2016, 10.1016/j.jct.2015.11.009
Compound 1: 1-butyl-3-methylimidazolium tetrafluoroborate, C8H15BF4N2, InChI=1S/C8H15N2.BF4/c1-3-4-5-10-7-6-9(2)8-10;2-1(3,4)5/h6-8H,3-5H2,1-2H3;/q+1;-1, purity 99%
Compound 2: 2-pyrrolidinone, C4H7NO, InChI=1S/C4H7NO/c6-4-2-1-3-5-4/h1-3H2,(H,5,6), purity 99%

System: 2-pyrrolidinone; phases: Liquid
Fixed: Pressure, kPa = 100
Property: Mass density, kg/m3 (Liquid); method: Vibrating tube method
Temperature, K	Mass density, kg/m3	uncertainty
298.15	1107.16	1.01
303.15	1103.07	1.01
308.15	1098.99	1.01
313.15	1094.9	1.01
318.15	1090.82	1.01
323.15	1086.75	1.01

System: 2-pyrrolidinone; phases: Liquid
Fixed: Pressure, kPa = 100
Property: Refractive index (Na D-line) (Liquid); method: Standard Abbe refractometry
Temperature, K	Refractive index (Na D-line)	uncertainty
298.15	1.48591	0.00086
303.15	1.48403	0.00086
308.15	1.48218	0.00086
313.15	1.48033	0.00086
318.15	1.47841	0.00086
323.15	1.47649	0.00086

System: 2-pyrrolidinone; phases: Liquid
Fixed: Pressure, kPa = 100
Fixed: Frequency, MHz = 3
Property: Speed of sound, m/s (Liquid); method: Sing-around technique in a fixed-path interferometer
Temperature, K	Speed of sound, m/s	uncertainty
298.15	1634.38	1.37
303.15	1617.97	1.37
308.15	1601.62	1.37
313.15	1585.44	1.36
318.15	1570.39	1.36
323.15	1553.48	1.36

System: 2-pyrrolidinone + 1-butyl-3-methylimidazolium tetrafluoroborate; phases: Liquid
Fixed: Pressure, kPa = 100
Property: Mass density, kg/m3 (Liquid); method: Vibrating tube method
Temperature, K	Mole fraction of 1-butyl-3-methylimidazolium tetrafluoroborate	Mass density, kg/m3	uncertainty
298.15	0	1107.16	1.01
298.15	0.102	1128.93	1.52
298.15	0.1951	1143.99	1.53
298.15	0.3046	1155.01	1.54
298.15	0.3886	1163.44	1.55
298.15	0.5262	1173.25	1.56
298.15	0.6185	1179.38	1.57
298.15	0.69	1183.57	1.58
298.15	0.7844	1188.69	1.58
298.15	0.8861	1193.47	1.59
298.15	1	1198.78	1.06
303.15	0	1103.07	1.01
303.15	0.102	1124.98	1.51
303.15	0.1951	1139	1.53
303.15	0.3046	1151.24	1.54
303.15	0.3886	1159.65	1.55
303.15	0.5262	1169.51	1.56
303.15	0.6185	1175.68	1.57
303.15	0.69	1179.91	1.57
303.15	0.7844	1185.05	1.58
303.15	0.8861	1189.85	1.59
303.15	1	1195.18	1.06
308.15	0	1098.99	1.01
308.15	0.102	1121.03	1.51
308.15	0.1951	1135.12	1.52
308.15	0.3046	1147.43	1.54
308.15	0.3886	1155.87	1.54
308.15	0.5262	1165.8	1.56
308.15	0.6185	1172.01	1.56
308.15	0.69	1176.26	1.57
308.15	0.7844	1181.42	1.58
308.15	0.8861	1186.26	1.59
308.15	1	1191.6	1.06
313.15	0	1094.9	1.01
313.15	0.102	1117.09	1.51
313.15	0.1951	1131.25	1.52
313.15	0.3046	1143.62	1.53
313.15	0.3886	1152.11	1.54
313.15	0.5262	1162.12	1.55
313.15	0.6185	1168.35	1.56
313.15	0.69	1172.63	1.57
313.15	0.7844	1177.81	1.57
313.15	0.8861	1182.68	1.58
313.15	1	1188.04	1.06
318.15	0	1090.82	1.01
318.15	0.102	1113.15	1.51
318.15	0.1951	1127.38	1.52
318.15	0.3046	1139.83	1.53
318.15	0.3886	1148.36	1.54
318.15	0.5262	1158.47	1.55
318.15	0.6185	1164.72	1.56
318.15	0.69	1169.02	1.56
318.15	0.7844	1174.23	1.57
318.15	0.8861	1179.12	1.58
318.15	1	1184.5	1.06
323.15	0	1086.75	1.01
323.15	0.102	1109.21	1.5
323.15	0.1951	1123.52	1.51
323.15	0.3046	1136.08	1.53
323.15	0.3886	1144.62	1.54
323.15	0.5262	1154.82	1.55
323.15	0.6185	1161.11	1.55
323.15	0.69	1165.45	1.56
323.15	0.7844	1170.66	1.57
323.15	0.8861	1175.58	1.58
323.15	1	1180.98	1.06

System: 2-pyrrolidinone + 1-butyl-3-methylimidazolium tetrafluoroborate; phases: Liquid
Fixed: Pressure, kPa = 100
Property: Refractive index (Na D-line) (Liquid); method: Standard Abbe refractometry
Temperature, K	Mole fraction of 1-butyl-3-methylimidazolium tetrafluoroborate	Refractive index (Na D-line)	uncertainty
298.15	0	1.48591	0.00086
298.15	0.102	1.47414	0.0014
298.15	0.1951	1.46433	0.00129
298.15	0.3046	1.45472	0.00118
298.15	0.3886	1.4487	0.00108
298.15	0.5262	1.44033	0.00104
298.15	0.6185	1.43543	0.001
298.15	0.69	1.43222	0.00097
298.15	0.7844	1.4283	0.00095
298.15	0.8861	1.42468	0.00094
298.15	1	1.42058	0.00087
303.15	0	1.48403	0.00086
303.15	0.102	1.47243	0.00141
303.15	0.1951	1.46228	0.00128
303.15	0.3046	1.45316	0.00116
303.15	0.3886	1.44722	0.00107
303.15	0.5262	1.43885	0.00104
303.15	0.6185	1.43414	0.001
303.15	0.69	1.43084	0.00097
303.15	0.7844	1.42696	0.00095
303.15	0.8861	1.42338	0.00094
303.15	1	1.41913	0.00087
308.15	0	1.48218	0.00086
308.15	0.102	1.47067	0.00138
308.15	0.1951	1.461	0.00127
308.15	0.3046	1.45161	0.00117
308.15	0.3886	1.44571	0.00107
308.15	0.5262	1.43737	0.00104
308.15	0.6185	1.43271	0.00099
308.15	0.69	1.42943	0.00097
308.15	0.7844	1.4256	0.00095
308.15	0.8861	1.42205	0.00095
308.15	1	1.41764	0.00087
313.15	0	1.48033	0.00086
313.15	0.102	1.46895	0.00138
313.15	0.1951	1.45929	0.00127
313.15	0.3046	1.44998	0.00117
313.15	0.3886	1.44418	0.00107
313.15	0.5262	1.43589	0.00103
313.15	0.6185	1.43125	0.00099
313.15	0.69	1.42805	0.00096
313.15	0.7844	1.4242	0.00095
313.15	0.8861	1.42069	0.00095
313.15	1	1.41621	0.00087
318.15	0	1.47841	0.00086
318.15	0.102	1.46715	0.00135
318.15	0.1951	1.45813	0.00126
318.15	0.3046	1.44832	0.00118
318.15	0.3886	1.44261	0.00106
318.15	0.5262	1.43436	0.00103
318.15	0.6185	1.42972	0.00099
318.15	0.69	1.42665	0.00096
318.15	0.7844	1.42286	0.00095
318.15	0.8861	1.41928	0.00095
318.15	1	1.41472	0.00087
323.15	0	1.47649	0.00086
323.15	0.102	1.46522	0.00138
323.15	0.1951	1.45533	0.00125
323.15	0.3046	1.44663	0.00114
323.15	0.3886	1.44099	0.00106
323.15	0.5262	1.43282	0.00103
323.15	0.6185	1.42817	0.00098
323.15	0.69	1.42522	0.00096
323.15	0.7844	1.42148	0.00095
323.15	0.8861	1.41788	0.00095
323.15	1	1.4133	0.00087

System: 2-pyrrolidinone + 1-butyl-3-methylimidazolium tetrafluoroborate; phases: Liquid
Fixed: Pressure, kPa = 100
Fixed: Frequency, MHz = 3
Property: Speed of sound, m/s (Liquid); method: Sing-around technique in a fixed-path interferometer
Temperature, K	Mole fraction of 1-butyl-3-methylimidazolium tetrafluoroborate	Speed of sound, m/s	uncertainty
298.15	0	1634.38	1.37
298.15	0.102	1625.48	1.63
298.15	0.1951	1617.98	1.64
298.15	0.3046	1608.29	1.68
298.15	0.3886	1600.95	1.64
298.15	0.5262	1590.72	1.64
298.15	0.6185	1584.41	1.64
298.15	0.69	1579.46	1.62
298.15	0.7844	1574.31	1.61
298.15	0.8861	1569.25	1.61
298.15	1	1565.09	1.58
303.15	0	1617.97	1.37
303.15	0.102	1610.21	1.56
303.15	0.1951	1604.07	1.61
303.15	0.3046	1594.48	1.66
303.15	0.3886	1587.51	1.61
303.15	0.5262	1578.06	1.61
303.15	0.6185	1572.54	1.63
303.15	0.69	1567.15	1.62
303.15	0.7844	1562.18	1.6
303.15	0.8861	1557.34	1.6
303.15	1	1553.15	1.58
308.15	0	1601.62	1.37
308.15	0.102	1595.51	1.52
308.15	0.1951	1589.23	1.6
308.15	0.3046	1580.16	1.63
308.15	0.3886	1573.85	1.58
308.15	0.5262	1565.38	1.58
308.15	0.6185	1560.08	1.62
308.15	0.69	1554.73	1.62
308.15	0.7844	1549.98	1.6
308.15	0.8861	1545.37	1.6
308.15	1	1541.35	1.57
313.15	0	1585.44	1.36
313.15	0.102	1580.49	1.48
313.15	0.1951	1575.02	1.56
313.15	0.3046	1566.51	1.6
313.15	0.3886	1560.69	1.56
313.15	0.5262	1552.65	1.57
313.15	0.6185	1547.88	1.6
313.15	0.69	1542.45	1.61
313.15	0.7844	1537.93	1.59
313.15	0.8861	1533.51	1.59
313.15	1	1529.69	1.57
318.15	0	1570.39	1.36
318.15	0.102	1565.98	1.46
318.15	0.1951	1560.94	1.52
318.15	0.3046	1553.77	1.57
318.15	0.3886	1547.82	1.54
318.15	0.5262	1541.15	1.55
318.15	0.6185	1536.38	1.61
318.15	0.69	1530.65	1.61
318.15	0.7844	1526.15	1.58
318.15	0.8861	1521.89	1.59
318.15	1	1518.19	1.57
323.15	0	1553.48	1.36
323.15	0.102	1549.96	1.43
323.15	0.1951	1545.76	1.49
323.15	0.3046	1539.43	1.53
323.15	0.3886	1534.35	1.52
323.15	0.5262	1528.04	1.53
323.15	0.6185	1523.99	1.57
323.15	0.69	1519.17	1.61
323.15	0.7844	1514.16	1.58
323.15	0.8861	1510.2	1.58
323.15	1	1506.8	1.57
