Measured thermophysical data. Thermophysical properties of hydroxyl ammonium ionic liquids
Source: J. Chem. Thermodyn., 2009, 10.1016/j.jct.2008.11.003
Compound 1: 2-hydroxyethylammonium acetate, C4H11NO3, InChI=1S/C2H7NO.C2H4O2/c3-1-2-4;1-2(3)4/h4H,1-3H2;1H3,(H,3,4)
Compound 2: 2,2'-azanediylbis(ethanol) acetate, C6H15NO4, InChI=1S/C4H11NO2.C2H4O2/c6-3-1-5-2-4-7;1-2(3)4/h5-7H,1-4H2;1H3,(H,3,4)
Compound 3: N-methyldiethanolammonium acetate, C7H17NO4, InChI=1S/C5H13NO2.C2H4O2/c1-6(2-4-7)3-5-8;1-2(3)4/h7-8H,2-5H2,1H3;1H3,(H,3,4)
Compound 4: 2-hydroxyethylammonium lactate, C5H13NO4, InChI=1S/C3H6O3.C2H7NO/c1-2(4)3(5)6;3-1-2-4/h2,4H,1H3,(H,5,6);4H,1-3H2
Compound 5: diethanolamine lactate, C7H17NO5, InChI=1S/C4H11NO2.C3H6O3/c6-3-1-5-2-4-7;1-2(4)3(5)6/h5-7H,1-4H2;2,4H,1H3,(H,5,6)
Compound 6: N-methyldiethanolammonium lactate, C8H19NO5, InChI=1S/C5H13NO2.C3H6O3/c1-6(2-4-7)3-5-8;1-2(4)3(5)6/h7-8H,2-5H2,1H3;2,4H,1H3,(H,5,6)

System: 2-hydroxyethylammonium acetate; phases: Liquid
Fixed: Pressure, kPa = 101.325
Property: Mass density, kg/m3 (Liquid); method: Vibrating tube method
Temperature, K	Mass density, kg/m3	uncertainty
293.15	1148.66	10.82
303.15	1143.39	10.81
313.15	1138.02	10.79
323.15	1132.52	10.78
333.15	1126.94	10.76
343.15	1121.26	10.74
353.15	1115.47	10.73
363.15	1109.55	10.71

System: 2-hydroxyethylammonium acetate; phases: Liquid
Fixed: Pressure, kPa = 101.325
Property: Viscosity, Pa*s (Liquid); method: Cone and plate viscometry
Temperature, K	Viscosity, Pa*s	uncertainty
298.2	0.31315	0.06393
303.2	0.22468	0.04569
308.2	0.16291	0.033
313.2	0.12026	0.02429
318.2	0.09256	0.01866
323.2	0.07068	0.01423
328.2	0.05656	0.01138
333.2	0.04391	0.00884
338.2	0.03498	0.00704
343.2	0.02904	0.00584
348.2	0.02405	0.00484

System: 2-hydroxyethylammonium acetate; phases: Liquid
Fixed: Pressure, kPa = 101.325
Property: Refractive index (Na D-line) (Liquid); method: Standard Abbe refractometry
Temperature, K	Refractive index (Na D-line)	uncertainty
293.15	1.43775	0.05001
298.15	1.43682	0.05001
303.15	1.43593	0.05001
308.15	1.4351	0.05001
313.15	1.43428	0.05001
318.15	1.43356	0.05001
323.15	1.43287	0.05001
328.15	1.43223	0.05001
333.15	1.43164	0.05001

System: 2,2'-azanediylbis(ethanol) acetate; phases: Liquid
Fixed: Pressure, kPa = 101.325
Property: Mass density, kg/m3 (Liquid); method: Vibrating tube method
Temperature, K	Mass density, kg/m3	uncertainty
293.15	1173.85	10.89
303.15	1166.39	10.87
313.15	1160.12	10.85
323.15	1153.96	10.84
333.15	1147.64	10.82
343.15	1141.22	10.8
353.15	1134.66	10.78
363.15	1127.97	10.76

System: 2,2'-azanediylbis(ethanol) acetate; phases: Liquid
Fixed: Pressure, kPa = 101.325
Property: Viscosity, Pa*s (Liquid); method: Cone and plate viscometry
Temperature, K	Viscosity, Pa*s	uncertainty
298.2	0.56689	0.11699
303.2	0.37659	0.07723
308.2	0.26002	0.053
313.2	0.18397	0.03733
318.2	0.13606	0.02751
323.2	0.10106	0.02039
328.2	0.07835	0.01578
333.2	0.06025	0.01213
338.2	0.04879	0.00982
343.2	0.03865	0.00778
348.2	0.03151	0.00634

System: 2,2'-azanediylbis(ethanol) acetate; phases: Liquid
Fixed: Pressure, kPa = 101.325
Property: Refractive index (Na D-line) (Liquid); method: Standard Abbe refractometry
Temperature, K	Refractive index (Na D-line)	uncertainty
293.15	1.43431	0.05001
298.15	1.43338	0.05001
303.15	1.43238	0.05001
308.15	1.43137	0.05001
313.15	1.43029	0.05001
318.15	1.42916	0.05001
323.15	1.42798	0.05001
328.15	1.42673	0.05001
333.15	1.42547	0.05001

System: N-methyldiethanolammonium acetate; phases: Liquid
Fixed: Pressure, kPa = 101.325
Property: Mass density, kg/m3 (Liquid); method: Vibrating tube method
Temperature, K	Mass density, kg/m3	uncertainty
293.15	1141.42	10.8
303.15	1132.76	10.78
313.15	1125.85	10.76
323.15	1118.75	10.74
333.15	1111.46	10.72
343.15	1103.98	10.7
353.15	1096.28	10.68
363.15	1088.36	10.66

System: N-methyldiethanolammonium acetate; phases: Liquid
Fixed: Pressure, kPa = 101.325
Property: Viscosity, Pa*s (Liquid); method: Cone and plate viscometry
Temperature, K	Viscosity, Pa*s	uncertainty
298.2	0.19891	0.04036
303.2	0.14469	0.02928
308.2	0.10833	0.02186
313.2	0.08356	0.01684
318.2	0.06412	0.01291
323.2	0.05096	0.01025
328.2	0.04045	0.00814
333.2	0.03215	0.00647
338.2	0.02598	0.00523
343.2	0.02232	0.00449
348.2	0.01845	0.00371

System: N-methyldiethanolammonium acetate; phases: Liquid
Fixed: Pressure, kPa = 101.325
Property: Refractive index (Na D-line) (Liquid); method: Standard Abbe refractometry
Temperature, K	Refractive index (Na D-line)	uncertainty
293.15	1.43302	0.05001
298.15	1.43215	0.05001
303.15	1.43122	0.05001
308.15	1.43023	0.05001
313.15	1.42922	0.05001
318.15	1.42813	0.05001
323.15	1.42702	0.05001
328.15	1.42583	0.05001
333.15	1.42462	0.05001

System: 2-hydroxyethylammonium lactate; phases: Liquid
Fixed: Pressure, kPa = 101.325
Property: Mass density, kg/m3 (Liquid); method: Vibrating tube method
Temperature, K	Mass density, kg/m3	uncertainty
293.15	1204.52	10.99
303.15	1197.84	10.97
313.15	1191.86	10.95
323.15	1185.78	10.93
333.15	1179.64	10.91
343.15	1173.45	10.89
353.15	1167.19	10.87
363.15	1160.86	10.86

System: 2-hydroxyethylammonium lactate; phases: Liquid
Fixed: Pressure, kPa = 101.325
Property: Viscosity, Pa*s (Liquid); method: Cone and plate viscometry
Temperature, K	Viscosity, Pa*s	uncertainty
298.2	0.25425	0.05175
303.2	0.18145	0.03681
308.2	0.13332	0.02696
313.2	0.10002	0.02018
318.2	0.07688	0.01549
323.2	0.06018	0.01211
328.2	0.04812	0.00968
333.2	0.03812	0.00767
338.2	0.03102	0.00624
343.2	0.02498	0.00503
348.2	0.02126	0.00428

System: 2-hydroxyethylammonium lactate; phases: Liquid
Fixed: Pressure, kPa = 101.325
Property: Refractive index (Na D-line) (Liquid); method: Standard Abbe refractometry
Temperature, K	Refractive index (Na D-line)	uncertainty
293.15	1.43858	0.05001
298.15	1.43758	0.05001
303.15	1.43658	0.05001
308.15	1.43557	0.05001
313.15	1.43455	0.05001
318.15	1.43354	0.05001
323.15	1.43252	0.05001
328.15	1.43148	0.05001
333.15	1.43043	0.05001

System: diethanolamine lactate; phases: Liquid
Fixed: Pressure, kPa = 101.325
Property: Mass density, kg/m3 (Liquid); method: Vibrating tube method
Temperature, K	Mass density, kg/m3	uncertainty
293.15	1206.34	10.99
303.15	1198.77	10.97
313.15	1192.47	10.95
323.15	1186.14	10.93
333.15	1179.73	10.91
343.15	1173.25	10.89
353.15	1166.69	10.87
363.15	1160.03	10.85

System: diethanolamine lactate; phases: Liquid
Fixed: Pressure, kPa = 101.325
Property: Viscosity, Pa*s (Liquid); method: Cone and plate viscometry
Temperature, K	Viscosity, Pa*s	uncertainty
298.2	0.28856	0.05885
303.2	0.20415	0.04147
308.2	0.14854	0.03006
313.2	0.11025	0.02226
318.2	0.08434	0.017
323.2	0.06545	0.01318
328.2	0.05178	0.01042
333.2	0.04215	0.00848
338.2	0.03345	0.00673
343.2	0.02715	0.00546
348.2	0.02245	0.00452

System: diethanolamine lactate; phases: Liquid
Fixed: Pressure, kPa = 101.325
Property: Refractive index (Na D-line) (Liquid); method: Standard Abbe refractometry
Temperature, K	Refractive index (Na D-line)	uncertainty
293.15	1.44156	0.05001
298.15	1.44142	0.05001
303.15	1.44109	0.05001
308.15	1.44056	0.05001
313.15	1.43983	0.05001
318.15	1.43891	0.05001
323.15	1.43776	0.05001
328.15	1.43642	0.05001
333.15	1.43489	0.05001

System: N-methyldiethanolammonium lactate; phases: Liquid
Fixed: Pressure, kPa = 101.325
Property: Mass density, kg/m3 (Liquid); method: Vibrating tube method
Temperature, K	Mass density, kg/m3	uncertainty
293.15	1183.23	10.92
303.15	1176.19	10.9
313.15	1169.54	10.88
323.15	1162.77	10.86
333.15	1155.9	10.84
343.15	1148.93	10.82
353.15	1141.86	10.8
363.15	1134.68	10.78

System: N-methyldiethanolammonium lactate; phases: Liquid
Fixed: Pressure, kPa = 101.325
Property: Viscosity, Pa*s (Liquid); method: Cone and plate viscometry
Temperature, K	Viscosity, Pa*s	uncertainty
298.2	0.22515	0.04576
303.2	0.16202	0.03282
308.2	0.12026	0.02429
313.2	0.09115	0.01837
318.2	0.07315	0.01473
323.2	0.05526	0.01112
328.2	0.04315	0.00868
333.2	0.03515	0.00707
338.2	0.02915	0.00586
343.2	0.02615	0.00526
348.2	0.01836	0.0037

System: N-methyldiethanolammonium lactate; phases: Liquid
Fixed: Pressure, kPa = 101.325
Property: Refractive index (Na D-line) (Liquid); method: Standard Abbe refractometry
Temperature, K	Refractive index (Na D-line)	uncertainty
293.15	1.44281	0.05001
298.15	1.44159	0.05001
303.15	1.44036	0.05001
308.15	1.43912	0.05001
313.15	1.43789	0.05001
318.15	1.43668	0.05001
323.15	1.43545	0.05001
328.15	1.43422	0.05001
333.15	1.43297	0.05001
