Measured thermophysical data. The heat capacities and thermodynamic functions of 4-methylbiphenyl and 4-tert-butylbiphenyl
Source: J. Chem. Thermodyn., 2010, 10.1016/j.jct.2010.05.002
Compound 1: 4-methylbiphenyl, C13H12, InChI=1S/C13H12/c1-11-7-9-13(10-8-11)12-5-3-2-4-6-12/h2-10H,1H3, purity 99.67%
Compound 2: 4-(1,1-dimethylethyl)-1,1'-biphenyl, C16H18, InChI=1S/C16H18/c1-16(2,3)15-11-9-14(10-12-15)13-7-5-4-6-8-13/h4-12H,1-3H3, purity 99.96%

System: 4-methylbiphenyl; phases: Crystal, Liquid, Gas
Property: Molar enthalpy of transition or fusion, kJ/mol (Crystal); method: Adiabatic calorimetry
Molar enthalpy of transition or fusion, kJ/mol	uncertainty
12.29	0.28

System: 4-methylbiphenyl; phases: Crystal, Liquid, Gas
Property: Triple point temperature, K (Crystal); method: Adiabatic calorimetry
Triple point temperature, K	uncertainty
320.33	0.05

System: 4-methylbiphenyl; phases: Crystal 2
Fixed: Pressure, kPa = 101.325
Property: Molar heat capacity at constant pressure, J/K/mol (Crystal 2); method: Vacuum adiabatic calorimetry
Temperature, K	Molar heat capacity at constant pressure, J/K/mol	uncertainty
8.42	3.6981	0.2637
8.7	3.9959	0.2718
8.96	4.2437	0.2838
9.47	4.8345	0.2973
9.97	5.4325	0.3268
10.28	5.7777	0.3385
10.67	6.2733	0.3634
11.06	6.7767	0.3798
11.44	7.3385	0.3958
11.83	7.8122	0.4057
12.21	8.2864	0.4147
12.59	8.7218	0.436
12.96	9.1935	0.4685
13.35	9.7603	0.4775
13.72	10.44	0.512
14.09	10.741	0.515
14.46	11.372	0.518
14.83	11.812	0.555
15.2	12.217	0.57
15.56	12.796	0.588
15.92	13.351	0.598
16.28	13.948	0.633
16.65	14.46	0.658
17.01	14.643	0.653
17.37	15.378	0.685
17.72	16.093	0.708
18.08	16.368	0.734
18.44	17.108	0.75
18.79	17.506	0.759
19.88	19.128	0.83
20.58	20.286	0.868
21.36	21.322	0.898
22.14	22.381	0.946
22.91	23.601	0.991
23.69	24.614	1.027
24.46	25.757	1.073
25.23	26.802	1.102
26	27.575	1.139
26.76	28.856	1.203
27.53	30.07	1.235
28.29	30.899	1.266
29.05	32.046	1.315
29.81	33.032	1.357
30.57	34.284	0.749
31.33	35.245	0.763
32.09	36.413	0.761
32.86	36.832	0.781
33.62	38.308	0.829
34.37	39.144	0.816
35.13	39.928	0.842
35.88	41.046	0.852
36.64	41.535	0.853
37.39	42.341	0.902
38.14	43.779	0.909
38.9	44.06	0.911
39.65	45.398	0.948
40.4	45.986	0.939
41.15	46.639	0.969
41.9	47.815	0.999
42.65	48.692	1.012
43.4	49.756	1.033
44.15	50.637	1.023
44.91	50.569	1.02
45.66	51.277	1.057
46.41	52.333	1.086
47.16	53.307	1.093
47.91	53.956	1.11
48.65	55.094	1.149
49.4	56.247	1.153
50.15	56.825	1.15
50.9	57.261	1.163
51.65	58.125	1.201
52.4	59.372	1.216
53.15	59.895	1.217
53.9	60.724	1.243
54.64	61.656	1.267
55.39	62.703	1.287
56.14	63.644	1.283
56.89	63.485	1.278
57.64	64.25	1.298
58.39	64.496	1.299
59.13	64.984	1.312
59.88	65.467	1.322
60.63	66.027	1.328
61.37	65.921	1.325
62.12	66.394	1.342
62.86	67.014	1.356
63.6	67.59	1.361
64.35	67.747	1.363
65.09	68.237	1.381
65.83	68.992	1.395
66.57	69.458	1.4
67.32	69.911	1.408
68.06	70.285	1.416
68.8	70.753	1.441
69.54	72.078	1.461
70.28	72.225	1.451
71.18	72.289	1.455
72.22	73.132	1.48
73.27	74.214	1.497
74.32	74.625	1.504
75.37	75.509	1.519
76.42	75.536	1.518
77.47	76.162	1.541
78.51	77.533	1.566
78.8	78.322	1.584
79.56	77.918	1.572
80.6	79.105	0.522
81.65	79.669	0.568
82.17	81.46	0.535
83.21	81.225	0.517
84.78	82.634	0.564
85.83	84.238	0.563
87.34	85.253	0.559
88.37	86.402	0.569
89.4	87.094	0.562
90.43	87.846	0.575
91.47	88.19	0.582
92.5	89.194	0.589
93.53	89.617	0.591
94.55	90.587	0.599
95.58	91.129	0.608
96.61	92.304	0.647
97.64	93.826	0.601
98.66	92.613	0.594
99.69	94.229	0.651
100.72	95.146	0.614
101.74	95.128	0.609
102.77	95.551	0.618
104.82	96.612	0.628
105.84	97.413	0.65
106.86	98.568	0.656
107.88	99.358	0.64
108.9	99.571	0.643
109.93	100.46	0.65
110.95	100.63	0.64
111.97	100.49	0.65
112.99	102.03	0.68
114.01	102.56	0.66
115.02	103.36	0.69
116.04	104.67	0.68
117.06	104.77	0.67
118.08	104.33	0.67
119.1	105.95	0.72
120.12	106.87	0.68
121.14	106.67	0.68
122.15	107.47	0.7
123.17	108.38	0.69
124.18	108.38	0.69
125.2	108.94	0.71
126.21	110.22	0.72
127.23	110.82	0.71
128.23	111.43	0.7
129.25	111	0.71
130.26	112.24	0.76
131.27	113.68	0.72
132.28	113.17	0.72
133.29	114.17	0.75
134.3	115.39	0.75
135.31	115.98	0.73
136.32	115.79	0.73
137.33	115.95	0.74
138.33	116.76	0.77
139.34	118.07	0.78
140.34	119.05	0.76
141.35	119.04	0.75
142.35	119.96	0.76
143.36	120	0.76
144.35	120.48	0.76
145.36	120.67	0.77
146.36	122	0.78
147.36	122.17	0.8
148.36	124.22	0.83
149.36	124.87	0.79
150.36	125.07	0.79
151.36	125.72	0.8
153.66	127.07	0.8
154.92	127.26	0.8
155.92	127.72	0.81
156.91	128.68	0.82
157.91	129.05	0.82
158.9	129.98	0.84
159.89	130.91	0.84
162.88	133.43	0.84
163.87	132.72	0.83
164.87	133.55	0.84
165.85	133.77	0.85
166.84	134.91	0.87
167.83	135.89	0.87
169.79	137.42	0.86
170.78	137.22	0.86
171.76	137.79	0.87
172.74	138.45	0.87
173.73	139.11	0.89
174.71	140.53	0.89
175.69	140.7	0.88
176.68	141.47	0.9
177.66	142.43	0.9
178.64	143.15	0.9
179.62	143.76	0.9
180.6	144.25	0.91
181.58	145.06	0.92
182.56	146.17	0.92
183.54	146.07	0.91
184.52	146.77	0.94
185.47	148	0.94
186.45	148.42	0.93
187.42	148.71	0.94
188.4	149.77	0.95
189.37	150.31	0.95
190.34	151.29	0.97
191.32	152.46	0.97
192.29	153.07	0.96
193.26	153.26	0.96
194.23	154.48	0.98
195.2	154.92	0.97
196.17	155.18	0.98
197.14	156.43	0.98
198.1	156.66	0.97
199.07	156.85	0.99
200.03	158.25	1
201.21	159.08	1
202.67	160.39	1.01
204.13	161.16	1.01
205.59	161.88	1.01
207.05	163.01	1.03
208.5	164.47	1.03
209.95	165.42	1.04
211.41	166.95	1.05
212.86	167.72	1.05
214.31	168.81	1.06
215.75	169.75	1.06
217.19	170.91	1.07
218.63	172.34	1.08
220.07	173.54	1.09
221.51	174.81	1.09
224.33	177.09	1.11
225.77	178.63	1.11
227.21	179.26	1.12
228.64	180.46	1.13
230.07	181.65	1.14
231.5	183.05	1.14
232.92	183.59	1.14
234.35	184.76	1.15
235.77	186	1.16
237.2	186.68	1.17
238.62	188.83	1.19
240.04	189.96	1.18
241.46	190.95	1.19
242.88	191.92	1.19
245.71	194.12	1.21
247.06	195.69	1.22
248.47	196.82	1.22
249.87	197.8	1.23
251.28	198.95	1.23
252.68	199.51	1.27
254.07	203.15	1.33
255.46	205.87	1.27
256.86	204.64	1.27
258.26	207.95	1.34
259.65	209.9	1.32
261.05	211.67	1.33
262.45	213.5	1.36
263.84	216.69	1.37
265.26	218.04	1.34
265.74	214.98	1.36
266.62	215.48	1.34
267.35	216.35	1.34
268.06	216.34	1.36
268.77	218.41	1.36
269.46	217.65	1.37
270.14	220.43	1.48
270.81	221.73	1.51
271.48	224.8	1.59
272.13	226.98	1.52
272.79	228.68	1.52
273.44	230.85	1.48
274.09	231.46	1.48
274.73	233.58	1.59
275.38	235.91	1.55
276.02	236.58	1.54
276.54	238.77	1.55
277.18	240.39	1.64
277.82	243.02	1.57
278.45	244.38	1.59
279.09	245.39	1.59
279.72	247.06	1.59
280.35	249.06	1.59
280.98	250.28	1.63
281.61	250.82	1.62
282.22	253.9	1.63
282.84	255.25	1.65
283.47	256.25	1.61
284.09	257.26	1.64
284.71	258.2	1.67
285.32	261	1.74
285.94	262.67	1.75
286.41	265.19	1.73
287.03	266.14	1.76
287.64	267.86	1.72
288.24	270.21	1.72
289.45	271.63	1.81
290.05	274.89	2
290.65	278.67	1.96
291.25	281.37	2.03
291.85	283.3	2.04
292.44	287.63	2.28
293.04	291.45	2.33
293.63	298.7	2.44
294.21	301.08	2.77
294.8	306.74	2.93
295.38	315.73	5.42
295.81	323.56	29.95
296.38	356.89	34.96
296.78	604.38	58.02

System: 4-methylbiphenyl; phases: Crystal 1
Fixed: Pressure, kPa = 101.325
Property: Molar heat capacity at constant pressure, J/K/mol (Crystal 1); method: Vacuum adiabatic calorimetry
Temperature, K	Molar heat capacity at constant pressure, J/K/mol	uncertainty
298.45	252.48	3.24
299.16	242.36	2.58
299.72	239.35	1.6
300.27	238.79	1.74
300.79	244.43	1.54
301.28	240.52	1.54
301.77	242.22	1.65
302.25	243.96	1.5
302.73	242.88	1.49
303.21	243.63	1.5
303.43	242.23	1.51
303.9	242.44	1.49
304.37	241.56	1.51
304.84	243.77	1.62
305.31	244.44	1.5
305.78	244.15	1.5
306.24	244.23	1.53
306.7	245.51	1.56
307.16	246.05	1.52
307.62	246.17	1.51
308.08	246.5	1.52
308.53	247	1.52
308.98	247.25	1.55
309.43	248.47	1.61
309.88	249.54	1.54
310.32	249.25	1.57
310.48	249.45	1.56
310.92	251.3	1.61
311.36	251.5	1.72
312.31	256.21	1.87
313.97	264.83	2.11
314.78	273.5	3.75
315.57	291.72	4.95

System: 4-methylbiphenyl; phases: Liquid
Fixed: Pressure, kPa = 101.325
Property: Molar heat capacity at constant pressure, J/K/mol (Liquid); method: Vacuum adiabatic calorimetry
Temperature, K	Molar heat capacity at constant pressure, J/K/mol	uncertainty
321.28	289.67	1.78
322.04	290.27	1.78
322.79	290.67	1.78
323.53	290.73	1.78
324.28	291.55	1.79
325.01	291.28	1.78
325.74	291.46	1.8
326.47	293.2	1.8
327.19	292.01	1.79
327.91	293.22	1.8
328.27	292.87	1.79
328.98	293.44	1.8
329.68	293.4	1.8
330.38	294.27	1.8
331.07	293.42	1.8
331.76	294.54	1.81
332.45	294.83	1.81
333.13	295.75	1.81
333.8	295.68	1.81
334.47	295.42	1.82
336.41	298.11	1.84
337.06	298.19	1.82
337.7	298.22	1.82
338.34	298.05	1.83
338.57	298.82	1.91
339.03	300.03	1.84
339.2	299.1	1.83
340.45	299.61	1.83
341.07	299.94	1.86
341.68	301.45	1.84
342.29	300.21	1.84
342.89	301.42	1.88
343.49	302.55	1.85
344.08	301.94	1.85
344.67	303	1.86
345.25	303.08	1.86
346.41	304.11	1.86
346.98	304.03	1.86
347.55	304.56	1.88
347.66	303.66	1.87
348.78	306.1	1.89
349.3	305.23	1.87
349.88	305.3	1.87
350.42	305.41	1.88
350.96	306.68	1.89
351.49	306.74	1.88
352.02	307.44	1.89
352.55	307.72	1.88
353.07	307.31	1.88
353.59	308.24	1.89
354.1	307.67	1.88
354.61	308.41	1.89
355.12	308.12	1.88
355.62	308.6	1.89
355.62	307.85	1.88
356.11	307.9	1.9
356.61	309.76	1.89
357.09	308.25	1.89
357.58	309.03	1.92
358.05	309.85	1.9
358.53	309.78	1.89
359	309.73	1.89
359.47	309.75	1.9
359.53	309.84	1.9
360.39	310.32	1.91
360.84	311.4	1.93
361.29	311.64	1.91
361.74	310.99	1.9
362.18	311.55	1.91
362.52	311.51	1.9
362.62	311.89	1.91
362.96	311.52	1.92
363.39	310.96	1.92
365.49	313.17	1.96
365.9	312.29	1.91
366.3	313.49	1.96
366.7	314.04	1.92
367.1	313.11	1.92
367.49	314.44	1.94
367.88	314.05	1.93
368.27	313.75	1.93
368.45	313.66	1.94
368.65	313.35	1.92
368.82	312.67	1.91
369.2	314.01	2.01
369.57	314.85	1.93
369.94	314.67	1.92
370.3	314.64	1.93
370.66	315.15	1.93
371.02	314.85	1.93
371.37	314.45	1.96
371.71	316.2	1.96
372.06	315.57	1.96
372.39	315.1	1.95

System: 4-methylbiphenyl; phases: Liquid, Gas
Property: Vapor or sublimation pressure, kPa (Liquid); method: Transpiration method
Temperature, K	Vapor or sublimation pressure, kPa	uncertainty
323.2	0.00854	0.00045
325.4	0.01016	0.00053
327.2	0.01156	0.0006
329.7	0.01376	0.00072
332.2	0.01664	0.00087
334.6	0.01979	0.00103
336.2	0.02224	0.00116
338.7	0.02634	0.00137
341.6	0.03282	0.0017
344.1	0.03851	0.00199
346.4	0.04496	0.00232
349	0.05244	0.0027
351.2	0.06003	0.00311
353.2	0.0695	0.0036

System: 4-(1,1-dimethylethyl)-1,1'-biphenyl; phases: Crystal, Liquid, Gas
Property: Molar enthalpy of transition or fusion, kJ/mol (Crystal); method: Adiabatic calorimetry
Molar enthalpy of transition or fusion, kJ/mol	uncertainty
19.87	0.68

System: 4-(1,1-dimethylethyl)-1,1'-biphenyl; phases: Crystal, Liquid, Gas
Property: Triple point temperature, K (Crystal); method: Adiabatic calorimetry
Triple point temperature, K	uncertainty
324.76	0.05

System: 4-(1,1-dimethylethyl)-1,1'-biphenyl; phases: Crystal
Fixed: Pressure, kPa = 101.325
Property: Molar heat capacity at constant pressure, J/K/mol (Crystal); method: Vacuum adiabatic calorimetry
Temperature, K	Molar heat capacity at constant pressure, J/K/mol	uncertainty
8.3	2.5222	0.2026
8.57	2.7573	0.2209
9.11	3.2282	0.2287
9.63	3.7647	0.2563
9.89	4.0097	0.2692
11.01	5.2573	0.321
11.39	5.7027	0.3329
11.77	6.312	0.358
12.15	6.7201	0.3867
12.53	7.1818	0.4014
12.92	7.6636	0.4159
13.28	8.3773	0.444
13.65	8.8327	0.4595
14.02	9.4357	0.4856
14.39	9.9352	0.4845
14.75	10.393	0.524
15.11	10.958	0.539
15.48	11.365	0.55
15.83	12.257	0.585
16.19	12.777	0.61
16.55	13.214	0.644
16.91	13.774	0.649
17.27	14.488	0.665
17.62	15.233	0.696
17.98	15.862	0.707
18.33	16.179	0.726
18.68	16.709	0.74
19.03	16.978	0.746
19.38	17.875	0.789
19.73	18.477	0.817
20.08	19.009	0.853
20.76	20.233	0.883
21.53	21.569	0.927
22.31	22.768	0.964
23.08	23.918	1.011
23.85	25.179	1.062
24.62	26.425	1.099
25.38	27.38	1.127
26.14	28.323	1.192
26.9	30.113	1.272
27.66	31.354	1.297
28.42	32.535	1.337
29.17	33.544	1.368
29.93	34.421	1.416
30.68	35.963	0.82
31.43	37.316	0.819
32.19	38.434	0.795
32.96	38.725	0.819
33.71	40.37	0.886
34.46	41.385	0.863
35.21	42.078	0.889
35.96	43.442	0.935
36.71	44.589	0.953
37.46	45.857	0.959
38.21	46.569	0.966
38.96	47.646	0.99
39.71	48.448	0.994
40.46	49.156	1.03
41.21	50.623	1.071
41.95	51.637	1.068
42.7	52.497	1.072
43.45	53.063	1.08
44.2	53.765	1.112
44.95	55.034	1.135
45.69	55.672	1.153
46.44	57.104	1.167
47.19	57.291	1.169
47.93	58.611	1.223
48.68	59.763	1.221
49.43	60.294	1.22
50.18	60.841	1.241
50.92	61.904	1.265
51.67	62.564	1.271
52.42	63.329	1.293
53.16	64.295	1.321
53.91	65.388	1.332
54.65	65.943	1.336
55.4	66.718	1.353
56.14	67.314	1.367
56.89	68.206	1.377
57.64	68.365	1.382
58.38	69.384	1.41
59.12	69.976	1.419
59.86	70.837	1.444
60.61	71.803	1.454
61.35	72.222	1.464
62.09	73.301	1.491
62.83	73.973	1.507
63.57	75.163	1.532
64.31	75.918	1.537
65.06	76.603	1.553
65.8	77.49	1.567
66.54	77.975	1.58
67.27	79.071	1.596
68.02	79.179	1.592
68.76	79.623	1.603
69.49	80.064	1.612
70.22	80.545	1.624
71.11	81.256	1.638
72.16	81.969	1.663
73.2	83.773	1.721
74.24	85.78	1.761
75.29	87.617	1.797
76.33	89.608	1.841
77.37	91.701	1.886
78.41	93.86	1.915
78.6	93.38	1.905
79.46	95.29	1.932
79.89	95.591	1.946
80.5	96.679	0.635
80.92	97.157	0.686
81.55	97.376	0.652
81.96	98.925	0.665
82.59	99.156	0.701
82.99	99.712	0.666
83.63	100.81	0.71
84.02	101.38	0.73
84.67	102.6	0.74
85.05	103.37	0.74
85.71	104.76	0.78
86.08	105.1	0.78
87.11	107.71	0.77
88.14	109.06	0.69
89.18	109.08	0.69
90.21	110.43	0.75
91.24	111.94	0.74
92.26	112.49	0.73
93.29	113.67	0.76
94.32	115.2	0.77
95.34	116.2	0.76
96.36	117.24	0.75
97.39	117.75	0.78
98.41	119.69	0.83
99.44	121.4	0.76
100.46	120.13	0.76
101.48	122.02	0.83
102.5	123.38	0.79
103.53	123.38	0.79
104.55	124.78	0.82
105.57	125.7	0.8
106.59	125.94	0.79
107.6	126.55	0.81
108.62	127.46	0.84
109.63	129.07	0.86
110.65	130.3	0.82
111.66	130.29	0.82
112.67	130.99	0.83
113.68	131.82	0.85
114.69	132.86	0.85
115.71	133.48	0.84
116.72	133.98	0.84
117.73	134.55	0.85
118.74	135.11	0.86
119.75	136.16	0.87
120.76	136.83	0.86
121.76	137.18	0.86
122.77	138	0.88
123.77	138.81	0.89
124.78	139.92	0.89
125.78	140.34	0.88
126.79	141.2	0.9
127.78	141.96	0.9
128.78	142.63	0.9
129.78	143.1	0.92
130.78	144.73	0.93
131.78	145.34	0.91
132.78	145.71	0.91
133.78	146.29	0.92
134.78	147.05	0.92
135.77	147.52	0.93
136.77	148.34	0.94
137.77	149.37	0.94
138.76	149.38	0.94
139.75	150.91	0.98
140.74	152.15	0.97
141.74	153	0.96
142.73	153.45	0.96
143.7	153.84	0.97
144.69	154.76	0.97
145.68	154.88	0.97
146.67	155.86	1
147.65	157.44	1
148.64	158.13	1
149.63	159.37	0.99
150.61	159.11	1.02
151.59	161.68	1.04
152.58	161.75	1.01
153.56	162.27	1.01
154.54	162.57	1.01
155.52	163.19	1.03
156.5	164.59	1.05
157.48	165.54	1.09
158.46	168.2	1.07
159.4	167.88	1.06
160.49	170.03	1.06
162.35	170.22	1.06
163.32	171.45	1.07
164.3	171.68	1.07
165.27	172.24	1.09
166.24	173.77	1.11
167.21	175.03	1.1
168.17	175.74	1.1
169.13	176.91	1.12
170.1	177.85	1.12
171.06	178.74	1.12
172.03	179.57	1.12
172.99	180.33	1.13
173.96	181.16	1.13
174.88	181.91	1.13
175.84	182.48	1.14
176.8	183.39	1.15
177.75	184.41	1.18
178.71	186.15	1.17
179.67	186.69	1.16
180.62	187.72	1.16
181.58	187.66	1.16
182.53	188.58	1.19
183.48	190.07	1.19
184.43	190.57	1.19
185.38	191.97	1.2
186.33	192.5	1.2
187.27	193.52	1.22
188.22	194.65	1.22
189.16	195.58	1.23
190.05	196.73	1.24
190.99	197.88	1.23
191.93	198.13	1.24
192.87	199.81	1.25
193.81	200.3	1.24
194.75	200.51	1.24
195.68	201.32	1.28
196.61	203.32	1.27
197.55	203.52	1.27
198.48	205.18	1.29
199.41	205.85	1.27
200.34	205.72	1.27
201.52	207.22	1.3
202.94	208.68	1.3
204.37	210.19	1.31
205.79	211.33	1.31
207.14	212.7	1.33
208.55	214.44	1.33
209.96	215.21	1.34
211.37	217.19	1.35
212.78	218.22	1.35
214.19	219.53	1.36
215.59	220.68	1.37
216.99	222.17	1.39
218.39	224.18	1.4
219.79	225.72	1.4
221.18	226.72	1.4
222.9	227.94	1.41
224.62	229.7	1.43
226	231.67	1.43
227.39	232.23	1.44
228.77	233.85	1.45
230.14	234.83	1.45
231.52	236.49	1.47
232.88	237.84	1.47
234.25	239.02	1.48
235.61	240.58	1.49
236.97	241.66	1.5
238.33	243.18	1.51
239.69	244.52	1.51
241.05	245.68	1.52
242.4	247.57	1.53
243.75	248.49	1.53
244.98	249.71	1.55
246.33	251.82	1.57
247.66	253.81	1.57
249	254.6	1.57
250.34	256.26	1.58
251.68	256.95	1.58
253.01	258.51	1.6
254.34	259.55	1.61
255.66	261.49	1.62
256.97	262.33	1.61
258.29	263.11	1.63
259.61	265.21	1.65
260.92	267.1	1.65
262.23	268.4	1.66
263.54	269.72	1.66
264.84	270.96	1.67
265.99	271.74	1.68
267.28	273.32	1.7
268.57	275.22	1.7
269.86	276.29	1.71
271.15	277.98	1.73
272.43	280.14	1.73
273.71	281.15	1.72
274.98	281.51	1.73
276.26	282.58	1.74
277.52	284.25	1.75
278.79	285.49	1.76
280.04	286.95	1.77
281.3	288.13	1.78
282.55	289.87	1.79
283.8	290.87	1.79
285.04	291.7	1.8
286.08	293.13	1.82
287.32	295.16	1.82
288.53	295.47	1.81
289.76	296.85	1.83
292.2	299.34	1.84
293.41	300.48	1.85
294.63	301.51	1.85
295.83	302.32	1.86
297.03	303.76	1.86
298.23	303.58	1.86
299.42	305.47	1.98
300.61	306.04	1.89
301.79	308.28	1.91
302.89	309.67	1.9
303.99	310.47	1.92
305.04	312.55	1.93
306.34	313.92	1.93
307.46	315.51	1.93
308.62	315.74	1.96
309.76	319.18	1.99
310.9	320.42	1.96
312.03	320.51	1.96
313.15	321.63	1.98
314.25	323.46	2.03
315.35	326.54	2.01
316.44	326.58	2.01
317.52	328.97	2.1
318.58	333.26	2.19

System: 4-(1,1-dimethylethyl)-1,1'-biphenyl; phases: Liquid
Fixed: Pressure, kPa = 101.325
Property: Molar heat capacity at constant pressure, J/K/mol (Liquid); method: Vacuum adiabatic calorimetry
Temperature, K	Molar heat capacity at constant pressure, J/K/mol	uncertainty
325.87	381	2.33
327.07	382.02	2.33
328.07	382.22	2.33
329.06	382.84	2.34
330.05	383.2	2.34
331.03	383.56	2.34
332.01	384.21	2.35
332.98	384.73	2.36
333.94	386.4	2.36
334.9	386.26	2.36
335.85	387.48	2.37
336.8	388	2.37
337.74	388.46	2.37
338.68	388.8	2.37
339.61	389.81	2.38
340.53	390.68	2.39
340.99	390.97	2.39
341.91	391.9	2.4
342.82	392.95	2.4
343.73	393.35	2.4
344.62	393.96	2.41
345.52	394.82	2.42
346.4	396.04	2.42
347.28	396.15	2.42
348.16	397.03	2.42
349.03	396.87	2.42
349.89	397.86	2.43
350.75	398.4	2.43
351.6	397.8	2.42
352.45	397.92	2.6
354.12	401.27	3.29
354.41	401.25	2.45
355.24	400.85	2.44
356.06	400.95	2.44
356.87	401.61	2.45
357.67	402.4	2.45
358.47	402.62	2.45
359.27	402.51	2.45
360.06	402.5	2.46
360.84	404.15	2.49
361.61	405.1	2.47
362.38	405.27	2.47
363.15	406.09	2.48
363.91	406.9	2.48
364.66	406.47	2.48
365.41	407.47	2.49
366.15	407.61	2.48
366.27	407.63	2.48
367.01	406.87	2.48
367.73	408.31	2.54
368.45	410.51	2.52
369.17	410.57	2.5
369.88	409.74	2.5
370.58	410.84	2.52

System: 4-(1,1-dimethylethyl)-1,1'-biphenyl; phases: Crystal, Gas
Property: Vapor or sublimation pressure, kPa (Crystal); method: Transpiration method
Temperature, K	Vapor or sublimation pressure, kPa	uncertainty
301	8.2e-05	5e-06
303.9	0.000119	7e-06
305.9	0.000156	9e-06
307.9	0.000203	1.1e-05
310.9	0.000285	1.6e-05
312.9	0.000369	2.1e-05
313.8	0.000417	2.3e-05
315.8	0.000507	2.8e-05
318.8	0.000708	3.9e-05
319.8	0.000814	4.5e-05
320.2	0.000843	4.7e-05
321.7	0.001012	5.6e-05
322.7	0.001146	6.3e-05
323.2	0.001207	6.7e-05
325.2	0.0015	8.1e-05
326.2	0.00168	9.1e-05

System: 4-(1,1-dimethylethyl)-1,1'-biphenyl; phases: Liquid, Gas
Property: Vapor or sublimation pressure, kPa (Liquid); method: Transpiration method
Temperature, K	Vapor or sublimation pressure, kPa	uncertainty
327.4	0.00187	0.0001
331.5	0.00263	0.00014
334.4	0.00326	0.00017
336.6	0.00389	0.0002
338	0.00428	0.00022
338.8	0.00465	0.00025
340.5	0.00532	0.00028
341.6	0.00563	0.0003
343.7	0.00682	0.00036
343.8	0.00673	0.00035
346.6	0.00813	0.00043
347.2	0.00852	0.00044
347.6	0.00864	0.00046
348.8	0.00962	0.0005
349.8	0.0103	0.00053
350.4	0.0106	0.00054
352.8	0.01272	0.00066
354.8	0.01441	0.00075
357.4	0.01733	0.0009
360.2	0.02099	0.00109
362.6	0.025	0.0013
364.9	0.02919	0.00152
367.4	0.03524	0.00182
370	0.04103	0.0021
371.2	0.04325	0.00222
372.6	0.04776	0.00246
373.9	0.05134	0.00265
375.3	0.05672	0.0029
376.7	0.05953	0.00306
378	0.06614	0.00346
