Measured thermophysical data. Solute-solvent interactions of amino acid L-phenylalanine in aqueous 1-butyl-2,3-dimethylimidazolium bromide ionic liquid solutions
Source: J. Chem. Thermodyn., 2017, 10.1016/j.jct.2017.06.006
Compound 1: L-phenylalanine, C9H11NO2, InChI=1S/C9H11NO2/c10-8(9(11)12)6-7-4-2-1-3-5-7/h1-5,8H,6,10H2,(H,11,12)/t8-/m0/s1, purity 99%
Compound 2: 1-butyl-2,3-dimethylimidazolium bromide, C9H17BrN2, InChI=1S/C9H17N2.BrH/c1-4-5-6-11-8-7-10(3)9(11)2;/h7-8H,4-6H2,1-3H3;1H/q+1;/p-1, purity 99%
Compound 3: water, H2O, InChI=1S/H2O/h1H2, purity 99.8%

System: L-phenylalanine + water; phases: Liquid
Fixed: Pressure, kPa = 100
Property: Mass density, kg/m3 (Liquid); method: Vibrating tube method
Temperature, K	Molality, mol/kg of L-phenylalanine	Mass density, kg/m3	uncertainty
283.15	0.0102	1000.19	0.3
283.15	0.0203	1000.64	0.3
283.15	0.0293	1001.05	0.3
283.15	0.0398	1001.53	0.3
283.15	0.0509	1002.02	0.3
283.15	0.0606	1002.47	0.3
283.15	0.061	1002.49	0.3
283.15	0.0736	1003.05	0.3
283.15	0.0915	1003.87	0.3
283.15	0.1028	1004.36	0.3
288.15	0.0102	999.59	0.3
288.15	0.0203	1000.04	0.3
288.15	0.0293	1000.44	0.3
288.15	0.0398	1000.91	0.3
288.15	0.0509	1001.39	0.3
288.15	0.0606	1001.83	0.31
288.15	0.061	1001.85	0.3
288.15	0.0736	1002.4	0.3
288.15	0.0915	1003.2	0.3
288.15	0.1028	1003.69	0.3
293.15	0.0102	998.69	0.3
293.15	0.0203	999.13	0.3
293.15	0.0293	999.52	0.3
293.15	0.0398	999.98	0.3
293.15	0.0509	1000.46	0.3
293.15	0.0606	1000.9	0.31
293.15	0.061	1000.91	0.3
293.15	0.0736	1001.45	0.3
293.15	0.0915	1002.24	0.3
293.15	0.1028	1002.73	0.3
298.15	0.0102	997.52	0.3
298.15	0.0203	997.95	0.3
298.15	0.0293	998.35	0.3
298.15	0.0398	998.8	0.3
298.15	0.0509	999.27	0.3
298.15	0.0606	999.7	0.31
298.15	0.061	999.71	0.3
298.15	0.0736	1000.25	0.3
298.15	0.0915	1001.03	0.3
298.15	0.1028	1001.5	0.3
303.15	0.0102	996.12	0.3
303.15	0.0203	996.54	0.3
303.15	0.0293	996.93	0.3
303.15	0.0398	997.38	0.3
303.15	0.0509	997.85	0.3
303.15	0.0606	998.27	0.3
303.15	0.061	998.28	0.3
303.15	0.0736	998.81	0.3
303.15	0.0915	999.58	0.3
303.15	0.1028	1000.05	0.3
283.15	0	999.72	0.3
288.15	0	999.14	0.3
293.15	0	998.24	0.3
298.15	0	997.08	0.3
303.15	0	995.68	0.3

System: L-phenylalanine + water + 1-butyl-2,3-dimethylimidazolium bromide; phases: Liquid
Fixed: Pressure, kPa = 100
Property: Mass density, kg/m3 (Liquid); method: Vibrating tube method
Solvent: Molality, mol/kg of 1-butyl-2,3-dimethylimidazolium bromide	Temperature, K	Molality, mol/kg of L-phenylalanine	Mass density, kg/m3	uncertainty
0.1	283.15	0	1004.75	0.33
0.1	283.15	0.0114	1005.27	0.33
0.1	283.15	0.0313	1006.18	0.33
0.1	283.15	0.0399	1006.57	0.33
0.1	283.15	0.0519	1007.12	0.33
0.1	283.15	0.059	1007.44	0.33
0.1	283.15	0.0693	1007.9	0.33
0.1	283.15	0.0793	1008.34	0.33
0.1	283.15	0.084	1008.55	0.33
0.1	283.15	0.0966	1009.13	0.33
0.1	288.15	0	1004.08	0.33
0.1	288.15	0.0114	1004.59	0.33
0.1	288.15	0.0313	1005.49	0.33
0.1	288.15	0.0399	1005.87	0.33
0.1	288.15	0.0519	1006.41	0.33
0.1	288.15	0.059	1006.72	0.33
0.1	288.15	0.0693	1007.18	0.33
0.1	288.15	0.0793	1007.62	0.33
0.1	288.15	0.084	1007.82	0.33
0.1	288.15	0.0966	1008.39	0.33
0.1	293.15	0	1003.12	0.33
0.1	293.15	0.0114	1003.62	0.33
0.1	293.15	0.0313	1004.51	0.33
0.1	293.15	0.0399	1004.88	0.33
0.1	293.15	0.0519	1005.41	0.33
0.1	293.15	0.059	1005.72	0.33
0.1	293.15	0.0693	1006.16	0.33
0.1	293.15	0.0793	1006.6	0.33
0.1	293.15	0.084	1006.8	0.33
0.1	293.15	0.0966	1007.35	0.33
0.1	298.15	0	1001.89	0.33
0.1	298.15	0.0114	1002.39	0.33
0.1	298.15	0.0313	1003.27	0.33
0.1	298.15	0.0399	1003.64	0.33
0.1	298.15	0.0519	1004.16	0.33
0.1	298.15	0.059	1004.46	0.33
0.1	298.15	0.0693	1004.9	0.33
0.1	298.15	0.0793	1005.33	0.33
0.1	298.15	0.084	1005.53	0.33
0.1	298.15	0.0966	1006.07	0.33
0.1	303.15	0	1000.44	0.33
0.1	303.15	0.0114	1000.94	0.33
0.1	303.15	0.0313	1001.8	0.33
0.1	303.15	0.0399	1002.17	0.33
0.1	303.15	0.0519	1002.68	0.33
0.1	303.15	0.059	1002.98	0.33
0.1	303.15	0.0693	1003.42	0.33
0.1	303.15	0.0793	1003.84	0.33
0.1	303.15	0.084	1004.04	0.33
0.1	303.15	0.0966	1004.57	0.33
0	283.15	0.0102	1000.19	0.33
0	283.15	0.0203	1000.64	0.33
0	283.15	0.0293	1001.05	0.33
0	283.15	0.0398	1001.53	0.33
0	283.15	0.0509	1002.02	0.33
0	283.15	0.0606	1002.47	0.33
0	283.15	0.061	1002.49	0.33
0	283.15	0.0736	1003.05	0.33
0	283.15	0.0915	1003.87	0.33
0	283.15	0.1028	1004.36	0.33
0	288.15	0.0102	999.59	0.33
0	288.15	0.0203	1000.04	0.33
0	288.15	0.0293	1000.44	0.33
0	288.15	0.0398	1000.91	0.33
0	288.15	0.0509	1001.39	0.33
0	288.15	0.0606	1001.83	0.33
0	288.15	0.061	1001.85	0.33
0	288.15	0.0736	1002.4	0.33
0	288.15	0.0915	1003.2	0.33
0	288.15	0.1028	1003.69	0.33
0	293.15	0.0102	998.69	0.33
0	293.15	0.0203	999.13	0.33
0	293.15	0.0293	999.52	0.33
0	293.15	0.0398	999.98	0.33
0	293.15	0.0509	1000.46	0.33
0	293.15	0.0606	1000.9	0.33
0	293.15	0.061	1000.91	0.33
0	293.15	0.0736	1001.45	0.33
0	293.15	0.0915	1002.24	0.33
0	293.15	0.1028	1002.73	0.33
0	298.15	0.0102	997.52	0.33
0	298.15	0.0203	997.95	0.33
0	298.15	0.0293	998.35	0.33
0	298.15	0.0398	998.8	0.33
0	298.15	0.0509	999.27	0.33
0	298.15	0.0606	999.7	0.33
0	298.15	0.061	999.71	0.33
0	298.15	0.0736	1000.25	0.33
0	298.15	0.0915	1001.03	0.33
0	298.15	0.1028	1001.5	0.33
0	303.15	0.0102	996.12	0.33
0	303.15	0.0203	996.54	0.33
0	303.15	0.0293	996.93	0.33
0	303.15	0.0398	997.38	0.33
0	303.15	0.0509	997.85	0.33
0	303.15	0.0606	998.27	0.33
0	303.15	0.061	998.28	0.33
0	303.15	0.0736	998.81	0.33
0	303.15	0.0915	999.58	0.33
0	303.15	0.1028	1000.05	0.33
0	283.15	0	999.72	0.33
0	288.15	0	999.14	0.33
0	293.15	0	998.24	0.33
0	298.15	0	997.08	0.33
0	303.15	0	995.68	0.33

System: water + 1-butyl-2,3-dimethylimidazolium bromide; phases: Liquid
Fixed: Pressure, kPa = 100
Property: Mass density, kg/m3 (Liquid); method: Vibrating tube method
Molality, mol/kg of 1-butyl-2,3-dimethylimidazolium bromide	Temperature, K	Mass density, kg/m3	uncertainty
0.1	283.15	1004.75	0.36
0.1	288.15	1004.08	0.36
0.1	293.15	1003.12	0.36
0.1	298.15	1001.89	0.36
0.1	303.15	1000.44	0.36
0	283.15	999.72	0.36
0	288.15	999.14	0.36
0	293.15	998.24	0.36
0	298.15	997.08	0.36
0	303.15	995.68	0.36
