Measured thermophysical data. Volumetric, ultrasonic and viscometric studies of solute solute and solute solvent interactions of l-threonine in aqueous-sucrose solutions at different temperatures
Source: J. Chem. Thermodyn., 2013, 10.1016/j.jct.2013.05.012
Compound 1: L-threonine, C4H9NO3, InChI=1S/C4H9NO3/c1-2(6)3(5)4(7)8/h2-3,6H,5H2,1H3,(H,7,8)/t2-,3+/m1/s1, purity 99%
Compound 2: D-sucrose, C12H22O11, InChI=1S/C12H22O11/c13-1-4-6(16)8(18)9(19)11(21-4)23-12(3-15)10(20)7(17)5(2-14)22-12/h4-11,13-20H,1-3H2/t4-,5-,6-,7-,8+,9-,10+,11-,12+/m1/s1, purity 99.8%
Compound 3: water, H2O, InChI=1S/H2O/h1H2

System: water; phases: Liquid
Fixed: Pressure, kPa = 101
Property: Speed of sound, m/s (Liquid); method: Linear variable-path acoustic interferometer
Temperature, K	Speed of sound, m/s	uncertainty
298.15	1496.9	1.6
303.15	1508.4	1.6
308.15	1519.8	1.6
313.15	1526.8	1.6
318.15	1533	1.6

System: D-sucrose + L-threonine + water; phases: Liquid
Fixed: Pressure, kPa = 101
Property: Mass density, kg/m3 (Liquid); method: Pycnometric method
Solvent: Mass fraction of D-sucrose	Temperature, K	Molality, mol/kg of L-threonine	Mass density, kg/m3	uncertainty
0.05	293.15	0	1018.91	0.27
0.05	293.15	0.0249	1019.85	0.27
0.05	293.15	0.0498	1020.78	0.27
0.05	293.15	0.0749	1021.69	0.27
0.05	293.15	0.0999	1022.58	0.27
0.05	293.15	0.125	1023.46	0.27
0.05	293.15	0.1499	1024.32	0.27
0.05	293.15	0.1749	1025.16	0.27
0.05	293.15	0.1999	1025.99	0.27
0.05	298.15	0	1017.19	0.28
0.05	298.15	0.0249	1018.13	0.28
0.05	298.15	0.0498	1019.06	0.28
0.05	298.15	0.0749	1019.97	0.28
0.05	298.15	0.0999	1020.86	0.28
0.05	298.15	0.125	1021.73	0.28
0.05	298.15	0.1499	1022.59	0.28
0.05	298.15	0.1749	1023.43	0.28
0.05	298.15	0.1999	1024.26	0.28
0.05	303.15	0	1015.45	0.29
0.05	303.15	0.0249	1016.39	0.29
0.05	303.15	0.0498	1017.32	0.29
0.05	303.15	0.0749	1018.23	0.29
0.05	303.15	0.0999	1019.12	0.29
0.05	303.15	0.125	1019.99	0.29
0.05	303.15	0.1499	1020.85	0.29
0.05	303.15	0.1749	1021.69	0.29
0.05	303.15	0.1999	1022.52	0.29
0.05	308.15	0	1013.72	0.3
0.05	308.15	0.0249	1014.66	0.3
0.05	308.15	0.0498	1015.59	0.3
0.05	308.15	0.0749	1016.5	0.3
0.05	308.15	0.0999	1017.39	0.3
0.05	308.15	0.125	1018.26	0.3
0.05	308.15	0.1499	1019.13	0.3
0.05	308.15	0.1749	1019.97	0.3
0.05	308.15	0.1999	1020.79	0.3
0.05	313.15	0	1011.98	0.31
0.05	313.15	0.0249	1012.93	0.31
0.05	313.15	0.0498	1013.86	0.31
0.05	313.15	0.0749	1014.77	0.31
0.05	313.15	0.0999	1015.66	0.31
0.05	313.15	0.125	1016.53	0.31
0.05	313.15	0.1499	1017.4	0.31
0.05	313.15	0.1749	1018.24	0.31
0.05	313.15	0.1999	1019.06	0.31
0.05	318.15	0	1010.23	0.32
0.05	318.15	0.0249	1011.18	0.32
0.05	318.15	0.0498	1012.11	0.32
0.05	318.15	0.0749	1013.02	0.32
0.05	318.15	0.0999	1013.92	0.32
0.05	318.15	0.125	1014.8	0.32
0.05	318.15	0.1499	1015.66	0.32
0.05	318.15	0.1749	1016.5	0.32
0.05	318.15	0.1999	1017.33	0.32
0.1	293.15	0	1039.28	0.27
0.1	293.15	0.0249	1040.11	0.27
0.1	293.15	0.0499	1040.93	0.27
0.1	293.15	0.0749	1041.73	0.27
0.1	293.15	0.0999	1042.51	0.27
0.1	293.15	0.125	1043.28	0.28
0.1	293.15	0.1499	1044.04	0.28
0.1	293.15	0.175	1044.78	0.28
0.1	293.15	0.1999	1045.51	0.28
0.1	298.15	0	1037.45	0.28
0.1	298.15	0.0249	1038.28	0.28
0.1	298.15	0.0499	1039.09	0.29
0.1	298.15	0.0749	1039.9	0.29
0.1	298.15	0.0999	1040.68	0.29
0.1	298.15	0.125	1041.44	0.29
0.1	298.15	0.1499	1042.2	0.29
0.1	298.15	0.175	1042.94	0.29
0.1	298.15	0.1999	1043.67	0.29
0.1	303.15	0	1035.61	0.3
0.1	303.15	0.0249	1036.44	0.3
0.1	303.15	0.0499	1037.25	0.3
0.1	303.15	0.0749	1038.05	0.3
0.1	303.15	0.0999	1038.83	0.3
0.1	303.15	0.125	1039.6	0.3
0.1	303.15	0.1499	1040.35	0.3
0.1	303.15	0.175	1041.1	0.3
0.1	303.15	0.1999	1041.82	0.3
0.1	308.15	0	1033.76	0.31
0.1	308.15	0.0249	1034.59	0.31
0.1	308.15	0.0499	1035.4	0.31
0.1	308.15	0.0749	1036.2	0.31
0.1	308.15	0.0999	1036.98	0.31
0.1	308.15	0.125	1037.75	0.31
0.1	308.15	0.1499	1038.51	0.31
0.1	308.15	0.175	1039.25	0.31
0.1	308.15	0.1999	1039.97	0.31
0.1	313.15	0	1031.93	0.32
0.1	313.15	0.0249	1032.76	0.32
0.1	313.15	0.0499	1033.57	0.32
0.1	313.15	0.0749	1034.37	0.32
0.1	313.15	0.0999	1035.16	0.32
0.1	313.15	0.125	1035.93	0.32
0.1	313.15	0.1499	1036.68	0.32
0.1	313.15	0.175	1037.43	0.32
0.1	313.15	0.1999	1038.15	0.32
0.1	318.15	0	1030.09	0.33
0.1	318.15	0.0249	1030.92	0.33
0.1	318.15	0.0499	1031.74	0.33
0.1	318.15	0.0749	1032.54	0.33
0.1	318.15	0.0999	1033.32	0.33
0.1	318.15	0.125	1034.09	0.33
0.1	318.15	0.1499	1034.85	0.33
0.1	318.15	0.175	1035.59	0.33
0.1	318.15	0.1999	1036.33	0.33
0.15	293.15	0	1060.31	0.28
0.15	293.15	0.0249	1061.04	0.28
0.15	293.15	0.0499	1061.76	0.28
0.15	293.15	0.0749	1062.47	0.28
0.15	293.15	0.0999	1063.16	0.28
0.15	293.15	0.125	1063.84	0.28
0.15	293.15	0.1499	1064.51	0.28
0.15	293.15	0.175	1065.16	0.28
0.15	293.15	0.1999	1065.8	0.28
0.15	298.15	0	1058.49	0.29
0.15	298.15	0.0249	1059.22	0.29
0.15	298.15	0.0499	1059.94	0.29
0.15	298.15	0.0749	1060.64	0.29
0.15	298.15	0.0999	1061.33	0.29
0.15	298.15	0.125	1062.01	0.29
0.15	298.15	0.1499	1062.68	0.29
0.15	298.15	0.175	1063.33	0.29
0.15	298.15	0.1999	1063.97	0.29
0.15	303.15	0	1056.67	0.3
0.15	303.15	0.0249	1057.4	0.3
0.15	303.15	0.0499	1058.11	0.3
0.15	303.15	0.0749	1058.82	0.3
0.15	303.15	0.0999	1059.5	0.3
0.15	303.15	0.125	1060.18	0.3
0.15	303.15	0.1499	1060.85	0.3
0.15	303.15	0.175	1061.5	0.3
0.15	303.15	0.1999	1062.14	0.31
0.15	308.15	0	1054.84	0.31
0.15	308.15	0.0249	1055.57	0.31
0.15	308.15	0.0499	1056.28	0.31
0.15	308.15	0.0749	1056.98	0.31
0.15	308.15	0.0999	1057.67	0.32
0.15	308.15	0.125	1058.35	0.32
0.15	308.15	0.1499	1059.02	0.32
0.15	308.15	0.175	1059.67	0.32
0.15	308.15	0.1999	1060.31	0.32
0.15	313.15	0	1053.01	0.32
0.15	313.15	0.0249	1053.74	0.33
0.15	313.15	0.0499	1054.45	0.33
0.15	313.15	0.0749	1055.15	0.33
0.15	313.15	0.0999	1055.84	0.33
0.15	313.15	0.125	1056.52	0.33
0.15	313.15	0.1499	1057.18	0.33
0.15	313.15	0.175	1057.84	0.33
0.15	313.15	0.1999	1058.48	0.33
0.15	318.15	0	1051.2	0.34
0.15	318.15	0.0249	1051.92	0.34
0.15	318.15	0.0499	1052.64	0.34
0.15	318.15	0.0749	1053.34	0.34
0.15	318.15	0.0999	1054.03	0.34
0.15	318.15	0.125	1054.71	0.34
0.15	318.15	0.1499	1055.37	0.34
0.15	318.15	0.175	1056.03	0.34
0.15	318.15	0.1999	1056.67	0.34
0.2	293.15	0	1082.73	0.29
0.2	293.15	0.025	1083.38	0.29
0.2	293.15	0.0499	1084.01	0.29
0.2	293.15	0.075	1084.63	0.29
0.2	293.15	0.0999	1085.24	0.29
0.2	293.15	0.1249	1085.84	0.29
0.2	293.15	0.15	1086.43	0.29
0.2	293.15	0.1749	1087	0.29
0.2	293.15	0.2	1087.56	0.29
0.2	298.15	0	1080.77	0.3
0.2	298.15	0.025	1081.41	0.3
0.2	298.15	0.0499	1082.04	0.3
0.2	298.15	0.075	1082.66	0.3
0.2	298.15	0.0999	1083.27	0.3
0.2	298.15	0.1249	1083.87	0.3
0.2	298.15	0.15	1084.46	0.3
0.2	298.15	0.1749	1085.04	0.3
0.2	298.15	0.2	1085.6	0.3
0.2	303.15	0	1078.8	0.31
0.2	303.15	0.025	1079.44	0.31
0.2	303.15	0.0499	1080.07	0.31
0.2	303.15	0.075	1080.69	0.31
0.2	303.15	0.0999	1081.29	0.31
0.2	303.15	0.1249	1081.89	0.31
0.2	303.15	0.15	1082.48	0.31
0.2	303.15	0.1749	1083.06	0.31
0.2	303.15	0.2	1083.63	0.31
0.2	308.15	0	1076.84	0.32
0.2	308.15	0.025	1077.48	0.32
0.2	308.15	0.0499	1078.11	0.32
0.2	308.15	0.075	1078.72	0.32
0.2	308.15	0.0999	1079.33	0.32
0.2	308.15	0.1249	1079.93	0.32
0.2	308.15	0.15	1080.52	0.32
0.2	308.15	0.1749	1081.1	0.32
0.2	308.15	0.2	1081.67	0.32
0.2	313.15	0	1074.88	0.33
0.2	313.15	0.025	1075.52	0.33
0.2	313.15	0.0499	1076.14	0.33
0.2	313.15	0.075	1076.76	0.33
0.2	313.15	0.0999	1077.36	0.33
0.2	313.15	0.1249	1077.96	0.33
0.2	313.15	0.15	1078.55	0.33
0.2	313.15	0.1749	1079.13	0.33
0.2	313.15	0.2	1079.7	0.33
0.2	318.15	0	1072.93	0.34
0.2	318.15	0.025	1073.56	0.34
0.2	318.15	0.0499	1074.19	0.34
0.2	318.15	0.075	1074.8	0.34
0.2	318.15	0.0999	1075.41	0.34
0.2	318.15	0.1249	1076	0.34
0.2	318.15	0.15	1076.59	0.35
0.2	318.15	0.1749	1077.17	0.35
0.2	318.15	0.2	1077.74	0.35

System: D-sucrose + L-threonine + water; phases: Liquid
Fixed: Pressure, kPa = 101
Property: Speed of sound, m/s (Liquid); method: LVPAI:WF = 
Solvent: Mass fraction of D-sucrose	Temperature, K	Molality, mol/kg of L-threonine	Speed of sound, m/s	uncertainty
0	298.15	0	1496.9	1.6
0	298.15	0.0249	1501.1	1.6
0	298.15	0.0498	1505.5	1.6
0	298.15	0.0749	1510.2	1.6
0	298.15	0.0999	1515.2	1.6
0	298.15	0.125	1520.5	1.6
0	298.15	0.1499	1526.1	1.6
0	298.15	0.1749	1531.9	1.6
0	298.15	0.1999	1538.1	1.6
0	303.15	0	1508.4	1.6
0	303.15	0.0249	1512.5	1.6
0	303.15	0.0498	1516.9	1.6
0	303.15	0.0749	1521.6	1.6
0	303.15	0.0999	1526.5	1.6
0	303.15	0.125	1531.7	1.6
0	303.15	0.1499	1537.3	1.6
0	303.15	0.1749	1543.2	1.6
0	303.15	0.1999	1549.4	1.6
0	308.15	0	1519.8	1.6
0	308.15	0.0249	1523.8	1.6
0	308.15	0.0498	1528.1	1.6
0	308.15	0.0749	1532.7	1.6
0	308.15	0.0999	1537.5	1.6
0	308.15	0.125	1542.7	1.6
0	308.15	0.1499	1548.2	1.6
0	308.15	0.1749	1553.9	1.6
0	308.15	0.1999	1560.1	1.6
0	313.15	0	1526.8	1.6
0	313.15	0.0249	1530.7	1.6
0	313.15	0.0498	1534.9	1.6
0	313.15	0.0749	1539.4	1.6
0	313.15	0.0999	1544.1	1.6
0	313.15	0.125	1549.2	1.6
0	313.15	0.1499	1554.5	1.6
0	313.15	0.1749	1560.2	1.6
0	313.15	0.1999	1566.1	1.6
0	318.15	0	1533	1.6
0	318.15	0.0249	1536.8	1.6
0	318.15	0.0498	1540.9	1.6
0	318.15	0.0749	1545.2	1.6
0	318.15	0.0999	1549.8	1.6
0	318.15	0.125	1554.8	1.6
0	318.15	0.1499	1560	1.6
0	318.15	0.1749	1565.5	1.6
0	318.15	0.1999	1571.3	1.6
0.05	298.15	0	1516.5	1.6
0.05	298.15	0.0249	1520.7	1.6
0.05	298.15	0.0498	1525.1	1.6
0.05	298.15	0.0749	1529.8	1.6
0.05	298.15	0.0999	1534.8	1.6
0.05	298.15	0.125	1540.1	1.6
0.05	298.15	0.1499	1545.7	1.6
0.05	298.15	0.1749	1551.5	1.6
0.05	298.15	0.1999	1557.7	1.6
0.05	303.15	0	1526.6	1.6
0.05	303.15	0.0249	1530.7	1.6
0.05	303.15	0.0498	1535.1	1.6
0.05	303.15	0.0749	1539.8	1.6
0.05	303.15	0.0999	1544.7	1.6
0.05	303.15	0.125	1549.9	1.6
0.05	303.15	0.1499	1555.5	1.6
0.05	303.15	0.1749	1561.4	1.6
0.05	303.15	0.1999	1567.6	1.6
0.05	308.15	0	1537.8	1.6
0.05	308.15	0.0249	1541.8	1.6
0.05	308.15	0.0498	1546.1	1.6
0.05	308.15	0.0749	1550.7	1.6
0.05	308.15	0.0999	1555.5	1.6
0.05	308.15	0.125	1560.7	1.6
0.05	308.15	0.1499	1566.2	1.6
0.05	308.15	0.1749	1572	1.6
0.05	308.15	0.1999	1578.2	1.7
0.05	313.15	0	1547.7	1.6
0.05	313.15	0.0249	1551.6	1.6
0.05	313.15	0.0498	1555.9	1.6
0.05	313.15	0.0749	1560.3	1.6
0.05	313.15	0.0999	1565.1	1.6
0.05	313.15	0.125	1570.2	1.6
0.05	313.15	0.1499	1575.6	1.7
0.05	313.15	0.1749	1581.3	1.7
0.05	313.15	0.1999	1587.2	1.7
0.05	318.15	0	1557.2	1.6
0.05	318.15	0.0249	1561.1	1.6
0.05	318.15	0.0498	1565.2	1.6
0.05	318.15	0.0749	1569.6	1.6
0.05	318.15	0.0999	1574.3	1.6
0.05	318.15	0.125	1579.2	1.7
0.05	318.15	0.1499	1584.5	1.7
0.05	318.15	0.1749	1590.1	1.7
0.05	318.15	0.1999	1596	1.7
0.1	298.15	0	1531.8	1.6
0.1	298.15	0.0249	1536	1.6
0.1	298.15	0.0498	1540.4	1.6
0.1	298.15	0.0749	1545.1	1.6
0.1	298.15	0.0999	1550.1	1.6
0.1	298.15	0.125	1555.4	1.6
0.1	298.15	0.1499	1561	1.6
0.1	298.15	0.1749	1566.8	1.6
0.1	298.15	0.1999	1573	1.6
0.1	303.15	0	1541.8	1.6
0.1	303.15	0.0249	1545.9	1.6
0.1	303.15	0.0498	1550.3	1.6
0.1	303.15	0.0749	1555	1.6
0.1	303.15	0.0999	1559.9	1.6
0.1	303.15	0.125	1565.1	1.6
0.1	303.15	0.1499	1570.7	1.6
0.1	303.15	0.1749	1576.6	1.7
0.1	303.15	0.1999	1582.8	1.7
0.1	308.15	0	1551.6	1.6
0.1	308.15	0.0249	1555.6	1.6
0.1	308.15	0.0498	1559.9	1.6
0.1	308.15	0.0749	1564.5	1.6
0.1	308.15	0.0999	1569.3	1.6
0.1	308.15	0.125	1574.5	1.7
0.1	308.15	0.1499	1580	1.7
0.1	308.15	0.1749	1585.8	1.7
0.1	308.15	0.1999	1592	1.7
0.1	313.15	0	1561.8	1.6
0.1	313.15	0.0249	1565.8	1.6
0.1	313.15	0.0498	1570	1.6
0.1	313.15	0.0749	1574.5	1.7
0.1	313.15	0.0999	1579.3	1.7
0.1	313.15	0.125	1584.3	1.7
0.1	313.15	0.1499	1589.7	1.7
0.1	313.15	0.1749	1595.4	1.7
0.1	313.15	0.1999	1601.4	1.7
0.1	318.15	0	1570.9	1.6
0.1	318.15	0.0249	1574.8	1.7
0.1	318.15	0.0498	1579	1.7
0.1	318.15	0.0749	1583.4	1.7
0.1	318.15	0.0999	1588.1	1.7
0.1	318.15	0.125	1593	1.7
0.1	318.15	0.1499	1598.2	1.7
0.1	318.15	0.1749	1603.8	1.7
0.1	318.15	0.1999	1609.7	1.7
0.15	298.15	0	1543.6	1.6
0.15	298.15	0.0249	1547.8	1.6
0.15	298.15	0.0498	1552.2	1.6
0.15	298.15	0.0749	1556.9	1.6
0.15	298.15	0.0999	1561.9	1.6
0.15	298.15	0.125	1567.2	1.6
0.15	298.15	0.1499	1572.8	1.6
0.15	298.15	0.1749	1578.6	1.7
0.15	298.15	0.1999	1584.8	1.7
0.15	303.15	0	1553	1.6
0.15	303.15	0.0249	1557.1	1.6
0.15	303.15	0.0498	1561.5	1.6
0.15	303.15	0.0749	1566.2	1.6
0.15	303.15	0.0999	1571.1	1.6
0.15	303.15	0.125	1576.3	1.7
0.15	303.15	0.1499	1581.9	1.7
0.15	303.15	0.1749	1587.8	1.7
0.15	303.15	0.1999	1594	1.7
0.15	308.15	0	1562	1.6
0.15	308.15	0.0249	1566	1.6
0.15	308.15	0.0498	1570.3	1.6
0.15	308.15	0.0749	1574.9	1.7
0.15	308.15	0.0999	1579.8	1.7
0.15	308.15	0.125	1585	1.7
0.15	308.15	0.1499	1590.5	1.7
0.15	308.15	0.1749	1596.3	1.7
0.15	308.15	0.1999	1602.5	1.7
0.15	313.15	0	1570.8	1.6
0.15	313.15	0.0249	1574.8	1.7
0.15	313.15	0.0498	1579	1.7
0.15	313.15	0.0749	1583.5	1.7
0.15	313.15	0.0999	1588.2	1.7
0.15	313.15	0.125	1593.3	1.7
0.15	313.15	0.1499	1598.7	1.7
0.15	313.15	0.1749	1604.4	1.7
0.15	313.15	0.1999	1610.4	1.7
0.15	318.15	0	1579.2	1.7
0.15	318.15	0.0249	1583.1	1.7
0.15	318.15	0.0498	1587.2	1.7
0.15	318.15	0.0749	1591.6	1.7
0.15	318.15	0.0999	1596.3	1.7
0.15	318.15	0.125	1601.3	1.7
0.15	318.15	0.1499	1606.6	1.7
0.15	318.15	0.1749	1612.1	1.7
0.15	318.15	0.1999	1618	1.7
0.2	298.15	0	1555.3	1.6
0.2	298.15	0.0249	1559.5	1.6
0.2	298.15	0.0498	1563.9	1.6
0.2	298.15	0.0749	1568.6	1.6
0.2	298.15	0.0999	1573.6	1.7
0.2	298.15	0.125	1578.9	1.7
0.2	298.15	0.1499	1584.5	1.7
0.2	298.15	0.1749	1590.3	1.7
0.2	298.15	0.1999	1596.5	1.7
0.2	303.15	0	1564.6	1.6
0.2	303.15	0.0249	1568.7	1.6
0.2	303.15	0.0498	1573.1	1.6
0.2	303.15	0.0749	1577.8	1.7
0.2	303.15	0.0999	1582.7	1.7
0.2	303.15	0.125	1587.9	1.7
0.2	303.15	0.1499	1593.5	1.7
0.2	303.15	0.1749	1599.4	1.7
0.2	303.15	0.1999	1605.6	1.7
0.2	308.15	0	1575.2	1.7
0.2	308.15	0.0249	1579.2	1.7
0.2	308.15	0.0498	1583.5	1.7
0.2	308.15	0.0749	1588.1	1.7
0.2	308.15	0.0999	1593	1.7
0.2	308.15	0.125	1598.2	1.7
0.2	308.15	0.1499	1603.7	1.7
0.2	308.15	0.1749	1609.5	1.7
0.2	308.15	0.1999	1615.7	1.7
0.2	313.15	0	1583.9	1.7
0.2	313.15	0.0249	1587.9	1.7
0.2	313.15	0.0498	1592.1	1.7
0.2	313.15	0.0749	1596.6	1.7
0.2	313.15	0.0999	1601.4	1.7
0.2	313.15	0.125	1606.5	1.7
0.2	313.15	0.1499	1611.9	1.7
0.2	313.15	0.1749	1617.6	1.7
0.2	313.15	0.1999	1623.6	1.7
0.2	318.15	0	1592.8	1.7
0.2	318.15	0.0249	1596.7	1.7
0.2	318.15	0.0498	1600.9	1.7
0.2	318.15	0.0749	1605.3	1.7
0.2	318.15	0.0999	1610	1.7
0.2	318.15	0.125	1615	1.7
0.2	318.15	0.1499	1620.3	1.7
0.2	318.15	0.1749	1625.9	1.7
0.2	318.15	0.1999	1631.8	1.7

System: D-sucrose + L-threonine + water; phases: Liquid
Fixed: Pressure, kPa = 101
Property: Viscosity, Pa*s (Liquid); method: Capillary tube (Ostwald; Ubbelohde) method
Solvent: Mass fraction of D-sucrose	Temperature, K	Molality, mol/kg of L-threonine	Viscosity, Pa*s	uncertainty
0.05	298.15	0	0.001011	2.11e-05
0.05	298.15	0.0249	0.0010272	2.14e-05
0.05	298.15	0.0498	0.0010436	2.18e-05
0.05	298.15	0.0749	0.0010602	2.21e-05
0.05	298.15	0.0999	0.0010765	2.24e-05
0.05	298.15	0.125	0.0010919	2.28e-05
0.05	298.15	0.1499	0.001109	2.31e-05
0.05	298.15	0.1749	0.0011235	2.34e-05
0.05	298.15	0.1999	0.001139	2.37e-05
0.05	303.15	0	0.0009129	1.91e-05
0.05	303.15	0.0249	0.0009299	1.94e-05
0.05	303.15	0.0498	0.0009461	1.97e-05
0.05	303.15	0.0749	0.0009625	2.01e-05
0.05	303.15	0.0999	0.0009786	2.04e-05
0.05	303.15	0.125	0.0009954	2.08e-05
0.05	303.15	0.1499	0.0010125	2.11e-05
0.05	303.15	0.1749	0.0010284	2.14e-05
0.05	303.15	0.1999	0.0010436	2.18e-05
0.05	308.15	0	0.0008285	1.73e-05
0.05	308.15	0.0249	0.0008463	1.77e-05
0.05	308.15	0.0498	0.0008633	1.8e-05
0.05	308.15	0.0749	0.0008805	1.84e-05
0.05	308.15	0.0999	0.0008974	1.87e-05
0.05	308.15	0.125	0.0009146	1.91e-05
0.05	308.15	0.1499	0.0009321	1.95e-05
0.05	308.15	0.1749	0.0009493	1.98e-05
0.05	308.15	0.1999	0.0009648	2.01e-05
0.05	313.15	0	0.0007457	1.56e-05
0.05	313.15	0.0249	0.0007633	1.6e-05
0.05	313.15	0.0498	0.0007801	1.63e-05
0.05	313.15	0.0749	0.0007968	1.67e-05
0.05	313.15	0.0999	0.0008138	1.7e-05
0.05	313.15	0.125	0.0008308	1.74e-05
0.05	313.15	0.1499	0.0008471	1.77e-05
0.05	313.15	0.1749	0.0008638	1.8e-05
0.05	313.15	0.1999	0.0008804	1.84e-05
0.05	318.15	0	0.0006946	1.46e-05
0.05	318.15	0.0249	0.000712	1.49e-05
0.05	318.15	0.0498	0.0007286	1.53e-05
0.05	318.15	0.0749	0.0007451	1.56e-05
0.05	318.15	0.0999	0.0007619	1.59e-05
0.05	318.15	0.125	0.0007787	1.63e-05
0.05	318.15	0.1499	0.0007948	1.66e-05
0.05	318.15	0.1749	0.0008113	1.7e-05
0.05	318.15	0.1999	0.0008287	1.73e-05
0.1	298.15	0	0.0011832	2.47e-05
0.1	298.15	0.0249	0.0012072	2.51e-05
0.1	298.15	0.0498	0.0012313	2.56e-05
0.1	298.15	0.0749	0.0012537	2.61e-05
0.1	298.15	0.0999	0.0012775	2.66e-05
0.1	298.15	0.125	0.0013007	2.71e-05
0.1	298.15	0.1499	0.0013241	2.76e-05
0.1	298.15	0.1749	0.0013476	2.8e-05
0.1	298.15	0.1999	0.0013708	2.85e-05
0.1	303.15	0	0.0010606	2.21e-05
0.1	303.15	0.0249	0.0010844	2.26e-05
0.1	303.15	0.0498	0.0011083	2.31e-05
0.1	303.15	0.0749	0.0011305	2.36e-05
0.1	303.15	0.0999	0.0011541	2.4e-05
0.1	303.15	0.125	0.0011771	2.45e-05
0.1	303.15	0.1499	0.0012003	2.5e-05
0.1	303.15	0.1749	0.0012236	2.55e-05
0.1	303.15	0.1999	0.0012466	2.6e-05
0.1	308.15	0	0.0009614	2.01e-05
0.1	308.15	0.0249	0.000985	2.06e-05
0.1	308.15	0.0498	0.0010087	2.1e-05
0.1	308.15	0.0749	0.0010307	2.15e-05
0.1	308.15	0.0999	0.0010541	2.2e-05
0.1	308.15	0.125	0.0010769	2.25e-05
0.1	308.15	0.1499	0.0010999	2.29e-05
0.1	308.15	0.1749	0.001123	2.34e-05
0.1	308.15	0.1999	0.0011458	2.39e-05
0.1	313.15	0	0.0008804	1.84e-05
0.1	313.15	0.0249	0.0009038	1.89e-05
0.1	313.15	0.0498	0.0009273	1.94e-05
0.1	313.15	0.0749	0.0009491	1.98e-05
0.1	313.15	0.0999	0.0009726	2.03e-05
0.1	313.15	0.125	0.0009945	2.07e-05
0.1	313.15	0.1499	0.0010176	2.12e-05
0.1	313.15	0.1749	0.0010408	2.17e-05
0.1	313.15	0.1999	0.0010637	2.22e-05
0.1	318.15	0	0.0008179	1.71e-05
0.1	318.15	0.0249	0.0008411	1.76e-05
0.1	318.15	0.0498	0.0008644	1.81e-05
0.1	318.15	0.0749	0.000886	1.85e-05
0.1	318.15	0.0999	0.000909	1.9e-05
0.1	318.15	0.125	0.0009314	1.94e-05
0.1	318.15	0.1499	0.0009552	1.99e-05
0.1	318.15	0.1749	0.0009776	2.04e-05
0.1	318.15	0.1999	0.0009997	2.09e-05
0.15	298.15	0	0.0014184	2.95e-05
0.15	298.15	0.0249	0.0014497	3.02e-05
0.15	298.15	0.0498	0.0014808	3.08e-05
0.15	298.15	0.0749	0.0015117	3.15e-05
0.15	298.15	0.0999	0.0015424	3.21e-05
0.15	298.15	0.125	0.0015729	3.27e-05
0.15	298.15	0.1499	0.0016032	3.33e-05
0.15	298.15	0.1749	0.0016333	3.4e-05
0.15	298.15	0.1999	0.0016662	3.47e-05
0.15	303.15	0	0.0012523	2.61e-05
0.15	303.15	0.0249	0.0012833	2.67e-05
0.15	303.15	0.0498	0.0013141	2.74e-05
0.15	303.15	0.0749	0.0013447	2.8e-05
0.15	303.15	0.0999	0.0013751	2.86e-05
0.15	303.15	0.125	0.0014053	2.93e-05
0.15	303.15	0.1499	0.0014353	2.99e-05
0.15	303.15	0.1749	0.0014651	3.05e-05
0.15	303.15	0.1999	0.0014957	3.11e-05
0.15	308.15	0	0.0011291	2.35e-05
0.15	308.15	0.0249	0.0011599	2.42e-05
0.15	308.15	0.0498	0.0011905	2.48e-05
0.15	308.15	0.0749	0.0012209	2.54e-05
0.15	308.15	0.0999	0.0012511	2.61e-05
0.15	308.15	0.125	0.0012811	2.67e-05
0.15	308.15	0.1499	0.0013109	2.73e-05
0.15	308.15	0.1749	0.0013405	2.79e-05
0.15	308.15	0.1999	0.0013696	2.85e-05
0.15	313.15	0	0.001025	2.14e-05
0.15	313.15	0.0249	0.0010555	2.2e-05
0.15	313.15	0.0498	0.001085	2.26e-05
0.15	313.15	0.0749	0.0011152	2.33e-05
0.15	313.15	0.0999	0.0011452	2.39e-05
0.15	313.15	0.125	0.001174	2.45e-05
0.15	313.15	0.1499	0.001205	2.51e-05
0.15	313.15	0.1749	0.0012328	2.57e-05
0.15	313.15	0.1999	0.0012635	2.63e-05
0.15	318.15	0	0.0009402	1.96e-05
0.15	318.15	0.0249	0.0009695	2.02e-05
0.15	318.15	0.0498	0.0009996	2.09e-05
0.15	318.15	0.0749	0.0010295	2.15e-05
0.15	318.15	0.0999	0.0010582	2.21e-05
0.15	318.15	0.125	0.0010877	2.27e-05
0.15	318.15	0.1499	0.001116	2.33e-05
0.15	318.15	0.1749	0.0011451	2.39e-05
0.15	318.15	0.1999	0.0011736	2.45e-05
0.2	298.15	0	0.0017558	3.65e-05
0.2	298.15	0.0249	0.0017971	3.74e-05
0.2	298.15	0.0498	0.001838	3.82e-05
0.2	298.15	0.0749	0.0018778	3.9e-05
0.2	298.15	0.0999	0.0019185	3.99e-05
0.2	298.15	0.125	0.0019597	4.07e-05
0.2	298.15	0.1499	0.0019995	4.15e-05
0.2	298.15	0.1749	0.0020418	4.24e-05
0.2	298.15	0.1999	0.0020795	4.32e-05
0.2	303.15	0	0.0015489	3.22e-05
0.2	303.15	0.0249	0.001589	3.31e-05
0.2	303.15	0.0498	0.0016297	3.39e-05
0.2	303.15	0.0749	0.0016703	3.47e-05
0.2	303.15	0.0999	0.0017088	3.55e-05
0.2	303.15	0.125	0.0017478	3.63e-05
0.2	303.15	0.1499	0.0017864	3.71e-05
0.2	303.15	0.1749	0.0018275	3.8e-05
0.2	303.15	0.1999	0.0018655	3.88e-05
0.2	308.15	0	0.0013963	2.91e-05
0.2	308.15	0.0249	0.0014352	2.99e-05
0.2	308.15	0.0498	0.0014749	3.07e-05
0.2	308.15	0.0749	0.0015136	3.15e-05
0.2	308.15	0.0999	0.0015526	3.23e-05
0.2	308.15	0.125	0.0015899	3.31e-05
0.2	308.15	0.1499	0.0016294	3.39e-05
0.2	308.15	0.1749	0.0016691	3.47e-05
0.2	308.15	0.1999	0.0017057	3.55e-05
0.2	313.15	0	0.0012495	2.6e-05
0.2	313.15	0.0249	0.0012872	2.68e-05
0.2	313.15	0.0498	0.0013257	2.76e-05
0.2	313.15	0.0749	0.0013632	2.84e-05
0.2	313.15	0.0999	0.001401	2.92e-05
0.2	313.15	0.125	0.0014392	3e-05
0.2	313.15	0.1499	0.0014754	3.07e-05
0.2	313.15	0.1749	0.0015139	3.15e-05
0.2	313.15	0.1999	0.0015502	3.23e-05
0.2	318.15	0	0.00115	2.4e-05
0.2	318.15	0.0249	0.0011865	2.47e-05
0.2	318.15	0.0498	0.001225	2.55e-05
0.2	318.15	0.0749	0.0012633	2.63e-05
0.2	318.15	0.0999	0.0013005	2.71e-05
0.2	318.15	0.125	0.0013373	2.78e-05
0.2	318.15	0.1499	0.0013747	2.86e-05
0.2	318.15	0.1749	0.0014124	2.94e-05
0.2	318.15	0.1999	0.0014464	3.01e-05

System: D-sucrose + water; phases: Liquid
Fixed: Pressure, kPa = 101
Property: Mass density, kg/m3 (Liquid); method: Pycnometric method
Mass fraction of D-sucrose	Temperature, K	Mass density, kg/m3	uncertainty
0.05	293.15	1018.91	0.27
0.05	298.15	1017.19	0.28
0.05	303.15	1015.45	0.29
0.05	308.15	1013.72	0.3
0.05	313.15	1011.98	0.31
0.05	318.15	1010.23	0.32
0.1	293.15	1039.28	0.27
0.1	298.15	1037.45	0.28
0.1	303.15	1035.61	0.3
0.1	308.15	1033.76	0.31
0.1	313.15	1031.93	0.32
0.1	318.15	1030.09	0.33
0.15	293.15	1060.31	0.28
0.15	298.15	1058.49	0.29
0.15	303.15	1056.67	0.3
0.15	308.15	1054.84	0.31
0.15	313.15	1053.01	0.32
0.15	318.15	1051.2	0.34
0.2	293.15	1082.73	0.29
0.2	298.15	1080.77	0.3
0.2	303.15	1078.8	0.31
0.2	308.15	1076.84	0.32
0.2	313.15	1074.88	0.33
0.2	318.15	1072.93	0.34

System: D-sucrose + water; phases: Liquid
Fixed: Pressure, kPa = 101
Property: Speed of sound, m/s (Liquid); method: LVPAI:WF = 
Mass fraction of D-sucrose	Temperature, K	Speed of sound, m/s	uncertainty
0.05	298.15	1516.5	1.6
0.05	303.15	1526.6	1.6
0.05	308.15	1537.8	1.6
0.05	313.15	1547.7	1.6
0.05	318.15	1557.2	1.6
0.1	298.15	1531.8	1.6
0.1	303.15	1541.8	1.6
0.1	308.15	1551.6	1.6
0.1	313.15	1561.8	1.6
0.1	318.15	1570.9	1.6
0.15	298.15	1543.6	1.6
0.15	303.15	1553	1.6
0.15	308.15	1562	1.6
0.15	313.15	1570.8	1.6
0.15	318.15	1579.2	1.7
0.2	298.15	1555.3	1.6
0.2	303.15	1564.6	1.6
0.2	308.15	1575.2	1.7
0.2	313.15	1583.9	1.7
0.2	318.15	1592.8	1.7

System: D-sucrose + water; phases: Liquid
Fixed: Pressure, kPa = 101
Property: Viscosity, Pa*s (Liquid); method: Capillary tube (Ostwald; Ubbelohde) method
Mass fraction of D-sucrose	Temperature, K	Viscosity, Pa*s	uncertainty
0.05	298.15	0.001011	2.11e-05
0.05	303.15	0.0009129	1.91e-05
0.05	308.15	0.0008285	1.73e-05
0.05	313.15	0.0007457	1.56e-05
0.05	318.15	0.0006946	1.46e-05
0.1	298.15	0.0011832	2.47e-05
0.1	303.15	0.0010606	2.21e-05
0.1	308.15	0.0009614	2.01e-05
0.1	313.15	0.0008804	1.84e-05
0.1	318.15	0.0008179	1.71e-05
0.15	298.15	0.0014184	2.95e-05
0.15	303.15	0.0012523	2.61e-05
0.15	308.15	0.0011291	2.35e-05
0.15	313.15	0.001025	2.14e-05
0.15	318.15	0.0009402	1.96e-05
0.2	298.15	0.0017558	3.65e-05
0.2	303.15	0.0015489	3.22e-05
0.2	308.15	0.0013963	2.91e-05
0.2	313.15	0.0012495	2.6e-05
0.2	318.15	0.00115	2.4e-05

System: L-threonine + water; phases: Liquid
Fixed: Pressure, kPa = 101
Property: Speed of sound, m/s (Liquid); method: LVPAI:WF = 
Temperature, K	Molality, mol/kg of L-threonine	Speed of sound, m/s	uncertainty
298.15	0.0249	1501.1	1.6
298.15	0.0498	1505.5	1.6
298.15	0.0749	1510.2	1.6
298.15	0.0999	1515.2	1.6
298.15	0.125	1520.5	1.6
298.15	0.1499	1526.1	1.6
298.15	0.1749	1531.9	1.6
298.15	0.1999	1538.1	1.6
303.15	0.0249	1512.5	1.6
303.15	0.0498	1516.9	1.6
303.15	0.0749	1521.6	1.6
303.15	0.0999	1526.5	1.6
303.15	0.125	1531.7	1.6
303.15	0.1499	1537.3	1.6
303.15	0.1749	1543.2	1.6
303.15	0.1999	1549.4	1.6
308.15	0.0249	1523.8	1.6
308.15	0.0498	1528.1	1.6
308.15	0.0749	1532.7	1.6
308.15	0.0999	1537.5	1.6
308.15	0.125	1542.7	1.6
308.15	0.1499	1548.2	1.6
308.15	0.1749	1553.9	1.6
308.15	0.1999	1560.1	1.6
313.15	0.0249	1530.7	1.6
313.15	0.0498	1534.9	1.6
313.15	0.0749	1539.4	1.6
313.15	0.0999	1544.1	1.6
313.15	0.125	1549.2	1.6
313.15	0.1499	1554.5	1.6
313.15	0.1749	1560.2	1.6
313.15	0.1999	1566.1	1.6
318.15	0.0249	1536.8	1.6
318.15	0.0498	1540.9	1.6
318.15	0.0749	1545.2	1.6
318.15	0.0999	1549.8	1.6
318.15	0.125	1554.8	1.6
318.15	0.1499	1560	1.6
318.15	0.1749	1565.5	1.6
318.15	0.1999	1571.3	1.6
