Measured thermophysical data. Standard molar enthalpies of formation of some vinylfuran derivatives
Source: J. Chem. Thermodyn., 2009, 10.1016/j.jct.2008.09.013
Compound 1: carbon dioxide, CO2, InChI=1S/CO2/c2-1-3
Compound 2: water, H2O, InChI=1S/H2O/h1H2
Compound 3: oxygen, O2, InChI=1S/O2/c1-2
Compound 4: nitrogen, N2, InChI=1S/N2/c1-2
Compound 5: 2-furanacrylic acid, C7H6O3, InChI=1S/C7H6O3/c8-7(9)4-3-6-2-1-5-10-6/h1-5H,(H,8,9)/b4-3+, purity 99%
Compound 6: 3-furanacrylic acid, C7H6O3, InChI=1S/C7H6O3/c8-7(9)2-1-6-3-4-10-5-6/h1-5H,(H,8,9)/b2-1+, purity 97%
Compound 7: 3-(2-furyl)-2-propenal, C7H6O2, InChI=1S/C7H6O2/c8-5-1-3-7-4-2-6-9-7/h1-6H, purity 99%
Compound 8: 2-furanacrylonitrile, C7H5NO, InChI=1S/C7H5NO/c8-5-1-3-7-4-2-6-9-7/h1-4,6H/b3-1+, purity 97%

System: 2-furanacrylic acid; phases: Crystal, Gas
Property: Molar enthalpy of vaporization or sublimation, kJ/mol (Crystal); method: Calvet calorimetry
Temperature, K	Molar enthalpy of vaporization or sublimation, kJ/mol	uncertainty
298.15	103	1.3

System: 2-furanacrylic acid; phases: Crystal, Gas
Property: Vapor or sublimation pressure, kPa (Crystal); method: Calculated from knudsen effusion weight loss
Temperature, K	Vapor or sublimation pressure, kPa	uncertainty
322.163	0.0001704	8.5e-06
322.163	0.0001624	8.1e-06
322.163	0.0001637	8.2e-06
324.154	0.0002113	1.06e-05
324.154	0.0002065	1.03e-05
324.154	0.0002115	1.06e-05
326.178	0.0002657	1.33e-05
326.178	0.0002598	1.3e-05
326.178	0.0002634	1.32e-05
328.159	0.0003395	1.7e-05
328.159	0.0003314	1.66e-05
328.159	0.0003454	1.73e-05
330.151	0.00042	2.1e-05
330.151	0.0004124	2.06e-05
330.151	0.0004226	2.11e-05
332.147	0.0005293	2.65e-05
332.147	0.0005155	2.58e-05
332.147	0.0005188	2.6e-05
334.158	0.0006667	3.33e-05
334.158	0.0006473	3.24e-05
334.158	0.0006452	3.23e-05
336.149	0.000812	4.06e-05
336.149	0.0007902	3.95e-05
336.149	0.0008063	4.03e-05
338.172	0.0010126	0.0001015
338.172	0.0009884	4.94e-05
338.172	0.0009989	5e-05

System: 2-furanacrylic acid; phases: Gas
Property: Molar enthalpy, kJ/mol (Gas); method: Calvet microcalorimetry
Temperature, K	Pressure, kPa	Molar enthalpy, kJ/mol	uncertainty
395.9	100	118	1.3

System: 3-furanacrylic acid; phases: Crystal, Gas
Property: Molar enthalpy of vaporization or sublimation, kJ/mol (Crystal); method: Calvet microcalorimetry
Temperature, K	Molar enthalpy of vaporization or sublimation, kJ/mol	uncertainty
298.15	104.9	2

System: 3-furanacrylic acid; phases: Crystal, Gas
Property: Vapor or sublimation pressure, kPa (Crystal); method: Calculated from knudsen effusion weight loss
Temperature, K	Vapor or sublimation pressure, kPa	uncertainty
327.17	0.0001554	7.8e-06
327.17	0.0001507	7.5e-06
327.17	0.0001515	7.6e-06
329.164	0.0001875	9.4e-06
329.164	0.0001908	9.6e-06
329.164	0.0001895	9.5e-06
331.142	0.0002392	1.2e-05
331.142	0.0002381	1.19e-05
331.142	0.0002397	1.2e-05
333.147	0.0003095	1.55e-05
333.147	0.0002986	1.49e-05
333.147	0.000303	1.5e-05
335.168	0.0003826	1.91e-05
335.168	0.0003761	1.88e-05
335.168	0.0003753	1.88e-05
337.15	0.0004813	2.41e-05
337.15	0.0004564	2.28e-05
337.15	0.0004685	2.34e-05
339.16	0.0005935	2.97e-05
339.16	0.0005828	2.92e-05
339.16	0.0005874	2.94e-05
341.15	0.0007353	3.68e-05
341.15	0.0007199	3.6e-05
341.15	0.0007251	3.63e-05
343.15	0.0009452	4.73e-05
343.15	0.0009138	4.57e-05
343.15	0.0009203	4.6e-05

System: 3-furanacrylic acid; phases: Gas
Property: Molar enthalpy, kJ/mol (Gas); method: Calvet microcalorimetry
Temperature, K	Pressure, kPa	Molar enthalpy, kJ/mol	uncertainty
395.9	100	119.9	2

System: 3-(2-furyl)-2-propenal; phases: Crystal, Gas
Property: Molar enthalpy of vaporization or sublimation, kJ/mol (Crystal); method: Calvet microcalorimetry
Temperature, K	Molar enthalpy of vaporization or sublimation, kJ/mol	uncertainty
298.15	82.3	0.8

System: 3-(2-furyl)-2-propenal; phases: Gas
Property: Molar enthalpy, kJ/mol (Gas); method: Calvet microcalorimetry
Temperature, K	Pressure, kPa	Molar enthalpy, kJ/mol	uncertainty
324	100	85.8	0.8

System: 2-furanacrylonitrile; phases: Liquid, Gas
Property: Molar enthalpy of vaporization or sublimation, kJ/mol (Liquid); method: Calvet microcalorimetry
Temperature, K	Molar enthalpy of vaporization or sublimation, kJ/mol	uncertainty
298.15	65.2	1.2

System: 2-furanacrylonitrile; phases: Gas
Property: Molar enthalpy, kJ/mol (Gas); method: Calvet microcalorimetry
Temperature, K	Pressure, kPa	Molar enthalpy, kJ/mol	uncertainty
365	100	69.8	1.17

Reaction: -1 2-furanacrylic acid + 7 carbon dioxide + 3 water + -7 oxygen
Property: Specific internal energy of reaction at constant volume, J/g
-22804.6

Reaction: -1 3-furanacrylic acid + 7 carbon dioxide + 3 water + -7 oxygen
Property: Specific internal energy of reaction at constant volume, J/g
-22816.8

Reaction: -1 3-(2-furyl)-2-propenal + 7 carbon dioxide + 3 water + -7.5 oxygen
Property: Specific internal energy of reaction at constant volume, J/g
-28041.3

Reaction: -1 2-furanacrylonitrile + 7 carbon dioxide + .5 nitrogen + 2.5 water + -7.75 oxygen
Property: Specific internal energy of reaction at constant volume, J/g
-29889.9
