Measured thermophysical data. Isobaric (vapour + liquid) equilibria for sulfolane with toluene, ethylbenzene, and isopropylbenzene at 101.33 kPa
Source: J. Chem. Thermodyn., 2011, 10.1016/j.jct.2011.06.015
Compound 1: toluene, C7H8, InChI=1S/C7H8/c1-7-5-3-2-4-6-7/h2-6H,1H3, purity 99%
Compound 2: ethylbenzene, C8H10, InChI=1S/C8H10/c1-2-8-6-4-3-5-7-8/h3-7H,2H2,1H3, purity 99%
Compound 3: isopropylbenzene, C9H12, InChI=1S/C9H12/c1-8(2)9-6-4-3-5-7-9/h3-8H,1-2H3, purity 99%
Compound 4: sulfolane, C4H8O2S, InChI=1S/C4H8O2S/c5-7(6)3-1-2-4-7/h1-4H2, purity 99%

System: toluene; phases: Liquid, Gas
Property: Boiling temperature at pressure P, K (Liquid); method: Ebulliometric method (Recirculating still)
Pressure, kPa	Boiling temperature at pressure P, K	uncertainty
101.33	383.95	0.05

System: ethylbenzene; phases: Liquid, Gas
Property: Boiling temperature at pressure P, K (Liquid); method: Ebulliometric method (Recirculating still)
Pressure, kPa	Boiling temperature at pressure P, K	uncertainty
101.33	409.35	0.05

System: isopropylbenzene; phases: Liquid, Gas
Property: Boiling temperature at pressure P, K (Liquid); method: Ebulliometric method (Recirculating still)
Pressure, kPa	Boiling temperature at pressure P, K	uncertainty
101.33	425.55	0.05

System: sulfolane; phases: Liquid, Gas
Property: Boiling temperature at pressure P, K (Liquid); method: Ebulliometric method (Recirculating still)
Pressure, kPa	Boiling temperature at pressure P, K	uncertainty
101.33	560.48	0.05

System: toluene + sulfolane; phases: Liquid, Gas
Fixed: Pressure, kPa = 101.33
Property: Boiling temperature at pressure P, K (Liquid); method: Ebulliometric method (Recirculating still)
Mole fraction of toluene	Boiling temperature at pressure P, K	uncertainty
0.1474	420.16	0.81
0.2409	401.27	0.61
0.3136	395.63	0.29
0.3725	392.47	0.14
0.5039	390.35	0.12
0.5705	389.4	0.1
0.8246	388.04	0.14
0.8791	386.65	0.13
0.9384	385.62	0.12

System: toluene + sulfolane; phases: Gas, Liquid
Fixed: Pressure, kPa = 101.33
Property: Mole fraction of toluene (Gas); method: Chromatography
Mole fraction of toluene	Mole fraction of toluene	uncertainty
0.1474	0.9884	0.0116
0.2409	0.9969	0.0031
0.3136	0.9975	0.0025
0.3725	0.9983	0.0017
0.5039	0.9987	0.0013
0.5705	0.9989	0.0011
0.8246	0.9994	0.0006
0.8791	0.9995	0.0005
0.9384	0.9996	0.0004

System: ethylbenzene + sulfolane; phases: Liquid, Gas
Fixed: Pressure, kPa = 101.33
Property: Boiling temperature at pressure P, K (Liquid); method: Ebulliometric method (Recirculating still)
Mole fraction of ethylbenzene	Boiling temperature at pressure P, K	uncertainty
0.0337	492.15	2.78
0.0613	473	8
0.066	463.6	8
0.0949	456.6	0.86
0.1462	446.35	0.8
0.2184	432.07	0.41
0.3436	425.5	0.22
0.4788	419.05	0.19
0.5405	417.75	0.12
0.6459	415.95	0.12
0.7983	413.39	0.12
0.8958	411.69	0.12

System: ethylbenzene + sulfolane; phases: Gas, Liquid
Fixed: Pressure, kPa = 101.33
Property: Mole fraction of ethylbenzene (Gas); method: Chromatography
Mole fraction of ethylbenzene	Mole fraction of ethylbenzene	uncertainty
0.0337	0.8111	0.0427
0.0613	0.912	0.0427
0.066	0.9296	0.0427
0.0949	0.9531	0.0401
0.1462	0.9698	0.0302
0.2184	0.9823	0.0177
0.3436	0.9857	0.0143
0.4788	0.9899	0.0101
0.5405	0.9909	0.0091
0.6459	0.9914	0.0086
0.7983	0.9974	0.0026
0.8958	0.9982	0.0018

System: isopropylbenzene + sulfolane; phases: Liquid, Gas
Fixed: Pressure, kPa = 101.33
Property: Boiling temperature at pressure P, K (Liquid); method: Ebulliometric method (Recirculating still)
Mole fraction of isopropylbenzene	Boiling temperature at pressure P, K	uncertainty
0.0803	472.71	1.5
0.0973	466.33	1.04
0.1365	457.68	0.69
0.1838	451.53	0.39
0.2754	444.35	0.33
0.3035	442.05	0.29
0.3523	438.95	0.25
0.3906	437.05	0.14
0.5355	433.85	0.12
0.6834	431.48	0.12
0.7788	430.1	0.12
0.8577	428.45	0.13

System: isopropylbenzene + sulfolane; phases: Gas, Liquid
Fixed: Pressure, kPa = 101.33
Property: Mole fraction of isopropylbenzene (Gas); method: Chromatography
Mole fraction of isopropylbenzene	Mole fraction of isopropylbenzene	uncertainty
0.0803	0.9181	0.0402
0.0973	0.9322	0.0401
0.1365	0.9623	0.0377
0.1838	0.9723	0.0277
0.2754	0.9768	0.0232
0.3035	0.9815	0.0185
0.3523	0.9829	0.0171
0.3906	0.9847	0.0153
0.5355	0.9876	0.0124
0.6834	0.9888	0.0112
0.7788	0.9896	0.0104
0.8577	0.9905	0.0095
