Measured thermophysical data. Thermodynamic properties of 1-alkyl-3-methylimidazolium bromide ionic liquids
Source: J. Chem. Thermodyn., 2007, 10.1016/j.jct.2006.05.008
Compound 1: water, H2O, InChI=1S/H2O/h1H2
Compound 2: 1-ethyl-3-methylimidazolium bromide, C6H11BrN2, InChI=1S/C6H11N2.BrH/c1-3-8-5-4-7(2)6-8;/h4-6H,3H2,1-2H3;1H/q+1;/p-1, purity 99.94%
Compound 3: 1-butyl-3-methylimidazolium bromide, C8H15BrN2, InChI=1S/C8H15N2.BrH/c1-3-4-5-10-7-6-9(2)8-10;/h6-8H,3-5H2,1-2H3;1H/q+1;/p-1, purity 99.99%
Compound 4: 1-methyl-3-propylimidazolium bromide, C7H13BrN2, InChI=1S/C7H13N2.BrH/c1-3-4-9-6-5-8(2)7-9;/h5-7H,3-4H2,1-2H3;1H/q+1;/p-1, purity 99.93%

System: 1-ethyl-3-methylimidazolium bromide; phases: Crystal
Fixed: Pressure, kPa = 101.325
Property: Molar heat capacity at constant pressure, J/K/mol (Crystal); method: SMALLAD:UFactor:2
Temperature, K	Molar heat capacity at constant pressure, J/K/mol	uncertainty
5.194	0.3611204478	0.0534993256
5.579	0.4604763382	0.057320706
5.885	0.5502787776	0.0592313962
6.228	0.6668308798	0.0630527766
6.606	0.8177754056	0.0687848472
6.985	0.9897375236	0.0745169178
7.365	1.1827172338	0.076427608
7.747	1.4062679872	0.0878917492
8.13	1.6546577132	0.09553451
8.515	1.9374398628	0.105087961
8.9	2.2488823654	0.11502355004
9.286	2.5966279818	0.12591448418
9.673	2.9787660218	0.13795183244
10.06	3.401028556	0.1509445258
10.55	3.9990745886	0.16794966858
11.14	4.8072965432	0.19106902
11.73	5.7397133608	0.2178186828
12.32	6.8096998728	0.248389726
12.91	7.996238487	0.2789607692
13.54	8.1070585186	0.277050079
14.21	8.1089692088	0.2732286986
14.85	8.9783332498	0.2942462908
15.58	10.0101059578	0.3171745732
16.41	11.2233942348	0.3420135458
17.25	12.486360457	0.3687632086
18.08	13.7684335812	0.3936021812
18.92	15.0810777486	0.4165304636
19.75	16.4109181278	0.4375480558
20.88	18.2776624532	0.4662084088
22.31	20.6220793286	0.4986901422
23.74	22.9798710354	0.5235291148
25.17	25.3433948128	0.544546707
26.6	27.6534192646	0.5579215384
28.05	30.0093002812	0.5674749894
29.5	32.3346102546	0.5712963698
30.94	34.6541881574	0.5483680874
32.4	36.8801422404	0.5693856796
33.85	39.0659718292	0.592313962
35.31	41.1811058806	0.6133315542
36.76	43.2408299162	0.6324384562
38.22	45.2279477242	0.6534560484
39.68	47.203601391	0.6725629504
41.38	49.3951630504	0.6935805426
43.34	51.865685479	0.7184195152
45.31	54.2960834134	0.7432584878
47.28	56.632857528	0.7661867702
49.24	58.8454367796	0.7891150526
51.21	60.9682135918	0.8101326448
53.18	62.9992772744	0.831150237
55.14	64.9997699138	0.850257139
57.11	66.931477706	0.869364041
59.08	68.823061004	0.888470943
61.05	70.7031801608	0.907577845
63.03	72.5374427528	0.9247740568
65	74.2455997916	0.9419702686
66.98	75.8601330106	0.9591664804
68.96	77.421166904	0.974452002
70.95	78.9650045856	0.9897375236
72.93	80.4840032946	1.0050230452
74.92	82.0584120194	1.0203085668
76.91	83.5984283206	1.0355940884
78.9	85.1537301434	1.050898716902
80.9	86.6039440052	1.066203345404
82.91	87.8191429724	1.077591058996

System: 1-ethyl-3-methylimidazolium bromide; phases: Crystal, Liquid, Gas
Property: Molar enthalpy of transition or fusion, kJ/mol (Crystal); method: Adiabatic calorimetry
Molar enthalpy of transition or fusion, kJ/mol	uncertainty
18.26	0.24

System: 1-ethyl-3-methylimidazolium bromide; phases: Crystal, Liquid, Gas
Property: Triple point temperature, K (Crystal); method: Adiabatic calorimetry
Triple point temperature, K	uncertainty
349.91	0.2

System: 1-ethyl-3-methylimidazolium bromide; phases: Liquid
Fixed: Pressure, kPa = 101.325
Property: Molar heat capacity at constant pressure, J/K/mol (Liquid); method: Small (less than 1 g) adiabatic calorimetry
Temperature, K	Molar heat capacity at constant pressure, J/K/mol	uncertainty
347.66	265.337548074	1.261055532
350.15	266.101824154	1.261055532
352.61	266.885207136	1.261055532
353.91	267.515734902	1.261055532
355.07	267.706803922	1.280162434
357.53	268.528400708	1.280162434
359.99	269.330890592	1.280162434
361.35	270.209808084	1.280162434
362.45	270.783015144	1.280162434
364.95	271.948536166	1.280162434
366.81	270.878549654	1.280162434
367.5	272.579063932	1.29907826698

System: 1-ethyl-3-methylimidazolium bromide; phases: Crystal
Fixed: Pressure, kPa = 101.325
Property: Molar heat capacity at constant pressure, J/K/mol (Crystal); method: Small (less than 1 g) adiabatic calorimetry
Temperature, K	Molar heat capacity at constant pressure, J/K/mol	uncertainty
80.24	85.6829913288	0.5292611854
83.06	87.6681984466	0.5388146364
85.79	89.3648913442	0.5464573972
88.55	91.2087073872	0.5560108482
91.34	93.0143096262	0.5712963698
94.15	94.7969835828	0.5789391306
96.98	96.5223368334	0.5865818914
99.83	98.1827266172	0.592313962
102.69	99.8755981344	0.57320706
105.57	101.5092382554	0.6056887934
108.46	103.1046645724	0.6133315542
111.37	104.6905374384	0.6190636248
114.29	106.2897851358	0.6247956954
117.22	107.8259800566	0.630527766
120.16	109.3468894558	0.6381705268
123.11	110.8926378276	0.6439025974
126.08	112.4211899876	0.649634668
129.06	113.8886000612	0.6553667386
132.03	115.3923132486	0.6610988092
135.01	116.8692767732	0.6668308798
138	118.3443296076	0.6725629504
140.99	119.8499534852	0.6802057112
143.99	121.3326490804	0.6859377818
146.99	122.8077019148	0.6916698524
149.99	124.2732012982	0.697401923
152.99	125.742522062	0.7031339936
156	127.1736290218	0.7088660642
159	128.6257535738	0.7145981348
162.08	130.184876777	0.7203302054
165.15	131.6350906388	0.726062276
168.15	133.0776617398	0.7317943466
171.16	134.5488931938	0.7375264172
174.16	136.0086605066	0.7432584878
177.16	137.502820243	0.7509012486
180.15	138.888070638	0.754722629
183.15	140.378408994	0.7623653898
186.14	141.849640448	0.7680974604
189.13	143.3227825922	0.773829531
192.12	144.8131209482	0.7795616016
195.1	146.311102065	0.7852936722
198.07	147.839654225	0.7910257428
201.05	149.4503660636	0.7986685036
204.01	151.1298627494	0.8044005742
206.98	152.6985394036	0.8101326448
209.94	154.2672160578	0.8177754056
212.9	155.8301606414	0.8235074762
215.85	157.402658676	0.8292395468
218.78	158.978978091	0.8368823076
221.71	160.5228157726	0.8426143782
224.63	162.1258848504	0.8483464488
227.55	163.717489787	0.8540785194
230.45	165.3683261198	0.8617212802
233.35	166.965663127	0.8674533508
236.24	168.4980366674	0.8731854214
239.13	170.1393195492	0.8808281822
242	171.8780476312	0.888470943
244.87	173.4887594698	0.8942030136
247.74	175.1491492536	0.8999350842
250.59	176.83437801	0.907577845
253.44	178.5138746958	0.9133099156
256.25	180.2048355228	0.9209526764
259.07	181.9760453382	0.9285954372
261.87	183.731969632	0.9343275078
264.68	185.4687870238	0.9419702686
267.47	187.1960509646	0.9496130294
270.26	188.9500645682	0.9553451
273.03	190.7040781718	0.9629878608
275.79	192.521144552	0.974452002
278.53	194.489155458	0.974452002
281.26	196.342524952	0.993558904
283.96	198.195894446	0.993558904
286.66	199.934622528	0.993558904
289.36	201.95995414	1.01304794404
292.03	203.77510983	1.01304794404
294.7	205.78133454	1.03196377702
297.36	207.806666152	1.03196377702
299.92	209.774677058	1.03196377702

System: 1-ethyl-3-methylimidazolium bromide; phases: Liquid
Fixed: Pressure, kPa = 101.325
Property: Molar heat capacity at constant pressure, J/K/mol (Liquid); method: Small (less than 1 g) adiabatic calorimetry
Temperature, K	Molar heat capacity at constant pressure, J/K/mol	uncertainty
349.92	264.8	1.247
350	264.8	1.247
360	268.6	1.247
370	272.4	1.33

System: 1-ethyl-3-methylimidazolium bromide; phases: Crystal
Fixed: Pressure, kPa = 101.325
Property: Molar heat capacity at constant pressure, J/K/mol (Crystal); method: Small (less than 1 g) adiabatic calorimetry
Temperature, K	Molar heat capacity at constant pressure, J/K/mol	uncertainty
5	0.322	0.028
10	3.336	0.076
15	9.171	0.15
20	16.81	0.224
25	25	0.274
30	33.08	0.266
35	40.68	0.308
40	47.53	0.341
45	53.77	0.366
50	59.49	0.399
60	69.57	0.449
70	78.03	0.491
80	85.47	0.5
90	92.12	0.58
100	98.11	0.58
110	103.8	0.58
120	109.1	0.67
130	114.2	0.67
140	119.1	0.67
150	124.1	0.67
160	128.9	0.75
170	133.7	0.75
180	138.6	0.75
190	143.6	0.75
200	148.7	0.831
210	153.9	0.831
220	159.2	0.831
230	164.7	0.831
240	170.4	0.915
250	176.2	0.915
260	182.2	0.915
270	188.3	0.915
280	195.1	0.998
290	202	0.998
298.15	207.5	0.998
300	208.8	0.998
310	215.7	1.081
320	222.5	1.081
330	229.4	1.081
340	236.3	1.164
349.92	243.1	1.164

System: 1-ethyl-3-methylimidazolium bromide; phases: Liquid
Fixed: Pressure, kPa = 101.325
Property: Molar enthalpy function {Hm(T)-Hm(0)}/T, J/K/mol (Liquid); method: Small (less than 1 g) adiabatic calorimetry
Temperature, K	Molar enthalpy function {Hm(T)-Hm(0)}/T, J/K/mol	uncertainty
349.92	185.7	0.915
350	185.7	0.915
360	187.9	0.915
370	190.2	0.998

System: 1-ethyl-3-methylimidazolium bromide; phases: Crystal
Fixed: Pressure, kPa = 101.325
Property: Molar enthalpy function {Hm(T)-Hm(0)}/T, J/K/mol (Crystal); method: Small (less than 1 g) adiabatic calorimetry
Temperature, K	Molar enthalpy function {Hm(T)-Hm(0)}/T, J/K/mol	uncertainty
5	0.081	0.022
10	0.77	0.03
15	2.72	0.06
20	5.26	0.083
25	8.389	0.108
30	11.84	0.158
35	15.42	0.175
40	19.02	0.2
45	22.53	0.216
50	25.95	0.233
60	32.4	0.266
70	38.34	0.291
80	43.78	0.316
90	48.79	0.399
100	53.42	0.416
110	57.74	0.432
120	61.8	0.449
130	65.63	0.466
140	69.28	0.474
150	72.78	0.491
160	76.13	0.507
170	79.38	0.515
180	82.53	0.532
190	85.64	0.58
200	88.63	0.58
210	91.63	0.58
220	94.54	0.58
230	97.53	0.58
240	100.4	0.58
250	103.3	0.58
260	106.3	0.67
270	109.2	0.67
280	112.1	0.67
290	115.1	0.67
298.15	117.6	0.67
300	118.1	0.67
310	121.1	0.67
320	124.2	0.67
330	127.3	0.75
340	130.4	0.75
349.92	133.4	0.75

System: 1-ethyl-3-methylimidazolium bromide; phases: Liquid
Fixed: Pressure, kPa = 101.325
Property: Molar entropy, J/K/mol (Liquid); method: Small (less than 1 g) adiabatic calorimetry
Temperature, K	Molar entropy, J/K/mol	uncertainty
349.92	336.9	2.328
350	337	2.328
360	344.5	2.328
370	352	2.411

System: 1-ethyl-3-methylimidazolium bromide; phases: Crystal
Fixed: Pressure, kPa = 101.325
Property: Molar entropy, J/K/mol (Crystal); method: Small (less than 1 g) adiabatic calorimetry
Temperature, K	Molar entropy, J/K/mol	uncertainty
0	0	0.03
5	0.109	0.033
10	0.998	0.06
15	3.6	0.108
20	7.26	0.158
25	11.89	0.208
30	17.17	0.283
35	22.85	0.324
40	28.73	0.366
45	34.7	0.407
50	40.67	0.457
60	52.43	0.54
70	63.81	0.632
80	74.72	0.707
90	85.22	0.831
100	95.2	0.831
110	104.8	0.915
120	114.1	0.998
130	123.1	1.081
140	131.7	1.081
150	140	1.164
160	148.2	1.164
170	156.1	1.247
180	164	1.247
190	171.6	1.33
200	179.1	1.413
210	186.4	1.413
220	193.7	1.497
230	201	1.497
240	208	1.58
250	215.1	1.58
260	222.2	1.663
270	229.1	1.663
280	236.1	1.746
290	243	1.746
298.15	248.8	1.829
300	250	1.829
310	257	1.829
320	264	1.912
330	270.9	1.912
340	277.9	1.995
349.92	284.8	1.995

System: 1-butyl-3-methylimidazolium bromide; phases: Crystal, Liquid, Gas
Property: Molar enthalpy of transition or fusion, kJ/mol (Crystal); method: Adiabatic calorimetry
Molar enthalpy of transition or fusion, kJ/mol	uncertainty
22.88	0.1

System: 1-butyl-3-methylimidazolium bromide; phases: Crystal, Liquid, Gas
Property: Triple point temperature, K (Crystal); method: Adiabatic calorimetry
Triple point temperature, K	uncertainty
351.35	0.2

System: 1-butyl-3-methylimidazolium bromide; phases: Liquid
Fixed: Pressure, kPa = 101.325
Property: Molar heat capacity at constant pressure, J/K/mol (Liquid); method: Small (less than 1 g) adiabatic calorimetry
Temperature, K	Molar heat capacity at constant pressure, J/K/mol	uncertainty
225.62	289.044067638	1.35899576036
227.7	289.504224216	1.35899576036
229.79	290.00820523	1.35899576036
231.89	290.687483988	1.35899576036
233.98	291.235289438	1.35899576036
236.07	291.65162158	1.35899576036
238.17	292.046041504	1.35899576036
240.26	292.63767139	1.380469734
242.35	293.207389058	1.380469734
244.44	293.886667816	1.380469734
246.54	294.806980972	1.380469734
248.64	295.354786422	1.380469734
250.73	296.099801834	1.380469734
252.83	296.757168374	1.380469734
355.98	334.81869104	1.53407438218
359.86	336.111511902	1.53407438218
362.1	338.412294792	1.55598660018
364.36	339.332607948	1.55598660018
366.64	339.836588962	1.55598660018

System: 1-butyl-3-methylimidazolium bromide; phases: Glass
Fixed: Pressure, kPa = 101.325
Property: Molar heat capacity at constant pressure, J/K/mol (Glass); method: Small (less than 1 g) adiabatic calorimetry
Temperature, K	Molar heat capacity at constant pressure, J/K/mol	uncertainty
5.416	1.391425843	0.0482068796
5.698	1.6083568012	0.043824436
6.014	1.8713034172	0.054780545
6.368	2.1868393564	0.0613542104
6.758	2.5593470624	0.0679278758
7.151	2.969105539	0.0745015412
7.546	3.418306008	0.0810752066
7.943	3.889418695	0.087648872
8.343	4.3955909308	0.0964137592
8.743	4.9214841628	0.10495952422
9.142	5.5065403834	0.1139435336
9.542	6.1157000438	0.12292754298
9.941	6.7774490274	0.13410277416
10.45	7.6692763	0.14703098278
11.06	8.8656834028	0.16193129102
11.68	9.608507593	0.16894320078
12.33	10.331610787	0.17705072144
12.97	11.3812060292	0.19107454096
13.59	12.446139824	0.20400274958
14.22	13.5680453856	0.2169309582
14.85	14.6789948382	0.230078289
15.59	16.0265962452	0.2432256198
16.44	17.6108496066	0.2585641724
17.29	19.1972941898	0.273902725
18.14	20.827563209	0.2870500558
18.99	22.4446848974	0.3001973866
19.84	24.0508504768	0.3133447174
20.98	26.316573818	0.32868327
22.44	29.0840869514	0.3418306008
23.89	31.8757035246	0.3549779316
25.34	34.610348331	0.3637428188
26.79	37.3033599232	0.3681252624
28.25	39.9832241846	0.3703164842
29.71	42.641176228	0.3681252624
31.17	45.2750248316	0.32868327
32.64	47.8540928902	0.3418306008
34.1	50.3411296332	0.3527867098
35.56	52.7361350606	0.3659340406
37.02	55.0566389468	0.3768901496
38.48	57.355230615	0.3878462586
39.95	59.568364633	0.3988023676
41.66	62.0904609248	0.4119496984
43.62	64.9565790392	0.4250970292
45.59	67.7043711764	0.4404355818
47.56	70.469693088	0.4535829126
49.53	73.0356138158	0.4667302434
51.5	75.5445627768	0.4776863524
53.47	77.9943487492	0.4908336832
55.43	80.3893541766	0.5017897922
57.4	82.6923282884	0.514937123
59.37	85.0215970618	0.525893232
61.34	87.3267623954	0.536849341
63.31	89.5639998532	0.54780545
65.29	91.7311182134	0.558761559
67.27	93.78429304	0.569717668
69.25	95.8528064192	0.580673777
71.23	97.8205235956	0.5894386642
73.21	99.7794758848	0.5982035514
75.2	101.7340457304	0.6091596604
77.19	103.8441923238	0.6201157694
79.19	105.8601163798	0.6288806566
81.18	107.7051251354	0.6398367656
81.99	108.35591801	0.6420279874
84.53	110.360885957	0.6529840964
86.53	112.0305969686	0.6595577618
88.52	113.7989129612	0.668322649
90.52	115.5803762846	0.6617489836
92.52	117.142717428	0.668322649
94.51	118.7072497932	0.6748963144
96.52	120.451462346	0.6814699798
98.52	121.8297408582	0.6880436452
100.53	123.289094577	0.6924260888
102.54	125.0902788966	0.701190976
104.55	126.4817047396	0.7055734196
106.56	127.901616466	0.712147085
108.57	129.4530015004	0.7187207504
110.59	130.8882517794	0.723103194
112.61	132.262147848	0.7296768594
114.64	133.697398127	0.734059303
116.67	135.0537644212	0.7406329684
118.69	136.3641150576	0.745015412
120.72	137.6131114836	0.7515890774
122.75	139.0680827588	0.755971521
124.78	140.3170791848	0.7603539646
126.82	141.7873890126	0.76692763
128.85	143.2226392916	0.7735012954
130.89	144.5286074844	0.777883739
132.93	145.6088798318	0.7822661826
134.98	147.1580736444	0.788839848
137.02	148.4706155026	0.7932222916
139.07	149.6757874926	0.799795957
141.11	150.9598434674	0.8041784006
143.16	152.333739536	0.8085608442
145.21	153.637516507	0.8151345096
147.27	154.985117914	0.8195169532
149.33	156.223158231	0.8238993968
151.38	157.5576123072	0.8304730622
153.44	158.8460507256	0.8348555058
155.5	160.145445253	0.8414291712
157.55	161.460178333	0.8458116148
159.61	162.8800900594	0.8523852802
161.68	164.2123529138	0.8567677238
163.74	165.3802741332	0.8611501674
165.8	166.6950072132	0.8677238328
167.87	168.0754769472	0.8721062764
169.93	169.4493730158	0.8786799418
172	170.7465763214	0.8830623854
174.07	172.0854128412	0.887444829
176.14	173.391381034	0.8940184944
178.21	174.8069103168	0.898400938
180.29	176.1939537162	0.9049746034
182.37	177.609482999	0.9115482688
184.44	178.8847740866	0.9159307124
186.51	180.3397453618	0.9225043778
188.59	181.718023874	0.9268868214
190.66	183.153274153	0.9334604868
192.74	184.621392759	0.9378429304
194.82	186.012818602	0.9444165958
196.9	187.634322734	0.9509902612
198.98	189.2821215276	0.9575639266
201.07	190.997848197	0.964137592
203.15	192.7420607498	0.9707112574
205.24	194.5958343926	0.9794761446
207.34	196.5657427908	0.98604981
209.44	199.1448108494	0.997005919
211.54	201.3382238712	1.005792718418
213.66	205.7097113622	1.0233005806
215.75	211.6654522146	1.0495952422
217.78	223.219764766	1.11796136236
219.71	249.711636328	1.227084208

System: 1-butyl-3-methylimidazolium bromide; phases: Crystal
Fixed: Pressure, kPa = 101.325
Property: Molar heat capacity at constant pressure, J/K/mol (Crystal); method: Small (less than 1 g) adiabatic calorimetry
Temperature, K	Molar heat capacity at constant pressure, J/K/mol	uncertainty
5.112	0.6398367656	0.032868327
5.455	0.7976047352	0.0350595488
5.764	0.9597551484	0.0394419924
6.078	1.1438177796	0.0416332142
6.428	1.369513625	0.0460156578
6.809	1.6477987936	0.043824436
7.192	1.9567610674	0.0569717668
7.578	2.2876355592	0.0613542104
7.966	2.6557608216	0.0679278758
8.356	3.0523719674	0.0745015412
8.747	3.473086553	0.0810752066
9.141	3.9266694656	0.087648872
9.535	4.3999733744	0.0942225374
9.931	4.9039543884	0.1029874246
10.43	5.5810419246	0.11197143398
11.04	6.4465745356	0.1248996426
11.65	7.3668876916	0.13607487378
12.26	8.337598949	0.1490030824
12.88	9.3608995296	0.16193129102
13.49	10.4258333244	0.17507862182
14.11	11.5214442244	0.18800683044
14.73	12.6521146732	0.20203064996
15.46	14.0391580726	0.2169309582
16.3	15.6497060956	0.2344607326
17.14	17.332564438	0.251990507
17.98	19.0132315586	0.2673290596
18.82	20.739914337	0.2826676122
19.66	22.4775532244	0.295814943
20.8	24.9163830878	0.3133447174
22.23	27.9577989462	0.3330657136
23.67	30.9488167032	0.3484042662
25.11	33.9332607948	0.3593603752
26.55	36.8936014466	0.3681252624
28	39.847368433	0.372507706
29.46	42.7134865474	0.372507706
30.91	45.5839871054	0.3308744918
32.37	48.3142494682	0.3440218226
33.83	50.9196121884	0.3571691534
35.29	53.4833416944	0.3681252624
36.75	55.930936445	0.3812725932
38.21	58.330324316	0.3922287022
39.67	60.6354896496	0.405376033
41.38	63.1794981594	0.416332142
43.35	66.0784846008	0.4316706946
45.33	68.8087469636	0.4448180254
47.31	71.4491692326	0.4579653562
49.28	73.9559269718	0.471112687
51.25	76.3334026248	0.482068796
53.22	78.7021133906	0.493024905
55.2	80.8692317508	0.503981014
57.18	82.9618485698	0.514937123
59.15	84.9602428514	0.525893232
61.12	87.035329896	0.5346581192
63.1	89.0315329558	0.5456142282
65.08	90.9817203578	0.5543791154
67.06	92.7281241324	0.5631440026
69.04	94.4569981326	0.5719088898
71.02	96.1201354788	0.580673777
73.01	97.7131537274	0.5894386642
75	99.349996412	0.5960123296
76.99	101.081061634	0.6047772168
78.99	102.779258529	0.613542104
79.88	103.1254715734	0.6157333258
80.98	104.4029538828	0.6223069912
82.98	105.6366117562	0.6288806566
83.34	105.9477652518	0.6288806566
84.99	106.909711622	0.635454322
85.34	107.2230563394	0.635454322
87.34	108.6583066184	0.6442192092
89.34	110.086983232	0.6507928746
91.34	111.544145729	0.646410431
93.34	112.7471264972	0.6507928746
95.34	114.075006908	0.65736654
97.35	115.4576678638	0.6617489836
99.35	116.715429177	0.6661314272
101.36	118.1156199072	0.6727050926
103.37	119.5793560696	0.679278758
105.39	120.4361237934	0.6814699798
107.41	121.5821327948	0.6858524234
109.43	122.7763486758	0.690234867
111.44	123.9924767748	0.6968085324
113.47	125.1560155506	0.701190976
115.5	126.619751713	0.7055734196
117.53	127.6255225192	0.701190976
119.57	128.5677478932	0.7143383068
121.6	129.7137568946	0.7187207504
123.63	131.111756403	0.7252944158
125.66	132.0846588822	0.7274856376
127.7	133.0991945756	0.7318680812
129.73	134.3197051182	0.7384417466
131.77	135.3583442514	0.7406329684
133.82	136.3728799448	0.745015412
135.86	137.630641258	0.7515890774
137.9	138.6868101656	0.7537802992
139.95	139.7736561784	0.7581627428
142	140.9459598414	0.7647364082
144.05	142.1708528276	0.7691188518
146.11	143.2905671674	0.7735012954
148.17	144.0421562448	0.7756925172
150.23	145.1552969192	0.7800749608
152.28	146.4787948864	0.7866486262
154.34	147.7738069702	0.7910310698
156.4	148.8255934342	0.7954135134
158.47	149.8598501238	0.799795957
160.53	151.0277713432	0.8041784006
162.59	152.18035401	0.8085608442
164.66	153.3285542332	0.8129432878
166.73	154.4197826896	0.8173257314
168.79	155.6687791156	0.821708175
170.86	156.7139919142	0.8260906186
172.93	157.833706254	0.8304730622
175	158.9994362516	0.8370467276
177.07	160.167357471	0.8414291712
179.15	161.405397788	0.8458116148
181.23	162.5273033496	0.8501940584
183.3	163.7346665614	0.854576502
185.38	164.8916316718	0.8589589456
187.45	166.2611452968	0.865532611
189.53	167.3479913096	0.8699150546
191.61	168.4545583186	0.8742974982
193.69	169.622479538	0.8786799418
195.77	170.9722721668	0.8830623854
197.85	172.3330209046	0.8896360508
199.93	173.5491490036	0.8940184944
202.01	174.870455749	0.9005921598
204.09	176.1720414982	0.9049746034
206.18	177.521834127	0.909357047
208.26	178.8672443122	0.9159307124
210.34	180.271817486	0.920313156
212.44	181.7530834228	0.9268868214
214.52	183.2431142468	0.9334604868
216.61	184.6192015372	0.9378429304
218.7	186.056643038	0.9444165958
220.79	187.316595573	0.9487990394
222.88	188.6620057582	0.9553727048
224.97	190.0490491576	0.9597551484
227.06	191.534697538	0.9663288138
229.15	192.8472393962	0.9707112574
231.24	194.1291041492	0.9772849228
233.34	195.599413977	0.9816673664
235.43	196.859366512	0.9882410318
237.53	197.998801848	0.9926234754
239.63	199.4384345706	0.997005919
241.72	200.9306566164	1.003601496618
243.82	202.3615244518	1.010197074236
245.93	203.6674926446	1.014491868964
248.03	205.0939780364	1.0211093588
250.12	206.5818176386	1.0254918024
252.22	208.0104942522	1.032109292236
254.32	209.5290109596	1.038595308764
256.43	211.0409540016	1.045190886382
258.53	212.4542920626	1.0495952422
260.63	213.9749999918	1.056190819818
262.74	215.4869430338	1.062698748564
264.84	217.161036489	1.069294326182
266.93	218.7365249632	1.0758899038
269.03	220.195878682	1.07391780418
271.12	222.146066084	1.09604914436
273.22	223.986692396	1.09604914436
275.33	225.345249912	1.09604914436
277.43	227.054402916	1.11796136236
279.55	228.43487265	1.11796136236
281.65	230.012552346	1.11796136236
283.76	231.568319824	1.11796136236
285.86	232.751579596	1.13899709164
287.97	234.482644818	1.13899709164
290.08	236.126061168	1.13899709164
292.19	237.63800421	1.16090930964
294.31	239.369069432	1.16090930964
296.42	241.14395909	1.16090930964
298.54	243.379005326	1.18304064982
300.66	245.131982766	1.18304064982
302.78	247.980571106	1.18304064982
304.91	249.777372982	1.20495286782
308.84	254.225553236	1.227084208
312.32	258.717557926	1.227084208
314.44	261.8510051	1.248996426

System: 1-butyl-3-methylimidazolium bromide; phases: Liquid
Fixed: Pressure, kPa = 101.325
Property: Molar heat capacity at constant pressure, J/K/mol (Liquid); method: Small (less than 1 g) adiabatic calorimetry
Temperature, K	Molar heat capacity at constant pressure, J/K/mol	uncertainty
351.35	332.6	1.497
360	336.3	1.58
370	340.9	1.58

System: 1-butyl-3-methylimidazolium bromide; phases: Crystal
Fixed: Pressure, kPa = 101.325
Property: Molar heat capacity at constant pressure, J/K/mol (Crystal); method: Small (less than 1 g) adiabatic calorimetry
Temperature, K	Molar heat capacity at constant pressure, J/K/mol	uncertainty
5	0.594	0.036
10	5	0.1
15	13.15	0.208
20	23.22	0.299
25	33.71	0.358
30	43.79	0.324
35	52.97	0.366
40	61.09	0.407
45	68.34	0.441
50	74.81	0.474
60	85.89	0.5
70	95.2	0.58
80	103.3	0.58
90	110.5	0.67
100	117.1	0.67
110	123.1	0.67
120	128.8	0.75
130	134.3	0.75
140	139.7	0.75
150	145.1	0.75
160	150.5	0.831
170	156	0.831
180	161.6	0.831
190	167.4	0.831
200	173.4	0.915
210	179.9	0.915
220	186.6	0.915
230	193.1	0.998
240	199.5	0.998
250	206.2	0.998
260	213.2	1.081
270	220.8	1.081
280	228.4	1.081
290	235.8	1.164
298.15	241.8	1.164
300	243.1	1.164
310	250.4	1.164
320	257.8	1.247
330	265.1	1.247
340	272.5	1.33
350	279.8	1.33
351.35	280.8	1.33

System: 1-butyl-3-methylimidazolium bromide; phases: Liquid
Fixed: Pressure, kPa = 101.325
Property: Molar enthalpy function {Hm(T)-Hm(0)}/T, J/K/mol (Liquid); method: Small (less than 1 g) adiabatic calorimetry
Temperature, K	Molar enthalpy function {Hm(T)-Hm(0)}/T, J/K/mol	uncertainty
351.35	222.5	1.081
360	225.2	1.081
370	228.2	1.081

System: 1-butyl-3-methylimidazolium bromide; phases: Crystal
Fixed: Pressure, kPa = 101.325
Property: Molar enthalpy function {Hm(T)-Hm(0)}/T, J/K/mol (Crystal); method: Small (less than 1 g) adiabatic calorimetry
Temperature, K	Molar enthalpy function {Hm(T)-Hm(0)}/T, J/K/mol	uncertainty
0	0	0.02
5	0.151	0.023
10	1.28	0.04
15	3.8	0.07
20	7.377	0.1098
25	11.6	0.133
30	16.13	0.183
35	20.75	0.208
40	25.3	0.224
45	29.68	0.249
50	33.88	0.266
60	41.66	0.308
70	48.66	0.341
80	54.99	0.374
90	60.77	0.441
100	66.08	0.466
110	70.99	0.482
120	75.57	0.499
130	79.88	0.515
140	83.98	0.5
150	87.88	0.58
160	91.63	0.58
170	95.2	0.58
180	98.78	0.58
190	102.2	0.58
200	105.6	0.67
210	109	0.67
220	112.4	0.67
230	115.7	0.67
240	119.1	0.67
250	122.5	0.67
260	125.8	0.67
270	129.2	0.75
280	132.6	0.75
290	136	0.75
298.15	138.9	0.75
300	139.4	0.75
310	142.9	0.75
320	146.4	0.75
330	149.9	0.831
340	153.4	0.831
350	156.9	0.831
351.35	157.4	0.831

System: 1-butyl-3-methylimidazolium bromide; phases: Liquid
Fixed: Pressure, kPa = 101.325
Property: Molar entropy, J/K/mol (Liquid); method: Small (less than 1 g) adiabatic calorimetry
Temperature, K	Molar entropy, J/K/mol	uncertainty
351.35	408.2	2.744
360	416.4	2.827
370	425.7	2.827

System: 1-butyl-3-methylimidazolium bromide; phases: Crystal
Fixed: Pressure, kPa = 101.325
Property: Molar entropy, J/K/mol (Crystal); method: Small (less than 1 g) adiabatic calorimetry
Temperature, K	Molar entropy, J/K/mol	uncertainty
0	0	0.03
5	0.202	0.036
10	1.7	0.07
15	5.18	0.141
20	10.32	0.216
25	16.63	0.283
30	23.67	0.333
35	31.13	0.382
40	38.75	0.441
45	46.36	0.499
50	53.9	0.557
60	68.56	0.665
70	82.52	0.773
80	95.78	0.831
90	108.3	0.915
100	120.3	0.998
110	131.8	1.081
120	142.8	1.164
130	153.2	1.247
140	163.5	1.247
150	173.3	1.33
160	182.8	1.413
170	192.1	1.413
180	201.1	1.497
190	210	1.58
200	218.8	1.58
210	227.4	1.663
220	235.9	1.746
230	244.4	1.746
240	252.7	1.829
250	261	1.829
260	269.2	1.912
270	277.4	1.995
280	285.6	1.995
290	293.8	2.079
298.15	300.3	2.079
300	301.8	2.079
310	310	2.162
320	318	2.245
330	326	2.245
340	334.1	2.328
350	342.1	2.328
351.35	343.1	2.328

System: 1-methyl-3-propylimidazolium bromide; phases: Crystal, Liquid, Gas
Property: Molar enthalpy of transition or fusion, kJ/mol (Crystal); method: Adiabatic calorimetry
Molar enthalpy of transition or fusion, kJ/mol	uncertainty
13.5	0.2

System: 1-methyl-3-propylimidazolium bromide; phases: Crystal, Liquid, Gas
Property: Triple point temperature, K (Crystal); method: Adiabatic calorimetry
Triple point temperature, K	uncertainty
314.7	0.5

System: 1-methyl-3-propylimidazolium bromide; phases: Crystal
Fixed: Pressure, kPa = 101.325
Property: Molar heat capacity at constant pressure, J/K/mol (Crystal); method: Vacuum adiabatic calorimetry
Temperature, K	Molar heat capacity at constant pressure, J/K/mol	uncertainty
79.74	92.594510532	0.22560516
79.94	92.758587012	0.22560516
81.27	93.84149178	0.227656116
82.19	94.5490716	0.229707072
82.6	94.864918824	0.229707072
83.93	95.593008204	0.231758028
84.2	95.75913564	0.231758028
85.27	96.53849892	0.233808984
86.22	97.262486388	0.23585994
86.6	97.570129788	0.23585994
87.94	98.491009032	0.237910896
88.23	98.808907212	0.237910896
89.27	99.530843724	0.24611472
90.61	100.474283484	0.301490532
91.95	101.376704124	0.301490532
92.27	101.659736052	0.301490532
93.29	102.408334992	0.303541488
94.29	103.09130334	0.303541488
94.64	103.355876664	0.303541488
95.98	104.282908776	0.305592444
96.31	104.510564892	0.305592444
97.33	105.238654272	0.305592444
98.33	105.878552544	0.305592444
98.67	106.052883804	0.305592444
100.03	106.924540104	0.3076434
100.36	107.18296056	0.3076434
101.38	107.812604052	0.3076434
102.39	108.438145632	0.309694356
102.74	108.692464176	0.309694356
104.09	109.457470764	0.309694356
104.42	109.765114164	0.309694356
105.45	110.357840448	0.309694356
106.45	111.063369312	0.311745312
106.81	111.309484032	0.311745312
108.17	112.144223124	0.311745312
108.48	112.42315314	0.311745312
109.53	112.921535448	0.313796268
110.52	113.596299972	0.313796268
110.89	113.713204464	0.313796268
112.25	114.502822524	0.313796268
112.57	114.759192024	0.315847224
113.61	115.321153968	0.315847224
114.61	115.897472604	0.315847224
114.97	116.194861224	0.315847224
116.34	116.927052516	0.31789818
116.65	117.033702228	0.31789818
117.71	117.690008148	0.31789818
118.69	118.241715312	0.31789818
119.07	118.465269516	0.31789818
120.44	119.22207228	0.319949136
120.73	119.35538442	0.319949136
121.82	120.009639384	0.319949136
122.78	120.508021692	0.319949136
123.19	120.737728764	0.319949136
124.56	121.492480572	0.322000092
124.82	121.636047492	0.322000092
125.93	122.239028556	0.322000092
126.87	122.803041456	0.322000092
127.3	122.93430264	0.324051048
128.67	123.680850624	0.324051048
128.92	123.906455784	0.324051048
130.04	124.376124708	0.324051048
130.97	125.110366956	0.326102004
131.41	125.145233208	0.326102004
132.79	125.914341708	0.326102004
133.03	126.191220768	0.326102004
134.16	126.5952591	0.326102004
135.08	127.07723376	0.32815296
135.53	127.321297524	0.32815296
136.16	127.657654308	0.32815296
136.91	128.035030212	0.32815296
137.14	128.19500478	0.32815296
138.28	128.818495404	0.32815296
138.66	128.998979532	0.32815296
139.66	129.534279048	0.330203916
140.72	130.075731432	0.330203916
141.03	130.248011736	0.330203916
142.4	130.906368612	0.330203916
142.78	131.1586362	0.332254872
143.79	131.716496232	0.332254872
144.84	132.22513332	0.332254872
145.17	132.407668404	0.332254872
146.55	133.1070444	0.332254872
146.9	133.299834264	0.334305828
147.92	133.828980912	0.334305828
148.96	134.321210352	0.334305828
149.3	134.520153084	0.334305828
150.68	135.211325256	0.336356784
151.02	135.37335078	0.336356784
152.06	135.88608978	0.336356784
153.09	136.415236428	0.336356784
153.43	136.630586808	0.336356784
154.81	137.368930968	0.33840774
155.15	137.481733548	0.33840774
156.19	138.074459832	0.33840774
157.22	138.554383536	0.33840774
157.57	138.806651124	0.33840774
158.95	139.501925208	0.340458696
159.29	139.635237348	0.340458696
160.32	140.238218412	0.340458696
161.35	140.748906456	0.340458696
161.7	141.04424412	0.340458696
163.07	141.948715716	0.342509652
163.42	142.155862272	0.342509652
164.45	143.107505856	0.344560608
165.48	144.270397908	0.344560608
165.82	145.109238912	0.346611564
167.19	146.618742528	0.346611564
167.53	147.090462408	0.346611564
168.56	147.57653898	0.34866252
169.59	148.308730272	0.34866252
169.93	148.360004172	0.34866252
171.3	149.090144508	0.34866252
171.66	149.383431216	0.34866252
172.67	149.826437712	0.350713476
173.73	150.41711304	0.350713476
174.05	150.490947456	0.350713476
175.42	151.095979476	0.350713476
175.8	151.344145152	0.350713476
176.79	151.836374592	0.352764432
177.87	152.347062636	0.352764432
178.16	152.595228312	0.352764432
179.54	153.198209376	0.352764432
179.94	153.352031076	0.352764432
180.91	153.971419788	0.354815388
182.01	154.363152384	0.354815388
182.28	154.57029894	0.354815388
184.08	155.435802372	0.354815388
184.32	155.341458396	0.354815388
185.31	156.01622292	0.356866344
186.15	156.463331328	0.356866344
186.86	156.543318612	0.356866344
187	156.83660532	0.356866344
188.22	157.386261528	0.356866344
188.37	157.443688296	0.356866344
189.74	158.14921716	0.3589173
189.74	158.270223564	0.3589173
190.29	158.430198132	0.3589173
190.58	158.530694976	0.3589173
191.11	158.932682352	0.3589173
192.28	159.621803568	0.3589173
192.36	159.593090184	0.3589173
192.48	159.630007392	0.3589173
193.11	160.075064844	0.360968256
193.85	160.554988548	0.360968256
194.35	160.924160628	0.360968256
195.18	161.484071616	0.360968256
195.22	161.53329456	0.360968256
196.59	162.515702484	0.363019212
197.24	163.135091196	0.363019212
197.95	163.596556296	0.363019212
198.51	164.203639272	0.365070168
199.3	164.843537544	0.365070168
199.31	164.749193568	0.365070168
200.67	165.998225772	0.367121124
201.03	166.262799096	0.367121124
201.36	166.533525288	0.367121124
202.03	167.062671936	0.367121124
203.09	167.780506536	0.367121124
203.39	168.104557584	0.36917208
203.43	167.909716764	0.36917208
204.75	169.107475068	0.36917208
205.16	169.179258528	0.36917208
205.49	169.210022868	0.36917208
206.12	170.00374284	0.371223036
207.47	170.787208032	0.371223036
207.56	170.746188912	0.371223036
208.84	171.683475804	0.371223036
209.63	172.226979144	0.373273992
210.2	172.563335928	0.373273992
211.57	173.404227888	0.373273992
211.7	173.553947676	0.373273992
212.93	174.304597572	0.375324948
213.77	174.856304736	0.375324948
214.3	175.29520932	0.375324948
215.66	176.19762996	0.377375904
215.84	176.326840188	0.377375904
217.03	177.11030538	0.377375904
217.92	177.821987112	0.377375904
218.4	178.04349036	0.377375904
219.77	179.062815492	0.37942686
219.99	179.17151616	0.37942686
221.14	179.918064144	0.37942686
222.07	180.629745876	0.381477816
222.51	180.900472068	0.381477816
223.88	181.948510584	0.381477816
224.15	182.1761667	0.381477816
225.25	182.951428068	0.383528772
226.23	183.687721272	0.383528772
226.63	183.9707532	0.383528772
228	184.95521208	0.385579728
228.31	185.38591284	0.385579728
229.38	186.040167804	0.385579728
230.39	186.963098004	0.387630684
230.75	187.192805076	0.387630684
232.13	188.210079252	0.38968164
232.47	188.552588904	0.38968164
233.01	189.362716524	0.38968164
233.5	189.2519649	0.38968164
234.55	190.140028848	0.38968164
234.88	190.371786876	0.38968164
236.26	191.397264876	0.391732596
236.63	191.85667902	0.391732596
237.63	192.558105972	0.393783552
238.71	193.491290952	0.393783552
239.01	193.696386552	0.393783552
240.38	194.844921912	0.395834508
240.78	195.37406856	0.395834508
241.76	196.04062926	0.395834508
242.39	197.228132784	0.397885464
242.86	197.070209172	0.397885464
243.14	197.191215576	0.397885464
244.52	198.487419768	0.39993642
244.94	198.946833912	0.39993642
245.89	199.574426448	0.39993642
247.02	200.86037586	0.401987376
247.27	200.823458652	0.401987376
248.65	202.166834832	0.401987376
249.1	202.810835016	0.404038332
250.02	203.571739692	0.404038332
251.18	204.896657268	0.406089288
251.4	204.980746464	0.406089288
251.54	205.95700152	0.4101912
252.77	206.4287214	0.4101912
253.26	207.10553688	0.4101912
255.35	209.48464584	0.4101912
257.43	211.80222612	0.4101912
259.52	214.55050716	0.4101912
260.55	216.7860492	0.4101912
261.6	217.5038838	0.4101912
263.69	220.51878912	0.43070076
265.77	223.77980916	0.43070076
267.85	227.51254908	0.43070076
269.36	231.51191328	0.43070076
269.93	231.49140372	0.43070076
272	235.92146868	0.43070076
274.08	241.06936824	0.45121032
276.15	246.77102592	0.45121032
277.85	253.96988148	0.45121032
278.22	253.72376676	0.45121032

System: 1-methyl-3-propylimidazolium bromide; phases: Metastable crystal, Liquid, Gas
Property: Molar enthalpy of transition or fusion, kJ/mol (Metastable crystal); method: Adiabatic calorimetry
Molar enthalpy of transition or fusion, kJ/mol	uncertainty
21.4	0.3

System: 1-methyl-3-propylimidazolium bromide; phases: Glass, Liquid, Gas
Property: Triple point temperature, K (Glass); method: Adiabatic calorimetry
Triple point temperature, K	uncertainty
209	3

System: 1-methyl-3-propylimidazolium bromide; phases: Metastable crystal, Liquid, Gas
Property: Triple point temperature, K (Metastable crystal); method: Adiabatic calorimetry
Triple point temperature, K	uncertainty
310.4	0.5

System: 1-methyl-3-propylimidazolium bromide; phases: Metastable crystal
Fixed: Pressure, kPa = 101.325
Property: Molar heat capacity at constant pressure, J/K/mol (Metastable crystal); method: Small (less than 1 g) adiabatic calorimetry
Temperature, K	Molar heat capacity at constant pressure, J/K/mol	uncertainty
81.02	99.018104724	0.59477724
83.24	100.46607966	0.602981064
85.49	101.893545036	0.609133932
87.75	103.43996586	0.617337756
90.04	104.980233816	0.619388712
92.34	106.481533608	0.62554158
94.66	107.939763324	0.631694448
97	109.412349732	0.637847316
99.35	110.837764152	0.644000184
101.71	112.271382396	0.650153052
104.09	113.672185344	0.654254964
106.47	115.08939594	0.660407832
108.88	116.500453668	0.6665607
111.29	117.823320288	0.670662612
113.71	119.15028882	0.67681548
116.15	120.497766912	0.682968348
118.59	121.834990224	0.68707026
121.04	123.151703976	0.693223128
123.49	124.466366772	0.69732504
125.95	125.813844864	0.703477908
128.42	127.101845232	0.70757982
130.89	128.381641776	0.713732688
133.37	129.677845968	0.7178346
135.85	130.978152072	0.723987468
138.34	132.26615244	0.730140336
140.83	133.53774516	0.734242248
143.33	134.813439792	0.73834416
145.82	136.1322045	0.744497028
148.32	137.40379722	0.750649896
150.83	138.648727512	0.754751808
153.33	139.920320232	0.75885372
155.84	141.251390676	0.765006588
158.35	142.496320968	0.7691085
158.74	142.488117144	0.7691085
160.86	143.76176082	0.775261368
161.31	143.83354428	0.775261368
163.36	145.055914056	0.77936328
163.82	145.08462744	0.77936328
165.87	146.323404864	0.785516148
166.33	146.419799796	0.785516148
168.38	147.660628176	0.78961806
168.85	147.670882956	0.791669016
170.88	149.092195464	0.795770928
171.36	149.038870608	0.795770928
173.86	151.159559112	0.806025708
176.31	156.29310198	0.826535268
178.77	157.341140496	0.828586224
181.24	158.536847844	0.834739092
183.71	159.855612552	0.838841004
186.18	161.182581084	0.844993872
188.65	162.480836232	0.849095784
191.12	163.719613656	0.855248652
193.58	165.048633144	0.859350564
196.05	166.26074814	0.865503432
198.51	167.53234086	0.869605344
200.97	168.832646964	0.875758212
203.43	170.237551824	0.88191108
205.88	171.683475804	0.886012992
208.34	173.147858388	0.89216586
210.79	174.524049864	0.898318728
213.23	176.236598124	0.904471596
215.67	177.867108144	0.910624464
218.11	179.690408028	0.918828288
220.54	181.189656864	0.924981156
222.97	182.891950344	0.931134024
225.39	184.413759696	0.937286892
227.8	186.11400222	0.945490716
230.21	187.886028204	0.951643584
232.62	189.496028664	0.957796452
235.72	191.629022904	0.966000276
238.14	193.62050118	0.9742041
240.53	195.140259576	0.980356968
242.91	197.1994194	0.988560792
245.29	199.037075976	0.996764616
247.66	201.104439624	1.00496844
250.02	203.17795614	1.01319277356
252.37	205.32120516	1.0250678088
254.71	207.80286192	1.0250678088
257.05	210.1204422	1.04598756
259.38	212.62260852	1.04598756
261.69	215.4529278	1.0660869288
264	218.38579488	1.0660869288
266.29	221.46222888	1.08700668
268.56	224.84630628	1.1079264312
270.71	224.70273936	1.1079264312
270.82	229.03025652	1.1079264312
273.43	235.42923924	1.1489455512
275.18	235.92146868	1.1489455512
276.27	241.56159768	1.16904492
279.07	249.25268268	1.18955448
281.68	255.46707936	1.2309837912
281.81	258.3179082	1.2309837912
284.5	269.63918532	1.29210228
287.11	284.18046336	1.3329163044
287.83	291.748491	1.3739354244

System: 1-methyl-3-propylimidazolium bromide; phases: Glass
Fixed: Pressure, kPa = 101.325
Property: Molar heat capacity at constant pressure, J/K/mol (Glass); method: Small (less than 1 g) adiabatic calorimetry
Temperature, K	Molar heat capacity at constant pressure, J/K/mol	uncertainty
81.34	99.336002904	0.596828196
83.87	101.138793228	0.60503202
86.42	103.042080396	0.6152868
89	105.0089472	0.62554158
91.6	106.893775764	0.627592536
94.22	108.723228516	0.63579636
96.86	110.57729274	0.641949228
99.51	112.373930196	0.650153052
102.18	114.141854268	0.65630592
104.87	115.913880252	0.664509744
107.56	117.68385528	0.670662612
110.28	119.332823904	0.67681548
113	121.002302088	0.685019304
115.74	122.661525492	0.691172172
118.48	124.310494116	0.69732504
121.24	125.943055092	0.703477908
124.01	127.57971798	0.709630776
126.78	129.17946366	0.7178346
129.56	130.842788976	0.723987468
132.34	132.477400908	0.730140336
135.13	134.093554236	0.736293204
137.92	135.738420948	0.742446072
140.72	137.409950088	0.750649896
143.52	139.079428272	0.756802764
146.32	140.693530644	0.762955632
149.12	142.332244488	0.7691085
151.92	143.940193992	0.775261368
153.5	144.830308896	0.77936328
154.73	145.5666021	0.781414236
155.92	146.204449416	0.785516148
157.53	147.209417856	0.78961806
158.39	147.681137736	0.791669016
160.34	148.825571184	0.795770928
160.85	149.02246296	0.795770928
163.14	150.415062084	0.801923796
163.31	150.413011128	0.801923796
165.77	151.854833196	0.808076664
165.96	152.039419236	0.808076664
168.23	153.26794188	0.812178576
168.77	153.641215872	0.814229532
170.69	154.756935936	0.818331444
171.57	155.302490232	0.8203824
173.15	156.223369476	0.824484312
174.37	156.971968416	0.828586224
175.61	157.675446324	0.83063718
177.16	158.659905204	0.834739092
178.06	159.201357588	0.836790048
179.96	160.42577832	0.84089196
180.51	160.721115984	0.842942916
182.76	162.21011004	0.849095784
182.96	162.19985526	0.849095784
185.4	163.811906676	0.855248652
185.55	163.967779332	0.855248652
187.85	165.495741552	0.86140152
188.33	165.889525104	0.863452476
190.29	167.251359888	0.869605344
191.12	167.977398312	0.8716563
192.74	168.949551456	0.875758212
193.9	169.905296952	0.879860124
195.19	171.148176288	0.883962036
196.68	172.4853996	0.890114904
197.62	173.391922152	0.894216816
199.46	175.22342586	0.900369684
200.05	176.20788474	0.904471596
202.22	178.7920893	0.9229302
202.47	180.23801328	0.929083068
204.84	187.912690632	0.955745496
204.96	184.358383884	0.941388804
207.12	199.888222716	1.01110079844
207.61	195.99961014	0.996764616
209.31	214.38643068	1.08700668
210.02	225.97433208	1.1280258
211.34	239.57217036	1.16904492
213.27	257.86669788	1.25108316

System: 1-methyl-3-propylimidazolium bromide; phases: Liquid
Fixed: Pressure, kPa = 101.325
Property: Molar heat capacity at constant pressure, J/K/mol (Liquid); method: Small (less than 1 g) adiabatic calorimetry
Temperature, K	Molar heat capacity at constant pressure, J/K/mol	uncertainty
212.2	259.73306784	1.2309837912
214.46	259.09727148	1.2309837912
215.25	259.11778104	1.2309837912
216.73	260.04071124	1.2309837912
217.24	259.99969212	1.2309837912
219.01	260.43039288	1.25108316
219.24	260.34835464	1.25108316
221.23	260.6765076	1.25108316
221.29	260.79956496	1.25108316
223.23	261.00466056	1.25108316
223.57	261.14822748	1.25108316
225.24	261.2917944	1.25108316
225.86	261.57892824	1.25108316
227.24	261.74300472	1.25108316
228.15	262.009629	1.25108316
229.25	262.2147246	1.25108316
230.44	262.44032976	1.25108316
231.26	262.64542536	1.25108316
232.74	263.07612612	1.25108316
233.27	263.01459744	1.25108316
235.03	263.48631732	1.25108316
235.28	263.42478864	1.25108316
237.29	263.79396072	1.25108316
237.33	263.8554894	1.25108316
239.3	264.20415192	1.25108316
239.63	264.38873796	1.25108316
241.32	264.75791004	1.25108316
241.93	265.02453432	1.25108316
243.34	265.1886108	1.25108316
244.23	265.57829244	1.2720029112
245.35	265.598802	1.2720029112
246.54	266.09103144	1.2720029112
247.37	266.15256012	1.2720029112
248.84	267.46517196	1.2720029112
249.39	266.7268278	1.2720029112
251.41	267.30109548	1.2720029112
253.43	267.81383448	1.2720029112
255.45	268.34708304	1.2720029112
257.47	268.83931248	1.2720029112
259.49	269.3930706	1.2720029112
261.52	269.96733828	1.2720029112
261.65	270.17243388	1.2720029112
263.54	270.50058684	1.29210228
263.7	270.4185486	1.2720029112
265.56	271.09536408	1.29210228
265.73	270.91077804	1.29210228
267.58	271.73116044	1.29210228
267.75	271.66963176	1.29210228
269.61	272.264409	1.29210228
269.77	272.20288032	1.29210228
272.05	273.02326272	1.29210228
274.59	273.92568336	1.29210228
277.13	274.6230084	1.29210228
279.67	275.29982388	1.29210228
282.22	276.12020628	1.3130220312
284.76	277.00211736	1.3130220312
287.31	277.78148064	1.3130220312
289.86	278.56084392	1.3130220312
292.42	279.52479324	1.3130220312
294.97	280.38619476	1.3130220312
297.52	281.16555804	1.3329163044
300.09	282.12950736	1.3329163044
302.65	282.97039932	1.3329163044
305.21	283.79078172	1.3329163044
307.77	284.73422148	1.3329163044
310.34	285.67766124	1.3329163044
312.44	286.12887156	1.3540411512
315.01	287.07231132	1.3540411512
317.56	287.97473196	1.3540411512
320.1	288.89766216	1.3540411512
322.63	289.73855412	1.3540411512
325.17	290.68199388	1.3540411512
327.71	291.56390496	1.3739354244
330.24	292.54836384	1.3739354244
332.78	293.40976536	1.3739354244
335.3	294.47626248	1.3739354244
337.83	295.37868312	1.3739354244
340.36	295.97346036	1.3739354244
342.88	296.85537144	1.3950602712
345.4	297.86033988	1.3950602712
347.92	298.80377964	1.3950602712
350.44	299.62416204	1.3950602712
352.95	300.40352532	1.3950602712
355.46	301.36747464	1.4149545444
357.97	302.26989528	1.4149545444
359.15	302.70059604	1.4149545444
360.47	303.2338446	1.4149545444
361.69	304.73104248	1.4149545444
362.97	304.73104248	1.4149545444
364.23	305.77703004	1.4149545444
366.73	305.51040576	1.4149545444

System: 1-methyl-3-propylimidazolium bromide; phases: Liquid
Fixed: Pressure, kPa = 101.325
Property: Molar heat capacity at constant pressure, J/K/mol (Liquid); method: Small (less than 1 g) adiabatic calorimetry
Temperature, K	Molar heat capacity at constant pressure, J/K/mol	uncertainty
217.09	259.63052004	1.23879793356
217.9	259.50746268	1.23879793356
219.18	259.87663476	1.23879793356
219.98	259.87663476	1.23879793356
222.07	260.22529728	1.24080787044
224.16	260.59446936	1.24289984556
226.24	260.96364144	1.24289984556
228.33	261.35332308	1.24490978244
230.42	261.8045334	1.246981248
232.51	262.23523416	1.249032204
234.61	262.58389668	1.25110366956
236.7	263.11714524	1.25309309688
238.79	264.32720928	1.25719500888
240.21	263.91701808	1.25520558156
240.89	264.51179532	1.25719500888
242.32	264.51179532	1.25719500888
244.42	265.00402476	1.25930749356
246.52	265.55778288	1.26129692088
248.62	266.07052188	1.26340940556
250.73	266.58326088	1.26539883288
252.83	267.15752856	1.26950074488
254.93	267.62924844	1.26950074488
257.03	268.2650448	1.27360265688
259.14	268.90084116	1.275694632
261.24	269.33154192	1.27770456888
263.34	269.94682872	1.279796544
265.44	270.58262508	1.28180648088
267.55	271.238931	1.28590839288
269.67	271.60810308	1.28590839288
271.87	272.34644724	1.29009234312
273.97	272.85918624	1.29210228
276.07	273.67956864	1.29419425512
278.17	274.27434588	1.296204192
280.27	274.91014224	1.300306104
282.37	275.5459386	1.30239807912
284.47	276.32530188	1.304408016
286.57	276.87906	1.308509928
288.67	277.5968946	1.31060190312
290.76	278.25320052	1.31259133044
292.85	278.99154468	1.31669324244

System: 1-methyl-3-propylimidazolium bromide; phases: Glass, Gas
Property: Molar heat capacity at saturation pressure, J/K/mol (Glass); method: Small (less than 1 g) adiabatic calorimetry
Temperature, K	Molar heat capacity at saturation pressure, J/K/mol	uncertainty
80.55	98.60996448	0.592726284
82.89	100.33276752	0.600930108
84.9	101.66588892	0.609133932
86.92	103.14257724	0.6152868
88.94	104.66028468	0.623490624
90.96	106.136973	0.62554158
92.98	107.59315176	0.629643492
95	109.04933052	0.63579636
97.02	110.46449016	0.641949228
99.05	111.81812112	0.648102096
101.08	113.17175208	0.652204008
103.11	114.52538304	0.658356876
105.14	115.79697576	0.662458788
107.17	117.19162584	0.668611656
109.2	118.42219944	0.674764524
111.24	119.73481128	0.678866436
113.29	120.92436576	0.682968348
115.33	122.19595848	0.689121216
117.37	123.40602252	0.693223128
119.41	124.67761524	0.699375996
121.46	125.822048688	0.703477908
123.5	127.007501256	0.70757982
125.55	128.158087572	0.713732688
127.6	129.310724844	0.7178346
129.65	130.51258506	0.721936512
131.7	131.689833804	0.726038424
133.75	132.940916964	0.732191292
135.8	134.109961884	0.736293204
137.86	135.272853936	0.740395116
139.91	136.513682316	0.746547984
141.97	137.658115764	0.750649896
144.02	138.894842232	0.754751808
146.09	140.078243844	0.760904676
148.15	141.286256928	0.765006588
150.21	142.465556628	0.7691085
152.27	143.704334052	0.775261368
154.33	144.85902228	0.77936328
156.39	146.03832198	0.783465192
158.46	147.236080284	0.78961806
160.52	148.421532852	0.793719972
162.58	149.590577772	0.797821884
164.65	150.75552078	0.803974752
166.71	151.9758396	0.808076664
168.78	153.148986432	0.812178576
170.84	154.377509076	0.818331444
172.91	155.610133632	0.822433356
174.97	156.797637156	0.826535268
177.04	158.044618404	0.832688136
179.11	159.2567334	0.836790048
181.18	160.49756178	0.842942916
183.25	161.867600388	0.847044828
185.32	163.210976568	0.853197696
187.39	164.556403704	0.859350564
189.46	165.916187532	0.863452476
191.53	167.360060556	0.869605344
193.61	168.949551456	0.875758212
195.69	170.655946848	0.88191108
197.77	172.380800844	0.890114904
199.86	174.39278868	0.898318728
201.95	176.90520978	0.908573508
202.67	177.344114364	0.910624464
204.04	179.870892156	0.920879244
205.14	181.794688884	0.929083068
206.12	184.419912564	0.939337848
207.25	188.125990056	0.955745496
208.16	192.201239628	0.976255056
209.29	200.69629938	1.01729468556
210.11	209.197512	1.078802856
211.19	228.94821828	1.162892052
211.92	238.5261828	1.18959549912
213.01	255.28249332	1.23879793356
213.79	257.1898824	1.22850213444
215.01	258.33841776	1.23260404644
215.82	258.85115676	1.23469602156

System: water + 1-butyl-3-methylimidazolium bromide; phases: Glass
Fixed: Mass fraction of water = 0.00482
Fixed: Pressure, kPa = 101.3
Property: Molar heat capacity at constant pressure, J/K/mol (Glass); method: Small (less than 1 g) adiabatic calorimetry
Temperature, K	Molar heat capacity at constant pressure, J/K/mol	uncertainty
82.79	103.5553	0.6176
85.01	105.3207	0.6259
87.51	107.3584	0.6363
90.01	109.3047	0.6384
92.52	111.3175	0.6446
95.02	113.2346	0.6529
99.79	116.703	0.6675
102.06	118.3124	0.6737
104.58	120.0673	0.6799
107.1	121.7807	0.6883
109.63	123.5107	0.6945
112.16	125.2096	0.7007
114.69	126.8626	0.707
117.23	128.4824	0.7132
119.76	130.0898	0.7195
122.3	131.7408	0.7278
124.85	133.4042	0.734
127.39	135.0116	0.7402
129.94	136.5815	0.7465
132.49	138.2033	0.7527
135.04	139.7795	0.759
137.59	141.4014	0.7652
140.15	142.9463	0.7714
142.71	144.5703	0.7777
145.27	146.3107	0.786
147.83	147.891	0.7922
150.39	149.4463	0.7985
152.96	151.0412	0.8047
155.53	152.5903	0.8109
158.09	154.1685	0.8172
160.66	155.7717	0.8234
163.24	157.379	0.8297
165.81	158.9635	0.8359
168.39	160.5708	0.8421
170.97	162.1095	0.8484
173.55	163.7751	0.8546
176.13	165.3512	0.8608
178.71	167.0272	0.8692
181.3	168.7031	0.8754
183.89	170.4082	0.8816
186.48	172.0405	0.8879
189.06	173.7767	0.8962
191.65	175.6044	0.9024
194.25	177.4384	0.9108
196.84	179.314	0.917
199.44	181.3434	0.9253
201.78	183.3916	0.9336
203.87	185.2297	0.9419
205.95	187.6251	0.9503
208.05	190.5715	0.9627
210.13	194.1064	0.9773
212.18	199.2445	1.0002
214.19	209.1816	1.04
216.1	229.4552	1.144

System: water + 1-butyl-3-methylimidazolium bromide; phases: Liquid
Fixed: Pressure, kPa = 101
Property: Molar heat capacity at constant pressure, J/K/mol (Liquid); method: Small (less than 1 g) adiabatic calorimetry
Temperature, K	Mass fraction of water	Molar heat capacity at constant pressure, J/K/mol	uncertainty
209.63	0.0495	190.6306	0.96
211.86	0.0495	190.9835	0.96
213.95	0.0495	191.3222	0.96
216.04	0.0495	191.7033	0.974
218.13	0.0495	191.9714	0.974
220.21	0.0495	192.423	0.974
221.78	0.00482	273.7451	1.289
222.3	0.0495	192.9311	0.974
223.87	0.00482	274.3482	1.289
224.39	0.0495	193.3545	0.974
225.97	0.00482	274.972	1.31
226.48	0.0495	193.7779	0.974
228.05	0.00482	275.4086	1.31
228.57	0.0495	194.3001	0.974
230.14	0.00482	275.97	1.31
230.66	0.0495	194.8929	0.974
232.23	0.00482	276.4691	1.31
232.75	0.0495	195.5986	0.988
234.32	0.00482	276.9265	1.31
236.41	0.00482	277.3632	1.31
238.51	0.00482	278.0078	1.31
240.59	0.00482	278.6316	1.31
242.68	0.00482	279.297	1.31
244.77	0.00482	280.0247	1.31
246.87	0.00482	280.5446	1.331
248.96	0.00482	281.1684	1.331
256.19	0.0495	201.2722	1.002
258.42	0.0495	201.8932	1.002
260.51	0.0495	202.4436	1.016
262.59	0.0495	203.1493	1.016
264.68	0.0495	203.6574	1.016
266.76	0.0495	204.2784	1.016
268.85	0.0495	204.8288	1.016
271.36	0.0495	205.6897	1.016
274.29	0.0495	206.4801	1.03
277.23	0.0495	207.2563	1.03
280.16	0.0495	208.1313	1.03
283.1	0.0495	209.0628	1.03
286.03	0.0495	209.952	1.044
288.97	0.0495	210.9117	1.044
291.91	0.0495	211.7162	1.044
294.84	0.0495	212.7182	1.044
297.78	0.0495	213.4662	1.059
300.72	0.0495	214.4118	1.059
303.65	0.0495	215.4139	1.059
306.59	0.0495	216.4442	1.073
309.53	0.0495	217.3898	1.073
312.47	0.0495	218.3495	1.073
315.41	0.0495	219.3092	1.073
321.27	0.0495	221.2145	1.087
330.56	0.0495	224.1219	1.101
333.86	0.0495	225.9566	1.101
337.13	0.0495	227.1845	1.115
340.39	0.0495	228.3842	1.115
343.64	0.0495	229.5132	1.115
346.87	0.0495	230.6282	1.129
350.08	0.0495	232.0537	1.129
352.35	0.0169	289.8078	1.364
353.26	0.0495	232.6464	1.129
355.87	0.0051	320.9714	1.493
356.41	0.0495	233.9308	1.129
357.85	0.00482	320.3016	1.476
358.14	0.0169	293.3656	1.383
358.58	0.0051	322.63	1.493
361.53	0.0495	236.3865	1.143
363.43	0.0169	295.5962	1.383
364.71	0.0495	237.6003	1.157
367.1	0.00482	323.6285	1.497
367.89	0.0495	238.5317	1.157

System: water + 1-butyl-3-methylimidazolium bromide; phases: Crystal, Gas
Property: Molar heat capacity at constant pressure, J/K/mol (Crystal); method: Small (less than 1 g) adiabatic calorimetry
Temperature, K	Mass fraction of water	Molar heat capacity at constant pressure, J/K/mol	uncertainty
80.69	0.00482	98.88926	0.5947
80.93	0.0051	98.89743	0.595
81.42	0.0169	89.10468	0.5457
83.2	0.00482	100.6463	0.603
83.26	0.0051	100.4482	0.6033
83.41	0.0169	90.19232	0.5512
84.28	0.0495	71.58069	0.4587
85.41	0.0169	91.49932	0.5586
85.62	0.0051	101.9284	0.6095
85.71	0.00482	102.2224	0.6113
86.99	0.0495	72.97087	0.4643
87.41	0.0169	92.7971	0.5641
87.99	0.0051	103.5476	0.6178
88.22	0.00482	103.9462	0.6196
89.41	0.0169	94.12254	0.5715
89.64	0.0495	74.28625	0.4714
90.39	0.0051	105.1937	0.622
90.73	0.00482	105.6284	0.6217
91.42	0.0169	95.27469	0.5807
92.3	0.0495	75.61432	0.5024
92.8	0.0051	106.8149	0.6282
93.24	0.00482	107.294	0.63
93.42	0.0169	96.42869	0.5862
94.99	0.0495	76.90288	0.5081
95.24	0.0051	108.3159	0.6344
95.42	0.0169	97.65642	0.5899
95.77	0.00482	108.8576	0.6363
97.43	0.0169	98.68322	0.5954
97.68	0.0051	109.8045	0.6385
97.69	0.0495	78.15616	0.5123
98.29	0.00482	110.415	0.6425
99.44	0.0169	99.85196	0.5991
100.14	0.0051	111.3158	0.6448
100.41	0.0495	79.41226	0.518
100.82	0.00482	111.935	0.6488
101.45	0.0169	101.0502	0.6046
102.61	0.0051	112.7961	0.651
103.15	0.0495	80.6613	0.5222
103.35	0.00482	113.3989	0.6529
103.46	0.0169	102.1673	0.6083
105.09	0.0051	114.1893	0.6572
105.47	0.0169	103.1222	0.612
105.88	0.00482	114.8898	0.6592
105.9	0.0495	81.8186	0.5278
107.49	0.0169	104.2873	0.6176
107.59	0.0051	115.7214	0.6634
108.42	0.00482	116.3308	0.6654
108.67	0.0495	83.08458	0.5321
109.51	0.0169	105.2551	0.6212
110.1	0.0051	117.1394	0.6696
110.97	0.00482	117.753	0.6716
111.45	0.0495	84.26729	0.5377
111.54	0.0169	106.1971	0.6249
112.61	0.0051	118.5368	0.6738
113.51	0.00482	119.1732	0.6758
113.57	0.0169	107.3456	0.6286
114.24	0.0495	85.49516	0.542
115.14	0.0051	119.959	0.68
115.6	0.0169	108.3576	0.6341
116.06	0.00482	120.6059	0.682
117.04	0.0495	86.65388	0.5462
117.63	0.0169	109.3936	0.6378
117.68	0.0051	121.2962	0.6862
118.63	0.00482	121.9263	0.6883
119.66	0.0169	110.4241	0.6415
119.84	0.0495	87.82812	0.5518
120.23	0.0051	122.7495	0.6904
121.18	0.00482	123.3548	0.6945
121.69	0.0169	111.4583	0.6452
122.66	0.0495	89.008	0.5561
122.78	0.0051	124.0867	0.6966
123.73	0.0169	112.3929	0.6489
123.74	0.00482	124.7126	0.6987
125.34	0.0051	125.4612	0.7028
125.48	0.0495	90.15261	0.5603
125.77	0.0169	113.3423	0.6526
126.3	0.00482	126.0413	0.7049
127.81	0.0169	114.4244	0.6581
127.91	0.0051	126.7694	0.707
128.32	0.0495	91.33814	0.566
128.86	0.00482	127.397	0.7091
129.85	0.0169	115.3314	0.6618
130.48	0.0051	128.2144	0.7132
131.16	0.0495	92.51944	0.5702
131.42	0.00482	128.7507	0.7153
131.9	0.0169	116.36	0.6655
133.06	0.0051	129.5765	0.7194
133.95	0.0169	117.3979	0.6692
134	0.00482	130.1251	0.7215
134	0.0495	93.64569	0.5744
135.64	0.0051	131.0008	0.7235
136	0.0169	118.3491	0.6729
136.57	0.00482	131.4684	0.7257
136.85	0.0495	94.81287	0.5787
138.05	0.0169	119.4349	0.6784
139.14	0.00482	132.7867	0.7319
139.19	0.0051	132.5142	0.7298
139.7	0.0495	95.9857	0.5843
140.1	0.0169	120.2368	0.6802
141.87	0.0051	133.8784	0.736
142.16	0.0169	121.2949	0.6858
142.55	0.0495	97.17265	0.5885
143.39	0.00482	135.0012	0.7402
144.23	0.0169	122.3586	0.6894
144.46	0.0051	135.4167	0.7422
145.41	0.0495	98.38499	0.5942
145.73	0.00482	136.2612	0.7444
146.29	0.0169	123.4259	0.6931
147.05	0.0051	136.7166	0.7463
148.27	0.0495	99.57758	0.5984
148.31	0.00482	137.6087	0.7506
148.35	0.0169	124.3771	0.6968
149.65	0.0051	138.0559	0.7526
150.42	0.0169	125.3007	0.7005
150.89	0.00482	138.8708	0.7548
151.13	0.0495	100.8323	0.6041
152.25	0.0051	139.4553	0.7588
152.48	0.0169	126.3754	0.706
153.47	0.00482	140.3201	0.761
154	0.0495	102.0658	0.6083
154.55	0.0169	127.3211	0.7097
154.86	0.0051	140.7614	0.7629
156.05	0.00482	141.705	0.7673
156.62	0.0169	128.4585	0.7134
156.86	0.0495	103.5364	0.6139
157.46	0.0051	142.1919	0.7692
158.64	0.00482	143.0461	0.7714
158.69	0.0169	129.5369	0.7189
159.72	0.0495	105.0324	0.6196
160.06	0.0051	143.5996	0.7754
160.76	0.0169	130.5803	0.7226
161.22	0.00482	144.5162	0.7777
162.58	0.0495	107.1198	0.6295
162.67	0.0051	145.0384	0.7795
162.83	0.0169	131.8099	0.7282
163.81	0.00482	145.9822	0.7839
164.91	0.0169	133.351	0.7337
165.35	0.0051	146.8897	0.7878
165.42	0.0495	110.4252	0.6436
166.4	0.00482	147.419	0.7901
166.98	0.0169	135.2756	0.7411
167.95	0.0051	148.6022	0.794
168.2	0.0495	119.3675	0.6831
168.99	0.00482	148.9868	0.7964
169.05	0.0169	138.5846	0.7558
170.54	0.0051	150.9781	0.8044
170.84	0.0495	133.8663	0.7395
171.1	0.0169	143.3425	0.7742
171.58	0.00482	150.6856	0.8026
173.12	0.0051	153.7209	0.8148
173.15	0.0169	146.2975	0.7853
173.43	0.0495	137.8942	0.7522
174.17	0.00482	152.557	0.8109
175.22	0.0169	148.1668	0.7927
175.7	0.0051	155.5805	0.8231
176.02	0.0495	137.2535	0.7494
176.76	0.00482	154.5158	0.8172
177.3	0.0169	149.6028	0.7982
178.27	0.0051	157.0463	0.8293
178.63	0.0495	136.8329	0.748
179.35	0.00482	156.3165	0.8255
179.39	0.0169	150.7494	0.8037
180.85	0.0051	158.4996	0.8334
181.26	0.0495	136.8484	0.748
181.47	0.0169	151.7338	0.8074
181.94	0.00482	158.0881	0.8317
182.13	0.0495	137.0333	0.748
183.43	0.0051	159.9301	0.8396
183.55	0.0169	152.6943	0.8111
183.89	0.0495	137.2521	0.7494
184.55	0.00482	159.9699	0.8401
184.8	0.0495	137.3255	0.7494
185.63	0.0169	153.616	0.8148
186	0.0051	161.23	0.8459
186.52	0.0495	137.8787	0.7508
187.15	0.00482	161.4753	0.8463
187.43	0.0495	137.8166	0.7508
187.72	0.0169	154.6354	0.8185
188.57	0.0051	162.6709	0.85
189.16	0.0495	138.5124	0.7537
189.75	0.00482	163.1034	0.8525
189.81	0.0169	155.6548	0.8222
190.07	0.0495	138.4404	0.7537
191.13	0.0051	164.0454	0.8562
191.82	0.0495	139.2336	0.7565
191.89	0.0169	156.6282	0.8259
192.35	0.00482	164.6567	0.8588
192.72	0.0495	139.2167	0.7565
193.7	0.0051	165.5008	0.8624
193.98	0.0169	157.5573	0.8295
194.48	0.0495	139.8842	0.7593
194.95	0.00482	166.0998	0.865
195.38	0.0495	139.9887	0.7593
196.08	0.0169	158.6136	0.8351
196.26	0.0051	166.8939	0.8687
197.16	0.0495	140.429	0.7621
197.55	0.00482	167.5512	0.8712
198.05	0.0495	140.7494	0.7635
198.17	0.0169	159.5943	0.8388
198.82	0.0051	168.2975	0.8728
200.15	0.00482	169.0005	0.8754
200.26	0.0169	160.5307	0.8425
200.73	0.0495	141.5016	0.762
201.38	0.0051	169.6617	0.879
202.36	0.0169	161.4893	0.8461
202.75	0.00482	170.6702	0.8837
203.43	0.0495	142.3202	0.776
203.93	0.0051	171.2352	0.8853
204.46	0.0169	162.4995	0.8498
205.36	0.00482	172.1631	0.8879
206.48	0.0051	172.9021	0.8915
206.55	0.0169	163.5448	0.8535
207.97	0.00482	173.7122	0.8941
208.05	0.0495	144.9171	0.776
208.65	0.0169	164.5015	0.8572
209.03	0.0051	175.0167	0.8998
210.59	0.00482	175.2073	0.9004
210.75	0.0495	151.127	0.804
210.77	0.0169	165.473	0.8627
211.56	0.0051	176.6981	0.906
212.87	0.0169	166.5496	0.8664
213.21	0.00482	176.7314	0.9066
213.38	0.0495	150.252	0.804
214.1	0.0051	177.3014	0.9101
214.97	0.0169	167.6888	0.8701
215.83	0.00482	178.2535	0.9128
215.99	0.0495	154.6695	0.819
216.64	0.0051	178.8915	0.9164
216.82	0.00482	178.6486	0.9149
217.07	0.0169	169.0493	0.8756
217.64	0.0169	168.8023	0.8756
218.45	0.00482	179.8068	0.9191
218.58	0.0495	158.9318	0.833
218.67	0.00482	179.8213	0.9191
219.16	0.0051	180.492	0.9226
219.16	0.0169	170.7379	0.8849
219.92	0.0169	174.7898	0.8996
220.75	0.00482	181.0294	0.9253
221.08	0.00482	181.3725	0.9253
221.13	0.0495	162.8271	0.847
221.26	0.0169	172.668	0.8904
221.69	0.0051	182.1899	0.9288
221.98	0.0169	175.2138	0.9014
222.83	0.00482	182.2375	0.9295
223.35	0.0169	174.917	0.8996
223.65	0.0495	166.2708	0.861
224.06	0.0169	176.9337	0.907
224.22	0.0051	184.1698	0.9371
224.86	0.00482	183.1857	0.9336
225.43	0.0169	177.2139	0.9088
226.12	0.0169	179.1698	0.9162
226.16	0.0495	169.5028	0.875
226.71	0.00482	184.712	0.9399
226.73	0.0051	185.9155	0.9433
227.52	0.0169	179.4961	0.918
228.19	0.0169	181.4022	0.9254
228.65	0.0495	172.6501	0.889
228.79	0.00482	185.7703	0.944
229.25	0.0051	187.9493	0.9516
229.6	0.0169	181.8428	0.9273
229.71	0.0051	187.4662	0.9495
230.25	0.0169	183.7803	0.9346
230.87	0.00482	187.2966	0.9503
231.12	0.0495	175.4022	0.903
231.45	0.0051	188.82	0.9557
231.69	0.0169	184.3997	0.94
231.75	0.0051	189.6908	0.9599
232.32	0.0169	185.9297	0.94
232.95	0.00482	188.7396	0.9544
233	0.0051	190.2153	0.9599
233.57	0.0495	178.3943	0.917
233.77	0.0169	186.4459	0.94
234.38	0.0169	187.9391	0.959
234.56	0.0051	191.2083	0.964
235.03	0.00482	190.1702	0.9607
235.85	0.0169	188.9345	0.959
236.01	0.0495	181.5839	0.931
236.12	0.0051	192.218	0.9682
236.45	0.0169	189.9853	0.959
237.1	0.00482	191.6985	0.9669
237.67	0.0051	193.4805	0.9744
237.94	0.0169	190.9807	0.959
238.43	0.0495	184.703	0.946
238.52	0.0169	191.9762	0.977
239.18	0.00482	193.2102	0.9731
239.22	0.0051	194.6478	0.9785
240.02	0.0169	193.1929	0.977
240.19	0.00482	193.4306	0.9731
240.58	0.0169	194.0962	0.977
240.74	0.0051	195.2739	0.9806
240.77	0.0051	195.703	0.9827
240.84	0.0495	187.4833	0.946
241.25	0.00482	195.0775	0.9814
241.57	0.00482	194.8841	0.9794
242.11	0.0169	195.3866	0.977
242.23	0.0051	196.6048	0.9868
242.33	0.0051	196.8578	0.9868
242.65	0.0169	196.253	0.977
243.11	0.00482	195.5703	0.9814
243.23	0.0495	190.7012	0.96
243.33	0.00482	196.5829	0.9856
243.57	0.0051	197.6228	0.991
243.88	0.0051	198.025	0.9931
244.2	0.0169	197.525	0.995
244.66	0.00482	197.1464	0.9877
244.72	0.0169	198.2623	0.995
244.91	0.0051	198.423	0.9931
245.41	0.00482	198.2422	0.9939
245.43	0.0051	199.1611	0.9972
245.6	0.0495	193.8767	0.974
246.12	0.00482	197.87	0.9918
246.21	0.00482	198.683	0.9939
246.25	0.0051	199.4679	0.9972
246.28	0.0169	199.774	0.995
246.78	0.0169	200.4192	0.995
246.98	0.0051	200.2931	1.0014
247.48	0.00482	199.9847	1.0002
247.59	0.0051	200.4879	1.0014
247.77	0.00482	200.1968	1.0002
247.97	0.0495	197.0099	0.988
248.37	0.0169	201.9677	1.014
248.53	0.0051	201.4354	1.0055
248.85	0.0169	202.5023	1.014
248.93	0.0051	201.6054	1.0076
249.33	0.00482	201.3342	1.0064
249.56	0.00482	201.6149	1.0064
250.07	0.0051	202.6316	1.0096
250.26	0.0051	202.6627	1.0117
250.31	0.0495	200.1713	1.002
250.45	0.0169	204.1429	1.014
250.89	0.00482	202.5922	1.0106
250.91	0.0169	204.7697	1.014
251.6	0.0051	203.8755	1.0159
251.64	0.00482	203.374	1.0126
252.15	0.0051	204.5576	1.0179
252.45	0.00482	203.6173	1.0147
252.53	0.0169	206.3551	1.032
252.64	0.0495	203.4033	1.016
252.93	0.0051	205.051	1.02
252.97	0.0169	206.9634	1.032
253.72	0.00482	205.3764	1.021
253.96	0.00482	204.4969	1.0189
254	0.00482	205.0895	1.021
254.27	0.0051	206.0835	1.0242
254.62	0.0169	208.6041	1.032
254.74	0.0051	206.5686	1.0262
254.95	0.0495	206.7059	1.03
255.04	0.0169	209.1202	1.032
255.56	0.00482	206.283	1.0251
255.6	0.0051	207.1926	1.0283
255.8	0.00482	206.9588	1.0272
255.99	0.00482	206.2456	1.0251
256.7	0.0169	211.0005	1.051
256.94	0.0051	208.2313	1.037
257.1	0.0169	211.5167	1.051
257.12	0.00482	207.3206	1.0293
257.24	0.0495	210.079	1.044
257.33	0.0051	208.6045	1.037
257.89	0.00482	208.4539	1.04
258.27	0.0051	209.3508	1.037
258.32	0.00482	208.2251	1.04
258.68	0.00482	208.4123	1.04
258.78	0.0169	213.397	1.051
259.16	0.0169	213.8026	1.051
259.51	0.0495	213.4803	1.059
259.61	0.0051	210.4703	1.037
259.93	0.0051	210.8228	1.037
259.98	0.00482	210.4916	1.04
260.24	0.00482	209.9718	1.04
260.65	0.00482	210.2005	1.04
260.87	0.0169	215.7566	1.069
260.94	0.0051	211.7972	1.057
261.22	0.0169	216.3281	1.069
261.77	0.0495	217.0793	1.073
262.06	0.00482	211.9264	1.04
262.28	0.0051	212.8752	1.057
262.52	0.0051	213.0618	1.057
262.95	0.0169	218.3928	1.088
262.98	0.00482	212.0927	1.04
263.28	0.0169	218.7799	1.069
263.78	0.0051	214.3472	1.057
264.01	0.0495	220.8052	1.087
264.14	0.00482	213.8186	1.06
265.04	0.0169	221.0289	1.106
265.12	0.0051	215.3631	1.057
265.24	0.0051	215.6533	1.057
265.32	0.00482	214.0473	1.06
265.34	0.0169	221.4713	1.088
266.23	0.0495	224.5594	1.101
266.24	0.00482	216.3138	1.06
266.58	0.0051	216.8558	1.057
267.13	0.0169	223.7019	1.106
267.4	0.0169	224.1443	1.106
267.66	0.00482	216.0434	1.06
267.71	0.0051	217.6851	1.078
268.43	0.0495	228.483	1.115
269.22	0.0169	226.5776	1.106
269.45	0.0169	226.9832	1.106
270	0.00482	218.0604	1.081
270.31	0.0051	220.1314	1.078
270.61	0.0495	232.4065	1.129
271.3	0.0169	229.4903	1.125
271.51	0.0169	229.8221	1.125
272.34	0.00482	220.1605	1.081
272.91	0.0051	222.6192	1.099
273.18	0.0495	242.0037	1.171
273.57	0.0169	232.7716	1.125
275.36	0.00482	223.1132	1.102
275.51	0.0051	225.1693	1.099
275.62	0.0169	235.9423	1.143
276.24	0.0495	247.2821	1.186
277.2	0.00482	225.0054	1.102
278.11	0.0051	227.74	1.12
279.23	0.0169	242.2285	1.161
279.26	0.0495	254.6493	1.214
279.32	0.00482	227.2719	1.123
279.78	0.00482	229.5384	1.123
280.71	0.0051	230.4766	1.12
281.42	0.00482	229.4552	1.123
282.24	0.0495	262.5529	1.256
283.31	0.0051	233.234	1.14
283.5	0.00482	230.682	1.123
284.39	0.0169	251.4273	1.198
285.17	0.0495	271.1762	1.284
285.58	0.00482	233.697	1.144
285.91	0.0051	236.2401	1.14
287.66	0.00482	235.6724	1.144
288.14	0.0495	280.2229	1.327
288.51	0.0051	239.2462	1.161
289.53	0.0169	262.0086	1.254
289.74	0.00482	238.0429	1.144
290.97	0.0495	290.3987	1.369
291.11	0.0051	242.5426	1.161
291.83	0.00482	240.7252	1.164
293.7	0.0051	246.1085	1.182
293.74	0.0495	300.5746	1.4113
293.9	0.00482	243.1996	1.164
294.65	0.0169	274.415	1.29
295.05	0.00482	246.5266	1.185
295.98	0.00482	245.882	1.185
296.3	0.0051	249.7988	1.202
296.46	0.0495	310.9762	1.4396
298.06	0.00482	248.8346	1.206
298.89	0.0051	253.8415	1.223
299.11	0.0495	321.3637	1.4819
299.76	0.0169	289.8262	1.364
300.14	0.00482	252.2656	1.206
301.49	0.0051	258.2781	1.244
301.7	0.0495	332.598	1.5384
303.76	0.00482	260.0423	1.248
304.07	0.0051	263.0672	1.244
304.21	0.0495	344.6791	1.5807
306.66	0.0051	268.7892	1.285
306.66	0.0495	358.214	1.6372
309.04	0.0495	371.904	1.6936
309.23	0.0051	274.9466	1.306
311.81	0.0051	281.9125	1.327
314.38	0.0051	289.8114	1.368
