Measured thermophysical data. Thermodynamic properties of naphthoxazole and naphthothiazole derivatives: Experimental and computational studies
Source: J. Chem. Thermodyn., 2018, 10.1016/j.jct.2018.07.008
Compound 1: carbon dioxide, CO2, InChI=1S/CO2/c2-1-3
Compound 2: nitrogen, N2, InChI=1S/N2/c1-2
Compound 3: water, H2O, InChI=1S/H2O/h1H2
Compound 4: oxygen, O2, InChI=1S/O2/c1-2
Compound 5: sulfuric acid, H2O4S, InChI=1S/H2O4S/c1-5(2,3)4/h(H2,1,2,3,4)
Compound 6: 2-methylnaphtho[1,2-d]oxazole, C12H9NO, InChI=1S/C12H9NO/c1-8-13-12-10-5-3-2-4-9(10)6-7-11(12)14-8/h2-7H,1H3
Compound 7: 2-methylnaphtho[2,3-d]oxazole, C12H9NO, InChI=1S/C12H9NO/c1-8-13-11-6-9-4-2-3-5-10(9)7-12(11)14-8/h2-7H,1H3
Compound 8: 2-methylnaphtho[1,2-d]thiazole, C12H9NS, InChI=1S/C12H9NS/c1-8-13-12-10-5-3-2-4-9(10)6-7-11(12)14-8/h2-7H,1H3

System: 2-methylnaphtho[1,2-d]oxazole; phases: Liquid, Gas
Property: Molar enthalpy of vaporization or sublimation, kJ/mol (Liquid); method: Static calorimetry
Temperature, K	Molar enthalpy of vaporization or sublimation, kJ/mol	uncertainty
298.15	74	1.3

System: 2-methylnaphtho[2,3-d]oxazole; phases: Crystal, Liquid, Air at 1 atmosphere
Property: Normal melting temperature, K (Crystal); method: DTA
Normal melting temperature, K	uncertainty
359.27	0.39

System: 2-methylnaphtho[2,3-d]oxazole; phases: Crystal, Liquid, Air at 1 atmosphere
Property: Molar enthalpy of transition or fusion, kJ/mol (Crystal); method: DSC
Molar enthalpy of transition or fusion, kJ/mol	uncertainty
18.24	0.49

System: 2-methylnaphtho[2,3-d]oxazole; phases: Crystal, Gas
Property: Molar enthalpy of vaporization or sublimation, kJ/mol (Crystal); method: Static calorimetry
Temperature, K	Molar enthalpy of vaporization or sublimation, kJ/mol	uncertainty
298.15	93.4	1.5

System: 2-methylnaphtho[2,3-d]oxazole; phases: Crystal, Gas
Property: Vapor or sublimation pressure, kPa (Crystal); method: Calculated from knudsen effusion weight loss
Temperature, K	Vapor or sublimation pressure, kPa	uncertainty
305.19	6.7e-05	2e-05
307.2	8.6e-05	2e-05
309.1	0.000106	2e-05
311.18	0.000137	2.1e-05
313.19	0.000176	2.1e-05
315.11	0.000214	2.1e-05
316.18	0.000244	2.2e-05
317.23	0.00028	2.2e-05
318.11	0.0003	2.3e-05
319.16	0.000345	2.3e-05
321.26	0.000443	2.5e-05
323.15	0.000529	2.7e-05
325.18	0.00066	3.1e-05
327.19	0.00084	3.6e-05
329.11	0.000998	4.1e-05
305.19	6.5e-05	2e-05
307.2	8.7e-05	2e-05
309.1	0.000107	2e-05
311.18	0.000134	2.1e-05
313.19	0.000177	2.1e-05
315.11	0.000218	2.1e-05
316.18	0.000237	2.2e-05
317.23	0.000282	2.2e-05
318.11	0.000305	2.3e-05
319.16	0.000336	2.3e-05
321.26	0.000446	2.5e-05
323.15	0.000541	2.8e-05
325.18	0.00065	3.1e-05
327.19	0.000846	3.6e-05
329.11	0.001029	8e-05
305.19	6.4e-05	2e-05
307.2	8.4e-05	2e-05
309.1	0.000106	2e-05
311.18	0.000133	2.1e-05
313.19	0.000171	2.1e-05
315.11	0.000217	2.1e-05
316.18	0.000234	2.2e-05
317.23	0.00027	2.2e-05
318.11	0.0003	2.3e-05
319.16	0.000335	2.3e-05
321.26	0.000432	2.5e-05
323.15	0.000539	2.8e-05
325.18	0.000649	3e-05
327.19	0.000824	3.5e-05
329.11	0.001031	8e-05

System: 2-methylnaphtho[1,2-d]thiazole; phases: Crystal, Liquid, Air at 1 atmosphere
Property: Normal melting temperature, K (Crystal); method: DTA
Normal melting temperature, K	uncertainty
368.01	0.39

System: 2-methylnaphtho[1,2-d]thiazole; phases: Crystal, Liquid, Air at 1 atmosphere
Property: Molar enthalpy of transition or fusion, kJ/mol (Crystal); method: DSC
Molar enthalpy of transition or fusion, kJ/mol	uncertainty
22.14	0.51

System: 2-methylnaphtho[1,2-d]thiazole; phases: Crystal, Gas
Property: Molar enthalpy of vaporization or sublimation, kJ/mol (Crystal); method: Static calorimetry
Temperature, K	Molar enthalpy of vaporization or sublimation, kJ/mol	uncertainty
298.15	97	2.2

System: 2-methylnaphtho[1,2-d]thiazole; phases: Crystal, Gas
Property: Vapor or sublimation pressure, kPa (Crystal); method: Calculated from knudsen effusion weight loss
Temperature, K	Vapor or sublimation pressure, kPa	uncertainty
323.17	0.000136	2.1e-05
325.11	0.00017	2.1e-05
329.2	0.000264	2.2e-05
331.12	0.000333	2.3e-05
335.18	0.000513	2.7e-05
337.13	0.000638	3e-05
341.17	0.000968	4e-05
343.11	0.001198	9.6e-05
321.17	0.000106	2e-05
325.11	0.000171	2.1e-05
327.17	0.000208	2.1e-05
331.12	0.000333	2.3e-05
333.16	0.000405	2.5e-05
337.13	0.000638	3e-05
339.17	0.000773	3.4e-05
343.11	0.001206	9.7e-05
321.17	0.000104	2e-05
323.17	0.000132	2.1e-05
325.11	0.00017	2.1e-05
327.17	0.000206	2.1e-05
329.2	0.00026	2.2e-05
331.12	0.00033	2.3e-05
333.16	0.0004	2.5e-05
335.18	0.000502	2.7e-05
337.13	0.000631	3e-05
339.17	0.000768	3.4e-05
341.17	0.000947	3.9e-05
343.11	0.001199	9.7e-05

Reaction: -1 2-methylnaphtho[1,2-d]oxazole + 12 carbon dioxide + .5 nitrogen + 4.5 water + -13.75 oxygen
Property: Specific internal energy of reaction at constant volume, J/g
-32545.32

Reaction: -1 2-methylnaphtho[2,3-d]oxazole + 12 carbon dioxide + .5 nitrogen + 4.5 water + -13.75 oxygen
Property: Specific internal energy of reaction at constant volume, J/g
-32473.06

Reaction: -1 2-methylnaphtho[1,2-d]thiazole + 1 sulfuric acid + 12 carbon dioxide + .5 nitrogen + 3.5 water + -15.75 oxygen
Property: Specific internal energy of reaction at constant volume, J/g
-33686.54
