Measured thermophysical data. Molar heat capacities for {isomer of butanediol + methanol} as function of mixture composition and temperature
Source: J. Chem. Thermodyn., 2014, 10.1016/j.jct.2014.07.023
Compound 1: methanol, CH4O, InChI=1S/CH4O/c1-2/h2H,1H3, purity 99%
Compound 2: 1,2-butanediol, C4H10O2, InChI=1S/C4H10O2/c1-2-4(6)3-5/h4-6H,2-3H2,1H3, purity 99.9%
Compound 3: 1,3-butanediol, C4H10O2, InChI=1S/C4H10O2/c1-4(6)2-3-5/h4-6H,2-3H2,1H3, purity 99.7%
Compound 4: 1,4-butanediol, C4H10O2, InChI=1S/C4H10O2/c5-3-1-2-4-6/h5-6H,1-4H2, purity 99.8%
Compound 5: 2,3-butanediol, C4H10O2, InChI=1S/C4H10O2/c1-3(5)4(2)6/h3-6H,1-2H3, purity 99.5%

System: methanol; phases: Liquid
Property: Molar heat capacity at constant pressure, J/K/mol (Liquid); method: Small sample (50 mg) DSC
Temperature, K	Pressure, kPa	Molar heat capacity at constant pressure, J/K/mol	uncertainty
298.15	101.325	81.38	3.45

System: methanol; phases: Liquid
Fixed: Pressure, kPa = 101.325
Property: Molar heat capacity at constant pressure, J/K/mol (Liquid); method: Small sample (50 mg) DSC
Temperature, K	Molar heat capacity at constant pressure, J/K/mol	uncertainty
293.15	80.45711046	3.42847902
298.15	81.3863244	3.46052088
303.15	82.37962206	3.49256274
308.15	83.43700344	3.5246046
313.15	84.55846854	3.58868832
318.15	85.77605922	3.65277204
323.15	87.02569176	3.6848139

System: 1,2-butanediol; phases: Liquid
Property: Molar heat capacity at constant pressure, J/K/mol (Liquid); method: Small sample (50 mg) DSC
Temperature, K	Pressure, kPa	Molar heat capacity at constant pressure, J/K/mol	uncertainty
298.15	101.325	230.82	9.79

System: 1,2-butanediol; phases: Liquid
Fixed: Pressure, kPa = 101.325
Property: Molar heat capacity at constant pressure, J/K/mol (Liquid); method: Small sample (50 mg) DSC
Temperature, K	Molar heat capacity at constant pressure, J/K/mol	uncertainty
293.15	228.096251	9.642947
298.15	230.799881	9.823189
303.15	233.503511	9.91331
308.15	236.207141	10.003431
313.15	238.910771	10.093552
318.15	241.52428	10.273794
323.15	244.22791	10.363915

System: 1,3-butanediol; phases: Liquid
Property: Molar heat capacity at constant pressure, J/K/mol (Liquid); method: Small sample (50 mg) DSC
Temperature, K	Pressure, kPa	Molar heat capacity at constant pressure, J/K/mol	uncertainty
298.15	101.325	218.89	9.29

System: 1,3-butanediol; phases: Liquid
Fixed: Pressure, kPa = 101.325
Property: Molar heat capacity at constant pressure, J/K/mol (Liquid); method: Small sample (50 mg) DSC
Temperature, K	Molar heat capacity at constant pressure, J/K/mol	uncertainty
293.15	215.839795	9.192342
298.15	218.903909	9.282463
303.15	222.058144	9.462705
308.15	225.212379	9.552826
313.15	228.366614	9.733068
318.15	231.61097	9.823189
323.15	234.855326	10.003431

System: 1,4-butanediol; phases: Liquid
Property: Molar heat capacity at constant pressure, J/K/mol (Liquid); method: Small sample (50 mg) DSC
Temperature, K	Pressure, kPa	Molar heat capacity at constant pressure, J/K/mol	uncertainty
298.15	101.325	203.79	8.65

System: 1,4-butanediol; phases: Liquid
Fixed: Pressure, kPa = 101.325
Property: Molar heat capacity at constant pressure, J/K/mol (Liquid); method: Small sample (50 mg) DSC
Temperature, K	Molar heat capacity at constant pressure, J/K/mol	uncertainty
293.15	201.150072	8.561495
298.15	203.763581	8.651616
303.15	206.557332	8.741737
308.15	209.441204	8.921979
313.15	212.325076	9.0121
318.15	215.38919	9.102221
323.15	218.543425	9.282463

System: 2,3-butanediol; phases: Liquid
Property: Molar heat capacity at constant pressure, J/K/mol (Liquid); method: Small sample (50 mg) DSC
Temperature, K	Pressure, kPa	Molar heat capacity at constant pressure, J/K/mol	uncertainty
298.15	101.325	236.63	10.04

System: 2,3-butanediol; phases: Liquid
Fixed: Pressure, kPa = 101.325
Property: Molar heat capacity at constant pressure, J/K/mol (Liquid); method: Small sample (50 mg) DSC
Temperature, K	Molar heat capacity at constant pressure, J/K/mol	uncertainty
293.15	233.954116	9.91331
298.15	236.657746	10.003431
303.15	239.361376	10.183673
308.15	242.065006	10.273794
313.15	244.768636	10.363915
318.15	247.472266	10.544157
323.15	250.175896	10.634278

System: methanol + 1,2-butanediol; phases: Liquid
Fixed: Pressure, kPa = 100
Property: Molar heat capacity at constant pressure, J/K/mol (Liquid); method: Small sample (50 mg) DSC
Temperature, K	Mole fraction of 1,2-butanediol	Molar heat capacity at constant pressure, J/K/mol	uncertainty
293.15	0	80.45711046	3.42847902
293.15	0.0476	87.085680514128	3.689481268784
293.15	0.2098	110.522932066428	4.688047538632
293.15	0.2964	123.042779705808	5.221190812176
293.15	0.3913	137.523019207302	5.860200340574
293.15	0.4706	148.791001629704	6.293633748104
293.15	0.6016	168.527392889984	7.167102956768
293.15	0.6991	182.484206776288	7.773013584818
293.15	0.8042	198.8414885797	8.426154169516
293.15	0.8917	211.25419342776	8.969920117766
293.15	0.9224	216.089884249664	9.160704284752
293.15	0.9627	221.997531748872	9.411147344346
293.15	1	228.096251	9.642947
298.15	0	81.3863244	3.46052088
298.15	0.0476	88.164679753112	3.724287695848
298.15	0.2098	111.89396483716	4.732274402204
298.15	0.2964	124.668244769976	5.270447329272
298.15	0.3913	139.330370714208	5.914968568056
298.15	0.4706	150.690966534792	6.412381554672
298.15	0.6016	170.737807820576	7.234085227392
298.15	0.6991	184.808846353056	7.845658571592
298.15	0.8042	201.20396171134	8.504903273904
298.15	0.8917	213.852955331038	9.053751146904
298.15	0.9224	218.658306011744	9.246318343488
298.15	0.9627	224.636171191212	9.499101992424
298.15	1	230.799881	9.823189
303.15	0	82.37962206	3.49256274
303.15	0.0476	89.27848541916	3.793900549976
303.15	0.2098	113.353451335036	4.820728129348
303.15	0.2964	126.293709834144	5.368960363464
303.15	0.3913	141.137722221114	5.969736795538
303.15	0.4706	152.650305343164	6.471755457956
303.15	0.6016	172.881240480544	7.36804976864
303.15	0.6991	187.133485929824	7.918303558366
303.15	0.8042	203.645183947368	8.66240148268
303.15	0.8917	216.367886205178	9.22141320518
303.15	0.9224	221.31234183256	9.41754646096
303.15	0.9627	227.274810633552	9.67501128858
303.15	1	233.503511	9.91331
308.15	0	83.43700344	3.5246046
308.15	0.0476	90.461903939336	3.82870697704
308.15	0.2098	114.812937832912	4.86495499292
308.15	0.2964	127.968431415408	5.41821688056
308.15	0.3913	142.999841955502	6.079273250502
308.15	0.4706	154.550270248252	6.53112936124
308.15	0.6016	175.024673140512	7.435032039264
308.15	0.6991	189.458125506592	8.063593531914
308.15	0.8042	206.007657079008	8.741150587068
308.15	0.8917	218.966648108456	9.305244234318
308.15	0.9224	223.88076359464	9.503160519696
308.15	0.9627	229.913450075892	9.762965936658
308.15	1	236.207141	10.003431
313.15	0	84.55846854	3.58868832
313.15	0.0476	91.680128886576	3.898319831168
313.15	0.2098	116.360878057932	4.953408720064
313.15	0.2964	129.692409513768	5.516729914752
313.15	0.3913	144.86196168989	6.134041477984
313.15	0.4706	156.509609056624	6.649877167808
313.15	0.6016	177.235088071104	7.502014309888
313.15	0.6991	191.710120096586	8.136238518688
313.15	0.8042	208.448879315036	8.819899691456
313.15	0.8917	221.481578982596	9.389075263456
313.15	0.9224	226.44918535672	9.588774578432
313.15	0.9627	232.464134870154	9.850920584736
313.15	1	238.910771	10.093552
318.15	0	85.77605922	3.65277204
318.15	0.0476	92.967966687944	3.933126258232
318.15	0.2098	117.953045146524	4.997635583636
318.15	0.2964	131.416387612128	5.565986431848
318.15	0.3913	146.724081424278	6.243577932948
318.15	0.4706	158.52832176828	6.709251071092
318.15	0.6016	179.378520731072	7.635978851136
318.15	0.6991	194.034759673354	8.208883505462
318.15	0.8042	210.811352446676	8.977397900232
318.15	0.8917	223.996509856736	9.472906292594
318.15	0.9224	229.0176071188	9.674388637168
318.15	0.9627	235.014819664416	9.938875232814
318.15	1	241.52428	10.273794
323.15	0	87.02569176	3.6848139
323.15	0.0476	94.32541734344	4.00273911236
323.15	0.2098	119.545212235116	5.08608931078
323.15	0.2964	133.189622227584	5.66449946604
323.15	0.3913	148.640969386148	6.29834616043
323.15	0.4706	160.487660576652	6.82799887766
323.15	0.6016	181.52195339104	7.70296112176
323.15	0.6991	196.359399250122	8.35417347901
323.15	0.8042	213.252574682704	9.05614700462
323.15	0.8917	226.427609701738	9.64056835087
323.15	0.9224	231.58602888088	9.84561675464
323.15	0.9627	237.653459106756	10.11478452897
323.15	1	244.22791	10.363915

System: methanol + 1,3-butanediol; phases: Liquid
Fixed: Pressure, kPa = 100
Property: Molar heat capacity at constant pressure, J/K/mol (Liquid); method: Small sample (50 mg) DSC
Temperature, K	Mole fraction of 1,3-butanediol	Molar heat capacity at constant pressure, J/K/mol	uncertainty
293.15	0	80.45711046	3.42847902
293.15	0.097	92.98322427944	3.9559313409
293.15	0.1924	105.318090288232	4.451277513208
293.15	0.2893	118.056323123234	5.030947985806
293.15	0.3902	131.618643069768	5.579842723656
293.15	0.4943	145.679408606996	6.196538648004
293.15	0.6067	160.997388851534	6.862404372276
293.15	0.7843	185.370464180278	7.836926279702
293.15	0.9064	202.227284480448	8.553164042096
293.15	0.9165	203.62808364228	8.61241057281
293.15	0.9242	204.610301035756	8.657578719988
293.15	0.9624	210.082028938704	8.881659657936
293.15	1	215.839795	9.192342
298.15	0	81.3863244	3.46052088
298.15	0.097	94.07581484026	3.99360687748
298.15	0.1924	106.657795170848	4.53771008628
298.15	0.2893	119.570491934496	5.079792141008
298.15	0.3902	133.423886303892	5.634547064084
298.15	0.4943	147.684171110762	6.257289026906
298.15	0.6067	163.217578501388	6.929682846514
298.15	0.7843	187.931044053844	7.992112938706
298.15	0.9064	205.106567425312	8.722533627088
298.15	0.9165	206.44203957201	8.78295335643
298.15	0.9242	207.524733476148	8.829015922364
298.15	0.9624	213.071894566128	9.057534106608
298.15	1	218.903909	9.282463
303.15	0	82.37962206	3.49256274
303.15	0.097	95.24375647424	4.03128241406
303.15	0.1924	108.04071634	4.580926372816
303.15	0.2893	121.13350490096	5.12863629621
303.15	0.3902	135.229129538016	5.74395574494
303.15	0.4943	149.688933614528	6.37878978471
303.15	0.6067	165.50504662548	6.996961320752
303.15	0.7843	190.569217256912	8.069706268208
303.15	0.9064	207.985850370176	8.807218419584
303.15	0.9165	209.34126689355	8.86822474824
303.15	0.9242	210.43916591654	8.914734523552
303.15	0.9624	216.061760193552	9.145471330944
303.15	1	222.058144	9.462705
308.15	0	83.43700344	3.5246046
308.15	0.097	96.4493736448	4.10663348722
308.15	0.1924	109.466853795688	4.624142659352
308.15	0.2893	122.794206177828	5.226324606614
308.15	0.3902	137.089077112568	5.798660085368
308.15	0.4943	151.693696118294	6.439540163612
308.15	0.6067	167.792514749572	7.131518269228
308.15	0.7843	193.284983789482	8.224892927212
308.15	0.9064	210.949818107536	8.976588004576
308.15	0.9165	212.24049421509	9.03876753186
308.15	0.9242	213.43931695812	9.086171725928
308.15	0.9624	219.139563045312	9.321345779616
308.15	1	225.212379	9.552826
313.15	0	84.55846854	3.58868832
313.15	0.097	97.7680174251	4.1443090238
313.15	0.1924	110.979423824448	4.710575232424
313.15	0.2893	124.454907454696	5.275168761816
313.15	0.3902	139.003729027548	5.908068766224
313.15	0.4943	153.819959379864	6.500290542514
313.15	0.6067	170.147261347902	7.198796743466
313.15	0.7843	195.92315699255	8.302486256714
313.15	0.9064	213.913785844896	9.061272797072
313.15	0.9165	215.22499292844	9.12403892367
313.15	0.9242	216.4394679997	9.171890327116
313.15	0.9624	222.217365897072	9.409283003952
313.15	1	228.366614	9.733068
318.15	0	85.77605922	3.65277204
318.15	0.097	99.12433674198	4.21966009696
318.15	0.1924	112.535210139744	4.75379151896
318.15	0.2893	126.213297041968	5.37285707222
318.15	0.3902	140.973085282956	5.962773106652
318.15	0.4943	155.946222641434	6.621791300318
318.15	0.6067	172.502007946232	7.333353691942
318.15	0.7843	198.716516854622	8.457672915718
318.15	0.9064	216.877753582256	9.230642382064
318.15	0.9165	218.20949164179	9.29458170729
318.15	0.9242	219.43961904128	9.343327529492
318.15	0.9624	225.383105973168	9.585157452624
318.15	1	231.61097	9.823189
323.15	0	87.02569176	3.6848139
323.15	0.097	100.55600713202	4.25733563354
323.15	0.1924	114.177429028112	4.840224092032
323.15	0.2893	128.020530784442	5.421701227422
323.15	0.3902	142.942441538364	6.072181787508
323.15	0.4943	158.193986660808	6.68254167922
323.15	0.6067	174.9240330188	7.40063216618
323.15	0.7843	201.509876716694	8.53526624522
323.15	0.9064	219.926406112112	9.31532717456
323.15	0.9165	221.27926174695	9.3798530991
323.15	0.9242	222.525488684048	9.42904613068
323.15	0.9624	228.548846049264	9.67309467696
323.15	1	234.855326	10.003431

System: methanol + 1,4-butanediol; phases: Liquid
Fixed: Pressure, kPa = 100
Property: Molar heat capacity at constant pressure, J/K/mol (Liquid); method: Small sample (50 mg) DSC
Temperature, K	Mole fraction of 1,4-butanediol	Molar heat capacity at constant pressure, J/K/mol	uncertainty
293.15	0	80.45711046	3.42847902
293.15	0.1009	92.10196989918	3.903910658278
293.15	0.1972	103.344277785408	4.393001707208
293.15	0.2955	114.99032259819	4.87122034113
293.15	0.4144	129.164887628032	5.498765850368
293.15	0.5093	140.682035182566	5.977291902194
293.15	0.624	154.45669648032	6.55519136256
293.15	0.6996	163.589233300344	6.976706529024
293.15	0.8004	175.90362418944	7.46019834732
293.15	0.8591	183.212583553064	7.78407667153
293.15	0.9043	188.15228852195	7.948905672388
293.15	0.9565	194.89789023725	8.23388839654
293.15	1	201.150072	8.561495
298.15	0	81.3863244	3.46052088
298.15	0.1009	93.201129210734	3.941812703504
298.15	0.1972	104.649129777648	4.436496773616
298.15	0.2955	116.41724572842	4.920424587
298.15	0.4144	130.792073440896	5.554875705984
298.15	0.5093	142.407439030622	6.038913468196
298.15	0.624	156.50519378112	6.62347460592
298.15	0.6996	165.69678006432	7.049380555368
298.15	0.8004	178.180947895464	7.538726750976
298.15	0.8591	185.58877537911	7.866014320704
298.15	0.9043	190.68917331101	8.118031324992
298.15	0.9565	197.43813240214	8.40907751136
298.15	1	203.763581	8.651616
303.15	0	82.37962206	3.49256274
303.15	0.1009	94.338190567514	4.017616793956
303.15	0.1972	105.997476836296	4.479991840024
303.15	0.2955	117.94257735039	5.01883307874
303.15	0.4144	132.475369109376	5.6109855616
303.15	0.5093	144.256086010682	6.100535034198
303.15	0.624	158.55369108192	6.76004109264
303.15	0.6996	167.87700085464	7.122054581712
303.15	0.8004	180.536800005144	7.695783558288
303.15	0.8591	188.04690485433	7.947951969878
303.15	0.9043	193.22605810007	8.202594151294
303.15	0.9565	200.06596912444	8.49667206877
303.15	1	206.557332	8.741737
308.15	0	83.43700344	3.5246046
308.15	0.1009	95.551056014746	4.055518839182
308.15	0.1972	107.43281402776	4.56698197284
308.15	0.2955	119.46790897236	5.06803732461
308.15	0.4144	134.214774633472	5.667095417216
308.15	0.5093	146.166354556744	6.223778166202
308.15	0.624	160.73875486944	6.828324336
308.15	0.6996	170.129895671304	7.194728608056
308.15	0.8004	182.97118051848	7.774311961944
308.15	0.8591	190.586971978724	8.111827268226
308.15	0.9043	195.847505715432	8.287156977596
308.15	0.9565	202.86899496156	8.58426662618
308.15	1	209.441204	8.921979
313.15	0	84.55846854	3.58868832
313.15	0.1009	96.83972555243	4.093420884408
313.15	0.1972	108.868151219224	4.610477039248
313.15	0.2955	121.14085333194	5.11724157048
313.15	0.4144	136.0663998688	5.779315128448
313.15	0.5093	148.19986623481	6.285399732204
313.15	0.624	162.92381865696	6.89660757936
313.15	0.6996	172.455464514312	7.340076660744
313.15	0.8004	185.484089435472	7.8528403656
313.15	0.8591	193.208976752292	8.1937649174
313.15	0.9043	198.553516157096	8.4562826302
313.15	0.9565	205.67202079868	8.759455741
313.15	1	212.325076	9.0121
318.15	0	85.77605922	3.65277204
318.15	0.1009	98.204199180566	4.16922497486
318.15	0.1972	110.346983477096	4.697467172064
318.15	0.2955	122.81379769152	5.21565006222
318.15	0.4144	137.974134959744	5.835424984064
318.15	0.5093	150.294999478878	6.347021298206
318.15	0.624	165.2454489312	7.03317406608
318.15	0.6996	174.926381410008	7.412750687088
318.15	0.8004	188.07552675612	8.009897172912
318.15	0.8591	195.912919175034	8.275702566574
318.15	0.9043	201.344089425062	8.540845456502
318.15	0.9565	208.56264119321	8.84705029841
318.15	1	215.38919	9.102221
323.15	0	87.02569176	3.6848139
323.15	0.1009	99.606574853928	4.207127020086
323.15	0.1972	111.912805867784	4.740962238472
323.15	0.2955	124.58515054284	5.26485430809
323.15	0.4144	139.99408976192	5.947644695296
323.15	0.5093	152.451754288948	6.47026443021
323.15	0.624	167.49879596208	7.10145730944
323.15	0.6996	177.397298305704	7.558098739776
323.15	0.8004	190.745492480424	8.088425576568
323.15	0.8591	198.69879924695	8.439577864922
323.15	0.9043	204.21922551933	8.625408282804
323.15	0.9565	211.62845070256	9.02223941323
323.15	1	218.543425	9.282463

System: methanol + 2,3-butanediol; phases: Liquid
Fixed: Pressure, kPa = 100
Property: Molar heat capacity at constant pressure, J/K/mol (Liquid); method: Small sample (50 mg) DSC
Temperature, K	Mole fraction of 2,3-butanediol	Molar heat capacity at constant pressure, J/K/mol	uncertainty
293.15	0	80.45711046	3.42847902
293.15	0.0456	86.72567196	3.677168491104
293.15	0.0847	92.439869058158	3.917883294748
293.15	0.1972	108.824656152816	4.610477039248
293.15	0.2792	121.319495502432	5.163558480016
293.15	0.3824	136.659082979584	5.804891575552
293.15	0.4673	150.382077232002	6.391682149176
293.15	0.5862	168.127495152192	7.137488001744
293.15	0.7041	186.641643750966	7.949956689666
293.15	0.8094	441.974789086356	19.762778979
293.15	0.8169	204.519303456018	10.810192487376
293.15	0.8832	214.760367566496	9.083771852832
293.15	0.9271	221.760313251908	9.44757337634
293.15	0.9501	225.383846761776	9.59451360054
293.15	1	233.954116	9.91331
298.15	0	81.3863244	3.46052088
298.15	0.0456	87.801070292304	3.711858759888
298.15	0.0847	93.659587442372	3.991805621064
298.15	0.1972	110.303488410688	4.697467172064
298.15	0.2792	122.960252402624	5.211816035904
298.15	0.3824	138.557879289344	5.859142898688
298.15	0.4673	152.39427346415	6.450864391298
298.15	0.5862	170.374482115704	7.203575853612
298.15	0.7041	189.048511372608	8.02289207214
298.15	0.8094	448.377929475552	20.078983442664
298.15	0.8169	207.142364868396	10.969165906308
298.15	0.8832	217.343825616384	9.250446565728
298.15	0.9271	224.59458526481	9.533460407034
298.15	0.9501	228.000532289196	9.681736451454
298.15	1	236.657746	10.003431
303.15	0	82.37962206	3.49256274
303.15	0.0456	88.945849162176	3.781239297456
303.15	0.0847	94.916266989744	4.028766784222
303.15	0.1972	111.78232066856	4.740962238472
303.15	0.2792	124.649266858704	5.30833114768
303.15	0.3824	140.456675599104	5.96764554496
303.15	0.4673	154.406469696298	6.569228875542
303.15	0.5862	172.687556931084	7.335751557348
303.15	0.7041	191.45537899425	8.095827454614
303.15	0.8094	455.018223212496	20.395187906328
303.15	0.8169	209.84491299024	11.048652615774
303.15	0.8832	220.01062102272	9.333783922176
303.15	0.9271	227.342970247018	9.619347437728
303.15	0.9501	230.70444066753	9.768959302368
303.15	1	239.361376	10.183673
308.15	0	83.43700344	3.5246046
308.15	0.0456	90.125318300832	3.81592956624
308.15	0.0847	96.209907700274	4.06572794738
308.15	0.1972	113.348143059248	4.827952371288
308.15	0.2792	126.338281314784	5.356588703568
308.15	0.3824	142.409723232	6.021896868096
308.15	0.4673	156.477848170568	6.628411117664
308.15	0.5862	174.934543894596	7.401839409216
308.15	0.7041	193.935181998366	8.241698219562
308.15	0.8094	461.65851694944	20.711392369992
308.15	0.8169	212.547461112084	11.207626034706
308.15	0.8832	222.677416429056	9.417121278624
308.15	0.9271	230.17724225992	9.791121499116
308.15	0.9501	233.32112619495	9.856182153282
308.15	1	242.065006	10.273794
313.15	0	84.55846854	3.58868832
313.15	0.0456	91.374167977056	3.885310103808
313.15	0.0847	97.540509573962	4.139650273696
313.15	0.1972	114.957460516344	4.871447437696
313.15	0.2792	128.075553326752	5.453103815344
313.15	0.3824	144.362770864896	6.130399514368
313.15	0.4673	158.549226644838	6.746775601908
313.15	0.5862	177.247618709976	7.534015112952
313.15	0.7041	196.414985002482	8.314633602036
313.15	0.8094	468.535964034132	21.027596833656
313.15	0.8169	215.170522524462	11.366599453638
313.15	0.8832	225.260874478944	9.58379599152
313.15	0.9271	233.011514272822	9.87700852981
313.15	0.9501	236.112257424198	10.03062785511
313.15	1	244.768636	10.363915
318.15	0	85.77605922	3.65277204
318.15	0.0456	92.657707922064	3.920000372592
318.15	0.0847	98.945033773966	4.213572600012
318.15	0.1972	116.610273039848	4.958437570512
318.15	0.2792	129.81282533872	5.501361371232
318.15	0.3824	146.370069820928	6.184650837504
318.15	0.4673	160.67978736123	6.80595784403
318.15	0.5862	179.626781377224	7.60010296482
318.15	0.7041	198.894788006598	8.460504366984
318.15	0.8094	475.413411118824	21.34380129732
318.15	0.8169	217.873070646306	11.52557287257
318.15	0.8832	227.92766988528	9.667133347968
318.15	0.9271	235.931673316418	10.048782591198
318.15	0.9501	238.816165802532	10.117850706024
318.15	1	247.472266	10.544157
323.15	0	87.02569176	3.6848139
323.15	0.0456	94.01062840464	3.98938091016
323.15	0.0847	100.34955797397	4.25053376317
323.15	0.1972	118.30658062976	5.00193263692
323.15	0.2792	131.598354906576	5.597876483008
323.15	0.3824	148.431620100096	6.293153483776
323.15	0.4673	162.810348077622	6.924322328274
323.15	0.5862	182.005944044472	7.732278668556
323.15	0.7041	201.447526393188	8.533439749458
323.15	0.8094	482.528011551264	21.660005760984
323.15	0.8169	220.57561876815	11.684546291502
323.15	0.8832	230.594465291616	9.750470704416
323.15	0.9271	238.76594532932	10.134669621892
323.15	0.9501	241.60729703178	10.292296407852
323.15	1	250.175896	10.634278
