Measured thermophysical data. Excess molar volumes, viscosities, and speeds of sound of the ternary mixture {1-heptanol (1) + trichloroethylene (2) + methylcyclohexane (3)} at T = 298.15 K
Source: J. Chem. Thermodyn., 2007, 10.1016/j.jct.2006.07.015
Compound 1: heptan-1-ol, C7H16O, InChI=1S/C7H16O/c1-2-3-4-5-6-7-8/h8H,2-7H2,1H3, purity 99%
Compound 2: tetrachloroethene, C2Cl4, InChI=1S/C2Cl4/c3-1(4)2(5)6, purity 99%
Compound 3: methylcyclohexane, C7H14, InChI=1S/C7H14/c1-7-5-3-2-4-6-7/h7H,2-6H2,1H3, purity 99%

System: heptan-1-ol; phases: Liquid
Property: Mass density, kg/m3 (Liquid); method: Vibrating tube method
Temperature, K	Pressure, kPa	Mass density, kg/m3	uncertainty
298.15	101.325	818.77	0.24

System: heptan-1-ol; phases: Liquid
Property: Viscosity, Pa*s (Liquid); method: Capillary tube (Ostwald; Ubbelohde) method
Temperature, K	Pressure, kPa	Viscosity, Pa*s	uncertainty
298.15	101.325	0.006041	4.4e-05

System: heptan-1-ol; phases: Liquid
Property: Speed of sound, m/s (Liquid); method: Sing-around technique in a fixed-path interferometer
Temperature, K	Pressure, kPa	Speed of sound, m/s	uncertainty
298.15	101.325	1329	2

System: tetrachloroethene; phases: Liquid
Property: Mass density, kg/m3 (Liquid); method: Vibrating tube method
Temperature, K	Pressure, kPa	Mass density, kg/m3	uncertainty
298.15	101.325	1614.49	0.79

System: tetrachloroethene; phases: Liquid
Property: Viscosity, Pa*s (Liquid); method: Capillary tube (Ostwald; Ubbelohde) method
Temperature, K	Pressure, kPa	Viscosity, Pa*s	uncertainty
298.15	101.325	0.000847	8e-06

System: tetrachloroethene; phases: Liquid
Property: Speed of sound, m/s (Liquid); method: Sing-around technique in a fixed-path interferometer
Temperature, K	Pressure, kPa	Speed of sound, m/s	uncertainty
298.15	101.325	1039	2

System: methylcyclohexane; phases: Liquid
Property: Mass density, kg/m3 (Liquid); method: Vibrating tube method
Temperature, K	Pressure, kPa	Mass density, kg/m3	uncertainty
298.15	101.325	764.99	0.24

System: methylcyclohexane; phases: Liquid
Property: Viscosity, Pa*s (Liquid); method: Capillary tube (Ostwald; Ubbelohde) method
Temperature, K	Pressure, kPa	Viscosity, Pa*s	uncertainty
298.15	101.325	0.000684	7e-06

System: methylcyclohexane; phases: Liquid
Property: Speed of sound, m/s (Liquid); method: Sing-around technique in a fixed-path interferometer
Temperature, K	Pressure, kPa	Speed of sound, m/s	uncertainty
298.15	101.325	1209	2

System: heptan-1-ol + tetrachloroethene; phases: Liquid
Fixed: Pressure, kPa = 101
Fixed: Temperature, K = 298.15
Property: Viscosity, Pa*s (Liquid); method: Capillary tube (Ostwald; Ubbelohde) method
Mole fraction of heptan-1-ol	Viscosity, Pa*s	uncertainty
0.102	0.000995	8e-06
0.2118	0.001222	1e-05
0.2498	0.00132	1e-05
0.3015	0.001457	1.1e-05
0.3997	0.001795	1.4e-05
0.4998	0.00224	1.7e-05
0.5478	0.002485	1.9e-05
0.587	0.002703	2.1e-05
0.6995	0.003451	2.6e-05
0.74	0.003742	2.8e-05
0.7954	0.004184	3.1e-05
0.8985	0.00506	3.7e-05

System: heptan-1-ol + tetrachloroethene; phases: Liquid
Fixed: Temperature, K = 298.15
Fixed: Pressure, kPa = 101
Property: Speed of sound, m/s (Liquid); method: Sing-around technique in a fixed-path interferometer
Mole fraction of heptan-1-ol	Speed of sound, m/s	uncertainty
0	1039	2
0.0967	1050	2
0.1957	1069	2
0.2492	1082	2
0.2952	1093	2
0.3905	1120	2
0.4667	1142	2
0.5531	1169	2
0.5894	1178	2
0.6507	1200	2
0.7002	1217	2
0.7989	1252	2
0.8969	1290	2
1	1329	2

System: heptan-1-ol + tetrachloroethene; phases: Liquid
Fixed: Pressure, kPa = 101
Fixed: Temperature, K = 298.15
Property: Mass density, kg/m3 (Liquid); method: Vibrating tube method
Mole fraction of heptan-1-ol	Mass density, kg/m3	uncertainty
0.093	1514.31	0.69
0.1994	1409	0.62
0.2502	1361.6	0.59
0.2986	1318.1	0.56
0.3979	1233.3	0.54
0.4452	1194.85	0.53
0.4983	1153.02	0.52
0.5495	1114.05	0.47
0.5995	1077.22	0.41
0.6488	1042	0.36
0.6969	1008.69	0.31
0.7932	944.69	0.27
0.8497	908.83	0.25
0.8986	878.72	0.24

System: methylcyclohexane + heptan-1-ol; phases: Liquid
Fixed: Pressure, kPa = 101
Fixed: Temperature, K = 298.15
Property: Viscosity, Pa*s (Liquid); method: Capillary tube (Ostwald; Ubbelohde) method
Mole fraction of heptan-1-ol	Viscosity, Pa*s	uncertainty
0.1009	0.000797	6e-06
0.2007	0.000956	8e-06
0.3011	0.001174	9e-06
0.4011	0.001461	1.1e-05
0.4501	0.00164	1.3e-05
0.4985	0.001839	1.4e-05
0.6033	0.002384	1.8e-05
0.7417	0.003369	2.5e-05
0.7985	0.003875	2.9e-05
0.9006	0.004922	3.6e-05

System: methylcyclohexane + heptan-1-ol; phases: Liquid
Fixed: Temperature, K = 298.15
Fixed: Pressure, kPa = 101
Property: Speed of sound, m/s (Liquid); method: Sing-around technique in a fixed-path interferometer
Mole fraction of heptan-1-ol	Speed of sound, m/s	uncertainty
0	1215	2
0.1031	1217	2
0.2024	1225	2
0.3006	1236	2
0.4033	1247	2
0.4973	1259	2
0.5394	1264	2
0.6026	1273	2
0.7045	1287	2
0.7972	1300	2
0.8951	1315	2
1	1329	2

System: methylcyclohexane + heptan-1-ol; phases: Liquid
Fixed: Pressure, kPa = 101
Fixed: Temperature, K = 298.15
Property: Mass density, kg/m3 (Liquid); method: Vibrating tube method
Mole fraction of heptan-1-ol	Mass density, kg/m3	uncertainty
0.1	770.2	0.24
0.1506	773.03	0.24
0.2001	775.76	0.24
0.3011	781.37	0.24
0.4	786.91	0.24
0.449	789.61	0.24
0.5002	792.45	0.24
0.5497	795.18	0.24
0.5999	797.98	0.24
0.6503	800.71	0.24
0.7007	803.42	0.24
0.8	808.68	0.24
0.8495	811.24	0.24
0.8998	813.8	0.24

System: methylcyclohexane + tetrachloroethene; phases: Liquid
Fixed: Pressure, kPa = 101
Fixed: Temperature, K = 298.15
Property: Viscosity, Pa*s (Liquid); method: Capillary tube (Ostwald; Ubbelohde) method
Mole fraction of tetrachloroethene	Viscosity, Pa*s	uncertainty
0.0999	0.00069	6e-06
0.2068	0.000698	6e-06
0.2505	0.000701	6e-06
0.2982	0.000705	6e-06
0.3944	0.000716	6e-06
0.4996	0.000728	6e-06
0.6016	0.000746	6e-06
0.7007	0.000765	6e-06
0.8008	0.000789	6e-06
0.8996	0.000816	7e-06

System: methylcyclohexane + tetrachloroethene; phases: Liquid
Fixed: Temperature, K = 298.15
Fixed: Pressure, kPa = 101
Property: Speed of sound, m/s (Liquid); method: Sing-around technique in a fixed-path interferometer
Mole fraction of tetrachloroethene	Speed of sound, m/s	uncertainty
0	1215	2
0.2439	1184	2
0.4173	1156	2
0.4897	1146	2
0.5494	1136	2
0.6549	1116	2
0.7372	1098	2
0.7786	1089	2
0.8104	1082	2
0.8418	1075	2
0.8693	1069	2
0.9188	1057	2
1	1039	2

System: methylcyclohexane + tetrachloroethene; phases: Liquid
Fixed: Pressure, kPa = 101
Fixed: Temperature, K = 298.15
Property: Mass density, kg/m3 (Liquid); method: Vibrating tube method
Mole fraction of tetrachloroethene	Mass density, kg/m3	uncertainty
0.1007	834.38	0.25
0.1924	900.06	0.27
0.2	905.67	0.27
0.2504	942.96	0.3
0.3011	981.34	0.33
0.3029	982.75	0.33
0.4001	1058.76	0.42
0.5009	1141.4	0.54
0.5503	1183.38	0.54
0.5984	1225.08	0.55
0.6496	1270.62	0.56
0.7014	1317.87	0.57
0.7995	1410.5	0.62
0.8489	1458.9	0.65
0.8986	1508.67	0.69

System: methylcyclohexane + heptan-1-ol + tetrachloroethene; phases: Liquid
Fixed: Pressure, kPa = 101
Fixed: Temperature, K = 298.15
Property: Viscosity, Pa*s (Liquid); method: Capillary tube (Ostwald; Ubbelohde) method
Mole fraction of heptan-1-ol	Mole fraction of tetrachloroethene	Viscosity, Pa*s	uncertainty
0.0487	0.1057	0.000729	6e-06
0.0498	0.8495	0.000859	7e-06
0.0506	0.8997	0.000893	7e-06
0.0521	0.05	0.00073	6e-06
0.0987	0.501	0.000858	7e-06
0.0999	0.5971	0.000885	7e-06
0.0999	0.6992	0.000912	7e-06
0.1001	0.1014	0.0008	7e-06
0.1001	0.2009	0.00081	7e-06
0.1003	0.4021	0.000841	7e-06
0.1006	0.85	0.00096	8e-06
0.1018	0.7982	0.000942	8e-06
0.1037	0.2996	0.000833	7e-06
0.1986	0.3015	0.001008	8e-06
0.1988	0.3978	0.001032	8e-06
0.2001	0.1017	0.000967	8e-06
0.2001	0.5984	0.001099	9e-06
0.2002	0.2004	0.000987	8e-06
0.2004	0.6968	0.00114	9e-06
0.2009	0.5027	0.00107	8e-06
0.299	0.1017	0.001187	9e-06
0.299	0.4976	0.001335	1e-05
0.2992	0.3021	0.001255	1e-05
0.3001	0.4	0.001293	1e-05
0.301	0.2045	0.00122	1e-05
0.3024	0.5976	0.001397	1.1e-05
0.398	0.5026	0.001707	1.3e-05
0.3988	0.3025	0.001583	1.2e-05
0.3991	0.2027	0.001534	1.2e-05
0.4002	0.3997	0.001646	1.3e-05
0.4013	0.1001	0.001493	1.2e-05
0.4957	0.1012	0.001877	1.5e-05
0.4978	0.3969	0.002116	1.6e-05
0.4986	0.2994	0.002032	1.6e-05
0.4988	0.1988	0.001959	1.5e-05
0.5942	0.1029	0.002406	1.8e-05
0.5955	0.2021	0.00252	1.9e-05
0.598	0.299	0.002642	2e-05
0.6833	0.2093	0.003162	2.4e-05
0.6961	0.1039	0.003148	2.4e-05
0.7971	0.1012	0.003996	3e-05
0.8404	0.1042	0.004436	3.3e-05
0.8474	0.0508	0.004401	3.3e-05
0.8886	0.0601	0.004844	3.6e-05

System: methylcyclohexane + heptan-1-ol + tetrachloroethene; phases: Liquid
Fixed: Temperature, K = 298.15
Fixed: Pressure, kPa = 101
Property: Speed of sound, m/s (Liquid); method: Sing-around technique in a fixed-path interferometer
Mole fraction of heptan-1-ol	Mole fraction of tetrachloroethene	Speed of sound, m/s	uncertainty
0.0498	0.0499	1199	2
0.0502	0.8493	1052	2
0.0503	0.8998	1046	2
0.0546	0.1002	1186	2
0.099	0.2977	1140	2
0.0993	0.4999	1101	2
0.0997	0.1996	1161	2
0.1001	0.85	1056	2
0.1003	0.1021	1187	2
0.1007	0.7993	1061	2
0.1008	0.6993	1072	2
0.1016	0.3992	1120	2
0.1046	0.5958	1086	2
0.1993	0.5987	1096	2
0.1995	0.403	1128	2
0.1996	0.3002	1149	2
0.2	0.1001	1194	2
0.2006	0.2032	1169	2
0.2019	0.4991	1112	2
0.202	0.7048	1082	2
0.2974	0.2006	1181	2
0.2986	0.1003	1207	2
0.2991	0.5997	1108	2
0.2995	0.3048	1156	2
0.3003	0.5002	1124	2
0.3029	0.3965	1143	2
0.3969	0.4025	1153	2
0.3982	0.5005	1137	2
0.3997	0.1	1219	2
0.4005	0.2989	1172	2
0.403	0.1987	1195	2
0.4978	0.2019	1209	2
0.4978	0.2984	1187	2
0.5002	0.0996	1233	2
0.5023	0.3979	1169	2
0.5912	0.1064	1243	2
0.5987	0.3018	1201	2
0.5995	0.199	1223	2
0.6973	0.1016	1261	2
0.6983	0.198	1239	2
0.7999	0.1002	1274	2
0.8456	0.1024	1280	2
0.8464	0.0504	1294	2
0.8953	0.054	1301	2

System: methylcyclohexane + heptan-1-ol + tetrachloroethene; phases: Liquid
Fixed: Pressure, kPa = 101
Fixed: Temperature, K = 298.15
Property: Mass density, kg/m3 (Liquid); method: Vibrating tube method
Mole fraction of heptan-1-ol	Mole fraction of tetrachloroethene	Mass density, kg/m3	uncertainty
0.0498	0.0499	801.21	0.24
0.0502	0.8493	1457.79	0.65
0.0503	0.8998	1508.14	0.69
0.0546	0.1002	836.28	0.25
0.099	0.2977	981.95	0.33
0.0993	0.4999	1142.23	0.54
0.0997	0.1996	909.14	0.28
0.1001	0.85	1457.73	0.65
0.1003	0.1021	839.87	0.25
0.1007	0.7993	1408.61	0.62
0.1008	0.6993	1315.48	0.57
0.1016	0.3992	1060.68	0.42
0.1046	0.5958	1223.58	0.55
0.1993	0.5987	1227.43	0.55
0.1995	0.403	1066.67	0.43
0.1996	0.3002	987.63	0.33
0.2	0.1001	843.42	0.25
0.2006	0.2032	916.15	0.28
0.2019	0.4991	1143.79	0.54
0.202	0.7048	1320.72	0.57
0.2974	0.2006	918.66	0.28
0.2986	0.1003	848.51	0.25
0.2991	0.5997	1229.79	0.54
0.2995	0.3048	994.81	0.33
0.3003	0.5002	1146.97	0.54
0.3029	0.3965	1064.75	0.42
0.3969	0.4025	1072.43	0.43
0.3982	0.5005	1149.76	0.53
0.3997	0.1	853.4	0.25
0.4005	0.2989	994.33	0.32
0.403	0.1987	922.04	0.27
0.4978	0.2019	928.6	0.28
0.4978	0.2984	997.78	0.32
0.5002	0.0996	858.22	0.25
0.5023	0.3979	1072.29	0.42
0.5912	0.1064	867.39	0.25
0.5987	0.3018	1004.17	0.32
0.5995	0.199	931.07	0.27
0.6973	0.1016	869.39	0.25
0.6983	0.198	934.8	0.27
0.7999	0.1002	873.34	0.24
0.8456	0.1024	877.01	0.25
0.8464	0.0504	843.12	0.24
0.8953	0.054	847.81	0.24
