Measured thermophysical data. Measurement and estimation of the vaporization enthalpy for amino acid ionic liquids [Cnmim][Thr](n = 2, 4)
Source: J. Chem. Thermodyn., 2017, 10.1016/j.jct.2017.05.015
Compound 1: 3-ethyl-1-methyl-1H-imidazolium DL-threoninate, C10H19N3O3, InChI=1S/C6H11N2.C4H9NO3/c1-3-8-5-4-7(2)6-8;1-2(6)3(5)4(7)8/h4-6H,3H2,1-2H3;2-3,6H,5H2,1H3,(H,7,8)/q+1;/p-1/t;2-,3+/m.1/s1, purity 99%
Compound 2: 3-butyl-1-methyl-1H-imidazolium DL-threoninate, C12H23N3O3, InChI=1S/C8H15N2.C4H9NO3/c1-3-4-5-10-7-6-9(2)8-10;1-2(6)3(5)4(7)8/h6-8H,3-5H2,1-2H3;2-3,6H,5H2,1H3,(H,7,8)/q+1;/p-1/t;2-,3+/m.1/s1, purity 99%

System: 3-ethyl-1-methyl-1H-imidazolium DL-threoninate; phases: Liquid, Gas
Property: Molar enthalpy of vaporization or sublimation, kJ/mol (Liquid); method: Derived by Second law
Temperature, K	Molar enthalpy of vaporization or sublimation, kJ/mol	uncertainty
438.15	112.3	10.7

System: 3-butyl-1-methyl-1H-imidazolium DL-threoninate; phases: Liquid, Gas
Property: Molar enthalpy of vaporization or sublimation, kJ/mol (Liquid); method: Derived by Second law
Temperature, K	Molar enthalpy of vaporization or sublimation, kJ/mol	uncertainty
438.15	120.2	4.5
