Measured thermophysical data. Determination and thermodynamic modelling for 4-nitropyrazole solubility in (methanol + water), (ethanol + water) and (acetonitrile + water) binary solvent mixtures from T = (278.15 to 318.15) K
Source: J. Chem. Thermodyn., 2016, 10.1016/j.jct.2016.08.023
Compound 1: 4-nitropyrazole, C3H3N3O2, InChI=1S/C3H3N3O2/c7-6(8)3-1-4-5-2-3/h1-2H,(H,4,5), purity 97.5%
Compound 2: methanol, CH4O, InChI=1S/CH4O/c1-2/h2H,1H3, purity 99.5%
Compound 3: ethanol, C2H6O, InChI=1S/C2H6O/c1-2-3/h3H,2H2,1H3, purity 99.7%
Compound 4: acetonitrile, C2H3N, InChI=1S/C2H3N/c1-2-3/h1H3, purity 99.4%
Compound 5: water, H2O, InChI=1S/H2O/h1H2

System: methanol + 4-nitropyrazole + water; phases: Liquid, Crystal
Fixed: Pressure, kPa = 101.3
Property: Mole fraction of 4-nitropyrazole (Liquid); method: Chromatography
Temperature, K	Solvent: Mass fraction of methanol	Mole fraction of 4-nitropyrazole	uncertainty
278.15	0	0.002093	0.000201
280.65	0	0.002181	0.000209
283.15	0	0.00231	0.000222
285.65	0	0.002481	0.000238
288.15	0	0.002683	0.000258
290.65	0	0.002861	0.000275
293.15	0	0.003146	0.000302
295.65	0	0.003392	0.000326
298.15	0	0.003699	0.000355
300.65	0	0.004011	0.000385
303.15	0	0.004398	0.000422
305.65	0	0.004769	0.000458
308.15	0	0.005256	0.000505
310.65	0	0.005863	0.000563
313.15	0	0.00653	0.000627
315.65	0	0.00724	0.000695
318.15	0	0.008022	0.00077
278.15	0.09883	0.0025	0.00024
280.65	0.09883	0.00265	0.000255
283.15	0.09883	0.0028	0.000269
285.65	0.09883	0.00305	0.000293
288.15	0.09883	0.003311	0.000318
290.65	0.09883	0.00365	0.000351
293.15	0.09883	0.003979	0.000382
295.65	0.09883	0.00443	0.000425
298.15	0.09883	0.004864	0.000467
300.65	0.09883	0.0054	0.000519
303.15	0.09883	0.005893	0.000566
305.65	0.09883	0.006382	0.000613
308.15	0.09883	0.006959	0.000668
310.65	0.09883	0.007532	0.000723
313.15	0.09883	0.008179	0.000786
315.65	0.09883	0.008932	0.000858
318.15	0.09883	0.009776	0.000939
278.15	0.1992	0.003442	0.000331
280.65	0.1992	0.003594	0.000345
283.15	0.1992	0.003796	0.000365
285.65	0.1992	0.003948	0.000379
288.15	0.1992	0.004146	0.000398
290.65	0.1992	0.004351	0.000418
293.15	0.1992	0.004618	0.000444
295.65	0.1992	0.005051	0.000486
298.15	0.1992	0.005496	0.000528
300.65	0.1992	0.006056	0.000582
303.15	0.1992	0.006699	0.000644
305.65	0.1992	0.007505	0.000721
308.15	0.1992	0.008331	0.000801
310.65	0.1992	0.009251	0.000889
313.15	0.1992	0.01011	0.00097
315.65	0.1992	0.01121	0.00108
318.15	0.1992	0.0122	0.00117
278.15	0.2985	0.004792	0.000461
280.65	0.2985	0.004909	0.000473
283.15	0.2985	0.005155	0.000497
285.65	0.2985	0.005553	0.000535
288.15	0.2985	0.00605	0.000583
290.65	0.2985	0.006653	0.000641
293.15	0.2985	0.007227	0.000696
295.65	0.2985	0.007923	0.000763
298.15	0.2985	0.008608	0.000828
300.65	0.2985	0.009392	0.000904
303.15	0.2985	0.01013	0.00097
305.65	0.2985	0.01108	0.00107
308.15	0.2985	0.01216	0.00117
310.65	0.2985	0.01348	0.0013
313.15	0.2985	0.01487	0.00143
315.65	0.2985	0.01625	0.00156
318.15	0.2985	0.01778	0.00171
278.15	0.3981	0.0073	0.000705
280.65	0.3981	0.00768	0.000742
283.15	0.3981	0.008068	0.000779
285.65	0.3981	0.008521	0.000823
288.15	0.3981	0.008953	0.000864
290.65	0.3981	0.009472	0.000914
293.15	0.3981	0.01009	0.00097
295.65	0.3981	0.01076	0.00104
298.15	0.3981	0.01156	0.00112
300.65	0.3981	0.01245	0.0012
303.15	0.3981	0.01349	0.0013
305.65	0.3981	0.01486	0.00143
308.15	0.3981	0.0161	0.00155
310.65	0.3981	0.01776	0.00171
313.15	0.3981	0.01913	0.00185
315.65	0.3981	0.02072	0.002
318.15	0.3981	0.0222	0.00214
278.15	0.501	0.01137	0.0011
280.65	0.501	0.01185	0.00114
283.15	0.501	0.01237	0.0012
285.65	0.501	0.01292	0.00125
288.15	0.501	0.01355	0.00131
290.65	0.501	0.01414	0.00137
293.15	0.501	0.01541	0.00149
295.65	0.501	0.01672	0.00162
298.15	0.501	0.01786	0.00173
300.65	0.501	0.01929	0.00187
303.15	0.501	0.02102	0.00204
305.65	0.501	0.02301	0.00223
308.15	0.501	0.0249	0.00241
310.65	0.501	0.027	0.00261
313.15	0.501	0.02936	0.00284
315.65	0.501	0.03165	0.00306
318.15	0.501	0.03406	0.0033
278.15	0.5989	0.01546	0.00149
280.65	0.5989	0.01614	0.00156
283.15	0.5989	0.01709	0.00165
285.65	0.5989	0.01847	0.00178
288.15	0.5989	0.01958	0.00189
290.65	0.5989	0.02139	0.00206
293.15	0.5989	0.02319	0.00223
295.65	0.5989	0.02481	0.00239
298.15	0.5989	0.02671	0.00257
300.65	0.5989	0.02906	0.0028
303.15	0.5989	0.03161	0.00304
305.65	0.5989	0.03394	0.00327
308.15	0.5989	0.03674	0.00354
310.65	0.5989	0.03982	0.00383
313.15	0.5989	0.04276	0.00411
315.65	0.5989	0.0459	0.00442
318.15	0.5989	0.04909	0.00472
278.15	0.6974	0.02271	0.00218
280.65	0.6974	0.02357	0.00227
283.15	0.6974	0.02478	0.00238
285.65	0.6974	0.02619	0.00252
288.15	0.6974	0.02737	0.00263
290.65	0.6974	0.02851	0.00274
293.15	0.6974	0.02977	0.00286
295.65	0.6974	0.0319	0.00307
298.15	0.6974	0.03464	0.00333
300.65	0.6974	0.03718	0.00358
303.15	0.6974	0.03976	0.00382
305.65	0.6974	0.0428	0.00411
308.15	0.6974	0.0458	0.0044
310.65	0.6974	0.04898	0.00471
313.15	0.6974	0.05123	0.00492
315.65	0.6974	0.05383	0.00517
318.15	0.6974	0.05708	0.00549
278.15	0.7958	0.02932	0.00282
280.65	0.7958	0.0301	0.00289
283.15	0.7958	0.03145	0.00302
285.65	0.7958	0.03377	0.00324
288.15	0.7958	0.03594	0.00345
290.65	0.7958	0.03838	0.00369
293.15	0.7958	0.04105	0.00394
295.65	0.7958	0.04335	0.00416
298.15	0.7958	0.04611	0.00443
300.65	0.7958	0.0489	0.0047
303.15	0.7958	0.05203	0.005
305.65	0.7958	0.05536	0.00532
308.15	0.7958	0.05881	0.00565
310.65	0.7958	0.06235	0.00599
313.15	0.7958	0.06578	0.00632
315.65	0.7958	0.06953	0.00668
318.15	0.7958	0.07338	0.00705
278.15	0.8977	0.03989	0.00383
280.65	0.8977	0.04068	0.00391
283.15	0.8977	0.04162	0.004
285.65	0.8977	0.04291	0.00412
288.15	0.8977	0.04475	0.0043
290.65	0.8977	0.047	0.00451
293.15	0.8977	0.04984	0.00479
295.65	0.8977	0.05277	0.00507
298.15	0.8977	0.05578	0.00536
300.65	0.8977	0.05832	0.0056
303.15	0.8977	0.06157	0.00591
305.65	0.8977	0.06508	0.00625
308.15	0.8977	0.0681	0.00654
310.65	0.8977	0.07195	0.00691
313.15	0.8977	0.07546	0.00725
315.65	0.8977	0.07971	0.00765
318.15	0.8977	0.08326	0.008
278.15	1	0.04905	0.00471
280.65	1	0.05019	0.00482
283.15	1	0.05175	0.00497
285.65	1	0.05319	0.00511
288.15	1	0.05582	0.00536
290.65	1	0.0583	0.0056
293.15	1	0.06101	0.00586
295.65	1	0.0638	0.00613
298.15	1	0.06702	0.00644
300.65	1	0.06982	0.0067
303.15	1	0.07301	0.00701
305.65	1	0.07582	0.00728
308.15	1	0.07885	0.00757
310.65	1	0.08168	0.00784
313.15	1	0.08477	0.00814
315.65	1	0.08849	0.0085
318.15	1	0.09204	0.00884

System: ethanol + 4-nitropyrazole + water; phases: Liquid, Crystal
Fixed: Pressure, kPa = 101.3
Property: Mole fraction of 4-nitropyrazole (Liquid); method: Chromatography
Temperature, K	Solvent: Mass fraction of ethanol	Mole fraction of 4-nitropyrazole	uncertainty
278.15	0	0.002093	0.000201
280.65	0	0.002181	0.000209
283.15	0	0.00231	0.000222
285.65	0	0.002481	0.000238
288.15	0	0.002683	0.000258
290.65	0	0.002861	0.000275
293.15	0	0.003146	0.000302
295.65	0	0.003392	0.000326
298.15	0	0.003699	0.000355
300.65	0	0.004011	0.000385
303.15	0	0.004398	0.000422
305.65	0	0.004769	0.000458
308.15	0	0.005256	0.000505
310.65	0	0.005863	0.000563
313.15	0	0.00653	0.000627
315.65	0	0.00724	0.000695
318.15	0	0.008022	0.00077
278.15	0.1008	0.002845	0.000273
280.65	0.1008	0.002944	0.000283
283.15	0.1008	0.003115	0.000299
285.65	0.1008	0.003347	0.000321
288.15	0.1008	0.003598	0.000346
290.65	0.1008	0.0038	0.000365
293.15	0.1008	0.0042	0.000403
295.65	0.1008	0.004595	0.000441
298.15	0.1008	0.005193	0.000499
300.65	0.1008	0.005748	0.000552
303.15	0.1008	0.006353	0.00061
305.65	0.1008	0.007057	0.000678
308.15	0.1008	0.007761	0.000746
310.65	0.1008	0.008712	0.000837
313.15	0.1008	0.009564	0.000919
315.65	0.1008	0.01042	0.001
318.15	0.1008	0.01132	0.00109
278.15	0.1986	0.00387	0.000372
280.65	0.1986	0.004061	0.000391
283.15	0.1986	0.004448	0.000428
285.65	0.1986	0.004851	0.000467
288.15	0.1986	0.005158	0.000496
290.65	0.1986	0.005663	0.000545
293.15	0.1986	0.00616	0.000593
295.65	0.1986	0.006848	0.000659
298.15	0.1986	0.007463	0.000718
300.65	0.1986	0.008348	0.000803
303.15	0.1986	0.008963	0.000862
305.65	0.1986	0.009716	0.000934
308.15	0.1986	0.01085	0.00104
310.65	0.1986	0.01166	0.00112
313.15	0.1986	0.01291	0.00124
315.65	0.1986	0.01405	0.00135
318.15	0.1986	0.01528	0.00147
278.15	0.2988	0.006629	0.000639
280.65	0.2988	0.006905	0.000666
283.15	0.2988	0.007409	0.000714
285.65	0.2988	0.007942	0.000765
288.15	0.2988	0.008322	0.000802
290.65	0.2988	0.009102	0.000877
293.15	0.2988	0.009749	0.000939
295.65	0.2988	0.01076	0.00104
298.15	0.2988	0.01163	0.00112
300.65	0.2988	0.01277	0.00123
303.15	0.2988	0.01404	0.00135
305.65	0.2988	0.01494	0.00144
308.15	0.2988	0.01633	0.00157
310.65	0.2988	0.01788	0.00172
313.15	0.2988	0.01971	0.0019
315.65	0.2988	0.02157	0.00208
318.15	0.2988	0.02382	0.00229
278.15	0.401	0.01035	0.001
280.65	0.401	0.01069	0.00103
283.15	0.401	0.01133	0.0011
285.65	0.401	0.01198	0.00116
288.15	0.401	0.01277	0.00124
290.65	0.401	0.01335	0.00129
293.15	0.401	0.01409	0.00136
295.65	0.401	0.01498	0.00145
298.15	0.401	0.01638	0.00158
300.65	0.401	0.01752	0.00169
303.15	0.401	0.01909	0.00184
305.65	0.401	0.021	0.00203
308.15	0.401	0.02307	0.00223
310.65	0.401	0.02544	0.00245
313.15	0.401	0.02776	0.00268
315.65	0.401	0.03038	0.00293
318.15	0.401	0.03317	0.0032
278.15	0.5003	0.01606	0.00156
280.65	0.5003	0.01703	0.00165
283.15	0.5003	0.01817	0.00176
285.65	0.5003	0.01947	0.00188
288.15	0.5003	0.02077	0.00201
290.65	0.5003	0.02243	0.00217
293.15	0.5003	0.02383	0.0023
295.65	0.5003	0.02521	0.00244
298.15	0.5003	0.02701	0.00261
300.65	0.5003	0.02867	0.00277
303.15	0.5003	0.03044	0.00294
305.65	0.5003	0.03207	0.0031
308.15	0.5003	0.03415	0.0033
310.65	0.5003	0.03673	0.00355
313.15	0.5003	0.0396	0.00383
315.65	0.5003	0.043	0.00416
318.15	0.5003	0.04661	0.0045
278.15	0.5997	0.02471	0.00238
280.65	0.5997	0.02535	0.00244
283.15	0.5997	0.02585	0.00249
285.65	0.5997	0.02694	0.0026
288.15	0.5997	0.02863	0.00276
290.65	0.5997	0.0301	0.0029
293.15	0.5997	0.03205	0.00309
295.65	0.5997	0.03359	0.00324
298.15	0.5997	0.03552	0.00342
300.65	0.5997	0.03858	0.00372
303.15	0.5997	0.04186	0.00403
305.65	0.5997	0.04539	0.00437
308.15	0.5997	0.0489	0.00471
310.65	0.5997	0.05247	0.00505
313.15	0.5997	0.05645	0.00544
315.65	0.5997	0.06103	0.00587
318.15	0.5997	0.06586	0.00634
278.15	0.6979	0.03371	0.00324
280.65	0.6979	0.03449	0.00332
283.15	0.6979	0.03601	0.00346
285.65	0.6979	0.03729	0.00359
288.15	0.6979	0.03929	0.00378
290.65	0.6979	0.04155	0.004
293.15	0.6979	0.04431	0.00426
295.65	0.6979	0.04756	0.00457
298.15	0.6979	0.05131	0.00493
300.65	0.6979	0.05479	0.00527
303.15	0.6979	0.05779	0.00556
305.65	0.6979	0.06129	0.00589
308.15	0.6979	0.06502	0.00625
310.65	0.6979	0.06877	0.00661
313.15	0.6979	0.07277	0.007
315.65	0.6979	0.07653	0.00736
318.15	0.6979	0.08178	0.00786
278.15	0.8004	0.04303	0.00413
280.65	0.8004	0.04486	0.00431
283.15	0.8004	0.04679	0.00449
285.65	0.8004	0.04973	0.00478
288.15	0.8004	0.05243	0.00504
290.65	0.8004	0.05559	0.00534
293.15	0.8004	0.05844	0.00561
295.65	0.8004	0.0623	0.00598
298.15	0.8004	0.06544	0.00628
300.65	0.8004	0.06887	0.00661
303.15	0.8004	0.07247	0.00696
305.65	0.8004	0.07688	0.00738
308.15	0.8004	0.08098	0.00778
310.65	0.8004	0.08643	0.0083
313.15	0.8004	0.09158	0.00879
315.65	0.8004	0.09692	0.00931
318.15	0.8004	0.1028	0.0099
278.15	0.8975	0.04082	0.00392
280.65	0.8975	0.04229	0.00406
283.15	0.8975	0.04471	0.00429
285.65	0.8975	0.04686	0.0045
288.15	0.8975	0.04958	0.00476
290.65	0.8975	0.05228	0.00502
293.15	0.8975	0.05478	0.00526
295.65	0.8975	0.05814	0.00558
298.15	0.8975	0.06121	0.00588
300.65	0.8975	0.06472	0.00621
303.15	0.8975	0.06843	0.00657
305.65	0.8975	0.07192	0.00691
308.15	0.8975	0.0766	0.00736
310.65	0.8975	0.08072	0.00775
313.15	0.8975	0.08573	0.00823
315.65	0.8975	0.09093	0.00873
318.15	0.8975	0.09677	0.00929
278.15	1	0.03697	0.00355
280.65	1	0.03887	0.00373
283.15	1	0.04052	0.00389
285.65	1	0.04287	0.00412
288.15	1	0.04505	0.00433
290.65	1	0.04703	0.00452
293.15	1	0.04937	0.00474
295.65	1	0.05207	0.005
298.15	1	0.05485	0.00527
300.65	1	0.05815	0.00558
303.15	1	0.06141	0.0059
305.65	1	0.06474	0.00622
308.15	1	0.06765	0.0065
310.65	1	0.07144	0.00686
313.15	1	0.0747	0.00717
315.65	1	0.07841	0.00753
318.15	1	0.08285	0.00796

System: acetonitrile + 4-nitropyrazole + water; phases: Liquid, Crystal
Fixed: Pressure, kPa = 101.3
Property: Mole fraction of 4-nitropyrazole (Liquid); method: Chromatography
Temperature, K	Solvent: Mass fraction of acetonitrile	Mole fraction of 4-nitropyrazole	uncertainty
278.15	0	0.002093	0.000201
280.65	0	0.002181	0.000209
283.15	0	0.00231	0.000222
285.65	0	0.002481	0.000238
288.15	0	0.002683	0.000258
290.65	0	0.002861	0.000275
293.15	0	0.003146	0.000302
295.65	0	0.003392	0.000326
298.15	0	0.003699	0.000355
300.65	0	0.004011	0.000385
303.15	0	0.004398	0.000422
305.65	0	0.004769	0.000458
308.15	0	0.005256	0.000505
310.65	0	0.005863	0.000563
313.15	0	0.00653	0.000627
315.65	0	0.00724	0.000695
318.15	0	0.008022	0.00077
278.15	0.0989	0.004433	0.000426
280.65	0.0989	0.004647	0.000447
283.15	0.0989	0.00499	0.00048
285.65	0.0989	0.005328	0.000512
288.15	0.0989	0.005771	0.000555
290.65	0.0989	0.006229	0.000599
293.15	0.0989	0.006682	0.000642
295.65	0.0989	0.007284	0.0007
298.15	0.0989	0.007945	0.000764
300.65	0.0989	0.008731	0.000839
303.15	0.0989	0.009527	0.000916
305.65	0.0989	0.01043	0.001
308.15	0.0989	0.01139	0.00109
310.65	0.0989	0.01255	0.00121
313.15	0.0989	0.01367	0.00131
315.65	0.0989	0.01483	0.00143
318.15	0.0989	0.01607	0.00154
278.15	0.1983	0.008321	0.000802
280.65	0.1983	0.00854	0.000823
283.15	0.1983	0.008839	0.000852
285.65	0.1983	0.009278	0.000894
288.15	0.1983	0.00991	0.000955
290.65	0.1983	0.01057	0.00102
293.15	0.1983	0.01157	0.00111
295.65	0.1983	0.01252	0.00121
298.15	0.1983	0.01353	0.0013
300.65	0.1983	0.01493	0.00144
303.15	0.1983	0.01637	0.00158
305.65	0.1983	0.018	0.00173
308.15	0.1983	0.0198	0.00191
310.65	0.1983	0.02196	0.00211
313.15	0.1983	0.02396	0.00231
315.65	0.1983	0.02621	0.00252
318.15	0.1983	0.02865	0.00276
278.15	0.3004	0.01598	0.00154
280.65	0.3004	0.0163	0.00157
283.15	0.3004	0.01702	0.00164
285.65	0.3004	0.0175	0.00169
288.15	0.3004	0.01832	0.00177
290.65	0.3004	0.01946	0.00188
293.15	0.3004	0.02085	0.00201
295.65	0.3004	0.02243	0.00216
298.15	0.3004	0.02387	0.0023
300.65	0.3004	0.02587	0.0025
303.15	0.3004	0.02817	0.00272
305.65	0.3004	0.03017	0.00291
308.15	0.3004	0.03278	0.00316
310.65	0.3004	0.03565	0.00343
313.15	0.3004	0.03897	0.00375
315.65	0.3004	0.04292	0.00413
318.15	0.3004	0.04746	0.00457
278.15	0.3967	0.02565	0.00248
280.65	0.3967	0.02642	0.00255
283.15	0.3967	0.02714	0.00262
285.65	0.3967	0.02862	0.00276
288.15	0.3967	0.03004	0.0029
290.65	0.3967	0.0319	0.00308
293.15	0.3967	0.03406	0.00329
295.65	0.3967	0.0363	0.0035
298.15	0.3967	0.03863	0.00373
300.65	0.3967	0.04104	0.00396
303.15	0.3967	0.04335	0.00418
305.65	0.3967	0.04572	0.00441
308.15	0.3967	0.04817	0.00464
310.65	0.3967	0.05131	0.00494
313.15	0.3967	0.05491	0.00529
315.65	0.3967	0.05926	0.00571
318.15	0.3967	0.06453	0.00621
278.15	0.5011	0.03854	0.00374
280.65	0.5011	0.03944	0.00382
283.15	0.5011	0.04076	0.00395
285.65	0.5011	0.04239	0.00411
288.15	0.5011	0.04442	0.0043
290.65	0.5011	0.04675	0.00452
293.15	0.5011	0.04933	0.00477
295.65	0.5011	0.052	0.00502
298.15	0.5011	0.05465	0.00528
300.65	0.5011	0.05704	0.00551
303.15	0.5011	0.05992	0.00578
305.65	0.5011	0.06272	0.00605
308.15	0.5011	0.06623	0.00639
310.65	0.5011	0.06965	0.00672
313.15	0.5011	0.0739	0.00712
315.65	0.5011	0.07796	0.00751
318.15	0.5011	0.082	0.0079
278.15	0.5985	0.06001	0.00578
280.65	0.5985	0.06193	0.00596
283.15	0.5985	0.06347	0.00611
285.65	0.5985	0.06558	0.00631
288.15	0.5985	0.06771	0.00652
290.65	0.5985	0.06973	0.00671
293.15	0.5985	0.07176	0.00691
295.65	0.5985	0.07414	0.00714
298.15	0.5985	0.07682	0.00739
300.65	0.5985	0.07963	0.00766
303.15	0.5985	0.08256	0.00794
305.65	0.5985	0.0854	0.00822
308.15	0.5985	0.0885	0.00851
310.65	0.5985	0.09246	0.00889
313.15	0.5985	0.09579	0.00921
315.65	0.5985	0.09946	0.00957
318.15	0.5985	0.104	0.01
278.15	0.6996	0.07517	0.00722
280.65	0.6996	0.07649	0.00735
283.15	0.6996	0.07824	0.00752
285.65	0.6996	0.08035	0.00772
288.15	0.6996	0.08276	0.00795
290.65	0.6996	0.08556	0.00822
293.15	0.6996	0.08856	0.00851
295.65	0.6996	0.09176	0.00881
298.15	0.6996	0.09561	0.00918
300.65	0.6996	0.09928	0.00954
303.15	0.6996	0.1029	0.0099
305.65	0.6996	0.1064	0.0102
308.15	0.6996	0.1101	0.0106
310.65	0.6996	0.1133	0.0109
313.15	0.6996	0.1174	0.0113
315.65	0.6996	0.1212	0.0116
318.15	0.6996	0.1256	0.0121
278.15	0.7975	0.08242	0.00792
280.65	0.7975	0.08467	0.00813
283.15	0.7975	0.08705	0.00836
285.65	0.7975	0.08967	0.00861
288.15	0.7975	0.09221	0.00885
290.65	0.7975	0.09495	0.00912
293.15	0.7975	0.09813	0.00942
295.65	0.7975	0.1015	0.0097
298.15	0.7975	0.1051	0.0101
300.65	0.7975	0.109	0.0105
303.15	0.7975	0.1133	0.0109
305.65	0.7975	0.1175	0.0113
308.15	0.7975	0.1207	0.0116
310.65	0.7975	0.1253	0.012
313.15	0.7975	0.1296	0.0124
315.65	0.7975	0.1358	0.013
318.15	0.7975	0.1432	0.0138
278.15	0.8958	0.07077	0.0068
280.65	0.8958	0.07257	0.00697
283.15	0.8958	0.074	0.00711
285.65	0.8958	0.07581	0.00728
288.15	0.8958	0.07761	0.00745
290.65	0.8958	0.07924	0.00761
293.15	0.8958	0.08143	0.00782
295.65	0.8958	0.08418	0.00808
298.15	0.8958	0.08695	0.00835
300.65	0.8958	0.0901	0.00865
303.15	0.8958	0.09342	0.00897
305.65	0.8958	0.09706	0.00932
308.15	0.8958	0.1013	0.0097
310.65	0.8958	0.1057	0.0102
313.15	0.8958	0.1097	0.0105
315.65	0.8958	0.1134	0.0109
318.15	0.8958	0.1173	0.0113
278.15	1	0.04784	0.00459
280.65	1	0.04907	0.00471
283.15	1	0.05076	0.00487
285.65	1	0.05242	0.00503
288.15	1	0.05407	0.00519
290.65	1	0.05576	0.00535
293.15	1	0.05757	0.00553
295.65	1	0.05952	0.00572
298.15	1	0.06229	0.00598
300.65	1	0.06476	0.00622
303.15	1	0.06742	0.00647
305.65	1	0.07025	0.00675
308.15	1	0.07309	0.00702
310.65	1	0.07579	0.00728
313.15	1	0.07905	0.00759
315.65	1	0.08277	0.00795
318.15	1	0.08718	0.00837

System: 4-nitropyrazole + water; phases: Liquid, Crystal
Fixed: Pressure, kPa = 101.3
Property: Mole fraction of 4-nitropyrazole (Liquid); method: Chromatography
Temperature, K	Mole fraction of 4-nitropyrazole	uncertainty
278.15	0.002093	0.000201
280.65	0.002181	0.000209
283.15	0.00231	0.000222
285.65	0.002481	0.000238
288.15	0.002683	0.000258
290.65	0.002861	0.000275
293.15	0.003146	0.000302
295.65	0.003392	0.000326
298.15	0.003699	0.000355
300.65	0.004011	0.000385
303.15	0.004398	0.000422
305.65	0.004769	0.000458
308.15	0.005256	0.000505
310.65	0.005863	0.000563
313.15	0.00653	0.000627
315.65	0.00724	0.000695
318.15	0.008022	0.00077

System: methanol + 4-nitropyrazole; phases: Liquid, Crystal
Fixed: Pressure, kPa = 101.3
Property: Mole fraction of 4-nitropyrazole (Liquid); method: Chromatography
Temperature, K	Mole fraction of 4-nitropyrazole	uncertainty
278.15	0.04905	0.00471
280.65	0.05019	0.00482
283.15	0.05175	0.00497
285.65	0.05319	0.00511
288.15	0.05582	0.00536
290.65	0.0583	0.0056
293.15	0.06101	0.00586
295.65	0.0638	0.00613
298.15	0.06702	0.00644
300.65	0.06982	0.0067
303.15	0.07301	0.00701
305.65	0.07582	0.00728
308.15	0.07885	0.00757
310.65	0.08168	0.00784
313.15	0.08477	0.00814
315.65	0.08849	0.0085
318.15	0.09204	0.00884

System: ethanol + 4-nitropyrazole; phases: Liquid, Crystal
Fixed: Pressure, kPa = 101.3
Property: Mole fraction of 4-nitropyrazole (Liquid); method: Chromatography
Temperature, K	Mole fraction of 4-nitropyrazole	uncertainty
278.15	0.03697	0.00355
280.65	0.03887	0.00373
283.15	0.04052	0.00389
285.65	0.04287	0.00412
288.15	0.04505	0.00433
290.65	0.04703	0.00452
293.15	0.04937	0.00474
295.65	0.05207	0.005
298.15	0.05485	0.00527
300.65	0.05815	0.00558
303.15	0.06141	0.0059
305.65	0.06474	0.00622
308.15	0.06765	0.0065
310.65	0.07144	0.00686
313.15	0.0747	0.00717
315.65	0.07841	0.00753
318.15	0.08285	0.00796

System: acetonitrile + 4-nitropyrazole; phases: Liquid, Crystal
Fixed: Pressure, kPa = 101.3
Property: Mole fraction of 4-nitropyrazole (Liquid); method: Chromatography
Temperature, K	Mole fraction of 4-nitropyrazole	uncertainty
278.15	0.04784	0.00459
280.65	0.04907	0.00471
283.15	0.05076	0.00487
285.65	0.05242	0.00503
288.15	0.05407	0.00519
290.65	0.05576	0.00535
293.15	0.05757	0.00553
295.65	0.05952	0.00572
298.15	0.06229	0.00598
300.65	0.06476	0.00622
303.15	0.06742	0.00647
305.65	0.07025	0.00675
308.15	0.07309	0.00702
310.65	0.07579	0.00728
313.15	0.07905	0.00759
315.65	0.08277	0.00795
318.15	0.08718	0.00837
