Measured thermophysical data. Temperature and pressure dependences of volumetric properties of two poly(propylene glycol) dimethyl ether lubricants
Source: J. Chem. Thermodyn., 2010, 10.1016/j.jct.2009.07.013
Compound 1: toluene, C7H8, InChI=1S/C7H8/c1-7-5-3-2-4-6-7/h2-6H,1H3, purity 99.5%
Compound 2: 2,6,10,15,19,23-hexamethyltetracosane, C30H62, InChI=1S/C30H62/c1-25(2)15-11-19-29(7)23-13-21-27(5)17-9-10-18-28(6)22-14-24-30(8)20-12-16-26(3)4/h25-30H,9-24H2,1-8H3, purity 99.5%

System: toluene; phases: Liquid
Property: Mass density, kg/m3 (Liquid); method: Vibrating tube method
Pressure, kPa	Temperature, K	Mass density, kg/m3	uncertainty
100	298.15	862	0.2
1000	298.15	862.7	0.2
5000	298.15	865.7	0.2
10000	298.15	869.4	0.2
15000	298.15	873	0.3
20000	298.15	876.4	0.3
30000	298.15	882.9	0.3
40000	298.15	889	0.4
45000	298.15	891.9	0.4
50000	298.15	894.7	0.4
60000	298.15	900.2	0.4
100	323.15	838.7	0.2
1000	323.15	839.5	0.2
5000	323.15	843.1	0.2
10000	323.15	847.4	0.2
15000	323.15	851.5	0.3
20000	323.15	855.4	0.3
30000	323.15	862.7	0.4
40000	323.15	869.5	0.4
45000	323.15	872.7	0.4
50000	323.15	875.9	0.5
60000	323.15	881.9	0.5
100	348.15	814.6	0.2
1000	348.15	815.6	0.2
5000	348.15	819.8	0.2
10000	348.15	824.7	0.3
15000	348.15	829.5	0.3
20000	348.15	834	0.3
30000	348.15	842.4	0.4
40000	348.15	850	0.5
45000	348.15	853.6	0.5
50000	348.15	857.1	0.5
60000	348.15	863.8	0.6
1000	373.15	791.1	0.2
5000	373.15	796	0.2
10000	373.15	801.8	0.3
15000	373.15	807.3	0.3
20000	373.15	812.5	0.4
30000	373.15	822	0.4
40000	373.15	830.6	0.5
45000	373.15	834.6	0.5
50000	373.15	838.4	0.6
60000	373.15	845.8	0.6
1000	398.15	765.3	0.2
5000	398.15	771.3	0.3
10000	398.15	778.3	0.3
15000	398.15	784.7	0.4
20000	398.15	790.8	0.4
30000	398.15	801.6	0.5
40000	398.15	811.2	0.6
45000	398.15	815.7	0.6
50000	398.15	819.9	0.6
60000	398.15	828	0.7

System: 2,6,10,15,19,23-hexamethyltetracosane; phases: Liquid
Property: Mass density, kg/m3 (Liquid); method: Vibrating tube method
Pressure, kPa	Temperature, K	Mass density, kg/m3	uncertainty
100	298.15	804.9	0.2
1000	298.15	805.4	0.2
5000	298.15	807.8	0.2
10000	298.15	810.7	0.3
15000	298.15	813.4	0.3
20000	298.15	816.1	0.4
30000	298.15	821.2	0.4
40000	298.15	826	0.5
45000	298.15	828.3	0.6
50000	298.15	830.5	0.6
60000	298.15	834.8	0.7
100	323.15	789	0.2
1000	323.15	789.6	0.2
5000	323.15	792.3	0.2
10000	323.15	795.5	0.3
15000	323.15	798.6	0.3
20000	323.15	801.5	0.4
30000	323.15	807.1	0.5
40000	323.15	812.3	0.6
45000	323.15	814.8	0.6
50000	323.15	817.2	0.6
60000	323.15	821.9	0.7
100	348.15	773	0.2
1000	348.15	773.7	0.2
5000	348.15	776.7	0.3
10000	348.15	780.3	0.3
15000	348.15	783.7	0.4
20000	348.15	787	0.4
30000	348.15	793.2	0.5
40000	348.15	799	0.6
45000	348.15	801.7	0.6
50000	348.15	804.3	0.7
60000	348.15	809.3	0.8
1000	373.15	758	0.2
5000	373.15	761.3	0.3
10000	373.15	765.3	0.3
15000	373.15	769.1	0.4
20000	373.15	772.7	0.4
30000	373.15	779.5	0.5
40000	373.15	785.8	0.6
45000	373.15	788.7	0.7
50000	373.15	791.6	0.7
60000	373.15	797.1	0.8
1000	398.15	742.1	0.2
5000	398.15	745.9	0.3
10000	398.15	750.4	0.3
15000	398.15	754.6	0.4
20000	398.15	758.6	0.4
30000	398.15	766.1	0.6
40000	398.15	772.9	0.7
45000	398.15	776.1	0.7
50000	398.15	779.1	0.7
60000	398.15	785	0.8
