Measured thermophysical data. Thermodynamic properties of solutions of sodium di-hydrogen phosphate in (1-propanol + water) mixed-solvent media over the temperature range of (283.15 to 303.15) K
Source: J. Chem. Thermodyn., 2008, 10.1016/j.jct.2008.01.018
Compound 1: sodium dihydrogen phosphate, H2NaO4P, InChI=1S/Na.H3O4P/c;1-5(2,3)4/h;(H3,1,2,3,4)/q+1;/p-1, purity 99.5%
Compound 2: water, H2O, InChI=1S/H2O/h1H2
Compound 3: propan-1-ol, C3H8O, InChI=1S/C3H8O/c1-2-3-4/h4H,2-3H2,1H3, purity 99.5%

System: sodium dihydrogen phosphate + water; phases: Liquid
Fixed: Pressure, kPa = 101
Fixed: Temperature, K = 298.15
Property: Molar conductivity, S*m2/mol (Liquid); method: Alternating current cell with electrodes
Molality, mol/kg of sodium dihydrogen phosphate	Molar conductivity, S*m2/mol	uncertainty
0.0207	0.007617	0.000152
0.0415	0.007228	0.000145
0.0697	0.006835	0.000137
0.1051	0.006554	0.000131
0.1397	0.006344	0.000127
0.1901	0.006104	0.000122
0.2357	0.005904	0.000118
0.2947	0.005721	0.000114
0.3516	0.005532	0.000111
0.433	0.005334	0.000107
0.5113	0.005168	0.000103
0.5842	0.004955	9.9e-05
0.653	0.004836	9.7e-05
0.6999	0.004755	9.5e-05
0.7919	0.004567	9.1e-05
0.9206	0.004363	8.7e-05
1.1754	0.003982	8e-05
1.1799	0.003976	8e-05
1.4467	0.003669	7.3e-05
1.7945	0.003294	6.6e-05
2.0792	0.00303	6.1e-05
2.3959	0.002762	5.5e-05
2.3981	0.002778	5.6e-05

System: sodium dihydrogen phosphate + water; phases: Liquid
Fixed: Pressure, kPa = 101
Fixed: Temperature, K = 298.15
Property: Refractive index (Na D-line) (Liquid); method: Standard Abbe refractometry
Molality, mol/kg of sodium dihydrogen phosphate	Refractive index (Na D-line)	uncertainty
0.0207	1.3331	0.0027
0.0415	1.3334	0.0027
0.0697	1.3338	0.0027
0.1051	1.3342	0.0027
0.1397	1.3351	0.0027
0.1901	1.3357	0.0027
0.2357	1.3363	0.0027
0.2947	1.3373	0.0027
0.3516	1.3382	0.0027
0.433	1.3393	0.0027
0.5113	1.3405	0.0027
0.5842	1.3416	0.0027
0.653	1.3425	0.0027
0.6999	1.3432	0.0027
0.7919	1.3442	0.0027
0.9206	1.3459	0.0027
1.1754	1.3491	0.0027
1.1799	1.3491	0.0027
1.4467	1.3524	0.0027
1.7945	1.3565	0.0027
2.0792	1.3597	0.0027
2.3959	1.3629	0.0027
2.3981	1.3627	0.0027

System: sodium dihydrogen phosphate + water; phases: Liquid
Fixed: Pressure, kPa = 101
Property: Speed of sound, m/s (Liquid); method: Sing-around technique in a fixed-path interferometer
Temperature, K	Molality, mol/kg of sodium dihydrogen phosphate	Speed of sound, m/s	uncertainty
283.15	0.0343	1451.82	0.72
283.15	0.0484	1453.47	0.73
283.15	0.1399	1463.56	0.73
283.15	0.167	1466.5	0.73
283.15	0.1967	1469.74	0.73
283.15	0.2231	1472.63	0.73
283.15	0.2506	1475.52	0.74
283.15	0.3229	1483.21	0.74
283.15	0.3586	1486.93	0.74
283.15	0.4346	1494.65	0.74
283.15	0.5108	1502.2	0.75
283.15	0.5812	1509.25	0.75
283.15	0.6658	1517.55	0.75
283.15	0.7462	1525.32	0.76
283.15	0.9163	1541.55	0.76
283.15	1.0933	1558.41	0.77
283.15	1.2621	1573.74	0.78
283.15	1.4513	1590.45	0.79
283.15	1.7584	1616.97	0.8
283.15	2.0412	1641.2	0.82
283.15	2.3743	1669.2	0.83
283.15	2.747	1699.51	0.85
283.15	3.1149	1727.22	0.87
283.15	3.5119	1758.16	0.89
288.15	0.0343	1469.99	0.73
288.15	0.0484	1471.56	0.73
288.15	0.1399	1481.24	0.74
288.15	0.167	1484.08	0.74
288.15	0.1967	1487.21	0.74
288.15	0.2231	1489.99	0.74
288.15	0.2506	1492.79	0.74
288.15	0.3229	1500.16	0.75
288.15	0.3586	1503.71	0.75
288.15	0.4346	1511.1	0.75
288.15	0.5108	1518.38	0.75
288.15	0.5812	1525.15	0.76
288.15	0.6658	1533.12	0.76
288.15	0.7462	1540.55	0.76
288.15	0.9163	1556.14	0.77
288.15	1.0933	1572.27	0.78
288.15	1.2621	1586.96	0.78
288.15	1.4513	1602.93	0.79
288.15	1.7584	1628.32	0.81
288.15	2.0412	1651.44	0.82
288.15	2.3743	1678.23	0.83
288.15	2.747	1707.2	0.85
288.15	3.1149	1733.63	0.87
288.15	3.5119	1763.26	0.89
293.15	0.0343	1486.03	0.74
293.15	0.0484	1487.56	0.74
293.15	0.1399	1496.91	0.74
293.15	0.167	1499.65	0.74
293.15	0.1967	1502.65	0.75
293.15	0.2231	1505.31	0.75
293.15	0.2506	1507.99	0.75
293.15	0.3229	1515.08	0.75
293.15	0.3586	1518.5	0.75
293.15	0.4346	1525.64	0.76
293.15	0.5108	1532.62	0.76
293.15	0.5812	1539.11	0.76
293.15	0.6658	1546.76	0.77
293.15	0.7462	1553.92	0.77
293.15	0.9163	1568.88	0.78
293.15	1.0933	1584.35	0.78
293.15	1.2621	1598.48	0.79
293.15	1.4513	1613.77	0.8
293.15	1.7584	1638.11	0.81
293.15	2.0412	1660.25	0.82
293.15	2.3743	1685.9	0.84
293.15	2.747	1713.66	0.85
293.15	3.1149	1738.95	0.87
293.15	3.5119	1767.37	0.89
298.15	0.0343	1500.17	0.74
298.15	0.0484	1501.69	0.74
298.15	0.1399	1510.61	0.75
298.15	0.167	1513.25	0.75
298.15	0.1967	1516.15	0.75
298.15	0.2231	1518.73	0.75
298.15	0.2506	1521.34	0.75
298.15	0.3229	1528.16	0.76
298.15	0.3586	1531.45	0.76
298.15	0.4346	1538.31	0.76
298.15	0.5108	1545.02	0.76
298.15	0.5812	1551.26	0.77
298.15	0.6658	1558.69	0.77
298.15	0.7462	1565.55	0.77
298.15	0.9163	1579.92	0.78
298.15	1.0933	1594.83	0.79
298.15	1.2621	1608.36	0.79
298.15	1.4513	1623.07	0.8
298.15	1.7584	1646.44	0.81
298.15	2.0412	1667.73	0.82
298.15	2.3743	1692.31	0.84
298.15	2.747	1718.94	0.85
298.15	3.1149	1743.21	0.87
298.15	3.5119	1770.51	0.89
303.15	0.0343	1512.43	0.75
303.15	0.0484	1513.89	0.75
303.15	0.1399	1522.55	0.75
303.15	0.167	1525.09	0.75
303.15	0.1967	1527.89	0.75
303.15	0.2231	1530.39	0.76
303.15	0.2506	1532.93	0.76
303.15	0.3229	1539.46	0.76
303.15	0.3586	1542.64	0.76
303.15	0.4346	1549.28	0.77
303.15	0.5108	1555.75	0.77
303.15	0.5812	1561.78	0.77
303.15	0.6658	1568.92	0.77
303.15	0.7462	1575.52	0.78
303.15	0.9163	1589.39	0.78
303.15	1.0933	1603.74	0.79
303.15	1.2621	1616.79	0.8
303.15	1.4513	1630.95	0.8
303.15	1.7584	1653.43	0.82
303.15	2.0412	1673.9	0.83
303.15	2.3743	1697.54	0.84
303.15	2.747	1723.16	0.85
303.15	3.1149	1746.49	0.87
303.15	3.5119	1772.79	0.89

System: sodium dihydrogen phosphate + water; phases: Liquid
Fixed: Pressure, kPa = 101
Property: Mass density, kg/m3 (Liquid); method: VIBTUB:UFactor:4
Temperature, K	Molality, mol/kg of sodium dihydrogen phosphate	Mass density, kg/m3	uncertainty
283.15	0.0343	1002.889	0.159
283.15	0.0484	1004.159	0.16
283.15	0.1399	1012.405	0.171
283.15	0.167	1014.815	0.174
283.15	0.1967	1017.473	0.178
283.15	0.2231	1019.838	0.181
283.15	0.2506	1022.234	0.184
283.15	0.3229	1028.585	0.192
283.15	0.3586	1031.67	0.196
283.15	0.4346	1038.073	0.205
283.15	0.5108	1044.451	0.214
283.15	0.5812	1050.362	0.222
283.15	0.6658	1057.33	0.232
283.15	0.7462	1063.82	0.241
283.15	0.9163	1077.416	0.262
283.15	1.0933	1091.462	0.283
283.15	1.2621	1104.213	0.302
283.15	1.4513	1117.946	0.323
283.15	1.7584	1139.711	0.357
283.15	2.0412	1159.215	0.387
283.15	2.3743	1181.48	0.423
283.15	2.747	1205.289	0.46
283.15	3.1149	1226.765	0.495
283.15	3.5119	1250.32	0.533
288.15	0.0343	1002.246	0.161
288.15	0.0484	1003.501	0.155
288.15	0.1399	1011.648	0.169
288.15	0.167	1014.033	0.173
288.15	0.1967	1016.659	0.176
288.15	0.2231	1018.999	0.179
288.15	0.2506	1021.366	0.182
288.15	0.3229	1027.652	0.191
288.15	0.3586	1030.704	0.194
288.15	0.4346	1037.04	0.203
288.15	0.5108	1043.357	0.212
288.15	0.5812	1049.213	0.22
288.15	0.6658	1056.116	0.23
288.15	0.7462	1062.544	0.239
288.15	0.9163	1076.031	0.26
288.15	1.0933	1089.965	0.28
288.15	1.2621	1102.619	0.299
288.15	1.4513	1116.262	0.32
288.15	1.7584	1137.89	0.354
288.15	2.0412	1157.281	0.384
288.15	2.3743	1179.423	0.419
288.15	2.747	1203.122	0.457
288.15	3.1149	1224.508	0.491
288.15	3.5119	1247.974	0.53
293.15	0.0343	1001.315	0.159
293.15	0.0484	1002.557	0.154
293.15	0.1399	1010.622	0.168
293.15	0.167	1012.981	0.171
293.15	0.1967	1015.582	0.174
293.15	0.2231	1017.899	0.177
293.15	0.2506	1020.245	0.18
293.15	0.3229	1026.47	0.189
293.15	0.3586	1029.496	0.192
293.15	0.4346	1035.776	0.201
293.15	0.5108	1042.04	0.21
293.15	0.5812	1047.845	0.218
293.15	0.6658	1054.696	0.228
293.15	0.7462	1061.076	0.237
293.15	0.9163	1074.461	0.257
293.15	1.0933	1088.3	0.278
293.15	1.2621	1100.869	0.296
293.15	1.4513	1114.431	0.317
293.15	1.7584	1135.933	0.351
293.15	2.0412	1155.225	0.381
293.15	2.3743	1177.263	0.416
293.15	2.747	1200.859	0.453
293.15	3.1149	1222.164	0.488
293.15	3.5119	1245.549	0.526
298.15	0.0343	1000.126	0.157
298.15	0.0484	1001.355	0.152
298.15	0.1399	1009.352	0.165
298.15	0.167	1011.691	0.169
298.15	0.1967	1014.27	0.172
298.15	0.2231	1016.569	0.175
298.15	0.2506	1018.894	0.178
298.15	0.3229	1025.07	0.186
298.15	0.3586	1028.073	0.19
298.15	0.4346	1034.304	0.198
298.15	0.5108	1040.521	0.207
298.15	0.5812	1046.287	0.216
298.15	0.6658	1053.087	0.225
298.15	0.7462	1059.425	0.234
298.15	0.9163	1072.726	0.254
298.15	1.0933	1086.477	0.275
298.15	1.2621	1098.977	0.293
298.15	1.4513	1112.461	0.314
298.15	1.7584	1133.857	0.347
298.15	2.0412	1153.059	0.378
298.15	2.3743	1175.003	0.412
298.15	2.747	1198.51	0.45
298.15	3.1149	1219.739	0.484
298.15	3.5119	1243.05	0.522
303.15	0.0343	998.703	0.155
303.15	0.0484	999.924	0.153
303.15	0.1399	1007.862	0.163
303.15	0.167	1010.182	0.166
303.15	0.1967	1012.741	0.17
303.15	0.2231	1015.025	0.172
303.15	0.2506	1017.333	0.175
303.15	0.3229	1023.469	0.184
303.15	0.3586	1026.449	0.187
303.15	0.4346	1032.64	0.196
303.15	0.5108	1038.817	0.205
303.15	0.5812	1044.546	0.213
303.15	0.6658	1051.306	0.222
303.15	0.7462	1057.608	0.231
303.15	0.9163	1070.829	0.251
303.15	1.0933	1084.509	0.272
303.15	1.2621	1096.942	0.29
303.15	1.4513	1110.364	0.311
303.15	1.7584	1131.664	0.344
303.15	2.0412	1150.784	0.374
303.15	2.3743	1172.648	0.409
303.15	2.747	1196.07	0.446
303.15	3.1149	1217.235	0.48
303.15	3.5119	1240.48	0.518

System: propan-1-ol + sodium dihydrogen phosphate + water; phases: Liquid
Fixed: Pressure, kPa = 101
Fixed: Temperature, K = 298.15
Property: Molar conductivity, S*m2/mol (Liquid); method: Alternating current cell with electrodes
Solvent: Mass fraction of propan-1-ol	Molality, mol/kg of sodium dihydrogen phosphate	Molar conductivity, S*m2/mol	uncertainty
0.05	0.0049	0.006926	0.000139
0.05	0.0102	0.006804	0.000136
0.05	0.0152	0.006742	0.000135
0.05	0.0228	0.006462	0.000129
0.05	0.0409	0.006184	0.000124
0.05	0.0696	0.005918	0.000118
0.05	0.1048	0.00561	0.000112
0.05	0.1399	0.00544	0.000109
0.05	0.1854	0.005234	0.000105
0.05	0.2401	0.005003	0.0001
0.05	0.2986	0.004829	9.7e-05
0.05	0.4346	0.004443	8.9e-05
0.05	0.5105	0.004325	8.7e-05
0.05	0.5802	0.004257	8.5e-05
0.05	0.6509	0.004121	8.2e-05
0.05	0.6951	0.004013	8e-05
0.05	0.9216	0.003671	7.3e-05
0.05	1.4516	0.003067	6.1e-05
0.05	1.8674	0.002696	5.4e-05
0.1	0.0206	0.005626	0.000113
0.1	0.0414	0.005365	0.000107
0.1	0.0694	0.005094	0.000102
0.1	0.1045	0.004949	9.9e-05
0.1	0.1381	0.004761	9.5e-05
0.1	0.1891	0.004488	9e-05
0.1	0.2406	0.004324	8.6e-05
0.1	0.2995	0.00418	8.4e-05
0.1	0.3612	0.003991	8e-05
0.1	0.4334	0.003864	7.7e-05
0.1	0.5115	0.003712	7.4e-05
0.1	0.5906	0.003578	7.2e-05
0.1	0.6566	0.00351	7e-05
0.1	0.7132	0.003427	6.9e-05
0.1	0.8013	0.00328	6.6e-05
0.1	0.9006	0.003149	6.3e-05
0.1	1.1953	0.00284	5.7e-05
0.1	1.395	0.00265	5.3e-05
0.1	1.7518	0.002354	4.7e-05
0.15	0.0206	0.004962	9.9e-05
0.15	0.0409	0.004877	9.8e-05
0.15	0.0691	0.004672	9.3e-05
0.15	0.1018	0.004351	8.7e-05
0.15	0.1355	0.004212	8.4e-05
0.15	0.1908	0.00402	8e-05
0.15	0.2391	0.003791	7.6e-05
0.15	0.2947	0.003642	7.3e-05
0.15	0.359	0.003497	7e-05
0.15	0.4277	0.003356	6.7e-05
0.15	0.4878	0.003268	6.5e-05
0.15	0.5826	0.003092	6.2e-05
0.15	0.6537	0.003004	6e-05
0.15	0.714	0.002961	5.9e-05
0.15	0.7964	0.002873	5.7e-05
0.15	0.8908	0.002791	5.6e-05
0.15	1.1704	0.00251	5e-05

System: propan-1-ol + sodium dihydrogen phosphate + water; phases: Liquid
Fixed: Pressure, kPa = 101
Fixed: Temperature, K = 298.15
Property: Refractive index (Na D-line) (Liquid); method: Standard Abbe refractometry
Mass fraction of propan-1-ol	Molality, mol/kg of sodium dihydrogen phosphate	Refractive index (Na D-line)	uncertainty
0.05	0.0049	1.3371	0.0028
0.05	0.0102	1.3372	0.0028
0.05	0.0152	1.3373	0.0028
0.05	0.0228	1.3374	0.0028
0.05	0.0409	1.3376	0.0028
0.05	0.0696	1.338	0.0028
0.05	0.1048	1.3385	0.0028
0.05	0.1399	1.3391	0.0028
0.05	0.1854	1.3398	0.0028
0.05	0.2401	1.3406	0.0028
0.05	0.2986	1.3415	0.0028
0.05	0.4346	1.3434	0.0028
0.05	0.5105	1.3445	0.0028
0.05	0.5802	1.3454	0.0028
0.05	0.6509	1.3462	0.0028
0.05	0.6951	1.3469	0.0028
0.05	0.9216	1.3499	0.0028
0.05	1.4516	1.3561	0.0028
0.05	1.8674	1.3606	0.0028
0.1	0.0206	1.3413	0.0028
0.1	0.0414	1.3416	0.0028
0.1	0.0694	1.3418	0.0028
0.1	0.1045	1.3426	0.0028
0.1	0.1381	1.343	0.0028
0.1	0.1891	1.3437	0.0028
0.1	0.2406	1.3445	0.0028
0.1	0.2995	1.3452	0.0028
0.1	0.3612	1.3462	0.0028
0.1	0.4334	1.3471	0.0028
0.1	0.5115	1.348	0.0028
0.1	0.5906	1.3491	0.0028
0.1	0.6566	1.35	0.0028
0.1	0.7132	1.3507	0.0028
0.1	0.8013	1.3517	0.0028
0.1	0.9006	1.353	0.0028
0.1	1.1953	1.3565	0.0028
0.1	1.395	1.3587	0.0028
0.1	1.7518	1.3622	0.0028
0.15	0.0206	1.3451	0.0028
0.15	0.0409	1.3454	0.0028
0.15	0.0691	1.3457	0.0028
0.15	0.1018	1.3463	0.0028
0.15	0.1355	1.3467	0.0028
0.15	0.1908	1.3474	0.0028
0.15	0.2391	1.3482	0.0028
0.15	0.2947	1.349	0.0028
0.15	0.359	1.3497	0.0028
0.15	0.4277	1.3504	0.0028
0.15	0.4878	1.3513	0.0028
0.15	0.5826	1.3526	0.0028
0.15	0.6537	1.3535	0.0028
0.15	0.714	1.354	0.0028
0.15	0.7964	1.3552	0.0028
0.15	0.8908	1.3561	0.0028
0.15	1.1704	1.3591	0.0028

System: propan-1-ol + sodium dihydrogen phosphate + water; phases: Liquid
Fixed: Pressure, kPa = 101
Property: Speed of sound, m/s (Liquid); method: Sing-around technique in a fixed-path interferometer
Mass fraction of propan-1-ol	Temperature, K	Molality, mol/kg of sodium dihydrogen phosphate	Speed of sound, m/s	uncertainty
0.05	283.15	0.0613	1508.66	0.83
0.05	283.15	0.0862	1511.15	0.83
0.05	283.15	0.1398	1516.51	0.83
0.05	283.15	0.168	1519.07	0.83
0.05	283.15	0.2115	1523.48	0.83
0.05	283.15	0.243	1526.48	0.83
0.05	283.15	0.2851	1530.44	0.83
0.05	283.15	0.3189	1533.52	0.84
0.05	283.15	0.3575	1536.97	0.84
0.05	283.15	0.3962	1540.43	0.84
0.05	283.15	0.4309	1543.59	0.84
0.05	283.15	0.5058	1550.28	0.84
0.05	283.15	0.5875	1557.24	0.84
0.05	283.15	0.7498	1570.9	0.85
0.05	283.15	1.1826	1605.49	0.86
0.05	283.15	1.6028	1637.64	0.87
0.05	283.15	2.1606	1677.65	0.89
0.05	283.15	2.694	1714.21	0.9
0.05	288.15	0.0613	1521.74	0.83
0.05	288.15	0.0862	1524.13	0.83
0.05	288.15	0.1398	1529.3	0.83
0.05	288.15	0.168	1531.79	0.83
0.05	288.15	0.2115	1536.03	0.84
0.05	288.15	0.243	1538.92	0.84
0.05	288.15	0.2851	1542.77	0.84
0.05	288.15	0.3189	1545.73	0.84
0.05	288.15	0.3575	1549.11	0.84
0.05	288.15	0.3962	1552.43	0.84
0.05	288.15	0.4309	1555.48	0.84
0.05	288.15	0.5058	1561.93	0.85
0.05	288.15	0.5875	1568.63	0.85
0.05	288.15	0.7498	1581.83	0.85
0.05	288.15	1.1826	1615.13	0.86
0.05	288.15	1.6028	1646.04	0.87
0.05	288.15	2.1606	1684.41	0.89
0.05	288.15	2.694	1719.4	0.91
0.05	293.15	0.0613	1533.1	0.83
0.05	293.15	0.0862	1535.41	0.84
0.05	293.15	0.1398	1540.4	0.84
0.05	293.15	0.168	1542.82	0.84
0.05	293.15	0.2115	1546.91	0.84
0.05	293.15	0.243	1549.69	0.84
0.05	293.15	0.2851	1553.45	0.84
0.05	293.15	0.3189	1556.29	0.84
0.05	293.15	0.3575	1559.57	0.84
0.05	293.15	0.3962	1562.76	0.85
0.05	293.15	0.4309	1565.73	0.85
0.05	293.15	0.5058	1571.92	0.85
0.05	293.15	0.5875	1578.38	0.85
0.05	293.15	0.7498	1591.15	0.85
0.05	293.15	1.1826	1623.22	0.87
0.05	293.15	1.6028	1652.96	0.88
0.05	293.15	2.1606	1689.81	0.89
0.05	293.15	2.694	1723.33	0.91
0.05	298.15	0.0613	1542.81	0.84
0.05	298.15	0.0862	1545.05	0.84
0.05	298.15	0.1398	1549.88	0.84
0.05	298.15	0.168	1552.22	0.84
0.05	298.15	0.2115	1556.18	0.84
0.05	298.15	0.243	1558.9	0.84
0.05	298.15	0.2851	1562.5	0.84
0.05	298.15	0.3189	1565.25	0.85
0.05	298.15	0.3575	1568.41	0.85
0.05	298.15	0.3962	1571.52	0.85
0.05	298.15	0.4309	1574.35	0.85
0.05	298.15	0.5058	1580.33	0.85
0.05	298.15	0.5875	1586.61	0.85
0.05	298.15	0.7498	1598.93	0.86
0.05	298.15	1.1826	1629.86	0.87
0.05	298.15	1.6028	1658.49	0.88
0.05	298.15	2.1606	1693.94	0.89
0.05	298.15	2.694	1726.11	0.91
0.05	303.15	0.0613	1550.97	0.84
0.05	303.15	0.0862	1553.16	0.84
0.05	303.15	0.1398	1557.82	0.84
0.05	303.15	0.168	1560.12	0.84
0.05	303.15	0.2115	1563.94	0.84
0.05	303.15	0.243	1566.57	0.85
0.05	303.15	0.2851	1570.04	0.85
0.05	303.15	0.3189	1572.69	0.85
0.05	303.15	0.3575	1575.75	0.85
0.05	303.15	0.3962	1578.74	0.85
0.05	303.15	0.4309	1581.49	0.85
0.05	303.15	0.5058	1587.28	0.85
0.05	303.15	0.5875	1593.37	0.86
0.05	303.15	0.7498	1605.26	0.86
0.05	303.15	1.1826	1635.14	0.87
0.05	303.15	1.6028	1662.73	0.88
0.05	303.15	2.1606	1696.89	0.89
0.05	303.15	2.694	1727.8	0.91
0.1	283.15	0.0483	1552.99	0.84
0.1	283.15	0.0617	1554.18	0.84
0.1	283.15	0.1115	1558.52	0.85
0.1	283.15	0.1392	1561.09	0.85
0.1	283.15	0.2108	1567.03	0.85
0.1	283.15	0.2485	1570.24	0.85
0.1	283.15	0.2833	1573.05	0.85
0.1	283.15	0.3224	1576.17	0.85
0.1	283.15	0.3624	1579.27	0.85
0.1	283.15	0.3984	1582.24	0.85
0.1	283.15	0.4267	1584.36	0.86
0.1	283.15	0.5098	1590.61	0.86
0.1	283.15	0.5863	1596.23	0.86
0.1	283.15	0.6522	1600.8	0.86
0.1	283.15	0.7418	1607.29	0.86
0.1	283.15	1.1593	1635.07	0.87
0.1	283.15	1.6498	1664.77	0.88
0.1	288.15	0.0483	1561	0.85
0.1	288.15	0.0617	1562.19	0.85
0.1	288.15	0.1115	1566.38	0.85
0.1	288.15	0.1392	1568.85	0.85
0.1	288.15	0.2108	1574.61	0.85
0.1	288.15	0.2485	1577.72	0.85
0.1	288.15	0.2833	1580.45	0.85
0.1	288.15	0.3224	1583.46	0.85
0.1	288.15	0.3624	1586.48	0.86
0.1	288.15	0.3984	1589.34	0.86
0.1	288.15	0.4267	1591.4	0.86
0.1	288.15	0.5098	1597.43	0.86
0.1	288.15	0.5863	1602.83	0.86
0.1	288.15	0.6522	1607.26	0.86
0.1	288.15	0.7418	1613.49	0.86
0.1	288.15	1.1593	1640.09	0.87
0.1	288.15	1.6498	1668	0.88
0.1	293.15	0.0483	1567.63	0.85
0.1	293.15	0.0617	1568.78	0.85
0.1	293.15	0.1115	1572.85	0.85
0.1	293.15	0.1392	1575.23	0.85
0.1	293.15	0.2108	1580.82	0.85
0.1	293.15	0.2485	1583.81	0.85
0.1	293.15	0.2833	1586.44	0.85
0.1	293.15	0.3224	1589.35	0.86
0.1	293.15	0.3624	1592.28	0.86
0.1	293.15	0.3984	1595.03	0.86
0.1	293.15	0.4267	1597.03	0.86
0.1	293.15	0.5098	1602.84	0.86
0.1	293.15	0.5863	1608.03	0.86
0.1	293.15	0.6522	1612.31	0.86
0.1	293.15	0.7418	1618.28	0.86
0.1	293.15	1.1593	1643.7	0.87
0.1	293.15	1.6498	1669.76	0.88
0.1	298.15	0.0483	1572.92	0.85
0.1	298.15	0.0617	1574.02	0.85
0.1	298.15	0.1115	1577.96	0.85
0.1	298.15	0.1392	1580.25	0.85
0.1	298.15	0.2108	1585.66	0.85
0.1	298.15	0.2485	1588.55	0.85
0.1	298.15	0.2833	1591.1	0.86
0.1	298.15	0.3224	1593.9	0.86
0.1	298.15	0.3624	1596.73	0.86
0.1	298.15	0.3984	1599.38	0.86
0.1	298.15	0.4267	1601.3	0.86
0.1	298.15	0.5098	1606.89	0.86
0.1	298.15	0.5863	1611.88	0.86
0.1	298.15	0.6522	1616.02	0.86
0.1	298.15	0.7418	1621.73	0.87
0.1	298.15	1.1593	1645.96	0.87
0.1	298.15	1.6498	1670.24	0.88
0.1	303.15	0.0483	1576.89	0.85
0.1	303.15	0.0617	1577.96	0.85
0.1	303.15	0.1115	1581.78	0.85
0.1	303.15	0.1392	1583.98	0.85
0.1	303.15	0.2108	1589.23	0.85
0.1	303.15	0.2485	1592	0.86
0.1	303.15	0.2833	1594.45	0.86
0.1	303.15	0.3224	1597.16	0.86
0.1	303.15	0.3624	1599.9	0.86
0.1	303.15	0.3984	1602.44	0.86
0.1	303.15	0.4267	1604.29	0.86
0.1	303.15	0.5098	1609.68	0.86
0.1	303.15	0.5863	1614.47	0.86
0.1	303.15	0.6522	1618.46	0.86
0.1	303.15	0.7418	1623.92	0.87
0.1	303.15	1.1593	1647.02	0.87
0.1	303.15	1.6498	1669.62	0.88
0.15	283.15	0.0344	1586.56	0.86
0.15	283.15	0.0618	1588.55	0.86
0.15	283.15	0.0834	1590.26	0.86
0.15	283.15	0.1124	1592.37	0.86
0.15	283.15	0.1396	1594.23	0.86
0.15	283.15	0.2105	1599.09	0.86
0.15	283.15	0.2418	1601.3	0.86
0.15	283.15	0.2844	1604.07	0.86
0.15	283.15	0.3195	1606.26	0.86
0.15	283.15	0.3591	1608.64	0.86
0.15	283.15	0.3945	1610.71	0.87
0.15	283.15	0.4315	1612.89	0.87
0.15	283.15	0.5065	1617.17	0.87
0.15	283.15	0.5721	1620.62	0.87
0.15	283.15	0.6984	1627.01	0.87
0.15	283.15	0.9025	1635.99	0.87
0.15	283.15	1.1911	1645.67	0.87
0.15	288.15	0.0344	1589.1	0.86
0.15	288.15	0.0618	1591.04	0.86
0.15	288.15	0.0834	1592.65	0.86
0.15	288.15	0.1124	1594.69	0.86
0.15	288.15	0.1396	1596.47	0.86
0.15	288.15	0.2105	1601.12	0.86
0.15	288.15	0.2418	1603.2	0.86
0.15	288.15	0.2844	1605.81	0.86
0.15	288.15	0.3195	1607.88	0.86
0.15	288.15	0.3591	1610.14	0.86
0.15	288.15	0.3945	1612.09	0.86
0.15	288.15	0.4315	1614.12	0.86
0.15	288.15	0.5065	1618.08	0.87
0.15	288.15	0.5721	1621.27	0.87
0.15	288.15	0.6984	1627.11	0.87
0.15	288.15	0.9025	1635.11	0.87
0.15	288.15	1.1911	1643.3	0.87
0.15	293.15	0.0344	1590.55	0.86
0.15	293.15	0.0618	1592.42	0.86
0.15	293.15	0.0834	1593.96	0.86
0.15	293.15	0.1124	1595.89	0.86
0.15	293.15	0.1396	1597.6	0.86
0.15	293.15	0.2105	1602.01	0.86
0.15	293.15	0.2418	1603.95	0.86
0.15	293.15	0.2844	1606.42	0.86
0.15	293.15	0.3195	1608.37	0.86
0.15	293.15	0.3591	1610.46	0.86
0.15	293.15	0.3945	1612.31	0.86
0.15	293.15	0.4315	1614.18	0.86
0.15	293.15	0.5065	1617.85	0.86
0.15	293.15	0.5721	1620.78	0.87
0.15	293.15	0.6984	1626.07	0.87
0.15	293.15	0.9025	1633.22	0.87
0.15	293.15	1.1911	1640.23	0.87
0.15	298.15	0.0344	1590.94	0.86
0.15	298.15	0.0618	1592.73	0.86
0.15	298.15	0.0834	1594.19	0.86
0.15	298.15	0.1124	1596.03	0.86
0.15	298.15	0.1396	1597.66	0.86
0.15	298.15	0.2105	1601.84	0.86
0.15	298.15	0.2418	1603.65	0.86
0.15	298.15	0.2844	1605.97	0.86
0.15	298.15	0.3195	1607.8	0.86
0.15	298.15	0.3591	1609.78	0.86
0.15	298.15	0.3945	1611.51	0.86
0.15	298.15	0.4315	1613.22	0.86
0.15	298.15	0.5065	1616.61	0.86
0.15	298.15	0.5721	1619.3	0.86
0.15	298.15	0.6984	1624.12	0.87
0.15	298.15	0.9025	1630.57	0.87
0.15	298.15	1.1911	1636.66	0.87
0.15	303.15	0.0344	1590.34	0.85
0.15	303.15	0.0618	1592.07	0.86
0.15	303.15	0.0834	1593.45	0.86
0.15	303.15	0.1124	1595.2	0.86
0.15	303.15	0.1396	1596.76	0.86
0.15	303.15	0.2105	1600.72	0.86
0.15	303.15	0.2418	1602.41	0.86
0.15	303.15	0.2844	1604.6	0.86
0.15	303.15	0.3195	1606.32	0.86
0.15	303.15	0.3591	1608.18	0.86
0.15	303.15	0.3945	1609.81	0.86
0.15	303.15	0.4315	1611.4	0.86
0.15	303.15	0.5065	1614.53	0.86
0.15	303.15	0.5721	1617.02	0.86
0.15	303.15	0.6984	1621.47	0.86
0.15	303.15	0.9025	1627.36	0.87
0.15	303.15	1.1911	1632.7	0.87

System: propan-1-ol + sodium dihydrogen phosphate + water; phases: Liquid
Fixed: Pressure, kPa = 101
Property: Mass density, kg/m3 (Liquid); method: VIBTUB:UFactor:4
Mass fraction of propan-1-ol	Temperature, K	Molality, mol/kg of sodium dihydrogen phosphate	Mass density, kg/m3	uncertainty
0.05	283.15	0.0613	997.913	0.177
0.05	283.15	0.0862	1000.128	0.175
0.05	283.15	0.1398	1004.897	0.181
0.05	283.15	0.168	1007.345	0.185
0.05	283.15	0.2115	1011.273	0.19
0.05	283.15	0.243	1013.988	0.193
0.05	283.15	0.2851	1017.66	0.198
0.05	283.15	0.3189	1020.493	0.202
0.05	283.15	0.3575	1023.776	0.207
0.05	283.15	0.3962	1027.039	0.212
0.05	283.15	0.4309	1030.005	0.216
0.05	283.15	0.5058	1036.323	0.225
0.05	283.15	0.5875	1042.922	0.234
0.05	283.15	0.7498	1056.145	0.253
0.05	283.15	1.1826	1089.477	0.305
0.05	283.15	1.6028	1120.479	0.353
0.05	283.15	2.1606	1158.634	0.413
0.05	283.15	2.694	1192.848	0.468
0.05	288.15	0.0613	997.125	0.18
0.05	288.15	0.0862	999.318	0.175
0.05	288.15	0.1398	1004.033	0.179
0.05	288.15	0.168	1006.453	0.183
0.05	288.15	0.2115	1010.339	0.189
0.05	288.15	0.243	1013.028	0.192
0.05	288.15	0.2851	1016.66	0.196
0.05	288.15	0.3189	1019.462	0.2
0.05	288.15	0.3575	1022.713	0.205
0.05	288.15	0.3962	1025.945	0.21
0.05	288.15	0.4309	1028.885	0.214
0.05	288.15	0.5058	1035.144	0.223
0.05	288.15	0.5875	1041.684	0.232
0.05	288.15	0.7498	1054.796	0.251
0.05	288.15	1.1826	1087.876	0.302
0.05	288.15	1.6028	1118.679	0.35
0.05	288.15	2.1606	1156.623	0.41
0.05	288.15	2.694	1190.671	0.464
0.05	293.15	0.0613	996.051	0.181
0.05	293.15	0.0862	998.222	0.176
0.05	293.15	0.1398	1002.891	0.177
0.05	293.15	0.168	1005.289	0.181
0.05	293.15	0.2115	1009.14	0.186
0.05	293.15	0.243	1011.802	0.19
0.05	293.15	0.2851	1015.403	0.194
0.05	293.15	0.3189	1018.181	0.198
0.05	293.15	0.3575	1021.404	0.203
0.05	293.15	0.3962	1024.609	0.208
0.05	293.15	0.4309	1027.522	0.212
0.05	293.15	0.5058	1033.732	0.22
0.05	293.15	0.5875	1040.223	0.23
0.05	293.15	0.7498	1053.236	0.249
0.05	293.15	1.1826	1086.096	0.299
0.05	293.15	1.6028	1116.72	0.346
0.05	293.15	2.1606	1154.476	0.406
0.05	293.15	2.694	1188.377	0.46
0.05	298.15	0.0613	994.718	0.182
0.05	298.15	0.0862	996.869	0.178
0.05	298.15	0.1398	1001.499	0.175
0.05	298.15	0.168	1003.88	0.179
0.05	298.15	0.2115	1007.698	0.184
0.05	298.15	0.243	1010.341	0.187
0.05	298.15	0.2851	1013.913	0.192
0.05	298.15	0.3189	1016.67	0.195
0.05	298.15	0.3575	1019.87	0.2
0.05	298.15	0.3962	1023.052	0.205
0.05	298.15	0.4309	1025.942	0.209
0.05	298.15	0.5058	1032.109	0.218
0.05	298.15	0.5875	1038.553	0.227
0.05	298.15	0.7498	1051.486	0.246
0.05	298.15	1.1826	1084.154	0.296
0.05	298.15	1.6028	1114.621	0.343
0.05	298.15	2.1606	1152.206	0.402
0.05	298.15	2.694	1185.974	0.456
0.05	303.15	0.0613	993.147	0.182
0.05	303.15	0.0862	995.284	0.179
0.05	303.15	0.1398	999.88	0.173
0.05	303.15	0.168	1002.244	0.176
0.05	303.15	0.2115	1006.037	0.182
0.05	303.15	0.243	1008.66	0.184
0.05	303.15	0.2851	1012.209	0.189
0.05	303.15	0.3189	1014.95	0.193
0.05	303.15	0.3575	1018.127	0.197
0.05	303.15	0.3962	1021.287	0.202
0.05	303.15	0.4309	1024.161	0.206
0.05	303.15	0.5058	1030.291	0.215
0.05	303.15	0.5875	1036.697	0.224
0.05	303.15	0.7498	1049.556	0.243
0.05	303.15	1.1826	1082.053	0.293
0.05	303.15	1.6028	1112.384	0.339
0.05	303.15	2.1606	1149.819	0.398
0.05	303.15	2.694	1183.467	0.452
0.1	283.15	0.0483	991.502	0.201
0.1	283.15	0.0617	992.713	0.182
0.1	283.15	0.1115	997.097	0.178
0.1	283.15	0.1392	999.52	0.173
0.1	283.15	0.2108	1005.719	0.182
0.1	283.15	0.2485	1008.964	0.185
0.1	283.15	0.2833	1011.919	0.19
0.1	283.15	0.3224	1015.234	0.194
0.1	283.15	0.3624	1018.639	0.199
0.1	283.15	0.3984	1021.728	0.204
0.1	283.15	0.4267	1024.074	0.206
0.1	283.15	0.5098	1030.947	0.217
0.1	283.15	0.5863	1037.131	0.225
0.1	283.15	0.6522	1042.465	0.233
0.1	283.15	0.7418	1049.604	0.246
0.1	283.15	1.1593	1081.742	0.292
0.1	283.15	1.6498	1117.246	0.348
0.1	288.15	0.0483	990.455	0.204
0.1	288.15	0.0617	991.652	0.184
0.1	288.15	0.1115	995.99	0.178
0.1	288.15	0.1392	998.385	0.175
0.1	288.15	0.2108	1004.521	0.18
0.1	288.15	0.2485	1007.734	0.183
0.1	288.15	0.2833	1010.659	0.188
0.1	288.15	0.3224	1013.945	0.192
0.1	288.15	0.3624	1017.317	0.197
0.1	288.15	0.3984	1020.379	0.201
0.1	288.15	0.4267	1022.701	0.204
0.1	288.15	0.5098	1029.515	0.214
0.1	288.15	0.5863	1035.648	0.223
0.1	288.15	0.6522	1040.938	0.23
0.1	288.15	0.7418	1048.018	0.241
0.1	288.15	1.1593	1079.926	0.289
0.1	288.15	1.6498	1115.197	0.345
0.1	293.15	0.0483	989.129	0.204
0.1	293.15	0.0617	990.312	0.186
0.1	293.15	0.1115	994.613	0.18
0.1	293.15	0.1392	996.984	0.177
0.1	293.15	0.2108	1003.067	0.177
0.1	293.15	0.2485	1006.251	0.18
0.1	293.15	0.2833	1009.15	0.185
0.1	293.15	0.3224	1012.408	0.19
0.1	293.15	0.3624	1015.755	0.195
0.1	293.15	0.3984	1018.79	0.199
0.1	293.15	0.4267	1021.095	0.202
0.1	293.15	0.5098	1027.856	0.211
0.1	293.15	0.5863	1033.942	0.22
0.1	293.15	0.6522	1039.197	0.228
0.1	293.15	0.7418	1046.227	0.239
0.1	293.15	1.1593	1077.927	0.286
0.1	293.15	1.6498	1112.985	0.341
0.1	298.15	0.0483	987.55	0.204
0.1	298.15	0.0617	988.723	0.188
0.1	298.15	0.1115	992.989	0.182
0.1	298.15	0.1392	995.341	0.179
0.1	298.15	0.2108	1001.378	0.175
0.1	298.15	0.2485	1004.535	0.178
0.1	298.15	0.2833	1007.414	0.183
0.1	298.15	0.3224	1010.649	0.187
0.1	298.15	0.3624	1013.972	0.192
0.1	298.15	0.3984	1016.984	0.196
0.1	298.15	0.4267	1019.274	0.199
0.1	298.15	0.5098	1025.989	0.208
0.1	298.15	0.5863	1032.036	0.217
0.1	298.15	0.6522	1037.257	0.225
0.1	298.15	0.7418	1044.242	0.235
0.1	298.15	1.1593	1075.758	0.283
0.1	298.15	1.6498	1110.627	0.337
0.1	303.15	0.0483	985.738	0.201
0.1	303.15	0.0617	986.905	0.19
0.1	303.15	0.1115	991.142	0.184
0.1	303.15	0.1392	993.476	0.181
0.1	303.15	0.2108	999.471	0.173
0.1	303.15	0.2485	1002.61	0.175
0.1	303.15	0.2833	1005.469	0.179
0.1	303.15	0.3224	1008.683	0.184
0.1	303.15	0.3624	1011.986	0.189
0.1	303.15	0.3984	1014.98	0.193
0.1	303.15	0.4267	1017.256	0.195
0.1	303.15	0.5098	1023.931	0.205
0.1	303.15	0.5863	1029.942	0.214
0.1	303.15	0.6522	1035.137	0.221
0.1	303.15	0.7418	1042.081	0.233
0.1	303.15	1.1593	1073.436	0.279
0.1	303.15	1.6498	1108.137	0.333
0.15	283.15	0.0344	986.138	0.193
0.15	283.15	0.0618	988.576	0.19
0.15	283.15	0.0834	990.492	0.187
0.15	283.15	0.1124	993.039	0.183
0.15	283.15	0.1396	995.371	0.18
0.15	283.15	0.2105	1001.503	0.176
0.15	283.15	0.2418	1004.202	0.179
0.15	283.15	0.2844	1007.86	0.184
0.15	283.15	0.3195	1010.818	0.188
0.15	283.15	0.3591	1014.102	0.192
0.15	283.15	0.3945	1017.069	0.197
0.15	283.15	0.4315	1020.089	0.201
0.15	283.15	0.5065	1026.297	0.21
0.15	283.15	0.5721	1031.578	0.217
0.15	283.15	0.6984	1041.824	0.232
0.15	283.15	0.9025	1058.015	0.256
0.15	283.15	1.1911	1079.893	0.29
0.15	288.15	0.0344	984.723	0.196
0.15	288.15	0.0618	987.136	0.191
0.15	288.15	0.0834	989.032	0.189
0.15	288.15	0.1124	991.549	0.185
0.15	288.15	0.1396	993.859	0.182
0.15	288.15	0.2105	999.929	0.173
0.15	288.15	0.2418	1002.597	0.177
0.15	288.15	0.2844	1006.222	0.182
0.15	288.15	0.3195	1009.15	0.185
0.15	288.15	0.3591	1012.404	0.19
0.15	288.15	0.3945	1015.345	0.194
0.15	288.15	0.4315	1018.337	0.198
0.15	288.15	0.5065	1024.49	0.207
0.15	288.15	0.5721	1029.723	0.214
0.15	288.15	0.6984	1039.884	0.229
0.15	288.15	0.9025	1055.938	0.253
0.15	288.15	1.1911	1077.634	0.286
0.15	293.15	0.0344	983.041	0.198
0.15	293.15	0.0618	985.434	0.193
0.15	293.15	0.0834	987.311	0.191
0.15	293.15	0.1124	989.806	0.187
0.15	293.15	0.1396	992.097	0.184
0.15	293.15	0.2105	998.114	0.175
0.15	293.15	0.2418	1000.756	0.174
0.15	293.15	0.2844	1004.348	0.179
0.15	293.15	0.3195	1007.254	0.182
0.15	293.15	0.3591	1010.478	0.187
0.15	293.15	0.3945	1013.395	0.191
0.15	293.15	0.4315	1016.363	0.195
0.15	293.15	0.5065	1022.465	0.204
0.15	293.15	0.5721	1027.658	0.211
0.15	293.15	0.6984	1037.74	0.226
0.15	293.15	0.9025	1053.676	0.249
0.15	293.15	1.1911	1075.215	0.282
0.15	298.15	0.0344	981.126	0.2
0.15	298.15	0.0618	983.5	0.196
0.15	298.15	0.0834	985.361	0.193
0.15	298.15	0.1124	987.836	0.189
0.15	298.15	0.1396	990.107	0.186
0.15	298.15	0.2105	996.08	0.178
0.15	298.15	0.2418	998.699	0.174
0.15	298.15	0.2844	1002.264	0.175
0.15	298.15	0.3195	1005.148	0.179
0.15	298.15	0.3591	1008.349	0.183
0.15	298.15	0.3945	1011.246	0.187
0.15	298.15	0.4315	1014.194	0.192
0.15	298.15	0.5065	1020.248	0.2
0.15	298.15	0.5721	1025.405	0.208
0.15	298.15	0.6984	1035.421	0.222
0.15	298.15	0.9025	1051.257	0.246
0.15	298.15	1.1911	1072.664	0.278
0.15	303.15	0.0344	978.992	0.202
0.15	303.15	0.0618	981.351	0.199
0.15	303.15	0.0834	983.2	0.196
0.15	303.15	0.1124	985.656	0.192
0.15	303.15	0.1396	987.914	0.189
0.15	303.15	0.2105	993.845	0.181
0.15	303.15	0.2418	996.445	0.177
0.15	303.15	0.2844	999.987	0.172
0.15	303.15	0.3195	1002.851	0.175
0.15	303.15	0.3591	1006.033	0.18
0.15	303.15	0.3945	1008.912	0.184
0.15	303.15	0.4315	1011.842	0.188
0.15	303.15	0.5065	1017.858	0.197
0.15	303.15	0.5721	1022.985	0.204
0.15	303.15	0.6984	1032.944	0.219
0.15	303.15	0.9025	1048.696	0.242
0.15	303.15	1.1911	1069.997	0.274
