Measured thermophysical data. The hydration of the protein stabilizing agents: Trimethylamine-N-oxide,  glycine and its N-methylderivatives   The volumetric and compressibility studies
Source: J. Chem. Thermodyn., 2013, 10.1016/j.jct.2013.01.023
Compound 1: 2-aminoacetic acid, C2H5NO2, InChI=1S/C2H5NO2/c3-1-2(4)5/h1,3H2,(H,4,5), purity 99%
Compound 2: sarcosine, C3H7NO2, InChI=1S/C3H7NO2/c1-4-2-3(5)6/h4H,2H2,1H3,(H,5,6), purity 99%
Compound 3: (Dimethylamino)acetic acid, C4H9NO2, InChI=1S/C4H9NO2/c1-5(2)3-4(6)7/h3H2,1-2H3,(H,6,7), purity 98%
Compound 4: (trimethylammonio)acetate, C5H11NO2, InChI=1S/C5H11NO2/c1-6(2,3)4-5(7)8/h4H2,1-3H3, purity 99%
Compound 5: trimethylamine oxide, C3H9NO, InChI=1S/C3H9NO/c1-4(2,3)5/h1-3H3, purity 99%
Compound 6: water, H2O, InChI=1S/H2O/h1H2

System: water; phases: Liquid
Fixed: Pressure, kPa = 101
Property: Mass density, kg/m3 (Liquid); method: Vibrating tube method
Temperature, K	Mass density, kg/m3	uncertainty
288.15	999.094	0.106
293.15	998.2	0.106
298.15	997.036	0.107
303.15	995.63	0.107
308.15	994.018	0.107
288.15	999.097	0.106
303.15	995.628	0.107
308.15	994.019	0.107
288.15	999.098	0.106
298.15	997.039	0.107
303.15	995.625	0.107
308.15	994.015	0.107
293.15	998.197	0.106
298.15	997.037	0.106
303.15	995.629	0.107
308.15	994.014	0.107
288.15	999.093	0.107
293.15	998.193	0.107
298.15	997.032	0.107
303.15	995.633	0.107

System: 2-aminoacetic acid + water; phases: Liquid
Fixed: Pressure, kPa = 101
Property: Mass density, kg/m3 (Liquid); method: Vibrating tube method
Temperature, K	Molality, mol/kg of 2-aminoacetic acid	Mass density, kg/m3	uncertainty
288.15	0	999.094	0.106
288.15	0.06261	1001.134	0.107
288.15	0.1199	1002.977	0.107
288.15	0.1769	1004.805	0.107
288.15	0.2352	1006.649	0.107
288.15	0.2963	1008.561	0.108
293.15	0	998.2	0.106
293.15	0.06261	1000.214	0.106
293.15	0.1199	1002.032	0.107
293.15	0.1769	1003.836	0.107
293.15	0.2352	1005.659	0.107
293.15	0.2963	1007.543	0.108
298.15	0	997.036	0.107
298.15	0.06261	999.029	0.106
298.15	0.1199	1000.834	0.107
298.15	0.1769	1002.617	0.107
298.15	0.2352	1004.42	0.107
298.15	0.2963	1006.287	0.108
303.15	0	995.63	0.107
303.15	0.06261	997.604	0.107
303.15	0.1199	999.388	0.107
303.15	0.1769	1001.153	0.107
303.15	0.2352	1002.943	0.107
303.15	0.2963	1004.79	0.107
308.15	0	994.018	0.107
308.15	0.06261	995.978	0.107
308.15	0.1199	997.751	0.107
308.15	0.1769	999.494	0.107
308.15	0.2352	1001.277	0.107
308.15	0.2963	1003.115	0.107

System: 2-aminoacetic acid + water; phases: Liquid
Fixed: Pressure, kPa = 101
Fixed: Temperature, K = 298.15
Property: Speed of sound, m/s (Liquid); method: Pulse-echo method
Molality, mol/kg of 2-aminoacetic acid	Speed of sound, m/s	uncertainty
0.06261	1499.87	0.97
0.1199	1502.81	0.98
0.1769	1505.76	0.98
0.2352	1508.8	0.98
0.2963	1512.03	0.98

System: sarcosine + water; phases: Liquid
Fixed: Pressure, kPa = 101
Property: Mass density, kg/m3 (Liquid); method: Vibrating tube method
Temperature, K	Molality, mol/kg of sarcosine	Mass density, kg/m3	uncertainty
288.15	0	999.097	0.106
288.15	0.05883	1000.701	0.106
288.15	0.1166	1002.255	0.107
288.15	0.1777	1003.883	0.107
288.15	0.2363	1005.421	0.107
288.15	0.2987	1007.05	0.108
293.15	0	998.2	0.106
293.15	0.05883	999.78	0.106
293.15	0.1166	1001.312	0.107
293.15	0.1777	1002.916	0.107
293.15	0.2363	1004.435	0.107
293.15	0.2987	1006.035	0.108
298.15	0	997.036	0.107
298.15	0.05883	998.598	0.106
298.15	0.1166	1000.116	0.106
298.15	0.1777	1001.698	0.107
298.15	0.2363	1003.198	0.107
298.15	0.2987	1004.789	0.107
303.15	0	995.628	0.107
303.15	0.05883	997.176	0.107
303.15	0.1166	998.68	0.107
303.15	0.1777	1000.255	0.107
303.15	0.2363	1001.737	0.107
303.15	0.2987	1003.314	0.107
308.15	0	994.019	0.107
308.15	0.05883	995.552	0.107
308.15	0.1166	997.042	0.107
308.15	0.1777	998.599	0.107
308.15	0.2363	1000.071	0.107
308.15	0.2987	1001.634	0.107

System: sarcosine + water; phases: Liquid
Fixed: Pressure, kPa = 101
Fixed: Temperature, K = 298.15
Property: Speed of sound, m/s (Liquid); method: Pulse-echo method
Molality, mol/kg of sarcosine	Speed of sound, m/s	uncertainty
0.05883	1500.31	0.97
0.1166	1503.89	0.98
0.1777	1507.69	0.98
0.2363	1511.33	0.98
0.2987	1515.17	0.98

System: (Dimethylamino)acetic acid + water; phases: Liquid
Fixed: Pressure, kPa = 101
Property: Mass density, kg/m3 (Liquid); method: Vibrating tube method
Temperature, K	Molality, mol/kg of (Dimethylamino)acetic acid	Mass density, kg/m3	uncertainty
288.15	0	999.098	0.106
288.15	0.05966	1000.462	0.107
288.15	0.119	1001.802	0.107
288.15	0.1791	1003.141	0.107
288.15	0.2399	1004.476	0.108
288.15	0.3007	1005.801	0.109
293.15	0	998.2	0.106
293.15	0.05966	999.537	0.106
293.15	0.119	1000.853	0.107
293.15	0.1791	1002.163	0.107
293.15	0.2399	1003.475	0.108
293.15	0.3007	1004.779	0.108
298.15	0	997.039	0.107
298.15	0.05966	998.354	0.107
298.15	0.119	999.646	0.107
298.15	0.1791	1000.938	0.107
298.15	0.2399	1002.227	0.108
298.15	0.3007	1003.506	0.108
303.15	0	995.625	0.107
303.15	0.05966	996.925	0.107
303.15	0.119	998.203	0.107
303.15	0.1791	999.477	0.107
303.15	0.2399	1000.754	0.107
303.15	0.3007	1002.021	0.108
308.15	0	994.015	0.107
308.15	0.05966	995.303	0.107
308.15	0.119	996.574	0.107
308.15	0.1791	997.836	0.107
308.15	0.2399	999.104	0.107
308.15	0.3007	1000.365	0.108

System: (Dimethylamino)acetic acid + water; phases: Liquid
Fixed: Pressure, kPa = 101
Fixed: Temperature, K = 298.15
Property: Speed of sound, m/s (Liquid); method: Pulse-echo method
Molality, mol/kg of (Dimethylamino)acetic acid	Speed of sound, m/s	uncertainty
0.05966	1500.92	0.98
0.119	1505.12	0.98
0.1791	1509.37	0.98
0.2399	1513.63	0.99
0.3007	1517.94	0.99

System: (trimethylammonio)acetate + water; phases: Liquid
Fixed: Pressure, kPa = 101
Property: Mass density, kg/m3 (Liquid); method: Vibrating tube method
Temperature, K	Molality, mol/kg of (trimethylammonio)acetate	Mass density, kg/m3	uncertainty
288.15	0	999.098	0.106
288.15	0.06226	1000.253	0.106
288.15	0.125	1001.396	0.107
288.15	0.1884	1002.538	0.107
288.15	0.2532	1003.689	0.107
288.15	0.3185	1004.83	0.108
293.15	0	998.197	0.106
293.15	0.06226	999.33	0.106
293.15	0.125	1000.458	0.106
293.15	0.1884	1001.572	0.107
293.15	0.2532	1002.7	0.107
293.15	0.3185	1003.829	0.107
298.15	0	997.037	0.106
298.15	0.06226	998.149	0.106
298.15	0.125	999.253	0.107
298.15	0.1884	1000.354	0.107
298.15	0.2532	1001.464	0.107
298.15	0.3185	1002.563	0.107
303.15	0	995.629	0.107
303.15	0.06226	996.726	0.107
303.15	0.125	997.814	0.107
303.15	0.1884	998.899	0.107
303.15	0.2532	999.994	0.107
303.15	0.3185	1001.084	0.107
308.15	0	994.014	0.107
308.15	0.06226	995.1	0.107
308.15	0.125	996.18	0.107
308.15	0.1884	997.254	0.107
308.15	0.2532	998.337	0.107
308.15	0.3185	999.42	0.107

System: (trimethylammonio)acetate + water; phases: Liquid
Fixed: Pressure, kPa = 101
Fixed: Temperature, K = 298.15
Property: Speed of sound, m/s (Liquid); method: Pulse-echo method
Molality, mol/kg of (trimethylammonio)acetate	Speed of sound, m/s	uncertainty
0.06226	1501.3	0.97
0.125	1505.91	0.98
0.1884	1510.55	0.98
0.2532	1515.2	0.98
0.3185	1519.88	0.99

System: trimethylamine oxide + water; phases: Liquid
Fixed: Pressure, kPa = 101
Property: Mass density, kg/m3 (Liquid); method: Vibrating tube method
Temperature, K	Molality, mol/kg of trimethylamine oxide	Mass density, kg/m3	uncertainty
288.15	0	999.093	0.107
288.15	0.0592	999.725	0.376
288.15	0.1182	1000.294	0.703
288.15	0.1768	1000.877	1.036
288.15	0.2361	1001.439	1.45
288.15	0.2958	1002.092	1.944
293.15	0	998.193	0.107
293.15	0.0592	998.807	0.366
293.15	0.1182	999.358	0.679
293.15	0.1768	999.919	1.003
293.15	0.2361	1000.466	1.401
293.15	0.2958	1001.092	1.614
298.15	0	997.032	0.107
298.15	0.0592	997.629	0.356
298.15	0.1182	998.163	0.659
298.15	0.1768	998.707	0.97
298.15	0.2361	999.234	1.352
298.15	0.2958	999.839	1.575
303.15	0	995.633	0.107
303.15	0.0592	996.213	0.346
303.15	0.1182	996.73	0.639
303.15	0.1768	997.258	0.941
303.15	0.2361	997.769	1.313
303.15	0.2958	998.357	1.54
308.15	0	994.018	0.107
308.15	0.0592	994.58	0.337
308.15	0.1182	995.083	0.626
308.15	0.1768	995.602	0.912
308.15	0.2361	996.09	1.265
308.15	0.2958	996.661	1.701

System: trimethylamine oxide + water; phases: Liquid
Fixed: Pressure, kPa = 101
Fixed: Temperature, K = 298.15
Property: Speed of sound, m/s (Liquid); method: Pulse-echo method
Molality, mol/kg of trimethylamine oxide	Speed of sound, m/s	uncertainty
0.0592	1500.9	2.7
0.1182	1505.07	5.09
0.1768	1509.18	7.45
0.2361	1513.28	9.86
0.2958	1517.42	12.35
