Measured thermophysical data. Thermophysical properties of pure and water-saturated  tetradecyltrihexylphosphonium-based ionic liquids
Source: J. Chem. Thermodyn., 2011, 10.1016/j.jct.2011.01.016
Compound 1: trihexyl(tetradecyl)phosphonium bis[(trifluoromethyl)sulfonyl]imide, C34H68F6NO4PS2, InChI=1S/C32H68P.C2F6NO4S2/c1-5-9-13-17-18-19-20-21-22-23-24-28-32-33(29-25-14-10-6-2,30-26-15-11-7-3)31-27-16-12-8-4;3-1(4,5)14(10,11)9-15(12,13)2(6,7)8/h5-32H2,1-4H3;/q+1;-1, purity 98%
Compound 2: tetradecyltrihexylphosphonium bromide, C32H68BrP, InChI=1S/C32H68P.BrH/c1-5-9-13-17-18-19-20-21-22-23-24-28-32-33(29-25-14-10-6-2,30-26-15-11-7-3)31-27-16-12-8-4;/h5-32H2,1-4H3;1H/q+1;/p-1, purity 96%
Compound 3: trihexyl(tetradecyl)phosphonium chloride, C32H68ClP, InChI=1S/C32H68P.ClH/c1-5-9-13-17-18-19-20-21-22-23-24-28-32-33(29-25-14-10-6-2,30-26-15-11-7-3)31-27-16-12-8-4;/h5-32H2,1-4H3;1H/q+1;/p-1, purity 93%
Compound 4: trihexyltetradecylphosphonium decanoate, C42H87O2P, InChI=1S/C32H68P.C10H20O2/c1-5-9-13-17-18-19-20-21-22-23-24-28-32-33(29-25-14-10-6-2,30-26-15-11-7-3)31-27-16-12-8-4;1-2-3-4-5-6-7-8-9-10(11)12/h5-32H2,1-4H3;2-9H2,1H3,(H,11,12)/q+1;/p-1, purity 97%
Compound 5: trihexyltetradecylphosphonium methanesulfonate, C33H71O3PS, InChI=1S/C32H68P.CH4O3S/c1-5-9-13-17-18-19-20-21-22-23-24-28-32-33(29-25-14-10-6-2,30-26-15-11-7-3)31-27-16-12-8-4;1-5(2,3)4/h5-32H2,1-4H3;1H3,(H,2,3,4)/q+1;/p-1, purity 98%
Compound 6: tetradecyl(trihexyl)phosphonium dicyanamide, C34H68N3P, InChI=1S/C32H68P.C2N3/c1-5-9-13-17-18-19-20-21-22-23-24-28-32-33(29-25-14-10-6-2,30-26-15-11-7-3)31-27-16-12-8-4;3-1-5-2-4/h5-32H2,1-4H3;/q+1;-1, purity 97%
Compound 7: trihexyltetradecylphosphonium bis(2,4,4-trimethylpentyl)phosphinate, C48H102O2P2, InChI=1S/C32H68P.C16H35O2P/c1-5-9-13-17-18-19-20-21-22-23-24-28-32-33(29-25-14-10-6-2,30-26-15-11-7-3)31-27-16-12-8-4;1-13(9-15(3,4)5)11-19(17,18)12-14(2)10-16(6,7)8/h5-32H2,1-4H3;13-14H,9-12H2,1-8H3,(H,17,18)/q+1;/p-1, purity 93%
Compound 8: water, H2O, InChI=1S/H2O/h1H2, purity 99.9%

System: trihexyl(tetradecyl)phosphonium bis[(trifluoromethyl)sulfonyl]imide; phases: Liquid
Fixed: Pressure, kPa = 101.325
Property: Viscosity, Pa*s (Liquid); method: Concentric cylinders viscometry
Temperature, K	Viscosity, Pa*s	uncertainty
278.15	1.2462	0.0544
283.15	0.87117	0.03392
288.15	0.62245	0.02146
293.15	0.45364	0.01374
298.15	0.33674	0.00887
303.15	0.25424	0.00576
308.15	0.19504	0.00375
313.15	0.15185	0.00248
318.15	0.11985	0.00167
323.15	0.095813	0.001144
328.15	0.077545	0.000801
333.15	0.06347	0.00059
338.15	0.052495	0.000459
343.15	0.043843	0.000403
348.15	0.036953	0.000339
353.15	0.031413	0.000288
358.15	0.026914	0.000247

System: trihexyl(tetradecyl)phosphonium bis[(trifluoromethyl)sulfonyl]imide; phases: Liquid
Fixed: Pressure, kPa = 101.325
Property: Mass density, kg/m3 (Liquid); method: Vibrating tube method
Temperature, K	Mass density, kg/m3	uncertainty
278.15	1081.1	1
283.15	1077.4	1
288.15	1073.6	1
293.15	1069.8	1
298.15	1066.1	1
303.15	1062.4	1
308.15	1058.8	1
313.15	1055.2	1
318.15	1051.6	1
323.15	1048	1
328.15	1044.4	1
333.15	1040.9	1
338.15	1037.3	1
343.15	1033.7	1
348.15	1030.2	1
353.15	1026.6	1
358.15	1023.1	1

System: trihexyl(tetradecyl)phosphonium bis[(trifluoromethyl)sulfonyl]imide; phases: Liquid
Property: Isobaric coefficient of expansion, 1/K (Liquid); method: Calculated from Density-Temperature Data
Temperature, K	Pressure, kPa	Isobaric coefficient of expansion, 1/K	uncertainty
298.15	101.325	0.0006788	1.05e-05

System: tetradecyltrihexylphosphonium bromide; phases: Liquid
Fixed: Pressure, kPa = 101.325
Property: Viscosity, Pa*s (Liquid); method: Concentric cylinders viscometry
Temperature, K	Viscosity, Pa*s	uncertainty
278.15	16.955	1.333
283.15	10.457	0.755
288.15	6.6883	0.4426
293.15	4.4213	0.2681
298.15	2.9884	0.1655
303.15	2.0652	0.1042
308.15	1.4563	0.0667
313.15	1.0467	0.0433
318.15	0.76404	0.0284
323.15	0.56806	0.01888
328.15	0.42898	0.01266
333.15	0.32856	0.00854
338.15	0.25503	0.00578
343.15	0.20046	0.00392
348.15	0.15944	0.00268
353.15	0.12821	0.00187
358.15	0.10415	0.00132
363.15	0.085436	0.000942

System: tetradecyltrihexylphosphonium bromide; phases: Liquid
Fixed: Pressure, kPa = 101.325
Property: Mass density, kg/m3 (Liquid); method: Vibrating tube method
Temperature, K	Mass density, kg/m3	uncertainty
278.15	967.5	1
283.15	964.4	1
288.15	961.3	1
293.15	958.2	1
298.15	955.2	1
303.15	952.1	1
308.15	949	1
313.15	946	1
318.15	942.9	1
323.15	939.8	1
328.15	936.7	1
333.15	933.7	1
338.15	930.7	1
343.15	927.6	1
348.15	924.6	1
353.15	921.7	1
358.15	918.7	1
363.15	915.7	1

System: tetradecyltrihexylphosphonium bromide; phases: Liquid
Property: Isobaric coefficient of expansion, 1/K (Liquid); method: Calculated from Density-Temperature Data
Temperature, K	Pressure, kPa	Isobaric coefficient of expansion, 1/K	uncertainty
298.15	101.325	0.0006388	9.9e-06

System: trihexyl(tetradecyl)phosphonium chloride; phases: Liquid
Fixed: Pressure, kPa = 101.325
Property: Viscosity, Pa*s (Liquid); method: Concentric cylinders viscometry
Temperature, K	Viscosity, Pa*s	uncertainty
278.15	15.339	1.185
283.15	9.4477	0.6691
288.15	6.0885	0.3953
293.15	4.0304	0.2394
298.15	2.7291	0.1478
303.15	1.8903	0.0931
308.15	1.3364	0.0596
313.15	0.9625	0.0387
318.15	0.70575	0.02549
323.15	0.52598	0.01695
328.15	0.39819	0.01136
333.15	0.30573	0.00766
338.15	0.23778	0.00518
343.15	0.18739	0.0035
348.15	0.14921	0.00241
353.15	0.12011	0.00168
358.15	0.097659	0.00118
363.15	0.080174	0.000848

System: trihexyl(tetradecyl)phosphonium chloride; phases: Liquid
Fixed: Pressure, kPa = 101.325
Property: Mass density, kg/m3 (Liquid); method: Vibrating tube method
Temperature, K	Mass density, kg/m3	uncertainty
278.15	901.6	1
283.15	898.6	1
288.15	895.7	1
293.15	892.8	1
298.15	889.9	1
303.15	887	1
308.15	884	1
313.15	881.1	1
318.15	878.2	1
323.15	875.3	1
328.15	872.3	1
333.15	869.5	1
338.15	866.6	1
343.15	863.7	1
348.15	860.8	1
353.15	858	1
358.15	855.1	1
363.15	852.3	1

System: trihexyl(tetradecyl)phosphonium chloride; phases: Liquid
Property: Isobaric coefficient of expansion, 1/K (Liquid); method: Calculated from Density-Temperature Data
Temperature, K	Pressure, kPa	Isobaric coefficient of expansion, 1/K	uncertainty
298.15	101.325	0.0006525	1.01e-05

System: trihexyltetradecylphosphonium decanoate; phases: Liquid
Fixed: Pressure, kPa = 101.325
Property: Viscosity, Pa*s (Liquid); method: Concentric cylinders viscometry
Temperature, K	Viscosity, Pa*s	uncertainty
278.15	1.9157	0.0947
283.15	1.2929	0.0572
288.15	0.90216	0.03555
293.15	0.64441	0.02251
298.15	0.47151	0.01452
303.15	0.35209	0.00948
308.15	0.26773	0.00625
313.15	0.20727	0.00414
318.15	0.163	0.003
323.15	0.13001	0.00192
328.15	0.10489	0.00133
333.15	0.085752	0.000946
338.15	0.070927	0.000693
343.15	0.059269	0.000532
348.15	0.049987	0.000459
353.15	0.042539	0.00039
358.15	0.036461	0.000334
363.15	0.031472	0.000289

System: trihexyltetradecylphosphonium decanoate; phases: Liquid
Fixed: Pressure, kPa = 101.325
Property: Mass density, kg/m3 (Liquid); method: Vibrating tube method
Temperature, K	Mass density, kg/m3	uncertainty
278.15	893.2	1
283.15	890	1
288.15	886.9	1
293.15	883.7	1
298.15	880.6	1
303.15	877.5	1
308.15	874.4	1
313.15	871.3	1
318.15	868.3	1
323.15	865.3	1
328.15	862.2	1
333.15	859.2	1
338.15	856.2	1
343.15	853.2	1
348.15	850.2	1
353.15	847.3	1
358.15	844.3	1
363.15	841.3	1

System: trihexyltetradecylphosphonium decanoate; phases: Liquid
Property: Isobaric coefficient of expansion, 1/K (Liquid); method: Calculated from Density-Temperature Data
Temperature, K	Pressure, kPa	Isobaric coefficient of expansion, 1/K	uncertainty
298.15	101.325	0.0006922	1.07e-05

System: trihexyltetradecylphosphonium methanesulfonate; phases: Liquid
Fixed: Pressure, kPa = 101.325
Property: Viscosity, Pa*s (Liquid); method: Concentric cylinders viscometry
Temperature, K	Viscosity, Pa*s	uncertainty
278.15	7.5265	0.5098
283.15	4.6897	0.2882
288.15	3.0404	0.1691
293.15	2.0222	0.1015
298.15	1.3794	0.0622
303.15	0.96283	0.03877
308.15	0.68613	0.02454
313.15	0.49853	0.01572
318.15	0.36902	0.01017
323.15	0.27777	0.00662
328.15	0.21237	0.00431
333.15	0.16479	0.00283
338.15	0.12963	0.00191
343.15	0.10334	0.0013
348.15	0.083369	0.000904
353.15	0.068008	0.00065
358.15	0.05606	0.0005
363.15	0.04665	0.00043

System: trihexyltetradecylphosphonium methanesulfonate; phases: Liquid
Fixed: Pressure, kPa = 101.325
Property: Mass density, kg/m3 (Liquid); method: Vibrating tube method
Temperature, K	Mass density, kg/m3	uncertainty
278.15	940.5	1
283.15	937.4	1
288.15	934.3	1
293.15	931.2	1
298.15	928.1	1
303.15	925.1	1
308.15	922	1
313.15	918.9	1
318.15	915.9	1
323.15	912.9	1
328.15	909.9	1
333.15	907	1
338.15	904.1	1
343.15	901.2	1
348.15	898.3	1
353.15	895.3	1
358.15	892.4	1
363.15	889.4	1

System: trihexyltetradecylphosphonium methanesulfonate; phases: Liquid
Property: Isobaric coefficient of expansion, 1/K (Liquid); method: Calculated from Density-Temperature Data
Temperature, K	Pressure, kPa	Isobaric coefficient of expansion, 1/K	uncertainty
298.15	101.325	0.0006464	1e-05

System: tetradecyl(trihexyl)phosphonium dicyanamide; phases: Liquid
Fixed: Pressure, kPa = 101.325
Property: Viscosity, Pa*s (Liquid); method: Concentric cylinders viscometry
Temperature, K	Viscosity, Pa*s	uncertainty
278.15	1.6468	0.078
283.15	1.1449	0.0487
288.15	0.81636	0.03107
293.15	0.59293	0.02005
298.15	0.43857	0.01308
303.15	0.32968	0.00859
308.15	0.25171	0.00567
313.15	0.195	0.004
318.15	0.15315	0.00252
323.15	0.12178	0.00172
328.15	0.097961	0.001188
333.15	0.079729	0.000838
338.15	0.065561	0.000615
343.15	0.054428	0.000478
348.15	0.045601	0.000419
353.15	0.038531	0.000354
358.15	0.032848	0.000301
363.15	0.0282	0.0003

System: tetradecyl(trihexyl)phosphonium dicyanamide; phases: Liquid
Fixed: Pressure, kPa = 101.325
Property: Mass density, kg/m3 (Liquid); method: Vibrating tube method
Temperature, K	Mass density, kg/m3	uncertainty
278.15	910.8	1
283.15	907.8	1
288.15	904.9	1
293.15	901.9	1
298.15	899	1
303.15	896.1	1
308.15	893.3	1
313.15	890.4	1
318.15	887.6	1
323.15	884.8	1
328.15	882	1
333.15	879.2	1
338.15	876.4	1
343.15	873.7	1
348.15	870.9	1
353.15	868.1	1
358.15	865.3	1
363.15	862.6	1

System: tetradecyl(trihexyl)phosphonium dicyanamide; phases: Liquid
Property: Isobaric coefficient of expansion, 1/K (Liquid); method: Calculated from Density-Temperature Data
Temperature, K	Pressure, kPa	Isobaric coefficient of expansion, 1/K	uncertainty
298.15	101.325	0.0006292	9.7e-06

System: trihexyltetradecylphosphonium bis(2,4,4-trimethylpentyl)phosphinate; phases: Liquid
Fixed: Pressure, kPa = 101.325
Property: Viscosity, Pa*s (Liquid); method: Concentric cylinders viscometry
Temperature, K	Viscosity, Pa*s	uncertainty
278.15	5.5745	0.3551
283.15	3.8055	0.223
288.15	2.6753	0.1442
293.15	1.9182	0.0948
298.15	1.4017	0.0634
303.15	1.0415	0.043
308.15	0.78577	0.02949
313.15	0.60135	0.02043
318.15	0.46624	0.01427
323.15	0.36583	0.01002
328.15	0.29028	0.00707
333.15	0.23276	0.005
338.15	0.18843	0.00353
343.15	0.15395	0.00253
348.15	0.12677	0.00184
353.15	0.10522	0.00134
358.15	0.087923	0.000985
363.15	0.073913	0.00074

System: trihexyltetradecylphosphonium bis(2,4,4-trimethylpentyl)phosphinate; phases: Liquid
Fixed: Pressure, kPa = 101.325
Property: Mass density, kg/m3 (Liquid); method: Vibrating tube method
Temperature, K	Mass density, kg/m3	uncertainty
278.15	897.3	1
283.15	894.3	1
288.15	891.3	1
293.15	888.3	1
298.15	885.3	1
303.15	882.3	1
308.15	879.3	1
313.15	876.3	1
318.15	873.4	1
323.15	870.4	1
328.15	867.5	1
333.15	864.6	1
338.15	861.7	1
343.15	858.9	1
348.15	856	1
353.15	853.2	1
358.15	850.3	1
363.15	847.5	1

System: trihexyltetradecylphosphonium bis(2,4,4-trimethylpentyl)phosphinate; phases: Liquid
Property: Isobaric coefficient of expansion, 1/K (Liquid); method: Calculated from Density-Temperature Data
Temperature, K	Pressure, kPa	Isobaric coefficient of expansion, 1/K	uncertainty
298.15	101.325	0.0006626	1.03e-05

System: water + trihexyl(tetradecyl)phosphonium bis[(trifluoromethyl)sulfonyl]imide; phases: Liquid
Fixed: Pressure, kPa = 100
Fixed: Mole fraction of water = 0.088
Property: Viscosity, Pa*s (Liquid); method: Concentric cylinders viscometry
Temperature, K	Viscosity, Pa*s	uncertainty
298.15	0.30001	0.00742
303.15	0.2246	0.0047
308.15	0.1708	0.003
313.15	0.13206	0.00196
318.15	0.1035	0.0013
323.15	0.082077	0.000868
328.15	0.065746	0.000606
333.15	0.053407	0.000458
338.15	0.044234	0.000398
343.15	0.037137	0.000333
348.15	0.031464	0.000282
353.15	0.026901	0.000241
358.15	0.023172	0.000208
363.15	0.020092	0.000181

System: water + trihexyl(tetradecyl)phosphonium bis[(trifluoromethyl)sulfonyl]imide; phases: Liquid
Fixed: Pressure, kPa = 100
Fixed: Mole fraction of water = 0.088
Property: Mass density, kg/m3 (Liquid); method: Vibrating tube method
Temperature, K	Mass density, kg/m3	uncertainty
298.15	1066.1	3.2
303.15	1062.4	3.1
308.15	1058.7	3.1
313.15	1055	3.1
318.15	1051.4	3.1
323.15	1047.7	3.1
328.15	1044	3.1
333.15	1040.4	3.1
338.15	1036.7	3.1
343.15	1033.1	3.1
348.15	1029.6	3.1
353.15	1026	3
358.15	1022.4	3
363.15	1018.8	3

System: water + trihexyl(tetradecyl)phosphonium bis[(trifluoromethyl)sulfonyl]imide; phases: Liquid
Property: Isobaric coefficient of expansion, 1/K (Liquid); method: Calculated from Density-Temperature Data
Temperature, K	Pressure, kPa	Mole fraction of water	Isobaric coefficient of expansion, 1/K	uncertainty
298.15	100	0.088	0.0006824	1.06e-05

System: water + trihexyl(tetradecyl)phosphonium bis[(trifluoromethyl)sulfonyl]imide; phases: Liquid mixture 1, Liquid mixture 2
Property: Mole fraction of water (Liquid mixture 1); method: Titration method
Temperature, K	Pressure, kPa	Mole fraction of water	uncertainty
298.15	101	0.088	0.014

System: water + tetradecyltrihexylphosphonium bromide; phases: Liquid
Fixed: Pressure, kPa = 100
Fixed: Mole fraction of water = 0.68
Property: Viscosity, Pa*s (Liquid); method: Concentric cylinders viscometry
Temperature, K	Viscosity, Pa*s	uncertainty
298.15	0.23884	0.00509
303.15	0.18054	0.00319
308.15	0.13877	0.00205
313.15	0.10827	0.00132
318.15	0.085713	0.000863
323.15	0.068706	0.000581
328.15	0.055741	0.000422
333.15	0.045715	0.000365
338.15	0.037909	0.000302
343.15	0.031741	0.000253
348.15	0.026817	0.000213
353.15	0.022854	0.000182
358.15	0.019617	0.000156
363.15	0.016941	0.000135

System: water + tetradecyltrihexylphosphonium bromide; phases: Liquid
Fixed: Pressure, kPa = 100
Fixed: Mole fraction of water = 0.68
Property: Mass density, kg/m3 (Liquid); method: Vibrating tube method
Temperature, K	Mass density, kg/m3	uncertainty
298.15	957	5.8
303.15	953.6	5.8
308.15	950.3	5.8
313.15	946.9	5.8
318.15	943.6	5.8
323.15	940.2	5.7
328.15	936.9	5.7
333.15	933.5	5.7
338.15	930.2	5.7
343.15	926.8	5.7
348.15	923.5	5.6
353.15	920.1	5.6
358.15	916.7	5.6
363.15	913.4	5.6

System: water + tetradecyltrihexylphosphonium bromide; phases: Liquid
Property: Isobaric coefficient of expansion, 1/K (Liquid); method: Calculated from Density-Temperature Data
Temperature, K	Pressure, kPa	Mole fraction of water	Isobaric coefficient of expansion, 1/K	uncertainty
298.15	100	0.68	0.0007008	1.16e-05

System: water + tetradecyltrihexylphosphonium bromide; phases: Liquid mixture 1, Liquid mixture 2
Property: Mole fraction of water (Liquid mixture 1); method: Titration method
Temperature, K	Pressure, kPa	Mole fraction of water	uncertainty
298.15	101	0.68	0.06

System: water + trihexyl(tetradecyl)phosphonium chloride; phases: Liquid
Fixed: Pressure, kPa = 100
Fixed: Mole fraction of water = 0.818
Property: Viscosity, Pa*s (Liquid); method: Concentric cylinders viscometry
Temperature, K	Viscosity, Pa*s	uncertainty
298.15	0.13472	0.00193
303.15	0.10312	0.0012
308.15	0.080197	0.000758
313.15	0.063303	0.000502
318.15	0.050646	0.000372
323.15	0.041047	0.000323
328.15	0.033644	0.000264
333.15	0.027879	0.000219
338.15	0.023333	0.000183
343.15	0.019706	0.000155
348.15	0.016785	0.000132
353.15	0.014399	0.000113
358.15	0.01244	0.0001
363.15	0.010811	8.5e-05

System: water + trihexyl(tetradecyl)phosphonium chloride; phases: Liquid
Fixed: Pressure, kPa = 100
Fixed: Mole fraction of water = 0.818
Property: Mass density, kg/m3 (Liquid); method: Vibrating tube method
Temperature, K	Mass density, kg/m3	uncertainty
298.15	901.6	4.1
303.15	898.3	4.1
308.15	895	4.1
313.15	891.7	4.1
318.15	888.4	4
323.15	885.1	4
328.15	881.8	4
333.15	878.5	4
338.15	875.2	4
343.15	871.9	4
348.15	868.6	4
353.15	865.3	3.9
358.15	862	3.9
363.15	858.6	3.9

System: water + trihexyl(tetradecyl)phosphonium chloride; phases: Liquid
Property: Isobaric coefficient of expansion, 1/K (Liquid); method: Calculated from Density-Temperature Data
Temperature, K	Pressure, kPa	Mole fraction of water	Isobaric coefficient of expansion, 1/K	uncertainty
298.15	100	0.818	0.0007327	1.24e-05

System: water + trihexyl(tetradecyl)phosphonium chloride; phases: Liquid mixture 1, Liquid mixture 2
Property: Mole fraction of water (Liquid mixture 1); method: Titration method
Temperature, K	Pressure, kPa	Mole fraction of water	uncertainty
298.15	101	0.818	0.044

System: water + trihexyltetradecylphosphonium decanoate; phases: Liquid
Fixed: Pressure, kPa = 100
Fixed: Mole fraction of water = 0.872
Property: Viscosity, Pa*s (Liquid); method: Concentric cylinders viscometry
Temperature, K	Viscosity, Pa*s	uncertainty
298.15	0.090951	0.000949
303.15	0.070569	0.000602
308.15	0.055664	0.000414
313.15	0.04465	0.00035
318.15	0.03626	0.00028
323.15	0.029766	0.000233
328.15	0.024651	0.000193
333.15	0.020585	0.000161
338.15	0.017347	0.000136
343.15	0.014722	0.000115
348.15	0.012568	9.8e-05
353.15	0.010802	8.5e-05
358.15	0.0093455	7.34e-05
363.15	0.0081136	6.4e-05

System: water + trihexyltetradecylphosphonium decanoate; phases: Liquid
Fixed: Pressure, kPa = 100
Fixed: Mole fraction of water = 0.872
Property: Mass density, kg/m3 (Liquid); method: Vibrating tube method
Temperature, K	Mass density, kg/m3	uncertainty
298.15	901.2	7.3
303.15	897.8	7.3
308.15	894.5	7.2
313.15	891.1	7.2
318.15	887.7	7.2
323.15	884.3	7.1
328.15	880.9	7.1
333.15	877.5	7.1
338.15	874	7.1
343.15	870.6	7
348.15	867.1	7
353.15	863.7	7
358.15	860.2	7
363.15	856.8	6.9

System: water + trihexyltetradecylphosphonium decanoate; phases: Liquid
Property: Isobaric coefficient of expansion, 1/K (Liquid); method: Calculated from Density-Temperature Data
Temperature, K	Pressure, kPa	Mole fraction of water	Isobaric coefficient of expansion, 1/K	uncertainty
298.15	100	0.872	0.0007588	1.52e-05

System: water + trihexyltetradecylphosphonium decanoate; phases: Liquid mixture 1, Liquid mixture 2
Property: Mole fraction of water (Liquid mixture 1); method: Titration method
Temperature, K	Pressure, kPa	Mole fraction of water	uncertainty
298.15	101	0.872	0.08

System: water + trihexyltetradecylphosphonium methanesulfonate; phases: Liquid
Fixed: Pressure, kPa = 100
Fixed: Mole fraction of water = 0.825
Property: Viscosity, Pa*s (Liquid); method: Concentric cylinders viscometry
Temperature, K	Viscosity, Pa*s	uncertainty
298.15	0.12655	0.00173
303.15	0.097432	0.001084
308.15	0.076182	0.00069
313.15	0.060412	0.000467
318.15	0.048539	0.000382
323.15	0.039484	0.00031
328.15	0.03249	0.00026
333.15	0.027021	0.000212
338.15	0.022694	0.000178
343.15	0.019232	0.000151
348.15	0.016448	0.000129
353.15	0.014162	0.000111
358.15	0.012281	9.6e-05
363.15	0.010708	8.4e-05

System: water + trihexyltetradecylphosphonium methanesulfonate; phases: Liquid
Fixed: Pressure, kPa = 100
Fixed: Mole fraction of water = 0.825
Property: Mass density, kg/m3 (Liquid); method: Vibrating tube method
Temperature, K	Mass density, kg/m3	uncertainty
298.15	935.1	1.5
303.15	931.8	1.5
308.15	928.4	1.5
313.15	925.1	1.5
318.15	921.7	1.5
323.15	918.4	1.5
328.15	915	1.5
333.15	911.6	1.5
338.15	908.2	1.5
343.15	904.8	1.5
348.15	901.4	1.5
353.15	898	1.5
358.15	894.6	1.5
363.15	891.2	1.5

System: water + trihexyltetradecylphosphonium methanesulfonate; phases: Liquid
Property: Isobaric coefficient of expansion, 1/K (Liquid); method: Calculated from Density-Temperature Data
Temperature, K	Pressure, kPa	Mole fraction of water	Isobaric coefficient of expansion, 1/K	uncertainty
298.15	100	0.825	0.0007229	1.35e-05

System: water + trihexyltetradecylphosphonium methanesulfonate; phases: Liquid mixture 1, Liquid mixture 2
Property: Mole fraction of water (Liquid mixture 1); method: Titration method
Temperature, K	Pressure, kPa	Mole fraction of water	uncertainty
298.15	101	0.825	0.012

System: water + tetradecyl(trihexyl)phosphonium dicyanamide; phases: Liquid
Fixed: Pressure, kPa = 100
Fixed: Mole fraction of water = 0.496
Property: Viscosity, Pa*s (Liquid); method: Concentric cylinders viscometry
Temperature, K	Viscosity, Pa*s	uncertainty
298.15	0.19083	0.00352
303.15	0.14577	0.00224
308.15	0.1133	0.0015
313.15	0.089403	0.000948
318.15	0.071542	0.000639
323.15	0.057961	0.000459
328.15	0.047544	0.000391
333.15	0.03943	0.00032
338.15	0.033031	0.000271
343.15	0.027937	0.000229
348.15	0.023844	0.000195
353.15	0.020518	0.000168
358.15	0.017781	0.000146
363.15	0.015513	0.000127

System: water + tetradecyl(trihexyl)phosphonium dicyanamide; phases: Liquid
Fixed: Pressure, kPa = 100
Fixed: Mole fraction of water = 0.496
Property: Mass density, kg/m3 (Liquid); method: Vibrating tube method
Temperature, K	Mass density, kg/m3	uncertainty
298.15	900.7	2.2
303.15	897.6	2.2
308.15	894.7	2.2
313.15	891.7	2.2
318.15	888.7	2.2
323.15	885.7	2.2
328.15	882.7	2.2
333.15	879.8	2.2
338.15	876.8	2.2
343.15	873.8	2.2
348.15	870.9	2.2
353.15	867.9	2.2
358.15	865	2.2
363.15	862	2.1

System: water + tetradecyl(trihexyl)phosphonium dicyanamide; phases: Liquid
Property: Isobaric coefficient of expansion, 1/K (Liquid); method: Calculated from Density-Temperature Data
Temperature, K	Pressure, kPa	Mole fraction of water	Isobaric coefficient of expansion, 1/K	uncertainty
298.15	100	0.496	0.0006601	3.37e-05

System: water + tetradecyl(trihexyl)phosphonium dicyanamide; phases: Liquid mixture 1, Liquid mixture 2
Property: Mole fraction of water (Liquid mixture 1); method: Titration method
Temperature, K	Pressure, kPa	Mole fraction of water	uncertainty
298.15	101	0.496	0.023

System: water + trihexyltetradecylphosphonium bis(2,4,4-trimethylpentyl)phosphinate; phases: Liquid
Fixed: Pressure, kPa = 100
Fixed: Mole fraction of water = 0.876
Property: Viscosity, Pa*s (Liquid); method: Concentric cylinders viscometry
Temperature, K	Viscosity, Pa*s	uncertainty
298.15	0.17382	0.00297
303.15	0.12858	0.00179
308.15	0.09703	0.00108
313.15	0.074519	0.000664
318.15	0.058158	0.000441
323.15	0.046064	0.000363
328.15	0.036996	0.00029
333.15	0.03009	0.00024
338.15	0.024757	0.000194
343.15	0.020592	0.000161
348.15	0.017296	0.000135
353.15	0.014659	0.000115
358.15	0.012532	9.8e-05
363.15	0.01078	8e-05

System: water + trihexyltetradecylphosphonium bis(2,4,4-trimethylpentyl)phosphinate; phases: Liquid
Fixed: Pressure, kPa = 100
Fixed: Mole fraction of water = 0.876
Property: Mass density, kg/m3 (Liquid); method: Vibrating tube method
Temperature, K	Mass density, kg/m3	uncertainty
298.15	907.3	1.1
303.15	903.9	1.1
308.15	900.5	1.1
313.15	897.2	1.1
318.15	893.8	1.1
323.15	890.4	1.1
328.15	887.1	1.1
333.15	883.6	1.1
338.15	880.2	1.1
343.15	876.8	1.1
348.15	873.4	1.1
353.15	869.9	1.1
358.15	866.5	1.1
363.15	863.1	1.1

System: water + trihexyltetradecylphosphonium bis(2,4,4-trimethylpentyl)phosphinate; phases: Liquid
Property: Isobaric coefficient of expansion, 1/K (Liquid); method: Calculated from Density-Temperature Data
Temperature, K	Pressure, kPa	Mole fraction of water	Isobaric coefficient of expansion, 1/K	uncertainty
298.15	100	0.876	0.0007495	1.43e-05

System: water + trihexyltetradecylphosphonium bis(2,4,4-trimethylpentyl)phosphinate; phases: Liquid mixture 1, Liquid mixture 2
Property: Mole fraction of water (Liquid mixture 1); method: Titration method
Temperature, K	Pressure, kPa	Mole fraction of water	uncertainty
298.15	101	0.876	0.004
