Measured thermophysical data. Standard molar enthalpies of formation of 2-, 3-, and 4-piperidinomethanol isomers
Source: J. Chem. Thermodyn., 2006, 10.1016/j.jct.2005.10.014
Compound 1: carbon dioxide, CO2, InChI=1S/CO2/c2-1-3
Compound 2: nitrogen, N2, InChI=1S/N2/c1-2
Compound 3: water, H2O, InChI=1S/H2O/h1H2
Compound 4: oxygen, O2, InChI=1S/O2/c1-2
Compound 5: 2-(hydroxymethyl)piperidine, C6H13NO, InChI=1S/C6H13NO/c8-5-6-3-1-2-4-7-6/h6-8H,1-5H2
Compound 6: 3-(hydroxymethyl)piperidine, C6H13NO, InChI=1S/C6H13NO/c8-5-6-2-1-3-7-4-6/h6-8H,1-5H2
Compound 7: 4-piperidinemethanol, C6H13NO, InChI=1S/C6H13NO/c8-5-6-1-3-7-4-2-6/h6-8H,1-5H2

System: 2-(hydroxymethyl)piperidine; phases: Gas
Property: Molar enthalpy, kJ/mol (Gas); method: Calvet microcalorimetry
Temperature, K	Pressure, kPa	Molar enthalpy, kJ/mol	uncertainty
337	100	98.98	0.34

System: 3-(hydroxymethyl)piperidine; phases: Gas
Property: Molar enthalpy, kJ/mol (Gas); method: Calvet microcalorimetry
Temperature, K	Pressure, kPa	Molar enthalpy, kJ/mol	uncertainty
334.1	100	101.41	0.75

System: 4-piperidinemethanol; phases: Gas
Property: Molar enthalpy, kJ/mol (Gas); method: Calvet microcalorimetry
Temperature, K	Pressure, kPa	Molar enthalpy, kJ/mol	uncertainty
339.1	100	104.62	0.34

Reaction: -1 3-(hydroxymethyl)piperidine + 6 carbon dioxide + .5 nitrogen + 6.5 water + -8.75 oxygen
Property: Specific internal energy of reaction at constant volume, J/g
-33772.1

Reaction: -1 4-piperidinemethanol + 6 carbon dioxide + .5 nitrogen + 6.5 water + -8.75 oxygen
Property: Specific internal energy of reaction at constant volume, J/g
-33737.7

Reaction: -1 2-(hydroxymethyl)piperidine + 6 carbon dioxide + .5 nitrogen + 6.5 water + -8.75 oxygen
Property: Specific internal energy of reaction at constant volume, J/g
-33732.7
