Measured thermophysical data. Thermodynamic properties for calcium molybdate, molybdenum tri-oxide and aqueous molybdate ion
Source: J. Chem. Thermodyn., 2017, 10.1016/j.jct.2017.05.021
Compound 1: calcium molybdate(VI), CaMoO4, InChI=1S/Ca.Mo.4O/q+2;;;;2*-1, purity 99.9979%
Compound 2: molybdenum oxide (MoO3), MoO3, InChI=1S/Mo.3O/q+6;3*-2, purity 99.9%

System: calcium molybdate(VI); phases: Crystal
Fixed: Pressure, kPa = 101.325
Property: Molar heat capacity at constant pressure, J/K/mol (Crystal); method: RELAXCAL
Temperature, K	Molar heat capacity at constant pressure, J/K/mol	uncertainty
2.012	0.0013	0.0001
2.292	0.0019	0.0001
2.562	0.0026	0.0002
2.812	0.0035	0.0002
3.056	0.0044	0.0003
3.289	0.0055	0.0004
3.5	0.0066	0.0004
3.721	0.0079	0.0005
3.941	0.0094	0.0006
4.159	0.011	0.001
4.377	0.013	0.001
4.586	0.015	0.001
4.8	0.017	0.001
5.016	0.019	0.001
5.23	0.022	0.001
5.447	0.024	0.001
5.653	0.028	0.001
5.865	0.03	0.001
6.077	0.034	0.001
6.291	0.038	0.002
6.502	0.043	0.002
6.712	0.047	0.002
6.921	0.051	0.002
7.129	0.056	0.002
7.337	0.062	0.003
7.546	0.067	0.003
7.753	0.073	0.003
7.962	0.079	0.003
8.169	0.085	0.003
8.377	0.093	0.004
8.586	0.1	0.004
8.793	0.108	0.004
9.001	0.116	0.005
9.21	0.124	0.005
9.417	0.134	0.005
9.625	0.141	0.006
9.832	0.152	0.006
10.03	0.163	0.006
10.21	0.17	0.007
10.41	0.182	0.007
10.6	0.194	0.008
10.78	0.204	0.008
10.97	0.217	0.009
11.18	0.228	0.009
11.39	0.243	0.01
11.6	0.257	0.01
11.81	0.273	0.011
12.02	0.29	0.011
12.21	0.306	0.012
12.44	0.324	0.013
12.62	0.34	0.013
12.84	0.36	0.014
13.03	0.378	0.015
13.25	0.401	0.016
13.45	0.418	0.016
13.65	0.44	0.017
13.87	0.466	0.018
14.05	0.484	0.019
14.28	0.513	0.02
14.45	0.537	0.021
14.69	0.567	0.022
14.87	0.588	0.023
15.09	0.621	0.024
15.28	0.647	0.025
15.5	0.677	0.026
15.69	0.707	0.028
15.91	0.74	0.029
16.1	0.772	0.03
16.31	0.807	0.031
16.49	0.83	0.032
16.51	0.84	0.033
21.59	2.004	0.082
26.66	3.77	0.154
31.73	6.1	0.249
36.76	8.897	0.362
40.82	11.46	0.47
45.31	14.33	0.58
49.8	17.5	0.71
54.29	20.64	0.84
58.76	23.88	0.97
63.24	27.16	1.1
67.73	30.39	1.23
72.22	33.58	1.36
76.7	36.75	1.49
81.15	39.92	1.62
85.19	42.49	1.73
89.67	45.42	1.85
94.15	48.24	1.96
98.63	50.99	2.07
103.1	53.59	2.08
107.57	56.22	2.18
112.04	58.72	2.27
116.51	61.06	2.37
120.98	63.42	2.46
125.44	65.65	2.54
129.48	67.59	2.62
133.95	69.64	2.7
138.42	71.71	2.78
142.88	73.58	2.85
147.34	75.45	2.92
151.8	77.3	2.99
156.27	79.01	3.06
160.74	80.67	3.12
165.2	82.24	3.19
169.67	83.8	3.25
173.69	85.27	3.3
178.15	86.73	3.36
182.62	88.13	3.41
187.08	89.55	3.47
191.55	90.76	3.52
196.02	92.18	3.57
200.49	93.48	3.62
204.96	94.84	3.67
209.43	95.91	3.71
213.92	97.14	3.76
217.92	98.18	3.8
222.39	99.11	3.84
226.85	100.2	3.88
231.32	101.23	3.92
235.79	102.25	3.96
240.27	103.3	4
244.74	104.46	4.05
249.21	105.41	4.08
253.68	106.07	4.11
258.19	106.75	4.13
262.16	107.76	4.17
266.63	108.71	4.21
271.09	109.61	4.25
275.56	110.58	4.28
280.02	111.44	4.32
284.49	112.53	4.36
288.96	113.18	4.38
293.43	113.77	4.41

System: calcium molybdate(VI); phases: Crystal
Fixed: Pressure, kPa = 101.325
Property: Molar heat capacity at constant pressure, J/K/mol (Crystal); method: RELAXCAL
Temperature, K	Molar heat capacity at constant pressure, J/K/mol	uncertainty
50	17.63	0.73
100	51.85	2.01
150	76.51	2.96
200	93.32	3.61
250	105.52	4.09
298.15	114.31	4.43
300	114.6	4.44

System: calcium molybdate(VI); phases: Crystal
Fixed: Pressure, kPa = 101.325
Property: Molar entropy, J/K/mol (Crystal); method: RELAXCAL
Temperature, K	Molar entropy, J/K/mol	uncertainty
50	7.12	0.45
100	30.18	1.75
150	56.2	3.26
200	80.65	4.69
250	102.86	5.98
298.15	122.23	7.1
300	122.94	7.14

System: calcium molybdate(VI); phases: Crystal
Fixed: Pressure, kPa = 101.325
Property: Molar enthalpy, kJ/mol (Crystal); method: RELAXCAL
Temperature, K	Molar enthalpy, kJ/mol	uncertainty
50	0.26	0.01
100	2.02	0.08
150	5.27	0.2
200	9.54	0.37
250	14.53	0.56
298.15	19.83	0.77
300	20.04	0.78

System: molybdenum oxide (MoO3); phases: Crystal
Fixed: Pressure, kPa = 101.325
Property: Molar heat capacity at constant pressure, J/K/mol (Crystal); method: RELAXCAL
Temperature, K	Molar heat capacity at constant pressure, J/K/mol	uncertainty
2.227	0.0016	0.0001
2.394	0.002	0.0002
2.562	0.0024	0.0002
2.732	0.0029	0.0002
2.897	0.0034	0.0003
3.062	0.004	0.0003
3.165	0.0043	0.0004
3.348	0.0052	0.0004
3.533	0.0058	0.0005
3.718	0.007	0.0006
3.907	0.0082	0.0007
4.092	0.0095	0.0008
4.199	0.0099	0.0008
4.402	0.011	0.001
4.607	0.013	0.001
4.812	0.015	0.001
5.018	0.017	0.001
5.223	0.019	0.001
5.33	0.02	0.001
5.529	0.023	0.001
5.729	0.025	0.001
5.931	0.028	0.001
6.132	0.031	0.001
6.334	0.035	0.002
6.537	0.038	0.002
6.738	0.042	0.002
6.938	0.045	0.002
7.14	0.05	0.002
7.342	0.054	0.002
7.539	0.059	0.003
7.74	0.065	0.003
7.942	0.071	0.003
8.146	0.075	0.003
8.348	0.081	0.003
8.558	0.088	0.004
8.746	0.094	0.004
8.945	0.101	0.004
9.148	0.108	0.004
9.348	0.116	0.005
9.556	0.123	0.005
9.754	0.131	0.005
9.954	0.14	0.01
10.16	0.149	0.006
10.36	0.157	0.006
10.57	0.167	0.007
10.77	0.176	0.007
10.97	0.186	0.008
11.17	0.197	0.008
11.37	0.208	0.009
11.57	0.217	0.009
11.78	0.231	0.009
11.97	0.243	0.01
12.17	0.254	0.01
12.38	0.267	0.011
12.58	0.28	0.01
12.78	0.293	0.012
12.98	0.308	0.013
13.18	0.32	0.013
13.39	0.335	0.014
13.58	0.35	0.02
13.79	0.365	0.015
13.98	0.381	0.016
14.19	0.398	0.016
14.39	0.414	0.017
14.6	0.43	0.02
14.79	0.449	0.018
14.99	0.468	0.019
15.19	0.485	0.02
15.39	0.505	0.021
15.74	0.539	0.022
17.72	0.758	0.031
19.7	1.024	0.042
21.67	1.353	0.055
23.63	1.732	0.071
25.61	2.176	0.089
27.58	2.655	0.108
29.46	3.164	0.129
29.55	3.223	0.131
31.37	3.775	0.154
33.27	4.387	0.179
35.18	5.012	0.204
37.08	5.696	0.232
38.98	6.387	0.26
40.89	7.087	0.288
42.79	7.86	0.32
44.7	8.6	0.35
46.6	9.356	0.38
48.5	10.15	0.41
50.4	10.93	0.42
52.29	11.71	0.45
54.19	12.48	0.48
56.09	13.28	0.51
57.99	14.08	0.55
59.89	14.87	0.58
61.78	15.69	0.61
63.68	16.5	0.64
65.58	17.32	0.67
67.48	18.13	0.7
69.37	18.92	0.73
71.27	19.7	0.76
73.17	20.46	0.79
75.07	21.25	0.82
76.96	22.03	0.85
78.86	22.77	0.88
79.86	23.11	0.9
81.77	23.94	0.93
83.69	24.68	0.96
85.6	25.43	0.99
87.51	26.22	1.02
89.42	26.98	1.05
91.34	27.67	1.07
93.25	28.41	1.1
95.16	29.16	1.13
97.07	29.9	1.2
98.98	30.69	1.19
98.99	30.62	1.19
102.86	32.06	1.24
106.72	33.42	1.29
110.59	34.82	1.35
114.46	36.12	1.4
118.33	37.39	1.45
122.2	38.6	1.5
126.07	39.86	1.54
129.93	41.02	1.59
133.8	42.2	1.63
137.66	43.3	1.68
141.53	44.46	1.72
145.4	45.52	1.76
149.27	46.51	1.8
153.14	47.57	1.84
157.01	48.64	1.88
160.88	49.48	1.92
164.75	50.49	1.96
168.61	51.37	1.99
172.47	52.38	2.03
176.33	53.14	2.06
180.21	54.03	2.09
184.07	54.84	2.12
187.94	55.68	2.16
191.8	56.56	2.19
195.67	57.21	2.22
199.53	58.01	2.25
199.56	58	2.25
203.33	58.71	2.27
207.12	59.5	2.3
210.9	60.07	2.33
213.6	60.87	2.36
217.62	61.57	2.38
221.65	62.34	2.41
225.67	63.01	2.44
229.69	63.55	2.46
233.71	64.21	2.49
237.73	64.83	2.51
241.75	65.46	2.54
245.77	66.13	2.56
249.79	66.79	2.59
253.81	67.38	2.61
257.83	67.94	2.63
261.85	68.46	2.65
265.87	68.94	2.67
269.89	69.57	2.69
273.92	70.16	2.72
277.94	70.71	2.74
281.95	71.4	2.77
285.97	71.75	2.78
289.99	72.38	2.8
294.01	72.47	2.81

System: molybdenum oxide (MoO3); phases: Crystal
Fixed: Pressure, kPa = 101.325
Property: Molar heat capacity at constant pressure, J/K/mol (Crystal); method: RELAXCAL
Temperature, K	Molar heat capacity at constant pressure, J/K/mol	uncertainty
50	10.75	0.43
100	30.99	1.2
150	46.73	1.81
200	58.16	2.25
250	66.8	2.6
298.15	73.17	2.83
300	73.39	2.84

System: molybdenum oxide (MoO3); phases: Crystal
Fixed: Pressure, kPa = 101.325
Property: Molar entropy, J/K/mol (Crystal); method: RELAXCAL
Temperature, K	Molar entropy, J/K/mol	uncertainty
50	4.53	0.28
100	18.33	1.06
150	34.05	1.98
200	49.14	2.85
250	63.09	3.67
298.15	75.43	4.38
300	75.88	4.41

System: molybdenum oxide (MoO3); phases: Crystal
Fixed: Pressure, kPa = 101.325
Property: Molar enthalpy, kJ/mol (Crystal); method: RELAXCAL
Temperature, K	Molar enthalpy, kJ/mol	uncertainty
50	0.16	0.01
100	1.22	0.05
150	3.18	0.12
200	5.82	0.23
250	8.95	0.35
298.15	12.33	0.48
300	12.47	0.48
