Measured thermophysical data. Densities, viscosities, refractive indices, and surface tensions for binary and ternary mixtures of 2-propanol, tetrahydropyran, and 2,2,4-trimethylpentane
Source: J. Chem. Thermodyn., 2011, 10.1016/j.jct.2010.08.019
Compound 1: propan-2-ol, C3H8O, InChI=1S/C3H8O/c1-3(2)4/h3-4H,1-2H3, purity 99.5%
Compound 2: tetrahydropyran, C5H10O, InChI=1S/C5H10O/c1-2-4-6-5-3-1/h1-5H2, purity 99%
Compound 3: 2,2,4-trimethylpentane, C8H18, InChI=1S/C8H18/c1-7(2)6-8(3,4)5/h7H,6H2,1-5H3, purity 99.5%

System: propan-2-ol; phases: Liquid
Property: Refractive index (Na D-line) (Liquid); method: Standard Abbe refractometry
Temperature, K	Pressure, kPa	Refractive index (Na D-line)	uncertainty
298.15	101.325	1.3752	0.00033
293.15	101	1.37724	0.00033
303.15	101	1.37286	0.00033
313.15	101	1.36852	0.00033
323.15	101	1.36363	0.00033

System: propan-2-ol; phases: Liquid
Property: Mass density, kg/m3 (Liquid); method: Vibrating tube method
Temperature, K	Pressure, kPa	Mass density, kg/m3	uncertainty
298.15	101.325	781.05	0.15
293.15	101	785.44	0.15
303.15	101	776.75	0.15
313.15	101	767.93	0.15
323.15	101	758.9	0.16

System: propan-2-ol; phases: Liquid, Gas
Property: Surface tension liquid-gas, N/m (Liquid); method: Wilhelmy-plate method
Temperature, K	Surface tension liquid-gas, N/m	uncertainty
298.15	0.0209	0.0004
293.15	0.0213	0.0004
303.15	0.0204	0.0004
313.15	0.0196	0.0004
323.15	0.0188	0.0004

System: propan-2-ol; phases: Liquid
Property: Viscosity, Pa*s (Liquid); method: Falling or rolling sphere viscometry
Temperature, K	Pressure, kPa	Viscosity, Pa*s	uncertainty
298.15	101.325	0.00204	2e-05
293.15	101	0.002362	2e-05
303.15	101	0.001769	1.6e-05
313.15	101	0.001331	1.3e-05
323.15	101	0.001019	1.2e-05

System: tetrahydropyran; phases: Liquid
Property: Refractive index (Na D-line) (Liquid); method: Standard Abbe refractometry
Temperature, K	Pressure, kPa	Refractive index (Na D-line)	uncertainty
298.15	101.325	1.4186	0.0004
293.15	101	1.39161	0.00037
303.15	101	1.3866	0.00037
313.15	101	1.38143	0.00037
323.15	101	1.37627	0.00037
293.15	101	1.42109	0.00037
303.15	101	1.41599	0.00037
313.15	101	1.41092	0.00037
323.15	101	1.40554	0.00037

System: tetrahydropyran; phases: Liquid
Property: Mass density, kg/m3 (Liquid); method: Vibrating tube method
Temperature, K	Pressure, kPa	Mass density, kg/m3	uncertainty
298.15	101.325	878.8	0.2
293.15	101	884.27	0.23
303.15	101	874.07	0.23
313.15	101	863.76	0.47
323.15	101	666.8	0.83
323.15	101	853.46	0.24

System: tetrahydropyran; phases: Liquid, Gas
Property: Surface tension liquid-gas, N/m (Liquid); method: Wilhelmy-plate method
Temperature, K	Surface tension liquid-gas, N/m	uncertainty
298.15	0.0272	0.0004
293.15	0.0275	0.0004
303.15	0.0262	0.0004
313.15	0.0251	0.0004
323.15	0.0238	0.0004

System: tetrahydropyran; phases: Liquid
Property: Viscosity, Pa*s (Liquid); method: Falling or rolling sphere viscometry
Temperature, K	Pressure, kPa	Viscosity, Pa*s	uncertainty
298.15	101.325	0.0008	1e-05
293.15	101	0.00086	1.1e-05
303.15	101	0.000749	1e-05
313.15	101	0.000658	1e-05
323.15	101	0.000565	9e-06

System: 2,2,4-trimethylpentane; phases: Liquid
Property: Refractive index (Na D-line) (Liquid); method: Standard Abbe refractometry
Temperature, K	Pressure, kPa	Refractive index (Na D-line)	uncertainty
298.15	101.325	1.38906	0.00033
293.15	101	1.42109	0.00033
303.15	101	1.41599	0.00033
313.15	101	1.41092	0.00033
323.15	101	1.40554	0.00033
293.15	101	1.39161	0.00033
303.15	101	1.3866	0.00033
313.15	101	1.38143	0.00033
323.15	101	1.37627	0.00033

System: 2,2,4-trimethylpentane; phases: Liquid
Property: Mass density, kg/m3 (Liquid); method: Vibrating tube method
Temperature, K	Pressure, kPa	Mass density, kg/m3	uncertainty
298.15	101.325	687.7	0.2
293.15	101	691.98	0.18
303.15	101	683.61	0.18
313.15	101	675.23	0.18
323.15	101	666.8	0.19

System: 2,2,4-trimethylpentane; phases: Liquid, Gas
Property: Surface tension liquid-gas, N/m (Liquid); method: Wilhelmy-plate method
Temperature, K	Surface tension liquid-gas, N/m	uncertainty
298.15	0.0183	0.0004
293.15	0.0188	0.0004
303.15	0.0179	0.0004
313.15	0.0169	0.0004
323.15	0.0162	0.0004

System: 2,2,4-trimethylpentane; phases: Liquid
Property: Viscosity, Pa*s (Liquid); method: Falling or rolling sphere viscometry
Temperature, K	Pressure, kPa	Viscosity, Pa*s	uncertainty
298.15	101.325	0.000475	9e-06
293.15	101	0.000503	9e-06
303.15	101	0.000447	9e-06
313.15	101	0.000404	9e-06
323.15	101	0.000365	9e-06

System: propan-2-ol + tetrahydropyran; phases: Liquid, Air at 1 atmosphere
Property: Surface tension liquid-gas, N/m (Liquid); method: Wilhelmy-plate method
Temperature, K	Mole fraction of propan-2-ol	Surface tension liquid-gas, N/m	uncertainty
293.15	0	0.0275	0.0004
293.15	0.0501	0.0272	0.0004
293.15	0.0999	0.0269	0.0004
293.15	0.1499	0.0266	0.0004
293.15	0.2003	0.0263	0.0004
293.15	0.2506	0.026	0.0004
293.15	0.2999	0.0257	0.0004
293.15	0.35	0.0254	0.0004
293.15	0.3999	0.025	0.0004
293.15	0.4499	0.0247	0.0004
293.15	0.5001	0.0244	0.0004
293.15	0.5502	0.024	0.0004
293.15	0.6001	0.0237	0.0004
293.15	0.6499	0.0234	0.0004
293.15	0.7001	0.0231	0.0004
293.15	0.7499	0.0227	0.0004
293.15	0.8	0.0224	0.0004
293.15	0.8501	0.0221	0.0004
293.15	0.9001	0.0219	0.0004
293.15	0.9499	0.0216	0.0004
293.15	1	0.0213	0.0004
303.15	0	0.0262	0.0004
303.15	0.0502	0.026	0.0004
303.15	0.1001	0.0257	0.0004
303.15	0.1501	0.0254	0.0004
303.15	0.1998	0.0251	0.0004
303.15	0.2499	0.0248	0.0004
303.15	0.3	0.0245	0.0004
303.15	0.3499	0.0242	0.0004
303.15	0.4001	0.0239	0.0004
303.15	0.4501	0.0236	0.0004
303.15	0.5001	0.0233	0.0004
303.15	0.55	0.0229	0.0004
303.15	0.6	0.0226	0.0004
303.15	0.65	0.0223	0.0004
303.15	0.6999	0.022	0.0004
303.15	0.7499	0.0217	0.0004
303.15	0.8001	0.0214	0.0004
303.15	0.85	0.0212	0.0004
303.15	0.8998	0.0209	0.0004
303.15	0.9499	0.0206	0.0004
303.15	1	0.0204	0.0004
313.15	0	0.0251	0.0004
313.15	0.05	0.0249	0.0004
313.15	0.1	0.0246	0.0004
313.15	0.1501	0.0243	0.0004
313.15	0.2	0.0241	0.0004
313.15	0.2499	0.0238	0.0004
313.15	0.2997	0.0235	0.0004
313.15	0.3499	0.0232	0.0004
313.15	0.4	0.0229	0.0004
313.15	0.4504	0.0226	0.0004
313.15	0.5001	0.0223	0.0004
313.15	0.55	0.022	0.0004
313.15	0.5999	0.0217	0.0004
313.15	0.65	0.0214	0.0004
313.15	0.7001	0.0211	0.0004
313.15	0.7502	0.0208	0.0004
313.15	0.7999	0.0206	0.0004
313.15	0.85	0.0203	0.0004
313.15	0.8998	0.0201	0.0004
313.15	0.9498	0.0198	0.0004
313.15	1	0.0196	0.0004
323.15	0	0.0238	0.0004
323.15	0.05	0.0235	0.0004
323.15	0.1	0.0233	0.0004
323.15	0.1501	0.0231	0.0004
323.15	0.2	0.0228	0.0004
323.15	0.2499	0.0226	0.0004
323.15	0.2997	0.0223	0.0004
323.15	0.3499	0.022	0.0004
323.15	0.4	0.0218	0.0004
323.15	0.4504	0.0215	0.0004
323.15	0.5001	0.0212	0.0004
323.15	0.5501	0.0209	0.0004
323.15	0.6	0.0207	0.0004
323.15	0.65	0.0204	0.0004
323.15	0.6999	0.0201	0.0004
323.15	0.7502	0.0199	0.0004
323.15	0.8002	0.0196	0.0004
323.15	0.8501	0.0194	0.0004
323.15	0.8998	0.0192	0.0004
323.15	0.9501	0.019	0.0004
323.15	1	0.0188	0.0004

System: propan-2-ol + tetrahydropyran; phases: Liquid
Fixed: Pressure, kPa = 101
Property: Viscosity, Pa*s (Liquid); method: Falling or rolling sphere viscometry
Temperature, K	Mole fraction of propan-2-ol	Viscosity, Pa*s	uncertainty
293.15	0	0.00086	1.1e-05
293.15	0.0501	0.000852	1.1e-05
293.15	0.0999	0.000845	1.1e-05
293.15	0.1499	0.000849	1.1e-05
293.15	0.2003	0.00085	1.1e-05
293.15	0.2506	0.000855	1.1e-05
293.15	0.2999	0.000864	1.1e-05
293.15	0.35	0.000877	1.1e-05
293.15	0.3999	0.000899	1.1e-05
293.15	0.4499	0.000922	1.1e-05
293.15	0.5001	0.000947	1.1e-05
293.15	0.5502	0.000983	1.1e-05
293.15	0.6001	0.001032	1.2e-05
293.15	0.6499	0.001095	1.2e-05
293.15	0.7001	0.001164	1.2e-05
293.15	0.7499	0.001256	1.3e-05
293.15	0.8	0.001378	1.4e-05
293.15	0.8501	0.001535	1.5e-05
293.15	0.9001	0.001739	1.6e-05
293.15	0.9499	0.002013	1.8e-05
293.15	1	0.002362	2e-05
303.15	0	0.000749	1e-05
303.15	0.0502	0.000737	1e-05
303.15	0.1001	0.000729	1e-05
303.15	0.1501	0.000728	1e-05
303.15	0.1998	0.000725	1e-05
303.15	0.2499	0.000729	1e-05
303.15	0.3	0.000737	1e-05
303.15	0.3499	0.00075	1e-05
303.15	0.4001	0.00076	1e-05
303.15	0.4501	0.000779	1e-05
303.15	0.5001	0.0008	1e-05
303.15	0.55	0.000825	1e-05
303.15	0.6	0.000861	1.1e-05
303.15	0.65	0.000905	1.1e-05
303.15	0.6999	0.000958	1.1e-05
303.15	0.7499	0.001021	1.1e-05
303.15	0.8001	0.001108	1.2e-05
303.15	0.85	0.001214	1.3e-05
303.15	0.8998	0.001356	1.4e-05
303.15	0.9499	0.001533	1.5e-05
303.15	1	0.001769	1.6e-05
313.15	0	0.000658	1e-05
313.15	0.05	0.000645	1e-05
313.15	0.1	0.000639	1e-05
313.15	0.1501	0.000634	1e-05
313.15	0.2	0.000633	1e-05
313.15	0.2499	0.000635	1e-05
313.15	0.2997	0.000638	1e-05
313.15	0.3499	0.000646	1e-05
313.15	0.4	0.000656	1e-05
313.15	0.4504	0.000667	1e-05
313.15	0.5001	0.000682	1e-05
313.15	0.55	0.000704	1e-05
313.15	0.5999	0.000725	1e-05
313.15	0.65	0.000758	1e-05
313.15	0.7001	0.000796	1e-05
313.15	0.7502	0.000844	1.1e-05
313.15	0.7999	0.000901	1.1e-05
313.15	0.85	0.000976	1.1e-05
313.15	0.8998	0.001069	1.2e-05
313.15	0.9498	0.001187	1.2e-05
313.15	1	0.001331	1.3e-05
323.15	0	0.000565	9e-06
323.15	0.05	0.000562	9e-06
323.15	0.1	0.000558	9e-06
323.15	0.1501	0.000553	9e-06
323.15	0.2	0.00055	9e-06
323.15	0.2499	0.00055	9e-06
323.15	0.2997	0.000553	9e-06
323.15	0.3499	0.000557	9e-06
323.15	0.4	0.000563	9e-06
323.15	0.4504	0.000571	9e-06
323.15	0.5001	0.000582	9e-06
323.15	0.5501	0.000596	9e-06
323.15	0.6	0.000615	9e-06
323.15	0.65	0.000635	1e-05
323.15	0.6999	0.000661	1e-05
323.15	0.7502	0.000697	1e-05
323.15	0.8002	0.000739	1e-05
323.15	0.8501	0.00079	1e-05
323.15	0.8998	0.00085	1.1e-05
323.15	0.9501	0.000927	1.1e-05
323.15	1	0.001019	1.2e-05

System: propan-2-ol + tetrahydropyran; phases: Liquid
Fixed: Pressure, kPa = 101
Property: Refractive index (Na D-line) (Liquid); method: Standard Abbe refractometry
Temperature, K	Mole fraction of propan-2-ol	Refractive index (Na D-line)	uncertainty
293.15	0	1.39161	0.00037
293.15	0.0501	1.39085	0.00037
293.15	0.0999	1.3902	0.00036
293.15	0.1499	1.38954	0.00036
293.15	0.2003	1.38897	0.00036
293.15	0.2506	1.38839	0.00036
293.15	0.2999	1.38777	0.00035
293.15	0.35	1.38719	0.00035
293.15	0.3999	1.3866	0.00035
293.15	0.4499	1.38599	0.00035
293.15	0.5001	1.38539	0.00035
293.15	0.5502	1.38478	0.00034
293.15	0.6001	1.38415	0.00034
293.15	0.6499	1.38347	0.00034
293.15	0.7001	1.3827	0.00034
293.15	0.7499	1.38194	0.00034
293.15	0.8	1.38113	0.00033
293.15	0.8501	1.38021	0.00033
293.15	0.9001	1.37932	0.00033
293.15	0.9499	1.37832	0.00033
293.15	1	1.37724	0.00033
303.15	0	1.3866	0.00037
303.15	0.0502	1.38571	0.00037
303.15	0.1001	1.38505	0.00036
303.15	0.1501	1.38441	0.00036
303.15	0.1998	1.38377	0.00036
303.15	0.2499	1.3832	0.00036
303.15	0.3	1.38259	0.00035
303.15	0.3499	1.38201	0.00035
303.15	0.4001	1.38144	0.00035
303.15	0.4501	1.38087	0.00035
303.15	0.5001	1.38026	0.00035
303.15	0.55	1.37965	0.00034
303.15	0.6	1.37903	0.00034
303.15	0.65	1.37841	0.00034
303.15	0.6999	1.37775	0.00034
303.15	0.7499	1.37704	0.00034
303.15	0.8001	1.37633	0.00033
303.15	0.85	1.37553	0.00033
303.15	0.8998	1.37469	0.00033
303.15	0.9499	1.3738	0.00033
303.15	1	1.37286	0.00033
313.15	0	1.38143	0.00037
313.15	0.05	1.38065	0.00037
313.15	0.1	1.37995	0.00036
313.15	0.1501	1.37929	0.00036
313.15	0.2	1.37868	0.00036
313.15	0.2499	1.37807	0.00036
313.15	0.2997	1.37748	0.00035
313.15	0.3499	1.37692	0.00035
313.15	0.4	1.37632	0.00035
313.15	0.4504	1.37573	0.00035
313.15	0.5001	1.37513	0.00035
313.15	0.55	1.37457	0.00034
313.15	0.5999	1.37399	0.00034
313.15	0.65	1.37339	0.00034
313.15	0.7001	1.3728	0.00034
313.15	0.7502	1.37216	0.00034
313.15	0.7999	1.37151	0.00033
313.15	0.85	1.37081	0.00033
313.15	0.8998	1.37005	0.00033
313.15	0.9498	1.36931	0.00033
313.15	1	1.36852	0.00033
323.15	0	1.37627	0.00037
323.15	0.05	1.3752	0.00037
323.15	0.1	1.37442	0.00036
323.15	0.1501	1.37378	0.00036
323.15	0.2	1.37312	0.00036
323.15	0.2499	1.37252	0.00036
323.15	0.2997	1.37192	0.00036
323.15	0.3499	1.37127	0.00035
323.15	0.4	1.37072	0.00035
323.15	0.4504	1.37012	0.00035
323.15	0.5001	1.3695	0.00035
323.15	0.5501	1.36901	0.00034
323.15	0.6	1.36843	0.00034
323.15	0.65	1.36789	0.00034
323.15	0.6999	1.36729	0.00034
323.15	0.7502	1.36664	0.00034
323.15	0.8002	1.36608	0.00033
323.15	0.8501	1.36542	0.00033
323.15	0.8998	1.36485	0.00033
323.15	0.9501	1.3642	0.00033
323.15	1	1.36363	0.00033

System: propan-2-ol + tetrahydropyran; phases: Liquid
Fixed: Pressure, kPa = 101
Property: Mass density, kg/m3 (Liquid); method: Vibrating tube method
Temperature, K	Mole fraction of propan-2-ol	Mass density, kg/m3	uncertainty
293.15	0	884.27	0.23
293.15	0.0501	879.89	0.23
293.15	0.0999	875.5	0.22
293.15	0.1499	871.09	0.21
293.15	0.2003	866.62	0.21
293.15	0.2506	862.13	0.2
293.15	0.2999	857.7	0.2
293.15	0.35	853.13	0.19
293.15	0.3999	848.52	0.19
293.15	0.4499	843.87	0.18
293.15	0.5001	839.07	0.18
293.15	0.5502	834.22	0.17
293.15	0.6001	829.28	0.17
293.15	0.6499	824.23	0.17
293.15	0.7001	819.03	0.16
293.15	0.7499	813.78	0.16
293.15	0.8	808.34	0.16
293.15	0.8501	802.8	0.16
293.15	0.9001	797.15	0.15
293.15	0.9499	791.36	0.15
293.15	1	785.44	0.15
303.15	0	874.07	0.23
303.15	0.0502	869.6	0.23
303.15	0.1001	865.24	0.22
303.15	0.1501	860.87	0.22
303.15	0.1998	856.52	0.21
303.15	0.2499	852.09	0.2
303.15	0.3	847.66	0.2
303.15	0.3499	843.17	0.19
303.15	0.4001	838.59	0.19
303.15	0.4501	833.98	0.18
303.15	0.5001	829.29	0.18
303.15	0.55	824.54	0.18
303.15	0.6	819.65	0.17
303.15	0.65	814.69	0.17
303.15	0.6999	809.62	0.17
303.15	0.7499	804.47	0.16
303.15	0.8001	799.17	0.16
303.15	0.85	793.77	0.16
303.15	0.8998	788.25	0.16
303.15	0.9499	782.59	0.16
303.15	1	776.75	0.15
313.15	0	863.76	0.47
313.15	0.05	859.32	0.46
313.15	0.1	854.97	0.45
313.15	0.1501	850.64	0.44
313.15	0.2	846.27	0.42
313.15	0.2499	841.92	0.41
313.15	0.2997	837.55	0.39
313.15	0.3499	833.09	0.38
313.15	0.4	828.58	0.36
313.15	0.4504	823.98	0.34
313.15	0.5001	819.37	0.33
313.15	0.55	814.68	0.31
313.15	0.5999	809.9	0.29
313.15	0.65	805.04	0.28
313.15	0.7001	800.07	0.26
313.15	0.7502	794.95	0.24
313.15	0.7999	789.8	0.22
313.15	0.85	784.49	0.2
313.15	0.8998	779.1	0.18
313.15	0.9498	773.58	0.17
313.15	1	767.93	0.15
323.15	0	666.8	0.83
323.15	0.0501	667.65	0.8
323.15	0.1	669.08	0.78
323.15	0.15	670.98	0.76
323.15	0.1998	673.08	0.73
323.15	0.25	675.42	0.7
323.15	0.3	677.99	0.68
323.15	0.35	680.86	0.65
323.15	0.4	683.93	0.62
323.15	0.4499	687.34	0.58
323.15	0.5	691.07	0.55
323.15	0.5501	695.17	0.52
323.15	0.6	699.74	0.48
323.15	0.65	704.78	0.44
323.15	0.7	710.22	0.4
323.15	0.7499	716.22	0.36
323.15	0.7999	722.88	0.32
323.15	0.85	730.48	0.28
323.15	0.9	738.82	0.23
323.15	0.95	748.16	0.19
323.15	1	758.9	0.16

System: propan-2-ol + 2,2,4-trimethylpentane; phases: Liquid, Air at 1 atmosphere
Property: Surface tension liquid-gas, N/m (Liquid); method: Wilhelmy-plate method
Temperature, K	Mole fraction of propan-2-ol	Surface tension liquid-gas, N/m	uncertainty
293.15	0	0.0188	0.0004
293.15	0.1006	0.0188	0.0004
293.15	0.2003	0.0189	0.0004
293.15	0.3003	0.019	0.0004
293.15	0.4004	0.019	0.0004
293.15	0.5001	0.0192	0.0004
293.15	0.5998	0.0193	0.0004
293.15	0.7002	0.0196	0.0004
293.15	0.7999	0.02	0.0004
293.15	0.8999	0.0206	0.0004
293.15	1	0.0213	0.0004
303.15	0	0.0179	0.0004
303.15	0.1	0.0179	0.0004
303.15	0.2004	0.0179	0.0004
303.15	0.3	0.018	0.0004
303.15	0.4008	0.018	0.0004
303.15	0.5	0.0181	0.0004
303.15	0.6001	0.0183	0.0004
303.15	0.7001	0.0186	0.0004
303.15	0.7989	0.019	0.0004
303.15	0.8997	0.0196	0.0004
303.15	1	0.0204	0.0004
313.15	0	0.0169	0.0004
313.15	0.1001	0.0169	0.0004
313.15	0.2001	0.0169	0.0004
313.15	0.3003	0.017	0.0004
313.15	0.4	0.0171	0.0004
313.15	0.5005	0.0172	0.0004
313.15	0.6	0.0175	0.0004
313.15	0.6999	0.0178	0.0004
313.15	0.7998	0.0182	0.0004
313.15	0.8999	0.0188	0.0004
313.15	1	0.0196	0.0004
323.15	0	0.0162	0.0004
323.15	0.1	0.0162	0.0004
323.15	0.1998	0.0162	0.0004
323.15	0.3	0.0162	0.0004
323.15	0.4	0.0163	0.0004
323.15	0.5	0.0164	0.0004
323.15	0.6	0.0167	0.0004
323.15	0.7	0.017	0.0004
323.15	0.7999	0.0174	0.0004
323.15	0.9	0.018	0.0004
323.15	1	0.0188	0.0004

System: propan-2-ol + 2,2,4-trimethylpentane; phases: Liquid
Fixed: Pressure, kPa = 101
Property: Viscosity, Pa*s (Liquid); method: Falling or rolling sphere viscometry
Temperature, K	Mole fraction of propan-2-ol	Viscosity, Pa*s	uncertainty
293.15	0	0.000503	9e-06
293.15	0.0501	0.000502	9e-06
293.15	0.1006	0.000509	9e-06
293.15	0.1512	0.000517	9e-06
293.15	0.2003	0.00053	9e-06
293.15	0.2501	0.000543	9e-06
293.15	0.3003	0.000563	9e-06
293.15	0.3502	0.000593	9e-06
293.15	0.4004	0.000628	9e-06
293.15	0.4502	0.000662	1e-05
293.15	0.5001	0.000699	1e-05
293.15	0.55	0.000755	1e-05
293.15	0.5998	0.00082	1e-05
293.15	0.6502	0.000906	1.1e-05
293.15	0.7002	0.001004	1.1e-05
293.15	0.7499	0.00112	1.2e-05
293.15	0.7999	0.001264	1.3e-05
293.15	0.85	0.001439	1.4e-05
293.15	0.8999	0.001666	1.5e-05
293.15	0.95	0.00196	1.8e-05
293.15	1	0.002362	2e-05
303.15	0	0.000447	9e-06
303.15	0.05	0.000444	9e-06
303.15	0.1	0.00045	9e-06
303.15	0.1499	0.000457	9e-06
303.15	0.2004	0.000464	9e-06
303.15	0.2497	0.000474	9e-06
303.15	0.3	0.000491	9e-06
303.15	0.3499	0.000508	9e-06
303.15	0.4008	0.000532	9e-06
303.15	0.4503	0.000558	9e-06
303.15	0.5	0.000589	9e-06
303.15	0.5498	0.000633	9e-06
303.15	0.6001	0.000682	1e-05
303.15	0.65	0.000745	1e-05
303.15	0.7001	0.000814	1e-05
303.15	0.7495	0.000899	1.1e-05
303.15	0.7989	0.000995	1.1e-05
303.15	0.8499	0.001158	1.2e-05
303.15	0.8997	0.001307	1.3e-05
303.15	0.95	0.001485	1.4e-05
303.15	1	0.001769	1.6e-05
313.15	0	0.000404	9e-06
313.15	0.0499	0.000398	9e-06
313.15	0.1001	0.000401	9e-06
313.15	0.1503	0.000405	9e-06
313.15	0.2001	0.000412	9e-06
313.15	0.2499	0.00042	9e-06
313.15	0.3003	0.00043	9e-06
313.15	0.3497	0.000449	9e-06
313.15	0.4	0.000458	9e-06
313.15	0.4502	0.000476	9e-06
313.15	0.5005	0.0005	9e-06
313.15	0.5499	0.000529	9e-06
313.15	0.6	0.000569	9e-06
313.15	0.6498	0.00061	9e-06
313.15	0.6999	0.000657	1e-05
313.15	0.75	0.000719	1e-05
313.15	0.7998	0.000782	1e-05
313.15	0.8498	0.00087	1.1e-05
313.15	0.8999	0.000987	1.1e-05
313.15	0.9499	0.001129	1.2e-05
313.15	1	0.001331	1.3e-05
323.15	0	0.000365	9e-06
323.15	0.0501	0.000359	8e-06
323.15	0.1	0.00036	8e-06
323.15	0.15	0.000366	9e-06
323.15	0.1998	0.00037	9e-06
323.15	0.25	0.000375	9e-06
323.15	0.3	0.000383	9e-06
323.15	0.35	0.000392	9e-06
323.15	0.4	0.000403	9e-06
323.15	0.4499	0.000417	9e-06
323.15	0.5	0.000433	9e-06
323.15	0.5501	0.000456	9e-06
323.15	0.6	0.000479	9e-06
323.15	0.65	0.000508	9e-06
323.15	0.7	0.000544	9e-06
323.15	0.7499	0.000588	9e-06
323.15	0.7999	0.000632	9e-06
323.15	0.85	0.000696	1e-05
323.15	0.9	0.000776	1e-05
323.15	0.95	0.000875	1.1e-05
323.15	1	0.001019	1.2e-05

System: propan-2-ol + 2,2,4-trimethylpentane; phases: Liquid
Fixed: Pressure, kPa = 101
Property: Refractive index (Na D-line) (Liquid); method: Standard Abbe refractometry
Temperature, K	Mole fraction of propan-2-ol	Refractive index (Na D-line)	uncertainty
293.15	0	1.42109	0.00033
293.15	0.0501	1.41907	0.00033
293.15	0.1006	1.41708	0.00033
293.15	0.1512	1.41507	0.00033
293.15	0.2003	1.41303	0.00033
293.15	0.2501	1.41104	0.00033
293.15	0.3003	1.40906	0.00033
293.15	0.3502	1.40701	0.00033
293.15	0.4004	1.40497	0.00033
293.15	0.4502	1.4029	0.00033
293.15	0.5001	1.40079	0.00033
293.15	0.55	1.39865	0.00033
293.15	0.5998	1.39647	0.00033
293.15	0.6502	1.39422	0.00033
293.15	0.7002	1.39194	0.00033
293.15	0.7499	1.38965	0.00033
293.15	0.7999	1.38727	0.00033
293.15	0.85	1.38486	0.00033
293.15	0.8999	1.38241	0.00033
293.15	0.95	1.37993	0.00033
293.15	1	1.37724	0.00033
303.15	0	1.41599	0.00033
303.15	0.05	1.41398	0.00033
303.15	0.1	1.41198	0.00033
303.15	0.1499	1.41	0.00033
303.15	0.2004	1.408	0.00033
303.15	0.2497	1.40602	0.00033
303.15	0.3	1.40405	0.00033
303.15	0.3499	1.40202	0.00033
303.15	0.4008	1.40001	0.00033
303.15	0.4503	1.39797	0.00033
303.15	0.5	1.3959	0.00033
303.15	0.5498	1.3938	0.00033
303.15	0.6001	1.39166	0.00033
303.15	0.65	1.38947	0.00033
303.15	0.7001	1.38724	0.00033
303.15	0.7495	1.38498	0.00033
303.15	0.7989	1.38267	0.00033
303.15	0.8499	1.3803	0.00033
303.15	0.8997	1.37788	0.00033
303.15	0.95	1.37545	0.00033
303.15	1	1.37286	0.00033
313.15	0	1.41092	0.00033
313.15	0.0499	1.40889	0.00033
313.15	0.1001	1.40693	0.00033
313.15	0.1503	1.40494	0.00033
313.15	0.2001	1.40299	0.00033
313.15	0.2499	1.40102	0.00033
313.15	0.3003	1.39906	0.00033
313.15	0.3497	1.39707	0.00033
313.15	0.4	1.39507	0.00033
313.15	0.4502	1.39301	0.00033
313.15	0.5005	1.39098	0.00033
313.15	0.5499	1.38891	0.00033
313.15	0.6	1.38681	0.00033
313.15	0.6498	1.38469	0.00033
313.15	0.6999	1.38251	0.00033
313.15	0.75	1.38031	0.00033
313.15	0.7998	1.37808	0.00033
313.15	0.8498	1.37578	0.00033
313.15	0.8999	1.37345	0.00033
313.15	0.9499	1.37107	0.00033
313.15	1	1.36852	0.00033
323.15	0	1.40554	0.00033
323.15	0.0501	1.40351	0.00033
323.15	0.1	1.40154	0.00033
323.15	0.15	1.39952	0.00033
323.15	0.1998	1.39757	0.00033
323.15	0.25	1.39566	0.00033
323.15	0.3	1.39368	0.00033
323.15	0.35	1.39173	0.00033
323.15	0.4	1.38974	0.00033
323.15	0.4499	1.38775	0.00033
323.15	0.5	1.38572	0.00033
323.15	0.5501	1.38366	0.00033
323.15	0.6	1.38161	0.00033
323.15	0.65	1.37953	0.00033
323.15	0.7	1.37741	0.00033
323.15	0.7499	1.37522	0.00033
323.15	0.7999	1.37303	0.00033
323.15	0.85	1.3708	0.00033
323.15	0.9	1.36851	0.00033
323.15	0.95	1.36617	0.00033
323.15	1	1.36363	0.00033

System: propan-2-ol + 2,2,4-trimethylpentane; phases: Liquid
Fixed: Pressure, kPa = 101
Property: Mass density, kg/m3 (Liquid); method: Vibrating tube method
Temperature, K	Mole fraction of propan-2-ol	Mass density, kg/m3	uncertainty
293.15	0	691.98	0.18
293.15	0.0501	693.38	0.18
293.15	0.1006	695.3	0.18
293.15	0.1512	697.45	0.18
293.15	0.2003	699.71	0.18
293.15	0.2501	702.18	0.18
293.15	0.3003	704.91	0.17
293.15	0.3502	707.91	0.17
293.15	0.4004	711.2	0.17
293.15	0.4502	714.74	0.17
293.15	0.5001	718.61	0.17
293.15	0.55	722.8	0.17
293.15	0.5998	727.34	0.17
293.15	0.6502	732.45	0.17
293.15	0.7002	737.93	0.17
293.15	0.7499	743.9	0.16
293.15	0.7999	750.57	0.16
293.15	0.85	757.91	0.16
293.15	0.8999	766.04	0.16
293.15	0.95	775.2	0.16
293.15	1	785.44	0.15
303.15	0	683.61	0.18
303.15	0.05	684.93	0.18
303.15	0.1	686.65	0.18
303.15	0.1499	688.68	0.18
303.15	0.2004	690.94	0.18
303.15	0.2497	693.36	0.18
303.15	0.3	696.11	0.18
303.15	0.3499	699.03	0.18
303.15	0.4008	702.3	0.18
303.15	0.4503	705.79	0.17
303.15	0.5	709.61	0.17
303.15	0.5498	713.82	0.17
303.15	0.6001	718.44	0.17
303.15	0.65	723.45	0.17
303.15	0.7001	728.94	0.17
303.15	0.7495	734.92	0.17
303.15	0.7989	741.51	0.17
303.15	0.8499	748.97	0.16
303.15	0.8997	757.15	0.16
303.15	0.95	766.32	0.16
303.15	1	776.75	0.15
313.15	0	675.23	0.18
313.15	0.0499	676.34	0.18
313.15	0.1001	677.92	0.18
313.15	0.1503	679.86	0.18
313.15	0.2001	682.09	0.18
313.15	0.2499	684.47	0.18
313.15	0.3003	687.15	0.18
313.15	0.3497	689.97	0.18
313.15	0.4	693.18	0.18
313.15	0.4502	696.67	0.18
313.15	0.5005	700.49	0.18
313.15	0.5499	704.67	0.18
313.15	0.6	709.23	0.17
313.15	0.6498	714.27	0.17
313.15	0.6999	719.71	0.17
313.15	0.75	725.83	0.17
313.15	0.7998	732.49	0.17
313.15	0.8498	739.89	0.17
313.15	0.8999	748.21	0.16
313.15	0.9499	757.39	0.16
313.15	1	767.93	0.15
323.15	0	666.8	0.19
323.15	0.0501	667.65	0.19
323.15	0.1	669.08	0.19
323.15	0.15	670.98	0.19
323.15	0.1998	673.08	0.18
323.15	0.25	675.42	0.18
323.15	0.3	677.99	0.18
323.15	0.35	680.86	0.18
323.15	0.4	683.93	0.18
323.15	0.4499	687.34	0.18
323.15	0.5	691.07	0.18
323.15	0.5501	695.17	0.18
323.15	0.6	699.74	0.18
323.15	0.65	704.78	0.18
323.15	0.7	710.22	0.17
323.15	0.7499	716.22	0.17
323.15	0.7999	722.88	0.17
323.15	0.85	730.48	0.17
323.15	0.9	738.82	0.17
323.15	0.95	748.16	0.17
323.15	1	758.9	0.16

System: tetrahydropyran + 2,2,4-trimethylpentane; phases: Liquid, Air at 1 atmosphere
Property: Surface tension liquid-gas, N/m (Liquid); method: Wilhelmy-plate method
Temperature, K	Mole fraction of tetrahydropyran	Surface tension liquid-gas, N/m	uncertainty
293.15	0	0.0188	0.0004
293.15	0.0502	0.0189	0.0004
293.15	0.1	0.019	0.0004
293.15	0.1499	0.0192	0.0004
293.15	0.2	0.0194	0.0004
293.15	0.25	0.0196	0.0004
293.15	0.3	0.0198	0.0004
293.15	0.35	0.0201	0.0004
293.15	0.4	0.0203	0.0004
293.15	0.4498	0.0206	0.0004
293.15	0.5001	0.0209	0.0004
293.15	0.5501	0.0212	0.0004
293.15	0.5999	0.0216	0.0004
293.15	0.6501	0.022	0.0004
293.15	0.6999	0.0225	0.0004
293.15	0.75	0.0231	0.0004
293.15	0.8	0.0236	0.0004
293.15	0.8501	0.0243	0.0004
293.15	0.9	0.0252	0.0004
293.15	0.95	0.0263	0.0004
293.15	1	0.0275	0.0004
303.15	0	0.0179	0.0004
303.15	0.0502	0.018	0.0004
303.15	0.1	0.0182	0.0004
303.15	0.1499	0.0183	0.0004
303.15	0.2	0.0186	0.0004
303.15	0.25	0.0188	0.0004
303.15	0.2999	0.019	0.0004
303.15	0.3498	0.0192	0.0004
303.15	0.3998	0.0195	0.0004
303.15	0.4498	0.0197	0.0004
303.15	0.5001	0.02	0.0004
303.15	0.5501	0.0203	0.0004
303.15	0.5999	0.0206	0.0004
303.15	0.6501	0.021	0.0004
303.15	0.6999	0.0215	0.0004
303.15	0.75	0.0221	0.0004
303.15	0.8	0.0226	0.0004
303.15	0.8501	0.0233	0.0004
303.15	0.9	0.0242	0.0004
303.15	0.95	0.0252	0.0004
303.15	1	0.0262	0.0004
313.15	0	0.0169	0.0004
313.15	0.0501	0.0171	0.0004
313.15	0.1002	0.0173	0.0004
313.15	0.1501	0.0175	0.0004
313.15	0.1999	0.0177	0.0004
313.15	0.2501	0.0179	0.0004
313.15	0.3	0.0181	0.0004
313.15	0.3499	0.0184	0.0004
313.15	0.4002	0.0186	0.0004
313.15	0.4502	0.0189	0.0004
313.15	0.4999	0.0191	0.0004
313.15	0.5499	0.0194	0.0004
313.15	0.6	0.0197	0.0004
313.15	0.65	0.0201	0.0004
313.15	0.6998	0.0206	0.0004
313.15	0.75	0.0212	0.0004
313.15	0.8001	0.0217	0.0004
313.15	0.8501	0.0224	0.0004
313.15	0.9001	0.0232	0.0004
313.15	0.9498	0.0241	0.0004
313.15	1	0.0251	0.0004
323.15	0	0.0162	0.0004
323.15	0.0501	0.0164	0.0004
323.15	0.1002	0.0166	0.0004
323.15	0.1501	0.0167	0.0004
323.15	0.1999	0.017	0.0004
323.15	0.2501	0.0172	0.0004
323.15	0.3	0.0173	0.0004
323.15	0.3499	0.0175	0.0004
323.15	0.4002	0.0178	0.0004
323.15	0.45	0.018	0.0004
323.15	0.5002	0.0183	0.0004
323.15	0.55	0.0185	0.0004
323.15	0.5997	0.0188	0.0004
323.15	0.65	0.0192	0.0004
323.15	0.6998	0.0196	0.0004
323.15	0.75	0.0201	0.0004
323.15	0.8001	0.0207	0.0004
323.15	0.8501	0.0213	0.0004
323.15	0.9002	0.0221	0.0004
323.15	0.95	0.0229	0.0004
323.15	1	0.0238	0.0004

System: tetrahydropyran + 2,2,4-trimethylpentane; phases: Liquid
Fixed: Pressure, kPa = 101
Property: Viscosity, Pa*s (Liquid); method: Falling or rolling sphere viscometry
Temperature, K	Mole fraction of tetrahydropyran	Viscosity, Pa*s	uncertainty
293.15	0	0.000503	9e-06
293.15	0.0502	0.000506	9e-06
293.15	0.1	0.000514	9e-06
293.15	0.1499	0.000524	9e-06
293.15	0.2	0.000533	9e-06
293.15	0.25	0.000544	9e-06
293.15	0.3	0.000553	9e-06
293.15	0.35	0.000564	9e-06
293.15	0.4	0.000577	9e-06
293.15	0.4498	0.000592	9e-06
293.15	0.5001	0.000606	9e-06
293.15	0.5501	0.000623	1e-05
293.15	0.5999	0.000638	1e-05
293.15	0.6501	0.000655	1e-05
293.15	0.6999	0.000675	1e-05
293.15	0.75	0.000696	1e-05
293.15	0.8	0.000718	1e-05
293.15	0.8501	0.000743	1e-05
293.15	0.9	0.000771	1e-05
293.15	0.95	0.000803	1.1e-05
293.15	1	0.00086	1.1e-05
303.15	0	0.000447	9e-06
303.15	0.0502	0.000452	9e-06
303.15	0.1	0.000455	9e-06
303.15	0.1499	0.000463	9e-06
303.15	0.2	0.00047	9e-06
303.15	0.25	0.000478	9e-06
303.15	0.2999	0.000488	9e-06
303.15	0.3498	0.000497	9e-06
303.15	0.3998	0.000509	9e-06
303.15	0.4498	0.00052	9e-06
303.15	0.5001	0.000533	9e-06
303.15	0.5501	0.000546	9e-06
303.15	0.5999	0.00056	9e-06
303.15	0.6501	0.000574	9e-06
303.15	0.6999	0.00059	9e-06
303.15	0.75	0.000607	1e-05
303.15	0.8	0.000625	1e-05
303.15	0.8501	0.000646	1e-05
303.15	0.9	0.00067	1e-05
303.15	0.95	0.000699	1e-05
303.15	1	0.000749	1e-05
313.15	0	0.000404	9e-06
313.15	0.0501	0.000407	9e-06
313.15	0.1002	0.000411	9e-06
313.15	0.1501	0.000416	9e-06
313.15	0.1999	0.000422	9e-06
313.15	0.2501	0.000429	9e-06
313.15	0.3	0.000437	9e-06
313.15	0.3499	0.000444	9e-06
313.15	0.4002	0.000453	9e-06
313.15	0.4502	0.000463	9e-06
313.15	0.4999	0.000473	9e-06
313.15	0.5499	0.000484	9e-06
313.15	0.6	0.000496	9e-06
313.15	0.65	0.000509	9e-06
313.15	0.6998	0.000523	9e-06
313.15	0.75	0.000538	9e-06
313.15	0.8001	0.000554	9e-06
313.15	0.8501	0.000573	9e-06
313.15	0.9001	0.000596	1e-05
313.15	0.9498	0.000624	1e-05
313.15	1	0.000658	1e-05
323.15	0	0.000365	9e-06
323.15	0.0501	0.000366	9e-06
323.15	0.1002	0.000369	9e-06
323.15	0.1501	0.000372	9e-06
323.15	0.1999	0.000377	9e-06
323.15	0.2501	0.000383	9e-06
323.15	0.3	0.00039	9e-06
323.15	0.3499	0.000398	9e-06
323.15	0.4002	0.000406	9e-06
323.15	0.45	0.000415	9e-06
323.15	0.5002	0.000424	9e-06
323.15	0.55	0.000433	9e-06
323.15	0.5997	0.000443	9e-06
323.15	0.65	0.000454	9e-06
323.15	0.6998	0.000466	9e-06
323.15	0.75	0.000479	9e-06
323.15	0.8001	0.000493	9e-06
323.15	0.8501	0.000508	9e-06
323.15	0.9002	0.000523	9e-06
323.15	0.95	0.000541	9e-06
323.15	1	0.000565	9e-06

System: tetrahydropyran + 2,2,4-trimethylpentane; phases: Liquid
Fixed: Pressure, kPa = 101
Property: Refractive index (Na D-line) (Liquid); method: Standard Abbe refractometry
Temperature, K	Mole fraction of tetrahydropyran	Refractive index (Na D-line)	uncertainty
293.15	0	1.39161	0.00033
293.15	0.0502	1.39259	0.00033
293.15	0.1	1.39359	0.00033
293.15	0.1499	1.39461	0.00033
293.15	0.2	1.39567	0.00033
293.15	0.25	1.39677	0.00034
293.15	0.3	1.39792	0.00034
293.15	0.35	1.39911	0.00034
293.15	0.4	1.40036	0.00034
293.15	0.4498	1.40167	0.00034
293.15	0.5001	1.40303	0.00035
293.15	0.5501	1.40446	0.00035
293.15	0.5999	1.40595	0.00035
293.15	0.6501	1.40753	0.00035
293.15	0.6999	1.40917	0.00035
293.15	0.75	1.41092	0.00036
293.15	0.8	1.41274	0.00036
293.15	0.8501	1.41468	0.00036
293.15	0.9	1.4167	0.00036
293.15	0.95	1.41885	0.00037
293.15	1	1.42109	0.00037
303.15	0	1.3866	0.00033
303.15	0.0502	1.38756	0.00033
303.15	0.1	1.38853	0.00033
303.15	0.1499	1.38953	0.00033
303.15	0.2	1.39057	0.00033
303.15	0.25	1.39166	0.00034
303.15	0.2999	1.39279	0.00034
303.15	0.3498	1.39399	0.00034
303.15	0.3998	1.39524	0.00034
303.15	0.4498	1.39654	0.00034
303.15	0.5001	1.3979	0.00035
303.15	0.5501	1.39932	0.00035
303.15	0.5999	1.40081	0.00035
303.15	0.6501	1.40239	0.00035
303.15	0.6999	1.40403	0.00035
303.15	0.75	1.40577	0.00036
303.15	0.8	1.4076	0.00036
303.15	0.8501	1.40954	0.00036
303.15	0.9	1.41158	0.00036
303.15	0.95	1.41373	0.00037
303.15	1	1.41599	0.00037
313.15	0	1.38143	0.00033
313.15	0.0501	1.38237	0.00033
313.15	0.1002	1.38334	0.00033
313.15	0.1501	1.38433	0.00033
313.15	0.1999	1.38537	0.00033
313.15	0.2501	1.38645	0.00034
313.15	0.3	1.38759	0.00034
313.15	0.3499	1.38877	0.00034
313.15	0.4002	1.39001	0.00034
313.15	0.4502	1.39131	0.00034
313.15	0.4999	1.39266	0.00035
313.15	0.5499	1.39409	0.00035
313.15	0.6	1.39559	0.00035
313.15	0.65	1.39716	0.00035
313.15	0.6998	1.39881	0.00035
313.15	0.75	1.40055	0.00036
313.15	0.8001	1.40239	0.00036
313.15	0.8501	1.40432	0.00036
313.15	0.9001	1.40638	0.00036
313.15	0.9498	1.40857	0.00037
313.15	1	1.41092	0.00037
323.15	0	1.37627	0.00033
323.15	0.0501	1.37719	0.00033
323.15	0.1002	1.37814	0.00033
323.15	0.1501	1.37913	0.00033
323.15	0.1999	1.38015	0.00033
323.15	0.2501	1.38122	0.00034
323.15	0.3	1.38233	0.00034
323.15	0.3499	1.38349	0.00034
323.15	0.4002	1.38471	0.00034
323.15	0.45	1.38599	0.00034
323.15	0.5002	1.38733	0.00035
323.15	0.55	1.38874	0.00035
323.15	0.5997	1.39022	0.00035
323.15	0.65	1.39179	0.00035
323.15	0.6998	1.39343	0.00035
323.15	0.75	1.39518	0.00036
323.15	0.8001	1.39701	0.00036
323.15	0.8501	1.39895	0.00036
323.15	0.9002	1.40101	0.00037
323.15	0.95	1.40319	0.00037
323.15	1	1.40554	0.00037

System: tetrahydropyran + 2,2,4-trimethylpentane; phases: Liquid
Fixed: Pressure, kPa = 101
Property: Mass density, kg/m3 (Liquid); method: Vibrating tube method
Temperature, K	Mole fraction of tetrahydropyran	Mass density, kg/m3	uncertainty
293.15	0	691.98	0.18
293.15	0.0502	697.82	0.18
293.15	0.1	703.85	0.18
293.15	0.1499	710.17	0.18
293.15	0.2	716.8	0.18
293.15	0.25	723.72	0.18
293.15	0.3	730.98	0.19
293.15	0.35	738.59	0.19
293.15	0.4	746.55	0.19
293.15	0.4498	754.88	0.19
293.15	0.5001	763.72	0.19
293.15	0.5501	772.97	0.2
293.15	0.5999	782.67	0.2
293.15	0.6501	793	0.2
293.15	0.6999	803.82	0.21
293.15	0.75	815.32	0.21
293.15	0.8	827.51	0.22
293.15	0.8501	840.43	0.22
293.15	0.9	854.12	0.23
293.15	0.95	868.68	0.24
293.15	1	884.27	0.23
303.15	0	683.61	0.18
303.15	0.0502	689.38	0.18
303.15	0.1	695.35	0.18
303.15	0.1499	701.6	0.18
303.15	0.2	708.16	0.19
303.15	0.25	715.01	0.19
303.15	0.2999	722.17	0.19
303.15	0.3498	729.67	0.19
303.15	0.3998	737.56	0.19
303.15	0.4498	745.84	0.19
303.15	0.5001	754.6	0.2
303.15	0.5501	763.76	0.2
303.15	0.5999	773.38	0.2
303.15	0.6501	783.61	0.21
303.15	0.6999	794.32	0.21
303.15	0.75	805.72	0.21
303.15	0.8	817.78	0.22
303.15	0.8501	830.59	0.22
303.15	0.9	844.14	0.23
303.15	0.95	858.58	0.24
303.15	1	874.07	0.23
313.15	0	675.23	0.18
313.15	0.0501	680.92	0.19
313.15	0.1002	686.85	0.19
313.15	0.1501	693.02	0.19
313.15	0.1999	699.48	0.19
313.15	0.2501	706.27	0.19
313.15	0.3	713.35	0.19
313.15	0.3499	720.78	0.19
313.15	0.4002	728.64	0.19
313.15	0.4502	736.83	0.2
313.15	0.4999	745.4	0.2
313.15	0.5499	754.47	0.2
313.15	0.6	764.05	0.2
313.15	0.65	774.13	0.21
313.15	0.6998	784.75	0.21
313.15	0.75	796.05	0.22
313.15	0.8001	808	0.22
313.15	0.8501	820.66	0.22
313.15	0.9001	834.12	0.23
313.15	0.9498	848.37	0.24
313.15	1	863.76	0.24
323.15	0	666.8	0.19
323.15	0.0501	672.44	0.19
323.15	0.1002	678.3	0.19
323.15	0.1501	684.41	0.19
323.15	0.1999	690.79	0.19
323.15	0.2501	697.5	0.19
323.15	0.3	704.51	0.19
323.15	0.3499	711.86	0.19
323.15	0.4002	719.63	0.2
323.15	0.45	727.72	0.2
323.15	0.5002	736.27	0.2
323.15	0.55	745.22	0.2
323.15	0.5997	754.63	0.21
323.15	0.65	764.68	0.21
323.15	0.6998	775.17	0.21
323.15	0.75	786.37	0.22
323.15	0.8001	798.2	0.22
323.15	0.8501	810.77	0.23
323.15	0.9002	824.1	0.23
323.15	0.95	838.27	0.24
323.15	1	853.46	0.24

System: propan-2-ol + tetrahydropyran + 2,2,4-trimethylpentane; phases: Liquid, Air at 1 atmosphere
Fixed: Temperature, K = 303.15
Property: Surface tension liquid-gas, N/m (Liquid); method: Wilhelmy-plate method
Mole fraction of propan-2-ol	Mole fraction of tetrahydropyran	Surface tension liquid-gas, N/m	uncertainty
0.0499	0.5001	0.0201	0.0004
0.05	0.2999	0.019	0.0004
0.05	0.8001	0.0231	0.0004
0.05	0.8999	0.0248	0.0004
0.0501	0.0504	0.018	0.0004
0.0501	0.4001	0.0195	0.0004
0.0501	0.5999	0.0209	0.0004
0.0501	0.6998	0.0218	0.0004
0.0502	0.0998	0.0181	0.0004
0.0503	0.1998	0.0186	0.0004
0.0998	0.2502	0.0188	0.0004
0.0999	0.15	0.0183	0.0004
0.0999	0.8499	0.0245	0.0004
0.1	0.3502	0.0194	0.0004
0.1001	0.7501	0.0229	0.0004
0.1002	0.05	0.0179	0.0004
0.1002	0.4499	0.02	0.0004
0.1002	0.6499	0.0216	0.0004
0.1003	0.55	0.0207	0.0004
0.1998	0.5503	0.0214	0.0004
0.1999	0.4503	0.0205	0.0004
0.2	0.2501	0.0191	0.0004
0.2	0.3499	0.0197	0.0004
0.2001	0.0501	0.0181	0.0004
0.2002	0.7498	0.0241	0.0004
0.2006	0.15	0.0185	0.0004
0.2009	0.6497	0.0226	0.0004
0.2998	0.2501	0.0193	0.0004
0.2999	0.1502	0.0187	0.0004
0.2999	0.45	0.021	0.0004
0.3	0.5501	0.0221	0.0004
0.3	0.6499	0.0235	0.0004
0.3001	0.0502	0.0182	0.0004
0.3002	0.3498	0.0201	0.0004
0.3996	0.5503	0.023	0.0004
0.3998	0.0502	0.0183	0.0004
0.3998	0.15	0.0189	0.0004
0.3998	0.4503	0.0216	0.0004
0.3999	0.25	0.0196	0.0004
0.3999	0.35	0.0205	0.0004
0.4994	0.0503	0.0184	0.0004
0.5	0.1499	0.0191	0.0004
0.5	0.2497	0.02	0.0004
0.5	0.4499	0.0224	0.0004
0.5001	0.35	0.0211	0.0004
0.5998	0.15	0.0195	0.0004
0.5999	0.3499	0.0219	0.0004
0.6	0.0503	0.0187	0.0004
0.6012	0.2506	0.0206	0.0004
0.6997	0.0502	0.019	0.0004
0.6997	0.2498	0.0213	0.0004
0.7	0.1503	0.0201	0.0004
0.7997	0.0503	0.0195	0.0004
0.8001	0.1499	0.0207	0.0004
0.8998	0.05	0.0201	0.0004

System: propan-2-ol + tetrahydropyran + 2,2,4-trimethylpentane; phases: Liquid
Fixed: Temperature, K = 303.15
Fixed: Pressure, kPa = 101
Property: Viscosity, Pa*s (Liquid); method: Falling or rolling sphere viscometry
Mole fraction of propan-2-ol	Mole fraction of tetrahydropyran	Viscosity, Pa*s	uncertainty
0.0499	0.5001	0.00055	9e-06
0.05	0.2999	0.0005	9e-06
0.05	0.8001	0.00066	1e-05
0.05	0.8999	0.000705	1e-05
0.0501	0.0504	0.00046	9e-06
0.0501	0.4001	0.000523	9e-06
0.0501	0.5999	0.00058	9e-06
0.0501	0.6998	0.000621	1e-05
0.0502	0.0998	0.000466	9e-06
0.0503	0.1998	0.000483	9e-06
0.0998	0.2502	0.000505	9e-06
0.0999	0.15	0.000488	9e-06
0.0999	0.8499	0.000693	1e-05
0.1	0.3502	0.000528	9e-06
0.1001	0.7501	0.000654	1e-05
0.1002	0.05	0.000465	9e-06
0.1002	0.4499	0.000553	9e-06
0.1002	0.6499	0.000612	1e-05
0.1003	0.55	0.000582	9e-06
0.1998	0.5503	0.000616	9e-06
0.1999	0.4503	0.000579	9e-06
0.2	0.2501	0.000526	9e-06
0.2	0.3499	0.000548	9e-06
0.2001	0.0501	0.000483	9e-06
0.2002	0.7498	0.000699	1e-05
0.2006	0.15	0.000502	9e-06
0.2009	0.6497	0.000661	1e-05
0.2998	0.2501	0.000554	9e-06
0.2999	0.1502	0.00053	9e-06
0.2999	0.45	0.000617	9e-06
0.3	0.5501	0.000664	1e-05
0.3	0.6499	0.000699	1e-05
0.3001	0.0502	0.000505	9e-06
0.3002	0.3498	0.000585	9e-06
0.3996	0.5503	0.000733	1e-05
0.3998	0.0502	0.000548	9e-06
0.3998	0.15	0.000574	9e-06
0.3998	0.4503	0.00068	1e-05
0.3999	0.25	0.000604	9e-06
0.3999	0.35	0.00064	1e-05
0.4994	0.0503	0.000609	9e-06
0.5	0.1499	0.000642	9e-06
0.5	0.2497	0.000678	1e-05
0.5	0.4499	0.000773	1e-05
0.5001	0.35	0.000718	1e-05
0.5998	0.15	0.000751	1e-05
0.5999	0.3499	0.000832	1e-05
0.6	0.0503	0.000707	1e-05
0.6012	0.2506	0.00078	1e-05
0.6997	0.0502	0.000827	1e-05
0.6997	0.2498	0.000929	1.1e-05
0.7	0.1503	0.000875	1.1e-05
0.7997	0.0503	0.001017	1.1e-05
0.8001	0.1499	0.001072	1.2e-05
0.8998	0.05	0.001313	1.3e-05

System: propan-2-ol + tetrahydropyran + 2,2,4-trimethylpentane; phases: Liquid
Fixed: Temperature, K = 303.15
Fixed: Pressure, kPa = 101
Property: Refractive index (Na D-line) (Liquid); method: Standard Abbe refractometry
Mole fraction of propan-2-ol	Mole fraction of tetrahydropyran	Refractive index (Na D-line)	uncertainty
0.0499	0.5001	1.39756	0.00035
0.05	0.2999	1.39228	0.00034
0.05	0.8001	1.40764	0.00036
0.05	0.8999	1.41175	0.00037
0.0501	0.0504	1.38686	0.00033
0.0501	0.4001	1.3948	0.00034
0.0501	0.5999	1.40058	0.00035
0.0501	0.6998	1.40391	0.00036
0.0502	0.0998	1.38786	0.00033
0.0503	0.1998	1.38998	0.00033
0.0998	0.2502	1.39063	0.00034
0.0999	0.15	1.38836	0.00033
0.0999	0.8499	1.40984	0.00036
0.1	0.3502	1.39311	0.00034
0.1001	0.7501	1.40577	0.00036
0.1002	0.05	1.38625	0.00033
0.1002	0.4499	1.39581	0.00034
0.1002	0.6499	1.40208	0.00035
0.1003	0.55	1.3988	0.00035
0.1998	0.5503	1.39841	0.00035
0.1999	0.4503	1.39528	0.00034
0.2	0.2501	1.38974	0.00034
0.2	0.3499	1.39235	0.00034
0.2001	0.0501	1.38511	0.00033
0.2002	0.7498	1.40593	0.00036
0.2006	0.15	1.38733	0.00033
0.2009	0.6497	1.40197	0.00035
0.2998	0.2501	1.38899	0.00034
0.2999	0.1502	1.38644	0.00033
0.2999	0.45	1.39487	0.00034
0.3	0.5501	1.39824	0.00035
0.3	0.6499	1.40204	0.00035
0.3001	0.0502	1.38408	0.00033
0.3002	0.3498	1.39177	0.00034
0.3996	0.5503	1.39813	0.00035
0.3998	0.0502	1.38303	0.00033
0.3998	0.15	1.38555	0.00033
0.3998	0.4503	1.39449	0.00034
0.3999	0.25	1.38824	0.00034
0.3999	0.35	1.39117	0.00034
0.4994	0.0503	1.38183	0.00033
0.5	0.1499	1.38444	0.00033
0.5	0.2497	1.38729	0.00034
0.5	0.4499	1.39405	0.00034
0.5001	0.35	1.39047	0.00034
0.5998	0.15	1.38342	0.00033
0.5999	0.3499	1.38988	0.00034
0.6	0.0503	1.38067	0.00033
0.6012	0.2506	1.38644	0.00034
0.6997	0.0502	1.37939	0.00033
0.6997	0.2498	1.38558	0.00034
0.7	0.1503	1.38235	0.00033
0.7997	0.0503	1.37802	0.00033
0.8001	0.1499	1.3811	0.00033
0.8998	0.05	1.37645	0.00033

System: propan-2-ol + tetrahydropyran + 2,2,4-trimethylpentane; phases: Liquid
Fixed: Pressure, kPa = 101
Fixed: Temperature, K = 303.15
Property: Mass density, kg/m3 (Liquid); method: Vibrating tube method
Mole fraction of propan-2-ol	Mole fraction of tetrahydropyran	Mass density, kg/m3	uncertainty
0.0499	0.5001	759.28	0.2
0.05	0.2999	725.27	0.19
0.05	0.8001	826.11	0.22
0.05	0.8999	854.16	0.23
0.0501	0.0504	690.99	0.18
0.0501	0.4001	741.42	0.19
0.0501	0.5999	779.06	0.2
0.0501	0.6998	801.17	0.21
0.0502	0.0998	697.15	0.18
0.0503	0.1998	710.62	0.19
0.0998	0.2502	721.02	0.19
0.0999	0.15	706.39	0.18
0.0999	0.8499	849.67	0.23
0.1	0.3502	737.14	0.19
0.1001	0.7501	821.61	0.22
0.1002	0.05	693.03	0.18
0.1002	0.4499	754.88	0.19
0.1002	0.6499	796.74	0.21
0.1003	0.55	774.67	0.2
0.1998	0.5503	787.91	0.2
0.1999	0.4503	765.88	0.19
0.2	0.2501	728.42	0.19
0.2	0.3499	746.08	0.19
0.2001	0.0501	697.86	0.18
0.2002	0.7498	840.84	0.22
0.2006	0.15	712.43	0.18
0.2009	0.6497	812.63	0.21
0.2998	0.2501	737.2	0.18
0.2999	0.1502	719.6	0.18
0.2999	0.45	778.83	0.19
0.3	0.5501	803.74	0.2
0.3	0.6499	831.9	0.21
0.3001	0.0502	703.66	0.18
0.3002	0.3498	756.82	0.19
0.3996	0.5503	822.78	0.2
0.3998	0.0502	710.53	0.18
0.3998	0.15	728.09	0.18
0.3998	0.4503	794.52	0.19
0.3999	0.25	747.68	0.18
0.3999	0.35	769.62	0.19
0.4994	0.0503	718.77	0.18
0.5	0.1499	738.28	0.18
0.5	0.2497	760.13	0.18
0.5	0.4499	813.44	0.19
0.5001	0.35	784.97	0.19
0.5998	0.15	750.41	0.18
0.5999	0.3499	803.69	0.18
0.6	0.0503	728.61	0.18
0.6012	0.2506	775.58	0.18
0.6997	0.0502	740.26	0.17
0.6997	0.2498	793.57	0.18
0.7	0.1503	765.21	0.18
0.7997	0.0503	754.59	0.17
0.8001	0.1499	783.08	0.17
0.8998	0.05	772.1	0.17
