Measured thermophysical data. Phase equilibrium measurements and thermodynamic modelling for the systems involving valeric acid, ethanol, ethyl valerate and water plus CO2
Source: J. Chem. Thermodyn., 2017, 10.1016/j.jct.2017.05.011
Compound 1: ethanol, C2H6O, InChI=1S/C2H6O/c1-2-3/h3H,2H2,1H3, purity 99.8%
Compound 2: ethyl pentanoate, C7H14O2, InChI=1S/C7H14O2/c1-3-5-6-7(8)9-4-2/h3-6H2,1-2H3, purity 99%
Compound 3: pentanoic acid, C5H10O2, InChI=1S/C5H10O2/c1-2-3-4-5(6)7/h2-4H2,1H3,(H,6,7), purity 99%
Compound 4: carbon dioxide, CO2, InChI=1S/CO2/c2-1-3, purity 99.9%

System: carbon dioxide + ethyl pentanoate; phases: Liquid, Gas
Property: Vapor or sublimation pressure, kPa (Liquid); method: Closed cell (Static) method
Temperature, K	Mole fraction of carbon dioxide	Vapor or sublimation pressure, kPa	uncertainty
303.15	0.3801	2510	310
303.15	0.5634	3640	310
303.15	0.7506	5150	320
303.15	0.792	5320	320
303.15	0.8345	5510	330
303.15	0.8416	5560	330
303.15	0.8526	5640	330
303.15	0.9176	6180	340
303.15	0.9517	6320	330
303.15	0.9811	6670	360
313.15	0.3801	2810	310
313.15	0.5634	4250	320
313.15	0.7506	6040	330
313.15	0.792	6480	330
313.15	0.8345	6700	330
313.15	0.8416	6710	330
313.15	0.8526	6840	360
313.15	0.9176	7550	340
313.15	0.9517	7640	350
313.15	0.9811	8220	380
323.15	0.3801	3190	320
323.15	0.5634	4970	330
323.15	0.7506	7220	330
323.15	0.792	7560	340
323.15	0.8345	8030	340
323.15	0.8416	8040	340
323.15	0.8526	8130	340
323.15	0.9176	9000	350
323.15	0.9517	9080	330
333.15	0.3801	3640	320
333.15	0.5634	5610	330
333.15	0.7506	8300	340
333.15	0.792	8730	340
333.15	0.8345	9260	350
333.15	0.8416	9400	340
333.15	0.8526	9470	340
333.15	0.9176	10310	340
333.15	0.9517	10390	330
343.15	0.3801	4010	330
343.15	0.5634	6320	340
343.15	0.7506	9400	340
343.15	0.792	9880	350
343.15	0.8345	10580	360
343.15	0.8416	10690	350
343.15	0.8526	10800	330
343.15	0.9176	11610	340
353.15	0.3801	4460	330
353.15	0.5634	7010	360
353.15	0.7506	10480	360
353.15	0.792	11140	360
353.15	0.8345	11770	350
353.15	0.8416	11950	330
353.15	0.8526	11960	320
353.15	0.9176	12680	340

System: carbon dioxide + ethyl pentanoate; phases: Gas, Liquid
Property: Vapor or sublimation pressure, kPa (Gas); method: Closed cell (Static) method
Temperature, K	Mole fraction of carbon dioxide	Vapor or sublimation pressure, kPa	uncertainty
323.15	0.9811	9340	320
333.15	0.9811	10440	320
343.15	0.9517	11630	320
353.15	0.9517	12540	320

System: pentanoic acid + carbon dioxide; phases: Liquid, Gas
Property: Vapor or sublimation pressure, kPa (Liquid); method: Closed cell (Static) method
Temperature, K	Mole fraction of carbon dioxide	Vapor or sublimation pressure, kPa	uncertainty
303.15	0.478	4490	320
303.15	0.6013	5310	330
303.15	0.7399	6160	330
303.15	0.8001	6300	330
303.15	0.8052	6330	340
303.15	0.8937	6480	350
303.15	0.9412	6790	340
313.15	0.478	5450	330
313.15	0.6013	6550	330
313.15	0.7399	7320	330
313.15	0.8001	7750	340
313.15	0.8052	7860	340
313.15	0.8937	8260	350
313.15	0.9412	8320	340
323.15	0.478	6290	330
323.15	0.6013	7640	340
323.15	0.7399	8780	350
323.15	0.8001	9430	350
323.15	0.8052	9490	350
323.15	0.8937	10020	360
323.15	0.9412	10060	350
333.15	0.478	7220	340
333.15	0.6013	8880	340
333.15	0.7399	10280	350
333.15	0.8001	11010	360
333.15	0.8052	11210	360
333.15	0.8937	11920	350
333.15	0.9412	11780	350
343.15	0.478	8260	350
343.15	0.6013	10060	350
343.15	0.7399	11830	360
343.15	0.8001	12670	370
343.15	0.8052	12780	360
343.15	0.8937	13550	360
353.15	0.478	9280	360
353.15	0.6013	11280	360
353.15	0.7399	13400	380
353.15	0.8001	14510	360
353.15	0.8052	14410	360
353.15	0.8937	15230	360

System: pentanoic acid + carbon dioxide; phases: Gas, Liquid
Fixed: Mole fraction of carbon dioxide = 0.9412
Property: Vapor or sublimation pressure, kPa (Gas); method: Closed cell (Static) method
Temperature, K	Vapor or sublimation pressure, kPa	uncertainty
343.15	13420	340
353.15	14900	340

System: ethanol + carbon dioxide + ethyl pentanoate; phases: Liquid, Gas
Property: Vapor or sublimation pressure, kPa (Liquid); method: Closed cell (Static) method
Temperature, K	Mole fraction of carbon dioxide	Mole fraction of ethyl pentanoate	Vapor or sublimation pressure, kPa	uncertainty
303.15	0.5907	0.2048	4810	310
303.15	0.6703	0.165	5130	320
303.15	0.8093	0.0954	5430	330
303.15	0.9023	0.0489	6020	350
303.15	0.9373	0.0314	6350	350
313.15	0.5907	0.2048	5350	320
313.15	0.6703	0.165	6070	330
313.15	0.8093	0.0954	6580	340
313.15	0.9023	0.0489	7480	360
313.15	0.9373	0.0314	7930	350
323.15	0.5907	0.2048	6460	330
323.15	0.6703	0.165	7140	330
323.15	0.8093	0.0954	8010	340
323.15	0.9023	0.0489	8750	360
323.15	0.9373	0.0314	9210	330
333.15	0.5907	0.2048	7300	330
333.15	0.6703	0.165	8140	330
333.15	0.8093	0.0954	9290	330
333.15	0.9023	0.0489	9840	330
333.15	0.9373	0.0314	10050	320
343.15	0.5907	0.2048	8210	340
343.15	0.6703	0.165	9160	340
343.15	0.8093	0.0954	10460	340
343.15	0.9023	0.0489	11340	350
353.15	0.5907	0.2048	9080	340
353.15	0.6703	0.165	10170	350
353.15	0.8093	0.0954	11650	340

System: ethanol + carbon dioxide + ethyl pentanoate; phases: Gas, Liquid
Property: Vapor or sublimation pressure, kPa (Gas); method: Closed cell (Static) method
Temperature, K	Mole fraction of carbon dioxide	Mole fraction of ethanol	Vapor or sublimation pressure, kPa	uncertainty
343.15	0.9373	0.0314	11150	630
353.15	0.9023	0.0489	12290	680
353.15	0.9373	0.0314	12270	680

System: ethanol + pentanoic acid + carbon dioxide; phases: Liquid, Gas
Property: Vapor or sublimation pressure, kPa (Liquid); method: Closed cell (Static) method
Temperature, K	Mole fraction of carbon dioxide	Mole fraction of ethanol	Vapor or sublimation pressure, kPa	uncertainty
303.15	0.5649	0.3264	5680	320
303.15	0.6907	0.2319	6040	330
303.15	0.7743	0.1693	6460	340
303.15	0.9193	0.0605	6750	330
313.15	0.5649	0.3264	6860	330
313.15	0.6907	0.2319	7370	340
313.15	0.7743	0.1693	7960	340
313.15	0.9193	0.0605	8080	330
323.15	0.5649	0.3264	8010	330
323.15	0.6907	0.2319	8660	340
323.15	0.7743	0.1693	9460	350
323.15	0.9193	0.0605	9470	330
333.15	0.5649	0.3264	9270	330
333.15	0.6907	0.2319	9980	350
333.15	0.7743	0.1693	10940	350
343.15	0.5649	0.3264	10620	340
343.15	0.6907	0.2319	11570	350
343.15	0.7743	0.1693	12410	350
353.15	0.5649	0.3264	11770	340
353.15	0.6907	0.2319	12970	340
353.15	0.7743	0.1693	13710	340

System: ethanol + pentanoic acid + carbon dioxide; phases: Gas, Liquid
Fixed: Mole fraction of carbon dioxide = 0.9193
Fixed: Mole fraction of ethanol = 0.0605
Property: Vapor or sublimation pressure, kPa (Gas); method: Closed cell (Static) method
Temperature, K	Vapor or sublimation pressure, kPa	uncertainty
333.15	11060	630
343.15	12540	330
353.15	13770	750

System: ethanol + carbon dioxide; phases: Liquid, Gas
Property: Vapor or sublimation pressure, kPa (Liquid); method: Closed cell (Static) method
Temperature, K	Mole fraction of carbon dioxide	Vapor or sublimation pressure, kPa	uncertainty
303.2	0.4923	5570	320
303.2	0.5987	6020	330
303.2	0.7069	6260	330
303.2	0.8198	6380	330
303.2	0.9121	6580	330
313.2	0.4923	6530	330
313.2	0.5987	7340	330
313.2	0.7069	7560	330
313.2	0.8198	7670	330
313.2	0.9121	7920	330
323.2	0.4923	7720	330
323.2	0.5987	8580	320
323.2	0.7069	8950	330
323.2	0.8198	9120	330
323.2	0.9121	9200	300
