Measured thermophysical data. Densities, molar volumes, and isobaric expansivities of (D-xylose + hydrochloric acid + water) systems
Source: J. Chem. Thermodyn., 2006, 10.1016/j.jct.2005.03.023
Compound 1: D-xylose, C5H10O5, InChI=1S/C5H10O5/c6-1-3(8)5(10)4(9)2-7/h1,3-5,7-10H,2H2/t3-,4+,5+/m0/s1
Compound 2: hydrogen chloride, ClH, InChI=1S/ClH/h1H
Compound 3: water, H2O, InChI=1S/H2O/h1H2

System: D-xylose + water; phases: Liquid
Fixed: Pressure, kPa = 101.3
Property: Mass density, kg/m3 (Liquid); method: VIBTUB:UFactor:8
Temperature, K	Molality, mol/kg of D-xylose	Mass density, kg/m3	uncertainty
278.15	0.25	1013.813	0.386
278.15	0.4	1021.776	0.419
278.15	0.55	1029.494	0.451
278.15	0.7	1036.967	0.482
278.15	0.85	1044.241	0.512
278.15	1	1051.265	0.542
288.15	0.25	1012.762	0.382
288.15	0.4	1020.469	0.414
288.15	0.55	1028.018	0.445
288.15	0.7	1035.369	0.476
288.15	0.85	1042.457	0.505
288.15	1	1049.354	0.534
298.15	0.25	1010.389	0.373
298.15	0.4	1018.06	0.404
298.15	0.55	1025.491	0.435
298.15	0.7	1032.718	0.465
298.15	0.85	1039.742	0.495
298.15	1	1046.516	0.523
308.15	0.25	1007.147	0.36
308.15	0.4	1014.773	0.391
308.15	0.55	1022.117	0.422
308.15	0.7	1029.244	0.452
308.15	0.85	1036.179	0.481
308.15	1	1042.867	0.509
318.15	0.25	1003.29	0.344
318.15	0.4	1010.789	0.376
318.15	0.55	1018.053	0.406
318.15	0.7	1025.134	0.436
318.15	0.85	1031.947	0.464
318.15	1	1038.632	0.492

System: D-xylose + hydrogen chloride + water; phases: Liquid
Fixed: Pressure, kPa = 101.3
Property: Mass density, kg/m3 (Liquid); method: VIBTUB:UFactor:8
Molality, mol/kg of hydrogen chloride	Temperature, K	Molality, mol/kg of D-xylose	Mass density, kg/m3	uncertainty
0	278.15	0.25	1013.813	0.386
0	278.15	0.4	1021.776	0.419
0	278.15	0.55	1029.494	0.451
0	278.15	0.7	1036.967	0.482
0	278.15	0.85	1044.241	0.512
0	278.15	1	1051.265	0.542
0	288.15	0.25	1012.762	0.382
0	288.15	0.4	1020.469	0.414
0	288.15	0.55	1028.018	0.445
0	288.15	0.7	1035.369	0.476
0	288.15	0.85	1042.457	0.505
0	288.15	1	1049.354	0.534
0	298.15	0.25	1010.389	0.373
0	298.15	0.4	1018.06	0.404
0	298.15	0.55	1025.491	0.435
0	298.15	0.7	1032.718	0.465
0	298.15	0.85	1039.742	0.495
0	298.15	1	1046.516	0.523
0	308.15	0.25	1007.147	0.36
0	308.15	0.4	1014.773	0.391
0	308.15	0.55	1022.117	0.422
0	308.15	0.7	1029.244	0.452
0	308.15	0.85	1036.179	0.481
0	308.15	1	1042.867	0.509
0	318.15	0.25	1003.29	0.344
0	318.15	0.4	1010.789	0.376
0	318.15	0.55	1018.053	0.406
0	318.15	0.7	1025.134	0.436
0	318.15	0.85	1031.947	0.464
0	318.15	1	1038.632	0.492
0.2	278.15	0.2482	1017.456	0.404
0.2	278.15	0.3971	1025.304	0.436
0.2	278.15	0.546	1032.941	0.468
0.2	278.15	0.695	1040.348	0.499
0.2	278.15	0.8439	1047.521	0.529
0.2	278.15	0.9927	1054.535	0.558
0.2	288.15	0.2482	1016.233	0.399
0.2	288.15	0.3971	1023.898	0.431
0.2	288.15	0.546	1031.391	0.462
0.2	288.15	0.695	1038.66	0.492
0.2	288.15	0.8439	1045.689	0.522
0.2	288.15	0.9927	1052.548	0.55
0.2	298.15	0.2482	1013.847	0.389
0.2	298.15	0.3971	1021.427	0.421
0.2	298.15	0.546	1028.789	0.452
0.2	298.15	0.695	1035.932	0.481
0.2	298.15	0.8439	1042.894	0.511
0.2	298.15	0.9927	1049.627	0.539
0.2	308.15	0.2482	1010.634	0.377
0.2	308.15	0.3971	1018.139	0.408
0.2	308.15	0.546	1025.41	0.438
0.2	308.15	0.695	1032.453	0.468
0.2	308.15	0.8439	1039.33	0.497
0.2	308.15	0.9927	1045.965	0.524
0.2	318.15	0.2482	1006.737	0.362
0.2	318.15	0.3971	1014.16	0.393
0.2	318.15	0.546	1021.34	0.423
0.2	318.15	0.695	1028.379	0.452
0.2	318.15	0.8439	1035.113	0.48
0.2	318.15	0.9927	1041.741	0.508
0.4	278.15	0.2464	1020.99	0.421
0.4	278.15	0.3943	1028.781	0.454
0.4	278.15	0.5421	1036.331	0.485
0.4	278.15	0.6899	1043.612	0.515
0.4	278.15	0.8378	1050.771	0.545
0.4	278.15	0.9857	1057.666	0.574
0.4	288.15	0.2464	1019.646	0.416
0.4	288.15	0.3943	1027.253	0.448
0.4	288.15	0.5421	1034.667	0.479
0.4	288.15	0.6899	1041.857	0.509
0.4	288.15	0.8378	1048.795	0.538
0.4	288.15	0.9857	1055.542	0.566
0.4	298.15	0.2464	1017.186	0.406
0.4	298.15	0.3943	1024.67	0.438
0.4	298.15	0.5421	1031.989	0.468
0.4	298.15	0.6899	1039.002	0.497
0.4	298.15	0.8378	1045.94	0.526
0.4	298.15	0.9857	1052.578	0.554
0.4	308.15	0.2464	1013.925	0.394
0.4	308.15	0.3943	1021.344	0.425
0.4	308.15	0.5421	1028.52	0.455
0.4	308.15	0.6899	1035.482	0.484
0.4	308.15	0.8378	1042.313	0.512
0.4	308.15	0.9857	1048.899	0.54
0.4	318.15	0.2464	1009.993	0.378
0.4	318.15	0.3943	1017.351	0.409
0.4	318.15	0.5421	1024.456	0.439
0.4	318.15	0.6899	1031.358	0.468
0.4	318.15	0.8378	1038.091	0.496
0.4	318.15	0.9857	1044.602	0.523
0.7	278.15	0.2438	1026.241	0.448
0.7	278.15	0.39	1033.859	0.481
0.7	278.15	0.5363	1042.916	3
0.7	278.15	0.6826	1048.451	0.54
0.7	278.15	0.8288	1055.44	0.57
0.7	278.15	0.9751	1062.195	0.598
0.7	288.15	0.2438	1024.692	0.442
0.7	288.15	0.39	1032.175	0.473
0.7	288.15	0.5363	1039.436	0.504
0.7	288.15	0.6826	1046.45	0.533
0.7	288.15	0.8288	1053.285	0.561
0.7	288.15	0.9751	1059.942	0.589
0.7	298.15	0.2438	1022.159	0.433
0.7	298.15	0.39	1029.513	0.463
0.7	298.15	0.5363	1036.673	0.493
0.7	298.15	0.6826	1043.621	0.522
0.7	298.15	0.8288	1050.345	0.55
0.7	298.15	0.9751	1056.929	0.578
0.7	308.15	0.2438	1018.791	0.42
0.7	308.15	0.39	1026.072	0.45
0.7	308.15	0.5363	1033.13	0.479
0.7	308.15	0.6826	1040.037	0.508
0.7	308.15	0.8288	1046.703	0.536
0.7	308.15	0.9751	1053.184	0.563
0.7	318.15	0.2438	1014.887	0.404
0.7	318.15	0.39	1022.123	0.435
0.7	318.15	0.5363	1029.104	0.464
0.7	318.15	0.6826	1035.943	0.492
0.7	318.15	0.8288	1042.582	0.52
0.7	318.15	0.9751	1049.005	0.547
1.1	278.15	0.2404	1032.975	0.485
1.1	278.15	0.3846	1040.424	0.515
1.1	278.15	0.5288	1047.653	0.545
1.1	278.15	0.6716	1054.637	0.574
1.1	278.15	0.8173	1061.462	0.603
1.1	278.15	0.9614	1068.102	0.63
1.1	288.15	0.2404	1031.138	0.477
1.1	288.15	0.3846	1038.454	0.508
1.1	288.15	0.5288	1045.565	0.537
1.1	288.15	0.6716	1052.348	0.565
1.1	288.15	0.8173	1059.121	0.594
1.1	288.15	0.9614	1065.62	0.621
1.1	298.15	0.2404	1028.468	0.467
1.1	298.15	0.3846	1035.679	0.497
1.1	298.15	0.5288	1042.669	0.526
1.1	298.15	0.6716	1049.406	0.554
1.1	298.15	0.8173	1056.027	0.582
1.1	298.15	0.9614	1062.435	0.608
1.1	308.15	0.2404	1025.019	0.454
1.1	308.15	0.3846	1032.164	0.484
1.1	308.15	0.5288	1039.082	0.512
1.1	308.15	0.6716	1045.757	0.54
1.1	308.15	0.8173	1052.343	0.567
1.1	308.15	0.9614	1058.634	0.594
1.1	318.15	0.2404	1021.907	0.442
1.1	318.15	0.3846	1028.174	0.468
1.1	318.15	0.5288	1035.037	0.497
1.1	318.15	0.6716	1041.651	0.524
1.1	318.15	0.8173	1048.142	0.551
1.1	318.15	0.9614	1054.491	0.578
1.6	278.15	0.2362	1041.164	0.53
1.6	278.15	0.378	1048.417	0.56
1.6	278.15	0.5197	1055.412	0.589
1.6	278.15	0.6614	1062.208	0.617
1.6	278.15	0.8031	1068.843	0.644
1.6	278.15	0.9449	1075.268	0.67
1.6	288.15	0.2362	1039.063	0.522
1.6	288.15	0.378	1046.162	0.551
1.6	288.15	0.5197	1053.088	0.58
1.6	288.15	0.6614	1059.772	0.607
1.6	288.15	0.8031	1066.304	0.634
1.6	288.15	0.9449	1072.587	0.66
1.6	298.15	0.2362	1036.144	0.511
1.6	298.15	0.378	1043.141	0.54
1.6	298.15	0.5197	1049.932	0.568
1.6	298.15	0.6614	1056.528	0.595
1.6	298.15	0.8031	1062.976	0.622
1.6	298.15	0.9449	1069.245	0.647
1.6	308.15	0.2362	1032.638	0.498
1.6	308.15	0.378	1039.563	0.526
1.6	308.15	0.5197	1046.292	0.554
1.6	308.15	0.6614	1052.803	0.581
1.6	308.15	0.8031	1059.221	0.607
1.6	308.15	0.9449	1065.398	0.633
1.6	318.15	0.2362	1028.68	0.483
1.6	318.15	0.378	1035.573	0.512
1.6	318.15	0.5197	1042.209	0.539
1.6	318.15	0.6614	1048.726	0.565
1.6	318.15	0.8031	1055.002	0.591
1.6	318.15	0.9449	1061.143	0.617
2.1087	278.15	0.2321	1049.165	0.577
2.1087	278.15	0.3714	1056.181	0.605
2.1087	278.15	0.5107	1063.002	0.633
2.1087	278.15	0.6501	1069.654	0.66
2.1087	278.15	0.7893	1076.108	0.686
2.1087	278.15	0.9286	1082.268	0.711
2.1087	288.15	0.2321	1046.725	0.568
2.1087	288.15	0.3714	1053.65	0.596
2.1087	288.15	0.5107	1060.338	0.623
2.1087	288.15	0.6501	1066.88	0.649
2.1087	288.15	0.7893	1073.268	0.675
2.1087	288.15	0.9286	1079.383	0.7
2.1087	298.15	0.2321	1043.697	0.556
2.1087	298.15	0.3714	1050.527	0.584
2.1087	298.15	0.5107	1057.139	0.611
2.1087	298.15	0.6501	1063.567	0.637
2.1087	298.15	0.7893	1069.832	0.662
2.1087	298.15	0.9286	1075.918	0.687
2.1087	308.15	0.2321	1040.054	0.543
2.1087	308.15	0.3714	1046.795	0.57
2.1087	308.15	0.5107	1053.345	0.596
2.1087	308.15	0.6501	1059.733	0.622
2.1087	308.15	0.7893	1065.885	0.647
2.1087	308.15	0.9286	1071.965	0.672
2.1087	318.15	0.2321	1036.041	0.528
2.1087	318.15	0.3714	1042.707	0.555
2.1087	318.15	0.5107	1049.193	0.581
2.1087	318.15	0.6501	1055.537	0.607
2.1087	318.15	0.7893	1061.597	0.631
2.1087	318.15	0.9286	1067.62	0.656
