Measured thermophysical data. Solubility of carbon dioxide in 1-ethyl-3-methylimidazolium 2-(2-methoxyethoxy) ethylsulfate
Source: J. Chem. Thermodyn., 2008, 10.1016/j.jct.2008.07.003
Compound 1: 1-ethyl-3-methylimidazolium 2-(2-methoxyethoxy) ethylsulfate, C11H22N2O6S, InChI=1S/C6H11N2.C5H12O6S/c1-3-8-5-4-7(2)6-8;1-9-2-3-10-4-5-11-12(6,7)8/h4-6H,3H2,1-2H3;2-5H2,1H3,(H,6,7,8)/q+1;/p-1, purity 98.2%
Compound 2: carbon dioxide, CO2, InChI=1S/CO2/c2-1-3, purity 99.9%

System: carbon dioxide + 1-ethyl-3-methylimidazolium 2-(2-methoxyethoxy) ethylsulfate; phases: Liquid, Gas
Property: Molality, mol/kg (Liquid); method: thermogravimetric mircobalance
Temperature, K	Pressure, kPa	Molality, mol/kg	uncertainty
303.2	854	0.385	0.0029
303.2	1472	0.6654	0.0045
303.2	2867	1.3239	0.0123
303.2	4230	2.0404	0.0185
303.2	5521	2.7357	0.0244
303.2	6230	3.0936	0.0274
313.2	865	0.3301	0.0022
313.2	1497	0.5713	0.0047
313.2	2888	1.1162	0.0104
313.2	4281	1.7053	0.0157
313.2	5662	2.2899	0.0209
313.2	6350	2.5606	0.0234
323.2	842	0.2743	0.0016
323.2	1512	0.4911	0.0045
323.2	2938	0.9587	0.0032
323.2	4359	1.4509	0.0133
323.2	5732	1.9205	0.0175
323.2	6520	2.171	0.0197
333.2	847	0.238	0.0012
333.2	1521	0.4257	0.0034
333.2	2961	0.8235	0.0036
333.2	4395	1.2359	0.0113
333.2	5770	1.6254	0.0148
333.2	6636	1.8551	0.0167
343.2	856	0.211	0.001
343.2	1522	0.3737	0.0027
343.2	2987	0.7171	0.0042
343.2	4427	1.0655	0.0099
343.2	5868	1.4097	0.0129
343.2	6710	1.6008	0.0146
