Measured thermophysical data. Thermophysical properties of 1-alkylpyridinum  bis(trifluoromethylsulfonyl)imide ionic liquids
Source: J. Chem. Thermodyn., 2010, 10.1016/j.jct.2009.11.004
Compound 1: 1-octylpyridinium bis((trifluoromethyl)sulfonyl)amide, C15H22F6N2O4S2, InChI=1S/C13H22N.C2F6NO4S2/c1-2-3-4-5-6-8-11-14-12-9-7-10-13-14;3-1(4,5)14(10,11)9-15(12,13)2(6,7)8/h7,9-10,12-13H,2-6,8,11H2,1H3;/q+1;-1
Compound 2: 1-butylpyridinium bis[(trifluoromethyl)sulfonyl]imide, C11H14F6N2O4S2, InChI=1S/C9H14N.C2F6NO4S2/c1-2-3-7-10-8-5-4-6-9-10;3-1(4,5)14(10,11)9-15(12,13)2(6,7)8/h4-6,8-9H,2-3,7H2,1H3;/q+1;-1
Compound 3: 1-hexyl-3-methylimidazolium bis[(trifluoromethyl)sulfonyl]imide, C12H19F6N3O4S2, InChI=1S/C10H19N2.C2F6NO4S2/c1-3-4-5-6-7-12-9-8-11(2)10-12;3-1(4,5)14(10,11)9-15(12,13)2(6,7)8/h8-10H,3-7H2,1-2H3;/q+1;-1, purity 98%
Compound 4: 1-decylpyridinium bis(trifluoromethylsulfonyl)imide, C17H26F6N2O4S2, InChI=1S/C15H26N.C2F6NO4S2/c1-2-3-4-5-6-7-8-10-13-16-14-11-9-12-15-16;3-1(4,5)14(10,11)9-15(12,13)2(6,7)8/h9,11-12,14-15H,2-8,10,13H2,1H3;/q+1;-1
Compound 5: 1-dodecylpyridinium bis(trifluoromethylsulfonyl)imide, C19H30F6N2O4S2, InChI=1S/C17H30N.C2F6NO4S2/c1-2-3-4-5-6-7-8-9-10-12-15-18-16-13-11-14-17-18;3-1(4,5)14(10,11)9-15(12,13)2(6,7)8/h11,13-14,16-17H,2-10,12,15H2,1H3;/q+1;-1

System: 1-octylpyridinium bis((trifluoromethyl)sulfonyl)amide; phases: Liquid
Fixed: Pressure, kPa = 101.325
Property: Viscosity, Pa*s (Liquid); method: Concentric cylinders viscometry
Temperature, K	Viscosity, Pa*s	uncertainty
293.15	0.14953	0.00392
298.15	0.11434	0.00282
303.15	0.08874	0.00209
308.15	0.07013	0.0016
313.15	0.05633	0.00127
318.15	0.0459	0.00104
323.15	0.03791	0.00086
328.15	0.0317	0.00072
333.15	0.0268	0.00061
338.15	0.02289	0.00052
343.15	0.01973	0.00045
348.15	0.01715	0.00039
353.15	0.01502	0.00034

System: 1-octylpyridinium bis((trifluoromethyl)sulfonyl)amide; phases: Liquid
Fixed: Pressure, kPa = 101.325
Property: Mass density, kg/m3 (Liquid); method: Vibrating tube method
Temperature, K	Mass density, kg/m3	uncertainty
293.15	1331.3	1.8
298.15	1326.8	1.8
303.15	1322.5	1.7
308.15	1318.2	1.7
313.15	1313.9	1.7
318.15	1309.6	1.7
323.15	1305.3	1.7
328.15	1301.1	1.7
333.15	1296.8	1.7
338.15	1292.6	1.7
343.15	1288.3	1.7
348.15	1284.1	1.7
353.15	1279.9	1.7

System: 1-octylpyridinium bis((trifluoromethyl)sulfonyl)amide; phases: Liquid
Fixed: Pressure, kPa = 101.325
Property: Refractive index (Na D-line) (Liquid); method: Standard Abbe refractometry
Temperature, K	Refractive index (Na D-line)	uncertainty
293.15	1.4487	0.00059
298.15	1.44723	0.00059
303.15	1.44568	0.00059
308.15	1.44413	0.00059
313.15	1.44262	0.00059
318.15	1.44115	0.00058
323.15	1.43972	0.00058
328.15	1.43827	0.00058
333.15	1.43681	0.00058

System: 1-butylpyridinium bis[(trifluoromethyl)sulfonyl]imide; phases: Liquid
Fixed: Pressure, kPa = 101.325
Property: Viscosity, Pa*s (Liquid); method: Concentric cylinders viscometry
Temperature, K	Viscosity, Pa*s	uncertainty
293.15	0.07616	0.00175
298.15	0.06041	0.00136
303.15	0.04855	0.0011
308.15	0.03965	0.0009
313.15	0.03283	0.00074
318.15	0.02756	0.00062
323.15	0.0234	0.00053
328.15	0.02008	0.00045
333.15	0.0174	0.00039
338.15	0.0152	0.00034
343.15	0.01339	0.0003
348.15	0.01187	0.00027
353.15	0.01059	0.00024

System: 1-butylpyridinium bis[(trifluoromethyl)sulfonyl]imide; phases: Liquid
Fixed: Pressure, kPa = 101.325
Property: Mass density, kg/m3 (Liquid); method: Vibrating tube method
Temperature, K	Mass density, kg/m3	uncertainty
293.15	1452.5	2
298.15	1447.6	2
303.15	1442.9	2
308.15	1438.3	2
313.15	1433.6	2
318.15	1429	2
323.15	1424.3	2
328.15	1419.7	1.9
333.15	1415.1	1.9
338.15	1410.5	1.9
343.15	1406	1.9
348.15	1401.5	1.9
353.15	1397	1.9

System: 1-butylpyridinium bis[(trifluoromethyl)sulfonyl]imide; phases: Liquid
Fixed: Pressure, kPa = 101.325
Property: Refractive index (Na D-line) (Liquid); method: Standard Abbe refractometry
Temperature, K	Refractive index (Na D-line)	uncertainty
293.15	1.44537	0.0006
298.15	1.44379	0.0006
303.15	1.44211	0.0006
308.15	1.44057	0.00059
313.15	1.43911	0.00058
318.15	1.43769	0.00058
323.15	1.43631	0.00057
328.15	1.43496	0.00057
333.15	1.43359	0.00058

System: 1-hexyl-3-methylimidazolium bis[(trifluoromethyl)sulfonyl]imide; phases: Liquid
Property: Mass density, kg/m3 (Liquid); method: Vibrating tube method
Temperature, K	Pressure, kPa	Mass density, kg/m3	uncertainty
298.15	101.325	1370.8	1.8

System: 1-hexyl-3-methylimidazolium bis[(trifluoromethyl)sulfonyl]imide; phases: Liquid
Property: Refractive index (Na D-line) (Liquid); method: Standard Abbe refractometry
Temperature, K	Pressure, kPa	Refractive index (Na D-line)	uncertainty
298.15	101.325	1.4318	0.00051

System: 1-hexyl-3-methylimidazolium bis[(trifluoromethyl)sulfonyl]imide; phases: Liquid
Property: Viscosity, Pa*s (Liquid); method: Concentric cylinders viscometry
Temperature, K	Pressure, kPa	Viscosity, Pa*s	uncertainty
298.15	101.325	0.068536	0.001591

System: 1-decylpyridinium bis(trifluoromethylsulfonyl)imide; phases: Liquid
Fixed: Pressure, kPa = 101.325
Property: Viscosity, Pa*s (Liquid); method: Concentric cylinders viscometry
Temperature, K	Viscosity, Pa*s	uncertainty
293.15	0.20144	0.0057
298.15	0.15193	0.004
303.15	0.11639	0.00289
308.15	0.09082	0.00215
313.15	0.07207	0.00165
318.15	0.05806	0.00131
323.15	0.04746	0.00107
328.15	0.03929	0.00089
333.15	0.03291	0.00074
338.15	0.02786	0.00063
343.15	0.02381	0.00054
348.15	0.02054	0.00046
353.15	0.01785	0.0004

System: 1-decylpyridinium bis(trifluoromethylsulfonyl)imide; phases: Liquid
Fixed: Pressure, kPa = 101.325
Property: Mass density, kg/m3 (Liquid); method: Vibrating tube method
Temperature, K	Mass density, kg/m3	uncertainty
293.15	1287.8	1.7
298.15	1283.5	1.7
303.15	1279.2	1.7
308.15	1275.1	1.7
313.15	1270.9	1.7
318.15	1266.8	1.6
323.15	1262.6	1.6
328.15	1258.5	1.6
333.15	1254.3	1.6
338.15	1250.2	1.6
343.15	1246.1	1.6
348.15	1242	1.6
353.15	1237.9	1.6

System: 1-decylpyridinium bis(trifluoromethylsulfonyl)imide; phases: Liquid
Fixed: Pressure, kPa = 101.325
Property: Refractive index (Na D-line) (Liquid); method: Standard Abbe refractometry
Temperature, K	Refractive index (Na D-line)	uncertainty
293.15	1.45007	0.00059
298.15	1.44859	0.00059
303.15	1.44703	0.00059
308.15	1.44546	0.00059
313.15	1.44391	0.00059
318.15	1.44239	0.00059
323.15	1.44091	0.00059
328.15	1.43943	0.00059
333.15	1.43796	0.00059

System: 1-dodecylpyridinium bis(trifluoromethylsulfonyl)imide; phases: Liquid
Fixed: Pressure, kPa = 101.325
Property: Viscosity, Pa*s (Liquid); method: Concentric cylinders viscometry
Temperature, K	Viscosity, Pa*s	uncertainty
293.15	0.26972	0.00826
298.15	0.20045	0.00567
303.15	0.15142	0.00399
308.15	0.11663	0.00289
313.15	0.09145	0.00216
318.15	0.07283	0.00167
323.15	0.05888	0.00133
328.15	0.04825	0.00109
333.15	0.04002	0.0009
338.15	0.03359	0.00076
343.15	0.02847	0.00064
348.15	0.02436	0.00055
353.15	0.02103	0.00048

System: 1-dodecylpyridinium bis(trifluoromethylsulfonyl)imide; phases: Liquid
Fixed: Pressure, kPa = 101.325
Property: Mass density, kg/m3 (Liquid); method: Vibrating tube method
Temperature, K	Mass density, kg/m3	uncertainty
293.15	1253.1	1.6
298.15	1248.8	1.6
303.15	1244.6	1.6
308.15	1240.5	1.6
313.15	1236.4	1.6
318.15	1232.3	1.6
323.15	1228.2	1.6
328.15	1224.1	1.6
333.15	1220.1	1.6
338.15	1216	1.6
343.15	1212	1.6
348.15	1208	1.5
353.15	1204	1.5

System: 1-dodecylpyridinium bis(trifluoromethylsulfonyl)imide; phases: Liquid
Fixed: Pressure, kPa = 101.325
Property: Refractive index (Na D-line) (Liquid); method: Standard Abbe refractometry
Temperature, K	Refractive index (Na D-line)	uncertainty
293.15	1.45131	0.0006
298.15	1.44969	0.00059
303.15	1.44818	0.00059
308.15	1.44668	0.00059
313.15	1.44524	0.00058
318.15	1.44379	0.00058
323.15	1.44235	0.00058
328.15	1.4409	0.00058
333.15	1.43946	0.00058
