Measured thermophysical data. Solvent effect on solubility and preferential solvation analysis of buprofezin dissolved in aqueous co-solvent mixtures of N,N-dimethylformamide, ethanol, acetonitrile and isopropanol
Source: J. Chem. Thermodyn., 2019, 10.1016/j.jct.2019.06.019
Compound 1: buprofezin, C16H23N3OS, InChI=1S/C16H23N3OS/c1-12(2)19-14(17-16(3,4)5)21-11-18(15(19)20)13-9-7-6-8-10-13/h6-10,12H,11H2,1-5H3, purity 98.7%
Compound 2: dimethylformamide, C3H7NO, InChI=1S/C3H7NO/c1-4(2)3-5/h3H,1-2H3, purity 99.4%
Compound 3: propan-2-ol, C3H8O, InChI=1S/C3H8O/c1-3(2)4/h3-4H,1-2H3, purity 99.5%
Compound 4: ethanol, C2H6O, InChI=1S/C2H6O/c1-2-3/h3H,2H2,1H3, purity 99.5%
Compound 5: acetonitrile, C2H3N, InChI=1S/C2H3N/c1-2-3/h1H3, purity 99.4%
Compound 6: water, H2O, InChI=1S/H2O/h1H2

System: buprofezin + dimethylformamide + water; phases: Liquid, Crystal
Fixed: Pressure, kPa = 101.2
Property: Mole fraction of buprofezin (Liquid); method: Chromatography
Temperature, K	Solvent: Mass fraction of dimethylformamide	Mole fraction of buprofezin	uncertainty
273.15	0.1	4.632e-05	6.21e-06
278.15	0.1	5.716e-05	7.66e-06
283.15	0.1	7.115e-05	9.54e-06
288.15	0.1	9.266e-05	1.243e-05
293.15	0.1	0.0001161	1.56e-05
298.15	0.1	0.0001444	1.94e-05
303.15	0.1	0.000181	2.43e-05
308.15	0.1	0.0002199	2.95e-05
313.15	0.1	0.0002677	3.59e-05
318.15	0.1	0.000327	4.38e-05
273.15	0.2	9.049e-05	1.213e-05
278.15	0.2	0.0001134	1.52e-05
283.15	0.2	0.0001455	1.95e-05
288.15	0.2	0.0001824	2.45e-05
293.15	0.2	0.0002304	3.09e-05
298.15	0.2	0.0002777	3.72e-05
303.15	0.2	0.0003374	4.52e-05
308.15	0.2	0.0004099	5.5e-05
313.15	0.2	0.0005058	6.78e-05
318.15	0.2	0.000629	8.44e-05
273.15	0.3	0.0001796	2.41e-05
278.15	0.3	0.0002251	3.02e-05
283.15	0.3	0.000277	3.71e-05
288.15	0.3	0.0003508	4.7e-05
293.15	0.3	0.0004374	5.87e-05
298.15	0.3	0.0005397	7.24e-05
303.15	0.3	0.0006538	8.77e-05
308.15	0.3	0.0008013	0.0001074
313.15	0.3	0.0009729	0.0001304
318.15	0.3	0.001128	0.000151
273.15	0.4	0.0003563	4.78e-05
278.15	0.4	0.0004607	6.18e-05
283.15	0.4	0.0005684	7.62e-05
288.15	0.4	0.0006961	9.33e-05
293.15	0.4	0.0008523	0.0001143
298.15	0.4	0.001027	0.000138
303.15	0.4	0.001231	0.000165
308.15	0.4	0.00147	0.000197
313.15	0.4	0.001758	0.000236
318.15	0.4	0.002103	0.000282
273.15	0.5	0.0008261	0.0001107
278.15	0.5	0.001008	0.000135
283.15	0.5	0.001221	0.000164
288.15	0.5	0.001464	0.000196
293.15	0.5	0.001752	0.000235
298.15	0.5	0.002103	0.000282
303.15	0.5	0.002503	0.000336
308.15	0.5	0.002969	0.000398
313.15	0.5	0.003467	0.000465
318.15	0.5	0.004045	0.000543
273.15	0.6	0.0018	0.000241
278.15	0.6	0.002187	0.000293
283.15	0.6	0.002636	0.000353
288.15	0.6	0.003202	0.000429
293.15	0.6	0.003801	0.00051
298.15	0.6	0.004582	0.000614
303.15	0.6	0.005396	0.000723
308.15	0.6	0.006354	0.000852
313.15	0.6	0.007484	0.001003
318.15	0.6	0.008951	0.001202
273.15	0.7	0.003952	0.00053
278.15	0.7	0.004764	0.000639
283.15	0.7	0.005924	0.000794
288.15	0.7	0.007066	0.000947
293.15	0.7	0.008492	0.001138
298.15	0.7	0.009982	0.001338
303.15	0.7	0.0118	0.00158
308.15	0.7	0.01384	0.00186
313.15	0.7	0.01656	0.00222
318.15	0.7	0.01981	0.00266
273.15	0.8	0.008216	0.001101
278.15	0.8	0.009452	0.001267
283.15	0.8	0.01172	0.00157
288.15	0.8	0.01428	0.00191
293.15	0.8	0.01726	0.00231
298.15	0.8	0.02043	0.00274
303.15	0.8	0.02457	0.00329
308.15	0.8	0.02989	0.00401
313.15	0.8	0.03536	0.00474
318.15	0.8	0.04216	0.00565
273.15	0.9	0.01876	0.00251
278.15	0.9	0.02192	0.00294
283.15	0.9	0.02561	0.00343
288.15	0.9	0.02992	0.00401
293.15	0.9	0.03447	0.00462
298.15	0.9	0.04012	0.00538
303.15	0.9	0.04652	0.00624
308.15	0.9	0.05451	0.00731
313.15	0.9	0.0632	0.00847
318.15	0.9	0.07559	0.01013

System: buprofezin + ethanol + water; phases: Liquid, Crystal
Fixed: Pressure, kPa = 101.2
Property: Mole fraction of buprofezin (Liquid); method: Chromatography
Temperature, K	Solvent: Mass fraction of ethanol	Mole fraction of buprofezin	uncertainty
273.15	0.1	4.555e-05	6.11e-06
278.15	0.1	5.575e-05	7.47e-06
283.15	0.1	6.729e-05	9.02e-06
288.15	0.1	7.953e-05	1.066e-05
293.15	0.1	9.34e-05	1.25e-05
298.15	0.1	0.0001128	1.51e-05
303.15	0.1	0.0001331	1.78e-05
308.15	0.1	0.0001585	2.12e-05
313.15	0.1	0.0001867	2.5e-05
318.15	0.1	0.000222	2.98e-05
273.15	0.2	7.367e-05	9.88e-06
278.15	0.2	9.21e-05	1.23e-05
283.15	0.2	0.0001143	1.53e-05
288.15	0.2	0.0001389	1.86e-05
293.15	0.2	0.0001653	2.22e-05
298.15	0.2	0.0001981	2.66e-05
303.15	0.2	0.0002352	3.15e-05
308.15	0.2	0.0002749	3.69e-05
313.15	0.2	0.0003204	4.3e-05
318.15	0.2	0.0003814	5.11e-05
273.15	0.3	0.0001268	1.7e-05
278.15	0.3	0.000151	2.02e-05
283.15	0.3	0.0001816	2.43e-05
288.15	0.3	0.0002169	2.91e-05
293.15	0.3	0.0002529	3.39e-05
298.15	0.3	0.0002957	3.96e-05
303.15	0.3	0.000348	4.67e-05
308.15	0.3	0.0004174	5.6e-05
313.15	0.3	0.0005094	6.83e-05
318.15	0.3	0.000618	8.29e-05
273.15	0.4	0.0001927	2.58e-05
278.15	0.4	0.0002378	3.19e-05
283.15	0.4	0.0002838	3.8e-05
288.15	0.4	0.0003422	4.59e-05
293.15	0.4	0.0004107	5.51e-05
298.15	0.4	0.0004909	6.58e-05
303.15	0.4	0.0005906	7.92e-05
308.15	0.4	0.000712	9.55e-05
313.15	0.4	0.0008623	0.0001156
318.15	0.4	0.001082	0.000145
273.15	0.5	0.0003204	4.29e-05
278.15	0.5	0.0004032	5.41e-05
283.15	0.5	0.0005005	6.71e-05
288.15	0.5	0.0006083	8.16e-05
293.15	0.5	0.000724	9.71e-05
298.15	0.5	0.0008678	0.0001163
303.15	0.5	0.001047	0.00014
308.15	0.5	0.001294	0.000174
313.15	0.5	0.001639	0.00022
318.15	0.5	0.002062	0.000277
273.15	0.6	0.0005673	7.6e-05
278.15	0.6	0.0007148	9.58e-05
283.15	0.6	0.0008648	0.0001159
288.15	0.6	0.001052	0.000141
293.15	0.6	0.001261	0.000169
298.15	0.6	0.001515	0.000203
303.15	0.6	0.001811	0.000243
308.15	0.6	0.00222	0.000298
313.15	0.6	0.002709	0.000363
318.15	0.6	0.003284	0.000441
273.15	0.7	0.00104	0.000139
278.15	0.7	0.0013	0.000174
283.15	0.7	0.001569	0.00021
288.15	0.7	0.001907	0.000256
293.15	0.7	0.00227	0.000304
298.15	0.7	0.002727	0.000366
303.15	0.7	0.003193	0.000428
308.15	0.7	0.003863	0.000518
313.15	0.7	0.004742	0.000636
318.15	0.7	0.005887	0.00079
273.15	0.8	0.001791	0.00024
278.15	0.8	0.002207	0.000296
283.15	0.8	0.002739	0.000367
288.15	0.8	0.00333	0.000446
293.15	0.8	0.00409	0.000548
298.15	0.8	0.004884	0.000655
303.15	0.8	0.005895	0.00079
308.15	0.8	0.00723	0.000969
313.15	0.8	0.008754	0.001174
318.15	0.8	0.01057	0.00142
273.15	0.9	0.003041	0.000408
278.15	0.9	0.003963	0.000531
283.15	0.9	0.004919	0.00066
288.15	0.9	0.005978	0.000801
293.15	0.9	0.007276	0.000976
298.15	0.9	0.008771	0.001176
303.15	0.9	0.0107	0.00143
308.15	0.9	0.01298	0.00174
313.15	0.9	0.01555	0.00208
318.15	0.9	0.01841	0.00247

System: buprofezin + acetonitrile + water; phases: Liquid, Crystal
Fixed: Pressure, kPa = 101.2
Property: Mole fraction of buprofezin (Liquid); method: Chromatography
Temperature, K	Solvent: Mass fraction of acetonitrile	Mole fraction of buprofezin	uncertainty
273.15	0.1	4.555e-05	6.11e-06
278.15	0.1	5.575e-05	7.48e-06
283.15	0.1	6.919e-05	9.28e-06
288.15	0.1	8.409e-05	1.127e-05
293.15	0.1	0.0001001	1.34e-05
298.15	0.1	0.00012	1.61e-05
303.15	0.1	0.0001448	1.94e-05
308.15	0.1	0.0001712	2.3e-05
313.15	0.1	0.0002051	2.75e-05
318.15	0.1	0.0002425	3.25e-05
273.15	0.2	8.235e-05	1.104e-05
278.15	0.2	0.0001001	1.34e-05
283.15	0.2	0.0001208	1.62e-05
288.15	0.2	0.0001468	1.97e-05
293.15	0.2	0.000176	2.36e-05
298.15	0.2	0.0002074	2.78e-05
303.15	0.2	0.0002495	3.34e-05
308.15	0.2	0.0002962	3.97e-05
313.15	0.2	0.0003515	4.71e-05
318.15	0.2	0.0004182	5.61e-05
273.15	0.3	0.0001563	2.09e-05
278.15	0.3	0.0001848	2.48e-05
283.15	0.3	0.0002169	2.91e-05
288.15	0.3	0.0002636	3.53e-05
293.15	0.3	0.0003138	4.21e-05
298.15	0.3	0.0003754	5.03e-05
303.15	0.3	0.0004529	6.07e-05
308.15	0.3	0.0005349	7.17e-05
313.15	0.3	0.0006399	8.58e-05
318.15	0.3	0.0007644	0.0001025
273.15	0.4	0.0002685	3.6e-05
278.15	0.4	0.0003235	4.34e-05
283.15	0.4	0.0003966	5.32e-05
288.15	0.4	0.0004867	6.53e-05
293.15	0.4	0.0005793	7.77e-05
298.15	0.4	0.0006753	9.05e-05
303.15	0.4	0.0007926	0.0001063
308.15	0.4	0.0009369	0.0001256
313.15	0.4	0.001109	0.000149
318.15	0.4	0.001318	0.000177
273.15	0.5	0.0004833	6.48e-05
278.15	0.5	0.0005897	7.91e-05
283.15	0.5	0.0006992	9.37e-05
288.15	0.5	0.0008265	0.0001108
293.15	0.5	0.0009837	0.0001319
298.15	0.5	0.001179	0.000158
303.15	0.5	0.001421	0.000191
308.15	0.5	0.001703	0.000228
313.15	0.5	0.002021	0.000271
318.15	0.5	0.002432	0.000326
273.15	0.6	0.0008265	0.0001108
278.15	0.6	0.0009837	0.0001319
283.15	0.6	0.001155	0.000155
288.15	0.6	0.001403	0.000188
293.15	0.6	0.00167	0.000224
298.15	0.6	0.00206	0.000276
303.15	0.6	0.00261	0.00035
308.15	0.6	0.003204	0.00043
313.15	0.6	0.004011	0.000538
318.15	0.6	0.005063	0.000679
273.15	0.7	0.001346	0.00018
278.15	0.7	0.001643	0.00022
283.15	0.7	0.001994	0.000267
288.15	0.7	0.002449	0.000328
293.15	0.7	0.002984	0.0004
298.15	0.7	0.003568	0.000478
303.15	0.7	0.004262	0.000571
308.15	0.7	0.005258	0.000705
313.15	0.7	0.006402	0.000858
318.15	0.7	0.007754	0.001041
273.15	0.8	0.0024	0.000322
278.15	0.8	0.00287	0.000385
283.15	0.8	0.003525	0.000473
288.15	0.8	0.004293	0.000576
293.15	0.8	0.005302	0.000711
298.15	0.8	0.006454	0.000865
303.15	0.8	0.007859	0.001054
308.15	0.8	0.009787	0.001312
313.15	0.8	0.01257	0.00169
318.15	0.8	0.01564	0.0021
273.15	0.9	0.003969	0.000532
278.15	0.9	0.004715	0.000632
283.15	0.9	0.006234	0.000836
288.15	0.9	0.008258	0.001108
293.15	0.9	0.01051	0.001409
298.15	0.9	0.01335	0.00179
303.15	0.9	0.01633	0.00219
308.15	0.9	0.02009	0.00269
313.15	0.9	0.02408	0.00323
318.15	0.9	0.02927	0.00392

System: buprofezin + propan-2-ol + water; phases: Liquid, Crystal
Fixed: Pressure, kPa = 101.2
Property: Mole fraction of buprofezin (Liquid); method: Chromatography
Temperature, K	Solvent: Mass fraction of propan-2-ol	Mole fraction of buprofezin	uncertainty
273.15	0.1	5.26e-05	7.05e-06
278.15	0.1	6.287e-05	8.43e-06
283.15	0.1	7.527e-05	1.009e-05
288.15	0.1	9.195e-05	1.233e-05
293.15	0.1	0.0001091	1.46e-05
298.15	0.1	0.000133	1.78e-05
303.15	0.1	0.0001627	2.18e-05
308.15	0.1	0.0001907	2.56e-05
313.15	0.1	0.0002313	3.1e-05
318.15	0.1	0.0002688	3.6e-05
273.15	0.2	8.749e-05	1.173e-05
278.15	0.2	0.0001071	1.44e-05
283.15	0.2	0.0001334	1.79e-05
288.15	0.2	0.0001555	2.08e-05
293.15	0.2	0.0001883	2.52e-05
298.15	0.2	0.0002245	3.01e-05
303.15	0.2	0.0002691	3.61e-05
308.15	0.2	0.0003174	4.26e-05
313.15	0.2	0.0003764	5.05e-05
318.15	0.2	0.0004532	6.08e-05
273.15	0.3	0.0001497	2.01e-05
278.15	0.3	0.0001752	2.35e-05
283.15	0.3	0.000212	2.84e-05
288.15	0.3	0.000259	3.47e-05
293.15	0.3	0.0003044	4.08e-05
298.15	0.3	0.0003739	5.01e-05
303.15	0.3	0.0004389	5.88e-05
308.15	0.3	0.0005261	7.05e-05
313.15	0.3	0.0006257	8.39e-05
318.15	0.3	0.0007464	0.0001001
273.15	0.4	0.0002502	3.35e-05
278.15	0.4	0.0002929	3.93e-05
283.15	0.4	0.0003493	4.68e-05
288.15	0.4	0.0004165	5.58e-05
293.15	0.4	0.000506	6.78e-05
298.15	0.4	0.000636	8.53e-05
303.15	0.4	0.0007383	9.9e-05
308.15	0.4	0.0008683	0.0001164
313.15	0.4	0.001035	0.000139
318.15	0.4	0.001242	0.000167
273.15	0.5	0.0004037	5.41e-05
278.15	0.5	0.0004877	6.54e-05
283.15	0.5	0.000584	7.83e-05
288.15	0.5	0.0006941	9.31e-05
293.15	0.5	0.0008555	0.0001147
298.15	0.5	0.001039	0.000139
303.15	0.5	0.001258	0.000169
308.15	0.5	0.001484	0.000199
313.15	0.5	0.001738	0.000233
318.15	0.5	0.002035	0.000273
273.15	0.6	0.0006828	9.15e-05
278.15	0.6	0.0008008	0.0001074
283.15	0.6	0.0009582	0.0001285
288.15	0.6	0.001181	0.000158
293.15	0.6	0.001427	0.000191
298.15	0.6	0.001775	0.000238
303.15	0.6	0.002161	0.00029
308.15	0.6	0.002565	0.000344
313.15	0.6	0.003063	0.000411
318.15	0.6	0.003634	0.000487
273.15	0.7	0.001223	0.000164
278.15	0.7	0.001372	0.000184
283.15	0.7	0.001659	0.000222
288.15	0.7	0.002084	0.000279
293.15	0.7	0.002548	0.000342
298.15	0.7	0.003162	0.000424
303.15	0.7	0.003839	0.000515
308.15	0.7	0.00458	0.000614
313.15	0.7	0.005366	0.000719
318.15	0.7	0.006335	0.00085
273.15	0.8	0.002092	0.00028
278.15	0.8	0.002416	0.000324
283.15	0.8	0.002896	0.000388
288.15	0.8	0.003617	0.000485
293.15	0.8	0.004462	0.000598
298.15	0.8	0.005495	0.000737
303.15	0.8	0.006685	0.000896
308.15	0.8	0.007954	0.001066
313.15	0.8	0.00942	0.001263
318.15	0.8	0.01105	0.00148
273.15	0.9	0.003566	0.000478
278.15	0.9	0.004508	0.000605
283.15	0.9	0.005697	0.000764
288.15	0.9	0.006988	0.000937
293.15	0.9	0.008492	0.001139
298.15	0.9	0.01043	0.0014
303.15	0.9	0.01256	0.00168
308.15	0.9	0.0152	0.00204
313.15	0.9	0.01852	0.00248
318.15	0.9	0.02281	0.00306
