Measured thermophysical data. Thermochemistry of sarcosine and sarcosine anhydride: Theoretical and  experimental studies
Source: J. Chem. Thermodyn., 2013, 10.1016/j.jct.2012.11.019
Compound 1: carbon dioxide, CO2, InChI=1S/CO2/c2-1-3
Compound 2: nitrogen, N2, InChI=1S/N2/c1-2
Compound 3: water, H2O, InChI=1S/H2O/h1H2
Compound 4: oxygen, O2, InChI=1S/O2/c1-2
Compound 5: sarcosine, C3H7NO2, InChI=1S/C3H7NO2/c1-4-2-3(5)6/h4H,2H2,1H3,(H,5,6), purity 98%
Compound 6: 1,4-dimethyl-2,5-piperazinedione, C6H10N2O2, InChI=1S/C6H10N2O2/c1-7-3-6(10)8(2)4-5(7)9/h3-4H2,1-2H3, purity 98%

System: sarcosine; phases: Crystal, Gas
Property: Molar enthalpy of vaporization or sublimation, kJ/mol (Crystal); method: Derived by Second law
Temperature, K	Molar enthalpy of vaporization or sublimation, kJ/mol	uncertainty
298.15	129.2	2.1

System: sarcosine; phases: Crystal, Gas
Property: Vapor or sublimation pressure, kPa (Crystal); method: Calculated from knudsen effusion weight loss
Temperature, K	Vapor or sublimation pressure, kPa	uncertainty
403.16	0.001151	0.000119
401.15	0.000972	4.9e-05
399.14	0.000801	4e-05
397.13	0.000641	3.2e-05
395.1	0.000516	2.6e-05
393.14	0.000432	2.2e-05
391.12	0.000363	1.8e-05
389.1	0.000291	1.5e-05
387.14	0.000233	1.2e-05
385.13	0.000198	1e-05
383.12	0.00016	8e-06
381.15	0.000132	7e-06
403.16	0.001164	0.00012
401.15	0.000971	4.9e-05
399.14	0.000794	4e-05
397.13	0.000644	3.2e-05
395.1	0.000523	2.6e-05
393.14	0.000422	2.1e-05
391.12	0.000359	1.8e-05
389.1	0.000289	1.4e-05
387.14	0.00023	1.2e-05
385.13	0.000198	1e-05
383.12	0.00016	8e-06
381.15	0.000128	6e-06
403.16	0.001166	0.000121
401.15	0.000978	4.9e-05
399.14	0.0008	4e-05
397.13	0.000644	3.2e-05
395.1	0.00051	2.6e-05
393.14	0.000418	2.1e-05
391.12	0.000354	1.8e-05
389.1	0.000271	1.4e-05
387.14	0.000226	1.1e-05
385.13	0.000195	1e-05
383.12	0.000156	8e-06
381.15	0.000126	6e-06

System: 1,4-dimethyl-2,5-piperazinedione; phases: Crystal, Gas
Property: Molar enthalpy of vaporization or sublimation, kJ/mol (Crystal); method: Derived by Second law
Temperature, K	Molar enthalpy of vaporization or sublimation, kJ/mol	uncertainty
298.15	103.6	1.8

System: 1,4-dimethyl-2,5-piperazinedione; phases: Crystal, Gas
Property: Vapor or sublimation pressure, kPa (Crystal); method: Calculated from knudsen effusion weight loss
Temperature, K	Vapor or sublimation pressure, kPa	uncertainty
351.1	0.00119	0.000124
349.14	0.000982	4.9e-05
347.16	0.000796	4e-05
345.09	0.000664	3.3e-05
343.14	0.000543	2.7e-05
341.17	0.000423	2.1e-05
339.08	0.000335	1.7e-05
337.13	0.000271	1.4e-05
335.18	0.00024	1.2e-05
333.08	0.000179	9e-06
331.13	0.000142	7e-06
329.18	0.000118	6e-06
351.1	0.001176	0.000122
349.14	0.000975	4.9e-05
347.16	0.000793	4e-05
345.09	0.000674	3.4e-05
343.14	0.000532	2.7e-05
341.17	0.000432	2.2e-05
339.08	0.000342	1.7e-05
337.13	0.000277	1.4e-05
335.18	0.000227	1.1e-05
333.08	0.00018	9e-06
331.13	0.00014	7e-06
329.18	0.000112	6e-06
351.1	0.001179	0.000122
349.14	0.000935	4.7e-05
347.16	0.000768	3.8e-05
345.09	0.000642	3.2e-05
343.14	0.000516	2.6e-05
341.17	0.000417	2.1e-05
339.08	0.000343	1.7e-05
337.13	0.000273	1.4e-05
335.18	0.000224	1.1e-05
333.08	0.000179	9e-06
331.13	0.000137	7e-06
329.18	0.000112	6e-06

Reaction: -1 sarcosine + 3 carbon dioxide + .5 nitrogen + 3.5 water + -3.75 oxygen
Property: Specific internal energy of reaction at constant volume, J/g
-18666.9

Reaction: -1 1,4-dimethyl-2,5-piperazinedione + 6 carbon dioxide + 1 nitrogen + 5 water + -7.5 oxygen
Property: Specific internal energy of reaction at constant volume, J/g
-23572
