Measured thermophysical data. Salt-effects in aqueous surface-active ionic liquid 1-dodecyl-3-methylimidazolium bromide solutions: Volumetric and compressibility property changes and critical aggregation concentration shifts
Source: J. Chem. Thermodyn., 2014, 10.1016/j.jct.2014.03.001
Compound 1: 1-dodecyl-3-methylimidazolium bromide, C16H31BrN2, InChI=1S/C16H31N2.BrH/c1-3-4-5-6-7-8-9-10-11-12-13-18-15-14-17(2)16-18;/h14-16H,3-13H2,1-2H3;1H/q+1;/p-1, purity 98%
Compound 2: potassium chloride, ClK, InChI=1S/ClH.K/h1H;/q;+1/p-1, purity 99.5%
Compound 3: ammonium chloride (NH4Cl), ClH4N, InChI=1S/ClH.H3N/h1H;1H3, purity 99.8%
Compound 4: tetramethylammonium chloride, C4H12ClN, InChI=1S/C4H12N.ClH/c1-5(2,3)4;/h1-4H3;1H/q+1;/p-1, purity 98%
Compound 5: magnesium chloride, Cl2Mg, InChI=1S/2ClH.Mg/h2*1H;/q;;+2/p-2, purity 99%
Compound 6: ferric chloride, Cl3Fe, InChI=1S/3ClH.Fe/h3*1H;/q;;;+3/p-3, purity 99.5%
Compound 7: sodium chloride, ClNa, InChI=1S/ClH.Na/h1H;/q;+1/p-1, purity 99.5%
Compound 8: sodium nitrate, NNaO3, InChI=1S/NO3.Na/c2-1(3)4;/q-1;+1, purity 99.5%
Compound 9: sodium carbonate, CNa2O3, InChI=1S/CH2O3.2Na/c2-1(3)4;;/h(H2,2,3,4);;/q;2*+1/p-2, purity 99.9%
Compound 10: sodium sulfate, Na2O4S, InChI=1S/2Na.H2O4S/c;;1-5(2,3)4/h;;(H2,1,2,3,4)/q2*+1;/p-2, purity 99%
Compound 11: trisodium citrate, C6H5Na3O7, InChI=1S/C6H8O7.3Na/c7-3(8)1-6(13,5(11)12)2-4(9)10;;;/h13H,1-2H2,(H,7,8)(H,9,10)(H,11,12);;;/q;3*+1/p-3, purity 99%
Compound 12: water, H2O, InChI=1S/H2O/h1H2

System: water; phases: Liquid
Fixed: Pressure, kPa = 84.51
Property: Mass density, kg/m3 (Liquid); method: Vibrating tube method
Temperature, K	Mass density, kg/m3	uncertainty
288.15	999.099	0.106
293.15	998.203	0.107
298.15	997.043	0.107
303.15	995.645	0.107
308.15	994.029	0.107
313.15	992.212	0.107

System: water; phases: Liquid
Fixed: Pressure, kPa = 84.51
Fixed: Frequency, MHz = 3
Property: Speed of sound, m/s (Liquid); method: Sing-around technique in a fixed-path interferometer
Temperature, K	Speed of sound, m/s	uncertainty
288.15	1466.25	1.22
293.15	1482.66	1.22
298.15	1497	1.22
303.15	1509.44	1.22
308.15	1520.12	1.23
313.15	1529.18	1.23

System: water + 1-dodecyl-3-methylimidazolium bromide; phases: Liquid
Fixed: Pressure, kPa = 84.51
Property: Mass density, kg/m3 (Liquid); method: Vibrating tube method
Temperature, K	Molality, mol/kg of 1-dodecyl-3-methylimidazolium bromide	Mass density, kg/m3	uncertainty
288.15	0	999.099	0.106
288.15	0.00233	999.188	0.106
288.15	0.00278	999.209	0.106
288.15	0.00301	999.216	0.106
288.15	0.00467	999.282	0.106
288.15	0.00501	999.296	0.106
288.15	0.00665	999.36	0.106
288.15	0.00889	999.451	0.106
288.15	0.00906	999.458	0.106
288.15	0.01229	999.569	0.106
288.15	0.01511	999.659	0.106
288.15	0.01804	999.736	0.106
288.15	0.02431	999.927	0.107
288.15	0.03042	1000.122	0.107
288.15	0.04595	1000.596	0.107
288.15	0.06124	1001.058	0.107
288.15	0.07667	1001.514	0.108
288.15	0.098	1002.147	0.108
288.15	0.10952	1002.498	0.108
293.15	0	998.203	0.107
293.15	0.00233	998.288	0.109
293.15	0.00278	998.306	0.106
293.15	0.00301	998.314	0.112
293.15	0.00467	998.376	0.111
293.15	0.00501	998.39	0.109
293.15	0.00665	998.451	0.107
293.15	0.00889	998.538	0.12
293.15	0.00906	998.544	0.117
293.15	0.01229	998.652	0.107
293.15	0.01511	998.738	0.107
293.15	0.01804	998.815	0.107
293.15	0.02431	998.999	0.107
293.15	0.03042	999.185	0.107
293.15	0.04595	999.641	0.107
293.15	0.06124	1000.087	0.107
293.15	0.07667	1000.529	0.108
293.15	0.098	1001.14	0.108
293.15	0.10952	1001.479	0.108
298.15	0	997.043	0.107
298.15	0.00233	997.123	0.109
298.15	0.00278	997.142	0.107
298.15	0.00301	997.148	0.111
298.15	0.00467	997.208	0.11
298.15	0.00501	997.221	0.108
298.15	0.00665	997.28	0.107
298.15	0.00889	997.362	0.117
298.15	0.00906	997.366	0.115
298.15	0.01229	997.472	0.107
298.15	0.01511	997.555	0.107
298.15	0.01804	997.629	0.107
298.15	0.02431	997.806	0.107
298.15	0.03042	997.989	0.107
298.15	0.04595	998.429	0.107
298.15	0.06124	998.861	0.107
298.15	0.07667	999.288	0.108
298.15	0.098	999.878	0.108
298.15	0.10952	1000.207	0.108
303.15	0	995.645	0.107
303.15	0.00233	995.721	0.109
303.15	0.00278	995.74	0.107
303.15	0.00301	995.746	0.111
303.15	0.00467	995.801	0.11
303.15	0.00501	995.814	0.108
303.15	0.00665	995.873	0.107
303.15	0.00889	995.95	0.116
303.15	0.00906	995.955	0.114
303.15	0.01229	996.058	0.107
303.15	0.01511	996.137	0.107
303.15	0.01804	996.207	0.107
303.15	0.02431	996.381	0.107
303.15	0.03042	996.556	0.107
303.15	0.04595	996.985	0.107
303.15	0.06124	997.402	0.108
303.15	0.07667	997.814	0.108
303.15	0.098	998.386	0.108
303.15	0.10952	998.705	0.108
308.15	0	994.029	0.107
308.15	0.00233	994.1	0.109
308.15	0.00278	994.121	0.107
308.15	0.00301	994.125	0.11
308.15	0.00467	994.18	0.11
308.15	0.00501	994.193	0.108
308.15	0.00665	994.246	0.107
308.15	0.00889	994.32	0.115
308.15	0.00906	994.325	0.113
308.15	0.01229	994.423	0.107
308.15	0.01511	994.502	0.107
308.15	0.01804	994.571	0.107
308.15	0.02431	994.739	0.107
308.15	0.03042	994.91	0.107
308.15	0.04595	995.323	0.108
308.15	0.06124	995.729	0.108
308.15	0.07667	996.129	0.108
308.15	0.098	996.685	0.108
308.15	0.10952	996.993	0.109
313.15	0	992.212	0.107
313.15	0.00233	992.28	0.107
313.15	0.00278	992.299	0.107
313.15	0.00301	992.305	0.107
313.15	0.00467	992.357	0.107
313.15	0.00501	992.368	0.107
313.15	0.00665	992.422	0.107
313.15	0.00889	992.489	0.107
313.15	0.00906	992.495	0.107
313.15	0.01229	992.591	0.107
313.15	0.01511	992.671	0.107
313.15	0.01804	992.736	0.107
313.15	0.02431	992.896	0.108
313.15	0.03042	993.064	0.108
313.15	0.04595	993.467	0.108
313.15	0.06124	993.86	0.108
313.15	0.07667	994.248	0.108
313.15	0.098	994.79	0.109
313.15	0.10952	995.087	0.109

System: water + 1-dodecyl-3-methylimidazolium bromide; phases: Liquid
Fixed: Pressure, kPa = 84.51
Fixed: Frequency, MHz = 3
Property: Speed of sound, m/s (Liquid); method: Sing-around technique in a fixed-path interferometer
Temperature, K	Molality, mol/kg of 1-dodecyl-3-methylimidazolium bromide	Speed of sound, m/s	uncertainty
288.15	0	1466.25	1.22
288.15	0.00233	1467.33	1.22
288.15	0.00278	1467.36	1.22
288.15	0.00301	1467.47	1.22
288.15	0.00467	1467.68	1.22
288.15	0.00501	1467.91	1.22
288.15	0.00665	1468.38	1.22
288.15	0.00889	1469.01	1.22
288.15	0.00906	1469.02	1.22
288.15	0.01229	1469.37	1.22
288.15	0.01511	1469.43	1.22
288.15	0.01804	1469.52	1.22
288.15	0.02431	1469.61	1.22
288.15	0.03042	1469.67	1.22
288.15	0.04595	1469.95	1.22
288.15	0.06124	1470.18	1.22
288.15	0.07667	1470.48	1.23
288.15	0.098	1470.96	1.23
288.15	0.10952	1471.14	1.23
293.15	0	1482.66	1.22
293.15	0.00233	1483.26	1.23
293.15	0.00278	1483.26	1.22
293.15	0.00301	1483.41	1.24
293.15	0.00467	1483.65	1.24
293.15	0.00501	1483.87	1.23
293.15	0.00665	1484.19	1.22
293.15	0.00889	1484.82	1.27
293.15	0.00906	1484.83	1.27
293.15	0.01229	1485.11	1.22
293.15	0.01511	1485.12	1.22
293.15	0.01804	1485.2	1.22
293.15	0.02431	1485.23	1.22
293.15	0.03042	1485.26	1.22
293.15	0.04595	1485.38	1.22
293.15	0.06124	1485.48	1.23
293.15	0.07667	1485.67	1.23
293.15	0.098	1485.95	1.23
293.15	0.10952	1486.09	1.23
298.15	0	1497	1.22
298.15	0.00233	1497.41	1.23
298.15	0.00278	1497.4	1.22
298.15	0.00301	1497.56	1.24
298.15	0.00467	1497.75	1.24
298.15	0.00501	1497.87	1.23
298.15	0.00665	1498.24	1.22
298.15	0.00889	1498.83	1.28
298.15	0.00906	1498.84	1.28
298.15	0.01229	1499.07	1.22
298.15	0.01511	1499.06	1.22
298.15	0.01804	1499.12	1.22
298.15	0.02431	1499.1	1.22
298.15	0.03042	1499.06	1.23
298.15	0.04595	1499.07	1.23
298.15	0.06124	1499.04	1.23
298.15	0.07667	1499.09	1.23
298.15	0.098	1499.17	1.23
298.15	0.10952	1499.21	1.23
303.15	0	1509.44	1.22
303.15	0.00233	1509.65	1.23
303.15	0.00278	1509.66	1.22
303.15	0.00301	1509.82	1.24
303.15	0.00467	1510.03	1.24
303.15	0.00501	1510.05	1.23
303.15	0.00665	1510.39	1.22
303.15	0.00889	1510.97	1.27
303.15	0.00906	1510.95	1.27
303.15	0.01229	1511.2	1.23
303.15	0.01511	1511.15	1.23
303.15	0.01804	1511.19	1.23
303.15	0.02431	1511.1	1.23
303.15	0.03042	1511.05	1.23
303.15	0.04595	1510.89	1.23
303.15	0.06124	1510.75	1.23
303.15	0.07667	1510.66	1.23
303.15	0.098	1510.55	1.23
303.15	0.10952	1510.48	1.24
308.15	0	1520.12	1.23
308.15	0.00233	1520.26	1.23
308.15	0.00278	1520.23	1.23
308.15	0.00301	1520.4	1.24
308.15	0.00467	1520.6	1.24
308.15	0.00501	1520.6	1.24
308.15	0.00665	1520.9	1.23
308.15	0.00889	1521.42	1.26
308.15	0.00906	1521.42	1.26
308.15	0.01229	1521.66	1.23
308.15	0.01511	1521.6	1.23
308.15	0.01804	1521.6	1.23
308.15	0.02431	1521.48	1.23
308.15	0.03042	1521.36	1.23
308.15	0.04595	1521.08	1.23
308.15	0.06124	1520.8	1.23
308.15	0.07667	1520.66	1.23
308.15	0.098	1520.26	1.24
308.15	0.10952	1520.12	1.24
313.15	0	1529.18	1.23
313.15	0.00233	1529.28	1.23
313.15	0.00278	1529.26	1.23
313.15	0.00301	1529.41	1.23
313.15	0.00467	1529.6	1.23
313.15	0.00501	1529.58	1.23
313.15	0.00665	1529.84	1.23
313.15	0.00889	1530.33	1.23
313.15	0.00906	1530.34	1.23
313.15	0.01229	1530.57	1.23
313.15	0.01511	1530.49	1.23
313.15	0.01804	1530.47	1.23
313.15	0.02431	1530.31	1.23
313.15	0.03042	1530.13	1.23
313.15	0.04595	1529.72	1.23
313.15	0.06124	1529.31	1.23
313.15	0.07667	1528.98	1.24
313.15	0.098	1528.46	1.24
313.15	0.10952	1528.22	1.24

System: potassium chloride + water + 1-dodecyl-3-methylimidazolium bromide; phases: Liquid
Fixed: Pressure, kPa = 84.51
Fixed: Solvent: Molality, mol/kg of potassium chloride = 0.035
Property: Mass density, kg/m3 (Liquid); method: Vibrating tube method
Temperature, K	Molality, mol/kg of 1-dodecyl-3-methylimidazolium bromide	Mass density, kg/m3	uncertainty
288.15	0	1000.789	0.201
288.15	0.00115	1000.831	0.201
288.15	0.00211	1000.87	0.201
288.15	0.0025	1000.882	0.201
288.15	0.00288	1000.9	0.201
288.15	0.00418	1000.95	0.201
288.15	0.00501	1000.98	0.201
288.15	0.00551	1000.996	0.201
288.15	0.00627	1001.028	0.201
288.15	0.00762	1001.074	0.201
288.15	0.00844	1001.1	0.201
288.15	0.0098	1001.146	0.201
288.15	0.01225	1001.213	0.202
288.15	0.01406	1001.263	0.202
288.15	0.01527	1001.301	0.202
288.15	0.01704	1001.349	0.202
288.15	0.01947	1001.416	0.202
288.15	0.022	1001.483	0.202
288.15	0.02698	1001.628	0.202
288.15	0.03169	1001.765	0.202
288.15	0.04352	1002.108	0.202
288.15	0.06096	1002.593	0.202
288.15	0.07616	1003.005	0.203
288.15	0.0991	1003.604	0.203
293.15	0	999.873	0.201
293.15	0.00115	999.916	0.201
293.15	0.00211	999.951	0.201
293.15	0.0025	999.962	0.201
293.15	0.00288	999.982	0.201
293.15	0.00418	1000.028	0.201
293.15	0.00501	1000.056	0.201
293.15	0.00551	1000.072	0.201
293.15	0.00627	1000.101	0.201
293.15	0.00762	1000.144	0.201
293.15	0.00844	1000.169	0.201
293.15	0.0098	1000.215	0.201
293.15	0.01225	1000.28	0.201
293.15	0.01406	1000.328	0.201
293.15	0.01527	1000.365	0.201
293.15	0.01704	1000.41	0.201
293.15	0.01947	1000.475	0.201
293.15	0.022	1000.54	0.201
293.15	0.02698	1000.679	0.201
293.15	0.03169	1000.812	0.201
293.15	0.04352	1001.141	0.201
293.15	0.06096	1001.607	0.202
293.15	0.07616	1002.004	0.202
293.15	0.0991	1002.579	0.202
298.15	0	998.698	0.201
298.15	0.00115	998.736	0.201
298.15	0.00211	998.772	0.201
298.15	0.0025	998.783	0.201
298.15	0.00288	998.8	0.201
298.15	0.00418	998.845	0.201
298.15	0.00501	998.874	0.201
298.15	0.00551	998.887	0.201
298.15	0.00627	998.915	0.201
298.15	0.00762	998.957	0.201
298.15	0.00844	998.981	0.201
298.15	0.0098	999.024	0.201
298.15	0.01225	999.087	0.201
298.15	0.01406	999.134	0.201
298.15	0.01527	999.169	0.201
298.15	0.01704	999.213	0.201
298.15	0.01947	999.274	0.201
298.15	0.022	999.338	0.201
298.15	0.02698	999.472	0.201
298.15	0.03169	999.602	0.201
298.15	0.04352	999.918	0.201
298.15	0.06096	1000.365	0.201
298.15	0.07616	1000.749	0.201
298.15	0.0991	1001.3	0.202
303.15	0	997.288	0.201
303.15	0.00115	997.327	0.201
303.15	0.00211	997.359	0.201
303.15	0.0025	997.369	0.201
303.15	0.00288	997.385	0.201
303.15	0.00418	997.429	0.201
303.15	0.00501	997.454	0.201
303.15	0.00551	997.469	0.201
303.15	0.00627	997.497	0.201
303.15	0.00762	997.535	0.201
303.15	0.00844	997.559	0.201
303.15	0.0098	997.6	0.201
303.15	0.01225	997.662	0.201
303.15	0.01406	997.705	0.201
303.15	0.01527	997.739	0.201
303.15	0.01704	997.782	0.201
303.15	0.01947	997.844	0.201
303.15	0.022	997.904	0.201
303.15	0.02698	998.033	0.201
303.15	0.03169	998.158	0.201
303.15	0.04352	998.463	0.201
303.15	0.06096	998.894	0.201
303.15	0.07616	999.266	0.201
303.15	0.0991	999.799	0.201
308.15	0	995.661	0.201
308.15	0.00115	995.697	0.201
308.15	0.00211	995.73	0.201
308.15	0.0025	995.74	0.201
308.15	0.00288	995.755	0.201
308.15	0.00418	995.798	0.201
308.15	0.00501	995.82	0.201
308.15	0.00551	995.835	0.201
308.15	0.00627	995.862	0.201
308.15	0.00762	995.901	0.201
308.15	0.00844	995.924	0.201
308.15	0.0098	995.963	0.201
308.15	0.01225	996.022	0.201
308.15	0.01406	996.065	0.201
308.15	0.01527	996.099	0.201
308.15	0.01704	996.139	0.201
308.15	0.01947	996.197	0.201
308.15	0.022	996.255	0.201
308.15	0.02698	996.381	0.201
308.15	0.03169	996.504	0.201
308.15	0.04352	996.799	0.201
308.15	0.06096	997.214	0.201
308.15	0.07616	997.575	0.201
308.15	0.0991	998.085	0.201
313.15	0	993.836	0.201
313.15	0.00115	993.869	0.201
313.15	0.00211	993.901	0.201
313.15	0.0025	993.911	0.201
313.15	0.00288	993.926	0.201
313.15	0.00418	993.966	0.201
313.15	0.00501	993.99	0.201
313.15	0.00551	994.003	0.201
313.15	0.00627	994.029	0.201
313.15	0.00762	994.067	0.201
313.15	0.00844	994.087	0.201
313.15	0.0098	994.127	0.201
313.15	0.01225	994.186	0.201
313.15	0.01406	994.226	0.201
313.15	0.01527	994.257	0.201
313.15	0.01704	994.297	0.201
313.15	0.01947	994.355	0.201
313.15	0.022	994.412	0.201
313.15	0.02698	994.534	0.201
313.15	0.03169	994.651	0.201
313.15	0.04352	994.938	0.201
313.15	0.06096	995.338	0.201
313.15	0.07616	995.688	0.201
313.15	0.0991	996.183	0.201

System: potassium chloride + water + 1-dodecyl-3-methylimidazolium bromide; phases: Liquid
Fixed: Pressure, kPa = 84.51
Fixed: Solvent: Molality, mol/kg of potassium chloride = 0.035
Fixed: Frequency, MHz = 3
Property: Speed of sound, m/s (Liquid); method: Sing-around technique in a fixed-path interferometer
Temperature, K	Molality, mol/kg of 1-dodecyl-3-methylimidazolium bromide	Speed of sound, m/s	uncertainty
288.15	0	1468.55	1.5
288.15	0.00115	1469	1.5
288.15	0.00211	1469.2	1.5
288.15	0.0025	1469.38	1.5
288.15	0.00288	1469.52	1.5
288.15	0.00418	1469.83	1.5
288.15	0.00501	1469.99	1.5
288.15	0.00551	1470.12	1.5
288.15	0.00627	1470.26	1.5
288.15	0.00762	1470.42	1.5
288.15	0.00844	1470.45	1.5
288.15	0.0098	1470.46	1.5
288.15	0.01225	1470.47	1.5
288.15	0.01406	1470.51	1.5
288.15	0.01527	1470.55	1.5
288.15	0.01704	1470.57	1.5
288.15	0.01947	1470.63	1.5
288.15	0.022	1470.65	1.5
288.15	0.02698	1470.74	1.5
288.15	0.03169	1470.84	1.5
288.15	0.04352	1471.07	1.5
288.15	0.06096	1471.36	1.5
288.15	0.07616	1471.7	1.5
288.15	0.0991	1472.07	1.5
293.15	0	1484.54	1.5
293.15	0.00115	1484.89	1.5
293.15	0.00211	1485.08	1.5
293.15	0.0025	1485.21	1.5
293.15	0.00288	1485.34	1.5
293.15	0.00418	1485.62	1.5
293.15	0.00501	1485.75	1.5
293.15	0.00551	1485.87	1.5
293.15	0.00627	1486.02	1.5
293.15	0.00762	1486.1	1.5
293.15	0.00844	1486.11	1.5
293.15	0.0098	1486.07	1.5
293.15	0.01225	1486.13	1.5
293.15	0.01406	1486.16	1.5
293.15	0.01527	1486.18	1.5
293.15	0.01704	1486.2	1.5
293.15	0.01947	1486.21	1.5
293.15	0.022	1486.24	1.5
293.15	0.02698	1486.29	1.5
293.15	0.03169	1486.35	1.5
293.15	0.04352	1486.47	1.5
293.15	0.06096	1486.59	1.5
293.15	0.07616	1486.81	1.5
293.15	0.0991	1486.96	1.5
298.15	0	1498.65	1.51
298.15	0.00115	1498.97	1.5
298.15	0.00211	1499.14	1.5
298.15	0.0025	1499.25	1.5
298.15	0.00288	1499.36	1.51
298.15	0.00418	1499.62	1.5
298.15	0.00501	1499.73	1.5
298.15	0.00551	1499.85	1.5
298.15	0.00627	1499.98	1.5
298.15	0.00762	1500.04	1.5
298.15	0.00844	1500.05	1.5
298.15	0.0098	1499.99	1.5
298.15	0.01225	1500.04	1.5
298.15	0.01406	1500.04	1.5
298.15	0.01527	1500.04	1.5
298.15	0.01704	1500.08	1.5
298.15	0.01947	1500.06	1.5
298.15	0.022	1500.06	1.5
298.15	0.02698	1500.08	1.5
298.15	0.03169	1500.1	1.5
298.15	0.04352	1500.09	1.5
298.15	0.06096	1500.05	1.5
298.15	0.07616	1500.05	1.5
298.15	0.0991	1500.07	1.5
303.15	0	1510.94	1.51
303.15	0.00115	1511.17	1.51
303.15	0.00211	1511.32	1.51
303.15	0.0025	1511.41	1.51
303.15	0.00288	1511.52	1.51
303.15	0.00418	1511.75	1.51
303.15	0.00501	1511.86	1.51
303.15	0.00551	1511.97	1.51
303.15	0.00627	1512.08	1.51
303.15	0.00762	1512.14	1.51
303.15	0.00844	1512.07	1.51
303.15	0.0098	1512.11	1.51
303.15	0.01225	1512.09	1.51
303.15	0.01406	1512.09	1.51
303.15	0.01527	1512.09	1.51
303.15	0.01704	1512.1	1.51
303.15	0.01947	1512.06	1.51
303.15	0.022	1512.03	1.51
303.15	0.02698	1512.01	1.51
303.15	0.03169	1512	1.51
303.15	0.04352	1511.88	1.51
303.15	0.06096	1511.66	1.51
303.15	0.07616	1511.65	1.51
303.15	0.0991	1511.34	1.51
308.15	0	1521.5	1.51
308.15	0.00115	1521.72	1.51
308.15	0.00211	1521.86	1.51
308.15	0.0025	1521.94	1.51
308.15	0.00288	1522.03	1.51
308.15	0.00418	1522.23	1.51
308.15	0.00501	1522.33	1.51
308.15	0.00551	1522.41	1.51
308.15	0.00627	1522.53	1.51
308.15	0.00762	1522.58	1.51
308.15	0.00844	1522.52	1.51
308.15	0.0098	1522.58	1.51
308.15	0.01225	1522.52	1.51
308.15	0.01406	1522.51	1.51
308.15	0.01527	1522.49	1.51
308.15	0.01704	1522.5	1.51
308.15	0.01947	1522.52	1.51
308.15	0.022	1522.38	1.51
308.15	0.02698	1522.32	1.51
308.15	0.03169	1522.27	1.51
308.15	0.04352	1522.01	1.51
308.15	0.06096	1521.64	1.51
308.15	0.07616	1521.51	1.51
308.15	0.0991	1520.98	1.51
313.15	0	1530.51	1.51
313.15	0.00115	1530.71	1.51
313.15	0.00211	1530.83	1.51
313.15	0.0025	1530.89	1.51
313.15	0.00288	1530.99	1.51
313.15	0.00418	1531.16	1.51
313.15	0.00501	1531.24	1.51
313.15	0.00551	1531.33	1.51
313.15	0.00627	1531.42	1.51
313.15	0.00762	1531.49	1.51
313.15	0.00844	1531.43	1.51
313.15	0.0098	1531.48	1.51
313.15	0.01225	1531.39	1.51
313.15	0.01406	1531.37	1.51
313.15	0.01527	1531.34	1.51
313.15	0.01704	1531.34	1.51
313.15	0.01947	1531.28	1.51
313.15	0.022	1531.18	1.51
313.15	0.02698	1531.08	1.51
313.15	0.03169	1530.99	1.51
313.15	0.04352	1530.63	1.51
313.15	0.06096	1530.08	1.51
313.15	0.07616	1529.84	1.51
313.15	0.0991	1529.1	1.51

System: water + ammonium chloride (NH4Cl) + 1-dodecyl-3-methylimidazolium bromide; phases: Liquid
Fixed: Pressure, kPa = 84.51
Fixed: Solvent: Molality, mol/kg of ammonium chloride (NH4Cl) = 0.035
Property: Mass density, kg/m3 (Liquid); method: Vibrating tube method
Temperature, K	Molality, mol/kg of 1-dodecyl-3-methylimidazolium bromide	Mass density, kg/m3	uncertainty
288.15	0	999.719	0.175
288.15	0.00113	999.762	0.175
288.15	0.002	999.798	0.175
288.15	0.00261	999.821	0.175
288.15	0.00286	999.828	0.175
288.15	0.00372	999.864	0.175
288.15	0.0044	999.89	0.175
288.15	0.00496	999.911	0.175
288.15	0.00545	999.929	0.175
288.15	0.00606	999.949	0.175
288.15	0.00901	1000.044	0.175
288.15	0.01212	1000.143	0.175
288.15	0.01521	1000.231	0.175
288.15	0.01785	1000.305	0.175
288.15	0.02151	1000.417	0.175
288.15	0.02633	1000.56	0.175
288.15	0.03028	1000.681	0.175
288.15	0.04741	1001.184	0.175
288.15	0.05833	1001.499	0.175
288.15	0.06098	1001.567	0.176
288.15	0.07719	1002.011	0.176
288.15	0.09686	1002.542	0.176
288.15	0.00113	999.762	0.175
288.15	0.002	999.798	0.175
288.15	0.00261	999.821	0.175
288.15	0.00286	999.828	0.175
288.15	0.00372	999.864	0.175
288.15	0.0044	999.89	0.175
288.15	0.00496	999.911	0.175
288.15	0.00545	999.929	0.175
288.15	0.00606	999.949	0.175
288.15	0.00901	1000.044	0.175
288.15	0.01212	1000.143	0.175
288.15	0.01521	1000.231	0.175
288.15	0.01785	1000.305	0.175
288.15	0.02151	1000.417	0.175
288.15	0.02633	1000.56	0.175
288.15	0.03028	1000.681	0.175
288.15	0.04741	1001.184	0.175
288.15	0.05833	1001.499	0.175
288.15	0.06098	1001.567	0.176
288.15	0.07719	1002.011	0.176
288.15	0.09686	1002.542	0.176
293.15	0	998.814	0.175
293.15	0.00113	998.856	0.175
293.15	0.002	998.887	0.175
293.15	0.00261	998.91	0.175
293.15	0.00286	998.921	0.175
293.15	0.00372	998.952	0.175
293.15	0.0044	998.977	0.175
293.15	0.00496	998.997	0.175
293.15	0.00545	999.013	0.175
293.15	0.00606	999.032	0.175
293.15	0.00901	999.123	0.175
293.15	0.01212	999.218	0.175
293.15	0.01521	999.302	0.175
293.15	0.01785	999.375	0.175
293.15	0.02151	999.483	0.175
293.15	0.02633	999.623	0.175
293.15	0.03028	999.736	0.175
293.15	0.04741	1000.222	0.175
293.15	0.05833	1000.522	0.175
293.15	0.06098	1000.588	0.175
293.15	0.07719	1001.018	0.175
293.15	0.09686	1001.529	0.176
293.15	0.00113	998.856	0.175
293.15	0.002	998.887	0.175
293.15	0.00261	998.91	0.175
293.15	0.00286	998.921	0.175
293.15	0.00372	998.952	0.175
293.15	0.0044	998.977	0.175
293.15	0.00496	998.997	0.175
293.15	0.00545	999.013	0.175
293.15	0.00606	999.032	0.175
293.15	0.00901	999.123	0.175
293.15	0.01212	999.218	0.175
293.15	0.01521	999.302	0.175
293.15	0.01785	999.375	0.175
293.15	0.02151	999.483	0.175
293.15	0.02633	999.623	0.175
293.15	0.03028	999.736	0.175
293.15	0.04741	1000.222	0.175
293.15	0.05833	1000.522	0.175
293.15	0.06098	1000.588	0.175
293.15	0.07719	1001.018	0.175
293.15	0.09686	1001.529	0.176
298.15	0	997.645	0.175
298.15	0.00113	997.685	0.175
298.15	0.002	997.717	0.175
298.15	0.00261	997.737	0.175
298.15	0.00286	997.745	0.175
298.15	0.00372	997.778	0.175
298.15	0.0044	997.801	0.175
298.15	0.00496	997.821	0.175
298.15	0.00545	997.836	0.175
298.15	0.00606	997.853	0.175
298.15	0.00901	997.942	0.175
298.15	0.01212	998.034	0.175
298.15	0.01521	998.116	0.175
298.15	0.01785	998.186	0.175
298.15	0.02151	998.289	0.175
298.15	0.02633	998.425	0.175
298.15	0.03028	998.534	0.175
298.15	0.04741	999.002	0.175
298.15	0.05833	999.288	0.175
298.15	0.06098	999.356	0.175
298.15	0.07719	999.77	0.175
298.15	0.09686	1000.263	0.175
298.15	0.00113	997.685	0.175
298.15	0.002	997.717	0.175
298.15	0.00261	997.737	0.175
298.15	0.00286	997.745	0.175
298.15	0.00372	997.778	0.175
298.15	0.0044	997.801	0.175
298.15	0.00496	997.821	0.175
298.15	0.00545	997.836	0.175
298.15	0.00606	997.853	0.175
298.15	0.00901	997.942	0.175
298.15	0.01212	998.034	0.175
298.15	0.01521	998.116	0.175
298.15	0.01785	998.186	0.175
298.15	0.02151	998.289	0.175
298.15	0.02633	998.425	0.175
298.15	0.03028	998.534	0.175
298.15	0.04741	999.002	0.175
298.15	0.05833	999.288	0.175
298.15	0.06098	999.356	0.175
298.15	0.07719	999.77	0.175
298.15	0.09686	1000.263	0.175
303.15	0	996.243	0.175
303.15	0.00113	996.28	0.175
303.15	0.002	996.311	0.175
303.15	0.00261	996.33	0.175
303.15	0.00286	996.34	0.175
303.15	0.00372	996.37	0.175
303.15	0.0044	996.391	0.175
303.15	0.00496	996.411	0.175
303.15	0.00545	996.426	0.175
303.15	0.00606	996.441	0.175
303.15	0.00901	996.528	0.175
303.15	0.01212	996.616	0.175
303.15	0.01521	996.694	0.175
303.15	0.01785	996.763	0.175
303.15	0.02151	996.862	0.175
303.15	0.02633	996.994	0.175
303.15	0.03028	997.099	0.175
303.15	0.04741	997.555	0.175
303.15	0.05833	997.825	0.175
303.15	0.06098	997.893	0.175
303.15	0.07719	998.295	0.175
303.15	0.09686	998.768	0.175
303.15	0.00113	996.28	0.175
303.15	0.002	996.311	0.175
303.15	0.00261	996.33	0.175
303.15	0.00286	996.34	0.175
303.15	0.00372	996.37	0.175
303.15	0.0044	996.391	0.175
303.15	0.00496	996.411	0.175
303.15	0.00545	996.426	0.175
303.15	0.00606	996.441	0.175
303.15	0.00901	996.528	0.175
303.15	0.01212	996.616	0.175
303.15	0.01521	996.694	0.175
303.15	0.01785	996.763	0.175
303.15	0.02151	996.862	0.175
303.15	0.02633	996.994	0.175
303.15	0.03028	997.099	0.175
303.15	0.04741	997.555	0.175
303.15	0.05833	997.825	0.175
303.15	0.06098	997.893	0.175
303.15	0.07719	998.295	0.175
303.15	0.09686	998.768	0.175
308.15	0	994.624	0.176
308.15	0.00113	994.659	0.175
308.15	0.002	994.689	0.175
308.15	0.00261	994.708	0.175
308.15	0.00286	994.716	0.176
308.15	0.00372	994.746	0.175
308.15	0.0044	994.767	0.175
308.15	0.00496	994.786	0.175
308.15	0.00545	994.801	0.175
308.15	0.00606	994.815	0.176
308.15	0.00901	994.898	0.175
308.15	0.01212	994.984	0.175
308.15	0.01521	995.061	0.175
308.15	0.01785	995.126	0.175
308.15	0.02151	995.224	0.175
308.15	0.02633	995.35	0.175
308.15	0.03028	995.451	0.175
308.15	0.04741	995.892	0.175
308.15	0.05833	996.152	0.175
308.15	0.06098	996.22	0.175
308.15	0.07719	996.607	0.175
308.15	0.09686	997.066	0.175
308.15	0.00113	994.659	0.175
308.15	0.002	994.689	0.175
308.15	0.00261	994.708	0.175
308.15	0.00286	994.716	0.176
308.15	0.00372	994.746	0.175
308.15	0.0044	994.767	0.175
308.15	0.00496	994.786	0.175
308.15	0.00545	994.801	0.175
308.15	0.00606	994.815	0.176
308.15	0.00901	994.898	0.175
308.15	0.01212	994.984	0.175
308.15	0.01521	995.061	0.175
308.15	0.01785	995.126	0.175
308.15	0.02151	995.224	0.175
308.15	0.02633	995.35	0.175
308.15	0.03028	995.451	0.175
308.15	0.04741	995.892	0.175
308.15	0.05833	996.152	0.175
308.15	0.06098	996.22	0.175
308.15	0.07719	996.607	0.175
308.15	0.09686	997.066	0.175
313.15	0	992.807	0.176
313.15	0.00113	992.841	0.176
313.15	0.002	992.868	0.176
313.15	0.00261	992.887	0.176
313.15	0.00286	992.895	0.176
313.15	0.00372	992.922	0.176
313.15	0.0044	992.944	0.176
313.15	0.00496	992.96	0.176
313.15	0.00545	992.974	0.176
313.15	0.00606	992.989	0.176
313.15	0.00901	993.07	0.176
313.15	0.01212	993.152	0.176
313.15	0.01521	993.227	0.176
313.15	0.01785	993.293	0.176
313.15	0.02151	993.385	0.176
313.15	0.02633	993.508	0.176
313.15	0.03028	993.606	0.176
313.15	0.04741	994.035	0.176
313.15	0.05833	994.284	0.175
313.15	0.06098	994.35	0.175
313.15	0.07719	994.725	0.175
313.15	0.09686	995.17	0.175
313.15	0.00113	992.841	0.176
313.15	0.002	992.868	0.176
313.15	0.00261	992.887	0.176
313.15	0.00286	992.895	0.176
313.15	0.00372	992.922	0.176
313.15	0.0044	992.944	0.176
313.15	0.00496	992.96	0.176
313.15	0.00545	992.974	0.176
313.15	0.00606	992.989	0.176
313.15	0.00901	993.07	0.176
313.15	0.01212	993.152	0.176
313.15	0.01521	993.227	0.176
313.15	0.01785	993.293	0.176
313.15	0.02151	993.385	0.176
313.15	0.02633	993.508	0.176
313.15	0.03028	993.606	0.176
313.15	0.04741	994.035	0.176
313.15	0.05833	994.284	0.175
313.15	0.06098	994.35	0.175
313.15	0.07719	994.725	0.175
313.15	0.09686	995.17	0.175

System: water + ammonium chloride (NH4Cl) + 1-dodecyl-3-methylimidazolium bromide; phases: Liquid
Fixed: Pressure, kPa = 84.51
Fixed: Solvent: Molality, mol/kg of ammonium chloride (NH4Cl) = 0.035
Fixed: Frequency, MHz = 3
Property: Speed of sound, m/s (Liquid); method: Sing-around technique in a fixed-path interferometer
Temperature, K	Molality, mol/kg of 1-dodecyl-3-methylimidazolium bromide	Speed of sound, m/s	uncertainty
288.15	0	1468.19	1.44
288.15	0.00113	1468.61	1.44
288.15	0.002	1468.9	1.44
288.15	0.00261	1469.03	1.44
288.15	0.00286	1469.11	1.44
288.15	0.00372	1469.38	1.44
288.15	0.0044	1469.44	1.44
288.15	0.00496	1469.66	1.44
288.15	0.00545	1469.79	1.44
288.15	0.00606	1469.86	1.44
288.15	0.00901	1470.09	1.44
288.15	0.01212	1470.11	1.44
288.15	0.01521	1470.14	1.44
288.15	0.01785	1470.22	1.44
288.15	0.02151	1470.29	1.44
288.15	0.02633	1470.42	1.44
288.15	0.03028	1470.51	1.44
288.15	0.04741	1470.85	1.44
288.15	0.05833	1470.98	1.44
288.15	0.06098	1471.01	1.44
288.15	0.07719	1471.3	1.44
288.15	0.09686	1471.64	1.44
288.15	0.00113	1468.61	1.44
288.15	0.002	1468.9	1.44
288.15	0.00261	1469.03	1.44
288.15	0.00286	1469.11	1.44
288.15	0.00372	1469.38	1.44
288.15	0.0044	1469.44	1.44
288.15	0.00496	1469.66	1.44
288.15	0.00545	1469.79	1.44
288.15	0.00606	1469.86	1.44
288.15	0.00901	1470.09	1.44
288.15	0.01212	1470.11	1.44
288.15	0.01521	1470.14	1.44
288.15	0.01785	1470.22	1.44
288.15	0.02151	1470.29	1.44
288.15	0.02633	1470.42	1.44
288.15	0.03028	1470.51	1.44
288.15	0.04741	1470.85	1.44
288.15	0.05833	1470.98	1.44
288.15	0.06098	1471.01	1.44
288.15	0.07719	1471.3	1.44
288.15	0.09686	1471.64	1.44
293.15	0	1484.22	1.45
293.15	0.00113	1484.55	1.45
293.15	0.002	1484.78	1.44
293.15	0.00261	1484.9	1.44
293.15	0.00286	1484.98	1.45
293.15	0.00372	1485.03	1.44
293.15	0.0044	1485.31	1.45
293.15	0.00496	1485.47	1.45
293.15	0.00545	1485.59	1.45
293.15	0.00606	1485.68	1.45
293.15	0.00901	1485.81	1.45
293.15	0.01212	1485.82	1.45
293.15	0.01521	1485.84	1.45
293.15	0.01785	1485.89	1.45
293.15	0.02151	1485.94	1.45
293.15	0.02633	1486.01	1.45
293.15	0.03028	1486.07	1.45
293.15	0.04741	1486.19	1.45
293.15	0.05833	1486.26	1.45
293.15	0.06098	1486.28	1.45
293.15	0.07719	1486.45	1.45
293.15	0.09686	1486.63	1.45
293.15	0.00113	1484.55	1.45
293.15	0.002	1484.78	1.44
293.15	0.00261	1484.9	1.44
293.15	0.00286	1484.98	1.45
293.15	0.00372	1485.03	1.44
293.15	0.0044	1485.31	1.45
293.15	0.00496	1485.47	1.45
293.15	0.00545	1485.59	1.45
293.15	0.00606	1485.68	1.45
293.15	0.00901	1485.81	1.45
293.15	0.01212	1485.82	1.45
293.15	0.01521	1485.84	1.45
293.15	0.01785	1485.89	1.45
293.15	0.02151	1485.94	1.45
293.15	0.02633	1486.01	1.45
293.15	0.03028	1486.07	1.45
293.15	0.04741	1486.19	1.45
293.15	0.05833	1486.26	1.45
293.15	0.06098	1486.28	1.45
293.15	0.07719	1486.45	1.45
293.15	0.09686	1486.63	1.45
298.15	0	1498.39	1.45
298.15	0.00113	1498.68	1.45
298.15	0.002	1498.88	1.45
298.15	0.00261	1499	1.45
298.15	0.00286	1499.06	1.45
298.15	0.00372	1499.11	1.45
298.15	0.0044	1499.36	1.45
298.15	0.00496	1499.49	1.45
298.15	0.00545	1499.61	1.45
298.15	0.00606	1499.68	1.45
298.15	0.00901	1499.78	1.45
298.15	0.01212	1499.77	1.45
298.15	0.01521	1499.77	1.45
298.15	0.01785	1499.8	1.45
298.15	0.02151	1499.81	1.45
298.15	0.02633	1499.85	1.45
298.15	0.03028	1499.86	1.45
298.15	0.04741	1499.9	1.45
298.15	0.05833	1499.91	1.45
298.15	0.06098	1499.93	1.45
298.15	0.07719	1499.92	1.45
298.15	0.09686	1499.89	1.45
298.15	0.00113	1498.68	1.45
298.15	0.002	1498.88	1.45
298.15	0.00261	1499	1.45
298.15	0.00286	1499.06	1.45
298.15	0.00372	1499.11	1.45
298.15	0.0044	1499.36	1.45
298.15	0.00496	1499.49	1.45
298.15	0.00545	1499.61	1.45
298.15	0.00606	1499.68	1.45
298.15	0.00901	1499.78	1.45
298.15	0.01212	1499.77	1.45
298.15	0.01521	1499.77	1.45
298.15	0.01785	1499.8	1.45
298.15	0.02151	1499.81	1.45
298.15	0.02633	1499.85	1.45
298.15	0.03028	1499.86	1.45
298.15	0.04741	1499.9	1.45
298.15	0.05833	1499.91	1.45
298.15	0.06098	1499.93	1.45
298.15	0.07719	1499.92	1.45
298.15	0.09686	1499.89	1.45
303.15	0	1510.73	1.45
303.15	0.00113	1510.95	1.45
303.15	0.002	1511.11	1.45
303.15	0.00261	1511.21	1.45
303.15	0.00286	1511.27	1.45
303.15	0.00372	1511.35	1.45
303.15	0.0044	1511.56	1.45
303.15	0.00496	1511.7	1.45
303.15	0.00545	1511.76	1.45
303.15	0.00606	1511.84	1.45
303.15	0.00901	1511.91	1.45
303.15	0.01212	1511.87	1.45
303.15	0.01521	1511.87	1.45
303.15	0.01785	1511.87	1.45
303.15	0.02151	1511.83	1.45
303.15	0.02633	1511.82	1.45
303.15	0.03028	1511.82	1.45
303.15	0.04741	1511.63	1.45
303.15	0.05833	1511.5	1.45
303.15	0.06098	1511.47	1.45
303.15	0.07719	1511.34	1.45
303.15	0.09686	1511.17	1.45
303.15	0.00113	1510.95	1.45
303.15	0.002	1511.11	1.45
303.15	0.00261	1511.21	1.45
303.15	0.00286	1511.27	1.45
303.15	0.00372	1511.35	1.45
303.15	0.0044	1511.56	1.45
303.15	0.00496	1511.7	1.45
303.15	0.00545	1511.76	1.45
303.15	0.00606	1511.84	1.45
303.15	0.00901	1511.91	1.45
303.15	0.01212	1511.87	1.45
303.15	0.01521	1511.87	1.45
303.15	0.01785	1511.87	1.45
303.15	0.02151	1511.83	1.45
303.15	0.02633	1511.82	1.45
303.15	0.03028	1511.82	1.45
303.15	0.04741	1511.63	1.45
303.15	0.05833	1511.5	1.45
303.15	0.06098	1511.47	1.45
303.15	0.07719	1511.34	1.45
303.15	0.09686	1511.17	1.45
308.15	0	1521.35	1.45
308.15	0.00113	1521.55	1.45
308.15	0.002	1521.69	1.45
308.15	0.00261	1521.77	1.45
308.15	0.00286	1521.84	1.45
308.15	0.00372	1521.88	1.45
308.15	0.0044	1522.08	1.45
308.15	0.00496	1522.17	1.45
308.15	0.00545	1522.27	1.45
308.15	0.00606	1522.35	1.45
308.15	0.00901	1522.41	1.45
308.15	0.01212	1522.34	1.45
308.15	0.01521	1522.29	1.45
308.15	0.01785	1522.26	1.45
308.15	0.02151	1522.22	1.45
308.15	0.02633	1522.17	1.45
308.15	0.03028	1522.09	1.45
308.15	0.04741	1521.79	1.45
308.15	0.05833	1521.56	1.45
308.15	0.06098	1521.52	1.45
308.15	0.07719	1521.24	1.45
308.15	0.09686	1520.88	1.45
308.15	0.00113	1521.55	1.45
308.15	0.002	1521.69	1.45
308.15	0.00261	1521.77	1.45
308.15	0.00286	1521.84	1.45
308.15	0.00372	1521.88	1.45
308.15	0.0044	1522.08	1.45
308.15	0.00496	1522.17	1.45
308.15	0.00545	1522.27	1.45
308.15	0.00606	1522.35	1.45
308.15	0.00901	1522.41	1.45
308.15	0.01212	1522.34	1.45
308.15	0.01521	1522.29	1.45
308.15	0.01785	1522.26	1.45
308.15	0.02151	1522.22	1.45
308.15	0.02633	1522.17	1.45
308.15	0.03028	1522.09	1.45
308.15	0.04741	1521.79	1.45
308.15	0.05833	1521.56	1.45
308.15	0.06098	1521.52	1.45
308.15	0.07719	1521.24	1.45
308.15	0.09686	1520.88	1.45
313.15	0	1530.38	1.45
313.15	0.00113	1530.57	1.45
313.15	0.002	1530.69	1.45
313.15	0.00261	1530.77	1.45
313.15	0.00286	1530.82	1.45
313.15	0.00372	1530.87	1.45
313.15	0.0044	1531.04	1.45
313.15	0.00496	1531.13	1.45
313.15	0.00545	1531.21	1.45
313.15	0.00606	1531.28	1.45
313.15	0.00901	1531.36	1.45
313.15	0.01212	1531.26	1.45
313.15	0.01521	1531.19	1.45
313.15	0.01785	1531.13	1.45
313.15	0.02151	1531.06	1.45
313.15	0.02633	1530.96	1.45
313.15	0.03028	1530.85	1.45
313.15	0.04741	1530.35	1.45
313.15	0.05833	1530.07	1.45
313.15	0.06098	1529.99	1.45
313.15	0.07719	1529.57	1.45
313.15	0.09686	1529.06	1.45
313.15	0.00113	1530.57	1.45
313.15	0.002	1530.69	1.45
313.15	0.00261	1530.77	1.45
313.15	0.00286	1530.82	1.45
313.15	0.00372	1530.87	1.45
313.15	0.0044	1531.04	1.45
313.15	0.00496	1531.13	1.45
313.15	0.00545	1531.21	1.45
313.15	0.00606	1531.28	1.45
313.15	0.00901	1531.36	1.45
313.15	0.01212	1531.26	1.45
313.15	0.01521	1531.19	1.45
313.15	0.01785	1531.13	1.45
313.15	0.02151	1531.06	1.45
313.15	0.02633	1530.96	1.45
313.15	0.03028	1530.85	1.45
313.15	0.04741	1530.35	1.45
313.15	0.05833	1530.07	1.45
313.15	0.06098	1529.99	1.45
313.15	0.07719	1529.57	1.45
313.15	0.09686	1529.06	1.45

System: tetramethylammonium chloride + water + 1-dodecyl-3-methylimidazolium bromide; phases: Liquid
Fixed: Pressure, kPa = 84.51
Fixed: Solvent: Molality, mol/kg of tetramethylammonium chloride = 0.035
Property: Mass density, kg/m3 (Liquid); method: Vibrating tube method
Temperature, K	Molality, mol/kg of 1-dodecyl-3-methylimidazolium bromide	Mass density, kg/m3	uncertainty
288.15	0	999.201	0.421
288.15	0.00116	999.246	0.421
288.15	0.00202	999.28	0.421
288.15	0.00259	999.301	0.421
288.15	0.00285	999.312	0.421
288.15	0.00365	999.343	0.421
288.15	0.00453	999.379	0.421
288.15	0.005	999.398	0.421
288.15	0.00526	999.406	0.421
288.15	0.00604	999.44	0.421
288.15	0.00882	999.524	0.421
288.15	0.01217	999.629	0.421
288.15	0.01539	999.728	0.421
288.15	0.01851	999.818	0.421
288.15	0.02096	999.881	0.421
288.15	0.02586	1000.017	0.421
288.15	0.03077	1000.151	0.422
288.15	0.04864	1000.631	0.422
288.15	0.06032	1000.967	0.423
288.15	0.07604	1001.426	0.423
288.15	0.09157	1001.869	0.424
293.15	0	998.29	0.421
293.15	0.00116	998.337	0.421
293.15	0.00202	998.366	0.421
293.15	0.00259	998.387	0.421
293.15	0.00285	998.398	0.421
293.15	0.00365	998.426	0.421
293.15	0.00453	998.462	0.421
293.15	0.005	998.479	0.421
293.15	0.00526	998.486	0.421
293.15	0.00604	998.518	0.421
293.15	0.00882	998.6	0.421
293.15	0.01217	998.701	0.421
293.15	0.01539	998.795	0.421
293.15	0.01851	998.882	0.421
293.15	0.02096	998.944	0.421
293.15	0.02586	999.074	0.421
293.15	0.03077	999.203	0.421
293.15	0.04864	999.67	0.421
293.15	0.06032	999.986	0.421
293.15	0.07604	1000.429	0.422
293.15	0.09157	1000.857	0.422
298.15	0	997.12	0.42
298.15	0.00116	997.163	0.42
298.15	0.00202	997.192	0.42
298.15	0.00259	997.211	0.42
298.15	0.00285	997.221	0.42
298.15	0.00365	997.251	0.42
298.15	0.00453	997.283	0.42
298.15	0.005	997.3	0.42
298.15	0.00526	997.306	0.42
298.15	0.00604	997.337	0.42
298.15	0.00882	997.417	0.42
298.15	0.01217	997.514	0.42
298.15	0.01539	997.603	0.421
298.15	0.01851	997.687	0.421
298.15	0.02096	997.747	0.421
298.15	0.02586	997.875	0.421
298.15	0.03077	997.997	0.421
298.15	0.04864	998.447	0.421
298.15	0.06032	998.748	0.421
298.15	0.07604	999.179	0.421
298.15	0.09157	999.591	0.421
303.15	0	995.716	0.42
303.15	0.00116	995.755	0.42
303.15	0.00202	995.783	0.42
303.15	0.00259	995.802	0.42
303.15	0.00285	995.811	0.42
303.15	0.00365	995.838	0.42
303.15	0.00453	995.869	0.42
303.15	0.005	995.886	0.42
303.15	0.00526	995.894	0.42
303.15	0.00604	995.924	0.42
303.15	0.00882	995.999	0.42
303.15	0.01217	996.092	0.42
303.15	0.01539	996.18	0.42
303.15	0.01851	996.262	0.42
303.15	0.02096	996.318	0.42
303.15	0.02586	996.442	0.42
303.15	0.03077	996.56	0.42
303.15	0.04864	996.997	0.42
303.15	0.06032	997.284	0.42
303.15	0.07604	997.702	0.421
303.15	0.09157	998.086	0.421
308.15	0	994.093	0.419
308.15	0.00116	994.134	0.419
308.15	0.00202	994.159	0.419
308.15	0.00259	994.177	0.419
308.15	0.00285	994.188	0.419
308.15	0.00365	994.214	0.419
308.15	0.00453	994.242	0.419
308.15	0.005	994.259	0.419
308.15	0.00526	994.265	0.419
308.15	0.00604	994.292	0.419
308.15	0.00882	994.367	0.419
308.15	0.01217	994.458	0.419
308.15	0.01539	994.543	0.419
308.15	0.01851	994.622	0.419
308.15	0.02096	994.676	0.419
308.15	0.02586	994.796	0.419
308.15	0.03077	994.909	0.419
308.15	0.04864	995.333	0.42
308.15	0.06032	995.607	0.42
308.15	0.07604	996.013	0.42
308.15	0.09157	996.393	0.42
313.15	0	992.272	0.418
313.15	0.00116	992.31	0.418
313.15	0.00202	992.336	0.418
313.15	0.00259	992.353	0.419
313.15	0.00285	992.363	0.419
313.15	0.00365	992.387	0.419
313.15	0.00453	992.414	0.419
313.15	0.005	992.429	0.419
313.15	0.00526	992.436	0.419
313.15	0.00604	992.463	0.419
313.15	0.00882	992.536	0.419
313.15	0.01217	992.624	0.419
313.15	0.01539	992.705	0.419
313.15	0.01851	992.783	0.419
313.15	0.02096	992.836	0.419
313.15	0.02586	992.952	0.419
313.15	0.03077	993.063	0.419
313.15	0.04864	993.475	0.419
313.15	0.06032	993.734	0.419
313.15	0.07604	994.131	0.419
313.15	0.09157	994.497	0.419

System: tetramethylammonium chloride + water + 1-dodecyl-3-methylimidazolium bromide; phases: Liquid
Fixed: Pressure, kPa = 84.51
Fixed: Solvent: Molality, mol/kg of tetramethylammonium chloride = 0.035
Fixed: Frequency, MHz = 3
Property: Speed of sound, m/s (Liquid); method: Sing-around technique in a fixed-path interferometer
Temperature, K	Molality, mol/kg of 1-dodecyl-3-methylimidazolium bromide	Speed of sound, m/s	uncertainty
288.15	0	1470.25	1.84
288.15	0.00116	1470.69	1.84
288.15	0.00202	1470.9	1.84
288.15	0.00259	1471.06	1.84
288.15	0.00285	1471.1	1.84
288.15	0.00365	1471.29	1.84
288.15	0.00453	1471.54	1.84
288.15	0.005	1471.69	1.84
288.15	0.00526	1471.75	1.84
288.15	0.00604	1471.81	1.84
288.15	0.00882	1472.04	1.84
288.15	0.01217	1472.12	1.84
288.15	0.01539	1472.15	1.84
288.15	0.01851	1472.16	1.84
288.15	0.02096	1472.21	1.84
288.15	0.02586	1472.25	1.84
288.15	0.03077	1472.4	1.84
288.15	0.04864	1472.7	1.84
288.15	0.06032	1472.88	1.84
288.15	0.07604	1473.06	1.84
288.15	0.09157	1473.41	1.84
293.15	0	1486.1	1.85
293.15	0.00116	1486.46	1.85
293.15	0.00202	1486.66	1.85
293.15	0.00259	1486.79	1.85
293.15	0.00285	1486.83	1.85
293.15	0.00365	1487	1.85
293.15	0.00453	1487.23	1.85
293.15	0.005	1487.38	1.85
293.15	0.00526	1487.43	1.85
293.15	0.00604	1487.49	1.85
293.15	0.00882	1487.64	1.85
293.15	0.01217	1487.7	1.85
293.15	0.01539	1487.7	1.85
293.15	0.01851	1487.71	1.85
293.15	0.02096	1487.73	1.85
293.15	0.02586	1487.75	1.85
293.15	0.03077	1487.82	1.85
293.15	0.04864	1488	1.85
293.15	0.06032	1488.02	1.85
293.15	0.07604	1488.1	1.85
293.15	0.09157	1488.27	1.85
298.15	0	1500.12	1.85
298.15	0.00116	1500.44	1.85
298.15	0.00202	1500.62	1.85
298.15	0.00259	1500.73	1.85
298.15	0.00285	1500.76	1.85
298.15	0.00365	1500.92	1.85
298.15	0.00453	1501.14	1.85
298.15	0.005	1501.25	1.85
298.15	0.00526	1501.31	1.85
298.15	0.00604	1501.44	1.85
298.15	0.00882	1501.47	1.85
298.15	0.01217	1501.49	1.85
298.15	0.01539	1501.47	1.85
298.15	0.01851	1501.47	1.85
298.15	0.02096	1501.47	1.85
298.15	0.02586	1501.44	1.85
298.15	0.03077	1501.46	1.85
298.15	0.04864	1501.5	1.85
298.15	0.06032	1501.36	1.85
298.15	0.07604	1501.34	1.85
298.15	0.09157	1501.35	1.85
303.15	0	1512.3	1.85
303.15	0.00116	1512.56	1.85
303.15	0.00202	1512.71	1.85
303.15	0.00259	1512.83	1.85
303.15	0.00285	1512.87	1.85
303.15	0.00365	1512.98	1.85
303.15	0.00453	1513.19	1.85
303.15	0.005	1513.32	1.85
303.15	0.00526	1513.34	1.85
303.15	0.00604	1513.38	1.85
303.15	0.00882	1513.5	1.85
303.15	0.01217	1513.46	1.85
303.15	0.01539	1513.42	1.85
303.15	0.01851	1513.4	1.85
303.15	0.02096	1513.39	1.85
303.15	0.02586	1513.33	1.85
303.15	0.03077	1513.3	1.85
303.15	0.04864	1513.2	1.85
303.15	0.06032	1513	1.85
303.15	0.07604	1512.8	1.85
303.15	0.09157	1512.6	1.85
308.15	0	1522.8	1.85
308.15	0.00116	1523.04	1.85
308.15	0.00202	1523.17	1.85
308.15	0.00259	1523.27	1.85
308.15	0.00285	1523.29	1.85
308.15	0.00365	1523.42	1.85
308.15	0.00453	1523.6	1.85
308.15	0.005	1523.68	1.85
308.15	0.00526	1523.74	1.85
308.15	0.00604	1523.78	1.85
308.15	0.00882	1523.86	1.85
308.15	0.01217	1523.81	1.85
308.15	0.01539	1523.76	1.85
308.15	0.01851	1523.7	1.85
308.15	0.02096	1523.66	1.85
308.15	0.02586	1523.58	1.85
308.15	0.03077	1523.5	1.85
308.15	0.04864	1523.25	1.85
308.15	0.06032	1522.99	1.85
308.15	0.07604	1522.6	1.9
308.15	0.09157	1522.23	1.85
313.15	0	1531.73	1.85
313.15	0.00116	1531.94	1.85
313.15	0.00202	1532.06	1.85
313.15	0.00259	1532.15	1.85
313.15	0.00285	1532.17	1.85
313.15	0.00365	1532.29	1.85
313.15	0.00453	1532.45	1.85
313.15	0.005	1532.52	1.85
313.15	0.00526	1532.57	1.85
313.15	0.00604	1532.61	1.85
313.15	0.00882	1532.69	1.85
313.15	0.01217	1532.62	1.85
313.15	0.01539	1532.54	1.85
313.15	0.01851	1532.46	1.85
313.15	0.02096	1532.41	1.85
313.15	0.02586	1532.28	1.85
313.15	0.03077	1532.16	1.85
313.15	0.04864	1531.75	1.85
313.15	0.06032	1531.37	1.85
313.15	0.07604	1530.85	1.85
313.15	0.09157	1530.33	1.85

System: water + magnesium chloride + 1-dodecyl-3-methylimidazolium bromide; phases: Liquid
Fixed: Pressure, kPa = 84.51
Fixed: Solvent: Molality, mol/kg of magnesium chloride = 0.035
Property: Mass density, kg/m3 (Liquid); method: Vibrating tube method
Temperature, K	Molality, mol/kg of 1-dodecyl-3-methylimidazolium bromide	Mass density, kg/m3	uncertainty
288.15	0	1002.404	0.258
288.15	0.00118	1002.45	0.258
288.15	0.00192	1002.48	0.258
288.15	0.00257	1002.503	0.258
288.15	0.00288	1002.52	0.258
288.15	0.00375	1002.556	0.258
288.15	0.00438	1002.578	0.258
288.15	0.00508	1002.599	0.258
288.15	0.00542	1002.616	0.258
288.15	0.00593	1002.625	0.258
288.15	0.00912	1002.721	0.258
288.15	0.01217	1002.812	0.259
288.15	0.01515	1002.899	0.259
288.15	0.01824	1002.996	0.259
288.15	0.02048	1003.063	0.259
288.15	0.02591	1003.225	0.259
288.15	0.03049	1003.366	0.259
288.15	0.04536	1003.803	0.259
288.15	0.06171	1004.285	0.26
288.15	0.0771	1004.727	0.26
288.15	0.08617	1004.991	0.26
288.15	0.11603	1005.853	0.261
293.15	0	1001.484	0.258
293.15	0.00118	1001.531	0.257
293.15	0.00192	1001.556	0.257
293.15	0.00257	1001.581	0.257
293.15	0.00288	1001.596	0.258
293.15	0.00375	1001.629	0.258
293.15	0.00438	1001.651	0.258
293.15	0.00508	1001.672	0.258
293.15	0.00542	1001.685	0.258
293.15	0.00593	1001.696	0.258
293.15	0.00912	1001.787	0.258
293.15	0.01217	1001.876	0.258
293.15	0.01515	1001.961	0.258
293.15	0.01824	1002.053	0.258
293.15	0.02048	1002.116	0.258
293.15	0.02591	1002.274	0.258
293.15	0.03049	1002.406	0.258
293.15	0.04536	1002.829	0.259
293.15	0.06171	1003.296	0.259
293.15	0.0771	1003.72	0.259
293.15	0.08617	1003.975	0.259
293.15	0.11603	1004.807	0.26
298.15	0	1000.308	0.257
298.15	0.00118	1000.352	0.256
298.15	0.00192	1000.376	0.256
298.15	0.00257	1000.4	0.256
298.15	0.00288	1000.414	0.257
298.15	0.00375	1000.446	0.257
298.15	0.00438	1000.466	0.257
298.15	0.00508	1000.486	0.257
298.15	0.00542	1000.499	0.257
298.15	0.00593	1000.509	0.257
298.15	0.00912	1000.597	0.257
298.15	0.01217	1000.681	0.257
298.15	0.01515	1000.765	0.257
298.15	0.01824	1000.854	0.257
298.15	0.02048	1000.915	0.257
298.15	0.02591	1001.065	0.257
298.15	0.03049	1001.196	0.257
298.15	0.04536	1001.604	0.258
298.15	0.06171	1002.053	0.258
298.15	0.0771	1002.462	0.258
298.15	0.08617	1002.709	0.258
298.15	0.11603	1003.512	0.259
303.15	0	998.899	0.256
303.15	0.00118	998.94	0.256
303.15	0.00192	998.964	0.256
303.15	0.00257	998.986	0.256
303.15	0.00288	999.002	0.256
303.15	0.00375	999.032	0.256
303.15	0.00438	999.049	0.256
303.15	0.00508	999.068	0.256
303.15	0.00542	999.083	0.256
303.15	0.00593	999.091	0.256
303.15	0.00912	999.177	0.256
303.15	0.01217	999.258	0.256
303.15	0.01515	999.337	0.256
303.15	0.01824	999.423	0.256
303.15	0.02048	999.483	0.256
303.15	0.02591	999.629	0.256
303.15	0.03049	999.755	0.256
303.15	0.04536	1000.15	0.256
303.15	0.06171	1000.585	0.257
303.15	0.0771	1000.981	0.257
303.15	0.08617	1001.217	0.257
303.15	0.11603	1001.996	0.258
308.15	0	997.276	0.256
308.15	0.00118	997.316	0.256
308.15	0.00192	997.34	0.256
308.15	0.00257	997.36	0.256
308.15	0.00288	997.375	0.256
308.15	0.00375	997.401	0.256
308.15	0.00438	997.419	0.256
308.15	0.00508	997.438	0.256
308.15	0.00542	997.453	0.256
308.15	0.00593	997.46	0.256
308.15	0.00912	997.544	0.256
308.15	0.01217	997.621	0.256
308.15	0.01515	997.699	0.256
308.15	0.01824	997.781	0.256
308.15	0.02048	997.839	0.256
308.15	0.02591	997.982	0.256
308.15	0.03049	998.103	0.256
308.15	0.04536	998.483	0.256
308.15	0.06171	998.906	0.256
308.15	0.0771	999.288	0.256
308.15	0.08617	999.52	0.256
308.15	0.11603	1000.272	0.256
313.15	0	995.455	0.256
313.15	0.00118	995.493	0.256
313.15	0.00192	995.516	0.256
313.15	0.00257	995.535	0.256
313.15	0.00288	995.549	0.256
313.15	0.00375	995.576	0.256
313.15	0.00438	995.592	0.256
313.15	0.00508	995.611	0.256
313.15	0.00542	995.623	0.256
313.15	0.00593	995.634	0.256
313.15	0.00912	995.712	0.256
313.15	0.01217	995.791	0.256
313.15	0.01515	995.863	0.256
313.15	0.01824	995.941	0.256
313.15	0.02048	996.001	0.256
313.15	0.02591	996.139	0.256
313.15	0.03049	996.254	0.256
313.15	0.04536	996.625	0.256
313.15	0.06171	997.034	0.256
313.15	0.0771	997.404	0.256
313.15	0.08617	997.629	0.256
313.15	0.11603	998.36	0.256

System: water + magnesium chloride + 1-dodecyl-3-methylimidazolium bromide; phases: Liquid
Fixed: Pressure, kPa = 84.51
Fixed: Solvent: Molality, mol/kg of magnesium chloride = 0.035
Fixed: Frequency, MHz = 3
Property: Speed of sound, m/s (Liquid); method: Sing-around technique in a fixed-path interferometer
Temperature, K	Molality, mol/kg of 1-dodecyl-3-methylimidazolium bromide	Speed of sound, m/s	uncertainty
288.15	0	1471.14	1.61
288.15	0.00118	1471.61	1.61
288.15	0.00192	1471.85	1.61
288.15	0.00257	1471.95	1.61
288.15	0.00288	1472.12	1.61
288.15	0.00375	1472.28	1.61
288.15	0.00438	1472.5	1.61
288.15	0.00508	1472.6	1.61
288.15	0.00542	1472.63	1.61
288.15	0.00593	1472.65	1.61
288.15	0.00912	1472.66	1.61
288.15	0.01217	1472.78	1.61
288.15	0.01515	1472.87	1.61
288.15	0.01824	1472.93	1.61
288.15	0.02048	1472.97	1.61
288.15	0.02591	1473.08	1.61
288.15	0.03049	1473.18	1.61
288.15	0.04536	1473.55	1.61
288.15	0.06171	1473.92	1.61
288.15	0.0771	1474.26	1.61
288.15	0.08617	1474.48	1.61
288.15	0.11603	1475.08	1.61
293.15	0	1487.1	1.61
293.15	0.00118	1487.48	1.61
293.15	0.00192	1487.68	1.61
293.15	0.00257	1487.8	1.61
293.15	0.00288	1487.91	1.61
293.15	0.00375	1488.08	1.61
293.15	0.00438	1488.24	1.61
293.15	0.00508	1488.33	1.61
293.15	0.00542	1488.34	1.61
293.15	0.00593	1488.33	1.61
293.15	0.00912	1488.36	1.61
293.15	0.01217	1488.43	1.61
293.15	0.01515	1488.49	1.61
293.15	0.01824	1488.54	1.61
293.15	0.02048	1488.57	1.61
293.15	0.02591	1488.64	1.61
293.15	0.03049	1488.71	1.61
293.15	0.04536	1488.91	1.61
293.15	0.06171	1489.13	1.61
293.15	0.0771	1489.33	1.61
293.15	0.08617	1489.45	1.61
293.15	0.11603	1489.83	1.61
298.15	0	1501.29	1.61
298.15	0.00118	1501.52	1.61
298.15	0.00192	1501.69	1.61
298.15	0.00257	1501.8	1.61
298.15	0.00288	1501.9	1.61
298.15	0.00375	1502.07	1.61
298.15	0.00438	1502.19	1.61
298.15	0.00508	1502.26	1.61
298.15	0.00542	1502.27	1.61
298.15	0.00593	1502.25	1.61
298.15	0.00912	1502.26	1.61
298.15	0.01217	1502.31	1.61
298.15	0.01515	1502.34	1.61
298.15	0.01824	1502.35	1.61
298.15	0.02048	1502.37	1.61
298.15	0.02591	1502.4	1.61
298.15	0.03049	1502.42	1.61
298.15	0.04536	1502.48	1.61
298.15	0.06171	1502.55	1.61
298.15	0.0771	1502.61	1.61
298.15	0.08617	1502.65	1.61
298.15	0.11603	1502.76	1.61
303.15	0	1513.46	1.61
303.15	0.00118	1513.72	1.61
303.15	0.00192	1513.86	1.61
303.15	0.00257	1513.98	1.61
303.15	0.00288	1514.04	1.61
303.15	0.00375	1514.19	1.61
303.15	0.00438	1514.31	1.61
303.15	0.00508	1514.35	1.61
303.15	0.00542	1514.35	1.61
303.15	0.00593	1514.34	1.62
303.15	0.00912	1514.34	1.61
303.15	0.01217	1514.36	1.61
303.15	0.01515	1514.35	1.61
303.15	0.01824	1514.36	1.61
303.15	0.02048	1514.34	1.61
303.15	0.02591	1514.31	1.61
303.15	0.03049	1514.28	1.61
303.15	0.04536	1514.22	1.61
303.15	0.06171	1514.14	1.61
303.15	0.0771	1514.07	1.61
303.15	0.08617	1514.03	1.61
303.15	0.11603	1513.87	1.61
308.15	0	1524.01	1.61
308.15	0.00118	1524.26	1.61
308.15	0.00192	1524.39	1.61
308.15	0.00257	1524.48	1.61
308.15	0.00288	1524.53	1.61
308.15	0.00375	1524.68	1.61
308.15	0.00438	1524.78	1.61
308.15	0.00508	1524.83	1.61
308.15	0.00542	1524.83	1.61
308.15	0.00593	1524.81	1.62
308.15	0.00912	1524.78	1.61
308.15	0.01217	1524.77	1.61
308.15	0.01515	1524.74	1.61
308.15	0.01824	1524.71	1.61
308.15	0.02048	1524.67	1.61
308.15	0.02591	1524.6	1.61
308.15	0.03049	1524.54	1.61
308.15	0.04536	1524.33	1.61
308.15	0.06171	1524.11	1.61
308.15	0.0771	1523.91	1.61
308.15	0.08617	1523.79	1.61
308.15	0.11603	1523.37	1.61
313.15	0	1533.01	1.61
313.15	0.00118	1533.25	1.61
313.15	0.00192	1533.34	1.61
313.15	0.00257	1533.42	1.61
313.15	0.00288	1533.47	1.61
313.15	0.00375	1533.61	1.61
313.15	0.00438	1533.68	1.61
313.15	0.00508	1533.74	1.61
313.15	0.00542	1533.75	1.61
313.15	0.00593	1533.68	1.61
313.15	0.00912	1533.68	1.61
313.15	0.01217	1533.63	1.61
313.15	0.01515	1533.58	1.61
313.15	0.01824	1533.52	1.61
313.15	0.02048	1533.46	1.61
313.15	0.02591	1533.34	1.61
313.15	0.03049	1533.23	1.61
313.15	0.04536	1532.91	1.61
313.15	0.06171	1532.54	1.61
313.15	0.0771	1532.2	1.61
313.15	0.08617	1531.99	1.61
313.15	0.11603	1531.33	1.61

System: ferric chloride + water + 1-dodecyl-3-methylimidazolium bromide; phases: Liquid
Fixed: Pressure, kPa = 84.51
Fixed: Solvent: Molality, mol/kg of ferric chloride = 0.035
Property: Mass density, kg/m3 (Liquid); method: Vibrating tube method
Temperature, K	Molality, mol/kg of 1-dodecyl-3-methylimidazolium bromide	Mass density, kg/m3	uncertainty
288.15	0	1003.963	0.203
288.15	0.00202	1004.052	0.203
288.15	0.0026	1004.075	0.203
288.15	0.00329	1004.103	0.203
288.15	0.00418	1004.15	0.203
288.15	0.00457	1004.169	0.203
288.15	0.00585	1004.217	0.203
288.15	0.00739	1004.271	0.203
288.15	0.01211	1004.391	0.203
288.15	0.01828	1004.577	0.203
288.15	0.02444	1004.759	0.204
288.15	0.03086	1004.95	0.204
288.15	0.04671	1005.412	0.204
288.15	0.06245	1005.867	0.204
288.15	0.07861	1006.324	0.204
288.15	0.09072	1006.656	0.205
288.15	0.11614	1007.39	0.205
293.15	0	1003.047	0.203
293.15	0.00202	1003.131	0.203
293.15	0.0026	1003.151	0.203
293.15	0.00329	1003.178	0.203
293.15	0.00418	1003.222	0.203
293.15	0.00457	1003.243	0.203
293.15	0.00585	1003.292	0.203
293.15	0.00739	1003.341	0.203
293.15	0.01211	1003.455	0.203
293.15	0.01828	1003.631	0.203
293.15	0.02444	1003.81	0.203
293.15	0.03086	1003.992	0.203
293.15	0.04671	1004.439	0.203
293.15	0.06245	1004.876	0.204
293.15	0.07861	1005.319	0.204
293.15	0.09072	1005.639	0.204
293.15	0.11614	1006.347	0.204
298.15	0	1001.87	0.202
298.15	0.00202	1001.948	0.202
298.15	0.0026	1001.968	0.202
298.15	0.00329	1001.995	0.202
298.15	0.00418	1002.035	0.202
298.15	0.00457	1002.057	0.202
298.15	0.00585	1002.104	0.202
298.15	0.00739	1002.152	0.202
298.15	0.01211	1002.26	0.202
298.15	0.01828	1002.432	0.202
298.15	0.02444	1002.604	0.202
298.15	0.03086	1002.78	0.202
298.15	0.04671	1003.211	0.203
298.15	0.06245	1003.634	0.203
298.15	0.07861	1004.06	0.203
298.15	0.09072	1004.369	0.203
298.15	0.11614	1005.053	0.204
303.15	0	1000.458	0.201
303.15	0.00202	1000.534	0.201
303.15	0.0026	1000.554	0.201
303.15	0.00329	1000.578	0.201
303.15	0.00418	1000.618	0.201
303.15	0.00457	1000.637	0.201
303.15	0.00585	1000.684	0.201
303.15	0.00739	1000.731	0.201
303.15	0.01211	1000.837	0.201
303.15	0.01828	1001.001	0.201
303.15	0.02444	1001.165	0.202
303.15	0.03086	1001.337	0.202
303.15	0.04671	1001.753	0.202
303.15	0.06245	1002.163	0.202
303.15	0.07861	1002.575	0.202
303.15	0.09072	1002.873	0.203
303.15	0.11614	1003.533	0.203
308.15	0	998.83	0.201
308.15	0.00202	998.906	0.201
308.15	0.0026	998.925	0.201
308.15	0.00329	998.948	0.201
308.15	0.00418	998.986	0.201
308.15	0.00457	999.003	0.201
308.15	0.00585	999.05	0.201
308.15	0.00739	999.093	0.201
308.15	0.01211	999.196	0.201
308.15	0.01828	999.357	0.201
308.15	0.02444	999.514	0.201
308.15	0.03086	999.677	0.201
308.15	0.04671	1000.084	0.201
308.15	0.06245	1000.48	0.201
308.15	0.07861	1000.88	0.201
308.15	0.09072	1001.168	0.202
308.15	0.11614	1001.81	0.202
313.15	0	997.003	0.201
313.15	0.00202	997.077	0.201
313.15	0.0026	997.096	0.201
313.15	0.00329	997.12	0.201
313.15	0.00418	997.153	0.201
313.15	0.00457	997.171	0.201
313.15	0.00585	997.215	0.201
313.15	0.00739	997.257	0.201
313.15	0.01211	997.355	0.201
313.15	0.01828	997.514	0.201
313.15	0.02444	997.666	0.201
313.15	0.03086	997.819	0.201
313.15	0.04671	998.215	0.201
313.15	0.06245	998.602	0.201
313.15	0.07861	998.989	0.201
313.15	0.09072	999.268	0.201
313.15	0.11614	999.891	0.201

System: ferric chloride + water + 1-dodecyl-3-methylimidazolium bromide; phases: Liquid
Fixed: Pressure, kPa = 84.51
Fixed: Solvent: Molality, mol/kg of ferric chloride = 0.035
Fixed: Frequency, MHz = 3
Property: Speed of sound, m/s (Liquid); method: Sing-around technique in a fixed-path interferometer
Temperature, K	Molality, mol/kg of 1-dodecyl-3-methylimidazolium bromide	Speed of sound, m/s	uncertainty
288.15	0	1470.92	1.5
288.15	0.00202	1471.68	1.5
288.15	0.0026	1471.89	1.5
288.15	0.00329	1472.04	1.5
288.15	0.00418	1472.29	1.5
288.15	0.00457	1472.34	1.5
288.15	0.00585	1472.34	1.5
288.15	0.00739	1472.5	1.5
288.15	0.01211	1472.62	1.5
288.15	0.01828	1472.71	1.5
288.15	0.02444	1472.77	1.5
288.15	0.03086	1472.97	1.5
288.15	0.04671	1473.37	1.5
288.15	0.06245	1473.77	1.5
288.15	0.07861	1474.14	1.5
288.15	0.09072	1474.41	1.5
288.15	0.11614	1475.03	1.5
293.15	0	1486.83	1.5
293.15	0.00202	1487.47	1.5
293.15	0.0026	1487.64	1.5
293.15	0.00329	1487.78	1.5
293.15	0.00418	1488	1.5
293.15	0.00457	1488.03	1.5
293.15	0.00585	1488.04	1.5
293.15	0.00739	1488.13	1.5
293.15	0.01211	1488.22	1.5
293.15	0.01828	1488.27	1.5
293.15	0.02444	1488.33	1.5
293.15	0.03086	1488.45	1.5
293.15	0.04671	1488.7	1.5
293.15	0.06245	1488.92	1.5
293.15	0.07861	1489.17	1.5
293.15	0.09072	1489.33	1.5
293.15	0.11614	1489.71	1.5
298.15	0	1500.84	1.51
298.15	0.00202	1501.4	1.5
298.15	0.0026	1501.55	1.51
298.15	0.00329	1501.71	1.51
298.15	0.00418	1501.89	1.5
298.15	0.00457	1501.91	1.51
298.15	0.00585	1501.92	1.5
298.15	0.00739	1501.98	1.5
298.15	0.01211	1502.04	1.5
298.15	0.01828	1502.06	1.5
298.15	0.02444	1502.08	1.5
298.15	0.03086	1502.1	1.5
298.15	0.04671	1502.2	1.5
298.15	0.06245	1502.3	1.5
298.15	0.07861	1502.37	1.5
298.15	0.09072	1502.43	1.5
298.15	0.11614	1502.57	1.5
303.15	0	1513	1.51
303.15	0.00202	1513.54	1.51
303.15	0.0026	1513.67	1.51
303.15	0.00329	1513.77	1.51
303.15	0.00418	1513.95	1.51
303.15	0.00457	1513.96	1.51
303.15	0.00585	1513.98	1.51
303.15	0.00739	1514.02	1.51
303.15	0.01211	1514.02	1.51
303.15	0.01828	1513.99	1.51
303.15	0.02444	1513.96	1.51
303.15	0.03086	1513.94	1.51
303.15	0.04671	1513.89	1.51
303.15	0.06245	1513.83	1.51
303.15	0.07861	1513.77	1.51
303.15	0.09072	1513.72	1.51
303.15	0.11614	1513.62	1.51
308.15	0	1523.52	1.51
308.15	0.00202	1523.99	1.51
308.15	0.0026	1524.13	1.51
308.15	0.00329	1524.21	1.51
308.15	0.00418	1524.36	1.51
308.15	0.00457	1524.39	1.51
308.15	0.00585	1524.39	1.51
308.15	0.00739	1524.4	1.51
308.15	0.01211	1524.37	1.51
308.15	0.01828	1524.29	1.51
308.15	0.02444	1524.24	1.51
308.15	0.03086	1524.17	1.51
308.15	0.04671	1523.94	1.51
308.15	0.06245	1523.74	1.51
308.15	0.07861	1523.54	1.51
308.15	0.09072	1523.38	1.51
308.15	0.11614	1523.03	1.51
313.15	0	1532.44	1.51
313.15	0.00202	1532.89	1.51
313.15	0.0026	1533.01	1.51
313.15	0.00329	1533.08	1.51
313.15	0.00418	1533.21	1.51
313.15	0.00457	1533.24	1.51
313.15	0.00585	1533.25	1.51
313.15	0.00739	1533.24	1.51
313.15	0.01211	1533.17	1.51
313.15	0.01828	1533.01	1.51
313.15	0.02444	1532.91	1.51
313.15	0.03086	1532.81	1.51
313.15	0.04671	1532.45	1.51
313.15	0.06245	1532.12	1.51
313.15	0.07861	1531.76	1.51
313.15	0.09072	1531.5	1.51
313.15	0.11614	1530.93	1.51

System: sodium chloride + water + 1-dodecyl-3-methylimidazolium bromide; phases: Liquid
Fixed: Pressure, kPa = 84.51
Fixed: Solvent: Molality, mol/kg of sodium chloride = 0.035
Property: Mass density, kg/m3 (Liquid); method: Vibrating tube method
Temperature, K	Molality, mol/kg of 1-dodecyl-3-methylimidazolium bromide	Mass density, kg/m3	uncertainty
288.15	0	1000.554	0.201
288.15	0.00256	1000.65	0.201
288.15	0.00285	1000.66	0.201
288.15	0.00378	1000.696	0.201
288.15	0.00488	1000.74	0.201
288.15	0.00504	1000.745	0.201
288.15	0.0055	1000.761	0.201
288.15	0.00606	1000.778	0.201
288.15	0.00769	1000.834	0.201
288.15	0.00899	1000.872	0.201
288.15	0.01353	1001.007	0.201
288.15	0.0151	1001.049	0.201
288.15	0.01835	1001.141	0.201
288.15	0.02137	1001.223	0.202
288.15	0.02626	1001.363	0.202
288.15	0.02989	1001.462	0.202
288.15	0.04546	1001.885	0.202
288.15	0.06577	1002.441	0.202
288.15	0.07572	1002.701	0.202
288.15	0.09927	1003.333	0.203
293.15	0	999.636	0.201
293.15	0.00256	999.728	0.203
293.15	0.00285	999.736	0.201
293.15	0.00378	999.773	0.201
293.15	0.00488	999.815	0.209
293.15	0.00504	999.818	0.201
293.15	0.0055	999.833	0.201
293.15	0.00606	999.85	0.201
293.15	0.00769	999.902	0.201
293.15	0.00899	999.939	0.201
293.15	0.01353	1000.07	0.201
293.15	0.0151	1000.11	0.201
293.15	0.01835	1000.2	0.201
293.15	0.02137	1000.278	0.201
293.15	0.02626	1000.411	0.201
293.15	0.02989	1000.507	0.201
293.15	0.04546	1000.912	0.201
293.15	0.06577	1001.448	0.202
293.15	0.07572	1001.699	0.202
293.15	0.09927	1002.304	0.202
298.15	0	998.457	0.201
298.15	0.00256	998.546	0.203
298.15	0.00285	998.554	0.201
298.15	0.00378	998.589	0.201
298.15	0.00488	998.628	0.207
298.15	0.00504	998.633	0.201
298.15	0.0055	998.646	0.201
298.15	0.00606	998.663	0.201
298.15	0.00769	998.714	0.201
298.15	0.00899	998.748	0.201
298.15	0.01353	998.873	0.201
298.15	0.0151	998.912	0.201
298.15	0.01835	999	0.201
298.15	0.02137	999.074	0.201
298.15	0.02626	999.202	0.201
298.15	0.02989	999.295	0.201
298.15	0.04546	999.685	0.201
298.15	0.06577	1000.2	0.201
298.15	0.07572	1000.44	0.201
298.15	0.09927	1001.025	0.201
303.15	0	997.046	0.201
303.15	0.00256	997.13	0.203
303.15	0.00285	997.138	0.201
303.15	0.00378	997.17	0.2
303.15	0.00488	997.209	0.207
303.15	0.00504	997.213	0.201
303.15	0.0055	997.225	0.201
303.15	0.00606	997.24	0.201
303.15	0.00769	997.29	0.201
303.15	0.00899	997.322	0.201
303.15	0.01353	997.445	0.201
303.15	0.0151	997.481	0.201
303.15	0.01835	997.565	0.201
303.15	0.02137	997.637	0.201
303.15	0.02626	997.761	0.201
303.15	0.02989	997.85	0.201
303.15	0.04546	998.227	0.201
303.15	0.06577	998.723	0.201
303.15	0.07572	998.955	0.201
303.15	0.09927	999.519	0.201
308.15	0	995.419	0.201
308.15	0.00256	995.499	0.203
308.15	0.00285	995.508	0.201
308.15	0.00378	995.537	0.201
308.15	0.00488	995.574	0.206
308.15	0.00504	995.577	0.201
308.15	0.0055	995.589	0.201
308.15	0.00606	995.606	0.201
308.15	0.00769	995.652	0.201
308.15	0.00899	995.684	0.201
308.15	0.01353	995.804	0.201
308.15	0.0151	995.839	0.201
308.15	0.01835	995.919	0.201
308.15	0.02137	995.99	0.201
308.15	0.02626	996.108	0.201
308.15	0.02989	996.194	0.201
308.15	0.04546	996.558	0.201
308.15	0.06577	997.036	0.201
308.15	0.07572	997.26	0.201
308.15	0.09927	997.803	0.201
313.15	0	993.592	0.201
313.15	0.00256	993.669	0.201
313.15	0.00285	993.676	0.201
313.15	0.00378	993.704	0.201
313.15	0.00488	993.739	0.201
313.15	0.00504	993.742	0.201
313.15	0.0055	993.756	0.201
313.15	0.00606	993.771	0.201
313.15	0.00769	993.817	0.201
313.15	0.00899	993.847	0.201
313.15	0.01353	993.962	0.201
313.15	0.0151	993.996	0.201
313.15	0.01835	994.075	0.201
313.15	0.02137	994.143	0.201
313.15	0.02626	994.258	0.201
313.15	0.02989	994.341	0.201
313.15	0.04546	994.692	0.201
313.15	0.06577	995.156	0.201
313.15	0.07572	995.373	0.201
313.15	0.09927	995.898	0.201

System: sodium chloride + water + 1-dodecyl-3-methylimidazolium bromide; phases: Liquid
Fixed: Pressure, kPa = 84.51
Fixed: Solvent: Molality, mol/kg of sodium chloride = 0.035
Fixed: Frequency, MHz = 3
Property: Speed of sound, m/s (Liquid); method: Sing-around technique in a fixed-path interferometer
Temperature, K	Molality, mol/kg of 1-dodecyl-3-methylimidazolium bromide	Speed of sound, m/s	uncertainty
288.15	0	1468.84	1.5
288.15	0.00256	1469.75	1.5
288.15	0.00285	1469.87	1.5
288.15	0.00378	1469.99	1.5
288.15	0.00488	1470.38	1.5
288.15	0.00504	1470.48	1.5
288.15	0.0055	1470.52	1.5
288.15	0.00606	1470.68	1.5
288.15	0.00769	1470.79	1.5
288.15	0.00899	1470.86	1.5
288.15	0.01353	1470.89	1.5
288.15	0.0151	1470.92	1.5
288.15	0.01835	1470.94	1.5
288.15	0.02137	1470.98	1.5
288.15	0.02626	1471.06	1.5
288.15	0.02989	1471.1	1.5
288.15	0.04546	1471.39	1.5
288.15	0.06577	1471.73	1.5
288.15	0.07572	1471.9	1.5
288.15	0.09927	1472.32	1.5
293.15	0	1484.88	1.5
293.15	0.00256	1485.61	1.52
293.15	0.00285	1485.73	1.5
293.15	0.00378	1485.92	1.5
293.15	0.00488	1486.18	1.56
293.15	0.00504	1486.23	1.5
293.15	0.0055	1486.32	1.5
293.15	0.00606	1486.43	1.5
293.15	0.00769	1486.53	1.5
293.15	0.00899	1486.56	1.5
293.15	0.01353	1486.58	1.5
293.15	0.0151	1486.6	1.5
293.15	0.01835	1486.57	1.5
293.15	0.02137	1486.59	1.5
293.15	0.02626	1486.63	1.5
293.15	0.02989	1486.65	1.5
293.15	0.04546	1486.78	1.5
293.15	0.06577	1486.94	1.5
293.15	0.07572	1487.01	1.5
293.15	0.09927	1487.21	1.5
298.15	0	1498.98	1.51
298.15	0.00256	1499.68	1.52
298.15	0.00285	1499.76	1.51
298.15	0.00378	1499.94	1.5
298.15	0.00488	1500.16	1.56
298.15	0.00504	1500.23	1.51
298.15	0.0055	1500.31	1.5
298.15	0.00606	1500.4	1.5
298.15	0.00769	1500.49	1.5
298.15	0.00899	1500.5	1.5
298.15	0.01353	1500.49	1.5
298.15	0.0151	1500.49	1.5
298.15	0.01835	1500.43	1.5
298.15	0.02137	1500.43	1.5
298.15	0.02626	1500.41	1.5
298.15	0.02989	1500.42	1.5
298.15	0.04546	1500.39	1.5
298.15	0.06577	1500.36	1.5
298.15	0.07572	1500.35	1.5
298.15	0.09927	1500.33	1.5
303.15	0	1511.27	1.51
303.15	0.00256	1511.87	1.52
303.15	0.00285	1511.95	1.51
303.15	0.00378	1512.09	1.51
303.15	0.00488	1512.33	1.55
303.15	0.00504	1512.38	1.51
303.15	0.0055	1512.42	1.51
303.15	0.00606	1512.51	1.51
303.15	0.00769	1512.55	1.51
303.15	0.00899	1512.59	1.51
303.15	0.01353	1512.56	1.51
303.15	0.0151	1512.54	1.51
303.15	0.01835	1512.45	1.51
303.15	0.02137	1512.41	1.51
303.15	0.02626	1512.37	1.51
303.15	0.02989	1512.34	1.51
303.15	0.04546	1512.17	1.51
303.15	0.06577	1511.95	1.51
303.15	0.07572	1511.84	1.51
303.15	0.09927	1511.59	1.51
308.15	0	1521.87	1.51
308.15	0.00256	1522.4	1.52
308.15	0.00285	1522.48	1.51
308.15	0.00378	1522.69	1.51
308.15	0.00488	1522.8	1.54
308.15	0.00504	1522.84	1.51
308.15	0.0055	1522.91	1.51
308.15	0.00606	1522.97	1.51
308.15	0.00769	1523.01	1.51
308.15	0.00899	1523.05	1.51
308.15	0.01353	1522.98	1.51
308.15	0.0151	1522.96	1.51
308.15	0.01835	1522.83	1.51
308.15	0.02137	1522.78	1.51
308.15	0.02626	1522.69	1.51
308.15	0.02989	1522.59	1.51
308.15	0.04546	1522.3	1.51
308.15	0.06577	1521.88	1.51
308.15	0.07572	1521.71	1.51
308.15	0.09927	1521.24	1.51
313.15	0	1530.9	1.51
313.15	0.00256	1531.37	1.51
313.15	0.00285	1531.45	1.51
313.15	0.00378	1531.64	1.51
313.15	0.00488	1531.78	1.51
313.15	0.00504	1531.76	1.51
313.15	0.0055	1531.82	1.51
313.15	0.00606	1531.89	1.51
313.15	0.00769	1531.92	1.51
313.15	0.00899	1531.96	1.51
313.15	0.01353	1531.86	1.51
313.15	0.0151	1531.82	1.51
313.15	0.01835	1531.67	1.51
313.15	0.02137	1531.59	1.51
313.15	0.02626	1531.45	1.51
313.15	0.02989	1531.32	1.51
313.15	0.04546	1530.9	1.51
313.15	0.06577	1530.3	1.51
313.15	0.07572	1530.02	1.51
313.15	0.09927	1529.35	1.51

System: sodium nitrate + water + 1-dodecyl-3-methylimidazolium bromide; phases: Liquid
Fixed: Pressure, kPa = 84.51
Fixed: Solvent: Molality, mol/kg of sodium nitrate = 0.035
Property: Mass density, kg/m3 (Liquid); method: Vibrating tube method
Temperature, K	Molality, mol/kg of 1-dodecyl-3-methylimidazolium bromide	Mass density, kg/m3	uncertainty
288.15	0	1001.139	0.201
288.15	0.00135	1001.193	0.202
288.15	0.002	1001.213	0.202
288.15	0.00256	1001.234	0.202
288.15	0.00282	1001.243	0.202
288.15	0.00368	1001.271	0.202
288.15	0.00436	1001.288	0.202
288.15	0.00495	1001.305	0.202
288.15	0.00549	1001.32	0.202
288.15	0.00758	1001.379	0.202
288.15	0.00915	1001.427	0.202
288.15	0.01206	1001.51	0.202
288.15	0.01211	1001.51	0.202
288.15	0.01826	1001.689	0.202
288.15	0.02085	1001.767	0.202
288.15	0.02585	1001.916	0.202
288.15	0.03033	1002.045	0.202
288.15	0.04624	1002.49	0.202
288.15	0.06326	1002.959	0.202
288.15	0.0756	1003.294	0.203
288.15	0.08975	1003.675	0.203
288.15	0.11169	1004.282	0.203
293.15	0	1000.209	0.201
293.15	0.00135	1000.257	0.201
293.15	0.002	1000.277	0.201
293.15	0.00256	1000.298	0.201
293.15	0.00282	1000.31	0.201
293.15	0.00368	1000.336	0.201
293.15	0.00436	1000.352	0.201
293.15	0.00495	1000.37	0.201
293.15	0.00549	1000.382	0.201
293.15	0.00758	1000.439	0.201
293.15	0.00915	1000.486	0.201
293.15	0.01206	1000.565	0.201
293.15	0.01211	1000.567	0.201
293.15	0.01826	1000.741	0.201
293.15	0.02085	1000.815	0.201
293.15	0.02585	1000.957	0.201
293.15	0.03033	1001.081	0.201
293.15	0.04624	1001.513	0.202
293.15	0.06326	1001.966	0.202
293.15	0.0756	1002.287	0.202
293.15	0.08975	1002.651	0.202
293.15	0.11169	1003.232	0.203
298.15	0	999.017	0.201
298.15	0.00135	999.067	0.201
298.15	0.002	999.083	0.201
298.15	0.00256	999.104	0.201
298.15	0.00282	999.113	0.201
298.15	0.00368	999.139	0.201
298.15	0.00436	999.153	0.201
298.15	0.00495	999.171	0.201
298.15	0.00549	999.185	0.201
298.15	0.00758	999.241	0.201
298.15	0.00915	999.287	0.201
298.15	0.01206	999.362	0.201
298.15	0.01211	999.363	0.201
298.15	0.01826	999.532	0.201
298.15	0.02085	999.603	0.201
298.15	0.02585	999.742	0.201
298.15	0.03033	999.862	0.201
298.15	0.04624	1000.279	0.201
298.15	0.06326	1000.719	0.201
298.15	0.0756	1001.024	0.201
298.15	0.08975	1001.373	0.202
298.15	0.11169	1001.932	0.202
303.15	0	997.592	0.201
303.15	0.00135	997.638	0.201
303.15	0.002	997.656	0.201
303.15	0.00256	997.675	0.201
303.15	0.00282	997.685	0.201
303.15	0.00368	997.711	0.201
303.15	0.00436	997.726	0.201
303.15	0.00495	997.741	0.201
303.15	0.00549	997.755	0.201
303.15	0.00758	997.81	0.201
303.15	0.00915	997.853	0.201
303.15	0.01206	997.927	0.201
303.15	0.01211	997.928	0.201
303.15	0.01826	998.09	0.201
303.15	0.02085	998.16	0.201
303.15	0.02585	998.295	0.201
303.15	0.03033	998.413	0.201
303.15	0.04624	998.817	0.201
303.15	0.06326	999.241	0.201
303.15	0.0756	999.532	0.201
303.15	0.08975	999.869	0.201
303.15	0.11169	1000.407	0.201
308.15	0	995.954	0.201
308.15	0.00135	995.999	0.201
308.15	0.002	996.015	0.201
308.15	0.00256	996.032	0.201
308.15	0.00282	996.042	0.201
308.15	0.00368	996.068	0.201
308.15	0.00436	996.079	0.201
308.15	0.00495	996.097	0.201
308.15	0.00549	996.111	0.201
308.15	0.00758	996.165	0.201
308.15	0.00915	996.206	0.201
308.15	0.01206	996.278	0.201
308.15	0.01211	996.28	0.201
308.15	0.01826	996.438	0.201
308.15	0.02085	996.505	0.201
308.15	0.02585	996.636	0.201
308.15	0.03033	996.75	0.201
308.15	0.04624	997.144	0.201
308.15	0.06326	997.553	0.201
308.15	0.0756	997.831	0.201
308.15	0.08975	998.156	0.201
308.15	0.11169	998.676	0.201
313.15	0	994.12	0.201
313.15	0.00135	994.162	0.201
313.15	0.002	994.174	0.201
313.15	0.00256	994.191	0.201
313.15	0.00282	994.199	0.201
313.15	0.00368	994.226	0.201
313.15	0.00436	994.239	0.201
313.15	0.00495	994.254	0.201
313.15	0.00549	994.269	0.201
313.15	0.00758	994.321	0.201
313.15	0.00915	994.359	0.201
313.15	0.01206	994.43	0.201
313.15	0.01211	994.431	0.201
313.15	0.01826	994.587	0.201
313.15	0.02085	994.652	0.201
313.15	0.02585	994.78	0.201
313.15	0.03033	994.89	0.201
313.15	0.04624	995.273	0.201
313.15	0.06326	995.672	0.201
313.15	0.0756	995.938	0.201
313.15	0.08975	996.248	0.201
313.15	0.11169	996.753	0.201

System: sodium nitrate + water + 1-dodecyl-3-methylimidazolium bromide; phases: Liquid
Fixed: Pressure, kPa = 84.51
Fixed: Solvent: Molality, mol/kg of sodium nitrate = 0.035
Fixed: Frequency, MHz = 3
Property: Speed of sound, m/s (Liquid); method: Sing-around technique in a fixed-path interferometer
Temperature, K	Molality, mol/kg of 1-dodecyl-3-methylimidazolium bromide	Speed of sound, m/s	uncertainty
288.15	0	1468.19	1.5
288.15	0.00135	1468.7	1.5
288.15	0.002	1468.9	1.5
288.15	0.00256	1469.09	1.5
288.15	0.00282	1469.17	1.5
288.15	0.00368	1469.24	1.5
288.15	0.00436	1469.26	1.5
288.15	0.00495	1469.27	1.5
288.15	0.00549	1469.23	1.5
288.15	0.00758	1469.33	1.5
288.15	0.00915	1469.31	1.5
288.15	0.01206	1469.4	1.5
288.15	0.01211	1469.48	1.5
288.15	0.01826	1469.57	1.5
288.15	0.02085	1469.66	1.5
288.15	0.02585	1469.82	1.5
288.15	0.03033	1469.92	1.5
288.15	0.04624	1470.33	1.5
288.15	0.06326	1470.69	1.5
288.15	0.0756	1470.95	1.5
288.15	0.08975	1471.15	1.5
288.15	0.11169	1471.55	1.5
293.15	0	1484.18	1.5
293.15	0.00135	1484.55	1.5
293.15	0.002	1484.74	1.5
293.15	0.00256	1484.89	1.5
293.15	0.00282	1484.94	1.5
293.15	0.00368	1485.02	1.5
293.15	0.00436	1485.03	1.5
293.15	0.00495	1485.04	1.5
293.15	0.00549	1485.03	1.5
293.15	0.00758	1484.99	1.5
293.15	0.00915	1485.07	1.5
293.15	0.01206	1485.15	1.5
293.15	0.01211	1485.18	1.5
293.15	0.01826	1485.27	1.5
293.15	0.02085	1485.32	1.5
293.15	0.02585	1485.41	1.5
293.15	0.03033	1485.48	1.5
293.15	0.04624	1485.73	1.5
293.15	0.06326	1485.96	1.5
293.15	0.0756	1486.09	1.5
293.15	0.08975	1486.14	1.5
293.15	0.11169	1486.29	1.5
298.15	0	1498.27	1.51
298.15	0.00135	1498.6	1.5
298.15	0.002	1498.77	1.5
298.15	0.00256	1498.89	1.5
298.15	0.00282	1498.95	1.51
298.15	0.00368	1499.02	1.5
298.15	0.00436	1499.04	1.5
298.15	0.00495	1499.04	1.5
298.15	0.00549	1499.03	1.5
298.15	0.00758	1498.98	1.5
298.15	0.00915	1499.05	1.5
298.15	0.01206	1499.08	1.5
298.15	0.01211	1499.12	1.5
298.15	0.01826	1499.16	1.5
298.15	0.02085	1499.17	1.5
298.15	0.02585	1499.22	1.5
298.15	0.03033	1499.26	1.5
298.15	0.04624	1499.35	1.5
298.15	0.06326	1499.45	1.5
298.15	0.0756	1499.56	1.5
298.15	0.08975	1499.7	1.5
298.15	0.11169	1499.9	1.5
303.15	0	1510.51	1.51
303.15	0.00135	1510.8	1.51
303.15	0.002	1510.95	1.51
303.15	0.00256	1511.07	1.51
303.15	0.00282	1511.1	1.51
303.15	0.00368	1511.18	1.51
303.15	0.00436	1511.18	1.51
303.15	0.00495	1511.18	1.51
303.15	0.00549	1511.18	1.51
303.15	0.00758	1511.14	1.51
303.15	0.00915	1511.19	1.51
303.15	0.01206	1511.19	1.51
303.15	0.01211	1511.2	1.51
303.15	0.01826	1511.2	1.51
303.15	0.02085	1511.18	1.51
303.15	0.02585	1511.21	1.51
303.15	0.03033	1511.17	1.51
303.15	0.04624	1511.16	1.51
303.15	0.06326	1511.09	1.51
303.15	0.0756	1510.99	1.51
303.15	0.08975	1510.56	1.51
303.15	0.11169	1510.38	1.51
308.15	0	1521.07	1.51
308.15	0.00135	1521.33	1.51
308.15	0.002	1521.46	1.51
308.15	0.00256	1521.58	1.51
308.15	0.00282	1521.61	1.51
308.15	0.00368	1521.68	1.51
308.15	0.00436	1521.69	1.51
308.15	0.00495	1521.69	1.51
308.15	0.00549	1521.69	1.51
308.15	0.00758	1521.63	1.51
308.15	0.00915	1521.65	1.51
308.15	0.01206	1521.64	1.51
308.15	0.01211	1521.66	1.51
308.15	0.01826	1521.59	1.51
308.15	0.02085	1521.55	1.51
308.15	0.02585	1521.52	1.51
308.15	0.03033	1521.47	1.51
308.15	0.04624	1521.29	1.51
308.15	0.06326	1521.09	1.51
308.15	0.0756	1520.88	1.51
308.15	0.08975	1520.38	1.51
308.15	0.11169	1519.87	1.51
313.15	0	1530.07	1.51
313.15	0.00135	1530.3	1.51
313.15	0.002	1530.41	1.51
313.15	0.00256	1530.53	1.51
313.15	0.00282	1530.56	1.51
313.15	0.00368	1530.64	1.51
313.15	0.00436	1530.64	1.51
313.15	0.00495	1530.65	1.51
313.15	0.00549	1530.64	1.51
313.15	0.00758	1530.56	1.51
313.15	0.00915	1530.57	1.51
313.15	0.01206	1530.54	1.51
313.15	0.01211	1530.54	1.51
313.15	0.01826	1530.43	1.51
313.15	0.02085	1530.37	1.51
313.15	0.02585	1530.29	1.51
313.15	0.03033	1530.2	1.51
313.15	0.04624	1529.9	1.51
313.15	0.06326	1529.57	1.51
313.15	0.0756	1529.15	1.51
313.15	0.08975	1528.46	1.51
313.15	0.11169	1527.83	1.51

System: sodium carbonate + water + 1-dodecyl-3-methylimidazolium bromide; phases: Liquid
Fixed: Pressure, kPa = 84.51
Fixed: Solvent: Molality, mol/kg of sodium carbonate = 0.035
Property: Mass density, kg/m3 (Liquid); method: Vibrating tube method
Temperature, K	Molality, mol/kg of 1-dodecyl-3-methylimidazolium bromide	Mass density, kg/m3	uncertainty
288.15	0	1003.038	0.169
288.15	0.00201	1003.116	0.169
288.15	0.00306	1003.156	0.169
288.15	0.00301	1003.153	0.169
288.15	0.00393	1003.189	0.169
288.15	0.00454	1003.214	0.169
288.15	0.00514	1003.238	0.169
288.15	0.00757	1003.317	0.169
288.15	0.01211	1003.451	0.169
288.15	0.01869	1003.637	0.169
288.15	0.0243	1003.771	0.169
288.15	0.03106	1003.959	0.169
288.15	0.04716	1004.413	0.169
288.15	0.06162	1004.809	0.169
288.15	0.07499	1005.18	0.169
288.15	0.09157	1005.642	0.17
288.15	0.11563	1006.282	0.17
293.15	0	1002.086	0.168
293.15	0.00201	1002.161	0.168
293.15	0.00306	1002.201	0.168
293.15	0.00301	1002.197	0.168
293.15	0.00393	1002.23	0.168
293.15	0.00454	1002.256	0.168
293.15	0.00514	1002.278	0.168
293.15	0.00757	1002.351	0.168
293.15	0.01211	1002.482	0.168
293.15	0.01869	1002.659	0.168
293.15	0.0243	1002.791	0.168
293.15	0.03106	1002.969	0.168
293.15	0.04716	1003.407	0.169
293.15	0.06162	1003.784	0.169
293.15	0.07499	1004.141	0.169
293.15	0.09157	1004.588	0.169
293.15	0.11563	1005.202	0.17
298.15	0	1000.877	0.168
298.15	0.00201	1000.952	0.168
298.15	0.00306	1000.987	0.168
298.15	0.00301	1000.985	0.168
298.15	0.00393	1001.016	0.168
298.15	0.00454	1001.041	0.168
298.15	0.00514	1001.063	0.168
298.15	0.00757	1001.133	0.168
298.15	0.01211	1001.256	0.168
298.15	0.01869	1001.429	0.168
298.15	0.0243	1001.555	0.168
298.15	0.03106	1001.725	0.168
298.15	0.04716	1002.147	0.168
298.15	0.06162	1002.512	0.168
298.15	0.07499	1002.853	0.168
298.15	0.09157	1003.284	0.169
298.15	0.11563	1003.879	0.169
303.15	0	999.439	0.167
303.15	0.00201	999.511	0.167
303.15	0.00306	999.546	0.167
303.15	0.00301	999.545	0.167
303.15	0.00393	999.576	0.167
303.15	0.00454	999.595	0.167
303.15	0.00514	999.617	0.167
303.15	0.00757	999.685	0.167
303.15	0.01211	999.804	0.167
303.15	0.01869	999.971	0.167
303.15	0.0243	1000.091	0.167
303.15	0.03106	1000.257	0.167
303.15	0.04716	1000.665	0.167
303.15	0.06162	1001.014	0.168
303.15	0.07499	1001.34	0.168
303.15	0.09157	1001.761	0.168
303.15	0.11563	1002.331	0.168
308.15	0	997.791	0.168
308.15	0.00201	997.86	0.167
308.15	0.00306	997.895	0.167
308.15	0.00301	997.893	0.167
308.15	0.00393	997.921	0.167
308.15	0.00454	997.942	0.167
308.15	0.00514	997.962	0.168
308.15	0.00757	998.026	0.167
308.15	0.01211	998.141	0.167
308.15	0.01869	998.303	0.167
308.15	0.0243	998.418	0.167
308.15	0.03106	998.577	0.167
308.15	0.04716	998.975	0.167
308.15	0.06162	999.309	0.167
308.15	0.07499	999.623	0.167
308.15	0.09157	1000.032	0.167
308.15	0.11563	1000.584	0.167
313.15	0	995.95	0.168
313.15	0.00201	996.013	0.168
313.15	0.00306	996.045	0.168
313.15	0.00301	996.042	0.168
313.15	0.00393	996.07	0.168
313.15	0.00454	996.09	0.168
313.15	0.00514	996.11	0.168
313.15	0.00757	996.172	0.168
313.15	0.01211	996.285	0.168
313.15	0.01869	996.441	0.168
313.15	0.0243	996.552	0.168
313.15	0.03106	996.707	0.168
313.15	0.04716	997.089	0.168
313.15	0.06162	997.41	0.168
313.15	0.07499	997.715	0.167
313.15	0.09157	998.114	0.167
313.15	0.11563	998.647	0.167

System: sodium carbonate + water + 1-dodecyl-3-methylimidazolium bromide; phases: Liquid
Fixed: Pressure, kPa = 84.51
Fixed: Solvent: Molality, mol/kg of sodium carbonate = 0.035
Fixed: Frequency, MHz = 3
Property: Speed of sound, m/s (Liquid); method: Sing-around technique in a fixed-path interferometer
Temperature, K	Molality, mol/kg of 1-dodecyl-3-methylimidazolium bromide	Speed of sound, m/s	uncertainty
288.15	0	1473.09	1.43
288.15	0.00201	1473.76	1.43
288.15	0.00306	1474.03	1.43
288.15	0.00301	1474.04	1.43
288.15	0.00393	1474.29	1.43
288.15	0.00454	1474.47	1.43
288.15	0.00514	1474.62	1.43
288.15	0.00757	1474.93	1.43
288.15	0.01211	1475	1.43
288.15	0.01869	1475.1	1.43
288.15	0.0243	1475.15	1.43
288.15	0.03106	1475.28	1.43
288.15	0.04716	1475.48	1.43
288.15	0.06162	1475.77	1.43
288.15	0.07499	1475.99	1.43
288.15	0.09157	1476.35	1.43
288.15	0.11563	1476.82	1.43
293.15	0	1489.06	1.43
293.15	0.00201	1489.52	1.43
293.15	0.00306	1489.77	1.43
293.15	0.00301	1489.8	1.43
293.15	0.00393	1490.02	1.43
293.15	0.00454	1490.18	1.43
293.15	0.00514	1490.31	1.43
293.15	0.00757	1490.51	1.43
293.15	0.01211	1490.56	1.43
293.15	0.01869	1490.61	1.43
293.15	0.0243	1490.65	1.43
293.15	0.03106	1490.69	1.43
293.15	0.04716	1490.79	1.43
293.15	0.06162	1490.9	1.43
293.15	0.07499	1490.97	1.43
293.15	0.09157	1491.22	1.43
293.15	0.11563	1491.45	1.43
298.15	0	1502.99	1.43
298.15	0.00201	1503.47	1.43
298.15	0.00306	1503.69	1.43
298.15	0.00301	1503.71	1.43
298.15	0.00393	1503.9	1.43
298.15	0.00454	1504.05	1.43
298.15	0.00514	1504.17	1.43
298.15	0.00757	1504.31	1.43
298.15	0.01211	1504.33	1.43
298.15	0.01869	1504.32	1.43
298.15	0.0243	1504.31	1.43
298.15	0.03106	1504.29	1.43
298.15	0.04716	1504.28	1.43
298.15	0.06162	1504.27	1.43
298.15	0.07499	1504.27	1.43
298.15	0.09157	1504.28	1.43
298.15	0.11563	1504.28	1.43
303.15	0	1515.19	1.43
303.15	0.00201	1515.61	1.43
303.15	0.00306	1515.77	1.43
303.15	0.00301	1515.8	1.43
303.15	0.00393	1515.97	1.43
303.15	0.00454	1516.11	1.43
303.15	0.00514	1516.22	1.43
303.15	0.00757	1516.3	1.43
303.15	0.01211	1516.28	1.43
303.15	0.01869	1516.21	1.43
303.15	0.0243	1516	1.43
303.15	0.03106	1515.99	1.43
303.15	0.04716	1515.95	1.43
303.15	0.06162	1515.76	1.43
303.15	0.07499	1515.54	1.43
303.15	0.09157	1515.51	1.43
303.15	0.11563	1515.29	1.43
308.15	0	1525.69	1.43
308.15	0.00201	1526.05	1.43
308.15	0.00306	1526.23	1.43
308.15	0.00301	1526.25	1.43
308.15	0.00393	1526.4	1.43
308.15	0.00454	1526.51	1.43
308.15	0.00514	1526.59	1.43
308.15	0.00757	1526.67	1.43
308.15	0.01211	1526.61	1.43
308.15	0.01869	1526.49	1.43
308.15	0.0243	1526.35	1.43
308.15	0.03106	1526.27	1.43
308.15	0.04716	1525.98	1.43
308.15	0.06162	1525.64	1.43
308.15	0.07499	1525.25	1.43
308.15	0.09157	1525.13	1.43
308.15	0.11563	1524.69	1.43
313.15	0	1534.63	1.43
313.15	0.00201	1534.94	1.43
313.15	0.00306	1535.1	1.43
313.15	0.00301	1535.11	1.43
313.15	0.00393	1535.25	1.43
313.15	0.00454	1535.34	1.43
313.15	0.00514	1535.42	1.43
313.15	0.00757	1535.48	1.43
313.15	0.01211	1535.38	1.43
313.15	0.01869	1535.2	1.43
313.15	0.0243	1534.99	1.43
313.15	0.03106	1534.8	1.43
313.15	0.04716	1534.47	1.43
313.15	0.06162	1533.99	1.43
313.15	0.07499	1533.45	1.43
313.15	0.09157	1533.21	1.43
313.15	0.11563	1532.55	1.43

System: water + sodium sulfate + 1-dodecyl-3-methylimidazolium bromide; phases: Liquid
Fixed: Pressure, kPa = 84.51
Fixed: Solvent: Molality, mol/kg of sodium sulfate = 0.035
Property: Mass density, kg/m3 (Liquid); method: Vibrating tube method
Temperature, K	Molality, mol/kg of 1-dodecyl-3-methylimidazolium bromide	Mass density, kg/m3	uncertainty
288.15	0	1003.684	0.259
288.15	0.00189	1003.749	0.259
288.15	0.00256	1003.777	0.259
288.15	0.00301	1003.793	0.259
288.15	0.00393	1003.825	0.259
288.15	0.00453	1003.848	0.259
288.15	0.00513	1003.869	0.259
288.15	0.00754	1003.937	0.259
288.15	0.01218	1004.076	0.26
288.15	0.01825	1004.25	0.26
288.15	0.02437	1004.413	0.26
288.15	0.0312	1004.602	0.26
288.15	0.04567	1005.014	0.26
288.15	0.06903	1005.681	0.261
288.15	0.07763	1005.919	0.261
288.15	0.09282	1006.325	0.261
288.15	0.11686	1006.995	0.262
293.15	0	1002.731	0.259
293.15	0.00189	1002.796	0.258
293.15	0.00256	1002.821	0.259
293.15	0.00301	1002.839	0.259
293.15	0.00393	1002.865	0.259
293.15	0.00453	1002.889	0.259
293.15	0.00513	1002.908	0.259
293.15	0.00754	1002.974	0.259
293.15	0.01218	1003.106	0.259
293.15	0.01825	1003.273	0.259
293.15	0.02437	1003.431	0.259
293.15	0.0312	1003.612	0.259
293.15	0.04567	1004.008	0.26
293.15	0.06903	1004.649	0.26
293.15	0.07763	1004.88	0.26
293.15	0.09282	1005.269	0.261
293.15	0.11686	1005.913	0.261
298.15	0	1001.523	0.258
298.15	0.00189	1001.586	0.257
298.15	0.00256	1001.61	0.258
298.15	0.00301	1001.625	0.258
298.15	0.00393	1001.653	0.258
298.15	0.00453	1001.674	0.258
298.15	0.00513	1001.692	0.258
298.15	0.00754	1001.754	0.258
298.15	0.01218	1001.883	0.258
298.15	0.01825	1002.043	0.258
298.15	0.02437	1002.196	0.258
298.15	0.0312	1002.371	0.258
298.15	0.04567	1002.752	0.258
298.15	0.06903	1003.37	0.259
298.15	0.07763	1003.592	0.259
298.15	0.09282	1003.967	0.26
298.15	0.11686	1004.588	0.26
303.15	0	1000.087	0.256
303.15	0.00189	1000.147	0.256
303.15	0.00256	1000.17	0.256
303.15	0.00301	1000.183	0.256
303.15	0.00393	1000.212	0.256
303.15	0.00453	1000.23	0.256
303.15	0.00513	1000.248	0.257
303.15	0.00754	1000.307	0.256
303.15	0.01218	1000.429	0.257
303.15	0.01825	1000.587	0.257
303.15	0.02437	1000.733	0.257
303.15	0.0312	1000.902	0.257
303.15	0.04567	1001.269	0.257
303.15	0.06903	1001.866	0.258
303.15	0.07763	1002.08	0.258
303.15	0.09282	1002.439	0.258
303.15	0.11686	1003.042	0.259
308.15	0	998.436	0.256
308.15	0.00189	998.495	0.256
308.15	0.00256	998.518	0.256
308.15	0.00301	998.531	0.256
308.15	0.00393	998.556	0.256
308.15	0.00453	998.576	0.256
308.15	0.00513	998.592	0.256
308.15	0.00754	998.649	0.256
308.15	0.01218	998.769	0.256
308.15	0.01825	998.92	0.256
308.15	0.02437	999.06	0.256
308.15	0.0312	999.223	0.256
308.15	0.04567	999.578	0.256
308.15	0.06903	1000.155	0.256
308.15	0.07763	1000.361	0.257
308.15	0.09282	1000.711	0.257
308.15	0.11686	1001.293	0.257
313.15	0	996.589	0.256
313.15	0.00189	996.647	0.256
313.15	0.00256	996.67	0.256
313.15	0.00301	996.682	0.256
313.15	0.00393	996.705	0.256
313.15	0.00453	996.726	0.256
313.15	0.00513	996.741	0.256
313.15	0.00754	996.797	0.256
313.15	0.01218	996.912	0.256
313.15	0.01825	997.058	0.256
313.15	0.02437	997.194	0.256
313.15	0.0312	997.352	0.256
313.15	0.04567	997.694	0.256
313.15	0.06903	998.254	0.256
313.15	0.07763	998.455	0.256
313.15	0.09282	998.791	0.256
313.15	0.11686	999.359	0.256

System: water + sodium sulfate + 1-dodecyl-3-methylimidazolium bromide; phases: Liquid
Fixed: Pressure, kPa = 84.51
Fixed: Solvent: Molality, mol/kg of sodium sulfate = 0.035
Fixed: Frequency, MHz = 3
Property: Speed of sound, m/s (Liquid); method: Sing-around technique in a fixed-path interferometer
Temperature, K	Molality, mol/kg of 1-dodecyl-3-methylimidazolium bromide	Speed of sound, m/s	uncertainty
288.15	0	1472.62	1.61
288.15	0.00189	1473.3	1.61
288.15	0.00256	1473.49	1.61
288.15	0.00301	1473.59	1.61
288.15	0.00393	1473.77	1.61
288.15	0.00453	1474.01	1.61
288.15	0.00513	1474.15	1.61
288.15	0.00754	1474.21	1.61
288.15	0.01218	1474.31	1.61
288.15	0.01825	1474.37	1.61
288.15	0.02437	1474.4	1.61
288.15	0.0312	1474.56	1.61
288.15	0.04567	1474.83	1.61
288.15	0.06903	1475.37	1.61
288.15	0.07763	1475.57	1.61
288.15	0.09282	1475.86	1.61
288.15	0.11686	1476.28	1.61
293.15	0	1488.56	1.61
293.15	0.00189	1489.08	1.61
293.15	0.00256	1489.25	1.61
293.15	0.00301	1489.36	1.61
293.15	0.00393	1489.55	1.61
293.15	0.00453	1489.72	1.61
293.15	0.00513	1489.81	1.61
293.15	0.00754	1489.85	1.61
293.15	0.01218	1489.91	1.61
293.15	0.01825	1489.92	1.61
293.15	0.02437	1489.93	1.61
293.15	0.0312	1490.03	1.61
293.15	0.04567	1490.19	1.61
293.15	0.06903	1490.48	1.61
293.15	0.07763	1490.58	1.61
293.15	0.09282	1490.75	1.61
293.15	0.11686	1490.99	1.61
298.15	0	1502.57	1.61
298.15	0.00189	1503.02	1.61
298.15	0.00256	1503.19	1.61
298.15	0.00301	1503.3	1.61
298.15	0.00393	1503.46	1.61
298.15	0.00453	1503.59	1.61
298.15	0.00513	1503.66	1.61
298.15	0.00754	1503.68	1.61
298.15	0.01218	1503.68	1.61
298.15	0.01825	1503.64	1.61
298.15	0.02437	1503.6	1.61
298.15	0.0312	1503.65	1.61
298.15	0.04567	1503.68	1.61
298.15	0.06903	1503.75	1.61
298.15	0.07763	1503.77	1.61
298.15	0.09282	1503.8	1.61
298.15	0.11686	1503.8	1.61
303.15	0	1514.75	1.61
303.15	0.00189	1515.15	1.61
303.15	0.00256	1515.29	1.61
303.15	0.00301	1515.38	1.61
303.15	0.00393	1515.55	1.61
303.15	0.00453	1515.67	1.61
303.15	0.00513	1515.69	1.61
303.15	0.00754	1515.69	1.61
303.15	0.01218	1515.69	1.61
303.15	0.01825	1515.58	1.61
303.15	0.02437	1515.5	1.61
303.15	0.0312	1515.47	1.61
303.15	0.04567	1515.37	1.61
303.15	0.06903	1515.2	1.61
303.15	0.07763	1515.15	1.61
303.15	0.09282	1515.04	1.61
303.15	0.11686	1514.86	1.61
308.15	0	1525.27	1.61
308.15	0.00189	1525.6	1.61
308.15	0.00256	1525.74	1.61
308.15	0.00301	1525.83	1.61
308.15	0.00393	1525.97	1.61
308.15	0.00453	1526.05	1.61
308.15	0.00513	1526.07	1.62
308.15	0.00754	1526.06	1.61
308.15	0.01218	1526	1.61
308.15	0.01825	1525.78	1.61
308.15	0.02437	1525.74	1.61
308.15	0.0312	1525.65	1.61
308.15	0.04567	1525.41	1.61
308.15	0.06903	1525.03	1.61
308.15	0.07763	1524.89	1.61
308.15	0.09282	1524.65	1.61
308.15	0.11686	1524.24	1.61
313.15	0	1534.2	1.61
313.15	0.00189	1534.49	1.61
313.15	0.00256	1534.62	1.61
313.15	0.00301	1534.71	1.61
313.15	0.00393	1534.82	1.61
313.15	0.00453	1534.9	1.61
313.15	0.00513	1534.92	1.61
313.15	0.00754	1534.9	1.61
313.15	0.01218	1534.78	1.61
313.15	0.01825	1534.53	1.61
313.15	0.02437	1534.42	1.61
313.15	0.0312	1534.27	1.61
313.15	0.04567	1533.91	1.61
313.15	0.06903	1533.3	1.61
313.15	0.07763	1533.09	1.61
313.15	0.09282	1532.7	1.61
313.15	0.11686	1532.09	1.61

System: trisodium citrate + water + 1-dodecyl-3-methylimidazolium bromide; phases: Liquid
Fixed: Pressure, kPa = 84.51
Fixed: Solvent: Molality, mol/kg of trisodium citrate = 0.035
Property: Mass density, kg/m3 (Liquid); method: Vibrating tube method
Temperature, K	Molality, mol/kg of 1-dodecyl-3-methylimidazolium bromide	Mass density, kg/m3	uncertainty
288.15	0	1005.712	0.261
288.15	0.00117	1005.751	0.261
288.15	0.00202	1005.787	0.261
288.15	0.00261	1005.804	0.261
288.15	0.00287	1005.813	0.261
288.15	0.00371	1005.847	0.261
288.15	0.00437	1005.866	0.261
288.15	0.00499	1005.887	0.261
288.15	0.0055	1005.903	0.261
288.15	0.00602	1005.913	0.261
288.15	0.00906	1005.992	0.261
288.15	0.01212	1006.079	0.261
288.15	0.01517	1006.163	0.261
288.15	0.01678	1006.209	0.261
288.15	0.02068	1006.313	0.261
288.15	0.02594	1006.458	0.262
288.15	0.03052	1006.583	0.262
288.15	0.04592	1006.983	0.262
288.15	0.06231	1007.408	0.262
288.15	0.07686	1007.78	0.263
288.15	0.1094	1008.614	0.263
293.15	0	1004.746	0.26
293.15	0.00117	1004.781	0.26
293.15	0.00202	1004.815	0.26
293.15	0.00261	1004.832	0.26
293.15	0.00287	1004.838	0.26
293.15	0.00371	1004.873	0.26
293.15	0.00437	1004.889	0.26
293.15	0.00499	1004.909	0.26
293.15	0.0055	1004.926	0.26
293.15	0.00602	1004.933	0.261
293.15	0.00906	1005.01	0.26
293.15	0.01212	1005.093	0.26
293.15	0.01517	1005.174	0.26
293.15	0.01678	1005.218	0.261
293.15	0.02068	1005.317	0.261
293.15	0.02594	1005.456	0.261
293.15	0.03052	1005.577	0.261
293.15	0.04592	1005.957	0.261
293.15	0.06231	1006.365	0.262
293.15	0.07686	1006.723	0.262
293.15	0.1094	1007.523	0.262
298.15	0	1003.527	0.259
298.15	0.00117	1003.56	0.259
298.15	0.00202	1003.591	0.259
298.15	0.00261	1003.606	0.259
298.15	0.00287	1003.614	0.259
298.15	0.00371	1003.645	0.259
298.15	0.00437	1003.661	0.259
298.15	0.00499	1003.679	0.259
298.15	0.0055	1003.697	0.259
298.15	0.00602	1003.703	0.26
298.15	0.00906	1003.778	0.259
298.15	0.01212	1003.856	0.259
298.15	0.01517	1003.934	0.259
298.15	0.01678	1003.975	0.26
298.15	0.02068	1004.071	0.26
298.15	0.02594	1004.206	0.26
298.15	0.03052	1004.32	0.26
298.15	0.04592	1004.686	0.26
298.15	0.06231	1005.077	0.26
298.15	0.07686	1005.419	0.261
298.15	0.1094	1006.191	0.261
303.15	0	1002.079	0.258
303.15	0.00117	1002.11	0.258
303.15	0.00202	1002.141	0.258
303.15	0.00261	1002.155	0.258
303.15	0.00287	1002.162	0.258
303.15	0.00371	1002.191	0.258
303.15	0.00437	1002.207	0.258
303.15	0.00499	1002.223	0.258
303.15	0.0055	1002.239	0.258
303.15	0.00602	1002.246	0.258
303.15	0.00906	1002.318	0.258
303.15	0.01212	1002.392	0.258
303.15	0.01517	1002.468	0.258
303.15	0.01678	1002.506	0.258
303.15	0.02068	1002.599	0.258
303.15	0.02594	1002.73	0.258
303.15	0.03052	1002.841	0.259
303.15	0.04592	1003.191	0.259
303.15	0.06231	1003.566	0.259
303.15	0.07686	1003.897	0.259
303.15	0.1094	1004.637	0.26
308.15	0	1000.422	0.257
308.15	0.00117	1000.45	0.257
308.15	0.00202	1000.48	0.257
308.15	0.00261	1000.494	0.257
308.15	0.00287	1000.5	0.257
308.15	0.00371	1000.529	0.257
308.15	0.00437	1000.543	0.257
308.15	0.00499	1000.558	0.257
308.15	0.0055	1000.574	0.257
308.15	0.00602	1000.581	0.257
308.15	0.00906	1000.651	0.257
308.15	0.01212	1000.723	0.257
308.15	0.01517	1000.794	0.257
308.15	0.01678	1000.831	0.257
308.15	0.02068	1000.919	0.257
308.15	0.02594	1001.048	0.257
308.15	0.03052	1001.153	0.257
308.15	0.04592	1001.49	0.257
308.15	0.06231	1001.852	0.258
308.15	0.07686	1002.169	0.258
308.15	0.1094	1002.882	0.259
313.15	0	998.572	0.256
313.15	0.00117	998.596	0.256
313.15	0.00202	998.624	0.256
313.15	0.00261	998.639	0.256
313.15	0.00287	998.644	0.256
313.15	0.00371	998.671	0.256
313.15	0.00437	998.687	0.256
313.15	0.00499	998.7	0.256
313.15	0.0055	998.715	0.256
313.15	0.00602	998.722	0.256
313.15	0.00906	998.788	0.256
313.15	0.01212	998.859	0.256
313.15	0.01517	998.928	0.256
313.15	0.01678	998.961	0.256
313.15	0.02068	999.048	0.256
313.15	0.02594	999.173	0.256
313.15	0.03052	999.274	0.256
313.15	0.04592	999.598	0.256
313.15	0.06231	999.946	0.256
313.15	0.07686	1000.252	0.256
313.15	0.1094	1000.941	0.257

System: trisodium citrate + water + 1-dodecyl-3-methylimidazolium bromide; phases: Liquid
Fixed: Pressure, kPa = 84.51
Fixed: Solvent: Molality, mol/kg of trisodium citrate = 0.035
Fixed: Frequency, MHz = 3
Property: Speed of sound, m/s (Liquid); method: Sing-around technique in a fixed-path interferometer
Temperature, K	Molality, mol/kg of 1-dodecyl-3-methylimidazolium bromide	Speed of sound, m/s	uncertainty
288.15	0	1474.71	1.61
288.15	0.00117	1475.18	1.61
288.15	0.00202	1475.4	1.61
288.15	0.00261	1475.58	1.61
288.15	0.00287	1475.61	1.61
288.15	0.00371	1475.88	1.61
288.15	0.00437	1475.98	1.61
288.15	0.00499	1475.93	1.61
288.15	0.0055	1475.97	1.61
288.15	0.00602	1475.95	1.61
288.15	0.00906	1476.05	1.61
288.15	0.01212	1476.15	1.61
288.15	0.01517	1476.27	1.61
288.15	0.01678	1476.33	1.61
288.15	0.02068	1476.38	1.61
288.15	0.02594	1476.49	1.61
288.15	0.03052	1476.58	1.61
288.15	0.04592	1476.82	1.61
288.15	0.06231	1476.97	1.61
288.15	0.07686	1477.38	1.61
288.15	0.1094	1478.04	1.61
293.15	0	1490.63	1.61
293.15	0.00117	1490.91	1.61
293.15	0.00202	1491.13	1.61
293.15	0.00261	1491.29	1.61
293.15	0.00287	1491.33	1.61
293.15	0.00371	1491.53	1.61
293.15	0.00437	1491.58	1.61
293.15	0.00499	1491.58	1.61
293.15	0.0055	1491.49	1.61
293.15	0.00602	1491.56	1.61
293.15	0.00906	1491.64	1.61
293.15	0.01212	1491.71	1.61
293.15	0.01517	1491.76	1.61
293.15	0.01678	1491.82	1.61
293.15	0.02068	1491.85	1.61
293.15	0.02594	1491.88	1.61
293.15	0.03052	1491.96	1.61
293.15	0.04592	1492.08	1.61
293.15	0.06231	1492.13	1.61
293.15	0.07686	1492.33	1.61
293.15	0.1094	1492.66	1.61
298.15	0	1504.51	1.61
298.15	0.00117	1504.82	1.61
298.15	0.00202	1505.03	1.61
298.15	0.00261	1505.27	1.61
298.15	0.00287	1505.3	1.61
298.15	0.00371	1505.36	1.61
298.15	0.00437	1505.39	1.61
298.15	0.00499	1505.39	1.61
298.15	0.0055	1505.4	1.61
298.15	0.00602	1505.41	1.62
298.15	0.00906	1505.43	1.61
298.15	0.01212	1505.45	1.61
298.15	0.01517	1505.47	1.61
298.15	0.01678	1505.48	1.61
298.15	0.02068	1505.5	1.61
298.15	0.02594	1505.51	1.61
298.15	0.03052	1505.53	1.61
298.15	0.04592	1505.52	1.61
298.15	0.06231	1505.5	1.61
298.15	0.07686	1505.48	1.61
298.15	0.1094	1505.47	1.61
303.15	0	1516.65	1.61
303.15	0.00117	1516.91	1.61
303.15	0.00202	1517.08	1.61
303.15	0.00261	1517.25	1.61
303.15	0.00287	1517.24	1.61
303.15	0.00371	1517.35	1.61
303.15	0.00437	1517.4	1.61
303.15	0.00499	1517.39	1.61
303.15	0.0055	1517.31	1.61
303.15	0.00602	1517.36	1.61
303.15	0.00906	1517.37	1.61
303.15	0.01212	1517.4	1.61
303.15	0.01517	1517.37	1.61
303.15	0.01678	1517.34	1.61
303.15	0.02068	1517.34	1.61
303.15	0.02594	1517.33	1.61
303.15	0.03052	1517.29	1.61
303.15	0.04592	1517.15	1.61
303.15	0.06231	1516.88	1.61
303.15	0.07686	1516.78	1.61
303.15	0.1094	1516.48	1.61
308.15	0	1527.11	1.61
308.15	0.00117	1527.32	1.61
308.15	0.00202	1527.48	1.61
308.15	0.00261	1527.61	1.61
308.15	0.00287	1527.63	1.61
308.15	0.00371	1527.72	1.61
308.15	0.00437	1527.75	1.61
308.15	0.00499	1527.75	1.61
308.15	0.0055	1527.67	1.61
308.15	0.00602	1527.71	1.62
308.15	0.00906	1527.7	1.61
308.15	0.01212	1527.68	1.61
308.15	0.01517	1527.64	1.61
308.15	0.01678	1527.58	1.61
308.15	0.02068	1527.53	1.61
308.15	0.02594	1527.5	1.61
308.15	0.03052	1527.42	1.61
308.15	0.04592	1527.12	1.61
308.15	0.06231	1526.72	1.61
308.15	0.07686	1526.47	1.61
308.15	0.1094	1525.86	1.61
313.15	0	1536.01	1.61
313.15	0.00117	1536.18	1.61
313.15	0.00202	1536.33	1.61
313.15	0.00261	1536.42	1.61
313.15	0.00287	1536.45	1.61
313.15	0.00371	1536.53	1.61
313.15	0.00437	1536.54	1.61
313.15	0.00499	1536.56	1.61
313.15	0.0055	1536.48	1.61
313.15	0.00602	1536.49	1.61
313.15	0.00906	1536.47	1.61
313.15	0.01212	1536.41	1.61
313.15	0.01517	1536.34	1.61
313.15	0.01678	1536.25	1.61
313.15	0.02068	1536.17	1.61
313.15	0.02594	1536.12	1.61
313.15	0.03052	1535.99	1.61
313.15	0.04592	1535.55	1.61
313.15	0.06231	1535.01	1.61
313.15	0.07686	1534.62	1.61
313.15	0.1094	1533.7	1.61

System: potassium chloride + water; phases: Liquid
Fixed: Pressure, kPa = 84.51
Fixed: Molality, mol/kg of potassium chloride = 0.035
Property: Mass density, kg/m3 (Liquid); method: Vibrating tube method
Temperature, K	Mass density, kg/m3	uncertainty
288.15	1000.789	0.201
293.15	999.873	0.201
298.15	998.698	0.201
303.15	997.288	0.201
308.15	995.661	0.201
313.15	993.836	0.201

System: potassium chloride + water; phases: Liquid
Fixed: Pressure, kPa = 84.51
Fixed: Molality, mol/kg of potassium chloride = 0.035
Fixed: Frequency, MHz = 3
Property: Speed of sound, m/s (Liquid); method: Sing-around technique in a fixed-path interferometer
Temperature, K	Speed of sound, m/s	uncertainty
288.15	1468.55	1.5
293.15	1484.54	1.5
298.15	1498.65	1.51
303.15	1510.94	1.51
308.15	1521.5	1.51
313.15	1530.51	1.51

System: water + ammonium chloride (NH4Cl); phases: Liquid
Fixed: Pressure, kPa = 84.51
Fixed: Molality, mol/kg of ammonium chloride (NH4Cl) = 0.035
Property: Mass density, kg/m3 (Liquid); method: Vibrating tube method
Temperature, K	Mass density, kg/m3	uncertainty
288.15	999.719	0.175
293.15	998.814	0.175
298.15	997.645	0.175
303.15	996.243	0.175
308.15	994.624	0.176
313.15	992.807	0.176

System: water + ammonium chloride (NH4Cl); phases: Liquid
Fixed: Pressure, kPa = 84.51
Fixed: Molality, mol/kg of ammonium chloride (NH4Cl) = 0.035
Fixed: Frequency, MHz = 3
Property: Speed of sound, m/s (Liquid); method: Sing-around technique in a fixed-path interferometer
Temperature, K	Speed of sound, m/s	uncertainty
288.15	1468.19	1.44
293.15	1484.22	1.45
298.15	1498.39	1.45
303.15	1510.73	1.45
308.15	1521.35	1.45
313.15	1530.38	1.45

System: tetramethylammonium chloride + water; phases: Liquid
Fixed: Pressure, kPa = 84.51
Fixed: Molality, mol/kg of tetramethylammonium chloride = 0.035
Property: Mass density, kg/m3 (Liquid); method: Vibrating tube method
Temperature, K	Mass density, kg/m3	uncertainty
288.15	999.201	0.421
293.15	998.29	0.421
298.15	997.12	0.42
303.15	995.716	0.42
308.15	994.093	0.419
313.15	992.272	0.418

System: tetramethylammonium chloride + water; phases: Liquid
Fixed: Pressure, kPa = 84.51
Fixed: Molality, mol/kg of tetramethylammonium chloride = 0.035
Fixed: Frequency, MHz = 3
Property: Speed of sound, m/s (Liquid); method: Sing-around technique in a fixed-path interferometer
Temperature, K	Speed of sound, m/s	uncertainty
288.15	1470.25	1.84
293.15	1486.1	1.85
298.15	1500.12	1.85
303.15	1512.3	1.85
308.15	1522.8	1.85
313.15	1531.73	1.85

System: water + magnesium chloride; phases: Liquid
Fixed: Pressure, kPa = 84.51
Fixed: Molality, mol/kg of magnesium chloride = 0.035
Property: Mass density, kg/m3 (Liquid); method: Vibrating tube method
Temperature, K	Mass density, kg/m3	uncertainty
288.15	1002.404	0.258
293.15	1001.484	0.258
298.15	1000.308	0.257
303.15	998.899	0.256
308.15	997.276	0.256
313.15	995.455	0.256

System: water + magnesium chloride; phases: Liquid
Fixed: Pressure, kPa = 84.51
Fixed: Molality, mol/kg of magnesium chloride = 0.035
Fixed: Frequency, MHz = 3
Property: Speed of sound, m/s (Liquid); method: Sing-around technique in a fixed-path interferometer
Temperature, K	Speed of sound, m/s	uncertainty
288.15	1471.14	1.61
293.15	1487.1	1.61
298.15	1501.29	1.61
303.15	1513.46	1.61
308.15	1524.01	1.61
313.15	1533.01	1.61

System: ferric chloride + water; phases: Liquid
Fixed: Pressure, kPa = 84.51
Fixed: Molality, mol/kg of ferric chloride = 0.035
Property: Mass density, kg/m3 (Liquid); method: Vibrating tube method
Temperature, K	Mass density, kg/m3	uncertainty
288.15	1003.963	0.203
293.15	1003.047	0.203
298.15	1001.87	0.202
303.15	1000.458	0.201
308.15	998.83	0.201
313.15	997.003	0.201

System: ferric chloride + water; phases: Liquid
Fixed: Pressure, kPa = 84.51
Fixed: Molality, mol/kg of ferric chloride = 0.035
Fixed: Frequency, MHz = 3
Property: Speed of sound, m/s (Liquid); method: Sing-around technique in a fixed-path interferometer
Temperature, K	Speed of sound, m/s	uncertainty
288.15	1470.92	1.5
293.15	1486.83	1.5
298.15	1500.84	1.51
303.15	1513	1.51
308.15	1523.52	1.51
313.15	1532.44	1.51

System: sodium chloride + water; phases: Liquid
Fixed: Pressure, kPa = 84.51
Fixed: Molality, mol/kg of sodium chloride = 0.035
Property: Mass density, kg/m3 (Liquid); method: Vibrating tube method
Temperature, K	Mass density, kg/m3	uncertainty
288.15	1000.554	0.201
293.15	999.636	0.201
298.15	998.457	0.201
303.15	997.046	0.201
308.15	995.419	0.201
313.15	993.592	0.201

System: sodium chloride + water; phases: Liquid
Fixed: Pressure, kPa = 84.51
Fixed: Molality, mol/kg of sodium chloride = 0.035
Fixed: Frequency, MHz = 3
Property: Speed of sound, m/s (Liquid); method: Sing-around technique in a fixed-path interferometer
Temperature, K	Speed of sound, m/s	uncertainty
288.15	1468.84	1.5
293.15	1484.88	1.5
298.15	1498.98	1.51
303.15	1511.27	1.51
308.15	1521.87	1.51
313.15	1530.9	1.51

System: sodium nitrate + water; phases: Liquid
Fixed: Pressure, kPa = 84.51
Fixed: Molality, mol/kg of sodium nitrate = 0.035
Property: Mass density, kg/m3 (Liquid); method: Vibrating tube method
Temperature, K	Mass density, kg/m3	uncertainty
288.15	1001.139	0.201
293.15	1000.209	0.201
298.15	999.017	0.201
303.15	997.592	0.201
308.15	995.954	0.201
313.15	994.12	0.201

System: sodium nitrate + water; phases: Liquid
Fixed: Pressure, kPa = 84.51
Fixed: Molality, mol/kg of sodium nitrate = 0.035
Fixed: Frequency, MHz = 3
Property: Speed of sound, m/s (Liquid); method: Sing-around technique in a fixed-path interferometer
Temperature, K	Speed of sound, m/s	uncertainty
288.15	1468.19	1.5
293.15	1484.18	1.5
298.15	1498.27	1.51
303.15	1510.51	1.51
308.15	1521.07	1.51
313.15	1530.07	1.51

System: sodium carbonate + water; phases: Liquid
Fixed: Pressure, kPa = 84.51
Fixed: Molality, mol/kg of sodium carbonate = 0.035
Property: Mass density, kg/m3 (Liquid); method: Vibrating tube method
Temperature, K	Mass density, kg/m3	uncertainty
288.15	1003.038	0.169
293.15	1002.086	0.168
298.15	1000.877	0.168
303.15	999.439	0.167
308.15	997.791	0.168
313.15	995.95	0.168

System: sodium carbonate + water; phases: Liquid
Fixed: Pressure, kPa = 84.51
Fixed: Molality, mol/kg of sodium carbonate = 0.035
Fixed: Frequency, MHz = 3
Property: Speed of sound, m/s (Liquid); method: Sing-around technique in a fixed-path interferometer
Temperature, K	Speed of sound, m/s	uncertainty
288.15	1473.09	1.43
293.15	1489.06	1.43
298.15	1502.99	1.43
303.15	1515.19	1.43
308.15	1525.69	1.43
313.15	1534.63	1.43

System: water + sodium sulfate; phases: Liquid
Fixed: Pressure, kPa = 84.51
Fixed: Molality, mol/kg of sodium sulfate = 0.035
Property: Mass density, kg/m3 (Liquid); method: Vibrating tube method
Temperature, K	Mass density, kg/m3	uncertainty
288.15	1003.684	0.259
293.15	1002.731	0.259
298.15	1001.523	0.258
303.15	1000.087	0.256
308.15	998.436	0.256
313.15	996.589	0.256

System: water + sodium sulfate; phases: Liquid
Fixed: Pressure, kPa = 84.51
Fixed: Molality, mol/kg of sodium sulfate = 0.035
Fixed: Frequency, MHz = 3
Property: Speed of sound, m/s (Liquid); method: Sing-around technique in a fixed-path interferometer
Temperature, K	Speed of sound, m/s	uncertainty
288.15	1472.62	1.61
293.15	1488.56	1.61
298.15	1502.57	1.61
303.15	1514.75	1.61
308.15	1525.27	1.61
313.15	1534.2	1.61

System: trisodium citrate + water; phases: Liquid
Fixed: Pressure, kPa = 84.51
Fixed: Molality, mol/kg of trisodium citrate = 0.035
Property: Mass density, kg/m3 (Liquid); method: Vibrating tube method
Temperature, K	Mass density, kg/m3	uncertainty
288.15	1005.712	0.261
293.15	1004.746	0.26
298.15	1003.527	0.259
303.15	1002.079	0.258
308.15	1000.422	0.257
313.15	998.572	0.256

System: trisodium citrate + water; phases: Liquid
Fixed: Pressure, kPa = 84.51
Fixed: Molality, mol/kg of trisodium citrate = 0.035
Fixed: Frequency, MHz = 3
Property: Speed of sound, m/s (Liquid); method: Sing-around technique in a fixed-path interferometer
Temperature, K	Speed of sound, m/s	uncertainty
288.15	1474.71	1.61
293.15	1490.63	1.61
298.15	1504.51	1.61
303.15	1516.65	1.61
308.15	1527.11	1.61
313.15	1536.01	1.61
