Measured thermophysical data. Conductometric study of some alkali metal halides in (dimethyl sulfoxide + acetonitrile) at T = 298.15 K
Source: J. Chem. Thermodyn., 2009, 10.1016/j.jct.2009.03.005
Compound 1: acetonitrile, C2H3N, InChI=1S/C2H3N/c1-2-3/h1H3, purity 99%
Compound 2: dimethyl sulfoxide, C2H6OS, InChI=1S/C2H6OS/c1-4(2)3/h1-2H3
Compound 3: tetrabutylammonium bromide, C16H36BrN, InChI=1S/C16H36N.BrH/c1-5-9-13-17(14-10-6-2,15-11-7-3)16-12-8-4;/h5-16H2,1-4H3;1H/q+1;/p-1
Compound 4: sodium tetraphenylboron, C24H20BNa, InChI=1S/C24H20B.Na/c1-5-13-21(14-6-1)25(22-15-7-2-8-16-22,23-17-9-3-10-18-23)24-19-11-4-12-20-24;/h1-20H;/q-1;+1
Compound 5: lithium bromide, BrLi, InChI=1S/BrH.Li/h1H;/q;+1/p-1, purity 98%
Compound 6: lithium iodide, ILi, InChI=1S/HI.Li/h1H;/q;+1/p-1, purity 98%
Compound 7: sodium bromide, BrNa, InChI=1S/BrH.Na/h1H;/q;+1/p-1, purity 98%
Compound 8: sodium iodide, INa, InChI=1S/HI.Na/h1H;/q;+1/p-1, purity 98%
Compound 9: potassium iodide, IK, InChI=1S/HI.K/h1H;/q;+1/p-1, purity 98%
Compound 10: lithium chloride, ClLi, InChI=1S/ClH.Li/h1H;/q;+1/p-1, purity 98%

System: dimethyl sulfoxide + acetonitrile; phases: Liquid
Fixed: Pressure, kPa = 101
Fixed: Temperature, K = 298.15
Property: Viscosity, Pa*s (Liquid); method: Capillary tube (Ostwald; Ubbelohde) method
Mass fraction of dimethyl sulfoxide	Viscosity, Pa*s	uncertainty
0.2	0.0004196	1.71e-05
0.4	0.0005249	2.14e-05
0.6	0.0007147	2.91e-05

System: dimethyl sulfoxide + acetonitrile; phases: Liquid
Fixed: Pressure, kPa = 101
Fixed: Temperature, K = 298.15
Property: Mass density, kg/m3 (Liquid); method: Pycnometric method
Mass fraction of dimethyl sulfoxide	Mass density, kg/m3	uncertainty
0.2	829.3	0.4
0.4	883.3	0.4
0.6	945.6	0.5

System: dimethyl sulfoxide + acetonitrile + lithium bromide; phases: Liquid
Fixed: Pressure, kPa = 101
Fixed: Temperature, K = 298.15
Property: Electrical conductivity, S/m (Liquid); method: conductivity bridge
Solvent: Mass fraction of dimethyl sulfoxide	Amount concentration (molarity), mol/dm3 of lithium bromide	Electrical conductivity, S/m	uncertainty
0.2	0.001939	0.0238	0.0001
0.2	0.002054	0.0251	0.0001
0.2	0.002223	0.0269	0.0001
0.2	0.002333	0.0281	0.0001
0.2	0.002497	0.0298	0.0001
0.2	0.002761	0.0326	0.0001
0.2	0.003017	0.0352	0.0001
0.2	0.003264	0.0378	0.0001
0.2	0.003503	0.0401	0.0001
0.2	0.003735	0.0425	0.0001
0.4	0.00144	0.0153	0.0001
0.4	0.001675	0.0176	0.0001
0.4	0.001829	0.019	0.0001
0.4	0.002056	0.0211	0.0001
0.4	0.002204	0.0224	0.0001
0.4	0.002423	0.0244	0.0001
0.4	0.002566	0.0256	0.0001
0.4	0.002777	0.0274	0.0001
0.4	0.002915	0.0285	0.0001
0.4	0.003119	0.0302	0.0001
0.6	0.001975	0.0149	0.0001
0.6	0.002221	0.0165	0.0001
0.6	0.002584	0.0189	0.0001
0.6	0.002822	0.0203	0.0001
0.6	0.003172	0.0224	0.0001
0.6	0.003401	0.0237	0.0001
0.6	0.003738	0.0256	0.0001
0.6	0.003959	0.0268	0.0001
0.6	0.004284	0.0287	0.0001
0.6	0.004498	0.0297	0.0001

System: dimethyl sulfoxide + acetonitrile + lithium iodide; phases: Liquid
Fixed: Pressure, kPa = 101
Fixed: Temperature, K = 298.15
Property: Electrical conductivity, S/m (Liquid); method: conductivity bridge
Solvent: Mass fraction of dimethyl sulfoxide	Amount concentration (molarity), mol/dm3 of lithium iodide	Electrical conductivity, S/m	uncertainty
0.2	0.000716	0.0095	0.0001
0.2	0.000853	0.0112	0.0001
0.2	0.001054	0.0136	0.0001
0.2	0.001185	0.0151	0.0001
0.2	0.001379	0.0175	0.0001
0.2	0.001506	0.0191	0.0001
0.2	0.001693	0.0212	0.0001
0.2	0.001815	0.0225	0.0001
0.2	0.001995	0.0245	0.0001
0.2	0.002113	0.0258	0.0001
0.4	0.001396	0.0145	0.0001
0.4	0.00157	0.016	0.0001
0.4	0.001826	0.0184	0.0001
0.4	0.001994	0.0198	0.0001
0.4	0.002241	0.0219	0.0001
0.4	0.002403	0.0233	0.0001
0.4	0.002642	0.0253	0.0001
0.4	0.002798	0.0265	0.0001
0.4	0.003028	0.0285	0.0001
0.4	0.003178	0.0294	0.0001
0.6	0.00183	0.0123	0.0001
0.6	0.002059	0.0136	0.0001
0.6	0.002395	0.0157	0.0001
0.6	0.002615	0.0169	0.0001
0.6	0.002939	0.0186	0.0001
0.6	0.003152	0.0195	0.0001
0.6	0.003464	0.0211	0.0001
0.6	0.003669	0.0221	0.0001
0.6	0.003971	0.0236	0.0001
0.6	0.004168	0.0245	0.0001

System: dimethyl sulfoxide + acetonitrile + sodium bromide; phases: Liquid
Fixed: Pressure, kPa = 101
Fixed: Temperature, K = 298.15
Property: Electrical conductivity, S/m (Liquid); method: conductivity bridge
Solvent: Mass fraction of dimethyl sulfoxide	Amount concentration (molarity), mol/dm3 of sodium bromide	Electrical conductivity, S/m	uncertainty
0.2	0.000708	0.0096	0.0001
0.2	0.000843	0.0113	0.0001
0.2	0.001042	0.0138	0.0001
0.2	0.001172	0.0154	0.0001
0.2	0.001364	0.0178	0.0001
0.2	0.001489	0.0193	0.0001
0.2	0.001673	0.0215	0.0001
0.2	0.001794	0.0229	0.0001
0.2	0.001972	0.0249	0.0001
0.2	0.002089	0.0262	0.0001
0.4	0.004958	0.0461	0.0001
0.4	0.005255	0.0486	0.0001
0.4	0.005544	0.0508	0.0001
0.4	0.005824	0.053	0.0001
0.4	0.006096	0.055	0.0001
0.4	0.00636	0.0569	0.0001
0.4	0.006616	0.0587	0.0001
0.4	0.006864	0.0604	0.0001
0.4	0.007341	0.0639	0.0001
0.4	0.007792	0.0671	0.0001
0.6	0.002943	0.0231	0.0001
0.6	0.003308	0.0254	0.0001
0.6	0.003547	0.0269	0.0001
0.6	0.003899	0.0292	0.0001
0.6	0.004129	0.0305	0.0001
0.6	0.004469	0.0326	0.0001
0.6	0.004691	0.0339	0.0001
0.6	0.005019	0.0358	0.0001
0.6	0.005234	0.0369	0.0001
0.6	0.005551	0.0386	0.0001

System: dimethyl sulfoxide + acetonitrile + sodium iodide; phases: Liquid
Fixed: Pressure, kPa = 101
Fixed: Temperature, K = 298.15
Property: Electrical conductivity, S/m (Liquid); method: conductivity bridge
Solvent: Mass fraction of dimethyl sulfoxide	Amount concentration (molarity), mol/dm3 of sodium iodide	Electrical conductivity, S/m	uncertainty
0.2	0.000693	0.0106	0.0001
0.2	0.000825	0.0125	0.0001
0.2	0.00102	0.0153	0.0001
0.2	0.001147	0.0171	0.0001
0.2	0.001334	0.0198	0.0001
0.2	0.001457	0.0215	0.0001
0.2	0.001638	0.024	0.0001
0.2	0.001756	0.0257	0.0001
0.2	0.00193	0.0281	0.0001
0.2	0.002044	0.0296	0.0001
0.4	0.005959	0.0572	0.0001
0.4	0.006216	0.0589	0.0001
0.4	0.006467	0.0609	0.0001
0.4	0.00671	0.0629	0.0001
0.4	0.007176	0.0667	0.0001
0.4	0.007616	0.0699	0.0001
0.4	0.008034	0.0729	0.0001
0.4	0.00843	0.0758	0.0001
0.4	0.008806	0.0785	0.0001
0.4	0.009164	0.0811	0.0001
0.6	0.006018	0.0431	0.0001
0.6	0.006459	0.0456	0.0001
0.6	0.006886	0.048	0.0001
0.6	0.0073	0.0504	0.0001
0.6	0.007701	0.0525	0.0001
0.6	0.00809	0.0546	0.0001
0.6	0.008467	0.0565	0.0001
0.6	0.008834	0.0583	0.0001
0.6	0.009189	0.0601	0.0001
0.6	0.009535	0.0617	0.0001

System: dimethyl sulfoxide + acetonitrile + potassium iodide; phases: Liquid
Fixed: Pressure, kPa = 101
Fixed: Temperature, K = 298.15
Property: Electrical conductivity, S/m (Liquid); method: conductivity bridge
Solvent: Mass fraction of dimethyl sulfoxide	Amount concentration (molarity), mol/dm3 of potassium iodide	Electrical conductivity, S/m	uncertainty
0.2	0.000773	0.013	0.0001
0.2	0.00092	0.0154	0.0001
0.2	0.001137	0.0189	0.0001
0.2	0.001279	0.0212	0.0001
0.2	0.001489	0.0246	0.0001
0.2	0.001625	0.0268	0.0001
0.2	0.001827	0.03	0.0001
0.2	0.001959	0.032	0.0001
0.2	0.002153	0.035	0.0001
0.2	0.00228	0.037	0.0001
0.4	0.002662	0.0301	0.0001
0.4	0.002881	0.0323	0.0001
0.4	0.003024	0.0338	0.0001
0.4	0.003235	0.0358	0.0001
0.4	0.003374	0.0372	0.0001
0.4	0.003578	0.0392	0.0001
0.4	0.003712	0.0405	0.0001
0.4	0.003909	0.0424	0.0001
0.4	0.00423	0.0454	0.0001
0.4	0.00454	0.0482	0.0001
0.6	0.002027	0.0183	0.0001
0.6	0.002359	0.021	0.0001
0.6	0.002575	0.0228	0.0001
0.6	0.002895	0.0252	0.0001
0.6	0.003104	0.0268	0.0001
0.6	0.003411	0.0291	0.0001
0.6	0.003613	0.0306	0.0001
0.6	0.00391	0.0328	0.0001
0.6	0.004105	0.0342	0.0001
0.6	0.004392	0.0361	0.0001

System: dimethyl sulfoxide + acetonitrile + tetrabutylammonium bromide; phases: Liquid
Fixed: Pressure, kPa = 101
Fixed: Temperature, K = 298.15
Property: Electrical conductivity, S/m (Liquid); method: conductivity bridge
Solvent: Mass fraction of dimethyl sulfoxide	Amount concentration (molarity), mol/dm3 of tetrabutylammonium bromide	Electrical conductivity, S/m	uncertainty
0.2	0.00251	0.025	0.0001
0.2	0.002618	0.026	0.0001
0.2	0.002776	0.0275	0.0001
0.2	0.00288	0.0284	0.0001
0.2	0.003033	0.0298	0.0001
0.2	0.003282	0.0321	0.0001
0.2	0.003523	0.0342	0.0001
0.2	0.003756	0.0363	0.0001
0.2	0.003981	0.0383	0.0001
0.2	0.004174	0.04	0.0001
0.4	0.002505	0.0194	0.0001
0.4	0.002754	0.0211	0.0001
0.4	0.002916	0.0223	0.0001
0.4	0.003156	0.0239	0.0001
0.4	0.003313	0.025	0.0001
0.4	0.003545	0.0265	0.0001
0.4	0.003697	0.0275	0.0001
0.4	0.00392	0.029	0.0001
0.4	0.004067	0.03	0.0001
0.4	0.004283	0.0314	0.0001
0.6	0.002582	0.0147	0.0001
0.6	0.002902	0.0163	0.0001
0.6	0.003111	0.0173	0.0001
0.6	0.00342	0.0187	0.0001
0.6	0.003622	0.0197	0.0001
0.6	0.00392	0.0211	0.0001
0.6	0.004115	0.0219	0.0001
0.6	0.004403	0.0232	0.0001
0.6	0.004591	0.024	0.0001
0.6	0.004869	0.0252	0.0001

System: dimethyl sulfoxide + acetonitrile + sodium tetraphenylboron; phases: Liquid
Fixed: Pressure, kPa = 101
Fixed: Temperature, K = 298.15
Property: Electrical conductivity, S/m (Liquid); method: conductivity bridge
Solvent: Mass fraction of dimethyl sulfoxide	Amount concentration (molarity), mol/dm3 of sodium tetraphenylboron	Electrical conductivity, S/m	uncertainty
0.2	0.002571	0.0221	0.0001
0.2	0.002681	0.023	0.0001
0.2	0.002843	0.0243	0.0001
0.2	0.002949	0.0251	0.0001
0.2	0.003106	0.0264	0.0001
0.2	0.003361	0.0284	0.0001
0.2	0.003607	0.0303	0.0001
0.2	0.003846	0.0321	0.0001
0.2	0.004077	0.0339	0.0001
0.2	0.004301	0.0356	0.0001
0.4	0.002518	0.0155	0.0001
0.4	0.002667	0.0164	0.0001
0.4	0.002886	0.0176	0.0001
0.4	0.00303	0.0183	0.0001
0.4	0.003241	0.0195	0.0001
0.4	0.00338	0.0202	0.0001
0.4	0.003585	0.0213	0.0001
0.4	0.003719	0.022	0.0001
0.4	0.003917	0.023	0.0001
0.4	0.004548	0.0263	0.0001
0.6	0.002659	0.0122	0.0001
0.6	0.003523	0.0155	0.0001
0.6	0.003731	0.0163	0.0001
0.6	0.004038	0.0175	0.0001
0.6	0.004239	0.0181	0.0001
0.6	0.004535	0.0192	0.0001
0.6	0.004729	0.0199	0.0001
0.6	0.005016	0.0209	0.0001
0.6	0.005203	0.0216	0.0001
0.6	0.00548	0.0225	0.0001

System: dimethyl sulfoxide + acetonitrile + lithium chloride; phases: Liquid
Fixed: Solvent: Mass fraction of dimethyl sulfoxide = 0.6
Fixed: Pressure, kPa = 101
Fixed: Temperature, K = 298.15
Property: Electrical conductivity, S/m (Liquid); method: conductivity bridge
Amount concentration (molarity), mol/dm3 of lithium chloride	Electrical conductivity, S/m	uncertainty
0.006848	0.0535	0.0001
0.006977	0.0492	0.0001
0.007057	0.047	0.0001
0.007147	0.0446	0.0001
0.007246	0.0421	0.0001
0.007306	0.0393	0.0001
0.007371	0.0376	0.0001
0.007432	0.0366	0.0001
0.007523	0.0349	0.0001
0.007597	0.0338	0.0001
