Measured thermophysical data. Volumetric and viscometric studies of nicotinic acid in aqueous solutions of sodium malonate at T = (298.15-318.15) K
Source: J. Chem. Thermodyn., 2016, 10.1016/j.jct.2016.03.010
Compound 1: 3-carboxylpyridine, C6H5NO2, InChI=1S/C6H5NO2/c8-6(9)5-2-1-3-7-4-5/h1-4H,(H,8,9), purity 98%
Compound 2: sodium malonate, C3H2Na2O4, InChI=1S/C3H4O4.2Na/c4-2(5)1-3(6)7;;/h1H2,(H,4,5)(H,6,7);;/q;2*+1/p-2, purity 97%
Compound 3: water, H2O, InChI=1S/H2O/h1H2

System: 3-carboxylpyridine + sodium malonate + water; phases: Liquid
Fixed: Pressure, kPa = 101
Property: Mass density, kg/m3 (Liquid); method: Vibrating tube method
Solvent: Molality, mol/kg of sodium malonate	Temperature, K	Molality, mol/kg of 3-carboxylpyridine	Mass density, kg/m3	uncertainty
0	298.15	0.0202	997.92	1.15
0	298.15	0.0365	998.6	1.16
0	298.15	0.0529	999.27	1.16
0	298.15	0.0695	999.95	1.16
0	298.15	0.0863	1000.62	1.16
0	298.15	0.1032	1001.3	1.16
0	308.15	0.0202	994.89	1.15
0	308.15	0.0365	995.55	1.15
0	308.15	0.0529	996.21	1.15
0	308.15	0.0695	996.87	1.16
0	308.15	0.0863	997.52	1.16
0	308.15	0.1032	998.17	1.16
0	318.15	0.0202	991.06	1.15
0	318.15	0.0365	991.69	1.15
0	318.15	0.0529	992.33	1.15
0	318.15	0.0695	992.96	1.15
0	318.15	0.0863	993.59	1.15
0	318.15	0.1032	994.23	1.16
0.005	298.15	0.0202	998.43	1.15
0.005	298.15	0.0365	999.1	1.16
0.005	298.15	0.0529	999.77	1.16
0.005	298.15	0.0695	1000.44	1.16
0.005	298.15	0.0862	1001.1	1.16
0.005	298.15	0.1032	1001.77	1.16
0.005	308.15	0.0202	995.35	1.15
0.005	308.15	0.0365	996	1.15
0.005	308.15	0.0529	996.65	1.15
0.005	308.15	0.0695	997.3	1.16
0.005	308.15	0.0862	997.96	1.16
0.005	308.15	0.1032	998.6	1.16
0.005	318.15	0.0202	991.25	1.15
0.005	318.15	0.0365	991.88	1.15
0.005	318.15	0.0529	992.52	1.15
0.005	318.15	0.0695	993.15	1.15
0.005	318.15	0.0862	993.79	1.16
0.005	318.15	0.1032	994.43	1.16
0.01	298.15	0.0202	998.97	1.22
0.01	298.15	0.0364	999.62	1.16
0.01	298.15	0.0529	1000.27	1.32
0.01	298.15	0.0695	1000.91	1.16
0.01	298.15	0.0862	1001.55	1.34
0.01	298.15	0.1031	1002.19	1.16
0.01	308.15	0.0202	995.91	1.15
0.01	308.15	0.0364	996.55	1.15
0.01	308.15	0.0529	997.19	1.16
0.01	308.15	0.0695	997.83	1.16
0.01	308.15	0.0862	998.48	1.16
0.01	308.15	0.1031	999.13	1.16
0.01	318.15	0.0202	991.93	1.15
0.01	318.15	0.0364	992.55	1.15
0.01	318.15	0.0529	993.17	1.37
0.01	318.15	0.0695	993.79	1.15
0.01	318.15	0.0862	994.42	1.25
0.01	318.15	0.1031	995.05	1.16
0.015	298.15	0.0202	999.5	1.16
0.015	298.15	0.0364	1000.15	1.17
0.015	298.15	0.0529	1000.8	1.16
0.015	298.15	0.0694	1001.45	1.16
0.015	298.15	0.0862	1002.1	1.16
0.015	298.15	0.1031	1002.75	1.16
0.015	308.15	0.0202	996.43	1.15
0.015	308.15	0.0364	997.06	1.16
0.015	308.15	0.0529	997.7	1.16
0.015	308.15	0.0694	998.34	1.16
0.015	308.15	0.0862	998.98	1.16
0.015	308.15	0.1031	999.63	1.16
0.015	318.15	0.0202	992.29	1.15
0.015	318.15	0.0364	992.9	1.2
0.015	318.15	0.0529	993.51	1.15
0.015	318.15	0.0694	994.13	1.15
0.015	318.15	0.0862	994.75	1.21
0.015	318.15	0.1031	995.37	1.21
0.02	298.15	0.0201	999.97	1.16
0.02	298.15	0.0364	1000.6	1.16
0.02	298.15	0.0528	1001.23	1.16
0.02	298.15	0.0694	1001.86	1.16
0.02	298.15	0.0862	1002.49	1.16
0.02	298.15	0.1031	1003.12	1.16
0.02	308.15	0.0201	996.91	1.15
0.02	308.15	0.0364	997.53	1.15
0.02	308.15	0.0528	998.14	1.16
0.02	308.15	0.0694	998.77	1.16
0.02	308.15	0.0862	999.4	1.16
0.02	308.15	0.1031	1000.3	1.16
0.02	318.15	0.0201	992.87	1.15
0.02	318.15	0.0364	993.47	1.15
0.02	318.15	0.0528	994.06	1.15
0.02	318.15	0.0694	994.67	1.16
0.02	318.15	0.0862	995.27	1.16
0.02	318.15	0.1031	995.88	1.16

System: 3-carboxylpyridine + sodium malonate + water; phases: Liquid
Fixed: Pressure, kPa = 101
Property: Viscosity, Pa*s (Liquid); method: Capillary tube (Ostwald; Ubbelohde) method
Solvent: Molality, mol/kg of sodium malonate	Temperature, K	Molality, mol/kg of 3-carboxylpyridine	Viscosity, Pa*s	uncertainty
0	298.15	0.0202	0.0008951	2.21e-05
0	298.15	0.0365	0.0008988	2.21e-05
0	298.15	0.0529	0.0009015	2.21e-05
0	298.15	0.0695	0.000905	2.21e-05
0	298.15	0.0863	0.0009088	2.21e-05
0	298.15	0.1032	0.0009119	2.21e-05
0	308.15	0.0202	0.0007224	2.14e-05
0	308.15	0.0365	0.000725	2.14e-05
0	308.15	0.0529	0.0007275	2.14e-05
0	308.15	0.0695	0.0007308	2.14e-05
0	308.15	0.0863	0.000734	2.14e-05
0	308.15	0.1032	0.0007368	2.16e-05
0	318.15	0.0202	0.0005972	2.1e-05
0	318.15	0.0365	0.0005992	2.1e-05
0	318.15	0.0529	0.000601	2.1e-05
0	318.15	0.0695	0.0006051	2.1e-05
0	318.15	0.0863	0.0006074	2.1e-05
0	318.15	0.1032	0.0006094	2.1e-05
0.005	298.15	0.0202	0.0008973	2.21e-05
0.005	298.15	0.0365	0.0009007	2.21e-05
0.005	298.15	0.0529	0.0009042	2.21e-05
0.005	298.15	0.0695	0.0009087	2.21e-05
0.005	298.15	0.0862	0.0009118	2.21e-05
0.005	298.15	0.1032	0.0009149	2.21e-05
0.005	308.15	0.0202	0.0007244	2.14e-05
0.005	308.15	0.0365	0.0007281	2.14e-05
0.005	308.15	0.0529	0.0007295	2.14e-05
0.005	308.15	0.0695	0.0007334	2.14e-05
0.005	308.15	0.0862	0.0007373	2.14e-05
0.005	308.15	0.1032	0.0007412	2.15e-05
0.005	318.15	0.0202	0.000598	2.1e-05
0.005	318.15	0.0365	0.0006003	2.1e-05
0.005	318.15	0.0529	0.0006023	2.1e-05
0.005	318.15	0.0695	0.0006073	2.1e-05
0.005	318.15	0.0862	0.0006098	2.1e-05
0.005	318.15	0.1032	0.0006123	2.1e-05
0.01	298.15	0.0202	0.0008989	2.35e-05
0.01	298.15	0.0364	0.0009018	2.21e-05
0.01	298.15	0.0529	0.0009053	2.28e-05
0.01	298.15	0.0695	0.0009109	2.21e-05
0.01	298.15	0.0862	0.0009142	2.74e-05
0.01	298.15	0.1031	0.0009175	2.22e-05
0.01	308.15	0.0202	0.0007266	2.14e-05
0.01	308.15	0.0364	0.0007298	2.14e-05
0.01	308.15	0.0529	0.0007319	2.14e-05
0.01	308.15	0.0695	0.0007354	2.14e-05
0.01	308.15	0.0862	0.0007412	2.15e-05
0.01	308.15	0.1031	0.0007437	2.15e-05
0.01	318.15	0.0202	0.0006005	2.12e-05
0.01	318.15	0.0364	0.0006028	2.1e-05
0.01	318.15	0.0529	0.0006052	4.06e-05
0.01	318.15	0.0695	0.0006105	2.1e-05
0.01	318.15	0.0862	0.0006133	2.11e-05
0.01	318.15	0.1031	0.0006158	2.1e-05
0.015	298.15	0.0202	0.0009017	2.21e-05
0.015	298.15	0.0364	0.0009043	2.87e-05
0.015	298.15	0.0529	0.0009076	2.21e-05
0.015	298.15	0.0694	0.0009139	2.21e-05
0.015	298.15	0.0862	0.0009174	2.64e-05
0.015	298.15	0.1031	0.0009208	3.28e-05
0.015	308.15	0.0202	0.0007286	2.14e-05
0.015	308.15	0.0364	0.0007307	2.14e-05
0.015	308.15	0.0529	0.0007337	2.14e-05
0.015	308.15	0.0694	0.0007376	2.14e-05
0.015	308.15	0.0862	0.0007434	2.15e-05
0.015	308.15	0.1031	0.0007462	2.15e-05
0.015	318.15	0.0202	0.0006012	2.1e-05
0.015	318.15	0.0364	0.0006034	2.5e-05
0.015	318.15	0.0529	0.0006057	2.1e-05
0.015	318.15	0.0694	0.0006114	2.1e-05
0.015	318.15	0.0862	0.0006144	2.19e-05
0.015	318.15	0.1031	0.0006169	2.27e-05
0.02	298.15	0.0201	0.0009032	2.21e-05
0.02	298.15	0.0364	0.0009056	2.21e-05
0.02	298.15	0.0528	0.0009092	2.21e-05
0.02	298.15	0.0694	0.0009152	2.21e-05
0.02	298.15	0.0862	0.0009198	2.22e-05
0.02	298.15	0.1031	0.0009229	2.22e-05
0.02	308.15	0.0201	0.0007313	2.15e-05
0.02	308.15	0.0364	0.0007333	2.14e-05
0.02	308.15	0.0528	0.0007358	2.15e-05
0.02	308.15	0.0694	0.0007421	2.15e-05
0.02	308.15	0.0862	0.0007467	2.15e-05
0.02	308.15	0.1031	0.0007497	2.16e-05
0.02	318.15	0.0201	0.0006039	2.1e-05
0.02	318.15	0.0364	0.0006064	2.1e-05
0.02	318.15	0.0528	0.0006084	2.1e-05
0.02	318.15	0.0694	0.0006148	2.1e-05
0.02	318.15	0.0862	0.000618	2.1e-05
0.02	318.15	0.1031	0.0006202	2.11e-05

System: 3-carboxylpyridine + water; phases: Liquid
Fixed: Pressure, kPa = 101
Property: Mass density, kg/m3 (Liquid); method: Vibrating tube method
Temperature, K	Molality, mol/kg of 3-carboxylpyridine	Mass density, kg/m3	uncertainty
298.15	0.0202	997.92	1.15
298.15	0.0365	998.6	1.16
298.15	0.0529	999.27	1.16
298.15	0.0695	999.95	1.16
298.15	0.0863	1000.62	1.16
298.15	0.1032	1001.3	1.16
308.15	0.0202	994.89	1.15
308.15	0.0365	995.55	1.15
308.15	0.0529	996.21	1.15
308.15	0.0695	996.87	1.16
308.15	0.0863	997.52	1.16
308.15	0.1032	998.17	1.16
318.15	0.0202	991.06	1.15
318.15	0.0365	991.69	1.15
318.15	0.0529	992.33	1.15
318.15	0.0695	992.96	1.15
318.15	0.0863	993.59	1.15
318.15	0.1032	994.23	1.16

System: 3-carboxylpyridine + water; phases: Liquid
Fixed: Pressure, kPa = 101
Property: Viscosity, Pa*s (Liquid); method: Capillary tube (Ostwald; Ubbelohde) method
Temperature, K	Molality, mol/kg of 3-carboxylpyridine	Viscosity, Pa*s	uncertainty
298.15	0.0202	0.0008951	2.21e-05
298.15	0.0365	0.0008988	2.21e-05
298.15	0.0529	0.0009015	2.21e-05
298.15	0.0695	0.000905	2.21e-05
298.15	0.0863	0.0009088	2.21e-05
298.15	0.1032	0.0009119	2.21e-05
308.15	0.0202	0.0007224	2.14e-05
308.15	0.0365	0.000725	2.14e-05
308.15	0.0529	0.0007275	2.14e-05
308.15	0.0695	0.0007308	2.14e-05
308.15	0.0863	0.000734	2.14e-05
308.15	0.1032	0.0007368	2.16e-05
318.15	0.0202	0.0005972	2.1e-05
318.15	0.0365	0.0005992	2.1e-05
318.15	0.0529	0.000601	2.1e-05
318.15	0.0695	0.0006051	2.1e-05
318.15	0.0863	0.0006074	2.1e-05
318.15	0.1032	0.0006094	2.1e-05
