Measured thermophysical data. Standard volumetric properties of a chiral pharmaceutical Albicar in water H/D isotopologues in the temperature range from (278.15 to 318.15) K and at ambient pressure
Source: J. Chem. Thermodyn., 2017, 10.1016/j.jct.2017.07.034
Compound 1: rac-(3aS,6aS)-1,4-diethyl-3,6-dimethyltetrahydroimidazo[4,5-d]imidazole-2,5(1H,3H)-dione, C10H18N4O2, InChI=1S/C10H18N4O2/c1-5-13-7-8(12(4)9(13)15)14(6-2)10(16)11(7)3/h7-8H,5-6H2,1-4H3/t7-,8-/m0/s1, purity 95%
Compound 2: water-d2, D2O, InChI=1S/H2O/h1H2/i/hD2, purity 99.9%
Compound 3: water, H2O, InChI=1S/H2O/h1H2

System: water-d2; phases: Liquid
Fixed: Pressure, kPa = 99.6
Property: Mass density, kg/m3 (Liquid); method: Vibrating tube method
Temperature, K	Mass density, kg/m3	uncertainty
278.15	1105.519	0.121
288.15	1105.775	0.121
298.15	1104.344	0.121
308.15	1101.65	0.12
318.15	1097.866	0.12

System: water; phases: Liquid
Fixed: Pressure, kPa = 99.6
Property: Mass density, kg/m3 (Liquid); method: Vibrating tube method
Temperature, K	Mass density, kg/m3	uncertainty
278.15	999.964	0.106
288.15	999.101	0.106
298.15	997.047	0.107
308.15	994.035	0.107
318.15	990.216	0.108

System: water + rac-(3aS,6aS)-1,4-diethyl-3,6-dimethyltetrahydroimidazo[4,5-d]imidazole-2,5(1H,3H)-dione; phases: Liquid
Fixed: Pressure, kPa = 99.6
Property: Mass density, kg/m3 (Liquid); method: Vibrating tube method
Temperature, K	Molality, mol/kg of rac-(3aS,6aS)-1,4-diethyl-3,6-dimethyltetrahydroimidazo[4,5-d]imidazole-2,5(1H,3H)-dione	Mass density, kg/m3	uncertainty
278.15	0	999.964	0.106
278.15	0.01976	1000.712	0.106
278.15	0.04272	1001.577	0.106
278.15	0.06009	1002.23	0.106
278.15	0.07765	1002.885	0.107
278.15	0.10937	1004.066	0.107
278.15	0.13601	1005.05	0.107
278.15	0.15502	1005.748	0.107
278.15	0.17488	1006.477	0.107
278.15	0.19353	1007.156	0.107
288.15	0	999.101	0.106
288.15	0.01976	999.821	0.106
288.15	0.04272	1000.654	0.106
288.15	0.06009	1001.28	0.106
288.15	0.07765	1001.908	0.106
288.15	0.10937	1003.037	0.107
288.15	0.13601	1003.98	0.107
288.15	0.15502	1004.645	0.107
288.15	0.17488	1005.339	0.107
288.15	0.19353	1005.984	0.107
298.15	0	997.047	0.107
298.15	0.01976	997.745	0.106
298.15	0.04272	998.551	0.106
298.15	0.06009	999.157	0.106
298.15	0.07765	999.764	0.106
298.15	0.10937	1000.852	0.106
298.15	0.13601	1001.756	0.107
298.15	0.15502	1002.399	0.107
298.15	0.17488	1003.065	0.107
298.15	0.19353	1003.684	0.107
308.15	0	994.035	0.107
308.15	0.01976	994.713	0.107
308.15	0.04272	995.494	0.107
308.15	0.06009	996.08	0.107
308.15	0.07765	996.672	0.107
308.15	0.10937	997.724	0.107
308.15	0.13601	998.597	0.107
308.15	0.15502	999.219	0.107
308.15	0.17488	999.861	0.107
308.15	0.19353	1000.462	0.107
318.15	0	990.216	0.108
318.15	0.01976	990.876	0.107
318.15	0.04272	991.636	0.107
318.15	0.06009	992.207	0.107
318.15	0.07765	992.779	0.107
318.15	0.10937	993.803	0.107
318.15	0.13601	994.654	0.107
318.15	0.15502	995.256	0.107
318.15	0.17488	995.879	0.107
318.15	0.19353	996.461	0.107

System: water-d2 + rac-(3aS,6aS)-1,4-diethyl-3,6-dimethyltetrahydroimidazo[4,5-d]imidazole-2,5(1H,3H)-dione; phases: Liquid
Fixed: Pressure, kPa = 99.6
Property: Mass density, kg/m3 (Liquid); method: Vibrating tube method
Temperature, K	Molality, mol/kg of rac-(3aS,6aS)-1,4-diethyl-3,6-dimethyltetrahydroimidazo[4,5-d]imidazole-2,5(1H,3H)-dione	Mass density, kg/m3	uncertainty
278.15	0	1105.519	0.121
278.15	0.02067	1105.967	0.121
278.15	0.03855	1106.356	0.121
278.15	0.06093	1106.843	0.121
278.15	0.08301	1107.321	0.122
278.15	0.09921	1107.672	0.122
278.15	0.12055	1108.136	0.122
278.15	0.14019	1108.559	0.122
278.15	0.15897	1108.973	0.122
278.15	0.17434	1109.303	0.122
288.15	0	1105.775	0.121
288.15	0.02067	1106.17	0.121
288.15	0.03855	1106.51	0.121
288.15	0.06093	1106.937	0.121
288.15	0.08301	1107.357	0.122
288.15	0.09921	1107.666	0.122
288.15	0.12055	1108.068	0.122
288.15	0.14019	1108.442	0.122
288.15	0.15897	1108.796	0.122
288.15	0.17434	1109.083	0.122
298.15	0	1104.344	0.121
298.15	0.02067	1104.696	0.121
298.15	0.03855	1105.002	0.121
298.15	0.06093	1105.382	0.121
298.15	0.08301	1105.754	0.121
298.15	0.09921	1106.025	0.121
298.15	0.12055	1106.386	0.122
298.15	0.14019	1106.712	0.122
298.15	0.15897	1107.025	0.122
298.15	0.17434	1107.284	0.122
308.15	0	1101.65	0.12
308.15	0.02067	1101.967	0.121
308.15	0.03855	1102.237	0.121
308.15	0.06093	1102.576	0.121
308.15	0.08301	1102.911	0.121
308.15	0.09921	1103.156	0.121
308.15	0.12055	1103.473	0.121
308.15	0.14019	1103.764	0.121
308.15	0.15897	1104.044	0.121
308.15	0.17434	1104.275	0.121
318.15	0	1097.866	0.12
318.15	0.02067	1098.152	0.12
318.15	0.03855	1098.4	0.12
318.15	0.06093	1098.71	0.12
318.15	0.08301	1099.011	0.12
318.15	0.09921	1099.232	0.12
318.15	0.12055	1099.521	0.12
318.15	0.14019	1099.783	0.12
318.15	0.15897	1100.042	0.121
318.15	0.17434	1100.244	0.121
