Measured thermophysical data. Density, viscosity and excess molar volume of binary mixtures of tri-n-octylamine + diluents (n-heptane, n-octane, n-nonane, and n-decane) at various temperatures
Source: J. Chem. Thermodyn., 2014, 10.1016/j.jct.2013.09.017
Compound 1: heptane, C7H16, InChI=1S/C7H16/c1-3-5-7-6-4-2/h3-7H2,1-2H3, purity 99%
Compound 2: octane, C8H18, InChI=1S/C8H18/c1-3-5-7-8-6-4-2/h3-8H2,1-2H3, purity 99%
Compound 3: nonane, C9H20, InChI=1S/C9H20/c1-3-5-7-9-8-6-4-2/h3-9H2,1-2H3, purity 99%
Compound 4: decane, C10H22, InChI=1S/C10H22/c1-3-5-7-9-10-8-6-4-2/h3-10H2,1-2H3, purity 99%
Compound 5: trioctylamine, C24H51N, InChI=1S/C24H51N/c1-4-7-10-13-16-19-22-25(23-20-17-14-11-8-5-2)24-21-18-15-12-9-6-3/h4-24H2,1-3H3, purity 98%

System: heptane; phases: Liquid
Fixed: Pressure, kPa = 101
Property: Mass density, kg/m3 (Liquid); method: Vibrating tube method
Temperature, K	Mass density, kg/m3	uncertainty
283.15	692.44	0.25
293.15	684.05	0.25
303.15	675.54	0.25
298.15	679.78	0.25

System: heptane; phases: Liquid
Fixed: Pressure, kPa = 101
Property: Viscosity, Pa*s (Liquid); method: Capillary tube (Ostwald; Ubbelohde) method
Temperature, K	Viscosity, Pa*s	uncertainty
283.15	0.000469	1e-05
293.15	0.00042	9e-06
303.15	0.000377	8e-06
298.15	0.000397	9e-06

System: octane; phases: Liquid
Fixed: Pressure, kPa = 101
Property: Mass density, kg/m3 (Liquid); method: Vibrating tube method
Temperature, K	Mass density, kg/m3	uncertainty
283.15	710.61	0.24
293.15	702.6	0.25
303.15	694.5	0.25
298.15	698.55	0.25

System: octane; phases: Liquid
Fixed: Pressure, kPa = 101
Property: Viscosity, Pa*s (Liquid); method: Capillary tube (Ostwald; Ubbelohde) method
Temperature, K	Viscosity, Pa*s	uncertainty
283.15	0.000613	1.3e-05
293.15	0.000541	1.2e-05
303.15	0.000481	1e-05
298.15	0.00051	1.1e-05

System: nonane; phases: Liquid
Fixed: Pressure, kPa = 101
Property: Mass density, kg/m3 (Liquid); method: Vibrating tube method
Temperature, K	Mass density, kg/m3	uncertainty
283.15	725.58	0.24
293.15	717.86	0.24
303.15	710.06	0.24
298.15	713.95	0.24

System: nonane; phases: Liquid
Fixed: Pressure, kPa = 101
Property: Viscosity, Pa*s (Liquid); method: Capillary tube (Ostwald; Ubbelohde) method
Temperature, K	Viscosity, Pa*s	uncertainty
283.15	0.000826	1.8e-05
293.15	0.000713	1.5e-05
303.15	0.000623	1.4e-05
298.15	0.000667	1.4e-05

System: decane; phases: Liquid
Fixed: Pressure, kPa = 101
Property: Mass density, kg/m3 (Liquid); method: Vibrating tube method
Temperature, K	Mass density, kg/m3	uncertainty
283.15	737.54	0.24
293.15	730.01	0.24
303.15	722.44	0.24
298.15	726.22	0.24

System: decane; phases: Liquid
Fixed: Pressure, kPa = 101
Property: Viscosity, Pa*s (Liquid); method: Capillary tube (Ostwald; Ubbelohde) method
Temperature, K	Viscosity, Pa*s	uncertainty
283.15	0.001082	2.3e-05
293.15	0.000925	2e-05
303.15	0.000797	1.7e-05
298.15	0.000858	1.9e-05

System: trioctylamine; phases: Liquid
Fixed: Pressure, kPa = 101
Property: Mass density, kg/m3 (Liquid); method: Vibrating tube method
Temperature, K	Mass density, kg/m3	uncertainty
283.15	817.08	0.64
293.15	810.48	0.64
303.15	803.88	0.63
298.15	807.26	0.63

System: trioctylamine; phases: Liquid
Fixed: Pressure, kPa = 101
Property: Viscosity, Pa*s (Liquid); method: Capillary tube (Ostwald; Ubbelohde) method
Temperature, K	Viscosity, Pa*s	uncertainty
283.15	0.014248	0.000335
293.15	0.009957	0.00024
303.15	0.007114	0.00017
298.15	0.008392	0.000199

System: heptane + trioctylamine; phases: Liquid
Fixed: Pressure, kPa = 101
Property: Mass density, kg/m3 (Liquid); method: Vibrating tube method
Temperature, K	Mole fraction of trioctylamine	Mass density, kg/m3	uncertainty
283.15	0	692.44	0.25
283.15	0.0102	696.37	0.26
283.15	0.103	726.07	0.27
283.15	0.2636	759.83	0.31
283.15	0.3223	768.63	0.33
283.15	0.409	779.4	0.36
283.15	0.5079	789.24	0.4
283.15	0.5997	796.55	0.44
283.15	0.7019	803.32	0.48
283.15	0.8063	808.97	0.53
283.15	0.906	813.43	0.59
283.15	1	817.08	0.64
293.15	0	684.05	0.25
293.15	0.0102	688.04	0.26
293.15	0.103	718.22	0.27
293.15	0.2636	752.47	0.31
293.15	0.3223	761.41	0.33
293.15	0.409	772.31	0.36
293.15	0.5079	782.28	0.39
293.15	0.5997	789.72	0.43
293.15	0.7019	796.55	0.48
293.15	0.8063	802.27	0.53
293.15	0.906	806.79	0.58
293.15	1	810.48	0.64
303.15	0	675.54	0.25
303.15	0.0102	679.6	0.26
303.15	0.103	710.29	0.27
303.15	0.2636	745.07	0.31
303.15	0.3223	754.13	0.33
303.15	0.409	765.19	0.36
303.15	0.5079	775.31	0.39
303.15	0.5997	782.85	0.43
303.15	0.7019	789.77	0.48
303.15	0.8063	795.57	0.53
303.15	0.906	800.15	0.58
303.15	1	803.88	0.63

System: heptane + trioctylamine; phases: Liquid
Fixed: Pressure, kPa = 101
Property: Viscosity, Pa*s (Liquid); method: Capillary tube (Ostwald; Ubbelohde) method
Temperature, K	Mole fraction of trioctylamine	Viscosity, Pa*s	uncertainty
283.15	0	0.000469	1e-05
283.15	0.0102	0.000494	1.1e-05
283.15	0.103	0.000856	1.9e-05
283.15	0.2636	0.001827	4e-05
283.15	0.3223	0.002321	5.1e-05
283.15	0.409	0.003241	7.2e-05
283.15	0.5079	0.004499	0.000101
283.15	0.5997	0.005814	0.000132
283.15	0.7019	0.007438	0.000171
283.15	0.8063	0.009477	0.000219
283.15	0.906	0.011643	0.000272
283.15	1	0.014248	0.000335
293.15	0	0.00042	9e-06
293.15	0.0102	0.00044	1e-05
293.15	0.103	0.000738	1.6e-05
293.15	0.2636	0.00151	3.3e-05
293.15	0.3223	0.001899	4.2e-05
293.15	0.409	0.00257	5.7e-05
293.15	0.5079	0.003464	7.8e-05
293.15	0.5997	0.004377	0.0001
293.15	0.7019	0.005434	0.000126
293.15	0.8063	0.006792	0.000159
293.15	0.906	0.008231	0.000194
293.15	1	0.009957	0.000238
303.15	0	0.000377	8e-06
303.15	0.0102	0.000394	9e-06
303.15	0.103	0.000642	1.4e-05
303.15	0.2636	0.001269	2.8e-05
303.15	0.3223	0.001569	3.5e-05
303.15	0.409	0.002055	4.6e-05
303.15	0.5079	0.002734	6.2e-05
303.15	0.5997	0.003374	7.7e-05
303.15	0.7019	0.004107	9.5e-05
303.15	0.8063	0.005	0.000118
303.15	0.906	0.005972	0.000142
303.15	1	0.007114	0.000172

System: octane + trioctylamine; phases: Liquid
Fixed: Pressure, kPa = 101
Property: Mass density, kg/m3 (Liquid); method: Vibrating tube method
Temperature, K	Mole fraction of trioctylamine	Mass density, kg/m3	uncertainty
283.15	0	710.61	0.24
283.15	0.1044	737.14	0.27
283.15	0.2005	755.2	0.29
283.15	0.2992	769.49	0.32
283.15	0.4001	780.98	0.36
283.15	0.4977	789.85	0.39
283.15	0.6012	797.54	0.44
283.15	0.7015	803.68	0.48
283.15	0.7978	808.69	0.53
283.15	0.897	813.09	0.58
283.15	1	817.08	0.64
293.15	0	702.6	0.25
293.15	0.1044	729.58	0.27
293.15	0.2005	747.83	0.29
293.15	0.2992	762.3	0.32
293.15	0.4001	773.93	0.35
293.15	0.4977	782.91	0.39
293.15	0.6012	790.72	0.43
293.15	0.7015	796.94	0.48
293.15	0.7978	802	0.53
293.15	0.897	806.45	0.58
293.15	1	810.48	0.64
303.15	0	694.5	0.25
303.15	0.1044	721.95	0.27
303.15	0.2005	740.4	0.29
303.15	0.2992	755.07	0.32
303.15	0.4001	766.85	0.35
303.15	0.4977	775.97	0.39
303.15	0.6012	783.87	0.43
303.15	0.7015	790.09	0.48
303.15	0.7978	795.3	0.52
303.15	0.897	799.81	0.57
303.15	1	803.88	0.63

System: octane + trioctylamine; phases: Liquid
Fixed: Pressure, kPa = 101
Property: Viscosity, Pa*s (Liquid); method: Capillary tube (Ostwald; Ubbelohde) method
Temperature, K	Mole fraction of trioctylamine	Viscosity, Pa*s	uncertainty
283.15	0	0.000613	1.3e-05
283.15	0.1044	0.001045	2.3e-05
283.15	0.2005	0.00163	3.6e-05
283.15	0.2992	0.002385	5.3e-05
283.15	0.4001	0.003399	7.6e-05
283.15	0.4977	0.004545	0.000102
283.15	0.6012	0.005969	0.000135
283.15	0.7015	0.007556	0.000173
283.15	0.7978	0.009424	0.000217
283.15	0.897	0.011611	0.000271
283.15	1	0.014248	0.000335
293.15	0	0.000541	1.2e-05
293.15	0.1044	0.000899	2e-05
293.15	0.2005	0.001356	3e-05
293.15	0.2992	0.001933	4.3e-05
293.15	0.4001	0.002665	5.9e-05
293.15	0.4977	0.003491	7.9e-05
293.15	0.6012	0.004482	0.000102
293.15	0.7015	0.005594	0.000129
293.15	0.7978	0.006848	0.000159
293.15	0.897	0.008242	0.000194
293.15	1	0.009957	0.000238
303.15	0	0.000481	1e-05
303.15	0.1044	0.00078	1.7e-05
303.15	0.2005	0.001145	2.5e-05
303.15	0.2992	0.001593	3.5e-05
303.15	0.4001	0.002145	4.8e-05
303.15	0.4977	0.002734	6.2e-05
303.15	0.6012	0.00346	7.9e-05
303.15	0.7015	0.004231	9.8e-05
303.15	0.7978	0.005092	0.00012
303.15	0.897	0.00601	0.000143
303.15	1	0.007114	0.000172

System: nonane + trioctylamine; phases: Liquid
Fixed: Pressure, kPa = 101
Property: Mass density, kg/m3 (Liquid); method: Vibrating tube method
Temperature, K	Mole fraction of trioctylamine	Mass density, kg/m3	uncertainty
283.15	0	725.58	0.24
283.15	0.1015	746.06	0.27
283.15	0.2014	761.56	0.29
283.15	0.3016	773.78	0.32
283.15	0.3988	783.37	0.36
283.15	0.4969	791.34	0.39
283.15	0.5956	798.14	0.43
283.15	0.6953	803.91	0.48
283.15	0.7943	808.76	0.53
283.15	0.9025	813.41	0.59
283.15	1	817.08	0.64
293.15	0	717.86	0.24
293.15	0.1015	738.6	0.27
293.15	0.2014	754.29	0.29
293.15	0.3016	766.67	0.32
293.15	0.3988	776.38	0.35
293.15	0.4969	784.45	0.39
293.15	0.5956	791.33	0.43
293.15	0.6953	797.16	0.48
293.15	0.7943	802.07	0.52
293.15	0.9025	806.77	0.58
293.15	1	810.48	0.64
303.15	0	710.06	0.24
303.15	0.1015	731.08	0.27
303.15	0.2014	746.99	0.29
303.15	0.3016	759.52	0.32
303.15	0.3988	769.35	0.35
303.15	0.4969	777.53	0.39
303.15	0.5956	784.51	0.43
303.15	0.6953	790.4	0.47
303.15	0.7943	795.37	0.52
303.15	0.9025	800.13	0.58
303.15	1	803.88	0.63

System: nonane + trioctylamine; phases: Liquid
Fixed: Pressure, kPa = 101
Property: Viscosity, Pa*s (Liquid); method: Capillary tube (Ostwald; Ubbelohde) method
Temperature, K	Mole fraction of trioctylamine	Viscosity, Pa*s	uncertainty
283.15	0	0.000826	1.8e-05
283.15	0.1015	0.001277	2.8e-05
283.15	0.2014	0.001932	4.2e-05
283.15	0.3016	0.002701	6e-05
283.15	0.3988	0.003656	8.1e-05
283.15	0.4969	0.004815	0.000108
283.15	0.5956	0.006134	0.000139
283.15	0.6953	0.007725	0.000177
283.15	0.7943	0.009548	0.00022
283.15	0.9025	0.011886	0.000277
283.15	1	0.014248	0.000335
293.15	0	0.000713	1.5e-05
293.15	0.1015	0.001072	2.3e-05
293.15	0.2014	0.001588	3.5e-05
293.15	0.3016	0.002163	4.8e-05
293.15	0.3988	0.002862	6.4e-05
293.15	0.4969	0.003685	8.3e-05
293.15	0.5956	0.004579	0.000105
293.15	0.6953	0.005664	0.000131
293.15	0.7943	0.006874	0.00016
293.15	0.9025	0.008466	0.0002
293.15	1	0.009957	0.000238
303.15	0	0.000623	1.4e-05
303.15	0.1015	0.000918	2e-05
303.15	0.2014	0.001326	2.9e-05
303.15	0.3016	0.001766	3.9e-05
303.15	0.3988	0.002273	5.1e-05
303.15	0.4969	0.002881	6.5e-05
303.15	0.5956	0.003514	8e-05
303.15	0.6953	0.004267	9.9e-05
303.15	0.7943	0.005069	0.000119
303.15	0.9025	0.006161	0.000147
303.15	1	0.007114	0.000172

System: decane + trioctylamine; phases: Liquid
Fixed: Pressure, kPa = 101
Property: Mass density, kg/m3 (Liquid); method: Vibrating tube method
Temperature, K	Mole fraction of trioctylamine	Mass density, kg/m3	uncertainty
283.15	0	737.54	0.24
283.15	0.1113	755.32	0.27
283.15	0.1979	766.34	0.29
283.15	0.297	776.77	0.32
283.15	0.3974	785.51	0.36
283.15	0.5044	793.3	0.4
283.15	0.5913	798.73	0.43
283.15	0.6888	804.03	0.48
283.15	0.7962	809.11	0.53
283.15	0.8991	813.37	0.58
283.15	1	817.08	0.64
293.15	0	730.01	0.24
293.15	0.1113	748.01	0.27
293.15	0.1979	759.17	0.29
293.15	0.297	769.72	0.32
293.15	0.3974	778.56	0.35
293.15	0.5044	786.44	0.39
293.15	0.5913	791.93	0.43
293.15	0.6888	797.29	0.47
293.15	0.7962	802.43	0.53
293.15	0.8991	806.73	0.58
293.15	1	810.48	0.64
303.15	0	722.44	0.24
303.15	0.1113	740.66	0.27
303.15	0.1979	751.96	0.29
303.15	0.297	762.64	0.32
303.15	0.3974	771.59	0.35
303.15	0.5044	779.56	0.39
303.15	0.5913	785.11	0.43
303.15	0.6888	790.53	0.47
303.15	0.7962	795.73	0.52
303.15	0.8991	800.09	0.57
303.15	1	803.88	0.63

System: decane + trioctylamine; phases: Liquid
Fixed: Pressure, kPa = 101
Property: Viscosity, Pa*s (Liquid); method: Capillary tube (Ostwald; Ubbelohde) method
Temperature, K	Mole fraction of trioctylamine	Viscosity, Pa*s	uncertainty
283.15	0	0.001082	2.3e-05
283.15	0.1113	0.00164	3.6e-05
283.15	0.1979	0.002266	5e-05
283.15	0.297	0.003092	6.8e-05
283.15	0.3974	0.004092	9.1e-05
283.15	0.5044	0.005402	0.000121
283.15	0.5913	0.006558	0.000148
283.15	0.6888	0.008006	0.000183
283.15	0.7962	0.009857	0.000228
283.15	0.8991	0.011972	0.000279
283.15	1	0.014248	0.000335
293.15	0	0.000925	2e-05
293.15	0.1113	0.001371	3e-05
293.15	0.1979	0.001837	4e-05
293.15	0.297	0.002448	5.4e-05
293.15	0.3974	0.003172	7.1e-05
293.15	0.5044	0.004086	9.2e-05
293.15	0.5913	0.004896	0.000112
293.15	0.6888	0.00585	0.000135
293.15	0.7962	0.007086	0.000165
293.15	0.8991	0.008401	0.000199
293.15	1	0.009957	0.000238
303.15	0	0.000797	1.7e-05
303.15	0.1113	0.001152	2.5e-05
303.15	0.1979	0.001514	3.3e-05
303.15	0.297	0.001976	4.4e-05
303.15	0.3974	0.002515	5.6e-05
303.15	0.5044	0.003174	7.2e-05
303.15	0.5913	0.003743	8.6e-05
303.15	0.6888	0.004389	0.000102
303.15	0.7962	0.005238	0.000123
303.15	0.8991	0.00609	0.000145
303.15	1	0.007114	0.000172
