Measured thermophysical data. Volumetric, acoustic and transport properties of ternary solutions of L-serine and L-arginine in aqueous solutions of thiamine hydrochloride at different temperatures
Source: J. Chem. Thermodyn., 2019, 10.1016/j.jct.2019.03.039
Compound 1: L-serine, C3H7NO3, InChI=1S/C3H7NO3/c4-2(1-5)3(6)7/h2,5H,1,4H2,(H,6,7)/t2-/m0/s1, purity 99%
Compound 2: L-arginine, C6H14N4O2, InChI=1S/C6H14N4O2/c7-4(5(11)12)2-1-3-10-6(8)9/h4H,1-3,7H2,(H,11,12)(H4,8,9,10)/t4-/m0/s1, purity 98%
Compound 3: thiamine hydrochloride, C12H18Cl2N4OS, InChI=1S/C12H17N4OS.2ClH/c1-8-11(3-4-17)18-7-16(8)6-10-5-14-9(2)15-12(10)13;;/h5,7,17H,3-4,6H2,1-2H3,(H2,13,14,15);2*1H/q+1;;/p-1, purity 99%
Compound 4: water, H2O, InChI=1S/H2O/h1H2

System: L-serine + thiamine hydrochloride + water; phases: Liquid
Fixed: Pressure, kPa = 101.3
Property: Mass density, kg/m3 (Liquid); method: Vibrating tube method
Solvent: Molality, mol/kg of thiamine hydrochloride	Temperature, K	Molality, mol/kg of L-serine	Mass density, kg/m3	uncertainty
0	293.15	0	998.212	0.39
0	293.15	0.05002	1000.485	0.391
0	293.15	0.10013	1002.739	0.391
0	293.15	0.14996	1004.961	0.392
0	293.15	0.20025	1007.179	0.392
0	293.15	0.25017	1009.361	0.393
0	293.15	0.29994	1011.52	0.393
0	298.15	0	997.065	0.39
0	298.15	0.05002	999.314	0.39
0	298.15	0.10013	1001.546	0.391
0	298.15	0.14996	1003.742	0.391
0	298.15	0.20025	1005.938	0.392
0	298.15	0.25017	1008.097	0.392
0	298.15	0.29994	1010.233	0.393
0	303.15	0	995.672	0.39
0	303.15	0.05002	997.896	0.39
0	303.15	0.10013	1000.103	0.391
0	303.15	0.14996	1002.271	0.391
0	303.15	0.20025	1004.436	0.392
0	303.15	0.25017	1006.564	0.392
0	303.15	0.29994	1008.66	0.393
0	308.15	0	994.059	0.39
0	308.15	0.05002	996.254	0.39
0	308.15	0.10013	998.433	0.39
0	308.15	0.14996	1000.579	0.391
0	308.15	0.20025	1002.722	0.391
0	308.15	0.25017	1004.832	0.392
0	308.15	0.29994	1006.917	0.392
0	313.15	0	992.247	0.39
0	313.15	0.05002	994.421	0.39
0	313.15	0.10013	996.578	0.39
0	313.15	0.14996	998.702	0.39
0	313.15	0.20025	1000.824	0.391
0	313.15	0.25017	1002.911	0.391
0	313.15	0.29994	1004.967	0.392
0.0502	293.15	0	1003.186	0.391
0.0502	293.15	0.05011	1005.409	0.392
0.0502	293.15	0.09997	1007.6	0.392
0.0502	293.15	0.15003	1009.779	0.393
0.0502	293.15	0.19998	1011.931	0.393
0.0502	293.15	0.25008	1014.064	0.394
0.0502	293.15	0.30011	1016.178	0.394
0.0502	298.15	0	1001.985	0.391
0.0502	298.15	0.05011	1004.189	0.391
0.0502	298.15	0.09997	1006.357	0.392
0.0502	298.15	0.15003	1008.512	0.392
0.0502	298.15	0.19998	1010.641	0.393
0.0502	298.15	0.25008	1012.746	0.393
0.0502	298.15	0.30011	1014.827	0.394
0.0502	303.15	0	1000.563	0.391
0.0502	303.15	0.05011	1002.743	0.391
0.0502	303.15	0.09997	1004.891	0.392
0.0502	303.15	0.15003	1007.029	0.392
0.0502	303.15	0.19998	1009.14	0.393
0.0502	303.15	0.25008	1011.234	0.393
0.0502	303.15	0.30011	1013.299	0.394
0.0502	308.15	0	998.93	0.39
0.0502	308.15	0.05011	1001.081	0.391
0.0502	308.15	0.09997	1003.2	0.391
0.0502	308.15	0.15003	1005.305	0.392
0.0502	308.15	0.19998	1007.388	0.392
0.0502	308.15	0.25008	1009.455	0.393
0.0502	308.15	0.30011	1011.491	0.393
0.0502	313.15	0	997.193	0.39
0.0502	313.15	0.05011	999.32	0.39
0.0502	313.15	0.09997	1001.412	0.391
0.0502	313.15	0.15003	1003.49	0.391
0.0502	313.15	0.19998	1005.545	0.392
0.0502	313.15	0.25008	1007.582	0.392
0.0502	313.15	0.30011	1009.593	0.393
0.1008	293.15	0	1008.061	0.392
0.1008	293.15	0.04993	1010.225	0.393
0.1008	293.15	0.10021	1012.381	0.393
0.1008	293.15	0.15013	1014.5	0.394
0.1008	293.15	0.20016	1016.599	0.394
0.1008	293.15	0.24997	1018.67	0.395
0.1008	293.15	0.29993	1020.719	0.395
0.1008	298.15	0	1006.866	0.392
0.1008	298.15	0.04993	1009.012	0.393
0.1008	298.15	0.10021	1011.14	0.39
0.1008	298.15	0.15013	1013.229	0.394
0.1008	298.15	0.20016	1015.317	0.394
0.1008	298.15	0.24997	1017.38	0.395
0.1008	298.15	0.29993	1019.411	0.395
0.1008	303.15	0	1005.437	0.392
0.1008	303.15	0.04993	1007.555	0.392
0.1008	303.15	0.10021	1009.664	0.393
0.1008	303.15	0.15013	1011.736	0.393
0.1008	303.15	0.20016	1013.792	0.394
0.1008	303.15	0.24997	1015.821	0.394
0.1008	303.15	0.29993	1017.833	0.395
0.1008	308.15	0	1003.792	0.391
0.1008	308.15	0.04993	1005.885	0.392
0.1008	308.15	0.10021	1007.967	0.392
0.1008	308.15	0.15013	1010.015	0.393
0.1008	308.15	0.20016	1012.043	0.393
0.1008	308.15	0.24997	1014.044	0.394
0.1008	308.15	0.29993	1016.022	0.394
0.1008	313.15	0	1002.003	0.391
0.1008	313.15	0.04993	1004.073	0.391
0.1008	313.15	0.10021	1006.134	0.392
0.1008	313.15	0.15013	1008.159	0.392
0.1008	313.15	0.20016	1010.162	0.393
0.1008	313.15	0.24997	1012.138	0.393
0.1008	313.15	0.29993	1014.102	0.394
0.1498	293.15	0	1013.006	0.394
0.1498	293.15	0.05024	1015.118	0.394
0.1498	293.15	0.10006	1017.191	0.395
0.1498	293.15	0.14995	1019.244	0.395
0.1498	293.15	0.19992	1021.283	0.396
0.1498	293.15	0.25012	1023.309	0.396
0.1498	293.15	0.30018	1025.307	0.397
0.1498	298.15	0	1011.767	0.393
0.1498	298.15	0.05024	1013.856	0.394
0.1498	298.15	0.10006	1015.905	0.394
0.1498	298.15	0.14995	1017.936	0.395
0.1498	298.15	0.19992	1019.948	0.395
0.1498	298.15	0.25012	1021.949	0.396
0.1498	298.15	0.30018	1023.921	0.396
0.1498	303.15	0	1010.295	0.393
0.1498	303.15	0.05024	1012.363	0.393
0.1498	303.15	0.10006	1014.392	0.394
0.1498	303.15	0.14995	1016.399	0.394
0.1498	303.15	0.19992	1018.391	0.395
0.1498	303.15	0.25012	1020.366	0.395
0.1498	303.15	0.30018	1022.311	0.396
0.1498	308.15	0	1008.62	0.392
0.1498	308.15	0.05024	1010.666	0.393
0.1498	308.15	0.10006	1012.673	0.393
0.1498	308.15	0.14995	1014.662	0.394
0.1498	308.15	0.19992	1016.633	0.394
0.1498	308.15	0.25012	1018.591	0.395
0.1498	308.15	0.30018	1020.523	0.395
0.1498	313.15	0	1006.757	0.392
0.1498	313.15	0.05024	1008.78	0.393
0.1498	313.15	0.10006	1010.761	0.393
0.1498	313.15	0.14995	1012.722	0.393
0.1498	313.15	0.19992	1014.661	0.394
0.1498	313.15	0.25012	1016.586	0.394
0.1498	313.15	0.30018	1018.488	0.395

System: L-serine + thiamine hydrochloride + water; phases: Liquid
Fixed: Pressure, kPa = 101.3
Fixed: Frequency, MHz = 4
Property: Speed of sound, m/s (Liquid); method: Linear variable-path acoustic interferometer
Solvent: Molality, mol/kg of thiamine hydrochloride	Temperature, K	Molality, mol/kg of L-serine	Speed of sound, m/s	uncertainty
0	293.15	0	1482.6	1.9
0	293.15	0.05002	1485.7	1.9
0	293.15	0.10013	1488.9	1.9
0	293.15	0.14996	1492.2	1.9
0	293.15	0.20025	1495.6	1.9
0	293.15	0.25017	1499.1	1.9
0	293.15	0.29994	1502.7	1.9
0	298.15	0	1497.4	1.9
0	298.15	0.05002	1500.4	1.9
0	298.15	0.10013	1503.5	1.9
0	298.15	0.14996	1506.7	1.9
0	298.15	0.20025	1510	1.9
0	298.15	0.25017	1513.4	1.9
0	298.15	0.29994	1516.9	1.9
0	303.15	0	1509.5	1.9
0	303.15	0.05002	1512.4	1.9
0	303.15	0.10013	1515.4	1.9
0	303.15	0.14996	1518.5	1.9
0	303.15	0.20025	1521.7	1.9
0	303.15	0.25017	1525	1.9
0	303.15	0.29994	1528.4	1.9
0	308.15	0	1519.3	1.9
0	308.15	0.05002	1522.1	1.9
0	308.15	0.10013	1525	1.9
0	308.15	0.14996	1528	1.9
0	308.15	0.20025	1531.1	1.9
0	308.15	0.25017	1534.3	1.9
0	308.15	0.29994	1537.6	1.9
0	313.15	0	1528.7	1.9
0	313.15	0.05002	1531.4	1.9
0	313.15	0.10013	1534.2	1.9
0	313.15	0.14996	1537.1	1.9
0	313.15	0.20025	1540.2	1.9
0	313.15	0.25017	1543.3	1.9
0	313.15	0.29994	1546.6	1.9
0.0503	293.15	0	1490.4	1.9
0.0503	293.15	0.05011	1493.6	1.9
0.0503	293.15	0.09997	1496.9	1.9
0.0503	293.15	0.15003	1500.3	1.9
0.0503	293.15	0.19998	1503.8	1.9
0.0503	293.15	0.25008	1507.4	1.9
0.0503	293.15	0.30011	1511.1	1.9
0.0503	298.15	0	1504.1	1.9
0.0503	298.15	0.05011	1507.2	1.9
0.0503	298.15	0.09997	1510.4	1.9
0.0503	298.15	0.15003	1513.7	1.9
0.0503	298.15	0.19998	1517.1	1.9
0.0503	298.15	0.25008	1520.6	1.9
0.0503	298.15	0.30011	1524.2	1.9
0.0503	303.15	0	1516.7	1.9
0.0503	303.15	0.05011	1519.7	1.9
0.0503	303.15	0.09997	1522.8	1.9
0.0503	303.15	0.15003	1526	1.9
0.0503	303.15	0.19998	1529.3	1.9
0.0503	303.15	0.25008	1532.8	1.9
0.0503	303.15	0.30011	1536.4	1.9
0.0503	308.15	0	1526.9	1.9
0.0503	308.15	0.05011	1529.8	1.9
0.0503	308.15	0.09997	1532.8	1.9
0.0503	308.15	0.15003	1535.9	1.9
0.0503	308.15	0.19998	1539.1	1.9
0.0503	308.15	0.25008	1542.4	1.9
0.0503	308.15	0.30011	1545.8	1.9
0.0503	313.15	0	1535.5	1.9
0.0503	313.15	0.05011	1538.3	1.9
0.0503	313.15	0.09997	1541.2	1.9
0.0503	313.15	0.15003	1544.2	1.9
0.0503	313.15	0.19998	1547.3	1.9
0.0503	313.15	0.25008	1550.5	1.9
0.0503	313.15	0.30011	1553.9	1.9
0.1008	293.15	0	1498.5	1.9
0.1008	293.15	0.04993	1501.7	1.9
0.1008	293.15	0.10021	1505	1.9
0.1008	293.15	0.15013	1508.4	1.9
0.1008	293.15	0.20016	1511.9	1.9
0.1008	293.15	0.24997	1515.5	1.9
0.1008	293.15	0.29993	1519.2	1.9
0.1008	298.15	0	1512.6	1.9
0.1008	298.15	0.04993	1515.7	1.9
0.1008	298.15	0.10021	1518.9	1.9
0.1008	298.15	0.15013	1522.2	1.9
0.1008	298.15	0.20016	1525.6	1.9
0.1008	298.15	0.24997	1529.1	1.9
0.1008	298.15	0.29993	1532.7	1.9
0.1008	303.15	0	1524.1	1.9
0.1008	303.15	0.04993	1527.1	1.9
0.1008	303.15	0.10021	1530.2	1.9
0.1008	303.15	0.15013	1533.4	1.9
0.1008	303.15	0.20016	1536.7	1.9
0.1008	303.15	0.24997	1540.1	1.9
0.1008	303.15	0.29993	1543.6	1.9
0.1008	308.15	0	1533.7	1.9
0.1008	308.15	0.04993	1536.6	1.9
0.1008	308.15	0.10021	1539.6	1.9
0.1008	308.15	0.15013	1542.7	1.9
0.1008	308.15	0.20016	1545.9	1.9
0.1008	308.15	0.24997	1549.2	1.9
0.1008	308.15	0.29993	1552.6	1.9
0.1008	313.15	0	1542.8	1.9
0.1008	313.15	0.04993	1545.6	1.9
0.1008	313.15	0.10021	1548.5	1.9
0.1008	313.15	0.15013	1551.5	1.9
0.1008	313.15	0.20016	1554.6	1.9
0.1008	313.15	0.24997	1557.8	1.9
0.1008	313.15	0.29993	1561.1	1.9
0.1498	293.15	0	1507.2	1.9
0.1498	293.15	0.05024	1510.5	1.9
0.1498	293.15	0.10006	1513.9	1.9
0.1498	293.15	0.14995	1517.4	1.9
0.1498	293.15	0.19992	1521	1.9
0.1498	293.15	0.25012	1524.7	1.9
0.1498	293.15	0.30018	1528.5	1.9
0.1498	298.15	0	1520.8	1.9
0.1498	298.15	0.05024	1524	1.9
0.1498	298.15	0.10006	1527.3	1.9
0.1498	298.15	0.14995	1530.7	1.9
0.1498	298.15	0.19992	1534.2	1.9
0.1498	298.15	0.25012	1537.8	1.9
0.1498	298.15	0.30018	1541.5	1.9
0.1498	303.15	0	1532.7	1.9
0.1498	303.15	0.05024	1535.8	1.9
0.1498	303.15	0.10006	1539	1.9
0.1498	303.15	0.14995	1542.3	1.9
0.1498	303.15	0.19992	1545.7	1.9
0.1498	303.15	0.25012	1549.2	1.9
0.1498	303.15	0.30018	1552.8	1.9
0.1498	308.15	0	1542.5	1.9
0.1498	308.15	0.05024	1545.5	1.9
0.1498	308.15	0.10006	1548.6	1.9
0.1498	308.15	0.14995	1551.8	1.9
0.1498	308.15	0.19992	1555.1	1.9
0.1498	308.15	0.25012	1558.5	1.9
0.1498	308.15	0.30018	1562	1.9
0.1498	313.15	0	1551.1	1.9
0.1498	313.15	0.05024	1554	1.9
0.1498	313.15	0.10006	1557	1.9
0.1498	313.15	0.14995	1560.1	1.9
0.1498	313.15	0.19992	1563.3	1.9
0.1498	313.15	0.25012	1566.6	1.9
0.1498	313.15	0.30018	1570	1.9

System: L-serine + thiamine hydrochloride + water; phases: Liquid
Fixed: Pressure, kPa = 101.3
Property: Viscosity, Pa*s (Liquid); method: Capillary tube (Ostwald; Ubbelohde) method
Solvent: Molality, mol/kg of thiamine hydrochloride	Temperature, K	Molality, mol/kg of L-serine	Viscosity, Pa*s	uncertainty
0	293.15	0	0.0010022	3.27e-05
0	293.15	0.05002	0.0010108	3.27e-05
0	293.15	0.10013	0.0010215	3.27e-05
0	293.15	0.14996	0.001034	3.27e-05
0	293.15	0.20025	0.0010461	3.28e-05
0	293.15	0.25017	0.0010584	3.28e-05
0	293.15	0.29994	0.0010695	3.28e-05
0	298.15	0	0.0008906	3.26e-05
0	298.15	0.05002	0.0008972	3.26e-05
0	298.15	0.10013	0.000907	3.26e-05
0	298.15	0.14996	0.0009165	3.26e-05
0	298.15	0.20025	0.0009277	3.26e-05
0	298.15	0.25017	0.0009379	3.26e-05
0	298.15	0.29994	0.0009477	3.26e-05
0	303.15	0	0.0007975	3.25e-05
0	303.15	0.05002	0.0008025	3.25e-05
0	303.15	0.10013	0.0008115	3.25e-05
0	303.15	0.14996	0.0008204	3.25e-05
0	303.15	0.20025	0.0008295	3.25e-05
0	303.15	0.25017	0.0008377	3.25e-05
0	303.15	0.29994	0.0008466	3.25e-05
0	308.15	0	0.0007193	3.24e-05
0	308.15	0.05002	0.000723	3.24e-05
0	308.15	0.10013	0.0007313	3.24e-05
0	308.15	0.14996	0.0007386	3.24e-05
0	308.15	0.20025	0.0007463	3.24e-05
0	308.15	0.25017	0.0007535	3.24e-05
0	308.15	0.29994	0.0007611	3.24e-05
0	313.15	0	0.0006531	3.23e-05
0	313.15	0.05002	0.0006558	3.23e-05
0	313.15	0.10013	0.0006627	3.23e-05
0	313.15	0.14996	0.0006688	3.23e-05
0	313.15	0.20025	0.0006756	3.23e-05
0	313.15	0.25017	0.000682	3.24e-05
0	313.15	0.29994	0.0006881	3.24e-05
0.0502	293.15	0	0.0010485	3.28e-05
0.0502	293.15	0.05011	0.0010583	3.28e-05
0.0502	293.15	0.09997	0.0010698	3.28e-05
0.0502	293.15	0.15003	0.0010821	3.28e-05
0.0502	293.15	0.19998	0.0010963	3.28e-05
0.0502	293.15	0.25008	0.0011093	3.28e-05
0.0502	293.15	0.30011	0.001123	3.29e-05
0.0502	298.15	0	0.0009193	3.26e-05
0.0502	298.15	0.05011	0.0009272	3.26e-05
0.0502	298.15	0.09997	0.0009368	3.26e-05
0.0502	298.15	0.15003	0.0009474	3.26e-05
0.0502	298.15	0.19998	0.0009583	3.26e-05
0.0502	298.15	0.25008	0.0009706	3.27e-05
0.0502	298.15	0.30011	0.0009817	3.27e-05
0.0502	303.15	0	0.0008251	3.25e-05
0.0502	303.15	0.05011	0.0008313	3.25e-05
0.0502	303.15	0.09997	0.0008405	3.25e-05
0.0502	303.15	0.15003	0.0008494	3.25e-05
0.0502	303.15	0.19998	0.0008592	3.25e-05
0.0502	303.15	0.25008	0.0008695	3.25e-05
0.0502	303.15	0.30011	0.0008791	3.26e-05
0.0502	308.15	0	0.0007565	3.24e-05
0.0502	308.15	0.05011	0.0007613	3.24e-05
0.0502	308.15	0.09997	0.0007696	3.24e-05
0.0502	308.15	0.15003	0.0007774	3.24e-05
0.0502	308.15	0.19998	0.0007855	3.25e-05
0.0502	308.15	0.25008	0.0007942	3.25e-05
0.0502	308.15	0.30011	0.0008027	3.25e-05
0.0502	313.15	0	0.0006772	3.24e-05
0.0502	313.15	0.05011	0.0006808	3.24e-05
0.0502	313.15	0.09997	0.0006885	3.24e-05
0.0502	313.15	0.15003	0.0006943	3.24e-05
0.0502	313.15	0.19998	0.0007018	3.24e-05
0.0502	313.15	0.25008	0.0007087	3.24e-05
0.0502	313.15	0.30011	0.0007163	3.24e-05
0.1008	293.15	0	0.0010706	3.28e-05
0.1008	293.15	0.04993	0.0010815	3.28e-05
0.1008	293.15	0.10021	0.0010946	3.28e-05
0.1008	293.15	0.15013	0.0011075	3.28e-05
0.1008	293.15	0.20016	0.0011218	3.29e-05
0.1008	293.15	0.24997	0.0011366	3.29e-05
0.1008	293.15	0.29993	0.001151	3.29e-05
0.1008	298.15	0	0.000954	3.26e-05
0.1008	298.15	0.04993	0.0009631	3.27e-05
0.1008	298.15	0.10021	0.0009735	3.27e-05
0.1008	298.15	0.15013	0.0009851	3.27e-05
0.1008	298.15	0.20016	0.0009974	3.27e-05
0.1008	298.15	0.24997	0.00101	3.27e-05
0.1008	298.15	0.29993	0.0010223	3.27e-05
0.1008	303.15	0	0.0008569	3.25e-05
0.1008	303.15	0.04993	0.0008643	3.25e-05
0.1008	303.15	0.10021	0.0008739	3.25e-05
0.1008	303.15	0.15013	0.0008837	3.26e-05
0.1008	303.15	0.20016	0.0008938	3.26e-05
0.1008	303.15	0.24997	0.0009054	3.26e-05
0.1008	303.15	0.29993	0.0009153	3.26e-05
0.1008	308.15	0	0.0007753	3.24e-05
0.1008	308.15	0.04993	0.000781	3.24e-05
0.1008	308.15	0.10021	0.0007899	3.25e-05
0.1008	308.15	0.15013	0.0007979	3.25e-05
0.1008	308.15	0.20016	0.0008073	3.25e-05
0.1008	308.15	0.24997	0.0008158	3.25e-05
0.1008	308.15	0.29993	0.0008255	3.25e-05
0.1008	313.15	0	0.0007057	3.24e-05
0.1008	313.15	0.04993	0.0007103	3.24e-05
0.1008	313.15	0.10021	0.0007177	3.24e-05
0.1008	313.15	0.15013	0.0007252	3.24e-05
0.1008	313.15	0.20016	0.0007329	3.24e-05
0.1008	313.15	0.24997	0.0007413	3.24e-05
0.1008	313.15	0.29993	0.0007495	3.24e-05
0.1498	293.15	0	0.0011007	3.28e-05
0.1498	293.15	0.05024	0.0011131	3.28e-05
0.1498	293.15	0.10006	0.0011266	3.29e-05
0.1498	293.15	0.14995	0.0011408	3.29e-05
0.1498	293.15	0.19992	0.001155	3.29e-05
0.1498	293.15	0.25012	0.001172	3.29e-05
0.1498	293.15	0.30018	0.0011876	3.3e-05
0.1498	298.15	0	0.0009913	3.27e-05
0.1498	298.15	0.05024	0.0010019	3.27e-05
0.1498	298.15	0.10006	0.0010136	3.27e-05
0.1498	298.15	0.14995	0.0010254	3.27e-05
0.1498	298.15	0.19992	0.0010385	3.27e-05
0.1498	298.15	0.25012	0.0010526	3.28e-05
0.1498	298.15	0.30018	0.0010666	3.28e-05
0.1498	303.15	0	0.0008892	3.26e-05
0.1498	303.15	0.05024	0.0008975	3.26e-05
0.1498	303.15	0.10006	0.0009075	3.26e-05
0.1498	303.15	0.14995	0.0009181	3.26e-05
0.1498	303.15	0.19992	0.0009299	3.26e-05
0.1498	303.15	0.25012	0.0009416	3.26e-05
0.1498	303.15	0.30018	0.0009538	3.26e-05
0.1498	308.15	0	0.0008015	3.25e-05
0.1498	308.15	0.05024	0.0008085	3.25e-05
0.1498	308.15	0.10006	0.0008172	3.25e-05
0.1498	308.15	0.14995	0.0008269	3.25e-05
0.1498	308.15	0.19992	0.0008363	3.25e-05
0.1498	308.15	0.25012	0.0008466	3.25e-05
0.1498	308.15	0.30018	0.0008562	3.25e-05
0.1498	313.15	0	0.0007388	3.24e-05
0.1498	313.15	0.05024	0.0007443	3.24e-05
0.1498	313.15	0.10006	0.0007522	3.24e-05
0.1498	313.15	0.14995	0.0007603	3.24e-05
0.1498	313.15	0.19992	0.0007695	3.24e-05
0.1498	313.15	0.25012	0.0007779	3.24e-05
0.1498	313.15	0.30018	0.0007867	3.25e-05

System: L-arginine + thiamine hydrochloride + water; phases: Liquid
Fixed: Pressure, kPa = 101.3
Property: Mass density, kg/m3 (Liquid); method: Vibrating tube method
Solvent: Molality, mol/kg of thiamine hydrochloride	Temperature, K	Molality, mol/kg of L-arginine	Mass density, kg/m3	uncertainty
0	293.15	0	998.212	0.438
0	293.15	0.05014	1000.724	0.438
0	293.15	0.10011	1003.173	0.439
0	293.15	0.15003	1005.577	0.44
0	293.15	0.19997	1007.923	0.441
0	293.15	0.24995	1010.209	0.442
0	293.15	0.30008	1012.467	0.443
0	298.15	0	997.065	0.437
0	298.15	0.05014	999.556	0.438
0	298.15	0.10011	1001.986	0.439
0	298.15	0.15003	1004.355	0.44
0	298.15	0.19997	1006.682	0.441
0	298.15	0.24995	1008.937	0.442
0	298.15	0.30008	1011.174	0.443
0	303.15	0	995.672	0.437
0	303.15	0.05014	998.142	0.438
0	303.15	0.10011	1000.546	0.438
0	303.15	0.15003	1002.897	0.439
0	303.15	0.19997	1005.194	0.44
0	303.15	0.24995	1007.448	0.441
0	303.15	0.30008	1009.667	0.442
0	308.15	0	994.059	0.437
0	308.15	0.05014	996.503	0.437
0	308.15	0.10011	998.883	0.438
0	308.15	0.15003	1001.207	0.438
0	308.15	0.19997	1003.477	0.439
0	308.15	0.24995	1005.701	0.44
0	308.15	0.30008	1007.887	0.441
0	313.15	0	992.247	0.437
0	313.15	0.05014	994.671	0.437
0	313.15	0.10011	997.036	0.437
0	313.15	0.15003	999.344	0.438
0	313.15	0.19997	1001.596	0.438
0	313.15	0.24995	1003.803	0.439
0	313.15	0.30008	1005.97	0.44
0.0497	293.15	0	1003.186	0.439
0.0497	293.15	0.05007	1005.781	0.44
0.0497	293.15	0.10004	1008.28	0.44
0.0497	293.15	0.14998	1010.705	0.443
0.0497	293.15	0.19993	1013.04	0.44
0.0497	293.15	0.2501	1015.312	0.445
0.0497	293.15	0.30006	1017.464	0.446
0.0497	298.15	0	1001.985	0.439
0.0497	298.15	0.05007	1004.565	0.44
0.0497	298.15	0.10004	1007.056	0.441
0.0497	298.15	0.14998	1009.48	0.44
0.0497	298.15	0.19993	1011.816	0.443
0.0497	298.15	0.2501	1014.059	0.444
0.0497	298.15	0.30006	1016.216	0.445
0.0497	303.15	0	1000.563	0.438
0.0497	303.15	0.05007	1003.121	0.439
0.0497	303.15	0.10004	1005.595	0.44
0.0497	303.15	0.14998	1007.976	0.441
0.0497	303.15	0.19993	1010.293	0.442
0.0497	303.15	0.2501	1012.565	0.444
0.0497	303.15	0.30006	1014.711	0.445
0.0497	308.15	0	998.93	0.438
0.0497	308.15	0.05007	1001.47	0.438
0.0497	308.15	0.10004	1003.914	0.439
0.0497	308.15	0.14998	1006.28	0.441
0.0497	308.15	0.19993	1008.554	0.442
0.0497	308.15	0.2501	1010.791	0.443
0.0497	308.15	0.30006	1012.925	0.444
0.0497	313.15	0	997.193	0.437
0.0497	313.15	0.05007	999.708	0.438
0.0497	313.15	0.10004	1002.141	0.439
0.0497	313.15	0.14998	1004.489	0.44
0.0497	313.15	0.19993	1006.737	0.441
0.0497	313.15	0.2501	1008.918	0.442
0.0497	313.15	0.30006	1011.039	0.443
0.1003	293.15	0	1008.061	0.441
0.1003	293.15	0.05004	1010.617	0.443
0.1003	293.15	0.09995	1013.084	0.444
0.1003	293.15	0.15016	1015.505	0.445
0.1003	293.15	0.20013	1017.856	0.446
0.1003	293.15	0.24997	1020.125	0.447
0.1003	293.15	0.30014	1022.329	0.448
0.1003	298.15	0	1006.866	0.441
0.1003	298.15	0.05004	1009.406	0.442
0.1003	298.15	0.09995	1011.876	0.443
0.1003	298.15	0.15016	1014.287	0.444
0.1003	298.15	0.20013	1016.613	0.445
0.1003	298.15	0.24997	1018.875	0.447
0.1003	298.15	0.30014	1021.076	0.448
0.1003	303.15	0	1005.437	0.44
0.1003	303.15	0.05004	1007.956	0.441
0.1003	303.15	0.09995	1010.401	0.443
0.1003	303.15	0.15016	1012.802	0.444
0.1003	303.15	0.20013	1015.111	0.445
0.1003	303.15	0.24997	1017.344	0.446
0.1003	303.15	0.30014	1019.556	0.447
0.1003	308.15	0	1003.792	0.439
0.1003	308.15	0.05004	1006.293	0.441
0.1003	308.15	0.09995	1008.718	0.442
0.1003	308.15	0.15016	1011.082	0.443
0.1003	308.15	0.20013	1013.358	0.444
0.1003	308.15	0.24997	1015.592	0.445
0.1003	308.15	0.30014	1017.773	0.446
0.1003	313.15	0	1002.003	0.439
0.1003	313.15	0.05004	1004.479	0.44
0.1003	313.15	0.09995	1006.879	0.441
0.1003	313.15	0.15016	1009.236	0.442
0.1003	313.15	0.20013	1011.511	0.443
0.1003	313.15	0.24997	1013.704	0.444
0.1003	313.15	0.30014	1015.846	0.445
0.1505	293.15	0	1013.006	0.444
0.1505	293.15	0.05018	1015.53	0.445
0.1505	293.15	0.09996	1017.964	0.446
0.1505	293.15	0.15009	1020.361	0.447
0.1505	293.15	0.20015	1022.702	0.448
0.1505	293.15	0.25011	1024.979	0.449
0.1505	293.15	0.29992	1027.215	0.451
0.1505	298.15	0	1011.767	0.443
0.1505	298.15	0.05018	1014.276	0.444
0.1505	298.15	0.09996	1016.704	0.446
0.1505	298.15	0.15009	1019.086	0.447
0.1505	298.15	0.20015	1021.41	0.448
0.1505	298.15	0.25011	1023.68	0.449
0.1505	298.15	0.29992	1025.888	0.45
0.1505	303.15	0	1010.295	0.442
0.1505	303.15	0.05018	1012.789	0.444
0.1505	303.15	0.09996	1015.203	0.445
0.1505	303.15	0.15009	1017.579	0.446
0.1505	303.15	0.20015	1019.893	0.447
0.1505	303.15	0.25011	1022.158	0.448
0.1505	303.15	0.29992	1024.354	0.449
0.1505	308.15	0	1008.62	0.44
0.1505	308.15	0.05018	1011.093	0.443
0.1505	308.15	0.09996	1013.494	0.444
0.1505	308.15	0.15009	1015.84	0.445
0.1505	308.15	0.20015	1018.131	0.446
0.1505	308.15	0.25011	1020.368	0.447
0.1505	308.15	0.29992	1022.557	0.448
0.1505	313.15	0	1006.757	0.441
0.1505	313.15	0.05018	1009.208	0.442
0.1505	313.15	0.09996	1011.581	0.443
0.1505	313.15	0.15009	1013.911	0.444
0.1505	313.15	0.20015	1016.185	0.445
0.1505	313.15	0.25011	1018.397	0.446
0.1505	313.15	0.29992	1020.546	0.447

System: L-arginine + thiamine hydrochloride + water; phases: Liquid
Fixed: Pressure, kPa = 101.3
Fixed: Frequency, MHz = 4
Property: Speed of sound, m/s (Liquid); method: Linear variable-path acoustic interferometer
Solvent: Molality, mol/kg of thiamine hydrochloride	Temperature, K	Molality, mol/kg of L-arginine	Speed of sound, m/s	uncertainty
0	293.15	0	1482.6	2
0	293.15	0.05014	1487.6	2
0	293.15	0.10011	1492.7	2
0	293.15	0.15003	1497.9	2
0	293.15	0.19997	1503.2	2
0	293.15	0.24995	1508.6	2
0	293.15	0.30008	1514.1	2
0	298.15	0	1497.4	2
0	298.15	0.05014	1502.4	2
0	298.15	0.10011	1507.5	2
0	298.15	0.15003	1512.7	2
0	298.15	0.19997	1518	2
0	298.15	0.24995	1523.4	2
0	298.15	0.30008	1528.9	2.1
0	303.15	0	1509.5	2
0	303.15	0.05014	1514.5	2
0	303.15	0.10011	1519.6	2
0	303.15	0.15003	1524.8	2
0	303.15	0.19997	1530.1	2.1
0	303.15	0.24995	1535.5	2.1
0	303.15	0.30008	1541	2.1
0	308.15	0	1519.3	2
0	308.15	0.05014	1524.3	2
0	308.15	0.10011	1529.4	2.1
0	308.15	0.15003	1534.6	2.1
0	308.15	0.19997	1539.9	2.1
0	308.15	0.24995	1545.3	2.1
0	308.15	0.30008	1550.8	2.1
0	313.15	0	1528.7	2.1
0	313.15	0.05014	1533.7	2.1
0	313.15	0.10011	1538.8	2.1
0	313.15	0.15003	1544	2.1
0	313.15	0.19997	1549.3	2.1
0	313.15	0.24995	1554.7	2.1
0	313.15	0.30008	1560.3	2.1
0.0497	293.15	0	1490.4	2
0.0497	293.15	0.05007	1495.6	2
0.0497	293.15	0.10004	1501	2
0.0497	293.15	0.14998	1506.5	2
0.0497	293.15	0.19993	1512.2	2
0.0497	293.15	0.2501	1518.1	2
0.0497	293.15	0.30006	1524.2	2
0.0497	298.15	0	1504.1	2
0.0497	298.15	0.05007	1509.3	2
0.0497	298.15	0.10004	1514.7	2
0.0497	298.15	0.14998	1520.2	2
0.0497	298.15	0.19993	1525.9	2.1
0.0497	298.15	0.2501	1531.8	2.1
0.0497	298.15	0.30006	1537.8	2.1
0.0497	303.15	0	1516.7	2
0.0497	303.15	0.05007	1521.9	2
0.0497	303.15	0.10004	1527.3	2.1
0.0497	303.15	0.14998	1532.9	2.1
0.0497	303.15	0.19993	1538.6	2.1
0.0497	303.15	0.2501	1544.5	2.1
0.0497	303.15	0.30006	1550.5	2.1
0.0497	308.15	0	1526.9	2.1
0.0497	308.15	0.05007	1532.1	2.1
0.0497	308.15	0.10004	1537.5	2.1
0.0497	308.15	0.14998	1543	2.1
0.0497	308.15	0.19993	1548.7	2.1
0.0497	308.15	0.2501	1554.5	2.1
0.0497	308.15	0.30006	1560.5	2.1
0.0497	313.15	0	1535.5	2.1
0.0497	313.15	0.05007	1540.7	2.1
0.0497	313.15	0.10004	1546	2.1
0.0497	313.15	0.14998	1551.5	2.1
0.0497	313.15	0.19993	1557.2	2.1
0.0497	313.15	0.2501	1563.1	2.1
0.0497	313.15	0.30006	1569.1	2.1
0.1003	293.15	0	1498.5	2
0.1003	293.15	0.05004	1503.8	2
0.1003	293.15	0.09995	1509.2	2
0.1003	293.15	0.15016	1514.8	2
0.1003	293.15	0.20013	1520.4	2
0.1003	293.15	0.24997	1526.2	2.1
0.1003	293.15	0.30014	1532.2	2.1
0.1003	298.15	0	1512.6	2
0.1003	298.15	0.05004	1517.9	2
0.1003	298.15	0.09995	1523.3	2
0.1003	298.15	0.15016	1528.9	2.1
0.1003	298.15	0.20013	1534.6	2.1
0.1003	298.15	0.24997	1540.4	2.1
0.1003	298.15	0.30014	1546.4	2.1
0.1003	303.15	0	1524.1	2
0.1003	303.15	0.05004	1529.4	2.1
0.1003	303.15	0.09995	1534.8	2.1
0.1003	303.15	0.15016	1540.4	2.1
0.1003	303.15	0.20013	1546.1	2.1
0.1003	303.15	0.24997	1552	2.1
0.1003	303.15	0.30014	1558.1	2.1
0.1003	308.15	0	1533.7	2.1
0.1003	308.15	0.05004	1539	2.1
0.1003	308.15	0.09995	1544.4	2.1
0.1003	308.15	0.15016	1550	2.1
0.1003	308.15	0.20013	1555.7	2.1
0.1003	308.15	0.24997	1561.5	2.1
0.1003	308.15	0.30014	1567.5	2.1
0.1003	313.15	0	1542.8	2.1
0.1003	313.15	0.05004	1548.1	2.1
0.1003	313.15	0.09995	1553.5	2.1
0.1003	313.15	0.15016	1559.1	2.1
0.1003	313.15	0.20013	1564.8	2.1
0.1003	313.15	0.24997	1570.6	2.1
0.1003	313.15	0.30014	1576.6	2.1
0.1505	293.15	0	1507.2	2
0.1505	293.15	0.05018	1512.6	2
0.1505	293.15	0.09996	1518.1	2
0.1505	293.15	0.15009	1523.8	2
0.1505	293.15	0.20015	1529.6	2.1
0.1505	293.15	0.25011	1535.5	2.1
0.1505	293.15	0.29992	1541.5	2.1
0.1505	298.15	0	1520.8	2
0.1505	298.15	0.05018	1526.2	2.1
0.1505	298.15	0.09996	1531.7	2.1
0.1505	298.15	0.15009	1537.4	2.1
0.1505	298.15	0.20015	1543.2	2.1
0.1505	298.15	0.25011	1549.1	2.1
0.1505	298.15	0.29992	1555.1	2.1
0.1505	303.15	0	1532.7	2.1
0.1505	303.15	0.05018	1538.1	2.1
0.1505	303.15	0.09996	1543.6	2.1
0.1505	303.15	0.15009	1549.3	2.1
0.1505	303.15	0.20015	1555.1	2.1
0.1505	303.15	0.25011	1561	2
0.1505	303.15	0.29992	1567.1	2.1
0.1505	308.15	0	1542.5	2.1
0.1505	308.15	0.05018	1547.9	2.1
0.1505	308.15	0.09996	1553.4	2.1
0.1505	308.15	0.15009	1559.1	2.1
0.1505	308.15	0.20015	1564.9	2.1
0.1505	308.15	0.25011	1570.8	2.1
0.1505	308.15	0.29992	1576.8	2.1
0.1505	313.15	0	1551.1	2.1
0.1505	313.15	0.05018	1556.5	2.1
0.1505	313.15	0.09996	1562	2
0.1505	313.15	0.15009	1567.7	2.1
0.1505	313.15	0.20015	1573.5	2.1
0.1505	313.15	0.25011	1579.5	2.1
0.1505	313.15	0.29992	1585.6	2.1

System: L-arginine + thiamine hydrochloride + water; phases: Liquid
Fixed: Pressure, kPa = 101.3
Property: Viscosity, Pa*s (Liquid); method: Capillary tube (Ostwald; Ubbelohde) method
Solvent: Molality, mol/kg of thiamine hydrochloride	Temperature, K	Molality, mol/kg of L-arginine	Viscosity, Pa*s	uncertainty
0	293.15	0	0.0010022	3.29e-05
0	293.15	0.05014	0.0010315	3.3e-05
0	293.15	0.10011	0.0010544	3.3e-05
0	293.15	0.15003	0.0010802	3.31e-05
0	293.15	0.19997	0.0011066	3.31e-05
0	293.15	0.24995	0.0011298	3.32e-05
0	293.15	0.30008	0.0011548	3.32e-05
0	298.15	0	0.0008906	3.27e-05
0	298.15	0.05014	0.0009151	3.28e-05
0	298.15	0.10011	0.0009358	3.28e-05
0	298.15	0.15003	0.0009586	3.29e-05
0	298.15	0.19997	0.0009766	3.29e-05
0	298.15	0.24995	0.0010003	3.29e-05
0	298.15	0.30008	0.00102072	3.296e-05
0	303.15	0	0.0007975	3.26e-05
0	303.15	0.05014	0.00081792	3.264e-05
0	303.15	0.10011	0.0008355	3.27e-05
0	303.15	0.15003	0.0008555	3.27e-05
0	303.15	0.19997	0.0008718	3.27e-05
0	303.15	0.24995	0.0008909	3.28e-05
0	303.15	0.30008	0.0009084	3.28e-05
0	308.15	0	0.0007193	3.25e-05
0	308.15	0.05014	0.0007362	3.25e-05
0	308.15	0.10011	0.0007512	3.26e-05
0	308.15	0.15003	0.0007694	3.26e-05
0	308.15	0.19997	0.0007828	3.26e-05
0	308.15	0.24995	0.0007987	3.26e-05
0	308.15	0.30008	0.0008144	3.26e-05
0	313.15	0	0.0006531	3.24e-05
0	313.15	0.05014	0.0006673	3.24e-05
0	313.15	0.10011	0.0006808	3.25e-05
0	313.15	0.15003	0.0006951	3.25e-05
0	313.15	0.19997	0.0007067	3.25e-05
0	313.15	0.24995	0.0007224	3.25e-05
0	313.15	0.30008	0.0007345	3.25e-05
0.0497	293.15	0	0.0010485	3.3e-05
0.0497	293.15	0.05007	0.0010818	3.31e-05
0.0497	293.15	0.10004	0.0011042	3.31e-05
0.0497	293.15	0.14998	0.0011308	3.32e-05
0.0497	293.15	0.19993	0.001158	3.32e-05
0.0497	293.15	0.2501	0.0011862	3.33e-05
0.0497	293.15	0.30006	0.0012132	3.33e-05
0.0497	298.15	0	0.0009193	3.28e-05
0.0497	298.15	0.05007	0.0009463	3.28e-05
0.0497	298.15	0.10004	0.0009665	3.29e-05
0.0497	298.15	0.14998	0.0009899	3.29e-05
0.0497	298.15	0.19993	0.0010117	3.29e-05
0.0497	298.15	0.2501	0.0010353	3.3e-05
0.0497	298.15	0.30006	0.0010568	3.3e-05
0.0497	303.15	0	0.0008251	3.27e-05
0.0497	303.15	0.05007	0.0008475	3.27e-05
0.0497	303.15	0.10004	0.0008649	3.27e-05
0.0497	303.15	0.14998	0.0008848	3.27e-05
0.0497	303.15	0.19993	0.0009031	3.28e-05
0.0497	303.15	0.2501	0.0009226	3.28e-05
0.0497	303.15	0.30006	0.0009432	3.28e-05
0.0497	308.15	0	0.0007565	3.26e-05
0.0497	308.15	0.05007	0.0007759	3.26e-05
0.0497	308.15	0.10004	0.0007892	3.26e-05
0.0497	308.15	0.14998	0.0008095	3.26e-05
0.0497	308.15	0.19993	0.0008247	3.27e-05
0.0497	308.15	0.2501	0.0008424	3.27e-05
0.0497	308.15	0.30006	0.0008583	3.27e-05
0.0497	313.15	0	0.0006772	3.25e-05
0.0497	313.15	0.05007	0.0006934	3.25e-05
0.0497	313.15	0.10004	0.0007061	3.25e-05
0.0497	313.15	0.14998	0.0007215	3.25e-05
0.0497	313.15	0.19993	0.0007365	3.25e-05
0.0497	313.15	0.2501	0.0007492	3.25e-05
0.0497	313.15	0.30006	0.0007649	3.26e-05
0.1003	293.15	0	0.0010706	3.31e-05
0.1003	293.15	0.05004	0.0011067	3.31e-05
0.1003	293.15	0.09995	0.0011355	3.32e-05
0.1003	293.15	0.15016	0.0011618	3.32e-05
0.1003	293.15	0.20013	0.0011899	3.33e-05
0.1003	293.15	0.24997	0.0012187	3.33e-05
0.1003	293.15	0.30014	0.0012456	3.34e-05
0.1003	298.15	0	0.000954	3.29e-05
0.1003	298.15	0.05004	0.0009839	3.29e-05
0.1003	298.15	0.09995	0.0010071	3.29e-05
0.1003	298.15	0.15016	0.0010313	3.3e-05
0.1003	298.15	0.20013	0.0010507	3.3e-05
0.1003	298.15	0.24997	0.0010783	3.31e-05
0.1003	298.15	0.30014	0.0011036	3.31e-05
0.1003	303.15	0	0.0008569	3.27e-05
0.1003	303.15	0.05004	0.000882	3.27e-05
0.1003	303.15	0.09995	0.000901	3.28e-05
0.1003	303.15	0.15016	0.0009222	3.28e-05
0.1003	303.15	0.20013	0.0009407	3.28e-05
0.1003	303.15	0.24997	0.0009646	3.29e-05
0.1003	303.15	0.30014	0.0009825	3.29e-05
0.1003	308.15	0	0.0007753	3.26e-05
0.1003	308.15	0.05004	0.0007963	3.26e-05
0.1003	308.15	0.09995	0.0008127	3.26e-05
0.1003	308.15	0.15016	0.0008333	3.27e-05
0.1003	308.15	0.20013	0.0008479	3.27e-05
0.1003	308.15	0.24997	0.0008672	3.27e-05
0.1003	308.15	0.30014	0.000884	3.27e-05
0.1003	313.15	0	0.0007057	3.25e-05
0.1003	313.15	0.05004	0.0007236	3.25e-05
0.1003	313.15	0.09995	0.0007379	3.25e-05
0.1003	313.15	0.15016	0.0007552	3.26e-05
0.1003	313.15	0.20013	0.0007718	3.26e-05
0.1003	313.15	0.24997	0.0007852	3.26e-05
0.1003	313.15	0.30014	0.0008001	3.26e-05
0.1505	293.15	0	0.0011007	3.31e-05
0.1505	293.15	0.05018	0.0011397	3.32e-05
0.1505	293.15	0.09996	0.0011708	3.32e-05
0.1505	293.15	0.15009	0.0011982	3.33e-05
0.1505	293.15	0.20015	0.0012277	3.34e-05
0.1505	293.15	0.25011	0.0012586	3.34e-05
0.1505	293.15	0.29992	0.0012851	3.35e-05
0.1505	298.15	0	0.0009913	3.29e-05
0.1505	298.15	0.05018	0.0010247	3.3e-05
0.1505	298.15	0.09996	0.0010504	3.3e-05
0.1505	298.15	0.15009	0.0010748	3.31e-05
0.1505	298.15	0.20015	0.0011007	3.31e-05
0.1505	298.15	0.25011	0.0011261	3.32e-05
0.1505	298.15	0.29992	0.001151	3.32e-05
0.1505	303.15	0	0.0008892	3.27e-05
0.1505	303.15	0.05018	0.0009172	3.28e-05
0.1505	303.15	0.09996	0.0009378	3.28e-05
0.1505	303.15	0.15009	0.0009585	3.29e-05
0.1505	303.15	0.20015	0.0009825	3.29e-05
0.1505	303.15	0.25011	0.0010015	3.29e-05
0.1505	303.15	0.29992	0.0010238	3.3e-05
0.1505	308.15	0	0.0008015	3.26e-05
0.1505	308.15	0.05018	0.0008253	3.27e-05
0.1505	308.15	0.09996	0.0008423	3.27e-05
0.1505	308.15	0.15009	0.0008617	3.27e-05
0.1505	308.15	0.20015	0.0008783	3.27e-05
0.1505	308.15	0.25011	0.0008994	3.28e-05
0.1505	308.15	0.29992	0.0009158	3.28e-05
0.1505	313.15	0	0.0007388	3.25e-05
0.1505	313.15	0.05018	0.0007593	3.26e-05
0.1505	313.15	0.09996	0.0007745	3.26e-05
0.1505	313.15	0.15009	0.0007928	3.26e-05
0.1505	313.15	0.20015	0.000807	3.26e-05
0.1505	313.15	0.25011	0.0008241	3.27e-05
0.1505	313.15	0.29992	0.0008397	3.27e-05

System: L-serine + water; phases: Liquid
Fixed: Pressure, kPa = 101.3
Property: Mass density, kg/m3 (Liquid); method: Vibrating tube method
Temperature, K	Molality, mol/kg of L-serine	Mass density, kg/m3	uncertainty
293.15	0.05002	1000.485	0.372
293.15	0.10013	1002.739	0.372
293.15	0.14996	1004.961	0.372
293.15	0.20025	1007.179	0.373
293.15	0.25017	1009.361	0.373
293.15	0.29994	1011.52	0.373
298.15	0.05002	999.314	0.372
298.15	0.10013	1001.546	0.372
298.15	0.14996	1003.742	0.372
298.15	0.20025	1005.938	0.372
298.15	0.25017	1008.097	0.373
298.15	0.29994	1010.233	0.373
303.15	0.05002	997.896	0.372
303.15	0.10013	1000.103	0.372
303.15	0.14996	1002.271	0.372
303.15	0.20025	1004.436	0.372
303.15	0.25017	1006.564	0.372
303.15	0.29994	1008.66	0.373
308.15	0.05002	996.254	0.372
308.15	0.10013	998.433	0.372
308.15	0.14996	1000.579	0.372
308.15	0.20025	1002.722	0.372
308.15	0.25017	1004.832	0.372
308.15	0.29994	1006.917	0.373
313.15	0.05002	994.421	0.372
313.15	0.10013	996.578	0.372
313.15	0.14996	998.702	0.372
313.15	0.20025	1000.824	0.372
313.15	0.25017	1002.911	0.372
313.15	0.29994	1004.967	0.372
293.15	0	998.212	0.372
298.15	0	997.065	0.372
303.15	0	995.672	0.372
308.15	0	994.059	0.372
313.15	0	992.247	0.372

System: L-serine + water; phases: Liquid
Fixed: Pressure, kPa = 101.3
Fixed: Frequency, MHz = 4
Property: Speed of sound, m/s (Liquid); method: Linear variable-path acoustic interferometer
Temperature, K	Molality, mol/kg of L-serine	Speed of sound, m/s	uncertainty
293.15	0.05002	1485.7	1.7
293.15	0.10013	1488.9	1.7
293.15	0.14996	1492.2	1.7
293.15	0.20025	1495.6	1.7
293.15	0.25017	1499.1	1.7
293.15	0.29994	1502.7	1.8
298.15	0.05002	1500.4	1.7
298.15	0.10013	1503.5	1.8
298.15	0.14996	1506.7	1.8
298.15	0.20025	1510	1.8
298.15	0.25017	1513.4	1.8
298.15	0.29994	1516.9	1.8
303.15	0.05002	1512.4	1.8
303.15	0.10013	1515.4	1.8
303.15	0.14996	1518.5	1.8
303.15	0.20025	1521.7	1.8
303.15	0.25017	1525	1.8
303.15	0.29994	1528.4	1.8
308.15	0.05002	1522.1	1.8
308.15	0.10013	1525	1.8
308.15	0.14996	1528	1.8
308.15	0.20025	1531.1	1.8
308.15	0.25017	1534.3	1.8
308.15	0.29994	1537.6	1.8
313.15	0.05002	1531.4	1.8
313.15	0.10013	1534.2	1.8
313.15	0.14996	1537.1	1.8
313.15	0.20025	1540.2	1.8
313.15	0.25017	1543.3	1.8
313.15	0.29994	1546.6	1.8
293.15	0	1482.6	1.7
298.15	0	1497.4	1.7
303.15	0	1509.5	1.8
308.15	0	1519.3	1.8
313.15	0	1528.7	1.8

System: L-serine + water; phases: Liquid
Fixed: Pressure, kPa = 101.3
Property: Viscosity, Pa*s (Liquid); method: Capillary tube (Ostwald; Ubbelohde) method
Temperature, K	Molality, mol/kg of L-serine	Viscosity, Pa*s	uncertainty
293.15	0.05002	0.0010108	3.25e-05
293.15	0.10013	0.0010215	3.25e-05
293.15	0.14996	0.001034	3.25e-05
293.15	0.20025	0.0010461	3.26e-05
293.15	0.25017	0.0010584	3.26e-05
293.15	0.29994	0.0010695	3.26e-05
298.15	0.05002	0.0008972	3.24e-05
298.15	0.10013	0.000907	3.24e-05
298.15	0.14996	0.0009165	3.24e-05
298.15	0.20025	0.0009277	3.24e-05
298.15	0.25017	0.0009379	3.25e-05
298.15	0.29994	0.0009477	3.25e-05
303.15	0.05002	0.0008025	3.23e-05
303.15	0.10013	0.0008115	3.24e-05
303.15	0.14996	0.0008204	3.24e-05
303.15	0.20025	0.0008295	3.24e-05
303.15	0.25017	0.0008377	3.24e-05
303.15	0.29994	0.0008466	3.24e-05
308.15	0.05002	0.000723	3.23e-05
308.15	0.10013	0.0007313	3.23e-05
308.15	0.14996	0.0007386	3.23e-05
308.15	0.20025	0.0007463	3.23e-05
308.15	0.25017	0.0007535	3.23e-05
308.15	0.29994	0.0007611	3.23e-05
313.15	0.05002	0.0006558	3.22e-05
313.15	0.10013	0.0006627	3.23e-05
313.15	0.14996	0.0006688	3.23e-05
313.15	0.20025	0.0006756	3.23e-05
313.15	0.25017	0.000682	3.23e-05
313.15	0.29994	0.0006881	3.23e-05
293.15	0	0.0010022	3.25e-05
298.15	0	0.0008906	3.24e-05
303.15	0	0.0007975	3.23e-05
308.15	0	0.0007193	3.23e-05
313.15	0	0.0006531	3.22e-05

System: thiamine hydrochloride + water; phases: Liquid
Fixed: Pressure, kPa = 101.3
Property: Mass density, kg/m3 (Liquid); method: Vibrating tube method
Molality, mol/kg of thiamine hydrochloride	Temperature, K	Mass density, kg/m3	uncertainty
0.0502	293.15	1003.186	0.362
0.0502	298.15	1001.985	0.362
0.0502	303.15	1000.563	0.362
0.0502	308.15	998.93	0.362
0.0502	313.15	997.193	0.362
0.1008	293.15	1008.061	0.363
0.1008	298.15	1006.866	0.363
0.1008	303.15	1005.437	0.362
0.1008	308.15	1003.792	0.362
0.1008	313.15	1002.003	0.362
0.1498	293.15	1013.006	0.363
0.1498	298.15	1011.767	0.363
0.1498	303.15	1010.295	0.363
0.1498	308.15	1008.62	0.363
0.1498	313.15	1006.757	0.363
0.0497	293.15	1003.186	0.362
0.0497	298.15	1001.985	0.362
0.0497	303.15	1000.563	0.362
0.0497	308.15	998.93	0.362
0.0497	313.15	997.193	0.362
0.1003	293.15	1008.061	0.363
0.1003	298.15	1006.866	0.363
0.1003	303.15	1005.437	0.362
0.1003	308.15	1003.792	0.362
0.1003	313.15	1002.003	0.362
0.1505	293.15	1013.006	0.363
0.1505	298.15	1011.767	0.363
0.1505	303.15	1010.295	0.363
0.1505	308.15	1008.62	0.36
0.1505	313.15	1006.757	0.363
0	293.15	998.212	0.362
0	298.15	997.065	0.362
0	303.15	995.672	0.362
0	308.15	994.059	0.362
0	313.15	992.247	0.362

System: thiamine hydrochloride + water; phases: Liquid
Fixed: Pressure, kPa = 101.3
Fixed: Frequency, MHz = 4
Property: Speed of sound, m/s (Liquid); method: Linear variable-path acoustic interferometer
Molality, mol/kg of thiamine hydrochloride	Temperature, K	Speed of sound, m/s	uncertainty
0.0503	293.15	1490.4	1.7
0.0503	298.15	1504.1	1.8
0.0503	303.15	1516.7	1.8
0.0503	308.15	1526.9	1.8
0.0503	313.15	1535.5	1.8
0.1008	293.15	1498.5	1.7
0.1008	298.15	1512.6	1.8
0.1008	303.15	1524.1	1.8
0.1008	308.15	1533.7	1.8
0.1008	313.15	1542.8	1.8
0.1498	293.15	1507.2	1.8
0.1498	298.15	1520.8	1.8
0.1498	303.15	1532.7	1.8
0.1498	308.15	1542.5	1.8
0.1498	313.15	1551.1	1.8
0.0497	293.15	1490.4	1.7
0.0497	298.15	1504.1	1.8
0.0497	303.15	1516.7	1.8
0.0497	308.15	1526.9	1.8
0.0497	313.15	1535.5	1.8
0.1003	293.15	1498.5	1.7
0.1003	298.15	1512.6	1.8
0.1003	303.15	1524.1	1.8
0.1003	308.15	1533.7	1.8
0.1003	313.15	1542.8	1.8
0.1505	293.15	1507.2	1.8
0.1505	298.15	1520.8	1.8
0.1505	303.15	1532.7	1.8
0.1505	308.15	1542.5	1.8
0.1505	313.15	1551.1	1.8
0	293.15	1482.6	1.7
0	298.15	1497.4	1.7
0	303.15	1509.5	1.8
0	308.15	1519.3	1.8
0	313.15	1528.7	1.8

System: thiamine hydrochloride + water; phases: Liquid
Fixed: Pressure, kPa = 101.3
Property: Viscosity, Pa*s (Liquid); method: Capillary tube (Ostwald; Ubbelohde) method
Molality, mol/kg of thiamine hydrochloride	Temperature, K	Viscosity, Pa*s	uncertainty
0.0502	293.15	0.0010485	3.26e-05
0.0502	298.15	0.0009193	3.24e-05
0.0502	303.15	0.0008251	3.24e-05
0.0502	308.15	0.0007565	3.23e-05
0.0502	313.15	0.0006772	3.23e-05
0.1008	293.15	0.0010706	3.26e-05
0.1008	298.15	0.000954	3.25e-05
0.1008	303.15	0.0008569	3.24e-05
0.1008	308.15	0.0007753	3.23e-05
0.1008	313.15	0.0007057	3.23e-05
0.1498	293.15	0.0011007	3.26e-05
0.1498	298.15	0.0009913	3.25e-05
0.1498	303.15	0.0008892	3.24e-05
0.1498	308.15	0.0008015	3.24e-05
0.1498	313.15	0.0007388	3.23e-05
0.0497	293.15	0.0010485	3.26e-05
0.0497	298.15	0.0009193	3.24e-05
0.0497	303.15	0.0008251	3.24e-05
0.0497	308.15	0.0007565	3.23e-05
0.0497	313.15	0.0006772	3.23e-05
0.1003	293.15	0.0010706	3.26e-05
0.1003	298.15	0.000954	3.25e-05
0.1003	303.15	0.0008569	3.24e-05
0.1003	308.15	0.0007753	3.23e-05
0.1003	313.15	0.0007057	3.23e-05
0.1505	293.15	0.0011007	3.26e-05
0.1505	298.15	0.0009913	3.25e-05
0.1505	303.15	0.0008892	3.24e-05
0.1505	308.15	0.0008015	3.24e-05
0.1505	313.15	0.0007388	3.23e-05
0	293.15	0.0010022	3.25e-05
0	298.15	0.0008906	3.24e-05
0	303.15	0.0007975	3.23e-05
0	308.15	0.0007193	3.23e-05
0	313.15	0.0006531	3.22e-05

System: L-arginine + water; phases: Liquid
Fixed: Pressure, kPa = 101.3
Property: Mass density, kg/m3 (Liquid); method: Vibrating tube method
Temperature, K	Molality, mol/kg of L-arginine	Mass density, kg/m3	uncertainty
293.15	0.05014	1000.724	0.372
293.15	0.10011	1003.173	0.372
293.15	0.15003	1005.577	0.373
293.15	0.19997	1007.923	0.373
293.15	0.24995	1010.209	0.373
293.15	0.30008	1012.467	0.374
298.15	0.05014	999.556	0.372
298.15	0.10011	1001.986	0.372
298.15	0.15003	1004.355	0.372
298.15	0.19997	1006.682	0.373
298.15	0.24995	1008.937	0.373
298.15	0.30008	1011.174	0.374
303.15	0.05014	998.142	0.372
303.15	0.10011	1000.546	0.372
303.15	0.15003	1002.897	0.372
303.15	0.19997	1005.194	0.373
303.15	0.24995	1007.448	0.373
303.15	0.30008	1009.667	0.374
308.15	0.05014	996.503	0.372
308.15	0.10011	998.883	0.372
308.15	0.15003	1001.207	0.372
308.15	0.19997	1003.477	0.373
308.15	0.24995	1005.701	0.373
308.15	0.30008	1007.887	0.373
313.15	0.05014	994.671	0.372
313.15	0.10011	997.036	0.372
313.15	0.15003	999.344	0.372
313.15	0.19997	1001.596	0.372
313.15	0.24995	1003.803	0.373
313.15	0.30008	1005.97	0.373
293.15	0	998.212	0.372
298.15	0	997.065	0.372
303.15	0	995.672	0.372
308.15	0	994.059	0.372
313.15	0	992.247	0.372

System: L-arginine + water; phases: Liquid
Fixed: Pressure, kPa = 101.3
Fixed: Frequency, MHz = 4
Property: Speed of sound, m/s (Liquid); method: Linear variable-path acoustic interferometer
Temperature, K	Molality, mol/kg of L-arginine	Speed of sound, m/s	uncertainty
293.15	0.05014	1487.6	1.7
293.15	0.10011	1492.7	1.7
293.15	0.15003	1497.9	1.8
293.15	0.19997	1503.2	1.8
293.15	0.24995	1508.6	1.8
293.15	0.30008	1514.1	1.8
298.15	0.05014	1502.4	1.8
298.15	0.10011	1507.5	1.8
298.15	0.15003	1512.7	1.8
298.15	0.19997	1518	1.8
298.15	0.24995	1523.4	1.8
298.15	0.30008	1528.9	1.8
303.15	0.05014	1514.5	1.8
303.15	0.10011	1519.6	1.8
303.15	0.15003	1524.8	1.8
303.15	0.19997	1530.1	1.8
303.15	0.24995	1535.5	1.8
303.15	0.30008	1541	1.8
308.15	0.05014	1524.3	1.8
308.15	0.10011	1529.4	1.8
308.15	0.15003	1534.6	1.8
308.15	0.19997	1539.9	1.8
308.15	0.24995	1545.3	1.8
308.15	0.30008	1550.8	1.8
313.15	0.05014	1533.7	1.8
313.15	0.10011	1538.8	1.8
313.15	0.15003	1544	1.8
313.15	0.19997	1549.3	1.8
313.15	0.24995	1554.7	1.8
313.15	0.30008	1560.3	1.8
293.15	0	1482.6	1.7
298.15	0	1497.4	1.7
303.15	0	1509.5	1.8
308.15	0	1519.3	1.8
313.15	0	1528.7	1.8

System: L-arginine + water; phases: Liquid
Fixed: Pressure, kPa = 101.3
Property: Viscosity, Pa*s (Liquid); method: Capillary tube (Ostwald; Ubbelohde) method
Temperature, K	Molality, mol/kg of L-arginine	Viscosity, Pa*s	uncertainty
293.15	0.05014	0.0010315	3.25e-05
293.15	0.10011	0.0010544	3.26e-05
293.15	0.15003	0.0010802	3.26e-05
293.15	0.19997	0.0011066	3.26e-05
293.15	0.24995	0.0011298	3.26e-05
293.15	0.30008	0.0011548	3.27e-05
298.15	0.05014	0.0009151	3.24e-05
298.15	0.10011	0.0009358	3.25e-05
298.15	0.15003	0.0009586	3.25e-05
298.15	0.19997	0.0009766	3.25e-05
298.15	0.24995	0.0010003	3.25e-05
298.15	0.30008	0.00102072	3.254e-05
303.15	0.05014	0.00081792	3.236e-05
303.15	0.10011	0.0008355	3.24e-05
303.15	0.15003	0.0008555	3.24e-05
303.15	0.19997	0.0008718	3.24e-05
303.15	0.24995	0.0008909	3.24e-05
303.15	0.30008	0.0009084	3.24e-05
308.15	0.05014	0.0007362	3.23e-05
308.15	0.10011	0.0007512	3.23e-05
308.15	0.15003	0.0007694	3.23e-05
308.15	0.19997	0.0007828	3.23e-05
308.15	0.24995	0.0007987	3.24e-05
308.15	0.30008	0.0008144	3.24e-05
313.15	0.05014	0.0006673	3.23e-05
313.15	0.10011	0.0006808	3.23e-05
313.15	0.15003	0.0006951	3.23e-05
313.15	0.19997	0.0007067	3.23e-05
313.15	0.24995	0.0007224	3.23e-05
313.15	0.30008	0.0007345	3.23e-05
293.15	0	0.0010022	3.25e-05
298.15	0	0.0008906	3.24e-05
303.15	0	0.0007975	3.23e-05
308.15	0	0.0007193	3.23e-05
313.15	0	0.0006531	3.22e-05
