Measured thermophysical data. Experimental (vapour + liquid) equilibrium data and modelling for binary mixtures of decafluorobutane with propane and 1-butene
Source: J. Chem. Thermodyn., 2013, 10.1016/j.jct.2013.07.020
Compound 1: decafluorobutane, C4F10, InChI=1S/C4F10/c5-1(6,3(9,10)11)2(7,8)4(12,13)14
Compound 2: propane, C3H8, InChI=1S/C3H8/c1-3-2/h3H2,1-2H3
Compound 3: 1-butene, C4H8, InChI=1S/C4H8/c1-3-4-2/h3H,1,4H2,2H3

System: decafluorobutane; phases: Liquid, Gas
Property: Vapor or sublimation pressure, kPa (Liquid); method: Closed cell (Static) method
Temperature, K	Vapor or sublimation pressure, kPa	uncertainty
302.92	316	7
305.45	339	7
307.9	366	7
310.5	393	7
312.93	419	7
315.48	455	7
317.9	487	7
320.4	522	7
322.91	560	7
325.44	595	7
327.92	633	7
330.4	675	7
332.87	718	7
335.39	762	7
337.94	819	7
340.39	860	7
342.93	919	7

System: propane; phases: Liquid, Gas
Property: Vapor or sublimation pressure, kPa (Liquid); method: Closed cell (Static) method
Temperature, K	Vapor or sublimation pressure, kPa	uncertainty
302.97	1072	7
307.96	1214	7
312.99	1361	7
317.89	1522	7
322.99	1712	8
327.97	1906	8
332.93	2103	8
337.91	2336	8
342.91	2582	8

System: propane + decafluorobutane; phases: Liquid, Gas
Property: Vapor or sublimation pressure, kPa (Liquid); method: Closed cell (Static) method
Mole fraction of propane	Temperature, K	Vapor or sublimation pressure, kPa	uncertainty
0.134	312.92	726	14
0.184	312.92	814	13
0.25	312.92	909	12
0.296	312.92	964	11
0.329	312.92	1005	11
0.445	312.92	1123	10
0.551	312.92	1207	9
0.628	312.92	1255	9
0.721	312.92	1306	9
0.82	312.92	1344	8
0.91	312.92	1369	8
0.965	312.92	1372	8
0.093	327.94	908	18
0.161	327.94	1072	20
0.2	327.94	1157	15
0.227	327.94	1209	14
0.3	327.94	1339	16
0.337	327.94	1397	12
0.461	327.94	1571	12
0.57	327.94	1697	11
0.653	327.94	1778	10
0.752	327.94	1849	9
0.893	327.94	1910	10
0.931	327.94	1916	9
0.961	327.94	1914	14
0.053	342.94	1135	21
0.111	342.94	1298	21
0.191	342.94	1526	19
0.332	342.94	1856	18
0.462	342.94	2109	16
0.533	342.94	2229	15
0.61	342.94	2351	14
0.702	342.94	2465	13
0.772	342.94	2535	12
0.871	342.94	2597	11
0.932	342.94	2605	10
0.96	342.94	2601	10

System: propane + decafluorobutane; phases: Gas, Liquid
Property: Mole fraction of propane (Gas); method: Chromatography
Mole fraction of propane	Temperature, K	Mole fraction of propane	uncertainty
0.134	312.92	0.432	0.012
0.184	312.92	0.504	0.01
0.25	312.92	0.567	0.009
0.296	312.92	0.598	0.008
0.329	312.92	0.623	0.007
0.445	312.92	0.692	0.007
0.551	312.92	0.738	0.006
0.628	312.92	0.769	0.006
0.721	312.92	0.815	0.006
0.82	312.92	0.861	0.007
0.91	312.92	0.923	0.007
0.965	312.92	0.964	0.007
0.093	327.94	0.299	0.013
0.161	327.94	0.414	0.012
0.2	327.94	0.463	0.01
0.227	327.94	0.49	0.009
0.3	327.94	0.554	0.009
0.337	327.94	0.582	0.008
0.461	327.94	0.657	0.007
0.57	327.94	0.717	0.007
0.653	327.94	0.759	0.007
0.752	327.94	0.81	0.007
0.893	327.94	0.9	0.007
0.931	327.94	0.931	0.008
0.961	327.94	0.958	0.008
0.053	342.94	0.182	0.013
0.111	342.94	0.281	0.012
0.191	342.94	0.392	0.01
0.332	342.94	0.521	0.009
0.462	342.94	0.611	0.008
0.533	342.94	0.656	0.007
0.61	342.94	0.706	0.007
0.702	342.94	0.762	0.007
0.772	342.94	0.808	0.007
0.871	342.94	0.88	0.007
0.932	342.94	0.93	0.008
0.96	342.94	0.958	0.009

System: propane + decafluorobutane; phases: Liquid, Gas
Property: Azeotropic pressure, kPa (Liquid); method: By P(X) extreme
Temperature, K	Azeotropic pressure, kPa	uncertainty
312.92	1371	9
327.94	1921	11
342.94	2613	13

System: propane + decafluorobutane; phases: Liquid, Gas
Property: Azeotropic composition: mole fraction of propane (Liquid); method: By T or P extreme
Temperature, K	Azeotropic composition: mole fraction of propane	uncertainty
312.92	0.946	0.007
327.94	0.934	0.007
342.94	0.924	0.007

System: 1-butene + decafluorobutane; phases: Liquid, Gas
Property: Vapor or sublimation pressure, kPa (Liquid); method: Closed cell (Static) method
Mole fraction of 1-butene	Temperature, K	Vapor or sublimation pressure, kPa	uncertainty
0.058	312.92	493	10
0.107	312.92	544	9
0.18	312.92	601	8
0.31	312.92	670	8
0.41	312.92	701	7
0.521	312.92	713	7
0.561	312.92	715	7
0.581	312.92	716	7
0.641	312.92	715	7
0.74	312.92	711	7
0.821	312.92	705	7
0.87	312.92	695	8
0.92	312.92	666	9
0.952	312.92	625	11
0.073	327.93	744	13
0.11	327.93	798	11
0.171	327.93	867	9
0.344	327.93	992	8
0.511	327.93	1042	9
0.54	327.93	1045	8
0.581	327.93	1047	8
0.59	327.93	1047	8
0.671	327.93	1043	8
0.73	327.93	1037	8
0.81	327.93	1021	8
0.883	327.93	990	8
0.922	327.93	948	8
0.131	342.93	1163	11
0.29	342.93	1357	11
0.362	342.93	1411	9
0.471	342.93	1463	9
0.513	342.93	1472	9
0.57	342.93	1479	9
0.652	342.93	1475	9
0.72	342.93	1460	9
0.81	342.93	1431	9
0.904	342.93	1344	16
0.921	342.93	1307	16

System: 1-butene + decafluorobutane; phases: Gas, Liquid
Property: Mole fraction of 1-butene (Gas); method: Chromatography
Mole fraction of 1-butene	Temperature, K	Mole fraction of 1-butene	uncertainty
0.058	312.92	0.177	0.013
0.107	312.92	0.276	0.011
0.18	312.92	0.373	0.009
0.31	312.92	0.485	0.008
0.41	312.92	0.541	0.007
0.521	312.92	0.58	0.007
0.561	312.92	0.591	0.007
0.581	312.92	0.596	0.007
0.641	312.92	0.609	0.007
0.74	312.92	0.624	0.007
0.821	312.92	0.635	0.007
0.87	312.92	0.648	0.007
0.92	312.92	0.682	0.009
0.952	312.92	0.731	0.011
0.073	327.93	0.177	0.013
0.11	327.93	0.248	0.011
0.171	327.93	0.33	0.008
0.344	327.93	0.478	0.008
0.511	327.93	0.563	0.007
0.54	327.93	0.575	0.007
0.581	327.93	0.589	0.007
0.59	327.93	0.592	0.007
0.671	327.93	0.615	0.007
0.73	327.93	0.629	0.007
0.81	327.93	0.649	0.007
0.883	327.93	0.678	0.007
0.922	327.93	0.713	0.008
0.131	342.93	0.247	0.008
0.29	342.93	0.412	0.009
0.362	342.93	0.463	0.008
0.471	342.93	0.53	0.008
0.513	342.93	0.55	0.007
0.57	342.93	0.578	0.007
0.652	342.93	0.611	0.007
0.72	342.93	0.636	0.007
0.81	342.93	0.664	0.007
0.904	342.93	0.721	0.01
0.921	342.93	0.744	0.01

System: 1-butene + decafluorobutane; phases: Liquid, Gas
Property: Azeotropic pressure, kPa (Liquid); method: By P(X) extreme
Temperature, K	Azeotropic pressure, kPa	uncertainty
312.92	721	8
327.93	1053	8
342.93	1482	10

System: 1-butene + decafluorobutane; phases: Liquid, Gas
Property: Azeotropic composition: mole fraction of 1-butene (Liquid); method: By T or P extreme
Temperature, K	Azeotropic composition: mole fraction of 1-butene	uncertainty
312.92	0.601	0.008
327.93	0.593	0.008
342.93	0.587	0.008
