Measured thermophysical data. Effect of hydrolysis on the diffusion of ferric sulphate in aqueous solutions at T = 298.15 K
Source: J. Chem. Thermodyn., 2012, 10.1016/j.jct.2012.06.014
Compound 1: ferric sulfate, Fe2O12S3, InChI=1S/2Fe.3H2O4S/c;;3*1-5(2,3)4/h;;3*(H2,1,2,3,4)/q2*+3;;;/p-6, purity 97%
Compound 2: water, H2O, InChI=1S/H2O/h1H2

System: water + ferric sulfate; phases: Liquid
Fixed: Pressure, kPa = 101
Fixed: Temperature, K = 298.15
Property: Binary diffusion coefficient, m2/s (Liquid); method: Open capillary
Amount concentration (molarity), mol/dm3 of ferric sulfate	Binary diffusion coefficient, m2/s	uncertainty
0.05	1.476e-09	0.051
0.06	1.45e-09	0.042
0.08	1.419e-09	0.16
0.1	1.412e-09	0.019
0.15	1.425e-09	0.042
0.2	1.482e-09	0.036
