Measured thermophysical data. Thermochemistry of 2,2'-dipyridil N-oxide and 2,20-dipyridil N,N'-dioxide. The dissociation enthalpies of the N-O bonds
Source: J. Chem. Thermodyn., 2011, 10.1016/j.jct.2011.02.011
Compound 1: carbon dioxide, CO2, InChI=1S/CO2/c2-1-3
Compound 2: nitrogen, N2, InChI=1S/N2/c1-2
Compound 3: water, H2O, InChI=1S/H2O/h1H2
Compound 4: oxygen, O2, InChI=1S/O2/c1-2
Compound 5: 2,2'-bipyridyl N-oxide, C10H8N2O, InChI=1S/C10H8N2O/c13-12-8-4-2-6-10(12)9-5-1-3-7-11-9/h1-8H
Compound 6: 2,2'-bipyridine-N,N'-dioxide, C10H8N2O2, InChI=1S/C10H8N2O2/c13-11-7-3-1-5-9(11)10-6-2-4-8-12(10)14/h1-8H

System: 2,2'-bipyridyl N-oxide; phases: Crystal, Gas
Property: Vapor or sublimation pressure, kPa (Crystal); method: Calculated from knudsen effusion weight loss
Temperature, K	Vapor or sublimation pressure, kPa	uncertainty
319.17	5.02e-05	2.5e-06
321.15	6.13e-05	3.1e-06
323.16	8.26e-05	4.1e-06
325.15	9.94e-05	5e-06
327.14	0.000127	6e-06
329.16	0.000162	8e-06
331.13	0.0002	1e-05
319.17	4.82e-05	2.4e-06
323.16	7.96e-05	4e-06
325.15	0.000102	5e-06
327.14	0.000126	6e-06
329.16	0.000163	8e-06
331.13	0.000201	1e-05
319.17	4.83e-05	2.4e-06
321.15	6.32e-05	3.2e-06
323.16	7.8e-05	3.9e-06
325.15	0.0001	5e-06
327.14	0.000128	6e-06
329.16	0.000161	8e-06
331.13	0.000198	1e-05

System: 2,2'-bipyridine-N,N'-dioxide; phases: Crystal, Gas
Property: Molar enthalpy of vaporization or sublimation, kJ/mol (Crystal); method: Derived by Second law
Temperature, K	Molar enthalpy of vaporization or sublimation, kJ/mol	uncertainty
420.7	120.47	4.26
427.7	120.53	6.98
420.2	118.53	5.46
441.2	119.87	9.06
441.7	116.62	4.45
433.2	122.33	4.22

Reaction: -1 2,2'-bipyridyl N-oxide + 10 carbon dioxide + 1 nitrogen + 4 water + -11.5 oxygen
Property: Specific internal energy of reaction at constant volume, J/g
-30485.6

Reaction: -1 2,2'-bipyridine-N,N'-dioxide + 10 carbon dioxide + 1 nitrogen + 4 water + -11 oxygen
Property: Specific internal energy of reaction at constant volume, J/g
-27617
