Measured thermophysical data. Topological investigations of binary mixtures containing ionic liquid 1-ethyl-3-methylimidazolium tetrafluoroborate and pyridine or isomeric picolines
Source: J. Chem. Thermodyn., 2013, 10.1016/j.jct.2012.07.007
Compound 1: 1-ethyl-3-methylimidazolium tetrafluoroborate, C6H11BF4N2, InChI=1S/C6H11N2.BF4/c1-3-8-5-4-7(2)6-8;2-1(3,4)5/h4-6H,3H2,1-2H3;/q+1;-1, purity 98%
Compound 2: pyridine, C5H5N, InChI=1S/C5H5N/c1-2-4-6-5-3-1/h1-5H, purity 99%
Compound 3: 2-methylpyridine, C6H7N, InChI=1S/C6H7N/c1-6-4-2-3-5-7-6/h2-5H,1H3, purity 98%
Compound 4: 3-methylpyridine, C6H7N, InChI=1S/C6H7N/c1-6-3-2-4-7-5-6/h2-5H,1H3, purity 99%
Compound 5: 4-methylpyridine, C6H7N, InChI=1S/C6H7N/c1-6-2-4-7-5-3-6/h2-5H,1H3, purity 99%

System: 1-ethyl-3-methylimidazolium tetrafluoroborate; phases: Liquid
Fixed: Pressure, kPa = 101.325
Property: Speed of sound, m/s (Liquid); method: Linear variable-path acoustic interferometer
Temperature, K	Speed of sound, m/s	uncertainty
293.15	1631.05	2.59
298.15	1619.4	2.59
303.15	1607.63	2.58
308.15	1596.31	2.58

System: 1-ethyl-3-methylimidazolium tetrafluoroborate; phases: Liquid
Fixed: Pressure, kPa = 101.325
Property: Mass density, kg/m3 (Liquid); method: Vibrating tube method
Temperature, K	Mass density, kg/m3	uncertainty
293.15	1283.89	1.47
298.15	1279.91	1.46
303.15	1276.26	1.46
308.15	1272.07	1.44

System: pyridine; phases: Liquid
Fixed: Pressure, kPa = 101.325
Property: Speed of sound, m/s (Liquid); method: Linear variable-path acoustic interferometer
Temperature, K	Speed of sound, m/s	uncertainty
293.15	1442.04	1.81
298.15	1417.81	1.79
303.15	1397.97	1.78
308.15	1377.11	1.77

System: pyridine; phases: Liquid
Fixed: Pressure, kPa = 101.325
Property: Mass density, kg/m3 (Liquid); method: Vibrating tube method
Temperature, K	Mass density, kg/m3	uncertainty
293.15	983.191	0.23
298.15	978.249	0.23
303.15	973.224	0.23
308.15	968.166	0.23

System: 2-methylpyridine; phases: Liquid
Fixed: Pressure, kPa = 101.325
Property: Speed of sound, m/s (Liquid); method: Linear variable-path acoustic interferometer
Temperature, K	Speed of sound, m/s	uncertainty
293.15	1400.54	2.48
298.15	1380.12	2.48
303.15	1361.02	2.47
308.15	1339.89	2.46

System: 2-methylpyridine; phases: Liquid
Fixed: Pressure, kPa = 101.325
Property: Mass density, kg/m3 (Liquid); method: Vibrating tube method
Temperature, K	Mass density, kg/m3	uncertainty
293.15	944.401	0.773
298.15	939.802	0.768
303.15	935.117	0.762
308.15	930.414	0.757

System: 3-methylpyridine; phases: Liquid
Fixed: Pressure, kPa = 101.325
Property: Speed of sound, m/s (Liquid); method: Linear variable-path acoustic interferometer
Temperature, K	Speed of sound, m/s	uncertainty
293.15	1445.91	1.81
298.15	1424.01	1.8
303.15	1404.05	1.78
308.15	1384.03	1.77

System: 3-methylpyridine; phases: Liquid
Fixed: Pressure, kPa = 101.325
Property: Mass density, kg/m3 (Liquid); method: Vibrating tube method
Temperature, K	Mass density, kg/m3	uncertainty
293.15	956.581	0.23
298.15	952.002	0.23
303.15	947.449	0.23
308.15	942.831	0.23

System: 4-methylpyridine; phases: Liquid
Fixed: Pressure, kPa = 101.325
Property: Speed of sound, m/s (Liquid); method: Linear variable-path acoustic interferometer
Temperature, K	Speed of sound, m/s	uncertainty
293.15	1451.06	1.81
298.15	1431.5	1.8
303.15	1410.67	1.79
308.15	1389.89	1.77

System: 4-methylpyridine; phases: Liquid
Fixed: Pressure, kPa = 101.325
Property: Mass density, kg/m3 (Liquid); method: Vibrating tube method
Temperature, K	Mass density, kg/m3	uncertainty
293.15	955.099	0.23
298.15	950.179	0.23
303.15	945.413	0.23
308.15	940.821	0.23

System: pyridine + 1-ethyl-3-methylimidazolium tetrafluoroborate; phases: Liquid
Fixed: Temperature, K = 298.15
Fixed: Pressure, kPa = 101
Property: Excess molar enthalpy (molar enthalpy of mixing), kJ/mol (Liquid); method: 2-drop calorimetry
Mole fraction of 1-ethyl-3-methylimidazolium tetrafluoroborate	Excess molar enthalpy (molar enthalpy of mixing), kJ/mol	uncertainty
0.1025	-0.1471	0.0034
0.1335	-0.1877	0.0043
0.1727	-0.2321	0.0052
0.2121	-0.2804	0.0062
0.2654	-0.3283	0.0072
0.3078	-0.3638	0.008
0.3587	-0.4049	0.0089
0.4112	-0.4245	0.0093
0.4632	-0.4479	0.0098
0.4956	-0.4525	0.0099
0.5325	-0.4531	0.0099
0.589	-0.4427	0.0097
0.6312	-0.4201	0.0092
0.6983	-0.3807	0.0083
0.7567	-0.3372	0.0074
0.8078	-0.2791	0.0062
0.8654	-0.2115	0.0048
0.9123	-0.1441	0.0034

System: pyridine + 1-ethyl-3-methylimidazolium tetrafluoroborate; phases: Liquid
Fixed: Pressure, kPa = 101
Property: Speed of sound, m/s (Liquid); method: Linear variable-path acoustic interferometer
Temperature, K	Mole fraction of 1-ethyl-3-methylimidazolium tetrafluoroborate	Speed of sound, m/s	uncertainty
293.15	0.1225	1486.4	1.91
293.15	0.1781	1504.79	1.95
293.15	0.2349	1521.47	2
293.15	0.2787	1533.37	2.03
293.15	0.3215	1543.95	2.06
293.15	0.3716	1555.57	2.1
293.15	0.4229	1565.74	2.14
293.15	0.4723	1574.03	2.18
293.15	0.5213	1582.39	2.22
293.15	0.5731	1589.58	2.26
293.15	0.6212	1596.25	2.3
293.15	0.6719	1603.21	2.34
293.15	0.7224	1609.34	2.37
293.15	0.7737	1615.16	2.42
293.15	0.8219	1619.93	2.45
293.15	0.8764	1625.06	2.5
293.15	0.9223	1628.2	2.53
293.15	0.9349	1628.91	2.54
298.15	0.1225	1466.65	1.89
298.15	0.1781	1486.66	1.94
298.15	0.2349	1505.47	1.99
298.15	0.2787	1517.72	2.02
298.15	0.3215	1528.82	2.05
298.15	0.3716	1541.08	2.09
298.15	0.4229	1550.93	2.13
298.15	0.4723	1560.37	2.17
298.15	0.5213	1568.29	2.21
298.15	0.5731	1575.48	2.25
298.15	0.6212	1582.63	2.29
298.15	0.6719	1589.24	2.33
298.15	0.7224	1595.18	2.37
298.15	0.7737	1601.33	2.41
298.15	0.8219	1607	2.45
298.15	0.8764	1612.19	2.49
298.15	0.9223	1616.02	2.53
298.15	0.9349	1616.76	2.54
303.15	0.1225	1450.06	1.88
303.15	0.1781	1470.9	1.93
303.15	0.2349	1489.36	1.98
303.15	0.2787	1502.22	2.01
303.15	0.3215	1513.94	2.05
303.15	0.3716	1525.04	2.08
303.15	0.4229	1536.1	2.13
303.15	0.4723	1544.55	2.16
303.15	0.5213	1552.76	2.2
303.15	0.5731	1561.38	2.24
303.15	0.6212	1568.11	2.28
303.15	0.6719	1575.52	2.32
303.15	0.7224	1583.1	2.36
303.15	0.7737	1589.69	2.4
303.15	0.8219	1595.82	2.44
303.15	0.8764	1601.95	2.48
303.15	0.9223	1605.49	2.52
303.15	0.9349	1606.24	2.53
308.15	0.1225	1431.55	1.87
308.15	0.1781	1453.64	1.92
308.15	0.2349	1473.33	1.97
308.15	0.2787	1487.63	2
308.15	0.3215	1499.15	2.04
308.15	0.3716	1512.23	2.08
308.15	0.4229	1523.45	2.12
308.15	0.4723	1533.07	2.16
308.15	0.5213	1541.09	2.19
308.15	0.5731	1549.5	2.24
308.15	0.6212	1557.39	2.27
308.15	0.6719	1564.34	2.31
308.15	0.7224	1571.52	2.35
308.15	0.7737	1578.46	2.4
308.15	0.8219	1584.75	2.44
308.15	0.8764	1590.54	2.48
308.15	0.9223	1594.04	2.52
308.15	0.9349	1594.79	2.53

System: pyridine + 1-ethyl-3-methylimidazolium tetrafluoroborate; phases: Liquid
Fixed: Pressure, kPa = 101
Property: Mass density, kg/m3 (Liquid); method: Vibrating tube method
Temperature, K	Mole fraction of 1-ethyl-3-methylimidazolium tetrafluoroborate	Mass density, kg/m3	uncertainty
293.15	0.1225	1057.86	0.35
293.15	0.1781	1085.74	0.4
293.15	0.2349	1111.05	0.46
293.15	0.2787	1128.56	0.5
293.15	0.3215	1144.24	0.55
293.15	0.3716	1160.99	0.6
293.15	0.4229	1176.47	0.66
293.15	0.4723	1189.98	0.72
293.15	0.5213	1202.28	0.78
293.15	0.5731	1214.14	0.85
293.15	0.6212	1224.23	0.91
293.15	0.6719	1234.08	0.98
293.15	0.7224	1243.17	1.05
293.15	0.7737	1251.76	1.12
293.15	0.8219	1259.31	1.19
293.15	0.8764	1267.33	1.27
293.15	0.9223	1273.71	1.35
293.15	0.9349	1275.41	1.37
298.15	0.1225	1053.89	0.35
298.15	0.1781	1081.91	0.4
298.15	0.2349	1107.24	0.45
298.15	0.2787	1124.75	0.5
298.15	0.3215	1140.37	0.54
298.15	0.3716	1156.91	0.6
298.15	0.4229	1172.38	0.66
298.15	0.4723	1185.87	0.71
298.15	0.5213	1198.15	0.77
298.15	0.5731	1209.97	0.84
298.15	0.6212	1220.11	0.9
298.15	0.6719	1230	0.97
298.15	0.7224	1239.16	1.04
298.15	0.7737	1247.81	1.11
298.15	0.8219	1255.42	1.18
298.15	0.8764	1263.49	1.26
298.15	0.9223	1269.86	1.34
298.15	0.9349	1271.55	1.36
303.15	0.1225	1049.31	0.34
303.15	0.1781	1077.49	0.39
303.15	0.2349	1102.93	0.45
303.15	0.2787	1120.49	0.49
303.15	0.3215	1136.25	0.54
303.15	0.3716	1152.96	0.59
303.15	0.4229	1168.48	0.65
303.15	0.4723	1182.12	0.71
303.15	0.5213	1194.47	0.77
303.15	0.5731	1206.44	0.83
303.15	0.6212	1216.67	0.9
303.15	0.6719	1226.63	0.96
303.15	0.7224	1235.85	1.03
303.15	0.7737	1244.54	1.11
303.15	0.8219	1252.16	1.18
303.15	0.8764	1260.17	1.26
303.15	0.9223	1266.47	1.33
303.15	0.9349	1268.13	1.35
308.15	0.1225	1044.82	0.34
308.15	0.1781	1073.08	0.39
308.15	0.2349	1098.58	0.44
308.15	0.2787	1116.15	0.49
308.15	0.3215	1131.85	0.53
308.15	0.3716	1148.63	0.59
308.15	0.4229	1164.16	0.64
308.15	0.4723	1177.75	0.7
308.15	0.5213	1190.17	0.76
308.15	0.5731	1202.2	0.83
308.15	0.6212	1212.48	0.89
308.15	0.6719	1222.55	0.96
308.15	0.7224	1231.85	1.03
308.15	0.7737	1240.61	1.1
308.15	0.8219	1248.26	1.17
308.15	0.8764	1256.28	1.25
308.15	0.9223	1262.53	1.32
308.15	0.9349	1264.16	1.34

System: 2-methylpyridine + 1-ethyl-3-methylimidazolium tetrafluoroborate; phases: Liquid
Fixed: Temperature, K = 298.15
Fixed: Pressure, kPa = 101
Property: Excess molar enthalpy (molar enthalpy of mixing), kJ/mol (Liquid); method: 2-drop calorimetry
Mole fraction of 1-ethyl-3-methylimidazolium tetrafluoroborate	Excess molar enthalpy (molar enthalpy of mixing), kJ/mol	uncertainty
0.1132	-0.1094	0.0027
0.1578	-0.1481	0.0035
0.2087	-0.194	0.0044
0.2467	-0.225	0.0051
0.2976	-0.2662	0.0059
0.3245	-0.2861	0.0063
0.3789	-0.3264	0.0072
0.4235	-0.3564	0.0078
0.4876	-0.3954	0.0087
0.5123	-0.4085	0.0089
0.5734	-0.4372	0.0095
0.6145	-0.4484	0.0098
0.6634	-0.4531	0.0099
0.7145	-0.4365	0.0095
0.7856	-0.3988	0.0087
0.8265	-0.3598	0.0079
0.8723	-0.3041	0.0067
0.9226	-0.209	0.0047

System: 2-methylpyridine + 1-ethyl-3-methylimidazolium tetrafluoroborate; phases: Liquid
Fixed: Pressure, kPa = 101
Property: Speed of sound, m/s (Liquid); method: Linear variable-path acoustic interferometer
Temperature, K	Mole fraction of 1-ethyl-3-methylimidazolium tetrafluoroborate	Speed of sound, m/s	uncertainty
293.15	0.1219	1438.34	2.5
293.15	0.1776	1457.52	2.51
293.15	0.2341	1478.17	2.52
293.15	0.2778	1494.18	2.53
293.15	0.3209	1509.3	2.54
293.15	0.3721	1527.29	2.55
293.15	0.4232	1544.83	2.55
293.15	0.4727	1560	2.56
293.15	0.5217	1572.9	2.57
293.15	0.5742	1585.5	2.57
293.15	0.6217	1595.58	2.58
293.15	0.6724	1603.86	2.58
293.15	0.7228	1609.81	2.58
293.15	0.7725	1614.65	2.59
293.15	0.8216	1618.63	2.59
293.15	0.8741	1621.83	2.59
293.15	0.9218	1624.57	2.59
293.15	0.9319	1625.35	2.59
298.15	0.1219	1415.47	2.49
298.15	0.1776	1434.77	2.5
298.15	0.2341	1454.78	2.51
298.15	0.2778	1471.04	2.52
298.15	0.3209	1487.74	2.53
298.15	0.3721	1506.38	2.54
298.15	0.4232	1525.53	2.54
298.15	0.4727	1542.67	2.55
298.15	0.5217	1557.72	2.56
298.15	0.5742	1572.92	2.57
298.15	0.6217	1585.02	2.57
298.15	0.6724	1596.45	2.58
298.15	0.7228	1605.14	2.58
298.15	0.7725	1611.07	2.58
298.15	0.8216	1615.55	2.59
298.15	0.8741	1618.71	2.59
298.15	0.9218	1619.78	2.59
298.15	0.9319	1619.62	2.59
303.15	0.1219	1397.71	2.48
303.15	0.1776	1417.15	2.49
303.15	0.2341	1438.29	2.5
303.15	0.2778	1454.44	2.51
303.15	0.3209	1470.75	2.52
303.15	0.3721	1490.48	2.53
303.15	0.4232	1508.97	2.54
303.15	0.4727	1525.24	2.54
303.15	0.5217	1540.59	2.55
303.15	0.5742	1555.26	2.56
303.15	0.6217	1567.49	2.56
303.15	0.6724	1577.81	2.57
303.15	0.7228	1586.19	2.57
303.15	0.7725	1592.06	2.57
303.15	0.8216	1596.9	2.58
303.15	0.8741	1600.75	2.58
303.15	0.9218	1603.51	2.58
303.15	0.9319	1604.01	2.58
308.15	0.1219	1379.64	2.48
308.15	0.1776	1400.04	2.49
308.15	0.2341	1422.01	2.5
308.15	0.2778	1439.1	2.5
308.15	0.3209	1455.58	2.51
308.15	0.3721	1475.53	2.52
308.15	0.4232	1494.97	2.53
308.15	0.4727	1513.58	2.54
308.15	0.5217	1530.28	2.55
308.15	0.5742	1545.89	2.55
308.15	0.6217	1558.99	2.56
308.15	0.6724	1571.09	2.56
308.15	0.7228	1581.55	2.57
308.15	0.7725	1589.02	2.57
308.15	0.8216	1593.8	2.58
308.15	0.8741	1597.43	2.58
308.15	0.9218	1598.21	2.58
308.15	0.9319	1598.35	2.58

System: 2-methylpyridine + 1-ethyl-3-methylimidazolium tetrafluoroborate; phases: Liquid
Fixed: Pressure, kPa = 101
Property: Mass density, kg/m3 (Liquid); method: Vibrating tube method
Temperature, K	Mole fraction of 1-ethyl-3-methylimidazolium tetrafluoroborate	Mass density, kg/m3	uncertainty
293.15	0.1219	1013.9	0.87
293.15	0.1776	1043.45	0.93
293.15	0.2341	1071.82	0.99
293.15	0.2778	1092.45	1.03
293.15	0.3209	1111.76	1.08
293.15	0.3721	1133.09	1.12
293.15	0.4232	1152.77	1.16
293.15	0.4727	1170.31	1.2
293.15	0.5217	1186.07	1.24
293.15	0.5742	1201.42	1.28
293.15	0.6217	1214.02	1.3
293.15	0.6724	1226.14	1.33
293.15	0.7228	1236.96	1.36
293.15	0.7725	1246.69	1.38
293.15	0.8216	1255.54	1.4
293.15	0.8741	1264.27	1.42
293.15	0.9218	1271.82	1.44
293.15	0.9319	1273.41	1.45
298.15	0.1219	1010.93	0.87
298.15	0.1776	1040.53	0.93
298.15	0.2341	1068.69	0.98
298.15	0.2778	1089.12	1.03
298.15	0.3209	1108.07	1.07
298.15	0.3721	1129.16	1.11
298.15	0.4232	1148.64	1.16
298.15	0.4727	1166.05	1.19
298.15	0.5217	1181.95	1.23
298.15	0.5742	1197.47	1.27
298.15	0.6217	1210.21	1.3
298.15	0.6724	1222.71	1.32
298.15	0.7228	1233.88	1.35
298.15	0.7725	1243.95	1.38
298.15	0.8216	1252.96	1.4
298.15	0.8741	1261.73	1.42
298.15	0.9218	1269.01	1.44
298.15	0.9319	1270.5	1.44
303.15	0.1219	1006.33	0.86
303.15	0.1776	1036.16	0.92
303.15	0.2341	1064.53	0.98
303.15	0.2778	1085.1	1.02
303.15	0.3209	1104.33	1.06
303.15	0.3721	1125.57	1.1
303.15	0.4232	1145.21	1.15
303.15	0.4727	1162.72	1.19
303.15	0.5217	1178.63	1.22
303.15	0.5742	1194.21	1.26
303.15	0.6217	1206.93	1.29
303.15	0.6724	1219.36	1.32
303.15	0.7228	1230.44	1.34
303.15	0.7725	1240.41	1.37
303.15	0.8216	1249.32	1.39
303.15	0.8741	1257.98	1.41
303.15	0.9218	1265.26	1.43
303.15	0.9319	1266.74	1.43
308.15	0.1219	1002.14	0.85
308.15	0.1776	1032.07	0.91
308.15	0.2341	1060.5	0.97
308.15	0.2778	1081.18	1.01
308.15	0.3209	1100.37	1.05
308.15	0.3721	1121.65	1.1
308.15	0.4232	1141.21	1.14
308.15	0.4727	1158.68	1.18
308.15	0.5217	1174.56	1.21
308.15	0.5742	1190.05	1.25
308.15	0.6217	1202.85	1.28
308.15	0.6724	1215.15	1.31
308.15	0.7228	1226.27	1.33
308.15	0.7725	1236.19	1.36
308.15	0.8216	1245.1	1.38
308.15	0.8741	1253.82	1.4
308.15	0.9218	1261.08	1.42
308.15	0.9319	1262.57	1.42

System: 3-methylpyridine + 1-ethyl-3-methylimidazolium tetrafluoroborate; phases: Liquid
Fixed: Temperature, K = 298.15
Fixed: Pressure, kPa = 101
Property: Excess molar enthalpy (molar enthalpy of mixing), kJ/mol (Liquid); method: 2-drop calorimetry
Mole fraction of 1-ethyl-3-methylimidazolium tetrafluoroborate	Excess molar enthalpy (molar enthalpy of mixing), kJ/mol	uncertainty
0.1256	-0.1358	0.0032
0.1676	-0.1713	0.0039
0.2089	-0.2055	0.0046
0.2578	-0.2452	0.0055
0.2976	-0.2723	0.0061
0.3387	-0.2937	0.0065
0.3898	-0.3203	0.0071
0.4367	-0.3406	0.0075
0.4876	-0.3615	0.0079
0.5223	-0.3692	0.0081
0.599	-0.3758	0.0082
0.6345	-0.3725	0.0082
0.689	-0.3602	0.0079
0.7356	-0.3391	0.0075
0.7909	-0.2982	0.0066
0.8479	-0.2436	0.0055
0.889	-0.1967	0.0045
0.9109	-0.1646	0.0038

System: 3-methylpyridine + 1-ethyl-3-methylimidazolium tetrafluoroborate; phases: Liquid
Fixed: Pressure, kPa = 101
Property: Speed of sound, m/s (Liquid); method: Linear variable-path acoustic interferometer
Temperature, K	Mole fraction of 1-ethyl-3-methylimidazolium tetrafluoroborate	Speed of sound, m/s	uncertainty
293.15	0.1217	1479.91	1.9
293.15	0.1729	1494.67	1.94
293.15	0.2415	1513.95	2
293.15	0.2711	1521.75	2.02
293.15	0.3214	1535.57	2.06
293.15	0.3732	1548.78	2.1
293.15	0.4219	1560.08	2.14
293.15	0.4718	1571.84	2.18
293.15	0.5209	1581.62	2.22
293.15	0.5723	1591.86	2.26
293.15	0.6221	1600.28	2.3
293.15	0.6731	1607.52	2.34
293.15	0.7212	1614.11	2.38
293.15	0.7708	1619.12	2.41
293.15	0.8224	1623.68	2.46
293.15	0.8713	1627.17	2.49
293.15	0.9119	1628.98	2.53
293.15	0.9317	1629.8	2.54
298.15	0.1217	1464.97	1.89
298.15	0.1729	1480.78	1.93
298.15	0.2415	1499.71	1.99
298.15	0.2711	1507.91	2.01
298.15	0.3214	1520.51	2.05
298.15	0.3732	1532.77	2.09
298.15	0.4219	1543.19	2.13
298.15	0.4718	1554.39	2.17
298.15	0.5209	1564.03	2.21
298.15	0.5723	1574.73	2.25
298.15	0.6221	1583.74	2.29
298.15	0.6731	1592.97	2.33
298.15	0.7212	1601.43	2.37
298.15	0.7708	1608.8	2.41
298.15	0.8224	1614.87	2.45
298.15	0.8713	1619.34	2.49
298.15	0.9119	1621.58	2.52
298.15	0.9317	1621.84	2.54
303.15	0.1217	1443.39	1.88
303.15	0.1729	1459.7	1.92
303.15	0.2415	1481.33	1.98
303.15	0.2711	1490.29	2
303.15	0.3214	1504.5	2.04
303.15	0.3732	1519.38	2.08
303.15	0.4219	1532.2	2.12
303.15	0.4718	1544.1	2.16
303.15	0.5209	1555.96	2.2
303.15	0.5723	1566.42	2.24
303.15	0.6221	1576.14	2.28
303.15	0.6731	1585.52	2.33
303.15	0.7212	1592.75	2.36
303.15	0.7708	1598.71	2.4
303.15	0.8224	1604.21	2.45
303.15	0.8713	1607.54	2.48
303.15	0.9119	1609.02	2.52
303.15	0.9317	1609.16	2.53
308.15	0.1217	1427.05	1.87
308.15	0.1729	1443.94	1.91
308.15	0.2415	1465.65	1.97
308.15	0.2711	1474.58	1.99
308.15	0.3214	1488.83	2.03
308.15	0.3732	1503.35	2.07
308.15	0.4219	1516.99	2.11
308.15	0.4718	1529.97	2.16
308.15	0.5209	1541.75	2.2
308.15	0.5723	1554.08	2.24
308.15	0.6221	1565.43	2.28
308.15	0.6731	1576.21	2.32
308.15	0.7212	1585.29	2.36
308.15	0.7708	1593.68	2.4
308.15	0.8224	1599.5	2.44
308.15	0.8713	1603	2.48
308.15	0.9119	1603.86	2.51
308.15	0.9317	1603.16	2.53

System: 3-methylpyridine + 1-ethyl-3-methylimidazolium tetrafluoroborate; phases: Liquid
Fixed: Pressure, kPa = 101
Property: Mass density, kg/m3 (Liquid); method: Vibrating tube method
Temperature, K	Mole fraction of 1-ethyl-3-methylimidazolium tetrafluoroborate	Mass density, kg/m3	uncertainty
293.15	0.1217	1024.56	0.32
293.15	0.1729	1050.57	0.37
293.15	0.2415	1082.96	0.43
293.15	0.2711	1096.07	0.46
293.15	0.3214	1117.16	0.52
293.15	0.3732	1137.38	0.58
293.15	0.4219	1154.95	0.63
293.15	0.4718	1171.59	0.69
293.15	0.5209	1186.68	0.76
293.15	0.5723	1201.17	0.82
293.15	0.6221	1214.02	0.89
293.15	0.6731	1226.02	0.96
293.15	0.7212	1236.43	1.03
293.15	0.7708	1246.34	1.11
293.15	0.8224	1255.77	1.18
293.15	0.8713	1264.1	1.26
293.15	0.9119	1270.62	1.33
293.15	0.9317	1273.7	1.36
298.15	0.1217	1020.46	0.32
298.15	0.1729	1046.54	0.36
298.15	0.2415	1079.02	0.43
298.15	0.2711	1092.1	0.46
298.15	0.3214	1113.25	0.51
298.15	0.3732	1133.44	0.57
298.15	0.4219	1151.03	0.63
298.15	0.4718	1167.7	0.69
298.15	0.5209	1182.83	0.75
298.15	0.5723	1197.38	0.82
298.15	0.6221	1210.25	0.89
298.15	0.6731	1222.36	0.96
298.15	0.7212	1232.83	1.03
298.15	0.7708	1242.76	1.1
298.15	0.8224	1252.24	1.18
298.15	0.8713	1260.53	1.25
298.15	0.9119	1266.99	1.32
298.15	0.9317	1270	1.35
303.15	0.1217	1016.63	0.31
303.15	0.1729	1042.83	0.36
303.15	0.2415	1075.3	0.42
303.15	0.2711	1088.37	0.45
303.15	0.3214	1109.49	0.51
303.15	0.3732	1129.62	0.57
303.15	0.4219	1147.27	0.62
303.15	0.4718	1163.94	0.68
303.15	0.5209	1179.2	0.75
303.15	0.5723	1193.82	0.81
303.15	0.6221	1206.88	0.88
303.15	0.6731	1219.18	0.95
303.15	0.7212	1229.78	1.02
303.15	0.7708	1239.81	1.09
303.15	0.8224	1249.34	1.17
303.15	0.8713	1257.58	1.25
303.15	0.9119	1263.93	1.31
303.15	0.9317	1266.86	1.34
308.15	0.1217	1011.73	0.31
308.15	0.1729	1038.13	0.35
308.15	0.2415	1070.72	0.42
308.15	0.2711	1084.01	0.45
308.15	0.3214	1105.3	0.5
308.15	0.3732	1125.73	0.56
308.15	0.4219	1143.6	0.62
308.15	0.4718	1160.52	0.68
308.15	0.5209	1175.87	0.74
308.15	0.5723	1190.64	0.81
308.15	0.6221	1203.74	0.88
308.15	0.6731	1215.94	0.95
308.15	0.7212	1226.48	1.01
308.15	0.7708	1236.4	1.09
308.15	0.8224	1245.81	1.16
308.15	0.8713	1253.89	1.24
308.15	0.9119	1260.07	1.3
308.15	0.9317	1262.91	1.33

System: 4-methylpyridine + 1-ethyl-3-methylimidazolium tetrafluoroborate; phases: Liquid
Fixed: Temperature, K = 298.15
Fixed: Pressure, kPa = 101
Property: Excess molar enthalpy (molar enthalpy of mixing), kJ/mol (Liquid); method: 2-drop calorimetry
Mole fraction of 1-ethyl-3-methylimidazolium tetrafluoroborate	Excess molar enthalpy (molar enthalpy of mixing), kJ/mol	uncertainty
0.111	-0.13	0.0031
0.1679	-0.1898	0.0043
0.2098	-0.2336	0.0052
0.2387	-0.261	0.0058
0.2909	-0.3059	0.0068
0.3267	-0.3295	0.0073
0.379	-0.3652	0.008
0.4167	-0.3871	0.0085
0.4834	-0.4172	0.0091
0.5267	-0.4364	0.0095
0.5908	-0.4444	0.0097
0.615	-0.4427	0.0097
0.6786	-0.4227	0.0092
0.7234	-0.4075	0.0089
0.7945	-0.3519	0.0077
0.8346	-0.3026	0.0067
0.889	-0.2256	0.0051
0.9267	-0.1628	0.0038

System: 4-methylpyridine + 1-ethyl-3-methylimidazolium tetrafluoroborate; phases: Liquid
Fixed: Pressure, kPa = 101
Property: Speed of sound, m/s (Liquid); method: Linear variable-path acoustic interferometer
Temperature, K	Mole fraction of 1-ethyl-3-methylimidazolium tetrafluoroborate	Speed of sound, m/s	uncertainty
293.15	0.1211	1485.03	1.91
293.15	0.1734	1499.5	1.95
293.15	0.2215	1512.17	1.98
293.15	0.2738	1525	2.02
293.15	0.3226	1536.66	2.06
293.15	0.3709	1547.97	2.1
293.15	0.4215	1558.68	2.14
293.15	0.4721	1568.61	2.18
293.15	0.5207	1576.94	2.21
293.15	0.5728	1585.66	2.26
293.15	0.6218	1593.22	2.29
293.15	0.6731	1600.36	2.33
293.15	0.7224	1607.04	2.37
293.15	0.7743	1612.95	2.41
293.15	0.8203	1617.33	2.45
293.15	0.8717	1622.28	2.49
293.15	0.9111	1625.28	2.52
293.15	0.9312	1626.74	2.54
298.15	0.1211	1464.42	1.89
298.15	0.1734	1479.28	1.93
298.15	0.2215	1492.65	1.97
298.15	0.2738	1506.53	2.01
298.15	0.3226	1519.33	2.05
298.15	0.3709	1531.85	2.09
298.15	0.4215	1543.78	2.13
298.15	0.4721	1554.42	2.17
298.15	0.5207	1564.76	2.21
298.15	0.5728	1573.83	2.25
298.15	0.6218	1582.35	2.29
298.15	0.6731	1589.38	2.33
298.15	0.7224	1595.68	2.37
298.15	0.7743	1601.84	2.41
298.15	0.8203	1606.31	2.44
298.15	0.8717	1610.63	2.49
298.15	0.9111	1613.43	2.52
298.15	0.9312	1614.86	2.53
303.15	0.1211	1448.86	1.88
303.15	0.1734	1464.51	1.92
303.15	0.2215	1478.12	1.96
303.15	0.2738	1492.34	2
303.15	0.3226	1505.06	2.04
303.15	0.3709	1517.31	2.08
303.15	0.4215	1529.7	2.12
303.15	0.4721	1541.77	2.16
303.15	0.5207	1553.04	2.2
303.15	0.5728	1564.16	2.24
303.15	0.6218	1574.75	2.28
303.15	0.6731	1585.06	2.33
303.15	0.7224	1594.59	2.37
303.15	0.7743	1602.38	2.41
303.15	0.8203	1608.47	2.45
303.15	0.8717	1612.23	2.49
303.15	0.9111	1613.31	2.52
303.15	0.9312	1613.28	2.53
308.15	0.1211	1428.24	1.87
308.15	0.1734	1443.66	1.91
308.15	0.2215	1457.63	1.95
308.15	0.2738	1472.9	1.99
308.15	0.3226	1486.33	2.03
308.15	0.3709	1499.89	2.07
308.15	0.4215	1514.69	2.11
308.15	0.4721	1528.91	2.15
308.15	0.5207	1542.58	2.2
308.15	0.5728	1557.11	2.24
308.15	0.6218	1570.29	2.28
308.15	0.6731	1582.65	2.32
308.15	0.7224	1593.74	2.37
308.15	0.7743	1603.37	2.41
308.15	0.8203	1609.83	2.45
308.15	0.8717	1612.75	2.49
308.15	0.9111	1611.49	2.52
308.15	0.9312	1609.7	2.53

System: 4-methylpyridine + 1-ethyl-3-methylimidazolium tetrafluoroborate; phases: Liquid
Fixed: Pressure, kPa = 101
Property: Mass density, kg/m3 (Liquid); method: Vibrating tube method
Temperature, K	Mole fraction of 1-ethyl-3-methylimidazolium tetrafluoroborate	Mass density, kg/m3	uncertainty
293.15	0.1211	1022.19	0.32
293.15	0.1734	1048.92	0.36
293.15	0.2215	1072.35	0.41
293.15	0.2738	1096.49	0.47
293.15	0.3226	1117.74	0.52
293.15	0.3709	1137.61	0.57
293.15	0.4215	1157.13	0.64
293.15	0.4721	1175.31	0.7
293.15	0.5207	1191.56	0.76
293.15	0.5728	1207.52	0.84
293.15	0.6218	1221.15	0.9
293.15	0.6731	1234.15	0.98
293.15	0.7224	1245.2	1.05
293.15	0.7743	1255.49	1.13
293.15	0.8203	1263.45	1.2
293.15	0.8717	1270.96	1.28
293.15	0.9111	1275.81	1.34
293.15	0.9312	1278	1.37
298.15	0.1211	1017.25	0.31
298.15	0.1734	1043.93	0.36
298.15	0.2215	1067.26	0.41
298.15	0.2738	1091.32	0.46
298.15	0.3226	1112.6	0.51
298.15	0.3709	1132.52	0.57
298.15	0.4215	1152.2	0.63
298.15	0.4721	1170.56	0.69
298.15	0.5207	1186.91	0.76
298.15	0.5728	1203.15	0.83
298.15	0.6218	1217.12	0.9
298.15	0.6731	1230.36	0.97
298.15	0.7224	1241.78	1.04
298.15	0.7743	1252.28	1.12
298.15	0.8203	1260.27	1.19
298.15	0.8717	1267.85	1.27
298.15	0.9111	1272.56	1.33
298.15	0.9312	1274.64	1.36
303.15	0.1211	1012.54	0.31
303.15	0.1734	1039.26	0.36
303.15	0.2215	1062.71	0.4
303.15	0.2738	1086.94	0.46
303.15	0.3226	1108.38	0.51
303.15	0.3709	1128.45	0.56
303.15	0.4215	1148.31	0.62
303.15	0.4721	1166.92	0.69
303.15	0.5207	1183.59	0.75
303.15	0.5728	1200.15	0.82
303.15	0.6218	1214.3	0.89
303.15	0.6731	1227.81	0.97
303.15	0.7224	1239.32	1.04
303.15	0.7743	1249.84	1.12
303.15	0.8203	1257.85	1.19
303.15	0.8717	1265.24	1.26
303.15	0.9111	1269.8	1.32
303.15	0.9312	1271.69	1.35
308.15	0.1211	1008.4	0.31
308.15	0.1734	1035.43	0.35
308.15	0.2215	1059.13	0.4
308.15	0.2738	1083.63	0.45
308.15	0.3226	1105.18	0.5
308.15	0.3709	1125.39	0.56
308.15	0.4215	1145.11	0.62
308.15	0.4721	1163.65	0.68
308.15	0.5207	1180.05	0.75
308.15	0.5728	1196.14	0.82
308.15	0.6218	1209.95	0.89
308.15	0.6731	1222.97	0.96
308.15	0.7224	1234.16	1.03
308.15	0.7743	1244.37	1.11
308.15	0.8203	1252.23	1.17
308.15	0.8717	1259.65	1.25
308.15	0.9111	1264.37	1.31
308.15	0.9312	1266.47	1.34
