Measured thermophysical data. Solubility measurement and thermodynamic functions of 3-nitrobenzaldehyde in different solvents at elevated temperatures
Source: J. Chem. Thermodyn., 2017, 10.1016/j.jct.2016.10.040
Compound 1: 3-nitrobenzaldehyde, C7H5NO3, InChI=1S/C7H5NO3/c9-5-6-2-1-3-7(4-6)8(10)11/h1-5H
Compound 2: methanol, CH4O, InChI=1S/CH4O/c1-2/h2H,1H3, purity 99.3%
Compound 3: ethanol, C2H6O, InChI=1S/C2H6O/c1-2-3/h3H,2H2,1H3, purity 99.2%
Compound 4: propan-1-ol, C3H8O, InChI=1S/C3H8O/c1-2-3-4/h4H,2-3H2,1H3, purity 99.4%
Compound 5: propan-2-ol, C3H8O, InChI=1S/C3H8O/c1-3(2)4/h3-4H,1-2H3, purity 99.4%
Compound 6: butan-1-ol, C4H10O, InChI=1S/C4H10O/c1-2-3-4-5/h5H,2-4H2,1H3, purity 99.3%
Compound 7: acetonitrile, C2H3N, InChI=1S/C2H3N/c1-2-3/h1H3, purity 99.5%
Compound 8: acetone, C3H6O, InChI=1S/C3H6O/c1-3(2)4/h1-2H3, purity 99.5%
Compound 9: ethyl acetate, C4H8O2, InChI=1S/C4H8O2/c1-3-6-4(2)5/h3H2,1-2H3, purity 99.4%
Compound 10: toluene, C7H8, InChI=1S/C7H8/c1-7-5-3-2-4-6-7/h2-6H,1H3, purity 99.4%
Compound 11: dimethylformamide, C3H7NO, InChI=1S/C3H7NO/c1-4(2)3-5/h3H,1-2H3, purity 99.4%
Compound 12: acetic acid, C2H4O2, InChI=1S/C2H4O2/c1-2(3)4/h1H3,(H,3,4), purity 99.4%
Compound 13: cyclohexane, C6H12, InChI=1S/C6H12/c1-2-4-6-5-3-1/h1-6H2, purity 99.2%

System: 3-nitrobenzaldehyde; phases: Crystal, Liquid, Air at 1 atmosphere
Property: Normal melting temperature, K (Crystal); method: DTA
Normal melting temperature, K	uncertainty
328.22	1.06

System: 3-nitrobenzaldehyde; phases: Crystal, Liquid, Air at 1 atmosphere
Property: Molar enthalpy of transition or fusion, kJ/mol (Crystal); method: DSC
Molar enthalpy of transition or fusion, kJ/mol	uncertainty
19.9	0.91

System: methanol + 3-nitrobenzaldehyde; phases: Liquid, Crystal
Fixed: Pressure, kPa = 101.2
Property: Mole fraction of 3-nitrobenzaldehyde (Liquid); method: Chromatography
Temperature, K	Mole fraction of 3-nitrobenzaldehyde	uncertainty
273.15	0.0889	0.00463
275.65	0.1028	0.0054
278.15	0.1184	0.0062
280.65	0.1361	0.0071
283.15	0.1559	0.0081
285.65	0.178	0.0093
288.15	0.2028	0.0106
290.65	0.2303	0.012
293.15	0.2609	0.0136
295.65	0.2947	0.0153
298.15	0.3321	0.0173
300.65	0.3733	0.0194
303.15	0.4187	0.0218

System: ethanol + 3-nitrobenzaldehyde; phases: Liquid, Crystal
Fixed: Pressure, kPa = 101.2
Property: Mole fraction of 3-nitrobenzaldehyde (Liquid); method: Chromatography
Temperature, K	Mole fraction of 3-nitrobenzaldehyde	uncertainty
273.15	0.03577	0.00186
275.65	0.04162	0.00217
278.15	0.04802	0.0025
280.65	0.0555	0.00289
283.15	0.06373	0.00332
285.65	0.07357	0.00383
288.15	0.08442	0.0044
290.65	0.09586	0.00499
293.15	0.1093	0.0057
295.65	0.1254	0.0065
298.15	0.1408	0.0073
300.65	0.1608	0.0084
303.15	0.1834	0.0096

System: propan-1-ol + 3-nitrobenzaldehyde; phases: Liquid, Crystal
Fixed: Pressure, kPa = 101.2
Property: Mole fraction of 3-nitrobenzaldehyde (Liquid); method: Chromatography
Temperature, K	Mole fraction of 3-nitrobenzaldehyde	uncertainty
273.15	0.0254	0.00132
275.65	0.02934	0.00153
278.15	0.03376	0.00176
280.65	0.03853	0.00201
283.15	0.04417	0.0023
285.65	0.05049	0.00263
288.15	0.05754	0.003
290.65	0.06481	0.00338
293.15	0.07287	0.0038
295.65	0.08329	0.00434
298.15	0.0942	0.00491
300.65	0.1058	0.0055
303.152	0.1199	0.0062

System: propan-2-ol + 3-nitrobenzaldehyde; phases: Liquid, Crystal
Fixed: Pressure, kPa = 101.2
Property: Mole fraction of 3-nitrobenzaldehyde (Liquid); method: Chromatography
Temperature, K	Mole fraction of 3-nitrobenzaldehyde	uncertainty
273.15	0.006293	0.000328
275.65	0.007349	0.000383
278.15	0.008602	0.000448
280.65	0.009969	0.000519
283.15	0.01147	0.0006
285.65	0.01329	0.00069
288.15	0.01531	0.0008
290.65	0.0176	0.00092
293.15	0.02027	0.00106
295.65	0.02323	0.00121
298.15	0.02674	0.00139
300.65	0.03051	0.00159
303.15	0.03495	0.00182

System: butan-1-ol + 3-nitrobenzaldehyde; phases: Liquid, Crystal
Fixed: Pressure, kPa = 101.2
Property: Mole fraction of 3-nitrobenzaldehyde (Liquid); method: Chromatography
Temperature, K	Mole fraction of 3-nitrobenzaldehyde	uncertainty
273.15	0.0206	0.00107
275.65	0.02353	0.00123
278.15	0.02736	0.00143
280.65	0.03142	0.00164
283.15	0.03568	0.00186
285.65	0.04095	0.00213
288.15	0.04661	0.00243
290.65	0.05294	0.00276
293.15	0.05964	0.00311
295.65	0.06769	0.00353
298.15	0.07643	0.00398
300.65	0.08598	0.00448
303.15	0.0973	0.00507

System: acetonitrile + 3-nitrobenzaldehyde; phases: Liquid, Crystal
Fixed: Pressure, kPa = 101.2
Property: Mole fraction of 3-nitrobenzaldehyde (Liquid); method: Chromatography
Temperature, K	Mole fraction of 3-nitrobenzaldehyde	uncertainty
273.15	0.1645	0.0086
275.65	0.1833	0.0095
278.15	0.2036	0.0106
280.65	0.2256	0.0117
283.15	0.2505	0.013
285.65	0.2769	0.0144
288.15	0.3067	0.016
290.65	0.3382	0.0176
293.15	0.3714	0.0193
295.65	0.4092	0.0213
298.15	0.4494	0.0234
300.65	0.4903	0.0255
303.15	0.5324	0.0244

System: acetone + 3-nitrobenzaldehyde; phases: Liquid, Crystal
Fixed: Pressure, kPa = 101.2
Property: Mole fraction of 3-nitrobenzaldehyde (Liquid); method: Chromatography
Temperature, K	Mole fraction of 3-nitrobenzaldehyde	uncertainty
273.15	0.1637	0.0085
275.65	0.1841	0.0096
278.15	0.2065	0.0108
280.65	0.231	0.012
283.15	0.2576	0.0134
285.65	0.2888	0.015
288.15	0.3217	0.0168
290.65	0.359	0.0187
293.15	0.401	0.0209
295.65	0.4449	0.0232
298.15	0.487	0.0254
300.65	0.5343	0.0243
303.15	0.5854	0.0216

System: 3-nitrobenzaldehyde + ethyl acetate; phases: Liquid, Crystal
Fixed: Pressure, kPa = 101.2
Property: Mole fraction of 3-nitrobenzaldehyde (Liquid); method: Chromatography
Temperature, K	Mole fraction of 3-nitrobenzaldehyde	uncertainty
273.15	0.1462	0.0076
275.65	0.1641	0.0085
278.15	0.1853	0.0096
280.65	0.206	0.0107
283.15	0.229	0.0119
285.65	0.2559	0.0133
288.15	0.2846	0.0148
290.65	0.3159	0.0164
293.15	0.3476	0.0181
295.65	0.3848	0.02
298.15	0.4246	0.0221
300.65	0.4653	0.0242
303.15	0.5106	0.0255

System: 3-nitrobenzaldehyde + toluene; phases: Liquid, Crystal
Fixed: Pressure, kPa = 101.2
Property: Mole fraction of 3-nitrobenzaldehyde (Liquid); method: Chromatography
Temperature, K	Mole fraction of 3-nitrobenzaldehyde	uncertainty
273.15	0.09574	0.00499
275.65	0.1095	0.0057
278.15	0.1258	0.0066
280.65	0.144	0.0075
283.15	0.1665	0.0087
285.65	0.1878	0.0098
288.15	0.2153	0.0112
290.65	0.2447	0.0127
293.15	0.2763	0.0144
295.65	0.31	0.0161
298.15	0.3473	0.0181
300.65	0.3849	0.02
303.15	0.4278	0.0223

System: dimethylformamide + 3-nitrobenzaldehyde; phases: Liquid, Crystal
Fixed: Pressure, kPa = 101.2
Property: Mole fraction of 3-nitrobenzaldehyde (Liquid); method: Chromatography
Temperature, K	Mole fraction of 3-nitrobenzaldehyde	uncertainty
273.15	0.324	0.0169
275.65	0.3472	0.0181
278.15	0.3678	0.0191
280.65	0.3933	0.0205
283.15	0.4188	0.0218
285.65	0.4465	0.0232
288.15	0.4717	0.0246
290.65	0.5028	0.0259
293.15	0.5285	0.0245
295.65	0.5608	0.0229
298.15	0.5942	0.0211
300.65	0.6272	0.0194
303.15	0.6603	0.0177

System: acetic acid + 3-nitrobenzaldehyde; phases: Liquid, Crystal
Fixed: Pressure, kPa = 101.2
Property: Mole fraction of 3-nitrobenzaldehyde (Liquid); method: Chromatography
Temperature, K	Mole fraction of 3-nitrobenzaldehyde	uncertainty
290.65	0.1587	0.0083
293.15	0.1818	0.0095
295.65	0.2061	0.0107
298.15	0.2355	0.0123
300.65	0.2666	0.0139
303.15	0.3041	0.0158

System: 3-nitrobenzaldehyde + cyclohexane; phases: Liquid, Crystal
Fixed: Pressure, kPa = 101.2
Property: Mole fraction of 3-nitrobenzaldehyde (Liquid); method: Chromatography
Temperature, K	Mole fraction of 3-nitrobenzaldehyde	uncertainty
283.15	0.001466	7.6e-05
285.65	0.001749	9.1e-05
288.15	0.002038	0.000106
290.65	0.002396	0.000125
293.15	0.002833	0.000148
295.65	0.003342	0.000174
298.15	0.003944	0.000205
300.65	0.004555	0.000237
303.15	0.005301	0.000276
