Measured thermophysical data. Thermodynamic properties of (LiCl + N,N-dimethylacetamide) and (LiBr + N,N-dimethylacetamide) at temperatures from (323.15 to 423.15) K
Source: J. Chem. Thermodyn., 2005, 10.1016/j.jct.2004.09.015
Compound 1: lithium bromide, BrLi, InChI=1S/BrH.Li/h1H;/q;+1/p-1
Compound 2: lithium chloride, ClLi, InChI=1S/ClH.Li/h1H;/q;+1/p-1
Compound 3: N,N-dimethylethanamide, C4H9NO, InChI=1S/C4H9NO/c1-4(6)5(2)3/h1-3H3, purity 99.9%

System: N,N-dimethylethanamide; phases: Liquid, Gas
Property: Vapor or sublimation pressure, kPa (Liquid); method: Closed cell (Static) method
Temperature, K	Vapor or sublimation pressure, kPa	uncertainty
323.15	1.1581	0.0258
333.15	1.9822	0.028
343.15	3.2708	0.0332
353.15	5.1927	0.041
363.15	7.9998	0.0524
373.15	11.9985	0.0687
383.15	17.5504	0.0911
393.15	25.0282	0.1214
403.15	35.0367	0.1618
413.15	48.0872	0.2144
423.15	64.7297	0.2809

System: N,N-dimethylethanamide + lithium chloride; phases: Liquid, Gas
Property: Vapor or sublimation pressure, kPa (Liquid); method: Closed cell (Static) method
Molality, mol/kg of lithium chloride	Temperature, K	Vapor or sublimation pressure, kPa	uncertainty
0	323.15	1.1581	0.0258
0	333.15	1.9822	0.028
0	343.15	3.2708	0.0332
0	353.15	5.1927	0.041
0	363.15	7.9998	0.0524
0	373.15	11.9985	0.0687
0	383.15	17.5504	0.0911
0	393.15	25.0282	0.1214
0	403.15	35.0367	0.1618
0	413.15	48.0872	0.2144
0	423.15	64.7297	0.2809
0.0738	323.15	1.1453	0.0256
0.0738	333.15	1.9628	0.0279
0.0738	343.15	3.242	0.0331
0.0738	353.15	5.1507	0.0409
0.0738	363.15	7.9405	0.0522
0.0738	373.15	11.915	0.0683
0.0738	383.15	17.4391	0.0907
0.0738	393.15	24.8847	0.1208
0.0738	403.15	34.8405	0.161
0.0738	413.15	47.8235	0.2134
0.0738	423.15	64.3985	0.2796
0.1015	323.15	1.141	0.0255
0.1015	333.15	1.9562	0.0279
0.1015	343.15	3.2327	0.0331
0.1015	353.15	5.1371	0.0408
0.1015	363.15	7.9194	0.0521
0.1015	373.15	11.885	0.0682
0.1015	383.15	17.3987	0.0905
0.1015	393.15	24.8328	0.1206
0.1015	403.15	34.7694	0.1607
0.1015	413.15	47.7302	0.213
0.1015	423.15	64.2757	0.2791
0.1135	323.15	1.1391	0.0254
0.1135	333.15	1.9534	0.0279
0.1135	343.15	3.2287	0.0331
0.1135	353.15	5.1311	0.0408
0.1135	363.15	7.9101	0.0521
0.1135	373.15	11.8728	0.0682
0.1135	383.15	17.3816	0.0905
0.1135	393.15	24.8104	0.1205
0.1135	403.15	34.7408	0.1606
0.1135	413.15	47.6908	0.2128
0.1135	423.15	64.2227	0.2789
0.1274	323.15	1.137	0.0254
0.1274	333.15	1.9501	0.0279
0.1274	343.15	3.2246	0.0331
0.1274	353.15	5.1239	0.0408
0.1274	363.15	7.9002	0.052
0.1274	373.15	11.8588	0.0681
0.1274	383.15	17.3632	0.0904
0.1274	393.15	24.7842	0.1204
0.1274	403.15	34.7052	0.1605
0.1274	413.15	47.6429	0.2126
0.1274	423.15	64.161	0.2786
0.1794	323.15	1.129	0.0252
0.1794	333.15	1.9375	0.0278
0.1794	343.15	3.2067	0.033
0.1794	353.15	5.0978	0.0407
0.1794	363.15	7.8616	0.0519
0.1794	373.15	11.8052	0.0679
0.1794	383.15	17.2889	0.0901
0.1794	393.15	24.6867	0.12
0.1794	403.15	34.5728	0.1599
0.1794	413.15	47.4651	0.2119
0.1794	423.15	63.9309	0.2777
0.244	323.15	1.119	0.025
0.244	333.15	1.9223	0.0278
0.244	343.15	3.1853	0.0329
0.244	353.15	5.0675	0.0405
0.244	363.15	7.8149	0.0517
0.244	373.15	11.7435	0.0676
0.244	383.15	17.2014	0.0897
0.244	393.15	24.5683	0.1195
0.244	403.15	34.4081	0.1593
0.244	413.15	47.2443	0.211
0.244	423.15	63.6459	0.2765
0.4278	323.15	1.0911	0.0245
0.4278	333.15	1.8818	0.0276
0.4278	343.15	3.1255	0.0326
0.4278	353.15	4.9812	0.0402
0.4278	363.15	7.6957	0.0512
0.4278	373.15	11.5651	0.0669
0.4278	383.15	16.9509	0.0887
0.4278	393.15	24.2287	0.1181
0.4278	403.15	33.9456	0.1574
0.4278	413.15	46.6283	0.2085
0.4278	423.15	62.8461	0.2733
0.4694	323.15	1.0851	0.0244
0.4694	333.15	1.873	0.0276
0.4694	343.15	3.1122	0.0326
0.4694	353.15	4.9616	0.0401
0.4694	363.15	7.6697	0.0511
0.4694	373.15	11.5282	0.0668
0.4694	383.15	16.8962	0.0885
0.4694	393.15	24.1525	0.1178
0.4694	403.15	33.8425	0.157
0.4694	413.15	46.4894	0.208
0.4694	423.15	62.6671	0.2726
0.6294	323.15	1.0628	0.0239
0.6294	333.15	1.8398	0.0274
0.6294	343.15	3.0619	0.0324
0.6294	353.15	4.8879	0.0398
0.6294	363.15	7.5675	0.0507
0.6294	373.15	11.3803	0.0662
0.6294	383.15	16.6846	0.0876
0.6294	393.15	23.8651	0.1167
0.6294	403.15	33.4459	0.1554
0.6294	413.15	45.956	0.2058
0.6294	423.15	61.9804	0.2698
0.848	323.15	1.0338	0.0233
0.848	333.15	1.8009	0.0273
0.848	343.15	2.9947	0.0321
0.848	353.15	4.7918	0.0394
0.848	363.15	7.4259	0.0501
0.848	373.15	11.1912	0.0654
0.848	383.15	16.4062	0.0865
0.848	393.15	23.4741	0.1151
0.848	403.15	32.9223	0.1532
0.848	413.15	45.2582	0.203
0.848	423.15	61.0582	0.2661
1.0149	323.15	1.0134	0.0229
1.0149	333.15	1.7706	0.0272
1.0149	343.15	2.9456	0.0319
1.0149	353.15	4.7171	0.0391
1.0149	363.15	7.3198	0.0497
1.0149	373.15	11.0416	0.0648
1.0149	383.15	16.1942	0.0856
1.0149	393.15	23.1751	0.1139
1.0149	403.15	32.5279	0.1517
1.0149	413.15	44.7259	0.2008
1.0149	423.15	60.3737	0.2634
1.2494	323.15	0.9868	0.0224
1.2494	333.15	1.7288	0.027
1.2494	343.15	2.8795	0.0317
1.2494	353.15	4.6162	0.0387
1.2494	363.15	7.1805	0.0491
1.2494	373.15	10.8462	0.064
1.2494	383.15	15.8942	0.0844
1.2494	393.15	22.7686	0.1122
1.2494	403.15	31.9757	0.1494
1.2494	413.15	43.9932	0.1979
1.2494	423.15	59.4238	0.2595
1.4072	323.15	0.9691	0.022
1.4072	333.15	1.7039	0.0269
1.4072	343.15	2.8349	0.0315
1.4072	353.15	4.5528	0.0384
1.4072	363.15	7.0874	0.0487
1.4072	373.15	10.7073	0.0634
1.4072	383.15	15.6992	0.0836
1.4072	393.15	22.4995	0.1111
1.4072	403.15	31.6045	0.1479
1.4072	413.15	43.508	0.1959
1.4072	423.15	58.8109	0.2571
1.6895	323.15	0.9352	0.0214
1.6895	333.15	1.6532	0.0267
1.6895	343.15	2.7559	0.0311
1.6895	353.15	4.4397	0.038
1.6895	363.15	6.9146	0.048
1.6895	373.15	10.4654	0.0624
1.6895	383.15	15.3502	0.0822
1.6895	393.15	22.0305	0.1092
1.6895	403.15	30.9581	0.1453
1.6895	413.15	42.6404	0.1924
1.6895	423.15	57.704	0.2526
1.8889	323.15	0.9145	0.0209
1.8889	333.15	1.6133	0.0265
1.8889	343.15	2.6985	0.0309
1.8889	353.15	4.3596	0.0377
1.8889	363.15	6.7854	0.0475
1.8889	373.15	10.2862	0.0617
1.8889	383.15	15.0978	0.0812
1.8889	393.15	21.6822	0.1078
1.8889	403.15	30.4844	0.1434
1.8889	413.15	41.9909	0.1898
1.8889	423.15	56.9265	0.2495

System: N,N-dimethylethanamide + lithium bromide; phases: Liquid, Gas
Property: Vapor or sublimation pressure, kPa (Liquid); method: Closed cell (Static) method
Molality, mol/kg of lithium bromide	Temperature, K	Vapor or sublimation pressure, kPa	uncertainty
0	323.15	1.1581	0.0258
0	333.15	1.9822	0.028
0	343.15	3.2708	0.0332
0	353.15	5.1927	0.041
0	363.15	7.9998	0.0524
0	373.15	11.9985	0.0687
0	383.15	17.5504	0.0911
0	393.15	25.0282	0.1214
0	403.15	35.0367	0.1618
0	413.15	48.0872	0.2144
0	423.15	64.7297	0.2809
0.0649	323.15	1.1459	0.0256
0.0649	333.15	1.9654	0.0279
0.0649	343.15	3.2426	0.0331
0.0649	353.15	5.1497	0.0409
0.0649	363.15	7.9392	0.0522
0.0649	373.15	11.887	0.0682
0.0649	383.15	17.4236	0.0906
0.0649	393.15	24.8402	0.1206
0.0649	403.15	34.7731	0.1607
0.0649	413.15	47.7616	0.2131
0.0649	423.15	64.313	0.2792
0.1206	323.15	1.136	0.0254
0.1206	333.15	1.95	0.0279
0.1206	343.15	3.2183	0.033
0.1206	353.15	5.1131	0.0407
0.1206	363.15	7.8876	0.052
0.1206	373.15	11.8125	0.0679
0.1206	383.15	17.3171	0.0902
0.1206	393.15	24.6905	0.12
0.1206	403.15	34.5671	0.1599
0.1206	413.15	47.4815	0.212
0.1206	423.15	63.9518	0.2778
0.203	323.15	1.1211	0.0251
0.203	333.15	1.9267	0.0278
0.203	343.15	3.1819	0.0329
0.203	353.15	5.0585	0.0405
0.203	363.15	7.8096	0.0517
0.203	373.15	11.7005	0.0675
0.203	383.15	17.1556	0.0895
0.203	393.15	24.4651	0.1191
0.203	403.15	34.2563	0.1586
0.203	413.15	47.0602	0.2103
0.203	423.15	63.3907	0.2755
0.2855	323.15	1.1059	0.0248
0.2855	333.15	1.9028	0.0277
0.2855	343.15	3.1444	0.0327
0.2855	353.15	5.0021	0.0403
0.2855	363.15	7.7296	0.0513
0.2855	373.15	11.5798	0.067
0.2855	383.15	16.9905	0.0889
0.2855	393.15	24.2345	0.1182
0.2855	403.15	33.9232	0.1573
0.2855	413.15	46.6025	0.2084
0.2855	423.15	62.8251	0.2732
0.4407	323.15	1.0762	0.0242
0.4407	333.15	1.8559	0.0275
0.4407	343.15	3.0726	0.0324
0.4407	353.15	4.8915	0.0398
0.4407	363.15	7.5669	0.0507
0.4407	373.15	11.3502	0.066
0.4407	383.15	16.6539	0.0875
0.4407	393.15	23.7651	0.1163
0.4407	403.15	33.2682	0.1546
0.4407	413.15	45.7349	0.2049
0.4407	423.15	61.6975	0.2687
0.482	323.15	1.0681	0.024
0.482	333.15	1.843	0.0274
0.482	343.15	3.0523	0.0324
0.482	353.15	4.861	0.0397
0.482	363.15	7.5221	0.0505
0.482	373.15	11.2832	0.0658
0.482	383.15	16.5586	0.0871
0.482	393.15	23.6239	0.1157
0.482	403.15	33.0849	0.1539
0.482	413.15	45.4704	0.2039
0.482	423.15	61.3498	0.2673
0.6075	323.15	1.0429	0.0235
0.6075	333.15	1.8029	0.0273
0.6075	343.15	2.9889	0.0321
0.6075	353.15	4.7658	0.0393
0.6075	363.15	7.3818	0.0499
0.6075	373.15	11.0804	0.0649
0.6075	383.15	16.261	0.0859
0.6075	393.15	23.2053	0.114
0.6075	403.15	32.509	0.1516
0.6075	413.15	44.6765	0.2006
0.6075	423.15	60.3126	0.2631
0.7392	323.15	1.0155	0.023
0.7392	333.15	1.7592	0.0271
0.7392	343.15	2.9196	0.0318
0.7392	353.15	4.6617	0.0389
0.7392	363.15	7.2279	0.0493
0.7392	373.15	10.8573	0.064
0.7392	383.15	15.9358	0.0846
0.7392	393.15	22.756	0.1122
0.7392	403.15	31.8814	0.149
0.7392	413.15	43.8772	0.1974
0.7392	423.15	59.2751	0.2589
0.7898	323.15	1.0048	0.0227
0.7898	333.15	1.7419	0.027
0.7898	343.15	2.8922	0.0317
0.7898	353.15	4.6206	0.0387
0.7898	363.15	7.1671	0.0491
0.7898	373.15	10.7716	0.0637
0.7898	383.15	15.8074	0.0841
0.7898	393.15	22.5735	0.1114
0.7898	403.15	31.6257	0.148
0.7898	413.15	43.4822	0.1958
0.7898	423.15	58.7587	0.2569
0.9933	323.15	0.9601	0.0218
0.9933	333.15	1.6701	0.0267
0.9933	343.15	2.7778	0.0312
0.9933	353.15	4.4486	0.038
0.9933	363.15	6.9122	0.048
0.9933	373.15	10.3838	0.0621
0.9933	383.15	15.2715	0.0819
0.9933	393.15	21.7975	0.1083
0.9933	403.15	30.6171	0.1439
0.9933	413.15	42.1221	0.1903
0.9933	423.15	57.0347	0.2499
1.2803	323.15	0.8934	0.0205
1.2803	333.15	1.562	0.0263
1.2803	343.15	2.6049	0.0305
1.2803	353.15	4.1885	0.037
1.2803	363.15	6.5255	0.0464
1.2803	373.15	9.8143	0.0598
1.2803	383.15	14.4624	0.0786
1.2803	393.15	20.6571	0.1037
1.2803	403.15	29.1358	0.1379
1.2803	413.15	40.1239	0.1823
1.2803	423.15	54.3483	0.2391
1.4474	323.15	0.8526	0.0197
1.4474	333.15	1.4954	0.026
1.4474	343.15	2.4979	0.0301
1.4474	353.15	4.0276	0.0363
1.4474	363.15	6.2856	0.0455
1.4474	373.15	9.4779	0.0584
1.4474	383.15	13.9626	0.0766
1.4474	393.15	20.0286	0.1011
1.4474	403.15	28.262	0.1344
1.4474	413.15	38.9933	0.1777
1.4474	423.15	52.9394	0.2334
1.5354	323.15	0.8305	0.0193
1.5354	333.15	1.4591	0.0259
1.5354	343.15	2.4398	0.0299
1.5354	353.15	3.94	0.036
1.5354	363.15	6.155	0.0449
1.5354	373.15	9.3016	0.0577
1.5354	383.15	13.6909	0.0755
1.5354	393.15	19.6365	0.0996
1.5354	403.15	27.7787	0.1325
1.5354	413.15	38.4276	0.1754
1.5354	423.15	52.1439	0.2302
1.753	323.15	0.774	0.0181
1.753	333.15	1.3592	0.0255
1.753	343.15	2.2904	0.0293
1.753	353.15	3.7152	0.035
1.753	363.15	5.819	0.0436
1.753	373.15	8.8244	0.0558
1.753	383.15	12.994	0.0727
1.753	393.15	18.717	0.0958
1.753	403.15	26.5701	0.1276
1.753	413.15	36.7842	0.1688
1.753	423.15	50.0456	0.2218
