Measured thermophysical data. Thermodynamic properties, detonation characterization and free radical of N-2',4'-dinitrophenyl-3,3-dinitroazetidine
Source: J. Chem. Thermodyn., 2014, 10.1016/j.jct.2013.10.014
Compound 1: 1-(2,4-dinitrophenyl)-3,3-dinitroazetidine, C9H7N5O8, InChI=1S/C9H7N5O8/c15-11(16)6-1-2-7(8(3-6)12(17)18)10-4-9(5-10,13(19)20)14(21)22/h1-3H,4-5H2

System: 1-(2,4-dinitrophenyl)-3,3-dinitroazetidine; phases: Crystal, Liquid, Air at 1 atmosphere
Property: Molar enthalpy of transition or fusion, kJ/mol (Crystal); method: DSC
Molar enthalpy of transition or fusion, kJ/mol	uncertainty
34.637794268	1.816448524

System: 1-(2,4-dinitrophenyl)-3,3-dinitroazetidine; phases: Crystal, Liquid, Air at 1 atmosphere
Property: Normal melting temperature, K (Crystal); method: DTA
Normal melting temperature, K	uncertainty
486.15	1.62

System: 1-(2,4-dinitrophenyl)-3,3-dinitroazetidine; phases: Crystal
Fixed: Pressure, kPa = 101.325
Property: Molar heat capacity at constant pressure, J/K/mol (Crystal); method: Small sample (50 mg) DSC
Temperature, K	Molar heat capacity at constant pressure, J/K/mol	uncertainty
283.15	389.38	16.52
288.15	400.53	16.99
293.15	411.54	17.46
298.15	422.24	17.91
303.15	432.47	18.35
308.15	442.07	18.76
313.15	450.89	19.13
318.15	458.76	19.46
323.15	465.54	19.75
328.15	471.06	19.99
333.15	475.16	20.16
338.15	477.69	20.27
343.15	478.48	20.3
348.15	477.38	20.25
353.15	474.24	20.12
