Measured thermophysical data. Liquid liquid equilibrium data for mono ethylene glycol extraction from water with the new ionic liquid tetraoctyl ammonium 2-methyl-1-naphtoate as solvent
Source: J. Chem. Thermodyn., 2012, 10.1016/j.jct.2012.03.009
Compound 1: water, H2O, InChI=1S/H2O/h1H2
Compound 2: 1,2-ethanediol, C2H6O2, InChI=1S/C2H6O2/c3-1-2-4/h3-4H,1-2H2
Compound 3: tetraoctylammonium 2-methyl-1-naphthoate, C44H77NO2, InChI=1S/C32H68N.C12H10O2/c1-5-9-13-17-21-25-29-33(30-26-22-18-14-10-6-2,31-27-23-19-15-11-7-3)32-28-24-20-16-12-8-4;1-8-6-7-9-4-2-3-5-10(9)11(8)12(13)14/h5-32H2,1-4H3;2-7H,1H3,(H,13,14)/q+1;/p-1

System: 1,2-ethanediol + water + tetraoctylammonium 2-methyl-1-naphthoate; phases: Liquid mixture 2, Liquid mixture 1
Fixed: Pressure, kPa = 101
Property: Mass fraction of water (Liquid mixture 2); method: Chromatography
Property: Mass fraction of water (Liquid mixture 1); method: Chromatography
Property: Mass fraction of 1,2-ethanediol (Liquid mixture 1); method: Chromatography
Temperature, K	Mass fraction of 1,2-ethanediol	Mass fraction of water	uncertainty	Mass fraction of water	uncertainty	Mass fraction of 1,2-ethanediol	uncertainty
313.2	0	1		0.103	0.004	0	
353.2	0.041	0.959	0.012	0.085	0.004	0.016	
353.2	0.159	0.841	0.012	0.082	0.004	0.049	
313.2	0.039	0.96	0.012	0.104	0.005	0.014	
353.2	0.27	0.729	0.012	0.072	0.005	0.062	
353.2	0.56	0.438	0.012	0.049	0.005	0.11	
353.2	0.76	0.236	0.012	0.03	0.004	0.175	
353.2	0.85	0.133	0.012	0.02	0.004	0.22	
353.2	0.967	0		0		0.31	
313.2	0.17	0.829	0.012	0.082	0.006	0.047	
313.2	0.28	0.718	0.012	0.072	0.005	0.059	
333.2	0.039	0.961	0.012	0.088	0.005	0.014	
313.2	0.52	0.477	0.012	0.053	0.005	0.095	
313.2	0.75	0.245	0.012	0.033	0.004	0.165	
313.2	0.85	0.137	0.012	0.021	0.004	0.21	
313.2	0.966	0		0		0.281	
333.2	0	1		0.098	0.004	0	
333.2	0.07	0.929	0.012	0.085	0.005	0.024	
333.2	0.16	0.839	0.012	0.081	0.004	0.049	
333.2	0.27	0.729	0.012	0.072	0.006	0.061	
333.2	0.565	0.433	0.012	0.047	0.004	0.11	
333.2	0.86	0.128	0.012	0.019	0.004	0.23	
333.2	0.97	0		0		0.31	
353.2	0	1		0.097	0.004	0	
