Measured thermophysical data. Enthalpy of vaporization and vapor pressure of whiskey lactone and menthalactone by correlation gas chromatography
Source: J. Chem. Thermodyn., 2017, 10.1016/j.jct.2017.02.010
Compound 1: cis-whiskey lactone, C9H16O2, InChI=1S/C9H16O2/c1-3-4-5-8-7(2)6-9(10)11-8/h7-8H,3-6H2,1-2H3/t7-,8-/m1/s1, purity 98%
Compound 2: trans-whiskey lactone, C9H16O2, InChI=1S/C9H16O2/c1-3-4-5-8-7(2)6-9(10)11-8/h7-8H,3-6H2,1-2H3/t7-,8+/m0/s1, purity 98%
Compound 3: (-)-mintlactone, C10H14O2, InChI=1S/C10H14O2/c1-6-3-4-8-7(2)10(11)12-9(8)5-6/h6,9H,3-5H2,1-2H3/t6-,9-/m1/s1, purity 99%
Compound 4: (.+-.)-isomintlactone, C10H14O2, InChI=1S/C10H14O2/c1-6-3-4-8-7(2)10(11)12-9(8)5-6/h6,9H,3-5H2,1-2H3/t6-,9+/m1/s1, purity 99%

System: cis-whiskey lactone; phases: Liquid, Gas
Property: Molar enthalpy of vaporization or sublimation, kJ/mol (Liquid); method: Correlation gas chromatography
Temperature, K	Molar enthalpy of vaporization or sublimation, kJ/mol	uncertainty
298	68.4	3.7

System: cis-whiskey lactone; phases: Liquid, Gas
Property: Vapor or sublimation pressure, kPa (Liquid); method: Gas chromatography
Temperature, K	Vapor or sublimation pressure, kPa	uncertainty
298.15	0.0015	0.0002
305	0.0028	0.0004
310	0.0043	0.0009
315	0.0064	0.0013
320	0.0095	0.0019
325	0.014	0.002
330	0.02	0.004
335	0.029	0.006
340	0.041	0.009
345	0.057	0.011
350	0.079	0.013

System: trans-whiskey lactone; phases: Liquid, Gas
Property: Molar enthalpy of vaporization or sublimation, kJ/mol (Liquid); method: Correlation gas chromatography
Temperature, K	Molar enthalpy of vaporization or sublimation, kJ/mol	uncertainty
298	67.5	3.7

System: trans-whiskey lactone; phases: Liquid, Gas
Property: Vapor or sublimation pressure, kPa (Liquid); method: Gas chromatography
Temperature, K	Vapor or sublimation pressure, kPa	uncertainty
298.15	0.002	0.0003
305	0.0036	0.0007
310	0.0056	0.0011
315	0.0084	0.0017
320	0.012	0.003
325	0.018	0.004
330	0.026	0.006
335	0.037	0.007
340	0.052	0.011
345	0.072	0.013
350	0.099	0.016

System: (-)-mintlactone; phases: Liquid, Gas
Property: Molar enthalpy of vaporization or sublimation, kJ/mol (Liquid); method: Correlation gas chromatography
Temperature, K	Molar enthalpy of vaporization or sublimation, kJ/mol	uncertainty
298	73.2	3.9

System: (-)-mintlactone; phases: Metastable liquid, Gas
Property: Vapor or sublimation pressure, kPa (Metastable liquid); method: Gas chromatography
Temperature, K	Vapor or sublimation pressure, kPa	uncertainty
298.15	0.00033	5e-05
305	0.00063	0.00011
310	0.001	0.0002
315	0.0015	0.0004
320	0.0024	0.0006
325	0.0035	0.0008
330	0.0053	0.0013
335	0.0077	0.0017
340	0.011	0.002
345	0.016	0.002
350	0.023	0.004

System: (.+-.)-isomintlactone; phases: Liquid, Gas
Property: Molar enthalpy of vaporization or sublimation, kJ/mol (Liquid); method: Correlation gas chromatography
Temperature, K	Molar enthalpy of vaporization or sublimation, kJ/mol	uncertainty
298	74.2	3.9

System: (.+-.)-isomintlactone; phases: Metastable liquid, Gas
Property: Vapor or sublimation pressure, kPa (Metastable liquid); method: Gas chromatography
Temperature, K	Vapor or sublimation pressure, kPa	uncertainty
298.15	0.00026	4e-05
305	0.00051	9e-05
310	0.00081	0.00017
315	0.0013	0.0002
320	0.0019	0.0004
325	0.0029	0.0006
330	0.0044	0.001
335	0.0064	0.0015
340	0.0093	0.0021
345	0.013	0.002
350	0.019	0.004
