Measured thermophysical data. Azeotropic behaviour of (benzene + cyclohexane + chlorobenzene) ternary mixture using chlorobenzene as entrainer at 101.3 kPa
Source: J. Chem. Thermodyn., 2006, 10.1016/j.jct.2005.12.003
Compound 1: benzene, C6H6, InChI=1S/C6H6/c1-2-4-6-5-3-1/h1-6H
Compound 2: cyclohexane, C6H12, InChI=1S/C6H12/c1-2-4-6-5-3-1/h1-6H2
Compound 3: chlorobenzene, C6H5Cl, InChI=1S/C6H5Cl/c7-6-4-2-1-3-5-6/h1-5H

System: benzene; phases: Liquid
Property: Refractive index (Na D-line) (Liquid); method: Standard Abbe refractometry
Temperature, K	Pressure, kPa	Refractive index (Na D-line)	uncertainty
298.15	101.325	1.49692	0.00072

System: benzene; phases: Liquid
Property: Mass density, kg/m3 (Liquid); method: VIBTUB:UFactor:2
Temperature, K	Pressure, kPa	Mass density, kg/m3	uncertainty
298.15	101.325	873.6	0.2

System: benzene; phases: Liquid, Gas
Property: Vapor or sublimation pressure, kPa (Liquid); method: OTHER::sMethod:refractive and density measurements
Temperature, K	Vapor or sublimation pressure, kPa	uncertainty
353.25	101.3	

System: cyclohexane; phases: Liquid
Property: Refractive index (Na D-line) (Liquid); method: Standard Abbe refractometry
Temperature, K	Pressure, kPa	Refractive index (Na D-line)	uncertainty
298.15	101.325	1.4232	0.00072

System: cyclohexane; phases: Liquid
Property: Mass density, kg/m3 (Liquid); method: VIBTUB:UFactor:2
Temperature, K	Pressure, kPa	Mass density, kg/m3	uncertainty
298.15	101.325	773.7	0.3

System: cyclohexane; phases: Liquid, Gas
Property: Vapor or sublimation pressure, kPa (Liquid); method: OTHER::sMethod:refractive and density measurements
Temperature, K	Vapor or sublimation pressure, kPa	uncertainty
353.89	101.3	

System: chlorobenzene; phases: Liquid
Property: Refractive index (Na D-line) (Liquid); method: Standard Abbe refractometry
Temperature, K	Pressure, kPa	Refractive index (Na D-line)	uncertainty
298.15	101.325	1.52176	0.00075

System: chlorobenzene; phases: Liquid
Property: Mass density, kg/m3 (Liquid); method: VIBTUB:UFactor:2
Temperature, K	Pressure, kPa	Mass density, kg/m3	uncertainty
298.15	101.325	1100.8	0.5

System: chlorobenzene; phases: Liquid, Gas
Property: Vapor or sublimation pressure, kPa (Liquid); method: OTHER::sMethod:refractive and density measurements
Temperature, K	Vapor or sublimation pressure, kPa	uncertainty
404.82	101.3	

System: benzene + cyclohexane; phases: Liquid, Gas
Property: Azeotropic temperature, K (Liquid); method: By T(X) extreme
Pressure, kPa	Azeotropic temperature, K	uncertainty
101.3	350.66	0.29

System: benzene + cyclohexane; phases: Liquid, Gas
Property: Azeotropic composition: mole fraction of cyclohexane (Liquid); method: By T or P extreme
Pressure, kPa	Azeotropic composition: mole fraction of cyclohexane	uncertainty
101.3	0.549	0.015

System: benzene + cyclohexane; phases: Liquid, Gas
Property: Boiling temperature at pressure P, K (Liquid); method: refractive and density measurements
Mole fraction of cyclohexane	Pressure, kPa	Boiling temperature at pressure P, K	uncertainty
0.032	101.3	354.88	0.2

System: benzene + cyclohexane; phases: Liquid, Gas
Property: Boiling temperature at pressure P, K (Liquid); method: refractive and density measurements
Mole fraction of cyclohexane	Pressure, kPa	Boiling temperature at pressure P, K	uncertainty
0.045	101.3	354.88	0.2

System: benzene + chlorobenzene + cyclohexane; phases: Liquid, Gas
Fixed: Pressure, kPa = 101.3
Property: Mole fraction of cyclohexane (Liquid); method: refractive and density measurements
Property: Mole fraction of cyclohexane (Gas); method: refractive and density measurements
Property: Mole fraction of benzene (Gas); method: refractive and density measurements
Temperature, K	Mole fraction of benzene	Mole fraction of cyclohexane	uncertainty	Mole fraction of cyclohexane	uncertainty	Mole fraction of benzene	uncertainty
353.25	1	0	0.001	0	0.001	1	
353.89	0	1	0.001	1	0.001	0	
404.82	0	0	0.001	0	0.001	0	
394.6	0.012	0.111	0.014	0.387	0.014	0.033	
392.41	0.061	0.095	0.014	0.317	0.014	0.16	
388.7	0.108	0.1	0.014	0.302	0.014	0.257	
386.32	0.167	0.083	0.014	0.239	0.014	0.373	
381.19	0.239	0.094	0.014	0.236	0.014	0.469	
375.21	0.393	0.066	0.014	0.144	0.014	0.658	
367.47	0.619	0.038	0.014	0.069	0.014	0.833	
361.84	0.762	0.056	0.014	0.087	0.014	0.87	
358.3	0.839	0.087	0.014	0.12	0.014	0.864	
357.05	0.746	0.193	0.014	0.238	0.014	0.75	
356.77	0.684	0.254	0.014	0.298	0.014	0.689	
357.68	0.586	0.312	0.014	0.364	0.014	0.614	
358.23	0.465	0.41	0.014	0.464	0.014	0.508	
358.86	0.361	0.497	0.014	0.554	0.014	0.412	
359.64	0.269	0.574	0.014	0.639	0.014	0.322	
360.28	0.204	0.628	0.014	0.702	0.014	0.254	
360.57	0.141	0.699	0.014	0.774	0.014	0.181	
361.67	0.062	0.764	0.014	0.863	0.014	0.085	
362.62	0.067	0.72	0.014	0.844	0.014	0.092	
363.66	0.06	0.692	0.014	0.842	0.014	0.083	
365.47	0.05	0.641	0.014	0.833	0.014	0.071	
366.76	0.048	0.6	0.014	0.818	0.014	0.069	
368.72	0.029	0.561	0.014	0.82	0.014	0.044	
369.34	0.025	0.547	0.014	0.817	0.014	0.038	
377.03	0.007	0.372	0.014	0.736	0.014	0.013	
380.62	0.051	0.261	0.014	0.596	0.014	0.099	
379.69	0.126	0.209	0.014	0.476	0.014	0.239	
376.88	0.231	0.166	0.014	0.359	0.014	0.406	
374.7	0.309	0.139	0.014	0.288	0.014	0.512	
372.51	0.388	0.116	0.014	0.229	0.014	0.604	
370.78	0.439	0.108	0.014	0.205	0.014	0.652	
368.86	0.513	0.088	0.014	0.161	0.014	0.721	
366.11	0.576	0.097	0.014	0.163	0.014	0.748	
364.11	0.662	0.077	0.014	0.124	0.014	0.81	
361.66	0.717	0.093	0.014	0.139	0.014	0.817	
361.24	0.67	0.138	0.014	0.198	0.014	0.758	
361.05	0.622	0.181	0.014	0.251	0.014	0.704	
360.97	0.558	0.237	0.014	0.317	0.014	0.635	
361.17	0.497	0.286	0.014	0.375	0.014	0.574	
361.91	0.434	0.323	0.014	0.424	0.014	0.516	
361.75	0.391	0.369	0.014	0.473	0.014	0.468	
362.16	0.304	0.446	0.014	0.561	0.014	0.375	
362.03	0.239	0.524	0.014	0.637	0.014	0.3	
361.85	0.182	0.598	0.014	0.707	0.014	0.234	
362.01	0.131	0.658	0.014	0.768	0.014	0.172	
363.53	0.125	0.61	0.014	0.755	0.014	0.168	
365.11	0.103	0.584	0.014	0.763	0.014	0.143	
366.13	0.101	0.552	0.014	0.751	0.014	0.143	
368.57	0.065	0.52	0.014	0.767	0.014	0.098	
371.05	0.036	0.485	0.014	0.777	0.014	0.056	
374.79	0.067	0.357	0.014	0.669	0.014	0.115	
375.35	0.109	0.304	0.014	0.591	0.014	0.187	
374.44	0.171	0.264	0.014	0.51	0.014	0.284	
372.77	0.249	0.226	0.014	0.426	0.014	0.394	
369.8	0.309	0.235	0.014	0.406	0.014	0.452	
367.17	0.405	0.21	0.014	0.341	0.014	0.549	
364.22	0.561	0.151	0.014	0.233	0.014	0.693	
363.9	0.488	0.219	0.014	0.322	0.014	0.603	
364.04	0.389	0.305	0.014	0.431	0.014	0.489	
364.47	0.293	0.387	0.014	0.533	0.014	0.38	
367.65	0.233	0.36	0.014	0.551	0.014	0.328	
366.89	0.185	0.431	0.014	0.626	0.014	0.259	
368.3	0.161	0.419	0.014	0.637	0.014	0.232	
366.92	0.185	0.43	0.014	0.626	0.014	0.259	
365.82	0.2	0.446	0.014	0.625	0.014	0.273	
369.42	0.114	0.439	0.014	0.684	0.014	0.171	
365.37	0.142	0.528	0.014	0.707	0.014	0.195	
363.36	0.296	0.417	0.014	0.549	0.014	0.375	
363.04	0.444	0.281	0.014	0.39	0.014	0.541	
354.88	0.968	0.032	0.014	0.045	0.014	0.955	
354.79	0.946	0.049	0.014	0.067	0.014	0.932	
354.77	0.919	0.068	0.014	0.092	0.014	0.906	
355.03	0.922	0.059	0.014	0.081	0.014	0.915	
355.1	0.915	0.062	0.014	0.085	0.014	0.911	
355.16	0.895	0.074	0.014	0.1	0.014	0.893	
355.08	0.832	0.121	0.014	0.159	0.014	0.832	
354.74	0.783	0.169	0.014	0.211	0.014	0.779	
355.22	0.845	0.108	0.014	0.144	0.014	0.847	
355.26	0.871	0.089	0.014	0.119	0.014	0.872	
355.31	0.863	0.092	0.014	0.124	0.014	0.867	
355.4	0.831	0.113	0.014	0.15	0.014	0.839	
355.58	0.927	0.042	0.014	0.059	0.014	0.934	
355.16	0.806	0.139	0.014	0.18	0.014	0.809	
354.84	0.72	0.217	0.014	0.263	0.014	0.725	
357.36	0.035	0.889	0.014	0.929	0.014	0.049	
356.86	0.02	0.933	0.014	0.958	0.014	0.027	
355.2	0.532	0.374	0.014	0.419	0.014	0.561	
355.15	0.401	0.509	0.014	0.539	0.014	0.441	
355.06	0.356	0.563	0.014	0.584	0.014	0.398	
356.34	0.118	0.81	0.014	0.828	0.014	0.152	
356.52	0.103	0.823	0.014	0.845	0.014	0.135	
357.76	0.06	0.835	0.014	0.888	0.014	0.081	
354.7	0.444	0.48	0.014	0.507	0.014	0.477	
351.44	0.528	0.467	0.014	0.466	0.014	0.533	
351.54	0.561	0.43	0.014	0.437	0.014	0.561	
