Measured thermophysical data. Vapor-liquid critical temperatures and pressures of dicarboxylic acid diethyl esters
Source: J. Chem. Thermodyn., 2018, 10.1016/j.jct.2017.09.004
Compound 1: diethyl glutarate, C9H16O4, InChI=1S/C9H16O4/c1-3-12-8(10)6-5-7-9(11)13-4-2/h3-7H2,1-2H3, purity 99.6%
Compound 2: diethyl 1,8-octanedioate, C12H22O4, InChI=1S/C12H22O4/c1-3-15-11(13)9-7-5-6-8-10-12(14)16-4-2/h3-10H2,1-2H3, purity 99.5%
Compound 3: diethyl decanedioate, C14H26O4, InChI=1S/C14H26O4/c1-3-17-13(15)11-9-7-5-6-8-10-12-14(16)18-4-2/h3-12H2,1-2H3, purity 99.7%

System: diethyl glutarate; phases: Liquid, Gas
Property: Critical temperature, K (Liquid); method: Resistive pulse heating
Critical temperature, K	uncertainty
682	7

System: diethyl glutarate; phases: Liquid, Gas
Property: Critical pressure, kPa (Liquid); method: Resistive pulse heating
Critical pressure, kPa	uncertainty
2130	60

System: diethyl 1,8-octanedioate; phases: Liquid, Gas
Property: Critical temperature, K (Liquid); method: Resistive pulse heating
Critical temperature, K	uncertainty
723	7

System: diethyl 1,8-octanedioate; phases: Liquid, Gas
Property: Critical pressure, kPa (Liquid); method: Resistive pulse heating
Critical pressure, kPa	uncertainty
1570	50

System: diethyl decanedioate; phases: Liquid, Gas
Property: Critical temperature, K (Liquid); method: Resistive pulse heating
Critical temperature, K	uncertainty
740	7

System: diethyl decanedioate; phases: Liquid, Gas
Property: Critical pressure, kPa (Liquid); method: Resistive pulse heating
Critical pressure, kPa	uncertainty
1370	40
