Measured thermophysical data. Experimental measurement of cloud-point and bubble-point for the {poly(isobornyl methacrylate) + supercritical solvents + co-solvent} system at high pressure
Source: J. Chem. Thermodyn., 2014, 10.1016/j.jct.2014.03.031
Compound 1: isobornyl methacrylate, C14H22O2, InChI=1S/C14H22O2/c1-9(2)12(15)16-11-8-10-6-7-14(11,5)13(10,3)4/h10-11H,1,6-8H2,2-5H3, purity 96%
Compound 2: carbon dioxide, CO2, InChI=1S/CO2/c2-1-3, purity 99.9%

System: carbon dioxide + isobornyl methacrylate; phases: Liquid, Gas
Property: Vapor or sublimation pressure, kPa (Liquid); method: Closed cell (Static) method
Temperature, K	Mole fraction of isobornyl methacrylate	Vapor or sublimation pressure, kPa	uncertainty
313.2	0.047	9000	120
313.2	0.068	9170	110
313.2	0.095	9000	120
313.2	0.121	8870	110
313.2	0.15	8650	110
313.2	0.223	8110	100
313.2	0.299	7430	90
313.2	0.371	6720	80
313.2	0.424	6240	80
313.2	0.504	5450	80
313.2	0.609	4480	80
313.2	0.746	3290	70
333.2	0.047	13520	120
333.2	0.068	13480	120
333.2	0.095	13450	120
333.2	0.121	13210	120
333.2	0.15	13000	120
333.2	0.223	11310	110
333.2	0.299	10100	100
333.2	0.371	8650	90
333.2	0.424	7970	90
333.2	0.504	6660	80
333.2	0.609	5450	80
333.2	0.746	3970	80
353.2	0.068	17590	120
353.2	0.095	17410	110
353.2	0.121	17290	120
353.2	0.15	16660	120
353.2	0.223	14480	110
353.2	0.299	12790	110
353.2	0.371	10790	100
353.2	0.424	9930	100
353.2	0.504	8130	90
353.2	0.609	6520	80
353.2	0.746	4520	80
373.2	0.095	20970	110
373.2	0.121	20720	110
373.2	0.15	20080	120
373.2	0.223	17620	120
373.2	0.299	15070	110
373.2	0.371	12830	100
373.2	0.424	11620	100
373.2	0.504	9550	90
373.2	0.609	7480	90
373.2	0.746	5070	80
393.2	0.121	23250	110
393.2	0.15	22740	120
393.2	0.223	20310	120
393.2	0.299	17210	120
393.2	0.371	14560	110
393.2	0.424	13030	110
393.2	0.504	10480	100
393.2	0.609	8240	90
393.2	0.746	5410	80

System: carbon dioxide + isobornyl methacrylate; phases: Gas, Liquid
Property: Vapor or sublimation pressure, kPa (Gas); method: Closed cell (Static) method
Temperature, K	Mole fraction of isobornyl methacrylate	Vapor or sublimation pressure, kPa	uncertainty
353.2	0.047	17420	110
373.2	0.047	20690	110
393.2	0.047	23010	110
393.2	0.068	23460	120

System: carbon dioxide + isobornyl methacrylate; phases: Liquid, Gas
Property: Critical temperature, K (Liquid); method: Visual observation in an unstirred cell
Mole fraction of isobornyl methacrylate	Critical temperature, K	uncertainty
0.068	373.2	1.3
0.095	393.2	1.3

System: carbon dioxide + isobornyl methacrylate; phases: Liquid, Gas
Property: Critical pressure, kPa (Liquid); method: Direct measurement
Mole fraction of isobornyl methacrylate	Critical pressure, kPa	uncertainty
0.068	20970	170
0.095	23520	170
