Measured thermophysical data. Isobaric (vapour + liquid) equilibria for the (1-propanol + 1-butanol) binary mixture at (53.3 and 91.3) kPa
Source: J. Chem. Thermodyn., 2010, 10.1016/j.jct.2010.02.001
Compound 1: propan-1-ol, C3H8O, InChI=1S/C3H8O/c1-2-3-4/h4H,2-3H2,1H3, purity 99.5%
Compound 2: butan-1-ol, C4H10O, InChI=1S/C4H10O/c1-2-3-4-5/h5H,2-4H2,1H3, purity 99.5%

System: propan-1-ol; phases: Liquid, Gas
Property: Vapor or sublimation pressure, kPa (Liquid); method: Ebulliometric method (Recirculating still)
Temperature, K	Vapor or sublimation pressure, kPa	uncertainty
337.95	25.6	0.2
341.35	30.1	0.3
346.15	37.4	0.3
350.8	46	0.3
353.25	51.1	0.3
357.35	60.7	0.3
362.45	74.7	0.4
366.25	86.8	0.4
370.4	101.8	0.4
373.65	114.9	0.5

System: butan-1-ol; phases: Liquid, Gas
Property: Vapor or sublimation pressure, kPa (Liquid); method: Ebulliometric method (Recirculating still)
Temperature, K	Vapor or sublimation pressure, kPa	uncertainty
356.35	25.3	0.2
359.45	29.3	0.2
362.95	33.5	0.3
368.6	42.8	0.3
373.45	52.5	0.3
377.3	61.2	0.3
381.9	72.8	0.3
386.05	84.9	0.4
391.95	105.3	0.4
395.8	120.1	0.4

System: propan-1-ol + butan-1-ol; phases: Liquid
Fixed: Temperature, K = 293.15
Fixed: Pressure, kPa = 101
Property: Refractive index (Na D-line) (Liquid); method: Standard Abbe refractometry
Mole fraction of propan-1-ol	Refractive index (Na D-line)	uncertainty
0	1.3992	0.0004
0.0852	1.3979	0.0004
0.1369	1.3971	0.0004
0.1987	1.3962	0.0004
0.2741	1.395	0.0004
0.3521	1.3939	0.0004
0.4218	1.3928	0.0004
0.5	1.3916	0.0004
0.5742	1.3905	0.0004
0.6588	1.3892	0.0004
0.7123	1.3884	0.0004
0.7986	1.3871	0.0004
0.862	1.3862	0.0004
0.936	1.385	0.0004
1	1.3841	0.0004

System: propan-1-ol + butan-1-ol; phases: Liquid, Gas
Property: Boiling temperature at pressure P, K (Liquid); method: Ebulliometric method (Recirculating still)
Mole fraction of propan-1-ol	Pressure, kPa	Boiling temperature at pressure P, K	uncertainty
0	53.3	373.85	0.17
0	91.3	388.05	0.2
0.0312	91.3	387.25	0.21
0.0365	53.3	371.9	0.18
0.0685	91.3	386.15	0.21
0.0876	53.3	370.55	0.18
0.1012	53.3	370.1	0.18
0.1501	53.3	368.85	0.19
0.1679	91.3	383.9	0.21
0.1986	53.3	367.1	0.19
0.228	91.3	382.1	0.22
0.2721	53.3	364.85	0.19
0.305	91.3	380.9	0.23
0.3382	53.3	363.7	0.19
0.345	91.3	379.75	0.23
0.3824	53.3	362.5	0.19
0.418	91.3	378.3	0.22
0.4526	53.3	361.25	0.19
0.48	91.3	376.95	0.22
0.544	91.3	375.6	0.22
0.5474	53.3	359.5	0.18
0.624	91.3	373.95	0.22
0.635	53.3	358.15	0.18
0.6788	53.3	357.45	0.18
0.68	91.3	372.8	0.21
0.7303	91.3	371.55	0.21
0.781	53.3	356.2	0.18
0.8102	91.3	370.85	0.21
0.8394	53.3	355.15	0.18
0.8755	91.3	369.5	0.21
0.9213	53.3	354.45	0.17
0.9609	91.3	368.35	0.19
1	53.3	354.25	0.16
1	91.3	367.7	0.19

System: propan-1-ol + butan-1-ol; phases: Gas, Liquid
Property: Mole fraction of propan-1-ol (Gas); method: Index of refraction calibration data
Mole fraction of propan-1-ol	Pressure, kPa	Mole fraction of propan-1-ol	uncertainty
0	53.3	0	
0	91.3	0	
0.0312	91.3	0.0998	0.0027
0.0365	53.3	0.0949	0.0026
0.0685	91.3	0.1413	0.0023
0.0876	53.3	0.1678	0.0025
0.1012	53.3	0.2213	0.0029
0.1501	53.3	0.3117	0.0027
0.1679	91.3	0.314	0.0025
0.1986	53.3	0.411	0.0025
0.228	91.3	0.425	0.0023
0.2721	53.3	0.5073	0.0025
0.305	91.3	0.491	0.0024
0.3382	53.3	0.5662	0.0025
0.345	91.3	0.551	0.0025
0.3824	53.3	0.6324	0.0024
0.418	91.3	0.623	0.0024
0.4526	53.3	0.691	0.0021
0.48	91.3	0.684	0.0023
0.544	91.3	0.745	0.0021
0.5474	53.3	0.76	0.002
0.624	91.3	0.81	0.0019
0.635	53.3	0.823	0.0018
0.6788	53.3	0.855	0.0016
0.68	91.3	0.8531	0.0017
0.7303	91.3	0.8779	0.0015
0.781	53.3	0.9	0.0015
0.8102	91.3	0.917	0.0015
0.8394	53.3	0.9489	0.0014
0.8755	91.3	0.9601	0.0013
0.9213	53.3	0.964	0.0013
0.9609	91.3	0.9785	0.0013
1	53.3	1	
1	91.3	1	
