Measured thermophysical data. Experimental and computational study on the thermochemistry of ethylpiperidines
Source: J. Chem. Thermodyn., 2006, 10.1016/j.jct.2005.11.004
Compound 1: carbon dioxide, CO2, InChI=1S/CO2/c2-1-3
Compound 2: nitrogen, N2, InChI=1S/N2/c1-2
Compound 3: water, H2O, InChI=1S/H2O/h1H2
Compound 4: oxygen, O2, InChI=1S/O2/c1-2
Compound 5: 1-ethylpiperidine, C7H15N, InChI=1S/C7H15N/c1-2-8-6-4-3-5-7-8/h2-7H2,1H3
Compound 6: .alpha.-ethylpiperidine, C7H15N, InChI=1S/C7H15N/c1-2-7-5-3-4-6-8-7/h7-8H,2-6H2,1H3

System: 1-ethylpiperidine; phases: Gas
Property: Molar enthalpy, kJ/mol (Gas); method: Calvet microcalorimetry
Temperature, K	Pressure, kPa	Molar enthalpy, kJ/mol	uncertainty
334.3	100	45.01	0.32

System: .alpha.-ethylpiperidine; phases: Gas
Property: Molar enthalpy, kJ/mol (Gas); method: Calvet microcalorimetry
Temperature, K	Pressure, kPa	Molar enthalpy, kJ/mol	uncertainty
334.3	100	54.39	0.6

Reaction: -1 1-ethylpiperidine + 7 carbon dioxide + .5 nitrogen + 7.5 water + -10.75 oxygen
Property: Specific internal energy of reaction at constant volume, J/g
-42125.8

Reaction: -1 .alpha.-ethylpiperidine + 7 carbon dioxide + .5 nitrogen + 7.5 water + -10.75 oxygen
Property: Specific internal energy of reaction at constant volume, J/g
-41803.2
