Measured thermophysical data. Surface tension and interfacial compositions of binary glycerol/alcohol mixtures
Source: J. Chem. Thermodyn., 2019, 10.1016/j.jct.2019.03.014
Compound 1: ethanol, C2H6O, InChI=1S/C2H6O/c1-2-3/h3H,2H2,1H3, purity 99.98%
Compound 2: propan-1-ol, C3H8O, InChI=1S/C3H8O/c1-2-3-4/h4H,2-3H2,1H3, purity 99.5%
Compound 3: propan-2-ol, C3H8O, InChI=1S/C3H8O/c1-3(2)4/h3-4H,1-2H3, purity 99.5%
Compound 4: butan-1-ol, C4H10O, InChI=1S/C4H10O/c1-2-3-4-5/h5H,2-4H2,1H3, purity 99.4%
Compound 5: glycerol, C3H8O3, InChI=1S/C3H8O3/c4-1-3(6)2-5/h3-6H,1-2H2, purity 99.5%

System: ethanol; phases: Liquid, Air at 1 atmosphere
Property: Surface tension liquid-gas, N/m (Liquid); method: Ring tensiometer
Temperature, K	Surface tension liquid-gas, N/m	uncertainty
293.2	0.0223	0.0007
303.2	0.0214	0.0007
313.2	0.0206	0.0007
323.2	0.0198	0.0007
333.2	0.019	0.0007

System: propan-1-ol; phases: Liquid, Air at 1 atmosphere
Property: Surface tension liquid-gas, N/m (Liquid); method: Ring tensiometer
Temperature, K	Surface tension liquid-gas, N/m	uncertainty
293.2	0.0237	0.0007
303.2	0.0229	0.0007
313.2	0.0221	0.0007
323.2	0.0213	0.0007
333.2	0.0206	0.0007

System: propan-2-ol; phases: Liquid, Air at 1 atmosphere
Property: Surface tension liquid-gas, N/m (Liquid); method: Ring tensiometer
Temperature, K	Surface tension liquid-gas, N/m	uncertainty
293.2	0.0214	0.0007
303.2	0.0207	0.0007
313.2	0.0197	0.0007
323.2	0.0187	0.0007
333.2	0.0176	0.0007

System: butan-1-ol; phases: Liquid, Air at 1 atmosphere
Property: Surface tension liquid-gas, N/m (Liquid); method: Ring tensiometer
Temperature, K	Surface tension liquid-gas, N/m	uncertainty
293.2	0.0247	0.0007
303.2	0.0238	0.0007
313.2	0.0228	0.0007
323.2	0.0216	0.0007
333.2	0.0203	0.0007

System: glycerol; phases: Liquid, Air at 1 atmosphere
Property: Surface tension liquid-gas, N/m (Liquid); method: Ring tensiometer
Temperature, K	Surface tension liquid-gas, N/m	uncertainty
293.2	0.0631	0.001
303.2	0.0624	0.001
313.2	0.062	0.001
323.2	0.0611	0.001
333.2	0.0605	0.0009
298.2	0.0629	0.001

System: glycerol + ethanol; phases: Liquid, Air at 1 atmosphere
Property: Surface tension liquid-gas, N/m (Liquid); method: Ring tensiometer
Temperature, K	Mole fraction of ethanol	Surface tension liquid-gas, N/m	uncertainty
293.2	0	0.0631	0.001
293.2	0.1	0.0529	0.0009
293.2	0.2	0.0417	0.0008
293.2	0.3	0.0361	0.0008
293.2	0.4	0.0319	0.0007
293.2	0.5	0.029	0.0007
293.2	0.6	0.0275	0.0007
293.2	0.7	0.0262	0.0007
293.2	0.8	0.0249	0.0007
293.2	0.9	0.0237	0.0007
293.2	1	0.0223	0.0007
303.2	0	0.0624	0.001
303.2	0.1	0.0524	0.0009
303.2	0.2	0.0414	0.0008
303.2	0.3	0.0359	0.0008
303.2	0.4	0.0316	0.0007
303.2	0.5	0.0285	0.0007
303.2	0.6	0.0271	0.0007
303.2	0.7	0.0254	0.0007
303.2	0.8	0.0242	0.0007
303.2	0.9	0.0232	0.0007
303.2	1	0.0214	0.0007
313.2	0	0.062	0.001
313.2	0.1	0.052	0.0009
313.2	0.2	0.0411	0.0008
313.2	0.3	0.0357	0.0008
313.2	0.4	0.0312	0.0007
313.2	0.5	0.0279	0.0007
313.2	0.6	0.0267	0.0007
313.2	0.7	0.0245	0.0007
313.2	0.8	0.0235	0.0007
313.2	0.9	0.0226	0.0007
313.2	1	0.0206	0.0007
323.2	0	0.0611	0.001
323.2	0.1	0.0515	0.0009
323.2	0.2	0.0407	0.0008
323.2	0.3	0.0354	0.0008
323.2	0.4	0.0309	0.0007
323.2	0.5	0.0277	0.0007
323.2	0.6	0.0263	0.0007
323.2	0.7	0.0236	0.0007
323.2	0.8	0.0228	0.0007
323.2	0.9	0.022	0.0007
323.2	1	0.0198	0.0007
333.2	0	0.0605	0.0009
333.2	0.1	0.0511	0.0009
333.2	0.2	0.0405	0.0008
333.2	0.3	0.035	0.0008
333.2	0.4	0.0306	0.0007
333.2	0.5	0.0272	0.0007
333.2	0.6	0.0259	0.0007
333.2	0.7	0.0227	0.0007
333.2	0.8	0.0221	0.0007
333.2	0.9	0.0212	0.0007
333.2	1	0.019	0.0007

System: glycerol + propan-1-ol; phases: Liquid, Air at 1 atmosphere
Property: Surface tension liquid-gas, N/m (Liquid); method: Ring tensiometer
Temperature, K	Mole fraction of propan-1-ol	Surface tension liquid-gas, N/m	uncertainty
293.2	0	0.0631	0.001
293.2	0.1	0.0418	0.0009
293.2	0.2	0.0334	0.0008
293.2	0.3	0.0301	0.0007
293.2	0.4	0.0283	0.0007
293.2	0.5	0.0273	0.0007
293.2	0.6	0.0265	0.0007
293.2	0.7	0.026	0.0007
293.2	0.8	0.0253	0.0007
293.2	0.9	0.0247	0.0007
293.2	1	0.0237	0.0007
303.2	0	0.0624	0.001
303.2	0.1	0.0415	0.0008
303.2	0.2	0.0331	0.0007
303.2	0.3	0.0297	0.0007
303.2	0.4	0.0279	0.0007
303.2	0.5	0.0269	0.0007
303.2	0.6	0.0261	0.0007
303.2	0.7	0.0255	0.0007
303.2	0.8	0.0248	0.0007
303.2	0.9	0.0241	0.0007
303.2	1	0.0229	0.0007
313.2	0	0.062	0.001
313.2	0.1	0.0412	0.0008
313.2	0.2	0.0328	0.0007
313.2	0.3	0.0293	0.0007
313.2	0.4	0.0277	0.0007
313.2	0.5	0.0264	0.0007
313.2	0.6	0.0257	0.0007
313.2	0.7	0.025	0.0007
313.2	0.8	0.0242	0.0007
313.2	0.9	0.0233	0.0007
313.2	1	0.0221	0.0007
323.2	0	0.0611	0.001
323.2	0.1	0.0409	0.0008
323.2	0.2	0.0325	0.0007
323.2	0.3	0.0289	0.0007
323.2	0.4	0.0272	0.0007
323.2	0.5	0.026	0.0007
323.2	0.6	0.0253	0.0007
323.2	0.7	0.0245	0.0007
323.2	0.8	0.0236	0.0007
323.2	0.9	0.0225	0.0007
323.2	1	0.0213	0.0007
333.2	0	0.0605	0.0009
333.2	0.1	0.0405	0.0008
333.2	0.2	0.0322	0.0007
333.2	0.3	0.0285	0.0007
333.2	0.4	0.0266	0.0007
333.2	0.5	0.0256	0.0007
333.2	0.6	0.025	0.0007
333.2	0.7	0.024	0.0007
333.2	0.8	0.023	0.0007
333.2	0.9	0.0216	0.0007
333.2	1	0.0206	0.0007

System: glycerol + propan-2-ol; phases: Liquid, Air at 1 atmosphere
Property: Surface tension liquid-gas, N/m (Liquid); method: Ring tensiometer
Temperature, K	Mole fraction of propan-2-ol	Surface tension liquid-gas, N/m	uncertainty
293.2	0	0.0631	0.001
293.2	0.1	0.0457	0.0009
293.2	0.2	0.0343	0.0008
293.2	0.3	0.0288	0.00072
293.2	0.4	0.0267	0.0007
293.2	0.5	0.0256	0.0007
293.2	0.6	0.0248	0.0007
293.2	0.7	0.0239	0.0007
293.2	0.8	0.0228	0.0007
293.2	0.9	0.0219	0.0007
293.2	1	0.0214	0.0007
303.2	0	0.0624	0.001
303.2	0.1	0.0451	0.0009
303.2	0.2	0.034	0.0008
303.2	0.3	0.0285	0.0007
303.2	0.4	0.0262	0.0007
303.2	0.5	0.0251	0.0007
303.2	0.6	0.0242	0.0007
303.2	0.7	0.0234	0.0007
303.2	0.8	0.0223	0.0007
303.2	0.9	0.0214	0.0007
303.2	1	0.0207	0.0007
313.2	0	0.062	0.001
313.2	0.1	0.0444	0.0009
313.2	0.2	0.0336	0.0008
313.2	0.3	0.028	0.0007
313.2	0.4	0.0258	0.0007
313.2	0.5	0.0246	0.0007
313.2	0.6	0.0237	0.0007
313.2	0.7	0.023	0.0007
313.2	0.8	0.0218	0.0007
313.2	0.9	0.0209	0.0007
313.2	1	0.0197	0.0007
323.2	0	0.0611	0.001
323.2	0.1	0.0439	0.0009
323.2	0.2	0.0329	0.0008
323.2	0.3	0.0276	0.0007
323.2	0.4	0.0255	0.00069
323.2	0.5	0.0241	0.0007
323.2	0.6	0.0235	0.0007
323.2	0.7	0.0225	0.0007
323.2	0.8	0.0212	0.0007
323.2	0.9	0.02	0.0007
323.2	1	0.0187	0.0007
333.2	0	0.0605	0.0009
333.2	0.1	0.0432	0.0009
333.2	0.2	0.0322	0.0008
333.2	0.3	0.0272	0.0007
333.2	0.4	0.025	0.0007
333.2	0.5	0.0237	0.0007
333.2	0.6	0.0226	0.0007
333.2	0.7	0.0221	0.0007
333.2	0.8	0.0206	0.0007
333.2	0.9	0.0191	0.0007
333.2	1	0.0176	0.0007

System: glycerol + butan-1-ol; phases: Liquid, Air at 1 atmosphere
Property: Surface tension liquid-gas, N/m (Liquid); method: Ring tensiometer
Temperature, K	Mole fraction of butan-1-ol	Surface tension liquid-gas, N/m	uncertainty
293.2	0	0.0631	0.001
293.2	0.1	0.0331	0.0008
293.2	0.2	0.028	0.0007
293.2	0.3	0.0264	0.0007
293.2	0.4	0.0262	0.0007
293.2	0.5	0.0259	0.0007
293.2	0.6	0.0257	0.0007
293.2	0.7	0.0254	0.0007
293.2	0.8	0.0252	0.0007
293.2	0.9	0.0248	0.0007
293.2	1	0.0247	0.0007
303.2	0	0.0624	0.001
303.2	0.1	0.0329	0.0008
303.2	0.2	0.0277	0.0007
303.2	0.3	0.0262	0.0007
303.2	0.4	0.026	0.0007
303.2	0.5	0.0257	0.0007
303.2	0.6	0.0254	0.0007
303.2	0.7	0.0251	0.0007
303.2	0.8	0.0248	0.0007
303.2	0.9	0.0243	0.0007
303.2	1	0.0238	0.0007
313.2	0	0.062	0.001
313.2	0.1	0.0328	0.0008
313.2	0.2	0.0273	0.0007
313.2	0.3	0.0261	0.0007
313.2	0.4	0.0258	0.0007
313.2	0.5	0.0255	0.0007
313.2	0.6	0.0251	0.0007
313.2	0.7	0.0248	0.0007
313.2	0.8	0.0245	0.0007
313.2	0.9	0.0237	0.0007
313.2	1	0.0228	0.00068
323.2	0	0.0611	0.001
323.2	0.1	0.0327	0.0008
323.2	0.2	0.027	0.0007
323.2	0.3	0.0256	0.0007
323.2	0.4	0.0252	0.0007
323.2	0.5	0.0247	0.0007
323.2	0.6	0.0243	0.0007
323.2	0.7	0.024	0.0007
323.2	0.8	0.0237	0.0007
323.2	0.9	0.0227	0.0007
323.2	1	0.0216	0.0007
333.2	0	0.0605	0.0009
333.2	0.1	0.0325	0.0008
333.2	0.2	0.0267	0.0007
333.2	0.3	0.0253	0.0007
333.2	0.4	0.0248	0.0007
333.2	0.5	0.0243	0.0007
333.2	0.6	0.0237	0.0007
333.2	0.7	0.0232	0.0007
333.2	0.8	0.0229	0.0007
333.2	0.9	0.0216	0.0007
333.2	1	0.0203	0.0007
