Measured thermophysical data. Experimental and theoretical excess molar enthalpies of ternary and binary mixtures containing 2-Methoxy-2-Methylpropane, 1-propanol, heptane
Source: J. Chem. Thermodyn., 2013, 10.1016/j.jct.2013.06.018
Compound 1: heptane, C7H16, InChI=1S/C7H16/c1-3-5-7-6-4-2/h3-7H2,1-2H3, purity 99.5%
Compound 2: propan-1-ol, C3H8O, InChI=1S/C3H8O/c1-2-3-4/h4H,2-3H2,1H3, purity 99.5%
Compound 3: 2-methoxy-2-methylpropane, C5H12O, InChI=1S/C5H12O/c1-5(2,3)6-4/h1-4H3, purity 99.8%

System: propan-1-ol + heptane; phases: Liquid
Fixed: Pressure, kPa = 101
Fixed: Temperature, K = 298.15
Property: Excess molar enthalpy (molar enthalpy of mixing), kJ/mol (Liquid); method: Calvet calorimetry
Mole fraction of propan-1-ol	Excess molar enthalpy (molar enthalpy of mixing), kJ/mol	uncertainty
0.0699	0.428	0.009
0.1182	0.522	0.011
0.2088	0.62	0.013
0.3839	0.661	0.014
0.4743	0.635	0.014
0.5332	0.595	0.013
0.6744	0.48	0.01
0.7196	0.433	0.009
0.7698	0.379	0.008
0.7701	0.37	0.008
0.8193	0.301	0.007
0.8566	0.253	0.006
0.8909	0.202	0.005
0.8974	0.194	0.004
0.9343	0.129	0.003
0.9675	0.067	0.002

System: propan-1-ol + heptane + 2-methoxy-2-methylpropane; phases: Liquid
Fixed: Pressure, kPa = 101
Fixed: Temperature, K = 298.15
Property: Molar enthalpy of mixing with solvent, kJ/mol of heptane (Liquid); method: Calvet calorimetry
Mole fraction of 2-methoxy-2-methylpropane	Mole fraction of propan-1-ol	Molar enthalpy of mixing with solvent, kJ/mol of heptane	uncertainty
0.0163	0.0492	0.367	0.008
0.0441	0.1335	0.54	0.012
0.0668	0.202	0.617	0.013
0.0877	0.2652	0.657	0.014
0.1063	0.3216	0.643	0.014
0.1248	0.3774	0.628	0.014
0.1387	0.4195	0.603	0.013
0.1544	0.4671	0.566	0.012
0.0433	0.0428	0.335	0.007
0.0766	0.0757	0.47	0.01
0.1213	0.1199	0.551	0.012
0.1662	0.1643	0.597	0.013
0.199	0.1967	0.619	0.013
0.2318	0.2291	0.618	0.013
0.2678	0.2647	0.607	0.013
0.2981	0.2946	0.573	0.012
0.0516	0.0171	0.21	0.005
0.1164	0.0386	0.36	0.008
0.2182	0.0724	0.499	0.011
0.2771	0.092	0.559	0.012
0.3355	0.1113	0.575	0.012
0.3761	0.1248	0.562	0.012
0.4246	0.1409	0.549	0.012
0.1738	0.5259	0.486	0.011
0.1855	0.5612	0.438	0.01
0.198	0.599	0.378	0.008
0.2103	0.6362	0.302	0.007
0.2221	0.672	0.227	0.005
0.2312	0.6992	0.155	0.004
0.2402	0.7266	0.079	0.002
0.3213	0.3176	0.537	0.012
0.3624	0.3582	0.464	0.01
0.3906	0.3861	0.405	0.009
0.4183	0.4135	0.332	0.007
0.4398	0.4347	0.26	0.006
0.4631	0.4577	0.175	0.004
0.4857	0.4801	0.085	0.002
0.4832	0.1603	0.496	0.011
0.5298	0.1758	0.453	0.01
0.5719	0.1898	0.4	0.009
0.6073	0.2015	0.339	0.007
0.6447	0.2139	0.268	0.006
0.6861	0.2277	0.177	0.004
0.721	0.2393	0.084	0.002
