Measured thermophysical data. Volumetric behaviour of binary liquid systems composed of toluene, isooctane, and methyl tert-butyl ether at temperatures from (298.15 to 328.15) K
Source: J. Chem. Thermodyn., 2009, 10.1016/j.jct.2009.01.008
Compound 1: toluene, C7H8, InChI=1S/C7H8/c1-7-5-3-2-4-6-7/h2-6H,1H3, purity 99.5%
Compound 2: 2,2,4-trimethylpentane, C8H18, InChI=1S/C8H18/c1-7(2)6-8(3,4)5/h7H,6H2,1-5H3, purity 99%
Compound 3: 2-methoxy-2-methylpropane, C5H12O, InChI=1S/C5H12O/c1-5(2,3)6-4/h1-4H3, purity 99.5%

System: toluene; phases: Liquid
Property: Refractive index (Na D-line) (Liquid); method: UNKNOWN
Temperature, K	Pressure, kPa	Refractive index (Na D-line)	uncertainty
298.15	101.325	1.4941	0.0001

System: toluene; phases: Liquid
Property: Mass density, kg/m3 (Liquid); method: Derived from speed of sound
Temperature, K	Pressure, kPa	Mass density, kg/m3	uncertainty
298.15	101.325	862.27	0.11

System: toluene; phases: Liquid
Fixed: Pressure, kPa = 101
Property: Speed of sound, m/s (Liquid); method: Linear variable-path acoustic interferometer
Temperature, K	Speed of sound, m/s	uncertainty
298.15	1305.4	1.7
308.15	1262.6	1.7
318.15	1220.3	1.7
328.15	1178.6	1.6

System: toluene; phases: Liquid
Fixed: Pressure, kPa = 101
Property: Mass density, kg/m3 (Liquid); method: Derived from speed of sound
Temperature, K	Mass density, kg/m3	uncertainty
298.15	862.18	0.07
308.15	852.87	0.07
318.15	843.58	0.07
328.15	834.28	0.07

System: 2,2,4-trimethylpentane; phases: Liquid
Property: Refractive index (Na D-line) (Liquid); method: UNKNOWN
Temperature, K	Pressure, kPa	Refractive index (Na D-line)	uncertainty
298.15	101.325	1.38905	0.00021

System: 2,2,4-trimethylpentane; phases: Liquid
Property: Mass density, kg/m3 (Liquid); method: Derived from speed of sound
Temperature, K	Pressure, kPa	Mass density, kg/m3	uncertainty
298.15	101.325	687.79	0.13

System: 2,2,4-trimethylpentane; phases: Liquid
Fixed: Pressure, kPa = 101
Property: Speed of sound, m/s (Liquid); method: Linear variable-path acoustic interferometer
Temperature, K	Speed of sound, m/s	uncertainty
298.15	1082.8	1.8
308.15	1041.1	1.8
318.15	1000	1.8
328.15	958.4	1.8

System: 2,2,4-trimethylpentane; phases: Liquid
Fixed: Pressure, kPa = 101
Property: Mass density, kg/m3 (Liquid); method: Derived from speed of sound
Temperature, K	Mass density, kg/m3	uncertainty
298.15	687.73	0.1
308.15	679.46	0.1
318.15	671.32	0.1
328.15	663.2	0.1

System: 2-methoxy-2-methylpropane; phases: Liquid
Property: Refractive index (Na D-line) (Liquid); method: UNKNOWN
Temperature, K	Pressure, kPa	Refractive index (Na D-line)	uncertainty
298.15	101.325	1.36648	0.00012

System: 2-methoxy-2-methylpropane; phases: Liquid
Property: Mass density, kg/m3 (Liquid); method: Derived from speed of sound
Temperature, K	Pressure, kPa	Mass density, kg/m3	uncertainty
298.15	101.325	735.27	0.1

System: 2-methoxy-2-methylpropane; phases: Liquid
Fixed: Pressure, kPa = 101
Property: Speed of sound, m/s (Liquid); method: Linear variable-path acoustic interferometer
Temperature, K	Speed of sound, m/s	uncertainty
298.15	1036.4	1.6
308.15	990.8	1.5
318.15	945.3	1.5

System: 2-methoxy-2-methylpropane; phases: Liquid
Fixed: Pressure, kPa = 101
Property: Mass density, kg/m3 (Liquid); method: Derived from speed of sound
Temperature, K	Mass density, kg/m3	uncertainty
308.15	724.72	0.07
318.15	714.01	0.07

System: toluene + 2,2,4-trimethylpentane; phases: Liquid
Fixed: Pressure, kPa = 101
Property: Speed of sound, m/s (Liquid); method: Linear variable-path acoustic interferometer
Temperature, K	Mole fraction of toluene	Speed of sound, m/s	uncertainty
298.15	0	1082.8	1.8
298.15	0.07776	1092.7	1.8
298.15	0.14048	1101.3	1.8
298.15	0.2059	1110.8	1.8
298.15	0.26709	1120.3	1.8
298.15	0.3385	1132.3	1.7
298.15	0.39763	1143	1.7
298.15	0.53278	1170	1.7
298.15	0.5966	1184.2	1.7
298.15	0.6699	1201.9	1.7
298.15	0.73025	1217.5	1.7
298.15	0.80014	1237.5	1.7
298.15	0.86807	1258.4	1.7
298.15	0.8691	1259	1.7
298.15	0.95389	1288.1	1.7
298.15	1	1305.4	1.7
308.15	0	1041.1	1.8
308.15	0.07776	1051.1	1.8
308.15	0.14048	1059.7	1.8
308.15	0.2059	1069.2	1.7
308.15	0.26709	1078.7	1.7
308.15	0.3385	1090.7	1.7
308.15	0.39763	1101.3	1.7
308.15	0.47242	1115.6	1.7
308.15	0.5966	1142.3	1.7
308.15	0.6699	1159.9	1.7
308.15	0.73025	1175.4	1.7
308.15	0.80014	1195.3	1.7
308.15	0.86807	1216.1	1.7
308.15	0.95389	1245.4	1.7
308.15	1	1262.6	1.7
318.15	0	1000	1.8
318.15	0.07776	1009.9	1.8
318.15	0.14048	1018.5	1.7
318.15	0.2059	1028.1	1.7
318.15	0.26709	1037.6	1.7
318.15	0.3385	1049.5	1.7
318.15	0.39763	1060.1	1.7
318.15	0.47242	1074.3	1.7
318.15	0.53278	1086.9	1.7
318.15	0.5966	1100.9	1.7
318.15	0.6699	1118.4	1.7
318.15	0.78952	1150.3	1.7
318.15	0.80014	1153.6	1.7
318.15	0.86807	1174.2	1.7
318.15	0.95389	1203.3	1.7
318.15	1	1220.3	1.7
328.15	0	958.4	1.8
328.15	0.07776	969.3	1.7
328.15	0.14048	977.9	1.7
328.15	0.2059	987.5	1.7
328.15	0.26709	997	1.7
328.15	0.3385	1008.8	1.7
328.15	0.39763	1019.4	1.7
328.15	0.53278	1046.1	1.7
328.15	0.5966	1060	1.6
328.15	0.6699	1077.5	1.6
328.15	0.73025	1092.8	1.6
328.15	0.80014	1112.4	1.6
328.15	0.86807	1132.8	1.6
328.15	1	1178.6	1.6

System: toluene + 2,2,4-trimethylpentane; phases: Liquid
Fixed: Pressure, kPa = 101
Property: Mass density, kg/m3 (Liquid); method: Derived from speed of sound
Temperature, K	Mole fraction of toluene	Mass density, kg/m3	uncertainty
298.15	0	687.73	0.1
298.15	0.07776	696.5	0.1
298.15	0.14048	704	0.1
298.15	0.2059	712.25	0.09
298.15	0.26709	720.4	0.09
298.15	0.3385	730.42	0.09
298.15	0.39763	739.2	0.09
298.15	0.53278	761.06	0.08
298.15	0.5966	772.29	0.08
298.15	0.6699	786.08	0.08
298.15	0.73025	798.13	0.08
298.15	0.80014	813.1	0.08
298.15	0.86807	828.6	0.07
298.15	0.8691	828.85	0.07
298.15	0.95389	849.92	0.07
298.15	1	862.18	0.07
308.05	0.80014	804.1	0.07
308.15	0	679.46	0.1
308.15	0.07776	688.22	0.1
308.15	0.14048	695.67	0.09
308.15	0.2059	703.88	0.09
308.15	0.26709	711.97	0.09
308.15	0.3385	721.93	0.09
308.15	0.39763	730.66	0.08
308.15	0.47242	742.3	0.08
308.15	0.5966	763.54	0.08
308.15	0.6699	777.25	0.08
308.15	0.73025	789.22	0.08
308.15	0.86807	819.5	0.07
308.15	0.95389	840.69	0.07
308.15	1	852.87	0.07
318.15	0	671.32	0.1
318.15	0.07776	680.02	0.1
318.15	0.14048	687.43	0.09
318.15	0.2059	695.58	0.09
318.15	0.26709	703.61	0.09
318.15	0.3385	713.51	0.09
318.15	0.39763	722.18	0.08
318.15	0.47242	733.75	0.08
318.15	0.53278	743.77	0.08
318.15	0.5966	754.85	0.08
318.15	0.6699	768.47	0.08
318.15	0.78952	792.71	0.07
318.15	0.80014	795.14	0.07
318.15	0.86807	810.44	0.07
318.15	0.95389	831.49	0.07
318.15	1	843.58	0.07
328.15	0	663.2	0.1
328.15	0.07776	671.85	0.09
328.15	0.14048	679.21	0.09
328.15	0.2059	687.29	0.09
328.15	0.26709	695.28	0.09
328.15	0.3385	705.11	0.08
328.15	0.39763	713.73	0.08
328.15	0.53278	735.16	0.08
328.15	0.5966	746.17	0.08
328.15	0.6699	759.7	0.08
328.15	0.73025	771.5	0.08
328.15	0.80014	786.19	0.07
328.15	0.86807	801.38	0.07
328.15	1	834.28	0.07

System: 2,2,4-trimethylpentane + 2-methoxy-2-methylpropane; phases: Liquid
Fixed: Pressure, kPa = 101
Property: Speed of sound, m/s (Liquid); method: Linear variable-path acoustic interferometer
Temperature, K	Mole fraction of 2-methoxy-2-methylpropane	Speed of sound, m/s	uncertainty
298.15	0	1082.8	1.8
298.15	0.05551	1079.2	1.8
298.15	0.08857	1077.1	1.8
298.15	0.13045	1074.8	1.8
298.15	0.19708	1071	1.7
298.15	0.25994	1067.4	1.7
298.15	0.32839	1063.8	1.7
298.15	0.40777	1059.5	1.7
298.15	0.47558	1056.1	1.7
298.15	0.56289	1052	1.7
298.15	0.61844	1049.5	1.6
298.15	0.68306	1046.7	1.6
298.15	0.74559	1044.1	1.6
298.15	0.76442	1043.4	1.6
298.15	0.81426	1041.7	1.6
298.15	0.81549	1041.5	1.6
298.15	0.86748	1039.8	1.6
298.15	0.93763	1037.8	1.6
298.15	1	1036.4	1.6
308.15	0	1041.1	1.8
308.15	0.05551	1037.5	1.8
308.15	0.13045	1032.8	1.7
308.15	0.19708	1028.7	1.7
308.15	0.25994	1024.9	1.7
308.15	0.32839	1021	1.7
308.15	0.40777	1016.4	1.7
308.15	0.47558	1012.7	1.7
308.15	0.56289	1008.2	1.6
308.15	0.68306	1002.5	1.6
308.15	0.74559	995.5	1.6
308.15	0.81549	996.6	1.6
308.15	0.86748	994.7	1.6
308.15	0.93763	992.5	1.5
308.15	1	990.8	1.5
318.15	0	1000	1.8
318.15	0.08857	993.7	1.7
318.15	0.13045	991.2	1.7
318.15	0.19708	986.9	1.7
318.15	0.25994	983	1.7
318.15	0.32839	978.9	1.7
318.15	0.40777	973.8	1.7
318.15	0.56289	964.9	1.6
318.15	0.68306	958.7	1.6
318.15	0.74559	955.6	1.6
318.15	0.81549	952.4	1.6
318.15	0.86748	950	1.5
318.15	0.93763	947.4	1.5
318.15	1	945.3	1.5
328.15	0	958.4	1.8
328.15	0.08857	952.7	1.7
328.15	0.19708	945.5	1.7
328.15	0.25994	941.5	1.7
328.15	0.33154	936.4	1.7
328.15	0.56289	922.2	1.6
328.15	0.68306	915.2	1.6

System: 2,2,4-trimethylpentane + 2-methoxy-2-methylpropane; phases: Liquid
Fixed: Pressure, kPa = 101
Property: Mass density, kg/m3 (Liquid); method: Derived from speed of sound
Temperature, K	Mole fraction of 2-methoxy-2-methylpropane	Mass density, kg/m3	uncertainty
298.15	0	687.73	0.1
298.15	0.05551	689.35	0.1
298.15	0.08857	690.44	0.1
298.15	0.13045	691.75	0.09
298.15	0.19708	694	0.09
298.15	0.25994	696.24	0.09
298.15	0.32839	698.83	0.08
298.15	0.40777	702.03	0.08
298.15	0.47558	704.95	0.08
298.15	0.56289	708.98	0.07
298.15	0.61844	711.77	0.07
298.15	0.68306	715.09	0.07
298.15	0.74559	718.56	0.07
298.15	0.76442	719.69	0.07
298.15	0.81426	722.66	0.07
298.15	0.81549	722.73	0.07
298.15	0.86748	725.99	0.07
298.15	0.93763	730.77	0.07
298.15	1	735.27	0.07
308.15	0	679.46	0.1
308.15	0.05551	681.02	0.1
308.15	0.13045	683.28	0.09
308.15	0.19708	685.41	0.09
308.15	0.25994	687.52	0.09
308.15	0.32839	689.98	0.08
308.15	0.40777	692.99	0.08
308.15	0.47558	695.78	0.08
308.15	0.56289	699.59	0.07
308.15	0.68306	705.4	0.07
308.15	0.74559	708.73	0.07
308.15	0.81549	712.67	0.07
308.15	0.86748	715.81	0.07
308.15	0.93763	720.4	0.07
308.15	1	724.72	0.07
318.15	0	671.32	0.1
318.15	0.08857	673.73	0.09
318.15	0.13045	674.9	0.09
318.15	0.19708	676.89	0.09
318.15	0.25994	678.87	0.09
318.15	0.32839	681.19	0.08
318.15	0.56289	690.25	0.07
318.15	0.68306	695.72	0.07
318.15	0.74559	698.88	0.07
318.15	0.81549	702.64	0.07
318.15	0.86748	705.61	0.07
318.15	0.93763	710.02	0.07
318.15	1	714.01	0.07
318.18	0.40777	684.03	0.08
328.15	0	663.2	0.1
328.15	0.08857	665.39	0.09
328.15	0.19708	668.35	0.09
328.15	0.25994	670.19	0.08
328.15	0.33154	672.48	0.08
328.15	0.56289	680.77	0.07
328.15	0.68306	685.74	0.07

System: toluene + 2-methoxy-2-methylpropane; phases: Liquid
Fixed: Pressure, kPa = 101
Property: Speed of sound, m/s (Liquid); method: Linear variable-path acoustic interferometer
Temperature, K	Mole fraction of 2-methoxy-2-methylpropane	Speed of sound, m/s	uncertainty
298.15	0	1305.4	1.7
298.15	0.10209	1277.4	1.7
298.15	0.20351	1250	1.7
298.15	0.25908	1234.8	1.7
298.15	0.33207	1215.2	1.7
298.15	0.4008	1196.7	1.6
298.15	0.58939	1145.8	1.6
298.15	0.664	1125.8	1.6
298.15	0.86428	1072.3	1.6
298.15	0.9025	1062.2	1.6
298.15	1	1036.4	1.6
308.15	0	1262.6	1.7
308.15	0.10209	1234.5	1.7
308.15	0.20351	1206.7	1.6
308.15	0.25908	1191.3	1.6
308.15	0.33207	1171.6	1.6
308.15	0.4008	1152.9	1.6
308.15	0.58939	1101.5	1.6
308.15	0.664	1081.2	1.6
308.15	0.79556	1045.7	1.6
308.15	0.86428	1027.1	1.6
308.15	0.9025	1016.8	1.6
308.15	1	990.8	1.5
318.15	0	1220.3	1.7
318.15	0.10209	1192	1.6
318.15	0.20351	1163.9	1.6
318.15	0.25908	1148.5	1.6
318.15	0.33207	1128.4	1.6
318.15	0.4008	1109.5	1.6
318.15	0.58939	1057.6	1.6
318.15	0.664	1037	1.6
318.15	0.72568	1020.4	1.6
318.15	0.79556	1001	1.5
318.15	0.86428	982.4	1.5
318.15	0.9025	971.6	1.5
318.15	1	945.3	1.5
328.15	0	1178.6	1.6
328.15	0.10209	1149.9	1.6
328.15	0.20351	1121.6	1.6
328.15	0.25908	1106.1	1.6
328.15	0.33207	1086.2	1.6
328.15	0.4008	1066.9	1.6
328.15	0.46648	1049.4	1.6
328.15	0.53232	1030.2	1.6
328.15	0.72568	976.5	1.5
328.15	0.79556	958.4	1.5

System: toluene + 2-methoxy-2-methylpropane; phases: Liquid
Fixed: Pressure, kPa = 101
Property: Mass density, kg/m3 (Liquid); method: Derived from speed of sound
Temperature, K	Mole fraction of 2-methoxy-2-methylpropane	Mass density, kg/m3	uncertainty
298.15	0	862.18	0.07
298.15	0.10209	848.87	0.07
298.15	0.20351	835.76	0.07
298.15	0.25908	828.62	0.07
298.15	0.33207	819.28	0.07
298.15	0.4008	810.53	0.07
298.15	0.58939	786.59	0.07
298.15	0.664	777.16	0.07
298.15	0.86428	752.12	0.07
298.15	0.9025	747.36	0.07
298.15	1	735.27	0.07
308.15	0	852.87	0.07
308.15	0.10209	839.47	0.07
308.15	0.20351	826.25	0.07
308.15	0.25908	819.03	0.07
308.15	0.33207	809.62	0.07
308.15	0.4008	800.8	0.07
308.15	0.58939	776.63	0.07
308.15	0.664	767.1	0.07
308.15	0.79556	750.45	0.07
308.15	0.86428	741.77	0.07
308.15	0.9025	736.95	0.07
308.15	1	724.72	0.07
318.15	0	843.58	0.07
318.15	0.10209	830.08	0.07
318.15	0.20351	816.76	0.07
318.15	0.25908	809.46	0.07
318.15	0.33207	799.98	0.07
318.15	0.4008	791.09	0.07
318.15	0.664	757.03	0.07
318.15	0.72568	749.23	0.07
318.15	0.79556	740.17	0.07
318.15	0.86428	731.38	0.07
318.15	0.9025	726.5	0.07
318.15	1	714.01	0.07
318.18	0.58939	766.66	0.07
328.15	0	834.28	0.07
328.15	0.10209	820.69	0.07
328.15	0.20351	807.26	0.07
328.15	0.25908	799.89	0.07
328.15	0.33207	790.33	0.07
328.15	0.4008	781.36	0.07
328.15	0.46648	772.88	0.07
328.15	0.53232	764.23	0.07
328.15	0.72568	739	0.07
328.15	0.79556	729.85	0.07
