Measured thermophysical data. Densimetric and ultrasonic characterization of pentaerythritol in water and in aqueous NaCl and MgCl2 solutions at different temperatures
Source: J. Chem. Thermodyn., 2012, 10.1016/j.jct.2012.05.033
Compound 1: magnesium chloride, Cl2Mg, InChI=1S/2ClH.Mg/h2*1H;/q;;+2/p-2, purity 99%
Compound 2: 2,2-bis(hydroxymethyl)-1,3-propanediol, C5H12O4, InChI=1S/C5H12O4/c6-1-5(2-7,3-8)4-9/h6-9H,1-4H2, purity 97%
Compound 3: sodium chloride, ClNa, InChI=1S/ClH.Na/h1H;/q;+1/p-1, purity 99.9%
Compound 4: water, H2O, InChI=1S/H2O/h1H2, purity 99.9%

System: water; phases: Liquid
Fixed: Pressure, kPa = 101
Property: Speed of sound, m/s (Liquid); method: Optel OPTIME 1.0; Poland
Temperature, K	Speed of sound, m/s	uncertainty
298.15	1496.69	0.14
310.15	1523.2	0.14

System: water; phases: Liquid
Fixed: Pressure, kPa = 101
Property: Mass density, kg/m3 (Liquid); method: Vibrating tube method
Temperature, K	Mass density, kg/m3	uncertainty
293.15	998.14	0.034
298.15	996.978	0.034
303.15	995.58	0.035
308.15	993.96	0.035
310.15	993.255	0.036
313.15	992.136	0.036

System: 2,2-bis(hydroxymethyl)-1,3-propanediol + water; phases: Liquid
Fixed: Pressure, kPa = 101
Property: Speed of sound, m/s (Liquid); method: Optel OPTIME 1.0; Poland
Temperature, K	Molality, mol/kg of 2,2-bis(hydroxymethyl)-1,3-propanediol	Speed of sound, m/s	uncertainty
298.15	0	1496.69	0.14
298.15	0.03471	1498.37	0.15
298.15	0.06219	1499.7	0.16
298.15	0.08887	1500.99	0.17
298.15	0.1185	1502.42	0.18
298.15	0.1481	1503.83	0.19
298.15	0.1711	1504.96	0.19
298.15	0.2016	1506.4	0.2
298.15	0.2135	1507	0.21
298.15	0.2272	1507.68	0.21
298.15	0.2563	1509.05	0.22
310.15	0	1523.2	0.14
310.15	0.03471	1524.76	0.15
310.15	0.06219	1525.98	0.16
310.15	0.08887	1527.15	0.17
310.15	0.1185	1528.45	0.18
310.15	0.1481	1529.7	0.19
310.15	0.1711	1530.7	0.19
310.15	0.2016	1532	0.2
310.15	0.2135	1532.5	0.21
310.15	0.2272	1533.05	0.21
310.15	0.2563	1534.31	0.22

System: 2,2-bis(hydroxymethyl)-1,3-propanediol + water; phases: Liquid
Fixed: Pressure, kPa = 101
Property: Mass density, kg/m3 (Liquid); method: Vibrating tube method
Temperature, K	Molality, mol/kg of 2,2-bis(hydroxymethyl)-1,3-propanediol	Mass density, kg/m3	uncertainty
293.15	0	998.14	0.048
293.15	0.02029	998.847	0.048
293.15	0.03471	999.346	0.048
293.15	0.04868	999.829	0.048
293.15	0.06219	1000.292	0.048
293.15	0.07371	1000.685	0.048
293.15	0.08887	1001.199	0.049
293.15	0.1185	1002.203	0.049
293.15	0.1481	1003.202	0.05
293.15	0.1711	1003.975	0.051
293.15	0.2016	1004.989	0.051
293.15	0.2135	1005.386	0.051
293.15	0.2272	1005.829	0.052
293.15	0.2563	1006.78	0.053
298.15	0	996.978	0.051
298.15	0.02029	997.679	0.048
298.15	0.03471	998.173	0.048
298.15	0.04868	998.652	0.048
298.15	0.06219	999.111	0.048
298.15	0.07371	999.506	0.049
298.15	0.08887	1000.015	0.049
298.15	0.1185	1001.005	0.049
298.15	0.1481	1001.996	0.049
298.15	0.1711	1002.762	0.05
298.15	0.2016	1003.768	0.05
298.15	0.2135	1004.159	0.051
298.15	0.2272	1004.597	0.052
298.15	0.2563	1005.542	0.051
303.15	0	995.58	0.051
303.15	0.02029	996.276	0.048
303.15	0.03471	996.767	0.049
303.15	0.04868	997.241	0.049
303.15	0.06219	997.699	0.048
303.15	0.07371	998.089	0.049
303.15	0.08887	998.592	0.049
303.15	0.1185	999.578	0.049
303.15	0.1481	1000.568	0.049
303.15	0.1711	1001.318	0.049
303.15	0.2016	1002.318	0.05
303.15	0.2135	1002.704	0.05
303.15	0.2272	1003.143	0.051
303.15	0.2563	1004.074	0.05
308.15	0	993.96	0.05
308.15	0.02029	994.652	0.049
308.15	0.03471	995.14	0.049
308.15	0.04868	995.612	0.049
308.15	0.06219	996.063	0.049
308.15	0.07371	996.45	0.049
308.15	0.08887	996.953	0.049
308.15	0.1185	997.932	0.049
308.15	0.1481	998.905	0.049
308.15	0.1711	999.659	0.049
308.15	0.2016	1000.651	0.049
308.15	0.2135	1001.036	0.05
308.15	0.2272	1001.471	0.05
308.15	0.2563	1002.398	0.05
310.15	0	993.255	0.05
310.15	0.02029	993.945	0.049
310.15	0.03471	994.433	0.049
310.15	0.04868	994.903	0.049
310.15	0.06219	995.353	0.049
310.15	0.07371	995.741	0.049
310.15	0.08887	996.242	0.049
310.15	0.1185	997.219	0.049
310.15	0.1481	998.187	0.049
310.15	0.1711	998.94	0.049
310.15	0.2016	999.92	0.049
310.15	0.2135	1000.313	0.05
310.15	0.2272	1000.747	0.05
310.15	0.2563	1001.666	0.05
313.15	0	992.136	0.05
313.15	0.02029	992.827	0.05
313.15	0.03471	993.316	0.049
313.15	0.04868	993.786	0.049
313.15	0.06219	994.24	0.049
313.15	0.07371	994.625	0.049
313.15	0.08887	995.134	0.049
313.15	0.1185	996.108	0.049
313.15	0.1481	997.082	0.049
313.15	0.1711	997.838	0.049
313.15	0.2016	998.819	0.049
313.15	0.2135	999.201	0.049
313.15	0.2272	999.632	0.049
313.15	0.2563	1000.556	0.05

System: sodium chloride + water; phases: Liquid
Fixed: Pressure, kPa = 101
Property: Speed of sound, m/s (Liquid); method: Optel OPTIME 1.0; Poland
Mass fraction of sodium chloride	Temperature, K	Speed of sound, m/s	uncertainty
0.01	298.15	1507.49	2.18
0.01	310.15	1533.44	2.01
0.05	298.15	1550.7	2.24
0.05	310.15	1573.3	2.06
0.1	298.15	1607.8	2.29
0.1	310.15	1625.38	2.09

System: sodium chloride + water; phases: Liquid
Fixed: Pressure, kPa = 101
Property: Mass density, kg/m3 (Liquid); method: Vibrating tube method
Mass fraction of sodium chloride	Temperature, K	Mass density, kg/m3	uncertainty
0.01	293.15	1005.282	0.036
0.01	298.15	1004.042	0.035
0.01	303.15	1002.568	0.035
0.01	308.15	1000.887	0.034
0.01	310.15	1000.168	0.034
0.01	313.15	999.031	0.034
0.05	293.15	1033.896	0.059
0.05	298.15	1032.332	0.058
0.05	303.15	1030.599	0.058
0.05	308.15	1028.702	0.057
0.05	310.15	1027.902	0.057
0.05	313.15	1026.652	0.056
0.1	293.15	1071.453	0.097
0.1	298.15	1069.563	0.096
0.1	303.15	1067.533	0.095
0.1	308.15	1065.386	0.094
0.1	310.15	1064.496	0.094
0.1	313.15	1063.897	0.095

System: water + magnesium chloride; phases: Liquid
Fixed: Pressure, kPa = 101
Property: Speed of sound, m/s (Liquid); method: Optel OPTIME 1.0; Poland
Mass fraction of magnesium chloride	Temperature, K	Speed of sound, m/s	uncertainty
0.01	298.15	1507.96	2.54
0.01	310.15	1534.02	2.38
0.05	298.15	1558.56	2.43
0.05	310.15	1581.39	2.29
0.1	298.15	1616.59	2.34
0.1	310.15	1636.4	2.22

System: water + magnesium chloride; phases: Liquid
Fixed: Pressure, kPa = 101
Property: Mass density, kg/m3 (Liquid); method: Vibrating tube method
Mass fraction of magnesium chloride	Temperature, K	Mass density, kg/m3	uncertainty
0.01	293.15	1006.471	0.037
0.01	298.15	1005.274	0.036
0.01	303.15	1003.852	0.036
0.01	308.15	1002.22	0.035
0.01	310.15	1001.514	0.035
0.01	313.15	1000.41	0.035
0.05	293.15	1042.193	0.067
0.05	298.15	1040.857	0.066
0.05	303.15	1039.33	0.066
0.05	308.15	1037.638	0.065
0.05	310.15	1036.919	0.065
0.05	313.15	1035.788	0.065
0.1	293.15	1082.598	0.108
0.1	298.15	1081.132	0.107
0.1	303.15	1079.515	0.107
0.1	308.15	1077.765	0.106
0.1	310.15	1077.033	0.106
0.1	313.15	1075.891	0.106

System: 2,2-bis(hydroxymethyl)-1,3-propanediol + sodium chloride + water; phases: Liquid
Fixed: Pressure, kPa = 101
Property: Speed of sound, m/s (Liquid); method: Optel OPTIME 1.0; Poland
Solvent: Mass fraction of sodium chloride	Temperature, K	Molality, mol/kg of 2,2-bis(hydroxymethyl)-1,3-propanediol	Speed of sound, m/s	uncertainty
0.01	298.15	0	1507.49	2.42
0.01	298.15	0.03851	1509.41	2.42
0.01	298.15	0.0643	1510.67	2.41
0.01	298.15	0.1018	1512.53	2.41
0.01	298.15	0.1308	1513.93	2.41
0.01	298.15	0.1584	1515.31	2.4
0.01	298.15	0.1845	1516.52	2.4
0.01	298.15	0.2162	1518.06	2.4
0.01	298.15	0.2492	1519.68	2.39
0.01	310.15	0	1533.44	2.27
0.01	310.15	0.03851	1535.09	2.27
0.01	310.15	0.0643	1536.15	2.27
0.01	310.15	0.1018	1537.75	2.27
0.01	310.15	0.1308	1538.82	2.27
0.01	310.15	0.1584	1539.94	2.27
0.01	310.15	0.1845	1541.01	2.26
0.01	310.15	0.2162	1542.25	2.26
0.01	310.15	0.2492	1543.5	2.26
0.05	298.15	0	1550.7	2.48
0.05	298.15	0.03823	1552.5	2.48
0.05	298.15	0.06212	1553.64	2.47
0.05	298.15	0.09548	1555.19	2.47
0.05	298.15	0.1223	1556.4	2.4
0.05	298.15	0.1483	1557.57	2.4
0.05	298.15	0.1742	1558.85	2.4
0.05	298.15	0.2051	1560.26	2.39
0.05	298.15	0.2334	1561.44	2.38
0.05	310.15	0	1573.3	2.32
0.05	310.15	0.03823	1574.95	2.31
0.05	310.15	0.06212	1575.85	2.31
0.05	310.15	0.09548	1577.2	2.3
0.05	310.15	0.1223	1578.27	2.27
0.05	310.15	0.1483	1579.32	2.26
0.05	310.15	0.1742	1580.14	2.26
0.05	310.15	0.2051	1581.39	2.26
0.05	310.15	0.2334	1582.5	2.26
0.1	298.15	0	1607.8	2.53
0.1	298.15	0.0297	1609.03	2.52
0.1	298.15	0.03854	1609.4	2.52
0.1	298.15	0.05886	1610.21	2.51
0.1	298.15	0.07483	1610.85	2.51
0.1	298.15	0.08399	1611.23	2.51
0.1	298.15	0.09775	1611.8	2.51
0.1	310.15	0	1625.38	2.35
0.1	310.15	0.0297	1626.51	2.34
0.1	310.15	0.03854	1626.83	2.34
0.1	310.15	0.05886	1627.56	2.34
0.1	310.15	0.07483	1628.12	2.34
0.1	310.15	0.08399	1628.45	2.33
0.1	310.15	0.09775	1628.9	2.33

System: 2,2-bis(hydroxymethyl)-1,3-propanediol + sodium chloride + water; phases: Liquid
Fixed: Pressure, kPa = 101
Property: Mass density, kg/m3 (Liquid); method: Vibrating tube method
Solvent: Mass fraction of sodium chloride	Temperature, K	Molality, mol/kg of 2,2-bis(hydroxymethyl)-1,3-propanediol	Mass density, kg/m3	uncertainty
0.01	293.15	0	1005.282	0.263
0.01	293.15	0.03851	1006.588	0.264
0.01	293.15	0.04994	1006.972	0.264
0.01	293.15	0.0643	1007.456	0.265
0.01	293.15	0.07836	1007.934	0.265
0.01	293.15	0.1018	1008.712	0.265
0.01	293.15	0.1308	1009.66	0.266
0.01	293.15	0.1584	1010.589	0.267
0.01	293.15	0.1845	1011.436	0.268
0.01	293.15	0.2162	1012.46	0.268
0.01	293.15	0.2492	1013.492	0.269
0.01	298.15	0	1004.042	0.262
0.01	298.15	0.03851	1005.342	0.263
0.01	298.15	0.04994	1005.722	0.263
0.01	298.15	0.0643	1006.199	0.263
0.01	298.15	0.07836	1006.668	0.264
0.01	298.15	0.1018	1007.441	0.264
0.01	298.15	0.1308	1008.398	0.265
0.01	298.15	0.1584	1009.301	0.266
0.01	298.15	0.1845	1010.144	0.267
0.01	298.15	0.2162	1011.169	0.267
0.01	298.15	0.2492	1012.202	0.268
0.01	303.15	0	1002.568	0.261
0.01	303.15	0.03851	1003.86	0.261
0.01	303.15	0.04994	1004.239	0.262
0.01	303.15	0.0643	1004.714	0.262
0.01	303.15	0.07836	1005.182	0.263
0.01	303.15	0.1018	1005.948	0.263
0.01	303.15	0.1308	1006.9	0.264
0.01	303.15	0.1584	1007.792	0.265
0.01	303.15	0.1845	1008.645	0.265
0.01	303.15	0.2162	1009.644	0.266
0.01	303.15	0.2492	1010.685	0.267
0.01	308.15	0	1000.887	0.259
0.01	308.15	0.03851	1002.172	0.26
0.01	308.15	0.04994	1002.552	0.26
0.01	308.15	0.0643	1003.022	0.261
0.01	308.15	0.07836	1003.489	0.261
0.01	308.15	0.1018	1004.248	0.262
0.01	308.15	0.1308	1005.202	0.262
0.01	308.15	0.1584	1006.082	0.263
0.01	308.15	0.1845	1006.929	0.264
0.01	308.15	0.2162	1007.922	0.265
0.01	308.15	0.2492	1008.97	0.265
0.01	310.15	0	1000.168	0.258
0.01	310.15	0.03851	1001.447	0.259
0.01	310.15	0.04994	1001.823	0.26
0.01	310.15	0.0643	1002.293	0.26
0.01	310.15	0.07836	1002.751	0.26
0.01	310.15	0.1018	1003.514	0.261
0.01	310.15	0.1308	1004.453	0.262
0.01	310.15	0.1584	1005.339	0.263
0.01	310.15	0.1845	1006.17	0.263
0.01	310.15	0.2162	1007.172	0.264
0.01	310.15	0.2492	1008.2	0.265
0.01	313.15	0	999.031	0.258
0.01	313.15	0.03851	1000.305	0.258
0.01	313.15	0.04994	1000.679	0.259
0.01	313.15	0.0643	1001.148	0.259
0.01	313.15	0.07836	1001.604	0.259
0.01	313.15	0.1018	1002.362	0.26
0.01	313.15	0.1308	1003.3	0.261
0.01	313.15	0.1584	1004.175	0.262
0.01	313.15	0.1845	1005.012	0.262
0.01	313.15	0.2162	1006.006	0.263
0.01	313.15	0.2492	1007.03	0.264
0.05	293.15	0	1033.896	0.285
0.05	293.15	0.03823	1035.11	0.288
0.05	293.15	0.04896	1035.449	0.288
0.05	293.15	0.06212	1035.861	0.288
0.05	293.15	0.07479	1036.258	0.288
0.05	293.15	0.09548	1036.905	0.289
0.05	293.15	0.1223	1037.737	0.29
0.05	293.15	0.1483	1038.525	0.29
0.05	293.15	0.1742	1039.312	0.291
0.05	293.15	0.2051	1040.242	0.292
0.05	293.15	0.2334	1041.115	0.293
0.05	298.15	0	1032.332	0.285
0.05	298.15	0.03823	1033.535	0.287
0.05	298.15	0.04896	1033.87	0.287
0.05	298.15	0.06212	1034.277	0.287
0.05	298.15	0.07479	1034.67	0.287
0.05	298.15	0.09548	1035.308	0.288
0.05	298.15	0.1223	1036.128	0.288
0.05	298.15	0.1483	1036.919	0.289
0.05	298.15	0.1742	1037.684	0.29
0.05	298.15	0.2051	1038.602	0.29
0.05	298.15	0.2334	1039.439	0.291
0.05	303.15	0	1030.599	0.283
0.05	303.15	0.03823	1031.793	0.285
0.05	303.15	0.04896	1032.126	0.286
0.05	303.15	0.06212	1032.531	0.285
0.05	303.15	0.07479	1032.924	0.286
0.05	303.15	0.09548	1033.557	0.287
0.05	303.15	0.1223	1034.368	0.287
0.05	303.15	0.1483	1035.151	0.288
0.05	303.15	0.1742	1035.925	0.288
0.05	303.15	0.2051	1036.821	0.289
0.05	303.15	0.2334	1037.65	0.289
0.05	308.15	0	1028.702	0.281
0.05	308.15	0.03823	1029.892	0.284
0.05	308.15	0.04896	1030.222	0.284
0.05	308.15	0.06212	1030.628	0.284
0.05	308.15	0.07479	1031.013	0.284
0.05	308.15	0.09548	1031.64	0.285
0.05	308.15	0.1223	1032.455	0.285
0.05	308.15	0.1483	1033.232	0.286
0.05	308.15	0.1742	1033.984	0.286
0.05	308.15	0.2051	1034.885	0.287
0.05	308.15	0.2334	1035.723	0.288
0.05	310.15	0	1027.902	0.281
0.05	310.15	0.03823	1029.087	0.283
0.05	310.15	0.04896	1029.418	0.284
0.05	310.15	0.06212	1029.821	0.283
0.05	310.15	0.07479	1030.208	0.283
0.05	310.15	0.09548	1030.831	0.284
0.05	310.15	0.1223	1031.642	0.285
0.05	310.15	0.1483	1032.415	0.285
0.05	310.15	0.1742	1033.165	0.286
0.05	310.15	0.2051	1034.067	0.286
0.05	310.15	0.2334	1034.885	0.287
0.05	313.15	0	1026.652	0.279
0.05	313.15	0.03823	1027.835	0.282
0.05	313.15	0.04896	1028.164	0.282
0.05	313.15	0.06212	1028.568	0.282
0.05	313.15	0.07479	1028.955	0.282
0.05	313.15	0.09548	1029.581	0.283
0.05	313.15	0.1223	1030.383	0.283
0.05	313.15	0.1483	1031.161	0.284
0.05	313.15	0.1742	1031.912	0.285
0.05	313.15	0.2051	1032.804	0.285
0.05	313.15	0.2334	1033.612	0.286
0.1	293.15	0	1071.453	0.318
0.1	293.15	0.0297	1072.237	0.319
0.1	293.15	0.03362	1072.341	0.319
0.1	293.15	0.03854	1072.469	0.319
0.1	293.15	0.05283	1072.84	0.32
0.1	293.15	0.05886	1072.989	0.32
0.1	293.15	0.0676	1073.215	0.32
0.1	293.15	0.07483	1073.399	0.32
0.1	293.15	0.08399	1073.631	0.32
0.1	293.15	0.09775	1073.97	0.321
0.1	298.15	0	1069.563	0.317
0.1	298.15	0.0297	1070.347	0.319
0.1	298.15	0.03362	1070.449	0.318
0.1	298.15	0.03854	1070.577	0.318
0.1	298.15	0.05283	1070.945	0.318
0.1	298.15	0.05886	1071.098	0.318
0.1	298.15	0.0676	1071.32	0.318
0.1	298.15	0.07483	1071.497	0.318
0.1	298.15	0.08399	1071.726	0.319
0.1	298.15	0.09775	1072.071	0.319
0.1	303.15	0	1067.533	0.315
0.1	303.15	0.0297	1068.316	0.317
0.1	303.15	0.03362	1068.414	0.316
0.1	303.15	0.03854	1068.541	0.316
0.1	303.15	0.05283	1068.91	0.316
0.1	303.15	0.05886	1069.057	0.316
0.1	303.15	0.0676	1069.276	0.316
0.1	303.15	0.07483	1069.449	0.317
0.1	303.15	0.08399	1069.688	0.317
0.1	303.15	0.09775	1070.019	0.317
0.1	308.15	0	1065.386	0.313
0.1	308.15	0.0297	1066.166	0.314
0.1	308.15	0.03362	1066.265	0.314
0.1	308.15	0.03854	1066.389	0.314
0.1	308.15	0.05283	1066.752	0.314
0.1	308.15	0.05886	1066.901	0.314
0.1	308.15	0.0676	1067.12	0.315
0.1	308.15	0.07483	1067.291	0.315
0.1	308.15	0.08399	1067.53	0.315
0.1	308.15	0.09775	1067.852	0.315
0.1	310.15	0	1064.496	0.312
0.1	310.15	0.0297	1065.272	0.313
0.1	310.15	0.03362	1065.372	0.313
0.1	310.15	0.03854	1065.492	0.313
0.1	310.15	0.05283	1065.856	0.313
0.1	310.15	0.05886	1066	0.314
0.1	310.15	0.0676	1066.224	0.314
0.1	310.15	0.07483	1066.399	0.314
0.1	310.15	0.08399	1066.617	0.314
0.1	310.15	0.09775	1066.95	0.314
0.1	313.15	0	1063.897	0.311
0.1	313.15	0.0297	1063.897	0.312
0.1	313.15	0.03362	1063.997	0.312
0.1	313.15	0.03854	1064.12	0.312
0.1	313.15	0.05283	1064.475	0.312
0.1	313.15	0.05886	1064.624	0.312
0.1	313.15	0.0676	1064.839	0.313
0.1	313.15	0.07483	1065.02	0.313
0.1	313.15	0.08399	1065.236	0.313
0.1	313.15	0.09775	1065.57	0.313

System: 2,2-bis(hydroxymethyl)-1,3-propanediol + water + magnesium chloride; phases: Liquid
Fixed: Pressure, kPa = 101
Property: Speed of sound, m/s (Liquid); method: Optel OPTIME 1.0; Poland
Solvent: Mass fraction of magnesium chloride	Temperature, K	Molality, mol/kg of 2,2-bis(hydroxymethyl)-1,3-propanediol	Speed of sound, m/s	uncertainty
0.01	298.15	0	1507.96	2.89
0.01	298.15	0.04244	1510.08	2.89
0.01	298.15	0.05321	1510.61	2.89
0.01	298.15	0.06738	1511.32	2.89
0.01	298.15	0.102	1513.02	2.89
0.01	298.15	0.1324	1514.51	2.89
0.01	298.15	0.1599	1515.85	2.89
0.01	298.15	0.1878	1517.2	2.88
0.01	298.15	0.2212	1518.85	2.89
0.01	298.15	0.2506	1520.27	2.88
0.01	310.15	0	1534.02	2.74
0.01	310.15	0.04244	1535.92	2.75
0.01	310.15	0.05321	1536.38	2.74
0.01	310.15	0.06738	1536.98	2.74
0.01	310.15	0.102	1538.49	2.75
0.01	310.15	0.1324	1539.84	2.74
0.01	310.15	0.1599	1541.03	2.74
0.01	310.15	0.1878	1542.2	2.74
0.01	310.15	0.2212	1543.51	2.75
0.01	310.15	0.2506	1544.6	2.75
0.05	298.15	0	1558.56	2.78
0.05	298.15	0.03482	1560.3	2.77
0.05	298.15	0.0586	1561.5	2.77
0.05	298.15	0.09131	1563.13	2.76
0.05	298.15	0.1179	1564.45	2.88
0.05	298.15	0.1432	1565.66	2.88
0.05	298.15	0.1666	1566.81	2.88
0.05	298.15	0.1964	1568.22	2.88
0.05	298.15	0.2239	1569.59	2.88
0.05	310.15	0	1581.39	2.66
0.05	310.15	0.03482	1582.97	2.65
0.05	310.15	0.0586	1583.96	2.65
0.05	310.15	0.09131	1585.45	2.64
0.05	310.15	0.1179	1586.49	2.74
0.05	310.15	0.1432	1587.61	2.74
0.05	310.15	0.1666	1588.48	2.74
0.05	310.15	0.1964	1589.77	2.74
0.05	310.15	0.2239	1591.03	2.74
0.1	298.15	0	1616.59	2.7
0.1	298.15	0.03622	1618.2	2.69
0.1	298.15	0.04529	1618.59	2.69
0.1	298.15	0.05503	1619.02	2.69
0.1	298.15	0.06319	1619.38	2.69
0.1	298.15	0.07216	1619.77	2.69
0.1	298.15	0.0807	1620.13	2.68
0.1	298.15	0.09046	1620.53	2.68
0.1	310.15	0	1636.4	2.6
0.1	310.15	0.03622	1637.8	2.59
0.1	310.15	0.04529	1638.16	2.59
0.1	310.15	0.05503	1638.51	2.59
0.1	310.15	0.06319	1638.83	2.59
0.1	310.15	0.07216	1639.15	2.59
0.1	310.15	0.0807	1639.45	2.58
0.1	310.15	0.09046	1639.8	2.58

System: 2,2-bis(hydroxymethyl)-1,3-propanediol + water + magnesium chloride; phases: Liquid
Fixed: Pressure, kPa = 101
Property: Mass density, kg/m3 (Liquid); method: Vibrating tube method
Solvent: Mass fraction of magnesium chloride	Temperature, K	Molality, mol/kg of 2,2-bis(hydroxymethyl)-1,3-propanediol	Mass density, kg/m3	uncertainty
0.01	293.15	0	1006.471	0.41
0.01	293.15	0.04244	1007.913	0.412
0.01	293.15	0.05321	1008.278	0.412
0.01	293.15	0.06738	1008.749	0.413
0.01	293.15	0.07976	1009.168	0.413
0.01	293.15	0.102	1009.901	0.414
0.01	293.15	0.1324	1010.909	0.415
0.01	293.15	0.1599	1011.81	0.416
0.01	293.15	0.1878	1012.73	0.417
0.01	293.15	0.2212	1013.8	0.419
0.01	293.15	0.2506	1014.754	0.42
0.01	298.15	0	1005.274	0.409
0.01	298.15	0.04244	1006.706	0.411
0.01	298.15	0.05321	1007.067	0.411
0.01	298.15	0.06738	1007.535	0.411
0.01	298.15	0.07976	1007.95	0.412
0.01	298.15	0.102	1008.679	0.413
0.01	298.15	0.1324	1009.678	0.414
0.01	298.15	0.1599	1010.58	0.415
0.01	298.15	0.1878	1011.485	0.416
0.01	298.15	0.2212	1012.558	0.417
0.01	298.15	0.2506	1013.495	0.418
0.01	303.15	0	1003.852	0.407
0.01	303.15	0.04244	1005.276	0.409
0.01	303.15	0.05321	1005.635	0.409
0.01	303.15	0.06738	1006.098	0.41
0.01	303.15	0.07976	1006.509	0.41
0.01	303.15	0.102	1007.229	0.411
0.01	303.15	0.1324	1008.22	0.412
0.01	303.15	0.1599	1009.105	0.413
0.01	303.15	0.1878	1010.013	0.414
0.01	303.15	0.2212	1011.074	0.416
0.01	303.15	0.2506	1012	0.417
0.01	308.15	0	1002.22	0.405
0.01	308.15	0.04244	1003.636	0.407
0.01	308.15	0.05321	1003.992	0.407
0.01	308.15	0.06738	1004.46	0.408
0.01	308.15	0.07976	1004.858	0.408
0.01	308.15	0.102	1005.582	0.409
0.01	308.15	0.1324	1006.563	0.41
0.01	308.15	0.1599	1007.451	0.411
0.01	308.15	0.1878	1008.341	0.412
0.01	308.15	0.2212	1009.405	0.414
0.01	308.15	0.2506	1010.319	0.415
0.01	310.15	0	1001.514	0.405
0.01	310.15	0.04244	1002.928	0.406
0.01	310.15	0.05321	1003.282	0.407
0.01	310.15	0.06738	1003.749	0.407
0.01	310.15	0.07976	1004.146	0.408
0.01	310.15	0.102	1004.868	0.408
0.01	310.15	0.1324	1005.844	0.41
0.01	310.15	0.1599	1006.732	0.411
0.01	310.15	0.1878	1007.621	0.412
0.01	310.15	0.2212	1008.682	0.413
0.01	310.15	0.2506	1009.6	0.414
0.01	313.15	0	1000.41	0.403
0.01	313.15	0.04244	1001.815	0.405
0.01	313.15	0.05321	1002.168	0.405
0.01	313.15	0.06738	1002.629	0.406
0.01	313.15	0.07976	1003.028	0.406
0.01	313.15	0.102	1003.746	0.407
0.01	313.15	0.1324	1004.718	0.408
0.01	313.15	0.1599	1005.597	0.409
0.01	313.15	0.1878	1006.48	0.41
0.01	313.15	0.2212	1007.53	0.411
0.01	313.15	0.2506	1008.448	0.413
0.05	293.15	0	1042.193	0.451
0.05	293.15	0.03482	1043.28	0.453
0.05	293.15	0.04476	1043.588	0.453
0.05	293.15	0.0586	1044.013	0.454
0.05	293.15	0.07	1044.365	0.454
0.05	293.15	0.09131	1045.017	0.455
0.05	293.15	0.1179	1045.819	0.456
0.05	293.15	0.1432	1046.591	0.457
0.05	293.15	0.1666	1047.268	0.457
0.05	293.15	0.1964	1048.162	0.458
0.05	293.15	0.2239	1048.973	0.459
0.05	298.15	0	1040.857	0.45
0.05	298.15	0.03482	1041.935	0.451
0.05	298.15	0.04476	1042.24	0.451
0.05	298.15	0.0586	1042.662	0.452
0.05	298.15	0.07	1043.01	0.452
0.05	298.15	0.09131	1043.655	0.453
0.05	298.15	0.1179	1044.448	0.454
0.05	298.15	0.1432	1045.212	0.455
0.05	298.15	0.1666	1045.889	0.456
0.05	298.15	0.1964	1046.773	0.457
0.05	298.15	0.2239	1047.567	0.458
0.05	303.15	0	1039.33	0.448
0.05	303.15	0.03482	1040.402	0.449
0.05	303.15	0.04476	1040.706	0.45
0.05	303.15	0.0586	1041.127	0.45
0.05	303.15	0.07	1041.47	0.451
0.05	303.15	0.09131	1042.109	0.451
0.05	303.15	0.1179	1042.897	0.452
0.05	303.15	0.1432	1043.66	0.453
0.05	303.15	0.1666	1044.327	0.454
0.05	303.15	0.1964	1045.204	0.455
0.05	303.15	0.2239	1045.996	0.456
0.05	308.15	0	1037.638	0.446
0.05	308.15	0.03482	1038.704	0.447
0.05	308.15	0.04476	1039.006	0.448
0.05	308.15	0.0586	1039.425	0.448
0.05	308.15	0.07	1039.768	0.449
0.05	308.15	0.09131	1040.402	0.449
0.05	308.15	0.1179	1041.192	0.45
0.05	308.15	0.1432	1041.938	0.451
0.05	308.15	0.1666	1042.611	0.452
0.05	308.15	0.1964	1043.47	0.453
0.05	308.15	0.2239	1044.252	0.454
0.05	310.15	0	1036.919	0.445
0.05	310.15	0.03482	1037.981	0.447
0.05	310.15	0.04476	1038.282	0.447
0.05	310.15	0.0586	1038.7	0.447
0.05	310.15	0.07	1039.04	0.448
0.05	310.15	0.09131	1039.676	0.449
0.05	310.15	0.1179	1040.462	0.449
0.05	310.15	0.1432	1041.207	0.45
0.05	310.15	0.1666	1041.866	0.451
0.05	310.15	0.1964	1042.735	0.452
0.05	310.15	0.2239	1043.502	0.453
0.05	313.15	0	1035.788	0.444
0.05	313.15	0.03482	1036.847	0.445
0.05	313.15	0.04476	1037.148	0.446
0.05	313.15	0.0586	1037.561	0.446
0.05	313.15	0.07	1037.905	0.446
0.05	313.15	0.09131	1038.539	0.447
0.05	313.15	0.1179	1039.32	0.448
0.05	313.15	0.1432	1040.06	0.449
0.05	313.15	0.1666	1040.719	0.45
0.05	313.15	0.1964	1041.582	0.451
0.05	313.15	0.2239	1042.341	0.452
0.1	293.15	0	1082.598	0.499
0.1	293.15	0.03622	1083.564	0.5
0.1	293.15	0.04086	1083.685	0.5
0.1	293.15	0.04529	1083.803	0.501
0.1	293.15	0.05061	1083.941	0.501
0.1	293.15	0.05503	1084.056	0.501
0.1	293.15	0.06319	1084.269	0.501
0.1	293.15	0.07216	1084.494	0.501
0.1	293.15	0.0807	1084.712	0.502
0.1	293.15	0.09046	1084.96	0.502
0.1	298.15	0	1081.132	0.497
0.1	298.15	0.03622	1082.091	0.499
0.1	298.15	0.04086	1082.212	0.499
0.1	298.15	0.04529	1082.326	0.499
0.1	298.15	0.05061	1082.464	0.499
0.1	298.15	0.05503	1082.574	0.499
0.1	298.15	0.06319	1082.786	0.499
0.1	298.15	0.07216	1083.009	0.5
0.1	298.15	0.0807	1083.227	0.5
0.1	298.15	0.09046	1083.477	0.5
0.1	303.15	0	1079.515	0.495
0.1	303.15	0.03622	1080.469	0.497
0.1	303.15	0.04086	1080.59	0.497
0.1	303.15	0.04529	1080.702	0.497
0.1	303.15	0.05061	1080.837	0.497
0.1	303.15	0.05503	1080.948	0.497
0.1	303.15	0.06319	1081.16	0.497
0.1	303.15	0.07216	1081.389	0.498
0.1	303.15	0.0807	1081.6	0.498
0.1	303.15	0.09046	1081.84	0.498
0.1	308.15	0	1077.765	0.493
0.1	308.15	0.03622	1078.715	0.495
0.1	308.15	0.04086	1078.835	0.495
0.1	308.15	0.04529	1078.948	0.495
0.1	308.15	0.05061	1079.08	0.495
0.1	308.15	0.05503	1079.192	0.495
0.1	308.15	0.06319	1079.398	0.495
0.1	308.15	0.07216	1079.624	0.496
0.1	308.15	0.0807	1079.838	0.496
0.1	308.15	0.09046	1080.08	0.496
0.1	310.15	0	1077.033	0.493
0.1	310.15	0.03622	1077.978	0.494
0.1	310.15	0.04086	1078.098	0.494
0.1	310.15	0.04529	1078.207	0.494
0.1	310.15	0.05061	1078.341	0.494
0.1	310.15	0.05503	1078.455	0.494
0.1	310.15	0.06319	1078.658	0.494
0.1	310.15	0.07216	1078.88	0.495
0.1	310.15	0.0807	1079.089	0.495
0.1	310.15	0.09046	1079.331	0.495
0.1	313.15	0	1075.891	0.491
0.1	313.15	0.03622	1076.833	0.492
0.1	313.15	0.04086	1076.952	0.492
0.1	313.15	0.04529	1077.062	0.493
0.1	313.15	0.05061	1077.194	0.493
0.1	313.15	0.05503	1077.306	0.493
0.1	313.15	0.06319	1077.51	0.493
0.1	313.15	0.07216	1077.732	0.493
0.1	313.15	0.0807	1077.937	0.494
0.1	313.15	0.09046	1078.176	0.494
