Measured thermophysical data. Potential heat transfer enhancement of functionalized graphene nanoplatelet dispersions in a propylene glycol-water mixture. Thermophysical profile
Source: J. Chem. Thermodyn., 2018, 10.1016/j.jct.2018.04.007
Compound 1: 1,2-propanediol, C3H8O2, InChI=1S/C3H8O2/c1-3(5)2-4/h3-5H,2H2,1H3, purity 99.5%
Compound 2: water, H2O, InChI=1S/H2O/h1H2, purity 99.9%

System: 1,2-propanediol + water; phases: Liquid
Fixed: Pressure, kPa = 96.2
Fixed: Mass fraction of 1,2-propanediol = 0.3
Property: Mass density, kg/m3 (Liquid); method: Pycnometric method
Temperature, K	Mass density, kg/m3	uncertainty
293.15	1023.1	1.1
303.15	1019.2	1.1
313.15	1014.5	1.1
323.15	1009	1.1

System: 1,2-propanediol + water; phases: Liquid
Fixed: Pressure, kPa = 96.2
Fixed: Mass fraction of 1,2-propanediol = 0.3
Property: Molar heat capacity at constant pressure, J/K/mol (Liquid); method: DSC
Temperature, K	Molar heat capacity at constant pressure, J/K/mol	uncertainty
293.15	89.4426483075505	4.13567104243376
303.15	90.0034172624568	4.18240178867595
313.15	90.5174554711209	4.20576716179705
323.15	91.0314936797849	4.22913253491814

System: 1,2-propanediol + water; phases: Liquid
Fixed: Pressure, kPa = 96.2
Fixed: Mass fraction of 1,2-propanediol = 0.3
Property: Thermal conductivity, W/m/K (Liquid); method: THOTW
Temperature, K	Thermal conductivity, W/m/K	uncertainty
293.15	0.443	0.013
303.15	0.454	0.014
313.15	0.463	0.014
323.15	0.472	0.014

System: 1,2-propanediol + water; phases: Liquid
Fixed: Pressure, kPa = 96.2
Fixed: Mass fraction of 1,2-propanediol = 0.3
Property: Viscosity, Pa*s (Liquid); method: Cone and plate viscometry
Temperature, K	Viscosity, Pa*s	uncertainty
293.15	0.00302	9e-05
303.15	0.0022	7e-05
313.15	0.00161	5e-05
323.15	0.00131	4e-05
