Measured thermophysical data. Phase equilibrium, crystallization behavior and thermodynamic studies of (m-dinitrobenzene + vanillin) eutectic system
Source: J. Chem. Thermodyn., 2015, 10.1016/j.jct.2015.05.020
Compound 1: 1,3-dinitrobenzene, C6H4N2O4, InChI=1S/C6H4N2O4/c9-7(10)5-2-1-3-6(4-5)8(11)12/h1-4H, purity 98%
Compound 2: vanillin, C8H8O3, InChI=1S/C8H8O3/c1-11-8-4-6(5-9)2-3-7(8)10/h2-5,10H,1H3, purity 99%

System: 1,3-dinitrobenzene; phases: Crystal, Liquid, Air at 1 atmosphere
Property: Molar enthalpy of transition or fusion, kJ/mol (Crystal); method: DSC
Molar enthalpy of transition or fusion, kJ/mol	uncertainty
18.83	0.99

System: 1,3-dinitrobenzene; phases: Crystal, Liquid, Air at 1 atmosphere
Property: Normal melting temperature, K (Crystal); method: VISOBS
Normal melting temperature, K	uncertainty
361.85	1.06

System: vanillin; phases: Crystal, Liquid, Air at 1 atmosphere
Property: Molar enthalpy of transition or fusion, kJ/mol (Crystal); method: DSC
Molar enthalpy of transition or fusion, kJ/mol	uncertainty
24.79	1.72

System: vanillin; phases: Crystal, Liquid, Air at 1 atmosphere
Property: Normal melting temperature, K (Crystal); method: VISOBS
Normal melting temperature, K	uncertainty
354.75	1.06

System: 1,3-dinitrobenzene + vanillin; phases: Crystal, Crystal, Liquid, Air at 1 atmosphere
Property: Eutectic composition: mole fraction of 1,3-dinitrobenzene (Crystal); method: Derived from phase diagram analysis
Eutectic composition: mole fraction of 1,3-dinitrobenzene	uncertainty
0.5156	0.0038

System: 1,3-dinitrobenzene + vanillin; phases: Crystal, Crystal, Liquid, Air at 1 atmosphere
Property: Eutectic temperature, K (Crystal); method: DTA
Eutectic temperature, K	uncertainty
324.32	1.06

System: 1,3-dinitrobenzene + vanillin; phases: Liquid, Crystal
Fixed: Pressure, kPa = 100
Property: Solid-liquid equilibrium temperature, K (Liquid); method: VISOBS
Mole fraction of 1,3-dinitrobenzene	Solid-liquid equilibrium temperature, K	uncertainty
0	354.75	1.01
0.0909	351.35	1.01
0.1818	347.45	1.01
0.2769	342.05	1.01
0.3939	335.25	1.01
0.4687	329.15	1.01
0.5156	324.55	1.01

System: 1,3-dinitrobenzene + vanillin; phases: Liquid, Crystal
Fixed: Pressure, kPa = 100
Property: Solid-liquid equilibrium temperature, K (Liquid); method: VISOBS
Mole fraction of 1,3-dinitrobenzene	Solid-liquid equilibrium temperature, K	uncertainty
0.5156	324.55	1.03
0.5397	329.25	1.02
0.5806	334.85	1.02
0.6563	342.15	1.01
0.7619	349.65	1.01
0.8852	357.65	1.01
1	361.85	1.01
