Measured thermophysical data. Development of a Henry s constant correlation and solubility measurements of n-pentane, i-pentane, cyclopentane, n-hexane, and toluene in water
Source: J. Chem. Thermodyn., 2008, 10.1016/j.jct.2008.01.019
Compound 1: pentane, C5H12, InChI=1S/C5H12/c1-3-5-4-2/h3-5H2,1-2H3
Compound 2: 2-methylbutane, C5H12, InChI=1S/C5H12/c1-4-5(2)3/h5H,4H2,1-3H3
Compound 3: cyclopentane, C5H10, InChI=1S/C5H10/c1-2-4-5-3-1/h1-5H2
Compound 4: hexane, C6H14, InChI=1S/C6H14/c1-3-5-6-4-2/h3-6H2,1-2H3
Compound 5: toluene, C7H8, InChI=1S/C7H8/c1-7-5-3-2-4-6-7/h2-6H,1H3
Compound 6: water, H2O, InChI=1S/H2O/h1H2

System: pentane + water; phases: Liquid mixture 1, Liquid mixture 2
Fixed: Pressure, kPa = 101
Property: Mole fraction of pentane (Liquid mixture 1); method: Chromatography
Temperature, K	Mole fraction of pentane	uncertainty
286.65	1.1e-05	1.3e-06
295.45	1.03e-05	9e-07

System: 2-methylbutane + water; phases: Liquid mixture 1, Liquid mixture 2
Property: Mole fraction of 2-methylbutane (Liquid mixture 1); method: Chromatography
Temperature, K	Pressure, kPa	Mole fraction of 2-methylbutane	uncertainty
293.2	101	1.24e-05	4e-07

System: cyclopentane + water; phases: Liquid mixture 1, Liquid mixture 2
Fixed: Pressure, kPa = 101
Property: Mole fraction of cyclopentane (Liquid mixture 1); method: Chromatography
Temperature, K	Mole fraction of cyclopentane	uncertainty
276.5	4.62e-05	1.1e-06
282.2	4.29e-05	1.1e-06
296.2	4.17e-05	1.6e-06

System: hexane + water; phases: Liquid, Crystal
Fixed: Pressure, kPa = 101
Property: Mole fraction of hexane (Liquid); method: Chromatography
Temperature, K	Mole fraction of hexane	uncertainty
280.8	3.1e-06	2e-07
295.5	2.7e-06	4e-07

System: toluene + water; phases: Liquid mixture 1, Liquid mixture 2
Property: Mole fraction of toluene (Liquid mixture 1); method: Chromatography
Temperature, K	Pressure, kPa	Mole fraction of toluene	uncertainty
295.7	101	0.0001123	9e-07
