Measured thermophysical data. (Solid + liquid) phase equilibrium for the ternary system (K2CO3-Na2CO3-H2O) at T = (323.15, 343.15, and 363.15) K
Source: J. Chem. Thermodyn., 2017, 10.1016/j.jct.2017.01.001
Compound 1: potassium carbonate, CK2O3, InChI=1S/CH2O3.2K/c2-1(3)4;;/h(H2,2,3,4);;/q;2*+1/p-2, purity 99%
Compound 2: sodium carbonate, CNa2O3, InChI=1S/CH2O3.2Na/c2-1(3)4;;/h(H2,2,3,4);;/q;2*+1/p-2, purity 99.8%
Compound 3: water, H2O, InChI=1S/H2O/h1H2, purity 99.8%

System: sodium carbonate + potassium carbonate + water; phases: Liquid, Crystal of intercomponent compound 1
Fixed: Pressure, kPa = 100
Property: Mass fraction of sodium carbonate (Liquid); method: Titration method
Temperature, K	Mass fraction of potassium carbonate	Mass fraction of sodium carbonate	uncertainty
323.15	0	0.323	0.0129
323.15	0.0558	0.2845	0.0115
323.15	0.1235	0.2549	0.0105
323.15	0.1826	0.22	0.01
323.15	0.2629	0.1652	0.0087
323.15	0.4224	0.0884	0.0149
323.15	0.43	0.0819	0.0151
343.15	0	0.3141	0.0126
343.15	0.1557	0.2246	0.0097
343.15	0.2501	0.1698	0.0092
343.15	0.299	0.136	0.0078
343.15	0.3945	0.1003	0.0074
363.15	0	0.3071	0.0123
363.15	0.1348	0.2356	0.0099
363.15	0.1839	0.206	0.0091
363.15	0.2096	0.1966	0.01
363.15	0.2567	0.1545	0.0082
363.15	0.3485	0.1203	0.0133
363.15	0.3574	0.1124	0.0135
363.15	0.4045	0.0927	0.0077

System: sodium carbonate + potassium carbonate + water; phases: Liquid, Crystal of intercomponent compound 2
Fixed: Pressure, kPa = 100
Property: Mass fraction of potassium carbonate (Liquid); method: gravimetric
Temperature, K	Mass fraction of sodium carbonate	Mass fraction of potassium carbonate	uncertainty
323.15	0.0819	0.43	0.0201
323.15	0.0782	0.4416	0.0192
323.15	0.071	0.4563	0.0191
323.15	0.0685	0.4598	0.0202
323.15	0.0641	0.4763	0.0214
323.15	0.0371	0.515	0.0196
323.15	0.0328	0.5213	0.0193
343.15	0.1003	0.3945	0.017
343.15	0.0992	0.3962	0.017
343.15	0.0837	0.4173	0.0274
343.15	0.0803	0.4393	0.0272
343.15	0.036	0.506	0.0203
343.15	0.0345	0.5284	0.0204
343.15	0.0263	0.5323	0.0189
343.15	0.0237	0.5579	0.02
363.15	0.0927	0.4045	0.0171
363.15	0.0472	0.4721	0.021
363.15	0.0381	0.5166	0.0205
363.15	0.0314	0.5416	0.0193
363.15	0.0225	0.591	0.0172

System: sodium carbonate + potassium carbonate + water; phases: Liquid, Crystal of intercomponent compound 3
Fixed: Pressure, kPa = 100
Property: Mass fraction of potassium carbonate (Liquid); method: gravimetric
Temperature, K	Mass fraction of sodium carbonate	Mass fraction of potassium carbonate	uncertainty
323.15	0.0328	0.5213	0.0192
323.15	0.0238	0.5286	0.0189
323.15	0.018	0.5387	0.0185
323.15	0	0.5495	0.0181
343.15	0.0237	0.5579	0.0177
343.15	0.0118	0.5595	0.0177
343.15	0.0102	0.5623	0.0176
343.15	0.0087	0.5678	0.0174
343.15	0	0.5753	0.017
363.15	0.0225	0.591	0.0164
363.15	0.0145	0.5943	0.0163
363.15	0	0.5961	0.0162

System: sodium carbonate + potassium carbonate + water; phases: Liquid
Fixed: Pressure, kPa = 100
Property: Mass density, kg/m3 (Liquid); method: Pycnometric method
Temperature, K	Mass fraction of potassium carbonate	Mass fraction of sodium carbonate	Mass density, kg/m3	uncertainty
323.15	0	0.323	1323.5	20.1
323.15	0.0558	0.2845	1351.3	20.1
323.15	0.1235	0.2549	1386.2	20.1
323.15	0.2629	0.1652	1448	20.1
323.15	0.43	0.0819	1541.6	20.2
323.15	0.4416	0.0782	1555.3	20.2
323.15	0.4563	0.071	1565.3	20.2
323.15	0.4763	0.0641	1563.6	20.2
323.15	0.515	0.0371	1593.9	20.3
323.15	0.5213	0.0328	1597.6	20.2
323.15	0.5387	0.018	1588.9	20.2
323.15	0.5495	0	1583.2	20.2
343.15	0	0.3141	1310.2	20.1
343.15	0.1557	0.2246	1359.7	20.1
343.15	0.299	0.136	1445.4	20.1
343.15	0.3945	0.1003	1521.8	20.2
343.15	0.3962	0.0992	1524.3	20.2
343.15	0.4173	0.0837	1526.8	20.2
343.15	0.506	0.036	1552.8	20.2
343.15	0.5284	0.0345	1580.4	20.2
343.15	0.5323	0.0263	1582.6	20.2
343.15	0.5579	0.0237	1615.6	20.2
343.15	0.5595	0.0118	1598.6	20.2
343.15	0.5678	0.0087	1592.1	20.2
343.15	0.5753	0	1594.3	20.2
363.15	0	0.3071	1268.7	20.1
363.15	0.1348	0.2356	1338.7	20.1
363.15	0.1839	0.206	1346.1	20.1
363.15	0.2567	0.1545	1383.2	20.1
363.15	0.3574	0.1124	1479.6	20.1
363.15	0.4045	0.0927	1503.2	20.2
363.15	0.5166	0.0381	1561.6	20.2
363.15	0.5416	0.0314	1588.5	20.2
363.15	0.591	0.0225	1659.5	20.2
363.15	0.5943	0.0145	1635.6	20.2
363.15	0.5961	0	1626.5	20.2

System: sodium carbonate + potassium carbonate + water; phases: Liquid, Crystal of intercomponent compound 2, Crystal of intercomponent compound 1
Fixed: Pressure, kPa = 100
Property: Mass fraction of potassium carbonate (Liquid); method: gravimetric
Temperature, K	Mass fraction of potassium carbonate	uncertainty
323.15	0.43	0.0172
343.15	0.3945	0.0158
363.15	0.4045	0.0162

System: sodium carbonate + potassium carbonate + water; phases: Liquid, Crystal of intercomponent compound 2, Crystal of intercomponent compound 1
Fixed: Pressure, kPa = 100
Property: Mass fraction of sodium carbonate (Liquid); method: gravimetric
Temperature, K	Mass fraction of sodium carbonate	uncertainty
323.15	0.0819	0.0033
343.15	0.1003	0.004
363.15	0.0927	0.0037

System: sodium carbonate + potassium carbonate + water; phases: Liquid, Crystal of intercomponent compound 3, Crystal of intercomponent compound 2
Fixed: Pressure, kPa = 100
Property: Mass fraction of potassium carbonate (Liquid); method: gravimetric
Temperature, K	Mass fraction of potassium carbonate	uncertainty
323.15	0.5213	0.0192
343.15	0.5579	0.0177
363.15	0.591	0.0164

System: sodium carbonate + potassium carbonate + water; phases: Liquid, Crystal of intercomponent compound 3, Crystal of intercomponent compound 2
Fixed: Pressure, kPa = 100
Property: Mass fraction of sodium carbonate (Liquid); method: gravimetric
Temperature, K	Mass fraction of sodium carbonate	uncertainty
323.15	0.0328	0.0013
343.15	0.0237	0.001
363.15	0.0225	0.0009

System: sodium carbonate + water; phases: Liquid, Crystal of intercomponent compound 1
Fixed: Pressure, kPa = 100
Property: Mass fraction of sodium carbonate (Liquid); method: Titration method
Temperature, K	Mass fraction of sodium carbonate	uncertainty
323.15	0.323	0.0129
343.15	0.3141	0.0126
363.15	0.3071	0.0123

System: sodium carbonate + water; phases: Liquid
Fixed: Pressure, kPa = 100
Property: Mass density, kg/m3 (Liquid); method: Pycnometric method
Temperature, K	Mass fraction of sodium carbonate	Mass density, kg/m3	uncertainty
323.15	0.323	1323.5	20.1
343.15	0.3141	1310.2	20.1
363.15	0.3071	1268.7	20.1

System: potassium carbonate + water; phases: Liquid, Crystal of intercomponent compound 1
Fixed: Pressure, kPa = 100
Property: Mass fraction of potassium carbonate (Liquid); method: gravimetric
Temperature, K	Mass fraction of potassium carbonate	uncertainty
323.15	0.5495	0.0047
343.15	0.5753	0.0044
363.15	0.5961	0.0042

System: potassium carbonate + water; phases: Liquid
Fixed: Pressure, kPa = 100
Property: Mass density, kg/m3 (Liquid); method: Pycnometric method
Temperature, K	Mass fraction of potassium carbonate	Mass density, kg/m3	uncertainty
323.15	0.5495	1583.2	20.2
343.15	0.5753	1594.3	20.2
363.15	0.5961	1626.5	20.2
