Measured thermophysical data. High-pressure (vapor + liquid) equilibria for binary systems containing carbon dioxide and key apple odorants, hexanal and ethyl-2-methylbutyrate
Source: J. Chem. Thermodyn., 2017, 10.1016/j.jct.2017.08.008
Compound 1: ethyl 2-methylbutanoate, C7H14O2, InChI=1S/C7H14O2/c1-4-6(3)7(8)9-5-2/h6H,4-5H2,1-3H3, purity 99%
Compound 2: carbon dioxide, CO2, InChI=1S/CO2/c2-1-3, purity 99.99%
Compound 3: hexanal, C6H12O, InChI=1S/C6H12O/c1-2-3-4-5-6-7/h6H,2-5H2,1H3, purity 98%

System: carbon dioxide + hexanal; phases: Liquid, Gas
Property: Vapor or sublimation pressure, kPa (Liquid); method: Closed cell (Static) method
Mole fraction of carbon dioxide	Temperature, K	Vapor or sublimation pressure, kPa	uncertainty
0.318	313.2	2730	140
0.552	313.2	4550	160
0.722	313.2	5740	180
0.776	313.2	6360	200
0.865	313.2	7180	200
0.376	323.2	3440	170
0.488	323.2	4620	190
0.603	323.2	5890	200
0.748	323.2	7330	200
0.88	323.2	8640	190
0.895	323.2	8860	260
0.399	333.2	4210	250
0.485	333.2	5340	220
0.549	333.2	6420	250
0.719	333.2	8400	240
0.846	333.2	9710	220

System: carbon dioxide + hexanal; phases: Gas, Liquid
Property: Mole fraction of carbon dioxide (Gas); method: Chromatography
Mole fraction of carbon dioxide	Temperature, K	Mole fraction of carbon dioxide	uncertainty
0.318	313.2	0.989	0.006
0.552	313.2	0.996	0.004
0.722	313.2	0.998	0.002
0.776	313.2	0.999	0.001
0.865	313.2	0.998	0.002
0.376	323.2	0.991	0.005
0.488	323.2	0.998	0.002
0.603	323.2	0.999	0.001
0.748	323.2	0.997	0.002
0.88	323.2	0.991	0.003
0.895	323.2	0.98	0.012
0.399	333.2	0.996	0.003
0.485	333.2	0.996	0.003
0.549	333.2	0.996	0.003
0.719	333.2	0.995	0.002
0.846	333.2	0.978	0.003

System: carbon dioxide + ethyl 2-methylbutanoate; phases: Liquid, Gas
Property: Vapor or sublimation pressure, kPa (Liquid); method: Closed cell (Static) method
Mole fraction of carbon dioxide	Temperature, K	Vapor or sublimation pressure, kPa	uncertainty
0.405	313.2	2960	160
0.605	313.2	4410	190
0.78	313.2	5980	200
0.894	313.2	7030	220
0.962	313.2	7900	250
0.205	323.2	2100	120
0.428	323.2	3460	150
0.536	323.2	4560	200
0.662	323.2	5790	230
0.812	323.2	7390	230
0.857	323.2	8010	250
0.904	323.2	8450	200
0.223	333.2	2650	180
0.395	333.2	4050	200
0.51	333.2	5040	190
0.612	333.2	6180	220
0.669	333.2	6950	210
0.802	333.2	8110	240
0.852	333.2	9280	410

System: carbon dioxide + ethyl 2-methylbutanoate; phases: Gas, Liquid
Property: Mole fraction of carbon dioxide (Gas); method: Chromatography
Mole fraction of carbon dioxide	Temperature, K	Mole fraction of carbon dioxide	uncertainty
0.405	313.2	0.989	0.011
0.605	313.2	0.995	0.004
0.78	313.2	0.993	0.004
0.894	313.2	0.994	0.002
0.962	313.2	0.995	0.002
0.205	323.2	0.993	0.007
0.428	323.2	0.994	0.006
0.536	323.2	0.996	0.004
0.662	323.2	0.994	0.004
0.812	323.2	0.995	0.003
0.857	323.2	0.994	0.003
0.904	323.2	0.992	0.003
0.223	333.2	0.99	0.01
0.395	333.2	0.994	0.005
0.51	333.2	0.993	0.005
0.612	333.2	0.994	0.004
0.669	333.2	0.989	0.006
0.802	333.2	0.992	0.004
0.852	333.2	0.989	0.004
