Measured thermophysical data. Thermodynamic properties of (R1234yf + R290): Isochoric p.rho.Tx and specific heat capacity cv measurements and an equation of state
Source: J. Chem. Thermodyn., 2019, 10.1016/j.jct.2018.09.009
Compound 1: 2,3,3,3-tetrafluoro-1-propene, C3H2F4, InChI=1S/C3H2F4/c1-2(4)3(5,6)7/h1H2, purity 99.9%
Compound 2: propane, C3H8, InChI=1S/C3H8/c1-3-2/h3H2,1-2H3, purity 99.9%

System: 2,3,3,3-tetrafluoro-1-propene + propane; phases: Liquid
Property: Mass density, kg/m3 (Liquid); method: ISOCHOR
Temperature, K	Pressure, kPa	Mole fraction of 2,3,3,3-tetrafluoro-1-propene	Mass density, kg/m3	uncertainty
255.92	1645	0.825	1109.8	6.7
258.25	3241	0.825	1109.2	6.7
260.61	4872	0.825	1108.7	6.7
262.96	6492	0.825	1108.1	6.7
265.27	8092	0.825	1107.6	6.7
267.59	9690	0.825	1107	6.7
269.9	11286	0.825	1106.5	6.7
272.22	12888	0.825	1105.9	6.7
254.28	1867	0.607	969.9	5.8
256.67	3513	0.607	969.4	5.8
259.05	5156	0.607	968.9	5.8
261.41	6787	0.607	968.5	5.8
263.78	8419	0.607	968	5.8
266.11	10027	0.607	967.5	5.8
268.42	11618	0.607	967	5.8
270.72	13214	0.607	966.5	5.8
290.26	1730	0.521	821.2	4.9
292.5	2803	0.521	820.9	4.9
294.78	3896	0.521	820.6	4.9
297.13	5024	0.521	820.3	4.9
299.47	6148	0.521	820	4.9
301.86	7296	0.521	819.7	4.9
304.23	8438	0.521	819.4	4.9
306.62	9582	0.521	819.1	4.9
309.04	10744	0.521	818.8	4.9
311.5	11920	0.521	818.5	4.9
313.86	13057	0.521	818.2	4.9
313.73	1699	0.285	626	3.8
316.16	2581	0.285	625.9	3.8
318.63	3477	0.285	625.7	3.8
321.06	4361	0.285	625.5	3.8
323.51	5252	0.285	625.3	3.8
326.04	6172	0.285	625.1	3.8
328.54	7079	0.285	624.9	3.8
331.04	7988	0.285	624.7	3.8
333.51	8883	0.285	624.5	3.8
336.01	9790	0.285	624.3	3.8
338.48	10686	0.285	624.1	3.8
340.94	11578	0.285	624	3.8
343.4	12468	0.285	623.8	3.8
345.88	13366	0.285	623.6	3.8
348.3	14239	0.285	623.4	3.8

System: 2,3,3,3-tetrafluoro-1-propene + propane; phases: Liquid
Property: Molar heat capacity at constant volume, J/K/mol (Liquid); method: Vacuum adiabatic calorimetry
Temperature, K	Pressure, kPa	Mole fraction of 2,3,3,3-tetrafluoro-1-propene	Molar heat capacity at constant volume, J/K/mol	uncertainty
257.09	2443	0.825	89.48312080524	1.73061780852
259.43	4057	0.825	89.48312080524	1.73061780852
261.79	5682	0.825	90.39933023328	1.73061780852
264.12	7292	0.825	90.80653442352	1.73061780852
266.43	8891	0.825	90.19572813816	1.73061780852
268.75	10488	0.825	91.51914175644	1.73061780852
271.06	12087	0.825	91.21373861376	1.73061780852
275.52	2097	0.825	93.04615746984	1.83241885608
277.84	3440	0.825	93.86056585032	1.83241885608
280.2	4817	0.825	94.6749742308	1.83241885608
282.57	6197	0.825	95.48938261128	1.83241885608
284.92	7561	0.825	95.1839794686	1.83241885608
287.24	8908	0.825	95.6929847064	1.83241885608
289.57	10249	0.825	96.10018889664	1.83241885608
291.9	11593	0.825	97.32180146736	1.83241885608
295.93	1917	0.825	96.81279622956	1.83241885608
298.32	3042	0.825	97.7290056576	1.83241885608
300.77	4193	0.825	97.62720461004	1.83241885608
303.23	5349	0.825	97.52540356248	1.83241885608
305.69	6504	0.825	99.256021371	1.83241885608
308.14	7659	0.825	98.7470161332	1.83241885608
310.6	8808	0.825	100.68123603684	1.83241885608
313.06	9957	0.825	100.57943498928	1.83241885608
315.53	11107	0.825	102.3100527978	1.93421990364
319.49	2066	0.825	102.20825175024	1.83241885608
322.06	2960	0.825	103.02266013072	1.83241885608
324.62	3854	0.825	104.346073749	1.93421990364
327.17	4744	0.825	105.16048212948	1.93421990364
329.73	5637	0.825	105.8730894624	1.93421990364
332.3	6534	0.825	105.97489050996	1.93421990364
334.85	7427	0.825	106.28029365264	1.93421990364
337.4	8319	0.825	106.891099938	1.93421990364
339.94	9209	0.825	106.68749784288	1.93421990364
342.47	10092	0.825	106.891099938	1.93421990364
345.02	10985	0.825	107.19650308068	1.93421990364
347.55	11870	0.825	106.3820947002	1.93421990364
255.48	2690	0.607	81.792420087672	1.5579508588128
257.86	4335	0.607	82.4848426915888	1.5579508588128
260.23	5972	0.607	82.9176068190368	1.5579508588128
262.6	7603	0.607	82.7445011680576	1.5579508588128
264.95	9223	0.607	83.8696878994224	1.5579508588128
267.27	10823	0.607	83.6100294229536	1.6445036843024
269.57	12416	0.607	84.821768979808	1.6445036843024
276.02	1993	0.607	87.5914593954752	1.6445036843024
278.37	3320	0.607	87.0721424425376	1.6445036843024
280.75	4661	0.607	88.4569876503712	1.6445036843024
283.13	6012	0.607	88.1107763484128	1.6445036843024
285.51	7357	0.607	88.5435404758608	1.6445036843024
287.89	8694	0.607	88.8897517778192	1.731056509792
290.27	10038	0.607	89.149410254288	1.6445036843024
292.66	11390	0.607	89.149410254288	1.6445036843024
295.03	12722	0.607	89.4090687307568	1.731056509792
302.78	1793	0.607	91.4863365425072	1.731056509792
305.28	2835	0.607	91.8325478444656	1.6445036843024
307.82	3898	0.607	91.3997837170176	1.6445036843024
310.37	4961	0.607	92.3518647974032	1.6445036843024
312.91	6022	0.607	93.477051528768	1.731056509792
315.46	7086	0.607	93.8232628307264	1.731056509792
318.01	8150	0.607	94.5156854346432	1.731056509792
320.54	9207	0.607	95.5543193405184	1.731056509792
323.08	10263	0.607	96.2467419444352	1.731056509792
325.63	11326	0.607	96.6795060718832	1.731056509792
317.06	2127	0.521	93.5845422650656	1.8523618520624
319.6	2994	0.521	93.9872296242096	1.7718243802336
322.15	3867	0.521	94.0677670960384	1.7718243802336
324.7	4739	0.521	94.5509919270112	1.7718243802336
327.23	5608	0.521	95.2758291734704	1.7718243802336
329.76	6474	0.521	95.436904117128	1.7718243802336
332.3	7345	0.521	94.7926043424976	1.7718243802336
334.85	8221	0.521	95.9201289481008	1.7718243802336
337.4	9098	0.521	96.3228163072448	1.7718243802336
339.93	9963	0.521	96.242278835416	1.8523618520624
342.44	10822	0.521	96.3228163072448	1.7718243802336
344.94	11680	0.521	96.5644287227312	1.7718243802336
347.44	12532	0.521	96.8865786100464	1.7718243802336
314.95	2140	0.285	84.583923589608	1.536725333952
317.4	3029	0.285	85.48034670108	1.6007555562
319.85	3919	0.285	86.632890701544	1.6007555562
322.29	4807	0.285	87.145132479528	1.6007555562
324.78	5712	0.285	87.465283590768	1.6007555562
327.29	6626	0.285	87.72140447976	1.6007555562
329.79	7534	0.285	87.529313813016	1.6007555562
332.28	8436	0.285	87.977525368752	1.6007555562
334.76	9337	0.285	88.36170670224	1.664785778448
337.25	10238	0.285	88.809918257976	1.664785778448
339.71	11132	0.285	88.873948480224	1.664785778448
342.17	12023	0.285	89.066039146968	1.664785778448
344.64	12917	0.285	89.194099591464	1.664785778448
347.09	13803	0.285	89.32216003596	1.664785778448
