Measured thermophysical data. Abraham model correlations for describing the thermodynamic properties of solute transfer into pentyl acetate based on headspace chromatographic and solubility measurements
Source: J. Chem. Thermodyn., 2018, 10.1016/j.jct.2018.05.003
Compound 1: pentyl ethanoate, C7H14O2, InChI=1S/C7H14O2/c1-3-4-5-6-9-7(2)8/h3-6H2,1-2H3, purity 99%
Compound 2: hexane, C6H14, InChI=1S/C6H14/c1-3-5-6-4-2/h3-6H2,1-2H3, purity 99%
Compound 3: heptane, C7H16, InChI=1S/C7H16/c1-3-5-7-6-4-2/h3-7H2,1-2H3, purity 99%
Compound 4: octane, C8H18, InChI=1S/C8H18/c1-3-5-7-8-6-4-2/h3-8H2,1-2H3, purity 99%
Compound 5: nonane, C9H20, InChI=1S/C9H20/c1-3-5-7-9-8-6-4-2/h3-9H2,1-2H3, purity 99%
Compound 6: decane, C10H22, InChI=1S/C10H22/c1-3-5-7-9-10-8-6-4-2/h3-10H2,1-2H3, purity 99%
Compound 7: cyclohexane, C6H12, InChI=1S/C6H12/c1-2-4-6-5-3-1/h1-6H2, purity 99.5%
Compound 8: hex-1-ene, C6H12, InChI=1S/C6H12/c1-3-5-6-4-2/h3H,1,4-6H2,2H3, purity 99%
Compound 9: 1-heptene, C7H14, InChI=1S/C7H14/c1-3-5-7-6-4-2/h3H,1,4-7H2,2H3, purity 98%
Compound 10: cyclohexene, C6H10, InChI=1S/C6H10/c1-2-4-6-5-3-1/h1-2H,3-6H2, purity 99%
Compound 11: 1-octyne, C8H14, InChI=1S/C8H14/c1-3-5-7-8-6-4-2/h1H,4-8H2,2H3, purity 98%
Compound 12: 1,7-octadiene, C8H14, InChI=1S/C8H14/c1-3-5-7-8-6-4-2/h3-4H,1-2,5-8H2, purity 99%
Compound 13: benzene, C6H6, InChI=1S/C6H6/c1-2-4-6-5-3-1/h1-6H, purity 99.8%
Compound 14: toluene, C7H8, InChI=1S/C7H8/c1-7-5-3-2-4-6-7/h2-6H,1H3, purity 99.8%
Compound 15: ethylbenzene, C8H10, InChI=1S/C8H10/c1-2-8-6-4-3-5-7-8/h3-7H,2H2,1H3, purity 99%
Compound 16: propylbenzene, C9H12, InChI=1S/C9H12/c1-2-6-9-7-4-3-5-8-9/h3-5,7-8H,2,6H2,1H3, purity 98%
Compound 17: 1,3-dimethylbenzene, C8H10, InChI=1S/C8H10/c1-7-4-3-5-8(2)6-7/h3-6H,1-2H3, purity 99%
Compound 18: 1,4-dimethylbenzene, C8H10, InChI=1S/C8H10/c1-7-3-5-8(2)6-4-7/h3-6H,1-2H3, purity 99%
Compound 19: fluorobenzene, C6H5F, InChI=1S/C6H5F/c7-6-4-2-1-3-5-6/h1-5H, purity 99%
Compound 20: bromobenzene, C6H5Br, InChI=1S/C6H5Br/c7-6-4-2-1-3-5-6/h1-5H, purity 99%
Compound 21: acetonitrile, C2H3N, InChI=1S/C2H3N/c1-2-3/h1H3, purity 99.9%
Compound 22: ethyl acetate, C4H8O2, InChI=1S/C4H8O2/c1-3-6-4(2)5/h3H2,1-2H3, purity 99.7%
Compound 23: trichloromethane, CHCl3, InChI=1S/CHCl3/c2-1(3)4/h1H, purity 99.85%
Compound 24: 1,2-dichloropropane, C3H6Cl2, InChI=1S/C3H6Cl2/c1-3(5)2-4/h3H,2H2,1H3, purity 98.5%
Compound 25: 1-chlorobutane, C4H9Cl, InChI=1S/C4H9Cl/c1-2-3-4-5/h2-4H2,1H3, purity 99.5%
Compound 26: 2-bromopropane, C3H7Br, InChI=1S/C3H7Br/c1-3(2)4/h3H,1-2H3, purity 99%
Compound 27: tetrahydrofuran, C4H8O, InChI=1S/C4H8O/c1-2-4-5-3-1/h1-4H2, purity 99.5%
Compound 28: 1,4-dioxane, C4H8O2, InChI=1S/C4H8O2/c1-2-6-4-3-5-1/h1-4H2, purity 99.5%
Compound 29: acetone, C3H6O, InChI=1S/C3H6O/c1-3(2)4/h1-2H3, purity 99.8%
Compound 30: nitromethane, CH3NO2, InChI=1S/CH3NO2/c1-2(3)4/h1H3, purity 99%
Compound 31: ethanol, C2H6O, InChI=1S/C2H6O/c1-2-3/h3H,2H2,1H3, purity 99.5%
Compound 32: propan-1-ol, C3H8O, InChI=1S/C3H8O/c1-2-3-4/h4H,2-3H2,1H3, purity 99%
Compound 33: propan-2-ol, C3H8O, InChI=1S/C3H8O/c1-3(2)4/h3-4H,1-2H3, purity 99.8%
Compound 34: 1,2-diphenylethanedione, C14H10O2, InChI=1S/C14H10O2/c15-13(11-7-3-1-4-8-11)14(16)12-9-5-2-6-10-12/h1-10H
Compound 35: benzoic acid, C7H6O2, InChI=1S/C7H6O2/c8-7(9)6-4-2-1-3-5-6/h1-5H,(H,8,9)
Compound 36: diphenyl sulfone, C12H10O2S, InChI=1S/C12H10O2S/c13-15(14,11-7-3-1-4-8-11)12-9-5-2-6-10-12/h1-10H
Compound 37: 2-hydroxybenzoic acid, C7H6O3, InChI=1S/C7H6O3/c8-6-4-2-1-3-5(6)7(9)10/h1-4,8H,(H,9,10)
Compound 38: 3-methylbenzoic acid, C8H8O2, InChI=1S/C8H8O2/c1-6-3-2-4-7(5-6)8(9)10/h2-5H,1H3,(H,9,10)
Compound 39: 3-nitrobenzoic acid, C7H5NO4, InChI=1S/C7H5NO4/c9-7(10)5-2-1-3-6(4-5)8(11)12/h1-4H,(H,9,10)
Compound 40: 4-chlorobenzoic acid, C7H5ClO2, InChI=1S/C7H5ClO2/c8-6-3-1-5(2-4-6)7(9)10/h1-4H,(H,9,10)
Compound 41: 10H-phenothiazine, C12H9NS, InChI=1S/C12H9NS/c1-3-7-11-9(5-1)13-10-6-2-4-8-12(10)14-11/h1-8,13H, purity 99%
Compound 42: 4-chloro-3-nitrobenzoic acid, C7H4ClNO4, InChI=1S/C7H4ClNO4/c8-5-2-1-4(7(10)11)3-6(5)9(12)13/h1-3H,(H,10,11), purity 99.5%
Compound 43: 2-chloro-5-nitrobenzoic acid, C7H4ClNO4, InChI=1S/C7H4ClNO4/c8-6-2-1-4(9(12)13)3-5(6)7(10)11/h1-3H,(H,10,11), purity 99%

System: 1,2-diphenylethanedione; phases: Crystal, Liquid, Air at 1 atmosphere
Property: Normal melting temperature, K (Crystal); method: VISOBS
Normal melting temperature, K	uncertainty
368.5	1.1

System: benzoic acid; phases: Crystal, Liquid, Air at 1 atmosphere
Property: Normal melting temperature, K (Crystal); method: VISOBS
Normal melting temperature, K	uncertainty
395.6	0.9

System: diphenyl sulfone; phases: Crystal, Liquid, Air at 1 atmosphere
Property: Normal melting temperature, K (Crystal); method: VISOBS
Normal melting temperature, K	uncertainty
398.2	0.9

System: 2-hydroxybenzoic acid; phases: Crystal, Liquid, Air at 1 atmosphere
Property: Normal melting temperature, K (Crystal); method: VISOBS
Normal melting temperature, K	uncertainty
432.7	1.1

System: 3-methylbenzoic acid; phases: Crystal, Liquid, Air at 1 atmosphere
Property: Normal melting temperature, K (Crystal); method: VISOBS
Normal melting temperature, K	uncertainty
382.4	0.9

System: 3-nitrobenzoic acid; phases: Crystal, Liquid, Air at 1 atmosphere
Property: Normal melting temperature, K (Crystal); method: VISOBS
Normal melting temperature, K	uncertainty
414.7	0.9

System: 4-chlorobenzoic acid; phases: Crystal, Liquid, Air at 1 atmosphere
Property: Normal melting temperature, K (Crystal); method: VISOBS
Normal melting temperature, K	uncertainty
512.5	0.7

System: 10H-phenothiazine; phases: Crystal, Liquid, Air at 1 atmosphere
Property: Normal melting temperature, K (Crystal); method: VISOBS
Normal melting temperature, K	uncertainty
457.9	0.7

System: 4-chloro-3-nitrobenzoic acid; phases: Crystal, Liquid, Air at 1 atmosphere
Property: Normal melting temperature, K (Crystal); method: VISOBS
Normal melting temperature, K	uncertainty
456.3	1.1

System: 2-chloro-5-nitrobenzoic acid; phases: Crystal, Liquid, Air at 1 atmosphere
Property: Normal melting temperature, K (Crystal); method: VISOBS
Normal melting temperature, K	uncertainty
440.1	1.1

System: pentyl ethanoate + hexane; phases: Liquid
Property: Activity coefficient of hexane (Liquid); method: Chromatography
Temperature, K	Mole fraction of hexane	Pressure, kPa	Activity coefficient of hexane	uncertainty
298.15	0	101.325	1.74	0.1

System: pentyl ethanoate + heptane; phases: Liquid
Property: Activity coefficient of heptane (Liquid); method: Chromatography
Temperature, K	Mole fraction of heptane	Pressure, kPa	Activity coefficient of heptane	uncertainty
298.15	0	101.325	1.9	0.1

System: pentyl ethanoate + octane; phases: Liquid
Property: Activity coefficient of octane (Liquid); method: Chromatography
Temperature, K	Mole fraction of octane	Pressure, kPa	Activity coefficient of octane	uncertainty
298.15	0	101.325	2.02	0.09

System: pentyl ethanoate + nonane; phases: Liquid
Property: Activity coefficient of nonane (Liquid); method: Chromatography
Temperature, K	Mole fraction of nonane	Pressure, kPa	Activity coefficient of nonane	uncertainty
298.15	0	101.325	2.17	0.14

System: pentyl ethanoate + decane; phases: Liquid
Property: Activity coefficient of decane (Liquid); method: Chromatography
Temperature, K	Mole fraction of decane	Pressure, kPa	Activity coefficient of decane	uncertainty
298.15	0	101.325	2.5	0.13

System: pentyl ethanoate + cyclohexane; phases: Liquid
Property: Activity coefficient of cyclohexane (Liquid); method: Chromatography
Temperature, K	Mole fraction of cyclohexane	Pressure, kPa	Activity coefficient of cyclohexane	uncertainty
298.15	0	101.325	1.51	0.05

System: pentyl ethanoate + hex-1-ene; phases: Liquid
Property: Activity coefficient of hex-1-ene (Liquid); method: Chromatography
Temperature, K	Mole fraction of hex-1-ene	Pressure, kPa	Activity coefficient of hex-1-ene	uncertainty
298.15	0	101.325	1.22	0.03

System: pentyl ethanoate + 1-heptene; phases: Liquid
Property: Activity coefficient of 1-heptene (Liquid); method: Chromatography
Temperature, K	Mole fraction of 1-heptene	Pressure, kPa	Activity coefficient of 1-heptene	uncertainty
298.15	0	101.325	1.35	0.04

System: pentyl ethanoate + cyclohexene; phases: Liquid
Property: Activity coefficient of cyclohexene (Liquid); method: Chromatography
Temperature, K	Mole fraction of cyclohexene	Pressure, kPa	Activity coefficient of cyclohexene	uncertainty
298.15	0	101.325	1.16	0.03

System: pentyl ethanoate + 1-octyne; phases: Liquid
Property: Activity coefficient of 1-octyne (Liquid); method: Chromatography
Temperature, K	Mole fraction of 1-octyne	Pressure, kPa	Activity coefficient of 1-octyne	uncertainty
298.15	0	101.325	0.85	0.03

System: pentyl ethanoate + 1,7-octadiene; phases: Liquid
Property: Activity coefficient of 1,7-octadiene (Liquid); method: Chromatography
Temperature, K	Mole fraction of 1,7-octadiene	Pressure, kPa	Activity coefficient of 1,7-octadiene	uncertainty
298.15	0	101.325	1.14	0.05

System: pentyl ethanoate + benzene; phases: Liquid
Property: Activity coefficient of benzene (Liquid); method: Chromatography
Temperature, K	Mole fraction of benzene	Pressure, kPa	Activity coefficient of benzene	uncertainty
298.15	0	101.325	0.73	0.03

System: pentyl ethanoate + toluene; phases: Liquid
Property: Activity coefficient of toluene (Liquid); method: Chromatography
Temperature, K	Mole fraction of toluene	Pressure, kPa	Activity coefficient of toluene	uncertainty
298.15	0	101.325	0.86	0.04

System: pentyl ethanoate + ethylbenzene; phases: Liquid
Property: Activity coefficient of ethylbenzene (Liquid); method: Chromatography
Temperature, K	Mole fraction of ethylbenzene	Pressure, kPa	Activity coefficient of ethylbenzene	uncertainty
298.15	0	101.325	0.98	0.04

System: pentyl ethanoate + propylbenzene; phases: Liquid
Property: Activity coefficient of propylbenzene (Liquid); method: Chromatography
Temperature, K	Mole fraction of propylbenzene	Pressure, kPa	Activity coefficient of propylbenzene	uncertainty
298.15	0	101.325	1.02	0.06

System: pentyl ethanoate + 1,3-dimethylbenzene; phases: Liquid
Property: Activity coefficient of 1,3-dimethylbenzene (Liquid); method: Chromatography
Temperature, K	Mole fraction of 1,3-dimethylbenzene	Pressure, kPa	Activity coefficient of 1,3-dimethylbenzene	uncertainty
298.15	0	101.325	0.9	0.03

System: pentyl ethanoate + 1,4-dimethylbenzene; phases: Liquid
Property: Activity coefficient of 1,4-dimethylbenzene (Liquid); method: Chromatography
Temperature, K	Mole fraction of 1,4-dimethylbenzene	Pressure, kPa	Activity coefficient of 1,4-dimethylbenzene	uncertainty
298.15	0	101.325	0.92	0.03

System: pentyl ethanoate + fluorobenzene; phases: Liquid
Property: Activity coefficient of fluorobenzene (Liquid); method: Chromatography
Temperature, K	Mole fraction of fluorobenzene	Pressure, kPa	Activity coefficient of fluorobenzene	uncertainty
298.15	0	101.325	0.61	0.03

System: pentyl ethanoate + bromobenzene; phases: Liquid
Property: Activity coefficient of bromobenzene (Liquid); method: Chromatography
Temperature, K	Mole fraction of bromobenzene	Pressure, kPa	Activity coefficient of bromobenzene	uncertainty
298.15	0	101.325	0.78	0.05

System: pentyl ethanoate + acetonitrile; phases: Liquid
Property: Activity coefficient of acetonitrile (Liquid); method: Chromatography
Temperature, K	Mole fraction of acetonitrile	Pressure, kPa	Activity coefficient of acetonitrile	uncertainty
298.15	0	101.325	1.69	0.05

System: pentyl ethanoate + ethyl acetate; phases: Liquid
Property: Activity coefficient of ethyl acetate (Liquid); method: Chromatography
Temperature, K	Mole fraction of ethyl acetate	Pressure, kPa	Activity coefficient of ethyl acetate	uncertainty
298.15	0	101.325	0.96	0.03

System: pentyl ethanoate + trichloromethane; phases: Liquid
Property: Activity coefficient of trichloromethane (Liquid); method: Chromatography
Temperature, K	Mole fraction of trichloromethane	Pressure, kPa	Activity coefficient of trichloromethane	uncertainty
298.15	0	101.325	0.27	0.03

System: pentyl ethanoate + 1,2-dichloropropane; phases: Liquid
Property: Activity coefficient of 1,2-dichloropropane (Liquid); method: Chromatography
Temperature, K	Mole fraction of 1,2-dichloropropane	Pressure, kPa	Activity coefficient of 1,2-dichloropropane	uncertainty
298.15	0	101.325	0.61	0.03

System: pentyl ethanoate + 1-chlorobutane; phases: Liquid
Property: Activity coefficient of 1-chlorobutane (Liquid); method: Chromatography
Temperature, K	Mole fraction of 1-chlorobutane	Pressure, kPa	Activity coefficient of 1-chlorobutane	uncertainty
298.15	0	101.325	0.84	0.03

System: pentyl ethanoate + 2-bromopropane; phases: Liquid
Property: Activity coefficient of 2-bromopropane (Liquid); method: Chromatography
Temperature, K	Mole fraction of 2-bromopropane	Pressure, kPa	Activity coefficient of 2-bromopropane	uncertainty
298.15	0	101.325	0.82	0.03

System: pentyl ethanoate + tetrahydrofuran; phases: Liquid
Property: Activity coefficient of tetrahydrofuran (Liquid); method: Chromatography
Temperature, K	Mole fraction of tetrahydrofuran	Pressure, kPa	Activity coefficient of tetrahydrofuran	uncertainty
298.15	0	101.325	0.8	0.04

System: pentyl ethanoate + 1,4-dioxane; phases: Liquid
Property: Activity coefficient of 1,4-dioxane (Liquid); method: Chromatography
Temperature, K	Mole fraction of 1,4-dioxane	Pressure, kPa	Activity coefficient of 1,4-dioxane	uncertainty
298.15	0	101.325	0.91	0.03

System: pentyl ethanoate + acetone; phases: Liquid
Property: Activity coefficient of acetone (Liquid); method: Chromatography
Temperature, K	Mole fraction of acetone	Pressure, kPa	Activity coefficient of acetone	uncertainty
298.15	0	101.325	1.19	0.05

System: pentyl ethanoate + nitromethane; phases: Liquid
Property: Activity coefficient of nitromethane (Liquid); method: Chromatography
Temperature, K	Mole fraction of nitromethane	Pressure, kPa	Activity coefficient of nitromethane	uncertainty
298.15	0	101.325	1.28	0.05

System: pentyl ethanoate + ethanol; phases: Liquid
Property: Activity coefficient of ethanol (Liquid); method: Chromatography
Temperature, K	Mole fraction of ethanol	Pressure, kPa	Activity coefficient of ethanol	uncertainty
298.15	0	101.325	2.97	0.12

System: pentyl ethanoate + propan-1-ol; phases: Liquid
Property: Activity coefficient of propan-1-ol (Liquid); method: Chromatography
Temperature, K	Mole fraction of propan-1-ol	Pressure, kPa	Activity coefficient of propan-1-ol	uncertainty
298.15	0	101.325	2.43	0.11

System: pentyl ethanoate + propan-2-ol; phases: Liquid
Property: Activity coefficient of propan-2-ol (Liquid); method: Chromatography
Temperature, K	Mole fraction of propan-2-ol	Pressure, kPa	Activity coefficient of propan-2-ol	uncertainty
298.15	0	101.325	2.86	0.11

System: pentyl ethanoate + 1,2-diphenylethanedione; phases: Liquid, Crystal
Property: Mole fraction of 1,2-diphenylethanedione (Liquid); method: spectrophotometry method
Temperature, K	Pressure, kPa	Mole fraction of 1,2-diphenylethanedione	uncertainty
298.15	101	0.1308	0.0065

System: pentyl ethanoate + benzoic acid; phases: Liquid, Crystal
Property: Mole fraction of benzoic acid (Liquid); method: spectrophotometry method
Temperature, K	Pressure, kPa	Mole fraction of benzoic acid	uncertainty
298.15	101	0.1653	0.0083

System: pentyl ethanoate + diphenyl sulfone; phases: Liquid, Crystal
Property: Mole fraction of diphenyl sulfone (Liquid); method: spectrophotometry method
Temperature, K	Pressure, kPa	Mole fraction of diphenyl sulfone	uncertainty
298.15	101	0.0303	0.0015

System: pentyl ethanoate + 2-hydroxybenzoic acid; phases: Liquid, Crystal
Property: Mole fraction of 2-hydroxybenzoic acid (Liquid); method: spectrophotometry method
Temperature, K	Pressure, kPa	Mole fraction of 2-hydroxybenzoic acid	uncertainty
298.15	101	0.1406	0.007

System: pentyl ethanoate + 3-methylbenzoic acid; phases: Liquid, Crystal
Property: Mole fraction of 3-methylbenzoic acid (Liquid); method: spectrophotometry method
Temperature, K	Pressure, kPa	Mole fraction of 3-methylbenzoic acid	uncertainty
298.15	101	0.1305	0.0065

System: pentyl ethanoate + 3-nitrobenzoic acid; phases: Liquid, Crystal
Property: Mole fraction of 3-nitrobenzoic acid (Liquid); method: spectrophotometry method
Temperature, K	Pressure, kPa	Mole fraction of 3-nitrobenzoic acid	uncertainty
298.15	101	0.1225	0.0061

System: pentyl ethanoate + 10H-phenothiazine; phases: Liquid, Crystal
Property: Mole fraction of 10H-phenothiazine (Liquid); method: spectrophotometry method
Temperature, K	Pressure, kPa	Mole fraction of 10H-phenothiazine	uncertainty
298.15	101	0.0663	0.0033

System: pentyl ethanoate + 4-chlorobenzoic acid; phases: Liquid, Crystal
Property: Mole fraction of 4-chlorobenzoic acid (Liquid); method: spectrophotometry method
Temperature, K	Pressure, kPa	Mole fraction of 4-chlorobenzoic acid	uncertainty
298.15	101	0.0129	0.0006

System: 4-chloro-3-nitrobenzoic acid + pentyl ethanoate; phases: Liquid, Crystal
Property: Mole fraction of 4-chloro-3-nitrobenzoic acid (Liquid); method: spectrophotometry method
Temperature, K	Pressure, kPa	Mole fraction of 4-chloro-3-nitrobenzoic acid	uncertainty
298.15	101	0.0309	0.0015

System: 2-chloro-5-nitrobenzoic acid + pentyl ethanoate; phases: Liquid, Crystal
Property: Mole fraction of 2-chloro-5-nitrobenzoic acid (Liquid); method: spectrophotometry method
Temperature, K	Pressure, kPa	Mole fraction of 2-chloro-5-nitrobenzoic acid	uncertainty
298.15	101	0.0562	0.0028
