Measured thermophysical data. Properties of ionic liquid HMIMPF6 with carbonates, ketones and alkyl acetates
Source: J. Chem. Thermodyn., 2006, 10.1016/j.jct.2005.07.020
Compound 1: dimethyl carbonate, C3H6O3, InChI=1S/C3H6O3/c1-5-3(4)6-2/h1-2H3, purity 99%
Compound 2: diethyl carbonate, C5H10O3, InChI=1S/C5H10O3/c1-3-7-5(6)8-4-2/h3-4H2,1-2H3, purity 99.5%
Compound 3: acetone, C3H6O, InChI=1S/C3H6O/c1-3(2)4/h1-2H3, purity 99.8%
Compound 4: butanone, C4H8O, InChI=1S/C4H8O/c1-3-4(2)5/h3H2,1-2H3, purity 99.5%
Compound 5: pentan-2-one, C5H10O, InChI=1S/C5H10O/c1-3-4-5(2)6/h3-4H2,1-2H3, purity 99.5%
Compound 6: methyl ethanoate, C3H6O2, InChI=1S/C3H6O2/c1-3(4)5-2/h1-2H3, purity 99.8%
Compound 7: ethyl acetate, C4H8O2, InChI=1S/C4H8O2/c1-3-6-4(2)5/h3H2,1-2H3, purity 99.5%
Compound 8: butyl ethanoate, C6H12O2, InChI=1S/C6H12O2/c1-3-4-5-8-6(2)7/h3-5H2,1-2H3, purity 99.7%
Compound 9: 1-hexyl-3-methylimidazolium hexafluorophosphate, C10H19F6N2P, InChI=1S/C10H19N2.F6P/c1-3-4-5-6-7-12-9-8-11(2)10-12;1-7(2,3,4,5)6/h8-10H,3-7H2,1-2H3;/q+1;-1

System: dimethyl carbonate; phases: Liquid
Property: Refractive index (Na D-line) (Liquid); method: ABBE::UFactor:2
Temperature, K	Pressure, kPa	Refractive index (Na D-line)	uncertainty
298.15	101.325	1.3664	0.00089

System: dimethyl carbonate; phases: Liquid
Property: Mass density, kg/m3 (Liquid); method: VIBTUB::UFactor:8
Temperature, K	Pressure, kPa	Mass density, kg/m3	uncertainty
298.15	101	1063.3	0.7

System: diethyl carbonate; phases: Liquid
Property: Refractive index (Na D-line) (Liquid); method: ABBE::UFactor:2
Temperature, K	Pressure, kPa	Refractive index (Na D-line)	uncertainty
298.15	101.325	1.3828	0.00087

System: diethyl carbonate; phases: Liquid
Property: Mass density, kg/m3 (Liquid); method: VIBTUB::UFactor:16
Temperature, K	Pressure, kPa	Mass density, kg/m3	uncertainty
298.15	101	969.2	0.7

System: acetone; phases: Liquid
Property: Refractive index (Na D-line) (Liquid); method: ABBE::UFactor:2
Temperature, K	Pressure, kPa	Refractive index (Na D-line)	uncertainty
298.15	101.325	1.35566	0.00086

System: acetone; phases: Liquid
Property: Mass density, kg/m3 (Liquid); method: VIBTUB::UFactor:16
Temperature, K	Pressure, kPa	Mass density, kg/m3	uncertainty
298.15	101	784.4	1.8

System: butanone; phases: Liquid
Property: Refractive index (Na D-line) (Liquid); method: ABBE::UFactor:2
Temperature, K	Pressure, kPa	Refractive index (Na D-line)	uncertainty
298.15	101.325	1.37604	0.00087

System: butanone; phases: Liquid
Property: Mass density, kg/m3 (Liquid); method: VIBTUB::UFactor:16
Temperature, K	Pressure, kPa	Mass density, kg/m3	uncertainty
298.15	101	799.7	1.8

System: pentan-2-one; phases: Liquid
Property: Refractive index (Na D-line) (Liquid); method: Standard Abbe refractometry
Temperature, K	Pressure, kPa	Refractive index (Na D-line)	uncertainty
298.15	101.325	1.38823	0.00068

System: pentan-2-one; phases: Liquid
Property: Mass density, kg/m3 (Liquid); method: VIBTUB::UFactor:16
Temperature, K	Pressure, kPa	Mass density, kg/m3	uncertainty
298.15	101	801.4	1.8

System: methyl ethanoate; phases: Liquid
Property: Refractive index (Na D-line) (Liquid); method: Standard Abbe refractometry
Temperature, K	Pressure, kPa	Refractive index (Na D-line)	uncertainty
298.15	101.325	1.35881	0.00068

System: methyl ethanoate; phases: Liquid
Property: Mass density, kg/m3 (Liquid); method: VIBTUB::UFactor:16
Temperature, K	Pressure, kPa	Mass density, kg/m3	uncertainty
298.15	101	926.9	1

System: ethyl acetate; phases: Liquid
Property: Refractive index (Na D-line) (Liquid); method: ABBE::UFactor:2
Temperature, K	Pressure, kPa	Refractive index (Na D-line)	uncertainty
298.15	101.325	1.36977	0.00087

System: ethyl acetate; phases: Liquid
Property: Mass density, kg/m3 (Liquid); method: VIBTUB::UFactor:16
Temperature, K	Pressure, kPa	Mass density, kg/m3	uncertainty
298.15	101	894.4	1.2

System: butyl ethanoate; phases: Liquid
Property: Refractive index (Na D-line) (Liquid); method: ABBE::UFactor:2
Temperature, K	Pressure, kPa	Refractive index (Na D-line)	uncertainty
298.15	101.325	1.3919	0.00086

System: butyl ethanoate; phases: Liquid
Property: Mass density, kg/m3 (Liquid); method: VIBTUB::UFactor:16
Temperature, K	Pressure, kPa	Mass density, kg/m3	uncertainty
298.15	101	876.3	1.3

System: 1-hexyl-3-methylimidazolium hexafluorophosphate; phases: Liquid
Fixed: Pressure, kPa = 101.325
Property: Refractive index (Na D-line) (Liquid); method: ABBE:UFactor:2
Temperature, K	Refractive index (Na D-line)	uncertainty
288.15	1.42062	0.00131
293.15	1.41923	0.00131
298.15	1.41787	0.00131
303.15	1.41643	0.00131
308.15	1.41501	0.00131
313.15	1.41358	0.00131
318.15	1.41215	0.00131

System: 1-hexyl-3-methylimidazolium hexafluorophosphate; phases: Liquid
Fixed: Pressure, kPa = 101.325
Property: Mass density, kg/m3 (Liquid); method: VIBTUB:UFactor:16
Temperature, K	Mass density, kg/m3	uncertainty
278.15	1310.1	4.2
283.15	1306	4.2
288.15	1301.9	4.2
293.15	1297.9	4.2
298.15	1293.7	4.1
303.15	1289.6	4.1
308.15	1285.4	4.1
313.15	1281.3	4.1
318.15	1277.2	4.1

System: dimethyl carbonate + 1-hexyl-3-methylimidazolium hexafluorophosphate; phases: Liquid
Fixed: Temperature, K = 298.15
Fixed: Pressure, kPa = 101
Property: Refractive index (Na D-line) (Liquid); method: ABBE:UFactor:2
Mole fraction of 1-hexyl-3-methylimidazolium hexafluorophosphate	Refractive index (Na D-line)	uncertainty
0	1.3664	0.00089
0.0524	1.37624	0.0009
0.1026	1.38348	0.00091
0.1915	1.39262	0.00093
0.2935	1.39977	0.00097
0.4	1.40466	0.00101
0.5043	1.40837	0.00105
0.5985	1.41086	0.0011
0.6999	1.41318	0.00115
0.8033	1.41505	0.00121
0.9001	1.41653	0.00126
0.95	1.41717	0.00129
1	1.41787	0.00132

System: dimethyl carbonate + 1-hexyl-3-methylimidazolium hexafluorophosphate; phases: Liquid
Fixed: Temperature, K = 298.15
Fixed: Pressure, kPa = 101
Property: Mass density, kg/m3 (Liquid); method: VIBTUB:UFactor:8
Mole fraction of 1-hexyl-3-methylimidazolium hexafluorophosphate	Mass density, kg/m3	uncertainty
0	1063.3	0.7
0.0524	1101.7	0.9
0.1026	1131.2	1.1
0.1915	1170.4	1.3
0.2935	1202.1	1.6
0.4	1226.1	1.9
0.5043	1244.2	2.2
0.5985	1257.3	2.4
0.6999	1269	2.7
0.8033	1278.8	3
0.9001	1286.6	3.3
0.95	1290.2	3.5
1	1293.7	3.6

System: diethyl carbonate + 1-hexyl-3-methylimidazolium hexafluorophosphate; phases: Liquid
Fixed: Temperature, K = 298.15
Fixed: Pressure, kPa = 101
Property: Refractive index (Na D-line) (Liquid); method: ABBE:UFactor:2
Mole fraction of 1-hexyl-3-methylimidazolium hexafluorophosphate	Refractive index (Na D-line)	uncertainty
0	1.3828	0.00087
0.0098	1.38348	0.00087
0.1298	1.3941	0.00089
0.1454	1.39532	0.00089
0.1989	1.39905	0.00091
0.2988	1.40412	0.00094
0.3995	1.40802	0.00098
0.4975	1.41068	0.00102
0.6052	1.41299	0.00108
0.7019	1.41462	0.00113
0.8014	1.41594	0.00119
0.8997	1.41692	0.00125
0.9498	1.4174	0.00129
1	1.41787	0.00132

System: diethyl carbonate + 1-hexyl-3-methylimidazolium hexafluorophosphate; phases: Liquid
Fixed: Temperature, K = 298.15
Fixed: Pressure, kPa = 101
Property: Mass density, kg/m3 (Liquid); method: VIBTUB:UFactor:16
Mole fraction of 1-hexyl-3-methylimidazolium hexafluorophosphate	Mass density, kg/m3	uncertainty
0	969.2	0.7
0.0098	976.1	0.7
0.1298	1052.1	1
0.1454	1060.7	1.1
0.1989	1088.2	1.3
0.2988	1131.7	1.7
0.3995	1167.5	2.1
0.4975	1196.5	2.4
0.6052	1223.6	2.8
0.7019	1244.3	3.1
0.8014	1262.9	3.5
0.8997	1278.8	3.8
0.9498	1286.2	4
1	1293.7	4.1

System: acetone + 1-hexyl-3-methylimidazolium hexafluorophosphate; phases: Liquid
Fixed: Temperature, K = 298.15
Fixed: Pressure, kPa = 101
Property: Refractive index (Na D-line) (Liquid); method: ABBE:UFactor:2
Mole fraction of 1-hexyl-3-methylimidazolium hexafluorophosphate	Refractive index (Na D-line)	uncertainty
0	1.35566	0.00086
0.0462	1.36998	0.00087
0.0911	1.3794	0.00087
0.1933	1.39202	0.00089
0.2775	1.39899	0.00092
0.3621	1.40383	0.00095
0.468	1.40814	0.00099
0.5483	1.4104	0.00103
0.6029	1.41169	0.00106
0.7127	1.41389	0.00113
0.8174	1.41565	0.00119
0.911	1.41684	0.00126
0.9518	1.41731	0.00129
1	1.41787	0.00132

System: acetone + 1-hexyl-3-methylimidazolium hexafluorophosphate; phases: Liquid
Fixed: Temperature, K = 298.15
Fixed: Pressure, kPa = 101
Property: Mass density, kg/m3 (Liquid); method: VIBTUB:UFactor:16
Mole fraction of 1-hexyl-3-methylimidazolium hexafluorophosphate	Mass density, kg/m3	uncertainty
0	784.4	1.8
0.0462	864.1	1.4
0.0911	925.4	1
0.1933	1027.6	0.9
0.2775	1087.3	1.4
0.3621	1132.8	1.7
0.468	1176.8	2.2
0.5483	1203.2	2.5
0.6029	1218.6	2.7
0.7127	1244.9	3.1
0.8174	1265.4	3.5
0.911	1280.9	3.8
0.9518	1286.8	4
1	1293.7	4.1

System: butanone + 1-hexyl-3-methylimidazolium hexafluorophosphate; phases: Liquid
Fixed: Temperature, K = 298.15
Fixed: Pressure, kPa = 101
Property: Refractive index (Na D-line) (Liquid); method: ABBE:UFactor:2
Mole fraction of 1-hexyl-3-methylimidazolium hexafluorophosphate	Refractive index (Na D-line)	uncertainty
0	1.37604	0.00087
0.0579	1.38671	0.00088
0.0977	1.3916	0.00088
0.1906	1.39962	0.0009
0.2929	1.40509	0.00094
0.4037	1.409	0.00098
0.4995	1.41154	0.00102
0.6006	1.41341	0.00107
0.7012	1.41483	0.00113
0.8036	1.41607	0.00119
0.9012	1.41701	0.00125
0.9483	1.41741	0.00129
1	1.41787	0.00132

System: butanone + 1-hexyl-3-methylimidazolium hexafluorophosphate; phases: Liquid
Fixed: Temperature, K = 298.15
Fixed: Pressure, kPa = 101
Property: Mass density, kg/m3 (Liquid); method: VIBTUB:UFactor:16
Mole fraction of 1-hexyl-3-methylimidazolium hexafluorophosphate	Mass density, kg/m3	uncertainty
0	799.7	1.8
0.0579	878.3	1.3
0.0977	922.6	1.1
0.1906	1006.3	0.9
0.2929	1075	1.4
0.4037	1132	1.9
0.4995	1170.9	2.3
0.6006	1204.8	2.7
0.7012	1232.5	3
0.8036	1256.5	3.4
0.9012	1276.4	3.8
0.9483	1285.2	3.9
1	1293.7	4.1

System: pentan-2-one + 1-hexyl-3-methylimidazolium hexafluorophosphate; phases: Liquid
Fixed: Temperature, K = 298.15
Fixed: Pressure, kPa = 101
Property: Refractive index (Na D-line) (Liquid); method: Standard Abbe refractometry
Mole fraction of 1-hexyl-3-methylimidazolium hexafluorophosphate	Refractive index (Na D-line)	uncertainty
0	1.38823	0.00068
0.0538	1.3948	0.00069
0.0932	1.39817	0.0007
0.196	1.40449	0.00073
0.2934	1.4085	0.00077
0.3985	1.41141	0.00082
0.4946	1.41337	0.00087
0.5983	1.41465	0.00093
0.7039	1.41579	0.001
0.7993	1.41661	0.00106
0.8981	1.41719	0.00113
0.9519	1.41763	0.00117
1	1.41787	0.00121

System: pentan-2-one + 1-hexyl-3-methylimidazolium hexafluorophosphate; phases: Liquid
Fixed: Temperature, K = 298.15
Fixed: Pressure, kPa = 101
Property: Mass density, kg/m3 (Liquid); method: VIBTUB:UFactor:16
Mole fraction of 1-hexyl-3-methylimidazolium hexafluorophosphate	Mass density, kg/m3	uncertainty
0	801.4	1.8
0.0538	863.5	1.4
0.0932	902.8	1.2
0.196	988.4	0.9
0.2934	1052.5	1.3
0.3985	1108.2	1.8
0.4946	1150.5	2.2
0.5983	1189.1	2.6
0.7039	1222.3	3
0.7993	1248.3	3.4
0.8981	1271.9	3.7
0.9519	1283.8	3.9
1	1293.7	4.1

System: methyl ethanoate + 1-hexyl-3-methylimidazolium hexafluorophosphate; phases: Liquid
Fixed: Temperature, K = 298.15
Fixed: Pressure, kPa = 101
Property: Refractive index (Na D-line) (Liquid); method: Standard Abbe refractometry
Mole fraction of 1-hexyl-3-methylimidazolium hexafluorophosphate	Refractive index (Na D-line)	uncertainty
0	1.35881	0.00068
0.0411	1.36891	0.00068
0.0967	1.37917	0.00069
0.2066	1.39227	0.00072
0.288	1.39832	0.00075
0.4075	1.40488	0.0008
0.5423	1.4095	0.00088
0.6247	1.4117	0.00093
0.702	1.41331	0.00098
0.8043	1.41503	0.00106
0.9002	1.41652	0.00113
0.9499	1.41723	0.00117
1	1.41787	0.00121

System: methyl ethanoate + 1-hexyl-3-methylimidazolium hexafluorophosphate; phases: Liquid
Fixed: Temperature, K = 298.15
Fixed: Pressure, kPa = 101
Property: Mass density, kg/m3 (Liquid); method: VIBTUB:UFactor:16
Mole fraction of 1-hexyl-3-methylimidazolium hexafluorophosphate	Mass density, kg/m3	uncertainty
0	926.9	1
0.0411	976.4	0.7
0.0967	1029.7	0.8
0.2066	1105.1	1.3
0.288	1144.6	1.7
0.4075	1188.1	2.1
0.5423	1223.6	2.6
0.6247	1240.9	2.9
0.702	1254.8	3.1
0.8043	1270.3	3.5
0.9002	1282.6	3.8
0.9499	1288.3	4
1	1293.7	4.1

System: ethyl acetate + 1-hexyl-3-methylimidazolium hexafluorophosphate; phases: Liquid
Fixed: Temperature, K = 298.15
Fixed: Pressure, kPa = 101
Property: Refractive index (Na D-line) (Liquid); method: ABBE:UFactor:2
Mole fraction of 1-hexyl-3-methylimidazolium hexafluorophosphate	Refractive index (Na D-line)	uncertainty
0	1.36977	0.00087
0.0585	1.37943	0.00088
0.1018	1.38485	0.00088
0.2029	1.39463	0.00091
0.3005	1.40092	0.00094
0.3997	1.40541	0.00098
0.4917	1.40863	0.00102
0.5924	1.4114	0.00107
0.7028	1.41357	0.00113
0.802	1.41517	0.00119
0.8994	1.41657	0.00125
0.9477	1.41713	0.00129
1	1.41787	0.00132

System: ethyl acetate + 1-hexyl-3-methylimidazolium hexafluorophosphate; phases: Liquid
Fixed: Temperature, K = 298.15
Fixed: Pressure, kPa = 101
Property: Mass density, kg/m3 (Liquid); method: VIBTUB:UFactor:16
Mole fraction of 1-hexyl-3-methylimidazolium hexafluorophosphate	Mass density, kg/m3	uncertainty
0	894.4	1.2
0.0585	954	0.9
0.1018	991.3	0.7
0.2029	1062	1.2
0.3005	1113.8	1.6
0.3997	1155.5	2
0.4917	1187.1	2.4
0.5924	1215.7	2.7
0.7028	1241.8	3.1
0.802	1261.7	3.4
0.8994	1278.6	3.8
0.9477	1286.1	3.9
1	1293.7	4.1

System: butyl ethanoate + 1-hexyl-3-methylimidazolium hexafluorophosphate; phases: Liquid
Fixed: Temperature, K = 298.15
Fixed: Pressure, kPa = 101
Property: Refractive index (Na D-line) (Liquid); method: ABBE:UFactor:2
Mole fraction of 1-hexyl-3-methylimidazolium hexafluorophosphate	Refractive index (Na D-line)	uncertainty
0	1.3919	0.00086
0.0365	1.39472	0.00087
0.0913	1.39831	0.00087
0.2054	1.40418	0.0009
0.2945	1.40759	0.00093
0.4109	1.41084	0.00097
0.5066	1.41282	0.00102
0.5784	1.41392	0.00105
0.6918	1.41542	0.00112
0.7965	1.41643	0.00118
0.894	1.41715	0.00125
0.9496	1.41753	0.00129
1	1.41787	0.00132

System: butyl ethanoate + 1-hexyl-3-methylimidazolium hexafluorophosphate; phases: Liquid
Fixed: Temperature, K = 298.15
Fixed: Pressure, kPa = 101
Property: Mass density, kg/m3 (Liquid); method: VIBTUB:UFactor:16
Mole fraction of 1-hexyl-3-methylimidazolium hexafluorophosphate	Mass density, kg/m3	uncertainty
0	876.3	1.3
0.0365	905.2	1.1
0.0913	945.2	0.9
0.2054	1017.8	0.9
0.2945	1066	1.3
0.4109	1119.5	1.8
0.5066	1157.1	2.2
0.5784	1182.3	2.5
0.6918	1217.8	2.9
0.7965	1246.7	3.3
0.894	1270.5	3.7
0.9496	1283	3.9
1	1293.7	4.1
