Measured thermophysical data. Experimental and computational thermochemical studies of acridone and N-methylacridone
Source: J. Chem. Thermodyn., 2018, 10.1016/j.jct.2017.11.002
Compound 1: carbon dioxide, CO2, InChI=1S/CO2/c2-1-3
Compound 2: nitrogen, N2, InChI=1S/N2/c1-2
Compound 3: water, H2O, InChI=1S/H2O/h1H2
Compound 4: oxygen, O2, InChI=1S/O2/c1-2
Compound 5: 9(10H)-acridinone, C13H9NO, InChI=1S/C13H9NO/c15-13-9-5-1-3-7-11(9)14-12-8-4-2-6-10(12)13/h1-8H,(H,14,15)
Compound 6: N-methylacridone, C14H11NO, InChI=1S/C14H11NO/c1-15-12-8-4-2-6-10(12)14(16)11-7-3-5-9-13(11)15/h2-9H,1H3

System: 9(10H)-acridinone; phases: Crystal, Gas
Property: Molar enthalpy of vaporization or sublimation, kJ/mol (Crystal); method: Static calorimetry
Temperature, K	Molar enthalpy of vaporization or sublimation, kJ/mol	uncertainty
298.15	133.4	4.2

System: N-methylacridone; phases: Crystal, Gas
Property: Molar enthalpy of vaporization or sublimation, kJ/mol (Crystal); method: Static calorimetry
Temperature, K	Molar enthalpy of vaporization or sublimation, kJ/mol	uncertainty
298.15	123.8	2.9

System: N-methylacridone; phases: Crystal, Gas
Property: Vapor or sublimation pressure, kPa (Crystal); method: Calculated from knudsen effusion weight loss
Temperature, K	Vapor or sublimation pressure, kPa	uncertainty
394.16	0.0001465	6.02e-05
396.13	0.0001788	6.03e-05
398.11	0.0002123	6.05e-05
400.15	0.0002508	6.07e-05
402.1	0.0003035	6.1e-05
404.1	0.0003591	6.13e-05
406.15	0.0004322	6.19e-05
408.13	0.000516	6.27e-05
410.11	0.0005963	6.36e-05
412.16	0.0007321	6.54e-05
414.11	0.0008616	6.73e-05
416.12	0.0010102	9.34e-05

Reaction: -1 9(10H)-acridinone + 13 carbon dioxide + .5 nitrogen + 4.5 water + -14.75 oxygen
Property: Specific internal energy of reaction at constant volume, J/g
-32350.76

Reaction: -1 N-methylacridone + 14 carbon dioxide + .5 nitrogen + 5.5 water + -16.25 oxygen
Property: Specific internal energy of reaction at constant volume, J/g
-33518.65
