Measured thermophysical data. The enthalpies of formation of alkyl carbamates: Experimental and computational redetermination
Source: J. Chem. Thermodyn., 2013, 10.1016/j.jct.2012.08.018
Compound 1: carbon dioxide, CO2, InChI=1S/CO2/c2-1-3
Compound 2: nitrogen, N2, InChI=1S/N2/c1-2
Compound 3: water, H2O, InChI=1S/H2O/h1H2
Compound 4: oxygen, O2, InChI=1S/O2/c1-2
Compound 5: carbamic acid, methyl ester, C2H5NO2, InChI=1S/C2H5NO2/c1-5-2(3)4/h1H3,(H2,3,4), purity 99.8%
Compound 6: ethyl carbamate, C3H7NO2, InChI=1S/C3H7NO2/c1-2-6-3(4)5/h2H2,1H3,(H2,4,5), purity 99%

System: carbamic acid, methyl ester; phases: Crystal, Gas
Property: Molar enthalpy of vaporization or sublimation, kJ/mol (Crystal); method: Static calorimetry
Temperature, K	Molar enthalpy of vaporization or sublimation, kJ/mol	uncertainty
298.15	73.6	1.3

System: ethyl carbamate; phases: Crystal, Gas
Property: Molar enthalpy of vaporization or sublimation, kJ/mol (Crystal); method: Static calorimetry
Temperature, K	Molar enthalpy of vaporization or sublimation, kJ/mol	uncertainty
298.15	77.7	1.4

Reaction: -1 carbamic acid, methyl ester + 2 carbon dioxide + .5 nitrogen + 2.5 water + -2.25 oxygen
Property: Specific internal energy of reaction at constant volume, J/g
-13542.6

Reaction: -1 ethyl carbamate + 3 carbon dioxide + .5 nitrogen + 3.5 water + -3.75 oxygen
Property: Specific internal energy of reaction at constant volume, J/g
-18601.5
