Measured thermophysical data. Evidence of an odd-even effect on the thermodynamic parameters of odd fluorotelomer alcohols
Source: J. Chem. Thermodyn., 2012, 10.1016/j.jct.2012.03.027
Compound 1: 2,2,3,3,4,4,5,5,6,6,7,7,7-tridecafluoro-1-heptanol, C7H3F13O, InChI=1S/C7H3F13O/c8-2(9,1-21)3(10,11)4(12,13)5(14,15)6(16,17)7(18,19)20/h21H,1H2, purity 97%
Compound 2: 2,2,3,3,4,4,5,5,6,6,7,7,8,8,8-pentadecafluoro-1-octanol, C8H3F15O, InChI=1S/C8H3F15O/c9-2(10,1-24)3(11,12)4(13,14)5(15,16)6(17,18)7(19,20)8(21,22)23/h24H,1H2, purity 98%
Compound 3: 2,2,3,3,4,4,5,5,6,6,7,7,8,8,9,9,9-heptadecafluoro-1-nonanol, C9H3F17O, InChI=1S/C9H3F17O/c10-2(11,1-27)3(12,13)4(14,15)5(16,17)6(18,19)7(20,21)8(22,23)9(24,25)26/h27H,1H2, purity 98%
Compound 4: 1H,1H-perfluoro-1-decanol, C10H3F19O, InChI=1S/C10H3F19O/c11-2(12,1-30)3(13,14)4(15,16)5(17,18)6(19,20)7(21,22)8(23,24)9(25,26)10(27,28)29/h30H,1H2, purity 98%
Compound 5: 1H,1H-perfluoroundecan-1-ol, C11H3F21O, InChI=1S/C11H3F21O/c12-2(13,1-33)3(14,15)4(16,17)5(18,19)6(20,21)7(22,23)8(24,25)9(26,27)10(28,29)11(30,31)32/h33H,1H2, purity 95%

System: 2,2,3,3,4,4,5,5,6,6,7,7,7-tridecafluoro-1-heptanol; phases: Liquid
Property: Molar heat capacity at constant pressure, J/K/mol (Liquid); method: Drop calorimetry
Temperature, K	Pressure, kPa	Molar heat capacity at constant pressure, J/K/mol	uncertainty
298.15	101.325	476.8	14.3

System: 2,2,3,3,4,4,5,5,6,6,7,7,7-tridecafluoro-1-heptanol; phases: Liquid, Gas
Property: Vapor or sublimation pressure, kPa (Liquid); method: Closed cell (Static) method
Temperature, K	Vapor or sublimation pressure, kPa	uncertainty
275.55	0.01786	0.00059
278.02	0.02308	0.00067
280.53	0.03001	0.00078
282.99	0.03804	0.0009
285.49	0.04858	0.00106
287.97	0.06227	0.00128
290.46	0.07837	0.00153
292.95	0.09912	0.00185
295.45	0.12473	0.00225
297.97	0.1587	0.00226
300.43	0.19463	0.00254
302.94	0.24308	0.00294
305.4	0.29397	0.00338
307.91	0.36318	0.00398
310.39	0.43444	0.00461
312.88	0.5339	0.00546
315.35	0.62475	0.00626
317.87	0.75526	0.0074

System: 2,2,3,3,4,4,5,5,6,6,7,7,8,8,8-pentadecafluoro-1-octanol; phases: Crystal, Liquid, Air at 1 atmosphere
Property: Molar enthalpy of transition or fusion, kJ/mol (Crystal); method: DSC
Molar enthalpy of transition or fusion, kJ/mol	uncertainty
11.9	2.2

System: 2,2,3,3,4,4,5,5,6,6,7,7,8,8,8-pentadecafluoro-1-octanol; phases: Crystal, Liquid, Air at 1 atmosphere
Property: Triple point temperature, K (Crystal); method: DTA
Triple point temperature, K	uncertainty
318.2	1.1

System: 2,2,3,3,4,4,5,5,6,6,7,7,8,8,8-pentadecafluoro-1-octanol; phases: Crystal
Property: Molar heat capacity at constant pressure, J/K/mol (Crystal); method: Drop calorimetry
Temperature, K	Pressure, kPa	Molar heat capacity at constant pressure, J/K/mol	uncertainty
298.15	101.325	468.6	14.1

System: 2,2,3,3,4,4,5,5,6,6,7,7,8,8,8-pentadecafluoro-1-octanol; phases: Crystal, Gas
Property: Vapor or sublimation pressure, kPa (Crystal); method: Closed cell (Static) method
Temperature, K	Vapor or sublimation pressure, kPa	uncertainty
268.27	0.00104	0.0001
273.24	0.00201	0.00012
278.21	0.00388	0.00018
283.17	0.00714	0.0003
288.15	0.01272	0.00051
293.15	0.02273	0.00066
295.64	0.03033	0.00078
298.14	0.03911	0.00092
300.61	0.05177	0.00111
303.13	0.06648	0.00134
305.62	0.08724	0.00167
308.1	0.11131	0.00204
310.56	0.14125	0.00212
313.08	0.18152	0.00244
315.52	0.2288	0.00283
318.05	0.29358	0.00338

System: 2,2,3,3,4,4,5,5,6,6,7,7,8,8,8-pentadecafluoro-1-octanol; phases: Liquid, Gas
Property: Vapor or sublimation pressure, kPa (Liquid); method: Closed cell (Static) method
Temperature, K	Vapor or sublimation pressure, kPa	uncertainty
320.52	0.3615	0.00397
323.01	0.43513	0.00461
325.52	0.524	0.00538
328.01	0.62358	0.00625
330.49	0.7457	0.0073
332.97	0.87104	0.00841
335.47	1.0482	0.00996
337.97	1.2327	0.01155
339.44	1.3592	0.01142

System: 2,2,3,3,4,4,5,5,6,6,7,7,8,8,9,9,9-heptadecafluoro-1-nonanol; phases: Crystal, Liquid, Air at 1 atmosphere
Property: Molar enthalpy of transition or fusion, kJ/mol (Crystal); method: DSC
Molar enthalpy of transition or fusion, kJ/mol	uncertainty
16.6	0.5

System: 2,2,3,3,4,4,5,5,6,6,7,7,8,8,9,9,9-heptadecafluoro-1-nonanol; phases: Crystal, Liquid, Air at 1 atmosphere
Property: Triple point temperature, K (Crystal); method: DTA
Triple point temperature, K	uncertainty
342.2	0.9

System: 2,2,3,3,4,4,5,5,6,6,7,7,8,8,9,9,9-heptadecafluoro-1-nonanol; phases: Crystal, Gas
Property: Vapor or sublimation pressure, kPa (Crystal); method: Closed cell (Static) method
Temperature, K	Vapor or sublimation pressure, kPa	uncertainty
275.71	0.00048	0.0001
278.17	0.00067	0.0001
283.16	0.00128	0.00011
288.15	0.0025	0.00014
293.14	0.00477	0.00021
298.11	0.00866	0.00035
303.13	0.01568	0.00056
308.1	0.02727	0.00073
313.09	0.04767	0.00105
318.06	0.07933	0.00154
323.03	0.13	0.00203

System: 2,2,3,3,4,4,5,5,6,6,7,7,8,8,9,9,9-heptadecafluoro-1-nonanol; phases: Liquid, Gas
Property: Vapor or sublimation pressure, kPa (Liquid); method: Closed cell (Static) method
Temperature, K	Vapor or sublimation pressure, kPa	uncertainty
342.99	0.80175	0.0078
344	0.8571	0.00828
345.48	0.9447	0.00905
347.97	1.11016	0.01049
350.45	1.29996	0.01213
351.45	1.38292	0.01151

System: 1H,1H-perfluoro-1-decanol; phases: Crystal, Liquid, Air at 1 atmosphere
Property: Molar enthalpy of transition or fusion, kJ/mol (Crystal); method: DSC
Molar enthalpy of transition or fusion, kJ/mol	uncertainty
15.9	1.8

System: 1H,1H-perfluoro-1-decanol; phases: Crystal, Liquid, Air at 1 atmosphere
Property: Triple point temperature, K (Crystal); method: DTA
Triple point temperature, K	uncertainty
358.5	1.1

System: 1H,1H-perfluoro-1-decanol; phases: Crystal, Gas
Property: Vapor or sublimation pressure, kPa (Crystal); method: Closed cell (Static) method
Temperature, K	Vapor or sublimation pressure, kPa	uncertainty
303.92	0.00452	0.00021
308	0.00755	0.00031
312.98	0.01315	0.00052
318.07	0.02289	0.00067
323.07	0.03765	0.0009
327.88	0.06457	0.00131
332.84	0.1045	0.00194
337.79	0.1714	0.00236
342.75	0.2677	0.00316
347.71	0.414	0.00444
352.65	0.6247	0.00627
355.65	0.8008	0.00781
358.15	0.97	0.00928

System: 1H,1H-perfluoroundecan-1-ol; phases: Crystal, Liquid, Air at 1 atmosphere
Property: Molar enthalpy of transition or fusion, kJ/mol (Crystal); method: DSC
Molar enthalpy of transition or fusion, kJ/mol	uncertainty
22.4	0.8

System: 1H,1H-perfluoroundecan-1-ol; phases: Crystal, Liquid, Air at 1 atmosphere
Property: Triple point temperature, K (Crystal); method: DTA
Triple point temperature, K	uncertainty
374	0.9

System: 1H,1H-perfluoroundecan-1-ol; phases: Crystal, Gas
Property: Vapor or sublimation pressure, kPa (Crystal); method: Closed cell (Static) method
Temperature, K	Vapor or sublimation pressure, kPa	uncertainty
310.53	0.00219	0.00014
313.02	0.00299	0.00016
315.51	0.00402	0.00019
318	0.00537	0.00024
320.48	0.00715	0.0003
323	0.00968	0.00039
325.47	0.01321	0.00052
327.95	0.01724	0.00058
330.42	0.02207	0.00066
332.87	0.02909	0.00076
335.42	0.03815	0.0009
337.85	0.04977	0.00108
340.35	0.06415	0.00131
342.81	0.08275	0.0016
345.3	0.10638	0.00197
347.8	0.13613	0.00208
