Measured thermophysical data. Enthalpies of solution of N,N,N0,N0-tetramethylurea in amides, dimethylsulphoxide, and acetone at 298.15 K
Source: J. Chem. Thermodyn., 2008, 10.1016/j.jct.2008.05.010
Compound 1: tetramethylurea, C5H12N2O, InChI=1S/C5H12N2O/c1-6(2)5(8)7(3)4/h1-4H3, purity 99%
Compound 2: water, H2O, InChI=1S/H2O/h1H2
Compound 3: formamide, CH3NO, InChI=1S/CH3NO/c2-1-3/h1H,(H2,2,3), purity 99.5%
Compound 4: N-methylformamide, C2H5NO, InChI=1S/C2H5NO/c1-3-2-4/h2H,1H3,(H,3,4), purity 99%
Compound 5: dimethylformamide, C3H7NO, InChI=1S/C3H7NO/c1-4(2)3-5/h3H,1-2H3, purity 99.5%
Compound 6: N,N-dimethylethanamide, C4H9NO, InChI=1S/C4H9NO/c1-4(6)5(2)3/h1-3H3, purity 99.8%
Compound 7: dimethyl sulfoxide, C2H6OS, InChI=1S/C2H6OS/c1-4(2)3/h1-2H3, purity 99.9%
Compound 8: acetone, C3H6O, InChI=1S/C3H6O/c1-3(2)4/h1-2H3, purity 99.9%

System: tetramethylurea; phases: Liquid
Property: Refractive index (Na D-line) (Liquid); method: Standard Abbe refractometry
Temperature, K	Pressure, kPa	Refractive index (Na D-line)	uncertainty
298.15	101.325	1.4491	0.0007

System: tetramethylurea; phases: Liquid
Property: Mass density, kg/m3 (Liquid); method: VIBTUB:UFactor:6
Temperature, K	Pressure, kPa	Mass density, kg/m3	uncertainty
298.15	101.325	962.07	0.46

System: formamide; phases: Liquid
Property: Refractive index (Na D-line) (Liquid); method: Standard Abbe refractometry
Temperature, K	Pressure, kPa	Refractive index (Na D-line)	uncertainty
298.15	101.325	1.4463	0.0007

System: formamide; phases: Liquid
Property: Mass density, kg/m3 (Liquid); method: VIBTUB:UFactor:4
Temperature, K	Pressure, kPa	Mass density, kg/m3	uncertainty
298.15	101.325	1129.11	0.4

System: N-methylformamide; phases: Liquid
Property: Refractive index (Na D-line) (Liquid); method: Standard Abbe refractometry
Temperature, K	Pressure, kPa	Refractive index (Na D-line)	uncertainty
298.15	101.325	1.4303	0.0007

System: N-methylformamide; phases: Liquid
Property: Mass density, kg/m3 (Liquid); method: VIBTUB:UFactor:6
Temperature, K	Pressure, kPa	Mass density, kg/m3	uncertainty
298.15	101.325	998.97	0.39

System: dimethylformamide; phases: Liquid
Property: Refractive index (Na D-line) (Liquid); method: Standard Abbe refractometry
Temperature, K	Pressure, kPa	Refractive index (Na D-line)	uncertainty
298.15	101.325	1.4279	0.0007

System: dimethylformamide; phases: Liquid
Property: Mass density, kg/m3 (Liquid); method: VIBTUB:UFactor:4
Temperature, K	Pressure, kPa	Mass density, kg/m3	uncertainty
298.15	101.325	943.87	0.26

System: N,N-dimethylethanamide; phases: Liquid
Property: Refractive index (Na D-line) (Liquid); method: Standard Abbe refractometry
Temperature, K	Pressure, kPa	Refractive index (Na D-line)	uncertainty
298.15	101.325	1.4362	0.0007

System: N,N-dimethylethanamide; phases: Liquid
Property: Mass density, kg/m3 (Liquid); method: VIBTUB:UFactor:2
Temperature, K	Pressure, kPa	Mass density, kg/m3	uncertainty
298.15	101.325	936.44	0.13

System: dimethyl sulfoxide; phases: Liquid
Property: Refractive index (Na D-line) (Liquid); method: Standard Abbe refractometry
Temperature, K	Pressure, kPa	Refractive index (Na D-line)	uncertainty
298.15	101.325	1.4771	0.0007

System: dimethyl sulfoxide; phases: Liquid
Property: Mass density, kg/m3 (Liquid); method: VIBTUB:UFactor:2
Temperature, K	Pressure, kPa	Mass density, kg/m3	uncertainty
298.15	101.325	1095.66	0.15

System: acetone; phases: Liquid
Property: Refractive index (Na D-line) (Liquid); method: Standard Abbe refractometry
Temperature, K	Pressure, kPa	Refractive index (Na D-line)	uncertainty
298.15	101.325	1.3564	0.0007

System: acetone; phases: Liquid
Property: Mass density, kg/m3 (Liquid); method: VIBTUB:UFactor:2
Temperature, K	Pressure, kPa	Mass density, kg/m3	uncertainty
298.15	101.325	784.59	0.24

System: formamide + tetramethylurea; phases: Liquid
Fixed: Pressure, kPa = 101
Fixed: Temperature, K = 298.15
Property: Molar enthalpy of solution, kJ/mol (Liquid); method: ISOPERIBOL
Molality, mol/kg of tetramethylurea	Molar enthalpy of solution, kJ/mol	uncertainty
0	-7.2	0.08
0.004571	-7.22	0.08
0.005258	-7.23	0.08
0.01033	-7.15	0.08
0.01297	-7.2	0.08
0.02198	-7.18	0.08

System: N-methylformamide + tetramethylurea; phases: Liquid
Fixed: Pressure, kPa = 101
Fixed: Temperature, K = 298.15
Property: Molar enthalpy of solution, kJ/mol (Liquid); method: ISOPERIBOL
Molality, mol/kg of tetramethylurea	Molar enthalpy of solution, kJ/mol	uncertainty
0	-1.99	0.04
0.007639	-2.02	0.04
0.007914	-1.99	0.04
0.008306	-2	0.04
0.008992	-1.97	0.04
0.00903	-1.98	0.04

System: dimethylformamide + tetramethylurea; phases: Liquid
Fixed: Pressure, kPa = 101
Fixed: Temperature, K = 298.15
Property: Molar enthalpy of solution, kJ/mol (Liquid); method: ISOPERIBOL
Molality, mol/kg of tetramethylurea	Molar enthalpy of solution, kJ/mol	uncertainty
0	0.24	0.06
0.005453	0.25	0.06
0.00724	0.25	0.06
0.01944	0.22	0.06
0.02178	0.24	0.06
0.02532	0.22	0.06

System: N,N-dimethylethanamide + tetramethylurea; phases: Liquid
Fixed: Pressure, kPa = 101
Fixed: Temperature, K = 298.15
Property: Molar enthalpy of solution, kJ/mol (Liquid); method: ISOPERIBOL
Molality, mol/kg of tetramethylurea	Molar enthalpy of solution, kJ/mol	uncertainty
0	0.13	0.02
0.01197	0.13	0.02
0.01307	0.13	0.02
0.01331	0.15	0.02
0.02064	0.12	0.02
0.03103	0.12	0.02

System: dimethyl sulfoxide + tetramethylurea; phases: Liquid
Fixed: Pressure, kPa = 101
Fixed: Temperature, K = 298.15
Property: Molar enthalpy of solution, kJ/mol (Liquid); method: ISOPERIBOL
Molality, mol/kg of tetramethylurea	Molar enthalpy of solution, kJ/mol	uncertainty
0	1.4	0.06
0.00875	1.44	0.06
0.01093	1.37	0.06
0.01745	1.41	0.06
0.01749	1.4	0.06
0.01875	1.43	0.06

System: acetone + tetramethylurea; phases: Liquid
Fixed: Pressure, kPa = 101
Fixed: Temperature, K = 298.15
Property: Molar enthalpy of solution, kJ/mol (Liquid); method: ISOPERIBOL
Molality, mol/kg of tetramethylurea	Molar enthalpy of solution, kJ/mol	uncertainty
0	0.88	0.06
0.01292	0.89	0.06
0.01407	0.91	0.06
0.01824	0.9	0.06
0.02037	0.87	0.06
0.02172	0.84	0.06

System: tetramethylurea + water; phases: Liquid
Property: Molar enthalpy of solution, kJ/mol (Liquid); method: ISOPERIBOL
Molality, mol/kg of tetramethylurea	Temperature, K	Pressure, kPa	Molar enthalpy of solution, kJ/mol	uncertainty
0	298.15	101	-22.28	0.19
