Measured thermophysical data. Separation of toluene and heptane by liquid liquid extraction using z-methyl-N-butylpyridinium tetrafluoroborate isomers (z = 2, 3, or 4) at T = 313.2 K
Source: J. Chem. Thermodyn., 2010, 10.1016/j.jct.2010.03.018
Compound 1: heptane, C7H16, InChI=1S/C7H16/c1-3-5-7-6-4-2/h3-7H2,1-2H3, purity 99.5%
Compound 2: toluene, C7H8, InChI=1S/C7H8/c1-7-5-3-2-4-6-7/h2-6H,1H3, purity 99.7%
Compound 3: 1-butyl-2-methylpyridinium tetrafluoroborate, C10H16BF4N, InChI=1S/C10H16N.BF4/c1-3-4-8-11-9-6-5-7-10(11)2;2-1(3,4)5/h5-7,9H,3-4,8H2,1-2H3;/q+1;-1, purity 99%
Compound 4: 1-butyl-3-methylpyridinium tetrafluoroborate, C10H16BF4N, InChI=1S/C10H16N.BF4/c1-3-4-7-11-8-5-6-10(2)9-11;2-1(3,4)5/h5-6,8-9H,3-4,7H2,1-2H3;/q+1;-1, purity 99%
Compound 5: 1-butyl-4-methylpyridinium tetrafluoroborate, C10H16BF4N, InChI=1S/C10H16N.BF4/c1-3-4-7-11-8-5-10(2)6-9-11;2-1(3,4)5/h5-6,8-9H,3-4,7H2,1-2H3;/q+1;-1, purity 99%

System: toluene + heptane + 1-butyl-2-methylpyridinium tetrafluoroborate; phases: Liquid mixture 1, Liquid mixture 2
Fixed: Temperature, K = 313.2
Fixed: Pressure, kPa = 101.325
Property: Mole fraction of heptane (Liquid mixture 1); method: Chromatography
Property: Mole fraction of heptane (Liquid mixture 2); method: Chromatography
Property: Mole fraction of toluene (Liquid mixture 2); method: Chromatography
Mole fraction of toluene	Mole fraction of heptane	uncertainty	Mole fraction of heptane	uncertainty	Mole fraction of toluene	uncertainty
0.073	0.927	0.003	0.008	0.002	0.038	
0.233	0.767	0.003	0.006	0.002	0.095	
0.356	0.644	0.004	0.005	0.002	0.133	
0.504	0.496	0.005	0.005	0.002	0.209	
0.645	0.355	0.004	0.005	0.002	0.272	
0.725	0.275	0.003	0.004	0.002	0.309	
0.815	0.185	0.003	0.003	0.002	0.332	
0.847	0.153	0.003	0.003	0.002	0.397	

System: toluene + heptane + 1-butyl-3-methylpyridinium tetrafluoroborate; phases: Liquid mixture 2, Liquid mixture 1
Fixed: Temperature, K = 313.2
Fixed: Pressure, kPa = 101.325
Property: Mole fraction of heptane (Liquid mixture 2); method: Chromatography
Property: Mole fraction of heptane (Liquid mixture 1); method: Chromatography
Property: Mole fraction of toluene (Liquid mixture 1); method: Chromatography
Mole fraction of toluene	Mole fraction of heptane	uncertainty	Mole fraction of heptane	uncertainty	Mole fraction of toluene	uncertainty
0.045	0.011	0.002	0.933	0.003	0.067	
0.117	0.01	0.002	0.782	0.003	0.218	
0.166	0.008	0.002	0.664	0.004	0.336	
0.252	0.009	0.002	0.512	0.004	0.488	
0.314	0.008	0.002	0.379	0.004	0.621	
0.36	0.007	0.002	0.276	0.003	0.724	
0.428	0.006	0.002	0.192	0.003	0.808	
0.451	0.005	0.002	0.156	0.003	0.844	

System: toluene + heptane + 1-butyl-4-methylpyridinium tetrafluoroborate; phases: Liquid mixture 1, Liquid mixture 2
Fixed: Temperature, K = 313.2
Fixed: Pressure, kPa = 101.325
Property: Mole fraction of heptane (Liquid mixture 1); method: Chromatography
Property: Mole fraction of heptane (Liquid mixture 2); method: Chromatography
Property: Mole fraction of toluene (Liquid mixture 2); method: Chromatography
Mole fraction of toluene	Mole fraction of heptane	uncertainty	Mole fraction of heptane	uncertainty	Mole fraction of toluene	uncertainty
0.068	0.932	0.003	0.01	0.002	0.044	
0.214	0.786	0.003	0.01	0.002	0.11	
0.337	0.663	0.004	0.009	0.002	0.17	
0.488	0.512	0.004	0.009	0.002	0.254	
0.617	0.383	0.004	0.008	0.002	0.322	
0.715	0.285	0.004	0.007	0.002	0.362	
0.794	0.206	0.003	0.006	0.002	0.424	
0.843	0.157	0.003	0.005	0.002	0.468	
