Measured thermophysical data. Standard partial molar heat capacities and enthalpies of formation of aqueous aluminate under hydrothermal conditions from integral heat of solution measurements
Source: J. Chem. Thermodyn., 2014, 10.1016/j.jct.2014.06.020
Compound 1: sodium aluminate (NaAlO2), AlNaO2, InChI=1S/Al.Na.2O/q+3;+1;2*-2, purity 94%
Compound 2: water, H2O, InChI=1S/H2O/h1H2, purity 99.9%
Compound 3: sodium chloride, ClNa, InChI=1S/ClH.Na/h1H;/q;+1/p-1, purity 99%
Compound 4: sodium hydroxide, HNaO, InChI=1S/Na.H2O/h;1H2/q+1;/p-1, purity 99%

System: sodium chloride + water; phases: Liquid, Gas
Property: Molar enthalpy of solution, kJ/mol (Liquid); method: Calvet calorimetry
Temperature, K	Molality, mol/kg of sodium chloride	Molar enthalpy of solution, kJ/mol	uncertainty
471.74	0.0224	-22.128	0.469
471.73	0.0297	-21.903	0.465
471.11	0.0357	-21.66	0.459
471.11	0.0401	-20.831	0.442
471.72	0.0451	-20.361	0.432
471.75	0.0514	-21.129	0.448
471.67	0.0522	-20.387	0.432
471.74	0.0552	-20.552	0.436
471.1	0.0497	-20.711	0.439
471.14	0.0543	-20.736	0.44
471.67	0.065	-20.07	0.426
471.69	0.0785	-19.66	0.417
471.75	0.0962	-19.196	0.407
471.68	0.1086	-19.846	0.421
522.65	0.0353	-38.308	0.813
522.7	0.0359	-38.648	0.82
522.63	0.0407	-40.12	0.851
522.7	0.0414	-38.495	0.817
522.65	0.0425	-39.856	0.845
522.64	0.0511	-40.035	0.849
520.71	0.065	-36.557	0.775
522.67	0.0702	-36.527	0.775

System: sodium aluminate (NaAlO2) + sodium hydroxide + water; phases: Liquid, Gas
Property: Molar enthalpy of solution, kJ/mol (Liquid); method: Calvet calorimetry
Temperature, K	Molality, mol/kg of sodium aluminate (NaAlO2)	Solvent: Molality, mol/kg of sodium hydroxide	Molar enthalpy of solution, kJ/mol	uncertainty
371.91	0.0183	0.0533	-39.07	0.829
372.06	0.0207	0.0533	-38.249	0.811
422.6	0.0165	0.0533	-41.508	0.881
472.89	0.0274	0.0533	-48.022	1.019
498.72	0.041	0.0533	-52.666	1.117
523.22	0.0324	0.0533	-61.133	1.297
523.57	0.0367	0.0533	-60.455	1.282
523.21	0.0388	0.0533	-60.348	1.28
523.46	0.0472	0.0533	-61.899	1.313
523.36	0.0589	0.0533	-60.049	1.274
521.27	0.0528	0.0533	-59.048	1.253
371.99	0.0306	0.1178	-38.511	0.817
372.01	0.0368	0.1178	-37.781	0.801
372.01	0.0407	0.1178	-37.749	0.801
372.01	0.0446	0.1178	-37.816	0.802
372.01	0.0794	0.1178	-37.918	0.804
372	0.0849	0.1178	-38.03	0.807
422.59	0.0348	0.1178	-41.069	0.871
422.6	0.0407	0.1178	-40.992	0.87
422.65	0.0593	0.1178	-40.911	0.868
422.58	0.09	0.1178	-40.81	0.866
472.84	0.0366	0.1178	-45.878	0.973
472.84	0.0425	0.1178	-46.28	0.982
472.82	0.0427	0.1178	-46.061	0.977
372.01	0.0314	0.0842	-38.272	0.812
372.01	0.0317	0.0842	-37.782	0.801
422.69	0.0348	0.0842	-41.223	0.874
422.59	0.0362	0.0842	-41.153	0.873
422.46	0.0502	0.0842	-41.076	0.871
472.71	0.0239	0.0842	-46.859	0.994
472.7	0.0265	0.0842	-46.197	0.98
472.7	0.0285	0.0842	-47.491	1.007
498.51	0.0276	0.0842	-53.204	1.129
498.64	0.0461	0.0842	-52.83	1.121
498.5	0.0473	0.0842	-52.157	1.106
498.48	0.0498	0.0842	-51.539	1.093
498.48	0.0519	0.0842	-51.974	1.103
