Measured thermophysical data. Molar heat capacities for (1-butanol + 1,4-butanediol, 2,3-butanediol, 1,2-butanediol, and 2-methyl-2,4-pentanediol) as function of temperature
Source: J. Chem. Thermodyn., 2007, 10.1016/j.jct.2007.04.011
Compound 1: butan-1-ol, C4H10O, InChI=1S/C4H10O/c1-2-3-4-5/h5H,2-4H2,1H3
Compound 2: 1,4-butanediol, C4H10O2, InChI=1S/C4H10O2/c5-3-1-2-4-6/h5-6H,1-4H2
Compound 3: 2,3-butanediol, C4H10O2, InChI=1S/C4H10O2/c1-3(5)4(2)6/h3-6H,1-2H3
Compound 4: 1,2-butanediol, C4H10O2, InChI=1S/C4H10O2/c1-2-4(6)3-5/h4-6H,2-3H2,1H3
Compound 5: 2-methyl-2,4-pentanediol, C6H14O2, InChI=1S/C6H14O2/c1-5(7)4-6(2,3)8/h5,7-8H,4H2,1-3H3

System: butan-1-ol; phases: Liquid
Fixed: Pressure, kPa = 101.325
Property: Molar heat capacity at constant pressure, J/K/mol (Liquid); method: SDSC:UFactor:0.5
Temperature, K	Molar heat capacity at constant pressure, J/K/mol	uncertainty
293.15	173.8	1.51
298.15	177.1	1.53
303.15	180.61	1.56
308.15	184.28	1.6
313.15	188.02	1.63
318.15	192.1	1.66
323.15	196.13	1.7
328.15	200.4	1.74
333.15	204.72	1.77
338.15	209.16	1.81
343.15	213.57	1.85
348.15	218.1	1.89
353.15	222.54	1.93

System: butan-1-ol; phases: Liquid
Property: Mass density, kg/m3 (Liquid); method: VIBTUB:UFactor:2
Temperature, K	Pressure, kPa	Mass density, kg/m3	uncertainty
298.15	101.325	805.77	0.29

System: 1,4-butanediol; phases: Liquid
Fixed: Pressure, kPa = 101.325
Property: Molar heat capacity at constant pressure, J/K/mol (Liquid); method: SDSC:UFactor:0.5
Temperature, K	Molar heat capacity at constant pressure, J/K/mol	uncertainty
293.15	200.39	1.74
298.15	203.06	1.76
303.15	205.82	1.78
308.15	208.65	1.81
313.15	211.57	1.83
318.15	214.55	1.86
323.15	217.61	1.88
328.15	220.72	1.91
333.15	223.9	1.94
338.15	227.12	1.97
343.15	230.4	2
348.15	233.72	2.02
353.15	237.07	2.05

System: 1,4-butanediol; phases: Liquid
Property: Mass density, kg/m3 (Liquid); method: VIBTUB:UFactor:6
Temperature, K	Pressure, kPa	Mass density, kg/m3	uncertainty
298.15	101.325	1012.747	0.544

System: 2,3-butanediol; phases: Liquid
Fixed: Pressure, kPa = 101.325
Property: Molar heat capacity at constant pressure, J/K/mol (Liquid); method: SDSC:UFactor:0.5
Temperature, K	Molar heat capacity at constant pressure, J/K/mol	uncertainty
298.15	236.67	2.05
303.15	239.28	2.07
308.15	241.85	2.09
313.15	244.35	2.12
318.15	246.82	2.14
323.15	249.23	2.16
328.15	251.6	2.18
333.15	253.91	2.2
338.15	256.17	2.22
343.15	258.39	2.24
348.15	260.55	2.26
353.15	262.67	2.27

System: 2,3-butanediol; phases: Liquid
Property: Mass density, kg/m3 (Liquid); method: VIBTUB:UFactor:6
Temperature, K	Pressure, kPa	Mass density, kg/m3	uncertainty
298.15	101.325	1000.4	0.5

System: 1,2-butanediol; phases: Liquid
Fixed: Pressure, kPa = 101.325
Property: Molar heat capacity at constant pressure, J/K/mol (Liquid); method: SDSC:UFactor:0.5
Temperature, K	Molar heat capacity at constant pressure, J/K/mol	uncertainty
288.15	225.51	1.95
293.15	228.22	1.98
298.15	230.94	2
303.15	233.64	2.02
308.15	236.32	2.05
313.15	238.97	2.07
318.15	241.59	2.09
323.15	244.18	2.11
328.15	246.72	2.14
333.15	249.2	2.16
338.15	251.63	2.18
343.15	254	2.2
348.15	256.29	2.22
353.15	258.5	2.24
358.15	260.63	2.26

System: 1,2-butanediol; phases: Liquid
Property: Mass density, kg/m3 (Liquid); method: VIBTUB:UFactor:6
Temperature, K	Pressure, kPa	Mass density, kg/m3	uncertainty
298.15	101.325	998.408	0.502

System: 2-methyl-2,4-pentanediol; phases: Liquid
Fixed: Pressure, kPa = 101.325
Property: Molar heat capacity at constant pressure, J/K/mol (Liquid); method: SDSC:UFactor:0.5
Temperature, K	Molar heat capacity at constant pressure, J/K/mol	uncertainty
298.15	263.09	2.04
303.15	267.1	2.07
308.15	271.31	2.1
313.15	275.53	2.13
318.15	279.94	2.17
323.15	284.5	2.2
328.15	289.17	2.24
333.15	293.9	2.28
338.15	298.68	2.31
343.15	303.35	2.35
353.15	313.68	2.43

System: 2-methyl-2,4-pentanediol; phases: Liquid
Property: Mass density, kg/m3 (Liquid); method: Vibrating tube method
Temperature, K	Pressure, kPa	Mass density, kg/m3	uncertainty
298.15	101.325	918.22	0.3

System: butan-1-ol + 1,4-butanediol; phases: Liquid
Fixed: Pressure, kPa = 101
Property: Excess molar heat capacity, J/K/mol (Liquid); method: Small sample (50 mg) DSC
Temperature, K	Mole fraction of 1,4-butanediol	Excess molar heat capacity, J/K/mol	uncertainty
293.15	0.0804	0.031	0.155
293.15	0.1099	0.095	0.156
293.15	0.1826	0.129	0.157
293.15	0.2497	0.127	0.157
293.15	0.3244	0.089	0.156
293.15	0.4968	-0.008	0.155
293.15	0.5919	0.005	0.155
293.15	0.713	-0.067	0.156
293.15	0.8323	-0.102	0.157
293.15	0.8892	-0.075	0.156
298.15	0.0804	-0.055	0.156
298.15	0.1099	0.096	0.156
298.15	0.1826	0.011	0.155
298.15	0.2497	0.093	0.156
298.15	0.3244	0.016	0.155
298.15	0.4968	-0.027	0.155
298.15	0.5919	-0.055	0.156
298.15	0.713	-0.111	0.157
298.15	0.8323	-0.08	0.156
298.15	0.8892	-0.083	0.156
303.15	0.0804	-0.07	0.156
303.15	0.1099	0.055	0.156
303.15	0.1826	-0.081	0.156
303.15	0.2497	0.025	0.155
303.15	0.3244	-0.041	0.156
303.15	0.4968	-0.104	0.157
303.15	0.5919	-0.125	0.157
303.15	0.713	-0.103	0.157
303.15	0.8323	-0.086	0.156
303.15	0.8892	-0.052	0.156
308.15	0.0804	-0.171	0.158
308.15	0.1099	-0.05	0.156
308.15	0.1826	-0.204	0.158
308.15	0.2497	-0.14	0.157
308.15	0.3244	-0.212	0.158
308.15	0.4968	-0.197	0.158
308.15	0.5919	-0.186	0.158
308.15	0.713	-0.3	0.16
308.15	0.8323	-0.16	0.157
308.15	0.8892	-0.078	0.156
313.15	0.0804	-0.148	0.157
313.15	0.1099	-0.13	0.157
313.15	0.1826	-0.267	0.159
313.15	0.2497	-0.173	0.158
313.15	0.3244	-0.257	0.159
313.15	0.4968	-0.275	0.159
313.15	0.5919	-0.338	0.16
313.15	0.713	-0.191	0.158
313.15	0.8323	-0.162	0.157
313.15	0.8892	-0.128	0.157
318.15	0.0804	-0.178	0.158
318.15	0.1099	-0.182	0.158
318.15	0.1826	-0.397	0.161
318.15	0.2497	-0.406	0.161
318.15	0.3244	-0.496	0.163
318.15	0.4968	-0.473	0.162
318.15	0.5919	-0.442	0.162
318.15	0.713	-0.455	0.162
318.15	0.8323	-0.218	0.158
318.15	0.8892	-0.158	0.157
323.15	0.0804	-0.237	0.159
323.15	0.1099	-0.28	0.159
323.15	0.1826	-0.432	0.162
323.15	0.2497	-0.493	0.163
323.15	0.3244	-0.537	0.163
323.15	0.4968	-0.58	0.164
323.15	0.5919	-0.612	0.164
323.15	0.713	-0.583	0.164
323.15	0.8323	-0.385	0.161
323.15	0.8892	-0.287	0.159
328.15	0.0804	-0.29	0.159
328.15	0.1099	-0.428	0.162
328.15	0.1826	-0.591	0.164
328.15	0.2497	-0.671	0.165
328.15	0.3244	-0.676	0.165
328.15	0.4968	-0.7	0.166
328.15	0.5919	-0.728	0.166
328.15	0.713	-0.633	0.165
328.15	0.8323	-0.381	0.161
328.15	0.8892	-0.244	0.159
333.15	0.0804	-0.457	0.162
333.15	0.1099	-0.461	0.162
333.15	0.1826	-0.871	0.168
333.15	0.2497	-0.844	0.168
333.15	0.3244	-0.913	0.169
333.15	0.4968	-0.849	0.168
333.15	0.5919	-0.837	0.168
333.15	0.713	-0.713	0.166
333.15	0.8323	-0.434	0.162
333.15	0.8892	-0.262	0.159
338.15	0.0804	-0.522	0.163
338.15	0.1099	-0.661	0.165
338.15	0.1826	-1.02	0.17
338.15	0.2497	-1.06	0.17
338.15	0.3244	-1.11	0.17
338.15	0.4968	-1.03	0.17
338.15	0.5919	-0.983	0.17
338.15	0.713	-0.814	0.168
338.15	0.8323	-0.473	0.162
338.15	0.8892	-0.303	0.16
343.15	0.0804	-0.551	0.163
343.15	0.1099	-0.786	0.167
343.15	0.1826	-1.15	0.17
343.15	0.2497	-1.19	0.17
343.15	0.3244	-1.19	0.17
343.15	0.4968	-1.17	0.17
343.15	0.5919	-1.09	0.17
343.15	0.713	-0.888	0.169
343.15	0.8323	-0.543	0.163
343.15	0.8892	-0.369	0.161
348.15	0.0804	-0.651	0.165
348.15	0.1099	-0.864	0.168
348.15	0.1826	-1.28	0.17
348.15	0.2497	-1.42	0.18
348.15	0.3244	-1.32	0.18
348.15	0.4968	-1.28	0.17
348.15	0.5919	-1.19	0.17
348.15	0.713	-0.977	0.17
348.15	0.8323	-0.599	0.164
348.15	0.8892	-0.432	0.162
353.15	0.0804	-0.751	0.167
353.15	0.1099	-0.931	0.169
353.15	0.1826	-1.36	0.18
353.15	0.2497	-1.52	0.18
353.15	0.3244	-1.52	0.18
353.15	0.4968	-1.4	0.18
353.15	0.5919	-1.21	0.17
353.15	0.713	-0.958	0.17
353.15	0.8323	-0.587	0.164
353.15	0.8892	-0.416	0.161
