Measured thermophysical data. Experimental determination of the critical loci for R-23 + (npropane or n-hexane) and R-116 + n-propane binary mixtures
Source: J. Chem. Thermodyn., 2017, 10.1016/j.jct.2016.12.021
Compound 1: trifluoromethane, CHF3, InChI=1S/CHF3/c2-1(3)4/h1H, purity 99.5%
Compound 2: hexafluoroethane, C2F6, InChI=1S/C2F6/c3-1(4,5)2(6,7)8, purity 99.999%
Compound 3: propane, C3H8, InChI=1S/C3H8/c1-3-2/h3H2,1-2H3, purity 99.995%
Compound 4: hexane, C6H14, InChI=1S/C6H14/c1-3-5-6-4-2/h3-6H2,1-2H3, purity 99%

System: trifluoromethane; phases: Liquid, Gas
Property: Vapor or sublimation pressure, kPa (Liquid); method: Closed cell (Static) method
Temperature, K	Vapor or sublimation pressure, kPa	uncertainty
293.18	4171.7	11
298.15	4709.3	11.6

System: propane; phases: Liquid, Gas
Property: Vapor or sublimation pressure, kPa (Liquid); method: Closed cell (Static) method
Temperature, K	Vapor or sublimation pressure, kPa	uncertainty
293.18	836.8	2.4
298.15	950.8	2.8
313.15	1380.1	10.5
323.15	1713	4.5
353.15	3135.4	6.2

System: propane + trifluoromethane; phases: Liquid, Gas
Property: Vapor or sublimation pressure, kPa (Liquid); method: Closed cell (Static) method
Mole fraction of trifluoromethane	Temperature, K	Vapor or sublimation pressure, kPa	uncertainty
0	293.18	836.8	3.2
0.053	293.18	1353.8	68
0.12	293.18	1859.4	42.5
0.322	293.18	2811.8	34.3
0.453	293.18	3197.9	23.8
0.625	293.18	3600.2	22.6
0.687	293.18	3734.5	22.1
0.776	293.18	3925.8	21
0.906	293.18	4141.9	17.5
0.937	293.18	4170.3	17.4
0.948	293.18	4176.9	16.7
0.954	293.18	4180	16.2
0.959	293.18	4179.7	16.2
0.966	293.18	4181.9	16.2
0.97	293.18	4182.3	16.1
0.974	293.18	4182.1	16.1
0.977	293.18	4182.2	16.2
0.982	293.18	4180.5	16.4
0.986	293.18	4179	16.2
0.992	293.18	4178.7	16.7
1	293.18	4171.7	16.1
0	298.15	950.8	3.7
0.075	298.15	1683.1	73
0.314	298.15	3065.1	37.1
0.17	298.15	2362.1	52.1
0.484	298.15	3616.4	30
0.61	298.15	3960.4	27.8
0.72	298.15	4246.4	27.6
0.819	298.15	4494.9	25.7
0.84	298.15	4541.1	26
0.85	298.15	4564.4	25.5
0.871	298.15	4606.7	24.6
0.883	298.15	4628.7	23.4
0.906	298.15	4668.6	21.9
0.927	298.15	4694.4	19.4
0.957	298.15	4718	17.7
0.964	298.15	4719.1	17.7
0.968	298.15	4720.6	17.7
0.98	298.15	4721.7	17.7
0.988	298.15	4720.8	18.6
1	298.15	4709.3	17.6
0	313.15	1380.1	11
0.057	313.15	2038.8	86.3
0.173	313.15	3067.4	70.3
0.278	313.15	3740.9	55.2
0.354	313.15	4140.8	44.2
0.46	313.15	4605.4	40.5
0.512	313.15	4803.8	36.6
0.55	313.15	4932.4	32.5
0.576	313.15	5000.6	29
0	323.15	1713	6.4
0.04	323.15	2226.4	119.3
0.06	323.15	2452.5	94.6
0.097	323.15	2850.3	84.9
0.128	323.15	3157.2	86.7
0.172	323.15	3554.1	70.6
0.257	323.15	4181	64.8
0.307	323.15	4498.2	55.7
0.366	323.15	4832.6	51
0.406	323.15	5028.7	43.7
0.437	323.15	5150.4	39.1
0.447	323.15	5189.5	39.1
0	353.15	3135.4	10.4
0.018	353.15	3420.4	60.5
0.025	353.15	3501	55.3
0.046	353.15	3794.9	55.6
0.062	353.15	4001.5	51.7
0.085	353.15	4283.1	51.1
0.092	353.15	4370.8	51.7
0.096	353.15	4419.8	48.4
0.105	353.15	4521.8	45.7
0.115	353.15	4625.6	42.5
0.125	353.15	4720.8	41

System: propane + trifluoromethane; phases: Gas, Liquid
Property: Mole fraction of trifluoromethane (Gas); method: Chromatography
Mole fraction of trifluoromethane	Temperature, K	Mole fraction of trifluoromethane	uncertainty
0	293.18	0	
0.053	293.18	0.341	0.009
0.12	293.18	0.508	0.01
0.322	293.18	0.67	0.01
0.453	293.18	0.717	0.009
0.625	293.18	0.769	0.009
0.687	293.18	0.792	0.009
0.776	293.18	0.83	0.009
0.906	293.18	0.915	0.009
0.937	293.18	0.94	0.009
0.948	293.18	0.949	0.009
0.954	293.18	0.955	0.009
0.959	293.18	0.96	0.009
0.966	293.18	0.967	0.009
0.97	293.18	0.97	0.009
0.974	293.18	0.974	0.009
0.977	293.18	0.977	0.009
0.982	293.18	0.982	0.009
0.986	293.18	0.986	0.009
0.992	293.18	0.991	0.009
1	293.18	1	
0	298.15	0	
0.075	298.15	0.387	0.009
0.314	298.15	0.648	0.009
0.17	298.15	0.55	0.009
0.484	298.15	0.709	0.008
0.61	298.15	0.747	0.008
0.72	298.15	0.788	0.008
0.819	298.15	0.841	0.008
0.84	298.15	0.854	0.008
0.85	298.15	0.862	0.008
0.871	298.15	0.878	0.008
0.883	298.15	0.888	0.008
0.906	298.15	0.906	0.008
0.927	298.15	0.927	0.008
0.957	298.15	0.957	0.008
0.964	298.15	0.964	0.008
0.968	298.15	0.968	0.008
0.98	298.15	0.979	0.008
0.988	298.15	0.988	0.008
1	298.15	1	
0	313.15	0	
0.057	313.15	0.274	0.009
0.173	313.15	0.481	0.01
0.278	313.15	0.558	0.01
0.354	313.15	0.592	0.01
0.46	313.15	0.623	0.01
0.512	313.15	0.629	0.01
0.55	313.15	0.63	0.01
0.576	313.15	0.623	0.01
0	323.15	0	
0.04	323.15	0.182	0.009
0.06	323.15	0.239	0.009
0.097	323.15	0.327	0.009
0.128	323.15	0.374	0.01
0.172	323.15	0.431	0.01
0.257	323.15	0.491	0.01
0.307	323.15	0.505	0.01
0.366	323.15	0.523	0.01
0.406	323.15	0.53	0.01
0.437	323.15	0.527	0.01
0.447	323.15	0.523	0.01
0	353.15	0	
0.018	353.15	0.048	0.005
0.025	353.15	0.063	0.005
0.046	353.15	0.104	0.005
0.062	353.15	0.133	0.005
0.085	353.15	0.163	0.005
0.092	353.15	0.17	0.005
0.096	353.15	0.173	0.005
0.105	353.15	0.182	0.005
0.115	353.15	0.189	0.005
0.125	353.15	0.195	0.005

System: propane + trifluoromethane; phases: Liquid, Gas
Property: Critical temperature, K (Liquid); method: Visual observation in an unstirred cell
Mole fraction of trifluoromethane	Critical temperature, K	uncertainty
0.071	364.2	0.7
0.221	351.9	0.6
0.325	342	0.7
0.326	342.1	0.6
0.434	331.3	0.7
0.569	313.9	0.5
0.624	311.3	0.5
0.706	306.5	0.9

System: propane + trifluoromethane; phases: Liquid, Gas
Property: Critical pressure, kPa (Liquid); method: Direct measurement
Mole fraction of trifluoromethane	Critical pressure, kPa	uncertainty
0.071	4610	50
0.221	5080	30
0.325	5320	160
0.326	5280	160
0.434	5370	50
0.569	5070	30
0.624	4970	20
0.706	4820	30

System: propane + trifluoromethane; phases: Liquid, Gas
Property: Vapor or sublimation pressure, kPa (Liquid); method: Closed cell (Static) method
Mole fraction of trifluoromethane	Temperature, K	Vapor or sublimation pressure, kPa	uncertainty
0.955	293.18	4177.4	61.2
0.962	298.15	4718.4	17.2
0.237	323.15	2439	54.4
0.418	323.15	3513	59.7
0.485	323.15	4074.8	77.2

System: trifluoromethane + hexane; phases: Liquid, Gas
Property: Critical temperature, K (Liquid); method: Visual observation in an unstirred cell
Mole fraction of trifluoromethane	Critical temperature, K	uncertainty
0.111	503.3	1
0.32	486.9	0.9
0.537	454.3	1.2
0.661	427.8	0.6
0.773	383.2	1.3
0.86	343	1.3
0.922	318.7	0.9
0.944	310.8	0.8

System: trifluoromethane + hexane; phases: Liquid, Gas
Property: Critical pressure, kPa (Liquid); method: Direct measurement
Mole fraction of trifluoromethane	Critical pressure, kPa	uncertainty
0.111	3660	90
0.32	5340	90
0.537	7910	100
0.661	9180	120
0.773	9820	100
0.86	7980	70
0.922	5950	90
0.944	5410	60

System: propane + hexafluoroethane; phases: Liquid, Gas
Property: Critical temperature, K (Liquid); method: Visual observation in an unstirred cell
Mole fraction of hexafluoroethane	Critical temperature, K	uncertainty
0.071	362	0.7
0.179	348.2	0.6
0.259	338.7	0.5
0.411	323.4	0.4
0.521	313.3	0.3
0.752	298.5	0.3

System: propane + hexafluoroethane; phases: Liquid, Gas
Property: Critical pressure, kPa (Liquid); method: Direct measurement
Mole fraction of hexafluoroethane	Critical pressure, kPa	uncertainty
0.071	4310	30
0.179	4260	40
0.259	4160	10
0.411	3850	20
0.521	3610	20
0.752	3170	10
