Measured thermophysical data. Solubility and thermodynamic properties of vanillyl alcohol in some pure solvents
Source: J. Chem. Thermodyn., 2017, 10.1016/j.jct.2016.11.030
Compound 1: 4-hydroxy-3-methoxybenzyl alcohol, C8H10O3, InChI=1S/C8H10O3/c1-11-8-4-6(5-9)2-3-7(8)10/h2-4,9-10H,5H2,1H3, purity 99.5%
Compound 2: ethanol, C2H6O, InChI=1S/C2H6O/c1-2-3/h3H,2H2,1H3, purity 99.7%
Compound 3: propan-2-ol, C3H8O, InChI=1S/C3H8O/c1-3(2)4/h3-4H,1-2H3, purity 99.7%
Compound 4: butan-1-ol, C4H10O, InChI=1S/C4H10O/c1-2-3-4-5/h5H,2-4H2,1H3, purity 99.7%
Compound 5: pentan-1-ol, C5H12O, InChI=1S/C5H12O/c1-2-3-4-5-6/h6H,2-5H2,1H3, purity 99.7%
Compound 6: 3-methylbutan-1-ol, C5H12O, InChI=1S/C5H12O/c1-5(2)3-4-6/h5-6H,3-4H2,1-2H3, purity 99.7%
Compound 7: acetonitrile, C2H3N, InChI=1S/C2H3N/c1-2-3/h1H3, purity 99.7%
Compound 8: ethyl acetate, C4H8O2, InChI=1S/C4H8O2/c1-3-6-4(2)5/h3H2,1-2H3, purity 99.7%
Compound 9: butyl ethanoate, C6H12O2, InChI=1S/C6H12O2/c1-3-4-5-8-6(2)7/h3-5H2,1-2H3, purity 99.7%

System: 4-hydroxy-3-methoxybenzyl alcohol; phases: Crystal, Liquid, Air at 1 atmosphere
Property: Normal melting temperature, K (Crystal); method: DTA
Normal melting temperature, K	uncertainty
389	1.1

System: 4-hydroxy-3-methoxybenzyl alcohol; phases: Crystal, Liquid, Air at 1 atmosphere
Property: Molar enthalpy of transition or fusion, kJ/mol (Crystal); method: DSC
Molar enthalpy of transition or fusion, kJ/mol	uncertainty
30.74	1.37

System: 4-hydroxy-3-methoxybenzyl alcohol; phases: Crystal
Property: Molar volume, m3/mol (Crystal); method: Pycnometric method
Temperature, K	Pressure, kPa	Molar volume, m3/mol	uncertainty
298	101.325	0.0002827	2.9e-06

System: ethanol + 4-hydroxy-3-methoxybenzyl alcohol; phases: Liquid, Crystal
Fixed: Pressure, kPa = 101.3
Property: Mole fraction of 4-hydroxy-3-methoxybenzyl alcohol (Liquid); method: gravimetric
Temperature, K	Mole fraction of 4-hydroxy-3-methoxybenzyl alcohol	uncertainty
293.15	0.0442	0.0044
303.15	0.0627	0.0063
313.15	0.0936	0.0094
323.15	0.142	0.014
333.15	0.205	0.021
343.15	0.317	0.032

System: propan-2-ol + 4-hydroxy-3-methoxybenzyl alcohol; phases: Liquid, Crystal
Fixed: Pressure, kPa = 101.3
Property: Mole fraction of 4-hydroxy-3-methoxybenzyl alcohol (Liquid); method: gravimetric
Temperature, K	Mole fraction of 4-hydroxy-3-methoxybenzyl alcohol	uncertainty
293.15	0.0284	0.0028
303.15	0.0418	0.0042
313.15	0.0578	0.0058
323.15	0.0957	0.0096
333.15	0.149	0.015
343.15	0.237	0.024

System: butan-1-ol + 4-hydroxy-3-methoxybenzyl alcohol; phases: Liquid, Crystal
Fixed: Pressure, kPa = 101.3
Property: Mole fraction of 4-hydroxy-3-methoxybenzyl alcohol (Liquid); method: gravimetric
Temperature, K	Mole fraction of 4-hydroxy-3-methoxybenzyl alcohol	uncertainty
293.15	0.0234	0.0023
303.15	0.0393	0.0039
313.15	0.0538	0.0054
323.15	0.0902	0.009
333.15	0.134	0.013
343.15	0.182	0.018

System: pentan-1-ol + 4-hydroxy-3-methoxybenzyl alcohol; phases: Liquid, Crystal
Fixed: Pressure, kPa = 101.3
Property: Mole fraction of 4-hydroxy-3-methoxybenzyl alcohol (Liquid); method: gravimetric
Temperature, K	Mole fraction of 4-hydroxy-3-methoxybenzyl alcohol	uncertainty
293.15	0.0214	0.0021
303.15	0.0338	0.0034
313.15	0.049	0.0049
323.15	0.0728	0.0073
333.15	0.102	0.01
343.15	0.155	0.016

System: 3-methylbutan-1-ol + 4-hydroxy-3-methoxybenzyl alcohol; phases: Liquid, Crystal
Fixed: Pressure, kPa = 101.3
Property: Mole fraction of 4-hydroxy-3-methoxybenzyl alcohol (Liquid); method: gravimetric
Temperature, K	Mole fraction of 4-hydroxy-3-methoxybenzyl alcohol	uncertainty
293.15	0.0225	0.0023
303.15	0.0302	0.003
313.15	0.0447	0.0045
323.15	0.0652	0.0065
333.15	0.0912	0.0091
343.15	0.14	0.014

System: acetonitrile + 4-hydroxy-3-methoxybenzyl alcohol; phases: Liquid, Crystal
Fixed: Pressure, kPa = 101.3
Property: Mole fraction of 4-hydroxy-3-methoxybenzyl alcohol (Liquid); method: gravimetric
Temperature, K	Mole fraction of 4-hydroxy-3-methoxybenzyl alcohol	uncertainty
293.15	0.0172	0.0017
303.15	0.0262	0.0026
313.15	0.0415	0.0042
323.15	0.0713	0.0071
333.15	0.127	0.013
343.15	0.22	0.022

System: ethyl acetate + 4-hydroxy-3-methoxybenzyl alcohol; phases: Liquid, Crystal
Fixed: Pressure, kPa = 101.3
Property: Mole fraction of 4-hydroxy-3-methoxybenzyl alcohol (Liquid); method: gravimetric
Temperature, K	Mole fraction of 4-hydroxy-3-methoxybenzyl alcohol	uncertainty
293.15	0.0176	0.0018
303.15	0.0296	0.003
313.15	0.0393	0.0039
323.15	0.0682	0.0068
333.15	0.1	0.01
343.15	0.163	0.016

System: butyl ethanoate + 4-hydroxy-3-methoxybenzyl alcohol; phases: Liquid, Crystal
Fixed: Pressure, kPa = 101.3
Property: Mole fraction of 4-hydroxy-3-methoxybenzyl alcohol (Liquid); method: gravimetric
Temperature, K	Mole fraction of 4-hydroxy-3-methoxybenzyl alcohol	uncertainty
293.15	0.0098	0.00098
303.15	0.0177	0.0018
313.15	0.027	0.0027
323.15	0.0428	0.0043
333.15	0.0653	0.0065
343.15	0.107	0.011
