Measured thermophysical data. Isentropic compressibilities of (amide + water) mixtures: A comparative study
Source: J. Chem. Thermodyn., 2008, 10.1016/j.jct.2007.05.015
Compound 1: formamide, CH3NO, InChI=1S/CH3NO/c2-1-3/h1H,(H2,2,3)
Compound 2: N-methylformamide, C2H5NO, InChI=1S/C2H5NO/c1-3-2-4/h2H,1H3,(H,3,4)
Compound 3: dimethylformamide, C3H7NO, InChI=1S/C3H7NO/c1-4(2)3-5/h3H,1-2H3
Compound 4: N,N-dimethylethanamide, C4H9NO, InChI=1S/C4H9NO/c1-4(6)5(2)3/h1-3H3
Compound 5: 2-pyrrolidinone, C4H7NO, InChI=1S/C4H7NO/c6-4-2-1-3-5-4/h1-3H2,(H,5,6)
Compound 6: N-methylpyrrolidone, C5H9NO, InChI=1S/C5H9NO/c1-6-4-2-3-5(6)7/h2-4H2,1H3
Compound 7: water, H2O, InChI=1S/H2O/h1H2

System: formamide; phases: Liquid
Property: Speed of sound, m/s (Liquid); method: FPINT::UFactor:4
Pressure, kPa	Temperature, K	Speed of sound, m/s	uncertainty
101	298.15	1597.28	3.6

System: formamide; phases: Liquid
Property: Mass density, kg/m3 (Liquid); method: VIBTUB::UFactor:16
Pressure, kPa	Temperature, K	Mass density, kg/m3	uncertainty
101	298.15	1128.78	1.55

System: N-methylformamide; phases: Liquid
Property: Speed of sound, m/s (Liquid); method: FPINT::UFactor:4
Pressure, kPa	Temperature, K	Speed of sound, m/s	uncertainty
101	298.15	1431.91	3.42

System: N-methylformamide; phases: Liquid
Property: Mass density, kg/m3 (Liquid); method: VIBTUB::UFactor:16
Pressure, kPa	Temperature, K	Mass density, kg/m3	uncertainty
101	298.15	999.06	0.7

System: dimethylformamide; phases: Liquid
Property: Speed of sound, m/s (Liquid); method: FPINT::UFactor:8
Pressure, kPa	Temperature, K	Speed of sound, m/s	uncertainty
101	298.15	1457.49	5.76

System: dimethylformamide; phases: Liquid
Property: Mass density, kg/m3 (Liquid); method: VIBTUB::UFactor:16
Pressure, kPa	Temperature, K	Mass density, kg/m3	uncertainty
101	298.15	943.94	0.85

System: N,N-dimethylethanamide; phases: Liquid
Property: Speed of sound, m/s (Liquid); method: FPINT::UFactor:8
Pressure, kPa	Temperature, K	Speed of sound, m/s	uncertainty
101	298.15	1455.91	5.77

System: N,N-dimethylethanamide; phases: Liquid
Property: Mass density, kg/m3 (Liquid); method: VIBTUB::UFactor:32
Pressure, kPa	Temperature, K	Mass density, kg/m3	uncertainty
101	298.15	936.34	1.83

System: 2-pyrrolidinone; phases: Liquid
Property: Speed of sound, m/s (Liquid); method: FPINT::UFactor:8
Pressure, kPa	Temperature, K	Speed of sound, m/s	uncertainty
101	298.15	1633.68	6.38

System: 2-pyrrolidinone; phases: Liquid
Property: Mass density, kg/m3 (Liquid); method: VIBTUB::UFactor:16
Pressure, kPa	Temperature, K	Mass density, kg/m3	uncertainty
101	298.15	1107.52	1.41

System: N-methylpyrrolidone; phases: Liquid
Property: Speed of sound, m/s (Liquid); method: FPINT::UFactor:8
Pressure, kPa	Temperature, K	Speed of sound, m/s	uncertainty
101	298.15	1531.45	6.07

System: N-methylpyrrolidone; phases: Liquid
Property: Mass density, kg/m3 (Liquid); method: VIBTUB::UFactor:16
Pressure, kPa	Temperature, K	Mass density, kg/m3	uncertainty
101	298.15	1028.23	0.88

System: formamide + water; phases: Liquid
Fixed: Pressure, kPa = 101
Fixed: Temperature, K = 298.15
Property: Speed of sound, m/s (Liquid); method: FPINT:UFactor:4
Mole fraction of formamide	Speed of sound, m/s	uncertainty
0	1497.03	3.35
0.01258	1506.97	3.36
0.01991	1512.23	3.37
0.0361	1522.77	3.38
0.05028	1530.9	3.39
0.06473	1538.28	3.4
0.07977	1545.12	3.41
0.09437	1551.04	3.41
0.11246	1557.54	3.42
0.13468	1564.45	3.43
0.15959	1570.97	3.44
0.19461	1578.29	3.45
0.22952	1584.06	3.46
0.25478	1587.46	3.47
0.2731	1589.49	3.47
0.29195	1591.37	3.47
0.33428	1594.66	3.48
0.3711	1596.71	3.49
0.40457	1598.07	3.49
0.45522	1599.44	3.5
0.48842	1600	3.51
0.50252	1600.15	3.51
0.52247	1600.34	3.51
0.55641	1600.5	3.52
0.59496	1600.54	3.52
0.62975	1600.45	3.53
0.67139	1600.24	3.54
0.70199	1600.03	3.54
0.72296	1599.82	3.55
0.7544	1599.64	3.55
0.77998	1599.41	3.56
0.80943	1599.14	3.56
0.83576	1598.85	3.57
0.87518	1598.58	3.58
0.91702	1598.23	3.58
0.94653	1598.01	3.59
0.97025	1597.88	3.6
1	1597.28	3.6

System: formamide + water; phases: Liquid
Fixed: Pressure, kPa = 101
Fixed: Temperature, K = 298.15
Property: Mass density, kg/m3 (Liquid); method: VIBTUB:UFactor:16
Mole fraction of formamide	Mass density, kg/m3	uncertainty
0	997.02	0.52
0.01258	1001.58	0.51
0.01991	1004.13	0.52
0.0361	1009.48	0.56
0.05028	1013.93	0.59
0.06473	1018.25	0.62
0.07977	1022.53	0.64
0.09437	1026.49	0.67
0.11246	1031.16	0.7
0.13468	1036.54	0.74
0.15959	1042.19	0.77
0.19461	1049.41	0.82
0.22952	1056.08	0.87
0.25478	1060.55	0.9
0.2731	1063.6	0.92
0.29195	1066.61	0.94
0.33428	1072.9	0.99
0.3711	1077.91	1.03
0.40457	1082.13	1.06
0.45522	1088.06	1.11
0.48842	1091.6	1.14
0.50252	1093.05	1.15
0.52247	1094.97	1.17
0.55641	1098.27	1.2
0.59496	1101.68	1.23
0.62975	1104.65	1.26
0.67139	1107.95	1.29
0.70199	1110.28	1.32
0.72296	1111.82	1.33
0.7544	1113.99	1.36
0.77998	1115.76	1.38
0.80943	1117.67	1.4
0.83576	1119.42	1.42
0.87518	1121.79	1.45
0.91702	1124.23	1.49
0.94653	1125.98	1.51
0.97025	1127.29	1.53
1	1128.78	1.55

System: N-methylformamide + water; phases: Liquid
Fixed: Pressure, kPa = 101
Fixed: Temperature, K = 298.15
Property: Speed of sound, m/s (Liquid); method: FPINT:UFactor:4
Mole fraction of N-methylformamide	Speed of sound, m/s	uncertainty
0	1497.03	3.35
0.01572	1518.74	3.37
0.03276	1538.85	3.4
0.05095	1557.22	3.42
0.07104	1574.12	3.44
0.09226	1582.73	3.45
0.11557	1591.27	3.46
0.14098	1601.56	3.47
0.17144	1606.06	3.48
0.20054	1606.15	3.48
0.23391	1603.41	3.48
0.27138	1598.79	3.48
0.30468	1594.03	3.48
0.31855	1589.32	3.48
0.33674	1583.72	3.47
0.36149	1572.98	3.46
0.3853	1560.74	3.45
0.41658	1551.93	3.45
0.44559	1542.9	3.44
0.47853	1534.22	3.43
0.51092	1526.39	3.43
0.54968	1514.67	3.42
0.58048	1507.48	3.42
0.59133	1502.62	3.41
0.61641	1497.2	3.41
0.63352	1493.09	3.41
0.68098	1480.58	3.41
0.73228	1469.02	3.4
0.77901	1462.89	3.4
0.82792	1454.5	3.41
0.85347	1449.5	3.41
0.87627	1446.45	3.41
0.91695	1441.1	3.41
0.9285	1440.17	3.41
1	1431.91	3.42

System: N-methylformamide + water; phases: Liquid
Fixed: Pressure, kPa = 101
Fixed: Temperature, K = 298.15
Property: Mass density, kg/m3 (Liquid); method: VIBTUB:UFactor:16
Mole fraction of N-methylformamide	Mass density, kg/m3	uncertainty
0	997.02	0.52
0.01572	999.1	0.5
0.03276	1001.38	0.51
0.05095	1003.6	0.52
0.07104	1005.91	0.54
0.09226	1007.87	0.55
0.11557	1010.1	0.57
0.14098	1011.91	0.58
0.17144	1013.58	0.59
0.20054	1014.89	0.61
0.23391	1015.73	0.61
0.27138	1016.31	0.62
0.30468	1016.34	0.63
0.31855	1016.28	0.63
0.33674	1016.3	0.63
0.36149	1015.86	0.63
0.3853	1015.45	0.63
0.41658	1014.47	0.63
0.44559	1013.64	0.63
0.47853	1012.83	0.63
0.51092	1011.92	0.63
0.54968	1010.88	0.64
0.58048	1010.04	0.64
0.59133	1009.49	0.64
0.61641	1008.9	0.64
0.63352	1008.22	0.64
0.68098	1006.72	0.64
0.73228	1005.35	0.64
0.77901	1004.51	0.65
0.82792	1003.34	0.66
0.85347	1002.54	0.66
0.87627	1001.72	0.66
0.91695	1001.03	0.67
0.9285	1000.72	0.67
1	999.06	0.7

System: dimethylformamide + water; phases: Liquid
Fixed: Pressure, kPa = 101
Fixed: Temperature, K = 298.15
Property: Speed of sound, m/s (Liquid); method: FPINT:UFactor:8
Mole fraction of dimethylformamide	Speed of sound, m/s	uncertainty
0	1497.03	5.88
0.01233	1526.32	5.97
0.0266	1555.74	6.06
0.0276	1554.23	6.06
0.04154	1582.28	6.14
0.05803	1607.43	6.22
0.07593	1628.75	6.29
0.09542	1647.5	6.35
0.11728	1658.97	6.38
0.14116	1675.47	6.43
0.16771	1684.58	6.46
0.19751	1688.25	6.47
0.23003	1687.82	6.47
0.28661	1676.62	6.44
0.31385	1669.27	6.41
0.37711	1647.66	6.35
0.42474	1629.09	6.29
0.44936	1620.3	6.26
0.47547	1610.07	6.23
0.49546	1599.49	6.2
0.52028	1592	6.18
0.53357	1585.66	6.16
0.55499	1572.13	6.12
0.58057	1565.77	6.09
0.61685	1559.02	6.07
0.63702	1550.47	6.05
0.65512	1545.24	6.03
0.69306	1538.21	6.01
0.71724	1527.74	5.98
0.73729	1519.67	5.95
0.75301	1514.8	5.94
0.76664	1512.32	5.93
0.80367	1504.31	5.9
0.81258	1501.17	5.89
0.84695	1493.03	5.87
0.86943	1491.4	5.86
0.8911	1488.38	5.85
0.92495	1476.61	5.82
0.96614	1469.12	5.8
1	1457.49	5.76

System: dimethylformamide + water; phases: Liquid
Fixed: Pressure, kPa = 101
Fixed: Temperature, K = 298.15
Property: Mass density, kg/m3 (Liquid); method: VIBTUB:UFactor:16
Mole fraction of dimethylformamide	Mass density, kg/m3	uncertainty
0	997.02	0.52
0.01233	996.44	0.52
0.0266	996.21	0.52
0.0276	996.23	0.52
0.04154	996.18	0.52
0.05803	996.38	0.52
0.07593	996.62	0.52
0.09542	996.84	0.52
0.11728	997.02	0.52
0.14116	996.93	0.52
0.16771	996.02	0.52
0.19751	995.1	0.53
0.23003	993.87	0.54
0.28661	990.18	0.56
0.31385	989.17	0.57
0.37711	984.28	0.6
0.42474	981.19	0.62
0.44936	979.47	0.63
0.47547	977.79	0.64
0.49546	976.4	0.65
0.52028	974.98	0.66
0.53357	974.17	0.66
0.55499	972.69	0.67
0.58057	970.92	0.68
0.61685	968.9	0.7
0.63702	967.32	0.71
0.65512	965.83	0.72
0.69306	963.35	0.73
0.71724	961.78	0.74
0.73729	960.6	0.75
0.75301	959.56	0.75
0.76664	958.73	0.76
0.80367	956.19	0.78
0.81258	955.54	0.78
0.84695	953.57	0.79
0.86943	952.12	0.8
0.8911	950.68	0.81
0.92495	948.01	0.83
0.96614	946.28	0.84
1	943.94	0.85

System: N,N-dimethylethanamide + water; phases: Liquid
Fixed: Pressure, kPa = 101
Fixed: Temperature, K = 298.15
Property: Speed of sound, m/s (Liquid); method: FPINT:UFactor:8
Mole fraction of N,N-dimethylethanamide	Speed of sound, m/s	uncertainty
0	1497.03	5.88
0.00083	1499.79	5.89
0.00163	1502.39	5.9
0.03959	1616.25	6.25
0.055	1645.53	6.34
0.06456	1663.23	6.4
0.08126	1678.58	6.44
0.10004	1700.27	6.51
0.12077	1717.94	6.57
0.14474	1730.72	6.6
0.17135	1737.89	6.63
0.20119	1749.38	6.66
0.23807	1734.5	6.62
0.27612	1719.69	6.57
0.3245	1703.57	6.52
0.37834	1682.06	6.46
0.41368	1668.95	6.42
0.45195	1653.42	6.37
0.48319	1638.16	6.33
0.53716	1605.36	6.23
0.58304	1586.76	6.17
0.64962	1559.24	6.08
0.70744	1534.23	6.01
0.76331	1521.98	5.97
0.83424	1489	5.87
0.90531	1482.2	5.85
1	1455.91	5.77

System: N,N-dimethylethanamide + water; phases: Liquid
Fixed: Pressure, kPa = 101
Fixed: Temperature, K = 298.15
Property: Mass density, kg/m3 (Liquid); method: VIBTUB:UFactor:32
Mole fraction of N,N-dimethylethanamide	Mass density, kg/m3	uncertainty
0	997.02	1.03
0.00083	996.94	1.03
0.00163	996.87	1.03
0.03959	995.84	1.05
0.055	996.37	1.04
0.06456	996.62	1.04
0.08126	997.29	1.03
0.10004	997.94	1.02
0.12077	998.5	1.01
0.14474	998.68	1.01
0.17135	998.55	1.02
0.20119	997.61	1.03
0.23807	995.72	1.05
0.27612	992.03	1.1
0.3245	988.32	1.15
0.37834	985.12	1.19
0.41368	982.41	1.23
0.45195	979.26	1.27
0.48319	975.57	1.31
0.53716	969.73	1.39
0.58304	965.29	1.45
0.64962	959.34	1.52
0.70744	953.42	1.6
0.76331	949.72	1.65
0.83424	946.12	1.7
0.90531	940.96	1.77
1	936.34	1.83

System: 2-pyrrolidinone + water; phases: Liquid
Fixed: Pressure, kPa = 101
Fixed: Temperature, K = 298.15
Property: Speed of sound, m/s (Liquid); method: FPINT:UFactor:8
Mole fraction of 2-pyrrolidinone	Speed of sound, m/s	uncertainty
0	1497.03	5.88
0.03793	1577.37	6.13
0.05001	1597.62	6.19
0.07966	1632.11	6.3
0.1093	1670.03	6.42
0.12204	1684.53	6.46
0.1582	1708.04	6.54
0.17894	1716.48	6.56
0.21554	1726.63	6.6
0.23523	1732.07	6.61
0.2473	1735.25	6.62
0.27938	1737.27	6.63
0.34972	1735.45	6.63
0.41989	1727.83	6.61
0.50134	1715.75	6.58
0.54904	1708.84	6.56
0.61328	1698.72	6.54
0.67049	1683.44	6.49
0.70374	1678.52	6.48
0.8117	1658.04	6.43
0.83527	1654.56	6.42
0.85927	1651.32	6.42
0.88132	1647.92	6.41
0.94127	1640.7	6.39
1	1633.68	6.38

System: 2-pyrrolidinone + water; phases: Liquid
Fixed: Pressure, kPa = 101
Fixed: Temperature, K = 298.15
Property: Mass density, kg/m3 (Liquid); method: VIBTUB:UFactor:16
Mole fraction of 2-pyrrolidinone	Mass density, kg/m3	uncertainty
0	997.02	0.52
0.03793	1015.26	0.6
0.05001	1020.61	0.63
0.07966	1032.48	0.71
0.1093	1042.93	0.77
0.12204	1046.78	0.8
0.1582	1056.77	0.87
0.17894	1062.24	0.9
0.21554	1070.34	0.96
0.23523	1074.91	0.99
0.2473	1077.08	1
0.27938	1081.92	1.04
0.34972	1088.62	1.09
0.41989	1093.46	1.13
0.50134	1097.41	1.18
0.54904	1099.18	1.2
0.61328	1101.6	1.23
0.67049	1102.82	1.26
0.70374	1103.16	1.27
0.8117	1105.88	1.32
0.83527	1106.12	1.34
0.85927	1106.38	1.35
0.88132	1106.59	1.36
0.94127	1107.13	1.38
1	1107.52	1.41

System: N-methylpyrrolidone + water; phases: Liquid
Fixed: Pressure, kPa = 101
Fixed: Temperature, K = 298.15
Property: Speed of sound, m/s (Liquid); method: FPINT:UFactor:8
Mole fraction of N-methylpyrrolidone	Speed of sound, m/s	uncertainty
0	1497.03	5.88
0.02533	1573.56	6.12
0.06006	1646.77	6.35
0.08026	1684.39	6.46
0.10081	1724.66	6.59
0.11909	1731.16	6.61
0.13994	1745.21	6.65
0.15956	1747.65	6.66
0.17789	1749.21	6.66
0.19637	1751.66	6.67
0.22033	1750.72	6.67
0.23986	1750.14	6.67
0.26016	1745.27	6.66
0.27803	1741.84	6.65
0.29867	1735.38	6.63
0.32961	1725.58	6.6
0.37937	1707.82	6.55
0.44973	1687.12	6.49
0.49861	1669.95	6.44
0.54942	1651.15	6.39
0.59785	1633.64	6.34
0.64895	1621.03	6.3
0.69983	1610.25	6.27
0.7893	1587.68	6.21
0.81992	1574.4	6.18
0.83332	1568.32	6.16
0.88257	1563.85	6.15
0.89763	1558.43	6.14
0.95525	1552.2	6.13
1	1531.45	6.07

System: N-methylpyrrolidone + water; phases: Liquid
Fixed: Pressure, kPa = 101
Fixed: Temperature, K = 298.15
Property: Mass density, kg/m3 (Liquid); method: VIBTUB:UFactor:16
Mole fraction of N-methylpyrrolidone	Mass density, kg/m3	uncertainty
0	997.02	0.52
0.02533	1004.51	0.53
0.06006	1014.28	0.59
0.08026	1020.63	0.63
0.10081	1025.71	0.67
0.11909	1030.16	0.69
0.13994	1034.69	0.72
0.15956	1038.09	0.75
0.17789	1040.14	0.76
0.19637	1041.52	0.77
0.22033	1042.98	0.78
0.23986	1044.35	0.8
0.26016	1045.7	0.81
0.27803	1046	0.81
0.29867	1046.27	0.81
0.32961	1046.23	0.82
0.37937	1045.76	0.82
0.44973	1044.33	0.83
0.49861	1043.54	0.83
0.54942	1041.35	0.83
0.59785	1039.92	0.83
0.64895	1037.65	0.83
0.69983	1035.76	0.83
0.7893	1032.74	0.84
0.81992	1031.82	0.84
0.83332	1031.01	0.84
0.88257	1030.54	0.85
0.89763	1029.93	0.86
0.95525	1028.92	0.87
1	1028.23	0.88
