Measured thermophysical data. Studies on viscosity and conductivity of 1,8-diazabicyclo[5.4.0]undec-7-ene (DBU)-glycerol and CO2-DBU-glycerol solutions at temperatures from 288.1 K to 328.1 K
Source: J. Chem. Thermodyn., 2019, 10.1016/j.jct.2019.04.017
Compound 1: 1,8-diaza-7-bicyclo[5.4.0]undecene, C9H16N2, InChI=1S/C9H16N2/c1-2-5-9-10-6-4-8-11(9)7-3-1/h1-8H2, purity 99%
Compound 2: glycerol, C3H8O3, InChI=1S/C3H8O3/c4-1-3(6)2-5/h3-6H,1-2H2, purity 99.5%
Compound 3: carbon dioxide, CO2, InChI=1S/CO2/c2-1-3

System: 1,8-diaza-7-bicyclo[5.4.0]undecene; phases: Liquid
Fixed: Pressure, kPa = 96
Property: Viscosity, Pa*s (Liquid); method: Cone and plate viscometry
Temperature, K	Viscosity, Pa*s	uncertainty
288.1	0.01535	0.001
298.1	0.01032	0.00067
308.1	0.00817	0.00053
318.1	0.00608	0.00039
328.1	0.00491	0.00032

System: 1,8-diaza-7-bicyclo[5.4.0]undecene; phases: Liquid
Fixed: Pressure, kPa = 96
Fixed: Frequency, MHz = 0.001
Property: Electrical conductivity, S/m (Liquid); method: Alternating current cell with electrodes
Temperature, K	Electrical conductivity, S/m	uncertainty
288.1	0.0002225	8.8e-06
293.1	0.0002411	9.5e-06
298.1	0.000267	1.06e-05
303.1	0.0002973	1.18e-05
308.1	0.00032	1.27e-05
313.1	0.0003562	1.41e-05
318.1	0.0003821	1.51e-05
323.1	0.0004227	1.67e-05
328.1	0.0004444	1.76e-05

System: glycerol; phases: Liquid
Fixed: Pressure, kPa = 96
Property: Viscosity, Pa*s (Liquid); method: Cone and plate viscometry
Temperature, K	Viscosity, Pa*s	uncertainty
288.1	2.18	0.379
298.1	0.9338	0.1141
308.1	0.4203	0.0393
318.1	0.1956	0.0151
328.1	0.1043	0.0073

System: 1,8-diaza-7-bicyclo[5.4.0]undecene + glycerol; phases: Liquid
Fixed: Pressure, kPa = 96
Property: Viscosity, Pa*s (Liquid); method: Cone and plate viscometry
Temperature, K	Mole fraction of 1,8-diaza-7-bicyclo[5.4.0]undecene	Viscosity, Pa*s	uncertainty
288.1	0	2.18	0.379
288.1	0.0501	3.852	0.845
288.1	0.0909	5.116	1.267
288.1	0.1	5.432	1.38
288.1	0.1667	5.975	1.583
288.1	0.2	6.1	1.631
288.1	0.2153	6.15	1.65
288.1	0.2306	6.006	1.595
288.1	0.3059	5.665	1.466
288.1	0.3333	5.582	1.435
288.1	0.4011	5.043	1.241
288.1	0.5	4.049	0.907
288.1	0.5632	3.138	0.632
288.1	0.625	1.906	0.314
288.1	0.75	0.4681	0.0477
288.1	0.8333	0.1191	0.0088
288.1	1	0.01535	0.001
298.1	0	0.9338	0.1141
298.1	0.0501	1.458	0.208
298.1	0.0909	1.802	0.278
298.1	0.1	1.876	0.294
298.1	0.1667	2.092	0.341
298.1	0.2	2.107	0.345
298.1	0.2153	2.175	0.36
298.1	0.2306	2.087	0.34
298.1	0.3059	1.988	0.318
298.1	0.3333	1.968	0.314
298.1	0.4011	1.705	0.258
298.1	0.5	1.315	0.181
298.1	0.5632	1.017	0.128
298.1	0.625	0.6162	0.066
298.1	0.75	0.1861	0.0147
298.1	0.8333	0.051	0.00343
298.1	1	0.01032	0.00067
308.1	0	0.4203	0.0393
308.1	0.0501	0.6265	0.0655
308.1	0.0909	0.7594	0.0841
308.1	0.1	0.7842	0.0877
308.1	0.1667	0.8188	0.0928
308.1	0.2	0.8337	0.095
308.1	0.2153	0.8388	0.0958
308.1	0.2306	0.8285	0.0943
308.1	0.3059	0.7715	0.0859
308.1	0.3333	0.7422	0.0816
308.1	0.4011	0.6645	0.0707
308.1	0.5	0.503	0.0494
308.1	0.5632	0.3935	0.0362
308.1	0.625	0.2242	0.0181
308.1	0.75	0.08466	0.00588
308.1	0.8333	0.0334	0.00221
308.1	1	0.00817	0.00053
318.1	0	0.1956	0.0151
318.1	0.0501	0.2941	0.0247
318.1	0.0909	0.3459	0.0302
318.1	0.1	0.343	0.0299
318.1	0.1667	0.3595	0.0317
318.1	0.2	0.3707	0.0329
318.1	0.2153	0.3765	0.0336
318.1	0.2306	0.3558	0.0313
318.1	0.3059	0.3417	0.0298
318.1	0.3333	0.3165	0.0271
318.1	0.4011	0.2796	0.0233
318.1	0.5	0.2238	0.0178
318.1	0.5632	0.1698	0.0128
318.1	0.625	0.109	0.0077
318.1	0.75	0.04375	0.0029
318.1	0.8333	0.02071	0.00135
318.1	1	0.00608	0.00039
328.1	0	0.1043	0.0073
328.1	0.0501	0.1522	0.0112
328.1	0.0909	0.175	0.0131
328.1	0.1	0.1774	0.0133
328.1	0.1667	0.1825	0.0138
328.1	0.2	0.1843	0.014
328.1	0.2153	0.1868	0.0142
328.1	0.2306	0.1778	0.0134
328.1	0.3059	0.1595	0.0118
328.1	0.3333	0.155	0.0114
328.1	0.4011	0.1385	0.01
328.1	0.5	0.1054	0.0074
328.1	0.5632	0.08362	0.00571
328.1	0.625	0.05748	0.00382
328.1	0.75	0.02615	0.00171
328.1	0.8333	0.01346	0.00087
328.1	1	0.00491	0.00032
288.1	0.2	6.11	1.66
308.1	0.2	0.8354	0.1032

System: 1,8-diaza-7-bicyclo[5.4.0]undecene + glycerol; phases: Liquid
Fixed: Pressure, kPa = 96
Fixed: Frequency, MHz = 0.001
Property: Electrical conductivity, S/m (Liquid); method: Alternating current cell with electrodes
Temperature, K	Mole fraction of 1,8-diaza-7-bicyclo[5.4.0]undecene	Electrical conductivity, S/m	uncertainty
288.1	0.0502	0.01808	0.00072
288.1	0.0914	0.01938	0.00077
288.1	0.1115	0.01818	0.00072
288.1	0.1266	0.01685	0.00067
288.1	0.1672	0.01415	0.00056
288.1	0.2	0.0116	0.00046
288.1	0.2504	0.008175	0.000324
288.1	0.287	0.005925	0.000235
288.1	0.3338	0.00385	0.000152
288.1	0.4003	0.001565	6.2e-05
288.1	0.5	0.0002988	1.18e-05
288.1	0.5656	0.000105	4.2e-06
288.1	0.6255	4.63e-05	1.8e-06
288.1	0.753	8.75e-05	3.5e-06
288.1	0.8334	0.0002213	8.8e-06
288.1	0.9094	0.0004325	1.71e-05
288.1	0.95	0.0004863	1.93e-05
288.1	0.975	0.0004523	1.79e-05
288.1	1	0.0002225	8.8e-06
293.1	0.0502	0.02433	0.00096
293.1	0.0914	0.02722	0.00108
293.1	0.1115	0.02489	0.00099
293.1	0.1266	0.02378	0.00094
293.1	0.1672	0.02078	0.00082
293.1	0.2	0.01667	0.00066
293.1	0.2504	0.01168	0.00046
293.1	0.287	0.008333	0.00033
293.1	0.3338	0.005344	0.000212
293.1	0.4003	0.002233	8.8e-05
293.1	0.5	0.0004556	1.8e-05
293.1	0.5656	0.00016	6.3e-06
293.1	0.6255	7.22e-05	2.9e-06
293.1	0.753	0.000125	5e-06
293.1	0.8334	0.0003144	1.25e-05
293.1	0.9094	0.0005144	2.04e-05
293.1	0.95	0.0005611	2.22e-05
293.1	0.975	0.0005111	2.02e-05
293.1	1	0.0002411	9.5e-06
298.1	0.0502	0.0327	0.00129
298.1	0.0914	0.0371	0.00147
298.1	0.1115	0.0339	0.00134
298.1	0.1266	0.0317	0.00126
298.1	0.1672	0.0283	0.00112
298.1	0.2	0.023	0.00091
298.1	0.2504	0.01608	0.00064
298.1	0.287	0.01125	0.00045
298.1	0.3338	0.00723	0.000286
298.1	0.4003	0.00307	0.000122
298.1	0.5	0.000675	2.67e-05
298.1	0.5656	0.000249	9.9e-06
298.1	0.6255	0.000122	4.8e-06
298.1	0.753	0.000189	7.5e-06
298.1	0.8334	0.000405	1.6e-05
298.1	0.9094	0.000603	2.39e-05
298.1	0.95	0.000638	2.53e-05
298.1	0.975	0.000561	2.22e-05
298.1	1	0.000267	1.06e-05
303.1	0.0502	0.04227	0.00167
303.1	0.0914	0.04782	0.00189
303.1	0.1115	0.044	0.00174
303.1	0.1266	0.04327	0.00171
303.1	0.1672	0.03745	0.00148
303.1	0.2	0.031	0.00123
303.1	0.2504	0.02045	0.00081
303.1	0.287	0.01503	0.0006
303.1	0.3338	0.01031	0.00041
303.1	0.4003	0.004164	0.000165
303.1	0.5	0.0009655	3.82e-05
303.1	0.5656	0.0003564	1.41e-05
303.1	0.6255	0.0001755	7e-06
303.1	0.753	0.0002536	1e-05
303.1	0.8334	0.0005255	2.08e-05
303.1	0.9094	0.0006945	2.75e-05
303.1	0.95	0.0007018	2.78e-05
303.1	0.975	0.0006145	2.43e-05
303.1	1	0.0002973	1.18e-05
308.1	0.0502	0.05342	0.00212
308.1	0.0914	0.062	0.00246
308.1	0.1115	0.05667	0.00224
308.1	0.1266	0.05433	0.00215
308.1	0.1672	0.04683	0.00185
308.1	0.2	0.03975	0.00157
308.1	0.2504	0.02633	0.00104
308.1	0.287	0.01944	0.00077
308.1	0.3338	0.01366	0.00054
308.1	0.4003	0.005708	0.000226
308.1	0.5	0.001276	5.1e-05
308.1	0.5656	0.0005017	1.99e-05
308.1	0.6255	0.0002508	9.9e-06
308.1	0.753	0.0003458	1.37e-05
308.1	0.8334	0.0006142	2.43e-05
308.1	0.9094	0.0007882	3.12e-05
308.1	0.95	0.0007908	3.13e-05
308.1	0.975	0.0006675	2.64e-05
308.1	1	0.00032	1.27e-05
313.1	0.0502	0.06662	0.00264
313.1	0.0914	0.07854	0.00311
313.1	0.1115	0.07608	0.00301
313.1	0.1266	0.06992	0.00277
313.1	0.1672	0.06131	0.00243
313.1	0.2	0.04968	0.00197
313.1	0.2504	0.03346	0.00133
313.1	0.287	0.02446	0.00097
313.1	0.3338	0.01585	0.00063
313.1	0.4003	0.007015	0.000278
313.1	0.5	0.001685	6.7e-05
313.1	0.5656	0.0006438	2.55e-05
313.1	0.6255	0.00034	1.35e-05
313.1	0.753	0.0004469	1.77e-05
313.1	0.8334	0.00076	3.01e-05
313.1	0.9094	0.0009154	3.62e-05
313.1	0.95	0.0008569	3.39e-05
313.1	0.975	0.0007192	2.85e-05
313.1	1	0.0003562	1.41e-05
318.1	0.0502	0.0795	0.00315
318.1	0.0914	0.09714	0.00385
318.1	0.1115	0.09243	0.00366
318.1	0.1266	0.08771	0.00347
318.1	0.1672	0.0735	0.00291
318.1	0.2	0.06007	0.00238
318.1	0.2504	0.041	0.00162
318.1	0.287	0.03029	0.0012
318.1	0.3338	0.01924	0.00076
318.1	0.4003	0.00895	0.000354
318.1	0.5	0.002214	8.8e-05
318.1	0.5656	0.0009393	3.72e-05
318.1	0.6255	0.0004657	1.84e-05
318.1	0.753	0.0005586	2.21e-05
318.1	0.8334	0.00087	3.45e-05
318.1	0.9094	0.001005	4e-05
318.1	0.95	0.0009486	3.76e-05
318.1	0.975	0.0007886	3.12e-05
318.1	1	0.0003821	1.51e-05
323.1	0.0502	0.09547	0.00378
323.1	0.0914	0.1185	0.0047
323.1	0.1115	0.1075	0.0043
323.1	0.1266	0.1014	0.004
323.1	0.1672	0.0882	0.00349
323.1	0.2	0.071	0.00281
323.1	0.2504	0.04907	0.00194
323.1	0.287	0.0358	0.00142
323.1	0.3338	0.02327	0.00092
323.1	0.4003	0.0107	0.00042
323.1	0.5	0.002793	0.000111
323.1	0.5656	0.001126	4.5e-05
323.1	0.6255	0.0006044	2.39e-05
323.1	0.753	0.0006667	2.64e-05
323.1	0.8334	0.001018	4e-05
323.1	0.9094	0.001114	4.4e-05
323.1	0.95	0.001042	4.1e-05
323.1	0.975	0.0008413	3.33e-05
323.1	1	0.0004227	1.67e-05
328.1	0.0502	0.1096	0.0043
328.1	0.0914	0.1319	0.0052
328.1	0.1115	0.1288	0.0051
328.1	0.1266	0.1263	0.005
328.1	0.1672	0.1027	0.0041
328.1	0.2	0.08588	0.0034
328.1	0.2504	0.0585	0.00232
328.1	0.287	0.04325	0.00171
328.1	0.3338	0.02707	0.00107
328.1	0.4003	0.01306	0.00052
328.1	0.5	0.003475	0.000138
328.1	0.5656	0.0015	5.9e-05
328.1	0.6255	0.0008	3.17e-05
328.1	0.753	0.0008263	3.27e-05
328.1	0.8334	0.001147	4.5e-05
328.1	0.9094	0.0012	4.8e-05
328.1	0.95	0.001123	4.4e-05
328.1	0.975	0.0009281	3.68e-05
328.1	1	0.0004444	1.76e-05
288.1	0.1	0.01868	0.00083
298.1	0.1	0.03523	0.00156
308.1	0.1	0.05918	0.00263
318.1	0.1	0.09466	0.0042
328.1	0.1	0.1315	0.0058
288.1	0.75	8.75e-05	3.9e-06
298.1	0.75	0.000189	8.4e-06
308.1	0.75	0.0003458	1.54e-05
318.1	0.75	0.0005586	2.48e-05
328.1	0.75	0.0008263	3.67e-05
288.1	0.8333	0.0002213	9.8e-06
298.1	0.8333	0.000405	1.8e-05
308.1	0.8333	0.0006142	2.73e-05
318.1	0.8333	0.00087	3.86e-05
328.1	0.8333	0.001147	5.1e-05

System: 1,8-diaza-7-bicyclo[5.4.0]undecene + glycerol + carbon dioxide; phases: Liquid
Fixed: Pressure, kPa = 96
Property: Viscosity, Pa*s (Liquid); method: Cone and plate viscometry
Temperature, K	Solvent: Mole fraction of 1,8-diaza-7-bicyclo[5.4.0]undecene	Mass ratio of solute to solvent of carbon dioxide	Viscosity, Pa*s	uncertainty
288.1	0.1	0	5.432	1.404
288.1	0.1	0.0051	5.413	1.397
288.1	0.1	0.0172	5.799	1.541
288.1	0.1	0.0231	5.139	1.298
288.1	0.1	0.0343	5.262	1.342
288.1	0.1	0.0392	5.42	1.4
298.1	0.1	0	1.876	0.307
298.1	0.1	0.0051	1.984	0.331
298.1	0.1	0.0172	1.962	0.326
298.1	0.1	0.0231	1.933	0.32
298.1	0.1	0.0343	2.069	0.35
298.1	0.1	0.0392	1.88	0.308
308.1	0.1	0	0.7842	0.0953
308.1	0.1	0.0051	0.8559	0.1065
308.1	0.1	0.0172	0.8448	0.1047
308.1	0.1	0.0231	0.9517	0.1219
308.1	0.1	0.0343	0.8252	0.1017
308.1	0.1	0.0392	0.9088	0.1149
318.1	0.1	0	0.343	0.0341
318.1	0.1	0.0051	0.4287	0.0444
318.1	0.1	0.0172	0.4365	0.0454
318.1	0.1	0.0231	0.4408	0.0459
318.1	0.1	0.0343	0.4318	0.0448
318.1	0.1	0.0392	0.428	0.0443
328.1	0.1	0	0.1774	0.0158
328.1	0.1	0.0051	0.2129	0.0194
328.1	0.1	0.0172	0.2241	0.0206
328.1	0.1	0.0231	0.226	0.0208
328.1	0.1	0.0343	0.2236	0.0205
328.1	0.1	0.0392	0.2208	0.0202
288.1	0.2	0	6.11	1.66
288.1	0.2	0.0135	7.184	2.092
288.1	0.2	0.0262	7.948	2.419
288.1	0.2	0.0345	8.803	2.802
288.1	0.2	0.045	9.55	3.152
288.1	0.2	0.0543	10.54	3.635
288.1	0.2	0.0616	11.11	3.923
288.1	0.2	0.0695	11.57	4.161
288.1	0.2	0.0734	11.79	4.276
288.1	0.2	0.0826	12.58	4.699
298.1	0.2	0	2.107	0.359
298.1	0.2	0.0135	2.567	0.47
298.1	0.2	0.0262	2.79	0.526
298.1	0.2	0.0345	3.076	0.602
298.1	0.2	0.045	3.497	0.719
298.1	0.2	0.0543	3.687	0.774
298.1	0.2	0.0616	3.977	0.86
298.1	0.2	0.0695	4.246	0.942
298.1	0.2	0.0734	4.339	0.971
298.1	0.2	0.0826	4.432	1
308.1	0.2	0	0.8354	0.1032
308.1	0.2	0.0135	1.023	0.134
308.1	0.2	0.0262	1.103	0.147
308.1	0.2	0.0345	1.23	0.17
308.1	0.2	0.045	1.398	0.2
308.1	0.2	0.0543	1.45	0.21
308.1	0.2	0.0616	1.553	0.23
308.1	0.2	0.0695	1.693	0.258
308.1	0.2	0.0734	1.698	0.259
308.1	0.2	0.0826	1.755	0.27
318.1	0.2	0	0.3707	0.0373
318.1	0.2	0.0135	0.4505	0.0471
318.1	0.2	0.0262	0.5033	0.0539
318.1	0.2	0.0345	0.5437	0.0592
318.1	0.2	0.045	0.6265	0.0704
318.1	0.2	0.0543	0.6507	0.0738
318.1	0.2	0.0616	0.6973	0.0804
318.1	0.2	0.0695	0.7402	0.0866
318.1	0.2	0.0734	0.754	0.0886
318.1	0.2	0.0826	0.7629	0.0899
328.1	0.2	0	0.1843	0.0165
328.1	0.2	0.0135	0.2175	0.0199
328.1	0.2	0.0262	0.2522	0.0235
328.1	0.2	0.0345	0.2678	0.0252
328.1	0.2	0.045	0.3011	0.0289
328.1	0.2	0.0543	0.3221	0.0312
328.1	0.2	0.0616	0.338	0.033
328.1	0.2	0.0695	0.3531	0.0348
328.1	0.2	0.0734	0.3536	0.0348
328.1	0.2	0.0826	0.3687	0.0366
288.1	0.5	0	4.049	0.927
288.1	0.5	0.0104	5.468	1.417
288.1	0.5	0.0189	7.732	2.325
288.1	0.5	0.029	10.51	3.62
288.1	0.5	0.0414	17.73	7.751
288.1	0.5	0.0545	31.26	17.835
288.1	0.5	0.0584	35.21	21.26
298.1	0.5	0	1.315	0.191
298.1	0.5	0.0104	1.755	0.281
298.1	0.5	0.0189	2.377	0.423
298.1	0.5	0.029	3.283	0.659
298.1	0.5	0.0414	4.971	1.175
298.1	0.5	0.0545	8.725	2.613
298.1	0.5	0.0584	9.872	3.12
298.1	0.5	0.0719	16.88	6.785
298.1	0.5	0.0867	30.24	15.937
298.1	0.5	0.1016	55.54	39.114
308.1	0.5	0	0.503	0.0549
308.1	0.5	0.0104	0.6395	0.0738
308.1	0.5	0.0189	0.8406	0.1041
308.1	0.5	0.029	1.165	0.158
308.1	0.5	0.0414	1.698	0.259
308.1	0.5	0.0545	2.806	0.508
308.1	0.5	0.0584	3.196	0.607
308.1	0.5	0.0719	5.512	1.292
308.1	0.5	0.0867	8.865	2.532
308.1	0.5	0.1016	14.65	5.213
308.1	0.5	0.119	24.74	11.175
318.1	0.5	0	0.2238	0.0207
318.1	0.5	0.0104	0.2822	0.0271
318.1	0.5	0.0189	0.3516	0.0351
318.1	0.5	0.029	0.4908	0.0523
318.1	0.5	0.0414	0.678	0.0776
318.1	0.5	0.0545	1.03	0.131
318.1	0.5	0.0584	1.165	0.154
318.1	0.5	0.0719	1.781	0.266
318.1	0.5	0.0867	2.905	0.512
318.1	0.5	0.1016	4.743	1.001
318.1	0.5	0.119	7.884	2.038
318.1	0.5	0.1288	11.86	3.644
328.1	0.5	0	0.1054	0.0089
328.1	0.5	0.0104	0.1268	0.0109
328.1	0.5	0.0189	0.1643	0.0145
328.1	0.5	0.029	0.2128	0.0194
328.1	0.5	0.0414	0.2995	0.0287
328.1	0.5	0.0545	0.4409	0.0452
328.1	0.5	0.0584	0.4816	0.0502
328.1	0.5	0.0719	0.7062	0.08
328.1	0.5	0.0867	1.173	0.151
328.1	0.5	0.1016	1.781	0.258
328.1	0.5	0.119	2.824	0.475
328.1	0.5	0.1288	4.443	0.877
288.1	0.75	0	0.4681	0.0526
288.1	0.75	0.013	0.8492	0.1119
288.1	0.75	0.0265	1.689	0.278
288.1	0.75	0.0468	5.83	1.553
288.1	0.75	0.0577	10.85	3.791
288.1	0.75	0.0644	17.71	7.738
288.1	0.75	0.0656	18.69	8.372
288.1	0.75	0.0718	25.99	13.587
288.1	0.75	0.0732	28.11	15.25
298.1	0.75	0	0.1861	0.0172
298.1	0.75	0.013	0.2972	0.0297
298.1	0.75	0.0265	0.5534	0.0632
298.1	0.75	0.0468	1.571	0.242
298.1	0.75	0.0577	2.835	0.538
298.1	0.75	0.0644	4.153	0.913
298.1	0.75	0.0656	4.504	1.023
298.1	0.75	0.0718	5.981	1.525
298.1	0.75	0.0732	6.458	1.701
308.1	0.75	0	0.08466	0.00712
308.1	0.75	0.013	0.125	0.0109
308.1	0.75	0.0265	0.2223	0.0208
308.1	0.75	0.0468	0.5623	0.0629
308.1	0.75	0.0577	0.9338	0.1189
308.1	0.75	0.0644	1.288	0.18
308.1	0.75	0.0656	1.332	0.188
308.1	0.75	0.0718	1.683	0.256
308.1	0.75	0.0732	1.781	0.276
318.1	0.75	0	0.04375	0.00357
318.1	0.75	0.013	0.06455	0.00532
318.1	0.75	0.0265	0.1061	0.009
318.1	0.75	0.0468	0.2223	0.0206
318.1	0.75	0.0577	0.3645	0.0366
318.1	0.75	0.0644	0.4213	0.0435
318.1	0.75	0.0656	0.5037	0.0539
318.1	0.75	0.0718	0.6204	0.0696
318.1	0.75	0.0732	0.649	0.074
328.1	0.75	0	0.02615	0.00211
328.1	0.75	0.013	0.03673	0.00298
328.1	0.75	0.0265	0.0567	0.00463
328.1	0.75	0.0468	0.116	0.0099
328.1	0.75	0.0577	0.1719	0.0152
328.1	0.75	0.0644	0.2123	0.0193
328.1	0.75	0.0656	0.235	0.0217
328.1	0.75	0.0718	0.2678	0.0252
328.1	0.75	0.0732	0.29	0.0276
288.1	0.8333	0	0.1191	0.0105
288.1	0.8333	0.0192	0.2496	0.0245
288.1	0.8333	0.0316	0.5309	0.0615
288.1	0.8333	0.044	1.128	0.162
288.1	0.8333	0.0514	1.978	0.344
298.1	0.8333	0	0.051	0.0042
298.1	0.8333	0.0192	0.1059	0.0091
298.1	0.8333	0.0316	0.1971	0.0183
298.1	0.8333	0.044	0.3864	0.0406
298.1	0.8333	0.0514	0.5295	0.0598
308.1	0.8333	0	0.0334	0.00272
308.1	0.8333	0.0192	0.05944	0.0049
308.1	0.8333	0.0316	0.1038	0.0089
308.1	0.8333	0.044	0.175	0.0158
308.1	0.8333	0.0514	0.2656	0.0256
318.1	0.8333	0	0.02071	0.00167
318.1	0.8333	0.0192	0.03495	0.00284
318.1	0.8333	0.0316	0.05411	0.00443
318.1	0.8333	0.044	0.0888	0.00745
318.1	0.8333	0.0514	0.1238	0.0107
328.1	0.8333	0	0.01346	0.00108
328.1	0.8333	0.0192	0.02149	0.00173
328.1	0.8333	0.0316	0.0324	0.00262
328.1	0.8333	0.044	0.05023	0.00409
328.1	0.8333	0.0514	0.06395	0.00525
288.1	0.3333	0	5.582	1.46
288.1	0.3333	0.0175	8.703	2.757
288.1	0.3333	0.0308	11.84	4.303
288.1	0.3333	0.0435	16.21	6.799
288.1	0.3333	0.0584	21.18	10.057
288.1	0.3333	0.0819	38.21	23.992
288.1	0.3333	0.107	63.73	51.211
298.1	0.3333	0	1.968	0.327
298.1	0.3333	0.0175	2.931	0.563
298.1	0.3333	0.0308	3.904	0.838
298.1	0.3333	0.0435	5.126	1.227
298.1	0.3333	0.0584	7.035	1.921
298.1	0.3333	0.0819	12.34	4.305
298.1	0.3333	0.107	19	8.063
308.1	0.3333	0	0.7422	0.0889
308.1	0.3333	0.0175	1.108	0.148
308.1	0.3333	0.0308	1.436	0.208
308.1	0.3333	0.0435	1.89	0.298
308.1	0.3333	0.0584	2.627	0.465
308.1	0.3333	0.0819	4.325	0.921
308.1	0.3333	0.107	6.6	1.666
318.1	0.3333	0	0.3165	0.031
318.1	0.3333	0.0175	0.4619	0.0486
318.1	0.3333	0.0308	0.611	0.0683
318.1	0.3333	0.0435	0.7698	0.0909
318.1	0.3333	0.0584	1.036	0.132
318.1	0.3333	0.0819	1.512	0.215
318.1	0.3333	0.107	2.388	0.393
328.1	0.3333	0	0.155	0.0136
328.1	0.3333	0.0175	0.2216	0.0203
328.1	0.3333	0.0308	0.2827	0.0268
328.1	0.3333	0.0435	0.3489	0.0343
328.1	0.3333	0.0584	0.4698	0.0488
328.1	0.3333	0.0819	0.6745	0.0756
328.1	0.3333	0.107	1.033	0.128

System: 1,8-diaza-7-bicyclo[5.4.0]undecene + glycerol + carbon dioxide; phases: Liquid
Fixed: Pressure, kPa = 96
Fixed: Frequency, MHz = 0.001
Property: Electrical conductivity, S/m (Liquid); method: Alternating current cell with electrodes
Temperature, K	Solvent: Mole fraction of 1,8-diaza-7-bicyclo[5.4.0]undecene	Mass ratio of solute to solvent of carbon dioxide	Electrical conductivity, S/m	uncertainty
288.1	0.1	0	0.01868	0.00083
288.1	0.1	0.0051	0.01609	0.00071
288.1	0.1	0.0113	0.01273	0.00057
288.1	0.1	0.0172	0.01005	0.00045
288.1	0.1	0.0231	0.007677	0.000341
288.1	0.1	0.0302	0.005579	0.000248
288.1	0.1	0.0343	0.004216	0.000187
288.1	0.1	0.0392	0.002793	0.000124
288.1	0.1	0.0417	0.002155	9.6e-05
298.1	0.1	0	0.03523	0.00156
298.1	0.1	0.0051	0.02597	0.00115
298.1	0.1	0.0113	0.01983	0.00088
298.1	0.1	0.0172	0.01934	0.00086
298.1	0.1	0.0231	0.01282	0.00057
298.1	0.1	0.0302	0.01093	0.00049
298.1	0.1	0.0343	0.007445	0.000331
298.1	0.1	0.0392	0.005073	0.000225
298.1	0.1	0.0417	0.00452	0.000201
308.1	0.1	0	0.05918	0.00263
308.1	0.1	0.0051	0.05019	0.00223
308.1	0.1	0.0113	0.03904	0.00173
308.1	0.1	0.0172	0.03461	0.00154
308.1	0.1	0.0231	0.02475	0.0011
308.1	0.1	0.0302	0.01948	0.00086
308.1	0.1	0.0343	0.01368	0.00061
308.1	0.1	0.0392	0.01003	0.00045
308.1	0.1	0.0417	0.009385	0.000417
318.1	0.1	0	0.09466	0.0042
318.1	0.1	0.0051	0.07736	0.00343
318.1	0.1	0.0113	0.06199	0.00275
318.1	0.1	0.0172	0.04948	0.0022
318.1	0.1	0.0231	0.04081	0.00181
318.1	0.1	0.0302	0.03071	0.00136
318.1	0.1	0.0343	0.02191	0.00097
318.1	0.1	0.0392	0.01855	0.00082
318.1	0.1	0.0417	0.01713	0.00076
328.1	0.1	0	0.1315	0.0058
328.1	0.1	0.0051	0.1093	0.0049
328.1	0.1	0.0113	0.08679	0.00385
328.1	0.1	0.0172	0.07514	0.00334
328.1	0.1	0.0231	0.05985	0.00266
328.1	0.1	0.0302	0.04564	0.00203
328.1	0.1	0.0343	0.03847	0.00171
328.1	0.1	0.0392	0.0295	0.00131
328.1	0.1	0.0417	0.02816	0.00125
288.1	0.2	0	0.0116	0.00052
288.1	0.2	0.0129	0.008438	0.000375
288.1	0.2	0.0266	0.005663	0.000251
288.1	0.2	0.033	0.005025	0.000223
288.1	0.2	0.0463	0.003463	0.000154
288.1	0.2	0.0585	0.002588	0.000115
288.1	0.2	0.0652	0.002066	9.2e-05
288.1	0.2	0.0762	0.001536	6.8e-05
288.1	0.2	0.0886	0.001315	5.8e-05
298.1	0.2	0	0.023	0.00102
298.1	0.2	0.0129	0.01638	0.00073
298.1	0.2	0.0266	0.01108	0.00049
298.1	0.2	0.033	0.0102	0.00045
298.1	0.2	0.0463	0.00753	0.000334
298.1	0.2	0.0585	0.00594	0.000264
298.1	0.2	0.0652	0.00489	0.000217
298.1	0.2	0.0762	0.00392	0.000174
298.1	0.2	0.0886	0.00336	0.000149
308.1	0.2	0	0.03975	0.00176
308.1	0.2	0.0129	0.0295	0.00131
308.1	0.2	0.0266	0.02042	0.00091
308.1	0.2	0.033	0.01875	0.00083
308.1	0.2	0.0463	0.01373	0.00061
308.1	0.2	0.0585	0.01141	0.00051
308.1	0.2	0.0652	0.01049	0.00047
308.1	0.2	0.0762	0.008245	0.000366
308.1	0.2	0.0886	0.007592	0.000337
318.1	0.2	0	0.06007	0.00267
318.1	0.2	0.0129	0.0433	0.00192
318.1	0.2	0.0266	0.03407	0.00151
318.1	0.2	0.033	0.03105	0.00138
318.1	0.2	0.0463	0.02521	0.00112
318.1	0.2	0.0585	0.02107	0.00094
318.1	0.2	0.0652	0.01971	0.00088
318.1	0.2	0.0762	0.01743	0.00077
318.1	0.2	0.0886	0.0145	0.00064
328.1	0.2	0	0.08588	0.00381
328.1	0.2	0.0129	0.06319	0.00281
328.1	0.2	0.0266	0.05306	0.00236
328.1	0.2	0.033	0.04806	0.00213
328.1	0.2	0.0463	0.03934	0.00175
328.1	0.2	0.0585	0.03506	0.00156
328.1	0.2	0.0652	0.03163	0.0014
328.1	0.2	0.0762	0.02775	0.00123
328.1	0.2	0.0886	0.02569	0.00114
288.1	0.5	0	0.0002988	1.33e-05
288.1	0.5	0.0117	0.0005175	2.3e-05
288.1	0.5	0.0202	0.000663	2.94e-05
288.1	0.5	0.0323	0.0007175	3.19e-05
288.1	0.5	0.0414	0.0006338	2.81e-05
288.1	0.5	0.0518	0.0005588	2.48e-05
288.1	0.5	0.0686	0.00037	1.64e-05
288.1	0.5	0.0818	0.0002538	1.13e-05
288.1	0.5	0.0962	0.0001513	6.7e-06
288.1	0.5	0.1168	7.75e-05	3.4e-06
288.1	0.5	0.1395	3.5e-05	1.6e-06
298.1	0.5	0	0.000675	3e-05
298.1	0.5	0.0117	0.001237	5.5e-05
298.1	0.5	0.0202	0.001753	7.8e-05
298.1	0.5	0.0323	0.00191	8.5e-05
298.1	0.5	0.0414	0.00182	8.1e-05
298.1	0.5	0.0518	0.001633	7.3e-05
298.1	0.5	0.0686	0.001165	5.2e-05
298.1	0.5	0.0818	0.000878	3.9e-05
298.1	0.5	0.0962	0.000566	2.51e-05
298.1	0.5	0.1168	0.00029	1.29e-05
298.1	0.5	0.1395	0.000159	7.1e-06
308.1	0.5	0	0.001276	5.7e-05
308.1	0.5	0.0117	0.0024	0.000107
308.1	0.5	0.0202	0.003833	0.00017
308.1	0.5	0.0323	0.004467	0.000198
308.1	0.5	0.0414	0.004192	0.000186
308.1	0.5	0.0518	0.003925	0.000174
308.1	0.5	0.0686	0.002833	0.000126
308.1	0.5	0.0818	0.002358	0.000105
308.1	0.5	0.0962	0.00165	7.3e-05
308.1	0.5	0.1168	0.0009092	4.04e-05
308.1	0.5	0.1395	0.0005625	2.5e-05
318.1	0.5	0	0.002214	9.8e-05
318.1	0.5	0.0117	0.004314	0.000192
318.1	0.5	0.0202	0.007043	0.000313
318.1	0.5	0.0323	0.007979	0.000354
318.1	0.5	0.0414	0.008643	0.000384
318.1	0.5	0.0518	0.007879	0.00035
318.1	0.5	0.0686	0.006268	0.000278
318.1	0.5	0.0818	0.005514	0.000245
318.1	0.5	0.0962	0.004129	0.000183
318.1	0.5	0.1168	0.002363	0.000105
318.1	0.5	0.1395	0.001664	7.4e-05
328.1	0.5	0	0.003475	0.000154
328.1	0.5	0.0117	0.007094	0.000315
328.1	0.5	0.0202	0.01169	0.00052
328.1	0.5	0.0323	0.0144	0.00064
328.1	0.5	0.0414	0.01546	0.00069
328.1	0.5	0.0518	0.01469	0.00065
328.1	0.5	0.0686	0.01216	0.00054
328.1	0.5	0.0818	0.01125	0.0005
328.1	0.5	0.0962	0.009444	0.000419
328.1	0.5	0.1168	0.00543	0.000241
328.1	0.5	0.1395	0.004063	0.00018
288.1	0.75	0	8.75e-05	3.9e-06
288.1	0.75	0.0061	0.0006188	2.75e-05
288.1	0.75	0.0126	0.0008638	3.84e-05
288.1	0.75	0.0195	0.0009513	4.22e-05
288.1	0.75	0.0251	0.001036	4.6e-05
288.1	0.75	0.0296	0.001006	4.5e-05
288.1	0.75	0.0368	0.0009513	4.22e-05
288.1	0.75	0.0484	0.0007025	3.12e-05
288.1	0.75	0.0517	0.0005938	2.64e-05
288.1	0.75	0.0613	0.0004525	2.01e-05
288.1	0.75	0.0751	0.000295	1.31e-05
298.1	0.75	0	0.000189	8.4e-06
298.1	0.75	0.0061	0.00138	6.1e-05
298.1	0.75	0.0126	0.00204	9.1e-05
298.1	0.75	0.0195	0.00237	0.000105
298.1	0.75	0.0251	0.002525	0.000112
298.1	0.75	0.0296	0.0024	0.000107
298.1	0.75	0.0368	0.00228	0.000101
298.1	0.75	0.0484	0.001905	8.5e-05
298.1	0.75	0.0517	0.001652	7.3e-05
298.1	0.75	0.0613	0.001355	6e-05
298.1	0.75	0.0751	0.000978	4.34e-05
308.1	0.75	0	0.0003458	1.54e-05
308.1	0.75	0.0061	0.002442	0.000108
308.1	0.75	0.0126	0.003825	0.00017
308.1	0.75	0.0195	0.004758	0.000211
308.1	0.75	0.0251	0.004698	0.000209
308.1	0.75	0.0296	0.00475	0.000211
308.1	0.75	0.0368	0.004725	0.00021
308.1	0.75	0.0484	0.004135	0.000184
308.1	0.75	0.0517	0.0036	0.00016
308.1	0.75	0.0613	0.003233	0.000144
308.1	0.75	0.0751	0.002242	0.0001
318.1	0.75	0	0.0005586	2.48e-05
318.1	0.75	0.0061	0.00397	0.000176
318.1	0.75	0.0126	0.005996	0.000266
318.1	0.75	0.0195	0.0076	0.000337
318.1	0.75	0.0251	0.0079	0.000351
318.1	0.75	0.0296	0.008157	0.000362
318.1	0.75	0.0368	0.008029	0.000356
318.1	0.75	0.0484	0.0073	0.000324
318.1	0.75	0.0517	0.0069	0.000306
318.1	0.75	0.0613	0.006279	0.000279
318.1	0.75	0.0751	0.004936	0.000219
328.1	0.75	0	0.0008263	3.67e-05
328.1	0.75	0.0061	0.005501	0.000244
328.1	0.75	0.0126	0.008603	0.000382
328.1	0.75	0.0195	0.01091	0.00048
328.1	0.75	0.0251	0.0117	0.00052
328.1	0.75	0.0296	0.012	0.00053
328.1	0.75	0.0368	0.01219	0.00054
328.1	0.75	0.0484	0.01181	0.00052
328.1	0.75	0.0517	0.01144	0.00051
328.1	0.75	0.0613	0.01078	0.00048
328.1	0.75	0.0751	0.009938	0.000441
288.1	0.8333	0	0.0002213	9.8e-06
288.1	0.8333	0.0048	0.00102	4.5e-05
288.1	0.8333	0.0088	0.001601	7.1e-05
288.1	0.8333	0.0113	0.001645	7.3e-05
288.1	0.8333	0.014	0.0019	8.4e-05
288.1	0.8333	0.0239	0.001862	8.3e-05
288.1	0.8333	0.03	0.00184	8.2e-05
288.1	0.8333	0.032	0.001817	8.1e-05
288.1	0.8333	0.0403	0.00159	7.1e-05
288.1	0.8333	0.0485	0.001475	6.5e-05
298.1	0.8333	0	0.000405	1.8e-05
298.1	0.8333	0.0048	0.00196	8.7e-05
298.1	0.8333	0.0088	0.00279	0.000124
298.1	0.8333	0.0113	0.003002	0.000133
298.1	0.8333	0.014	0.00329	0.000146
298.1	0.8333	0.0239	0.00366	0.000163
298.1	0.8333	0.03	0.00341	0.000151
298.1	0.8333	0.032	0.00348	0.000155
298.1	0.8333	0.0403	0.00319	0.000142
298.1	0.8333	0.0485	0.00295	0.000131
308.1	0.8333	0	0.0006142	2.73e-05
308.1	0.8333	0.0048	0.003008	0.000134
308.1	0.8333	0.0088	0.004108	0.000182
308.1	0.8333	0.0113	0.004575	0.000203
308.1	0.8333	0.014	0.004983	0.000221
308.1	0.8333	0.0239	0.005842	0.000259
308.1	0.8333	0.03	0.005958	0.000265
308.1	0.8333	0.032	0.005875	0.000261
308.1	0.8333	0.0403	0.005217	0.000232
308.1	0.8333	0.0485	0.004958	0.00022
318.1	0.8333	0	0.00087	3.86e-05
318.1	0.8333	0.0048	0.00405	0.00018
318.1	0.8333	0.0088	0.005328	0.000237
318.1	0.8333	0.0113	0.006023	0.000267
318.1	0.8333	0.014	0.006436	0.000286
318.1	0.8333	0.0239	0.008219	0.000365
318.1	0.8333	0.03	0.0084	0.000373
318.1	0.8333	0.032	0.0086	0.000382
318.1	0.8333	0.0403	0.008276	0.000367
318.1	0.8333	0.0485	0.00815	0.000362
328.1	0.8333	0	0.001147	5.1e-05
328.1	0.8333	0.0048	0.005125	0.000228
328.1	0.8333	0.0088	0.007181	0.000319
328.1	0.8333	0.0113	0.008079	0.000359
328.1	0.8333	0.014	0.00883	0.000392
328.1	0.8333	0.0239	0.01114	0.00049
328.1	0.8333	0.03	0.01138	0.00051
328.1	0.8333	0.032	0.01168	0.00052
328.1	0.8333	0.0403	0.0114	0.00051
328.1	0.8333	0.0485	0.01102	0.00049
