Measured thermophysical data. (p, q, T) properties, and apparent molar volumes V/ of ZnBr2 in methanol at T = (298.15 to 398.15) K and pressures up to p = 40 MPa
Source: J. Chem. Thermodyn., 2005, 10.1016/j.jct.2005.02.004
Compound 1: zinc bromide, Br2Zn, InChI=1S/2BrH.Zn/h2*1H;/q;;+2/p-2, purity 99.9%
Compound 2: methanol, CH4O, InChI=1S/CH4O/c1-2/h2H,1H3, purity 99.9%

System: methanol; phases: Liquid
Property: Mass density, kg/m3 (Liquid); method: Vibrating tube method
Temperature, K	Pressure, kPa	Mass density, kg/m3	uncertainty
298.26	235	785.98	0.42
298.26	5000	790.69	0.43
298.26	9999	795.4	0.44
298.26	15013	799.88	0.45
298.26	19987	804.1	0.47
298.26	25008	808.17	0.48
298.26	29997	812.04	0.5
298.26	34991	815.76	0.52
298.26	39981	819.34	0.53
323.22	270	762.14	0.42
323.22	4990	767.53	0.43
323.22	9984	772.87	0.45
323.22	14982	777.91	0.46
323.22	19989	782.69	0.48
323.22	24986	787.21	0.5
323.22	29995	791.53	0.52
323.22	34987	795.64	0.54
323.22	39993	799.6	0.56
348.25	366	737.29	0.43
348.25	4987	743.46	0.44
348.25	9986	749.65	0.46
348.25	14991	755.42	0.47
348.25	20004	760.84	0.49
348.25	25020	765.94	0.52
348.25	30013	770.76	0.54
348.25	34989	775.32	0.56
348.25	40000	779.7	0.58
373.26	534	710.55	0.43
373.26	4983	717.67	0.44
373.26	9990	724.99	0.46
373.26	14998	731.69	0.49
373.26	19985	737.88	0.51
373.26	24994	743.68	0.53
373.26	29997	749.13	0.56
373.26	35001	754.27	0.58
373.26	39996	759.14	0.61
398.28	934	680.93	0.44
398.28	4984	689	0.45
398.28	9998	697.91	0.47
398.28	14986	705.88	0.5
398.28	19987	713.16	0.53
398.28	24992	719.87	0.55
398.28	29991	726.11	0.58
398.28	35005	731.99	0.61
398.28	40004	737.47	0.64

System: methanol + zinc bromide; phases: Liquid
Property: Mass density, kg/m3 (Liquid); method: Vibrating tube method
Molality, mol/kg of zinc bromide	Temperature, K	Pressure, kPa	Mass density, kg/m3	uncertainty
0.05772	298.28	200	797.74	0.45
0.05772	298.28	4999	802.42	0.46
0.05772	298.28	9984	807.04	0.47
0.05772	298.28	14988	811.39	0.48
0.05772	298.28	19994	815.58	0.5
0.05772	298.28	24988	819.58	0.51
0.05772	298.28	29998	823.42	0.52
0.05772	298.28	34981	827.09	0.54
0.05772	298.28	40008	830.66	0.55
0.05772	323.22	230	773.97	0.45
0.05772	323.22	4994	779.33	0.46
0.05772	323.22	10015	784.65	0.48
0.05772	323.22	14997	789.6	0.49
0.05772	323.22	20007	794.31	0.5
0.05772	323.22	24985	798.77	0.52
0.05772	323.22	30012	803.09	0.54
0.05772	323.22	34996	807.14	0.55
0.05772	323.22	39998	811.05	0.57
0.05772	348.24	320	749.2	0.46
0.05772	348.24	4981	755.32	0.47
0.05772	348.24	9997	761.44	0.48
0.05772	348.24	14982	767.11	0.5
0.05772	348.24	20002	772.47	0.52
0.05772	348.24	25019	777.52	0.53
0.05772	348.24	29988	782.26	0.55
0.05772	348.24	34988	786.8	0.57
0.05772	348.24	39996	791.14	0.59
0.05772	373.25	530	722.55	0.46
0.05772	373.25	5013	729.6	0.47
0.05772	373.25	10010	736.76	0.49
0.05772	373.25	14996	743.34	0.51
0.05772	373.25	20007	749.46	0.53
0.05772	373.25	25002	755.2	0.55
0.05772	373.25	29988	760.57	0.57
0.05772	373.25	35011	765.68	0.59
0.05772	373.25	40009	770.5	0.62
0.05772	398.27	899	692.91	0.46
0.05772	398.27	5013	700.92	0.48
0.05772	398.27	10001	709.63	0.5
0.05772	398.27	14992	717.48	0.52
0.05772	398.27	19995	724.66	0.54
0.05772	398.27	24985	731.27	0.57
0.05772	398.27	30002	737.46	0.59
0.05772	398.27	34994	743.23	0.62
0.05772	398.27	39999	748.68	0.64
0.37852	298.27	206	853.39	0.44
0.37852	298.27	4990	858.17	0.45
0.37852	298.27	10013	862.94	0.45
0.37852	298.27	14995	867.44	0.46
0.37852	298.27	19984	871.75	0.47
0.37852	298.27	25018	875.78	0.47
0.37852	298.27	29988	879.71	0.48
0.37852	298.27	34982	883.51	0.49
0.37852	298.27	40008	887.18	0.49
0.37852	323.22	228	828.32	0.45
0.37852	323.22	4983	833.75	0.45
0.37852	323.22	9993	839.12	0.46
0.37852	323.22	14997	844.21	0.47
0.37852	323.22	19990	849.04	0.47
0.37852	323.22	24994	853.6	0.48
0.37852	323.22	30016	857.92	0.49
0.37852	323.22	34997	862.1	0.5
0.37852	323.22	39988	866.11	0.51
0.37852	348.23	311	802.57	0.45
0.37852	348.23	5006	808.74	0.45
0.37852	348.23	9999	814.86	0.46
0.37852	348.23	15007	820.6	0.47
0.37852	348.23	19987	825.97	0.48
0.37852	348.23	24998	831.08	0.49
0.37852	348.23	29988	835.92	0.51
0.37852	348.23	35004	840.55	0.52
0.37852	348.23	40007	844.98	0.53
0.37852	373.24	509	775.13	0.45
0.37852	373.24	4989	782.12	0.46
0.37852	373.24	10005	789.3	0.47
0.37852	373.24	14993	795.89	0.48
0.37852	373.24	20013	802.08	0.5
0.37852	373.24	24986	807.84	0.51
0.37852	373.24	29988	813.28	0.52
0.37852	373.24	35005	818.47	0.54
0.37852	373.24	39999	823.36	0.55
0.37852	398.25	875	744.91	0.46
0.37852	398.25	5007	752.83	0.46
0.37852	398.25	9997	761.43	0.48
0.37852	398.25	15016	769.33	0.49
0.37852	398.25	19996	776.5	0.51
0.37852	398.25	25013	783.19	0.53
0.37852	398.25	29995	789.37	0.54
0.37852	398.25	34995	795.22	0.56
0.37852	398.25	40001	800.74	0.58
0.71585	298.27	175	902.32	0.43
0.71585	298.27	4998	907.05	0.44
0.71585	298.27	10009	911.75	0.44
0.71585	298.27	14985	916.21	0.44
0.71585	298.27	19989	920.51	0.44
0.71585	298.27	25019	924.66	0.45
0.71585	298.27	34985	932.44	0.45
0.71585	298.27	35000	932.43	0.45
0.71585	298.27	39992	936.16	0.45
0.71585	323.22	212	876.52	0.44
0.71585	323.22	5010	881.93	0.44
0.71585	323.22	9999	887.26	0.44
0.71585	323.22	15018	892.34	0.45
0.71585	323.22	19994	897.14	0.45
0.71585	323.22	24981	901.73	0.45
0.71585	323.22	29987	906.15	0.46
0.71585	323.22	34994	910.38	0.46
0.71585	323.22	39997	914.47	0.46
0.71585	348.23	316	850.07	0.44
0.71585	348.23	4989	856.15	0.44
0.71585	348.23	10009	862.27	0.45
0.71585	348.23	14998	868	0.45
0.71585	348.23	19998	873.4	0.46
0.71585	348.23	25006	878.54	0.46
0.71585	348.23	29987	883.42	0.47
0.71585	348.23	34986	888.06	0.47
0.71585	348.23	40002	892.55	0.48
0.71585	373.24	510	822.07	0.44
0.71585	373.24	5012	828.98	0.45
0.71585	373.24	9999	836.05	0.45
0.71585	373.24	14990	842.63	0.46
0.71585	373.24	19988	848.79	0.47
0.71585	373.24	25005	854.61	0.48
0.71585	373.24	29996	860.06	0.48
0.71585	373.24	35010	865.28	0.49
0.71585	373.24	40008	870.23	0.5
0.71585	398.25	874	791.54	0.44
0.71585	398.25	4997	799.23	0.45
0.71585	398.25	9995	807.74	0.46
0.71585	398.25	14982	815.46	0.47
0.71585	398.25	19995	822.66	0.48
0.71585	398.25	25004	829.32	0.49
0.71585	398.25	29999	835.55	0.5
0.71585	398.25	34983	841.37	0.51
0.71585	398.25	39988	846.94	0.52
1.95061	298.27	206	1072.66	0.44
1.95061	298.27	4983	1077.46	0.44
1.95061	298.27	9995	1082.31	0.44
1.95061	298.27	15001	1087.02	0.45
1.95061	298.27	19983	1091.45	0.45
1.95061	298.27	24990	1095.81	0.46
1.95061	298.27	29996	1100.02	0.46
1.95061	298.27	34998	1104.11	0.47
1.95061	298.27	40010	1108.09	0.48
1.95061	323.22	245	1042.34	0.43
1.95061	323.22	5004	1047.72	0.43
1.95061	323.22	9982	1053.09	0.44
1.95061	323.22	14987	1058.26	0.44
1.95061	323.22	20009	1063.24	0.44
1.95061	323.22	24998	1068	0.45
1.95061	323.22	29997	1072.61	0.45
1.95061	323.22	35003	1077.08	0.46
1.95061	323.22	40001	1081.4	0.46
1.95061	348.24	338	1012.66	0.43
1.95061	348.24	4997	1018.61	0.43
1.95061	348.24	10010	1024.67	0.43
1.95061	348.24	14997	1030.41	0.43
1.95061	348.24	19995	1035.89	0.43
1.95061	348.24	25006	1041.15	0.44
1.95061	348.24	29980	1046.17	0.44
1.95061	348.24	34988	1051.04	0.44
1.95061	348.24	39992	1055.74	0.45
1.95061	373.26	510	982.6	0.43
1.95061	373.26	4981	989.17	0.43
1.95061	373.26	9999	996.08	0.43
1.95061	373.26	14998	1002.57	0.43
1.95061	373.26	19990	1008.69	0.43
1.95061	373.26	25011	1014.53	0.43
1.95061	373.26	29987	1020.09	0.43
1.95061	373.26	34996	1025.43	0.43
1.95061	373.26	39999	1030.56	0.44
1.95061	398.27	890	951.2	0.43
1.95061	398.27	4987	958.29	0.43
1.95061	398.27	9996	966.33	0.43
1.95061	398.27	14992	973.78	0.43
1.95061	398.27	20001	980.78	0.43
1.95061	398.27	25015	987.36	0.43
1.95061	398.27	29996	993.57	0.43
1.95061	398.27	34980	999.48	0.43
1.95061	398.27	40007	1005.18	0.43
