Measured thermophysical data. Determination and correlation of solubility and solution thermodynamics of saccharin in different pure solvents
Source: J. Chem. Thermodyn., 2019, 10.1016/j.jct.2019.02.005
Compound 1: 1,2-benzoisothiazolin-3-one 1,1-dioxide, C7H5NO3S, InChI=1S/C7H5NO3S/c9-7-5-3-1-2-4-6(5)12(10,11)8-7/h1-4H,(H,8,9), purity 99%
Compound 2: methanol, CH4O, InChI=1S/CH4O/c1-2/h2H,1H3, purity 99.5%
Compound 3: ethanol, C2H6O, InChI=1S/C2H6O/c1-2-3/h3H,2H2,1H3, purity 99.5%
Compound 4: propan-1-ol, C3H8O, InChI=1S/C3H8O/c1-2-3-4/h4H,2-3H2,1H3, purity 99.5%
Compound 5: propan-2-ol, C3H8O, InChI=1S/C3H8O/c1-3(2)4/h3-4H,1-2H3, purity 99.5%
Compound 6: 2-methyl-1-propanol, C4H10O, InChI=1S/C4H10O/c1-4(2)3-5/h4-5H,3H2,1-2H3, purity 99.5%
Compound 7: ethyl acetate, C4H8O2, InChI=1S/C4H8O2/c1-3-6-4(2)5/h3H2,1-2H3, purity 99.5%
Compound 8: acetone, C3H6O, InChI=1S/C3H6O/c1-3(2)4/h1-2H3, purity 99.5%

System: 1,2-benzoisothiazolin-3-one 1,1-dioxide; phases: Crystal, Liquid, Air at 1 atmosphere
Property: Normal melting temperature, K (Crystal); method: DTA
Normal melting temperature, K	uncertainty
499.45	1.06

System: 1,2-benzoisothiazolin-3-one 1,1-dioxide; phases: Crystal, Liquid, Air at 1 atmosphere
Property: Molar enthalpy of transition or fusion, kJ/mol (Crystal); method: DSC
Molar enthalpy of transition or fusion, kJ/mol	uncertainty
27.37	1.23

System: 1,2-benzoisothiazolin-3-one 1,1-dioxide + methanol; phases: Liquid, Crystal
Fixed: Pressure, kPa = 101.3
Property: Mole fraction of 1,2-benzoisothiazolin-3-one 1,1-dioxide (Liquid); method: Gravimetric
Temperature, K	Mole fraction of 1,2-benzoisothiazolin-3-one 1,1-dioxide	uncertainty
278.15	0.00542	0.00054
283.15	0.00665	0.00067
288.15	0.00806	0.00081
293.15	0.00969	0.00097
298.15	0.0115	0.0012
303.15	0.0135	0.0014
308.15	0.0157	0.0016
313.15	0.0185	0.0019
318.15	0.0217	0.0022
323.15	0.0257	0.0026

System: 1,2-benzoisothiazolin-3-one 1,1-dioxide + ethanol; phases: Liquid, Crystal
Fixed: Pressure, kPa = 101.3
Property: Mole fraction of 1,2-benzoisothiazolin-3-one 1,1-dioxide (Liquid); method: Gravimetric
Temperature, K	Mole fraction of 1,2-benzoisothiazolin-3-one 1,1-dioxide	uncertainty
278.15	0.00486	0.00049
283.15	0.00578	0.00058
288.15	0.00686	0.00069
293.15	0.00814	0.00081
298.15	0.00964	0.00097
303.15	0.0114	0.0011
308.15	0.0134	0.0013
313.15	0.0158	0.0016
318.15	0.019	0.0019
323.15	0.0231	0.0023

System: 1,2-benzoisothiazolin-3-one 1,1-dioxide + propan-1-ol; phases: Liquid, Crystal
Fixed: Pressure, kPa = 101.3
Property: Mole fraction of 1,2-benzoisothiazolin-3-one 1,1-dioxide (Liquid); method: Gravimetric
Temperature, K	Mole fraction of 1,2-benzoisothiazolin-3-one 1,1-dioxide	uncertainty
278.15	0.00311	0.00031
283.15	0.00369	0.00037
288.15	0.00439	0.00044
293.15	0.00526	0.00053
298.15	0.00621	0.00062
303.15	0.00756	0.00076
308.15	0.00902	0.0009
313.15	0.0109	0.0011
318.15	0.0129	0.0013
323.15	0.0157	0.0016

System: 1,2-benzoisothiazolin-3-one 1,1-dioxide + propan-2-ol; phases: Liquid, Crystal
Fixed: Pressure, kPa = 101.3
Property: Mole fraction of 1,2-benzoisothiazolin-3-one 1,1-dioxide (Liquid); method: Gravimetric
Temperature, K	Mole fraction of 1,2-benzoisothiazolin-3-one 1,1-dioxide	uncertainty
278.15	0.00382	0.00038
283.15	0.0045	0.00045
288.15	0.00532	0.00053
293.15	0.00632	0.00063
298.15	0.00752	0.00075
303.15	0.00895	0.0009
308.15	0.0106	0.0011
313.15	0.0126	0.0013
318.15	0.015	0.0015
323.15	0.0181	0.0018

System: 1,2-benzoisothiazolin-3-one 1,1-dioxide + 2-methyl-1-propanol; phases: Liquid, Crystal
Fixed: Pressure, kPa = 101.3
Property: Mole fraction of 1,2-benzoisothiazolin-3-one 1,1-dioxide (Liquid); method: Gravimetric
Temperature, K	Mole fraction of 1,2-benzoisothiazolin-3-one 1,1-dioxide	uncertainty
278.15	0.00181	0.00018
283.15	0.00222	0.00022
288.15	0.00279	0.00028
293.15	0.00355	0.00036
298.15	0.00433	0.00043
303.15	0.00538	0.00054
308.15	0.00654	0.00065
313.15	0.00791	0.00079
318.15	0.00953	0.00095
323.15	0.0114	0.0011

System: 1,2-benzoisothiazolin-3-one 1,1-dioxide + ethyl acetate; phases: Liquid, Crystal
Fixed: Pressure, kPa = 101.3
Property: Mole fraction of 1,2-benzoisothiazolin-3-one 1,1-dioxide (Liquid); method: Gravimetric
Temperature, K	Mole fraction of 1,2-benzoisothiazolin-3-one 1,1-dioxide	uncertainty
278.15	0.00883	0.00088
283.15	0.0111	0.0011
288.15	0.0139	0.0014
293.15	0.0169	0.0017
298.15	0.0203	0.002
303.15	0.0241	0.0024
308.15	0.0287	0.0029
313.15	0.0342	0.0034
318.15	0.0401	0.004
323.15	0.0474	0.0047

System: 1,2-benzoisothiazolin-3-one 1,1-dioxide + acetone; phases: Liquid, Crystal
Fixed: Pressure, kPa = 101.3
Property: Mole fraction of 1,2-benzoisothiazolin-3-one 1,1-dioxide (Liquid); method: Gravimetric
Temperature, K	Mole fraction of 1,2-benzoisothiazolin-3-one 1,1-dioxide	uncertainty
278.15	0.0222	0.0022
283.15	0.025	0.0025
288.15	0.0286	0.0029
293.15	0.0326	0.0033
298.15	0.0374	0.0037
303.15	0.0422	0.0042
308.15	0.0484	0.0048
313.15	0.0554	0.0055
318.15	0.0635	0.0064
323.15	0.071	0.0071
