Measured thermophysical data. Thermodynamic properties of phase transitions of phenyl derivatives of maleic anhydride and oxazole
Source: J. Chem. Thermodyn., 2019, 10.1016/j.jct.2018.12.001
Compound 1: phenylmaleic anhydride, C10H6O3, InChI=1S/C10H6O3/c11-9-6-8(10(12)13-9)7-4-2-1-3-5-7/h1-6H
Compound 2: diphenylmaleic anhydride, C16H10O3, InChI=1S/C16H10O3/c17-15-13(11-7-3-1-4-8-11)14(16(18)19-15)12-9-5-2-6-10-12/h1-10H
Compound 3: 2,5-diphenyloxazole, C15H11NO, InChI=1S/C15H11NO/c1-3-7-12(8-4-1)14-11-16-15(17-14)13-9-5-2-6-10-13/h1-11H

System: phenylmaleic anhydride; phases: Crystal, Liquid, Air at 1 atmosphere
Property: Normal melting temperature, K (Crystal); method: DTA
Normal melting temperature, K	uncertainty
393.35	0.43

System: phenylmaleic anhydride; phases: Crystal, Liquid, Air at 1 atmosphere
Property: Molar enthalpy of transition or fusion, kJ/mol (Crystal); method: DSC
Molar enthalpy of transition or fusion, kJ/mol	uncertainty
25.93	0.63

System: phenylmaleic anhydride; phases: Crystal, Gas
Property: Vapor or sublimation pressure, kPa (Crystal); method: Calculated from knudsen effusion weight loss
Temperature, K	Vapor or sublimation pressure, kPa	uncertainty
319.14	0.000102	2e-05
321.22	0.000126	2.1e-05
323.2	0.000165	2.1e-05
325.15	0.000205	2.1e-05
327.17	0.000255	2.2e-05
329.3	0.000325	2.3e-05
331.18	0.000394	2.4e-05
333.2	0.000496	2.7e-05
335.36	0.000637	3e-05
337.13	0.000772	3.4e-05
339.23	0.000919	3.8e-05
341.31	0.001191	9.6e-05
319.14	0.000102	2e-05
321.22	0.000125	2e-05
323.2	0.000161	2.1e-05
325.15	0.000202	2.1e-05
327.17	0.000252	2.2e-05
329.3	0.000323	2.3e-05
331.18	0.000398	2.4e-05
333.2	0.0005	2.7e-05
335.36	0.000633	3e-05
337.13	0.000764	3.4e-05
339.23	0.000934	3.9e-05
341.31	0.001182	9.5e-05
319.14	0.0001	2e-05
321.22	0.00013	2.1e-05
323.2	0.000164	2.1e-05
325.15	0.0002	2.1e-05
327.17	0.00025	2.2e-05
329.3	0.000321	2.3e-05
331.18	0.0004	2.5e-05
333.2	0.000496	2.7e-05
335.36	0.000631	3e-05
337.13	0.000748	3.3e-05
339.23	0.000926	3.8e-05
341.31	0.001186	9.5e-05

System: diphenylmaleic anhydride; phases: Crystal, Liquid, Air at 1 atmosphere
Property: Normal melting temperature, K (Crystal); method: DTA
Normal melting temperature, K	uncertainty
430.67	0.44

System: diphenylmaleic anhydride; phases: Crystal, Liquid, Air at 1 atmosphere
Property: Molar enthalpy of transition or fusion, kJ/mol (Crystal); method: DSC
Molar enthalpy of transition or fusion, kJ/mol	uncertainty
27.26	0.77

System: diphenylmaleic anhydride; phases: Crystal, Gas
Property: Vapor or sublimation pressure, kPa (Crystal); method: Calculated from knudsen effusion weight loss
Temperature, K	Vapor or sublimation pressure, kPa	uncertainty
361.07	0.000112	2e-05
363.19	0.00014	2.1e-05
365.3	0.000177	2.1e-05
367.1	0.000213	2.1e-05
369.26	0.000265	2.2e-05
371.29	0.000331	2.3e-05
373.08	0.000399	2.4e-05
375.28	0.000494	2.7e-05
377.3	0.00059	2.9e-05
379.19	0.00074	3.3e-05
381.16	0.000894	3.7e-05
383.2	0.001108	8.8e-05
361.07	0.000113	2e-05
363.19	0.00014	2.1e-05
365.3	0.000178	2.1e-05
367.1	0.000213	2.1e-05
369.26	0.000266	2.2e-05
371.29	0.000335	2.3e-05
373.08	0.000392	2.4e-05
375.28	0.000492	2.7e-05
377.3	0.00061	2.9e-05
379.19	0.000733	3.3e-05
381.16	0.000891	3.7e-05
383.2	0.001106	8.8e-05
361.07	0.000111	2e-05
363.19	0.000138	2.1e-05
365.3	0.000175	2.1e-05
367.1	0.000215	2.1e-05
369.26	0.000265	2.2e-05
371.29	0.000332	2.3e-05
373.08	0.000393	2.4e-05
375.28	0.000483	2.6e-05
377.3	0.0006	2.9e-05
379.19	0.000729	3.3e-05
381.16	0.000881	3.7e-05
383.2	0.00109	8.6e-05

System: 2,5-diphenyloxazole; phases: Crystal, Liquid, Air at 1 atmosphere
Property: Normal melting temperature, K (Crystal); method: DTA
Normal melting temperature, K	uncertainty
344.23	0.43

System: 2,5-diphenyloxazole; phases: Crystal, Liquid, Air at 1 atmosphere
Property: Molar enthalpy of transition or fusion, kJ/mol (Crystal); method: DSC
Molar enthalpy of transition or fusion, kJ/mol	uncertainty
22.91	0.53

System: 2,5-diphenyloxazole; phases: Crystal, Gas
Property: Vapor or sublimation pressure, kPa (Crystal); method: Calculated from knudsen effusion weight loss
Temperature, K	Vapor or sublimation pressure, kPa	uncertainty
328.18	7.2e-05	2e-05
329.28	8.1e-05	2e-05
330.3	9.2e-05	2e-05
331.19	0.000104	2e-05
332.29	0.000116	2e-05
333.29	0.000135	2.1e-05
334.19	0.000149	2.1e-05
335.17	0.000166	2.1e-05
336.2	0.000188	2.1e-05
337.18	0.000215	2.1e-05
338.17	0.000241	2.2e-05
339.29	0.00027	2.2e-05
340.25	0.000301	2.3e-05
341.3	0.00034	2.3e-05
342.3	0.000385	2.4e-05
328.18	7.2e-05	2e-05
329.28	8.2e-05	2e-05
330.3	9.2e-05	2e-05
331.19	0.000103	2e-05
332.29	0.000118	2e-05
333.29	0.000133	2.1e-05
334.19	0.000149	2.1e-05
335.17	0.000167	2.1e-05
336.2	0.000189	2.1e-05
337.18	0.000209	2.1e-05
338.17	0.000237	2.2e-05
339.29	0.000269	2.2e-05
340.25	0.000301	2.3e-05
341.3	0.000343	2.3e-05
342.3	0.000382	2.4e-05
328.18	7.2e-05	2e-05
329.28	8.1e-05	2e-05
330.3	9.4e-05	2e-05
331.19	0.000103	2e-05
332.29	0.000116	2e-05
333.29	0.000133	2.1e-05
334.19	0.000148	2.1e-05
335.17	0.000166	2.1e-05
336.2	0.000188	2.1e-05
337.18	0.000212	2.1e-05
338.17	0.000238	2.2e-05
339.29	0.000268	2.2e-05
340.25	0.0003	2.3e-05
341.3	0.000342	2.3e-05
342.3	0.000384	2.4e-05
