Measured thermophysical data. Density and viscosity of aqueous solutions of N,N-dimethylethanolamine at p = 0.1 MPa from T = (293.15 to 363.15) K
Source: J. Chem. Thermodyn., 2005, 10.1016/j.jct.2004.11.016
Compound 1: 2-(N,N-dimethylamino)ethanol, C4H11NO, InChI=1S/C4H11NO/c1-5(2)3-4-6/h6H,3-4H2,1-2H3
Compound 2: water, H2O, InChI=1S/H2O/h1H2

System: 2-(N,N-dimethylamino)ethanol; phases: Liquid
Fixed: Pressure, kPa = 101
Property: Viscosity, Pa*s (Liquid); method: CAPTUB:UFactor:2
Temperature, K	Viscosity, Pa*s	uncertainty
313.15	0.002238	3.3e-05
323.15	0.001756	2.6e-05
333.15	0.001413	2.1e-05
343.15	0.001156	1.7e-05
353.15	0.000963	1.5e-05

System: 2-(N,N-dimethylamino)ethanol; phases: Liquid
Fixed: Pressure, kPa = 101.3
Property: Mass density, kg/m3 (Liquid); method: VIBTUB:UFactor:16
Temperature, K	Mass density, kg/m3	uncertainty
293.15	887.816	1.208
298.15	883.578	1.234
303.15	879.315	1.261
308.15	875.017	1.287
313.15	870.686	1.314
318.15	866.316	1.341
323.15	861.902	1.369
328.15	857.46	1.396
333.15	852.965	1.425
338.15	848.423	1.453
343.15	843.844	1.482
348.15	839.205	1.511
353.15	834.521	1.541
358.15	829.779	1.572
363.15	824.969	1.604

System: water; phases: Liquid
Fixed: Pressure, kPa = 101
Property: Viscosity, Pa*s (Liquid); method: CAPTUB:UFactor:2
Temperature, K	Viscosity, Pa*s	uncertainty
313.15	0.000651	1e-05
323.15	0.000544	9e-06
333.15	0.000463	8e-06
343.15	0.000396	7e-06
353.15	0.000348	6e-06

System: water; phases: Liquid
Fixed: Pressure, kPa = 101.3
Property: Mass density, kg/m3 (Liquid); method: VIBTUB:UFactor:16
Temperature, K	Mass density, kg/m3	uncertainty
293.15	998.203	0.508
298.15	997.043	0.515
303.15	995.645	0.524
308.15	994.029	0.534
313.15	992.212	0.545
318.15	990.208	0.558
323.15	988.03	0.571
328.15	985.688	0.586
333.15	983.191	0.602
338.15	980.546	0.619
343.15	977.759	0.637
348.15	974.838	0.656
353.15	971.785	0.676
358.15	968.606	0.697
363.15	965.305	0.719

System: 2-(N,N-dimethylamino)ethanol + water; phases: Liquid
Fixed: Pressure, kPa = 101
Property: Viscosity, Pa*s (Liquid); method: CAPTUB:UFactor:2
Temperature, K	Mole fraction of 2-(N,N-dimethylamino)ethanol	Viscosity, Pa*s	uncertainty
313.15	0	0.000651	1e-05
313.15	0.1009	0.002669	3.9e-05
313.15	0.2017	0.005071	7.3e-05
313.15	0.3033	0.006593	9e-05
313.15	0.4051	0.00658	9e-05
313.15	0.5077	0.005885	8.3e-05
313.15	0.6099	0.004784	7.1e-05
313.15	0.7652	0.003467	5.4e-05
313.15	0.895	0.00272	4.4e-05
313.15	1	0.002238	3.3e-05
323.15	0	0.000544	9e-06
323.15	0.1009	0.001957	2.9e-05
323.15	0.2017	0.003487	5.1e-05
323.15	0.3033	0.004435	6.3e-05
323.15	0.4051	0.004433	6.3e-05
323.15	0.5077	0.004044	5.8e-05
323.15	0.6099	0.003393	5.1e-05
323.15	0.7652	0.002573	4e-05
323.15	0.895	0.002089	3.3e-05
323.15	1	0.001756	2.6e-05
333.15	0	0.000463	8e-06
333.15	0.1009	0.001499	2.2e-05
333.15	0.2017	0.002511	3.7e-05
333.15	0.3033	0.003091	4.4e-05
333.15	0.4051	0.003126	4.5e-05
333.15	0.5077	0.002897	4.2e-05
333.15	0.6099	0.002503	3.7e-05
333.15	0.7652	0.001969	3e-05
333.15	0.895	0.001641	2.6e-05
333.15	1	0.001413	2.1e-05
343.15	0	0.000396	7e-06
343.15	0.1009	0.001186	1.8e-05
343.15	0.2017	0.001896	2.8e-05
343.15	0.3033	0.00227	3.3e-05
343.15	0.4051	0.002302	3.3e-05
343.15	0.5077	0.002152	3.1e-05
343.15	0.6099	0.001909	2.8e-05
343.15	0.7652	0.001551	2.4e-05
343.15	0.895	0.001317	2.1e-05
343.15	1	0.001156	1.7e-05
353.15	0	0.000348	6e-06
353.15	0.1009	0.000966	1.5e-05
353.15	0.2017	0.00147	2.2e-05
353.15	0.3033	0.001724	2.5e-05
353.15	0.4051	0.00175	2.6e-05
353.15	0.5077	0.00165	2.4e-05
353.15	0.6099	0.001493	2.2e-05
353.15	0.7652	0.001247	1.9e-05
353.15	0.895	0.001078	1.7e-05
353.15	1	0.000963	1.5e-05

System: 2-(N,N-dimethylamino)ethanol + water; phases: Liquid
Fixed: Pressure, kPa = 101.3
Property: Mass density, kg/m3 (Liquid); method: VIBTUB:UFactor:16
Mole fraction of 2-(N,N-dimethylamino)ethanol	Temperature, K	Mass density, kg/m3	uncertainty
0	293.15	998.203	0.508
0	298.15	997.043	0.515
0	303.15	995.645	0.524
0	308.15	994.029	0.534
0	313.15	992.212	0.545
0	318.15	990.208	0.558
0	323.15	988.03	0.571
0	328.15	985.688	0.586
0	333.15	983.191	0.602
0	338.15	980.546	0.619
0	343.15	977.759	0.637
0	348.15	974.838	0.656
0	353.15	971.785	0.676
0	358.15	968.606	0.697
0	363.15	965.305	0.719
0.0121	293.15	996.588	0.518
0.0121	298.15	995.282	0.526
0.0121	303.15	993.747	0.536
0.0121	308.15	991.994	0.547
0.0121	313.15	989.83	0.56
0.0121	318.15	986.678	0.58
0.0218	293.15	995.236	0.526
0.0218	298.15	993.748	0.536
0.0218	303.15	992.024	0.547
0.0218	308.15	990.035	0.559
0.0218	313.15	987.566	0.575
0.0218	318.15	985.311	0.589
0.0252	293.15	994.947	0.528
0.0252	298.15	993.401	0.538
0.0252	303.15	991.591	0.549
0.0252	308.15	989.243	0.564
0.0252	313.15	986.624	0.58
0.0359	293.15	994.033	0.534
0.0359	298.15	992.24	0.545
0.0359	303.15	990.239	0.558
0.0359	308.15	988.048	0.572
0.0359	313.15	985.713	0.586
0.0359	318.15	983.206	0.602
0.0617	293.15	992.027	0.547
0.0617	298.15	989.74	0.562
0.0617	303.15	987.103	0.578
0.0617	308.15	984.421	0.595
0.0617	313.15	981.605	0.613
0.0617	318.15	978.661	0.632
0.0617	323.15	975.591	0.651
0.0617	328.15	972.399	0.672
0.0617	333.15	969.09	0.693
0.0617	338.15	965.663	0.715
0.0617	343.15	961.835	0.739
0.0617	348.15	957.228	0.769
0.0617	353.15	952.666	0.798
0.0617	358.15	950.878	0.811
0.0617	363.15	946.398	0.841
0.1009	293.15	988.909	0.569
0.1009	298.15	985.747	0.589
0.1009	303.15	982.49	0.61
0.1009	308.15	979.144	0.631
0.1009	313.15	975.714	0.653
0.1009	318.15	972.197	0.675
0.1009	323.15	968.595	0.698
0.1009	328.15	964.905	0.721
0.1009	333.15	961.13	0.745
0.1009	338.15	957.253	0.77
0.1009	343.15	953.308	0.795
0.1009	348.15	949.273	0.821
0.1009	353.15	945.149	0.847
0.1009	358.15	940.935	0.875
0.1009	363.15	936.638	0.904
0.2017	293.15	973.822	0.674
0.2017	298.15	969.911	0.699
0.2017	303.15	965.929	0.724
0.2017	308.15	961.896	0.749
0.2017	313.15	957.808	0.775
0.2017	318.15	953.663	0.801
0.2017	323.15	949.451	0.827
0.2017	328.15	945.194	0.854
0.2017	333.15	940.864	0.882
0.2017	338.15	936.472	0.909
0.2017	343.15	932.014	0.938
0.2017	348.15	927.488	0.967
0.2017	353.15	922.889	0.996
0.2017	358.15	918.216	1.027
0.2017	363.15	913.472	1.058
0.3033	293.15	956.823	0.794
0.3033	298.15	952.768	0.818
0.3033	303.15	948.646	0.844
0.3033	308.15	944.47	0.869
0.3033	313.15	940.237	0.895
0.3033	318.15	935.946	0.921
0.3033	323.15	931.598	0.948
0.3033	328.15	927.188	0.975
0.3033	333.15	922.714	1.003
0.3033	338.15	918.174	1.031
0.3033	343.15	913.564	1.06
0.3033	348.15	908.868	1.09
0.3033	353.15	904.132	1.12
0.3033	358.15	899.314	1.151
0.3033	363.15	894.425	1.183
0.4051	293.15	941.071	0.899
0.4051	298.15	936.991	0.923
0.4051	303.15	932.844	0.948
0.4051	308.15	928.641	0.974
0.4051	313.15	924.379	1
0.4051	318.15	920.062	1.026
0.4051	323.15	915.685	1.053
0.4051	328.15	911.247	1.08
0.4051	333.15	906.75	1.107
0.4051	338.15	902.184	1.136
0.4051	343.15	897.541	1.164
0.4051	348.15	892.846	1.194
0.4051	353.15	888.074	1.224
0.4051	358.15	883.233	1.255
0.4051	363.15	878.314	1.286
0.5077	293.15	927.808	0.983
0.5077	298.15	923.722	1.008
0.5077	303.15	919.567	1.033
0.5077	308.15	915.367	1.058
0.5077	313.15	911.114	1.084
0.5077	318.15	906.806	1.11
0.5077	323.15	902.436	1.137
0.5077	328.15	898.016	1.164
0.5077	333.15	893.531	1.191
0.5077	338.15	888.98	1.219
0.5077	343.15	884.364	1.248
0.5077	348.15	879.677	1.277
0.5077	353.15	874.926	1.307
0.5077	358.15	870.101	1.338
0.5077	363.15	865.197	1.369
0.6099	293.15	916.51	1.05
0.6099	298.15	912.41	1.075
0.6099	303.15	908.259	1.1
0.6099	308.15	904.055	1.126
0.6099	313.15	899.803	1.152
0.6099	318.15	895.501	1.178
0.6099	323.15	891.144	1.205
0.6099	328.15	886.733	1.232
0.6099	333.15	882.262	1.259
0.6099	338.15	877.726	1.287
0.6099	343.15	873.127	1.316
0.6099	348.15	868.45	1.345
0.6099	353.15	863.729	1.375
0.6099	358.15	858.928	1.406
0.6099	363.15	854.052	1.437
0.7652	293.15	903.034	1.136
0.7652	298.15	898.903	1.161
0.7652	303.15	894.723	1.187
0.7652	308.15	890.503	1.213
0.7652	313.15	886.233	1.239
0.7652	318.15	881.923	1.265
0.7652	323.15	877.562	1.292
0.7652	328.15	873.15	1.319
0.7652	333.15	868.68	1.346
0.7652	338.15	864.16	1.374
0.7652	343.15	859.582	1.403
0.7652	348.15	854.939	1.432
0.7652	353.15	850.236	1.462
0.7652	358.15	845.484	1.492
0.7652	363.15	840.646	1.523
0.895	293.15	894.185	1.19
0.895	298.15	889.991	1.216
0.895	303.15	885.767	1.242
0.895	308.15	881.507	1.268
0.895	313.15	877.213	1.294
0.895	318.15	872.876	1.321
0.895	323.15	868.495	1.348
0.895	328.15	864.065	1.375
0.895	333.15	859.595	1.403
0.895	338.15	855.072	1.431
0.895	343.15	850.491	1.459
0.895	348.15	845.858	1.488
0.895	353.15	841.163	1.518
0.895	358.15	836.414	1.548
0.895	363.15	831.596	1.579
1	293.15	887.816	1.208
1	298.15	883.578	1.234
1	303.15	879.315	1.261
1	308.15	875.017	1.287
1	313.15	870.686	1.314
1	318.15	866.316	1.341
1	323.15	861.902	1.369
1	328.15	857.46	1.396
1	333.15	852.965	1.425
1	338.15	848.423	1.453
1	343.15	843.844	1.482
1	348.15	839.205	1.511
1	353.15	834.521	1.541
1	358.15	829.779	1.572
1	363.15	824.969	1.604
