Measured thermophysical data. The molar surface Gibbs energy and its application to the binary mixtures of N-butylpyridinium dicyanamide [C4py][DCA] with alcohols
Source: J. Chem. Thermodyn., 2019, 10.1016/j.jct.2018.08.004
Compound 1: 1-butylpyridinium dicyanamide, C11H14N4, InChI=1S/C9H14N.C2N3/c1-2-3-7-10-8-5-4-6-9-10;3-1-5-2-4/h4-6,8-9H,2-3,7H2,1H3;/q+1;-1
Compound 2: ethanol, C2H6O, InChI=1S/C2H6O/c1-2-3/h3H,2H2,1H3, purity 99.8%
Compound 3: propan-1-ol, C3H8O, InChI=1S/C3H8O/c1-2-3-4/h4H,2-3H2,1H3, purity 99.9%
Compound 4: propan-2-ol, C3H8O, InChI=1S/C3H8O/c1-3(2)4/h3-4H,1-2H3, purity 99.7%

System: ethanol; phases: Liquid, Air at 1 atmosphere
Property: Surface tension liquid-gas, N/m (Liquid); method: Maximal bubble pressure
Temperature, K	Surface tension liquid-gas, N/m	uncertainty
288.15	0.0233	0.0008
293.15	0.0227	0.0008
298.15	0.0222	0.0008
303.15	0.0216	0.0007
308.15	0.0211	0.0007
313.15	0.0207	0.0007
318.15	0.02	0.0007

System: propan-1-ol; phases: Liquid, Air at 1 atmosphere
Property: Surface tension liquid-gas, N/m (Liquid); method: Maximal bubble pressure
Temperature, K	Surface tension liquid-gas, N/m	uncertainty
288.15	0.0245	0.0008
293.15	0.0239	0.0008
298.15	0.0234	0.0008
303.15	0.023	0.0008
308.15	0.0225	0.0008
313.15	0.0221	0.0007
318.15	0.0216	0.0007

System: propan-2-ol; phases: Liquid, Air at 1 atmosphere
Property: Surface tension liquid-gas, N/m (Liquid); method: Maximal bubble pressure
Temperature, K	Surface tension liquid-gas, N/m	uncertainty
288.15	0.0222	0.0008
293.15	0.0217	0.0007
298.15	0.0212	0.0007
303.15	0.0208	0.0007
308.15	0.0203	0.0007
313.15	0.0199	0.0007
318.15	0.0194	0.0007

System: 1-butylpyridinium dicyanamide + ethanol; phases: Liquid
Fixed: Pressure, kPa = 100
Property: Mass density, kg/m3 (Liquid); method: Vibrating tube method
Temperature, K	Mole fraction of 1-butylpyridinium dicyanamide	Mass density, kg/m3	uncertainty
288.15	0	793.91	1.99
288.15	0.0999	877.29	2.2
288.15	0.201	930.73	2.33
288.15	0.2996	967.04	2.42
288.15	0.3993	994.22	2.49
288.15	0.4897	1013.42	2.54
288.15	0.6017	1032.37	2.59
288.15	0.693	1044.81	2.62
288.15	0.7974	1056.62	2.65
288.15	0.905	1066.7	2.68
288.15	1	1074.97	2.7
293.15	0	789.66	1.98
293.15	0.0999	873.42	2.19
293.15	0.201	927.12	2.32
293.15	0.2996	963.57	2.42
293.15	0.3993	990.86	2.48
293.15	0.4897	1010.13	2.53
293.15	0.6017	1029.14	2.58
293.15	0.693	1041.62	2.61
293.15	0.7974	1053.47	2.64
293.15	0.905	1063.59	2.67
293.15	1	1071.9	2.69
298.15	0	785.73	1.97
298.15	0.0999	869.54	2.18
298.15	0.201	923.5	2.32
298.15	0.2996	960.1	2.41
298.15	0.3993	987.5	2.48
298.15	0.4897	1006.84	2.52
298.15	0.6017	1025.91	2.57
298.15	0.693	1038.43	2.6
298.15	0.7974	1050.31	2.63
298.15	0.905	1060.48	2.66
298.15	1	1068.83	2.68
303.15	0	781.05	1.96
303.15	0.0999	865.66	2.17
303.15	0.201	919.87	2.31
303.15	0.2996	956.64	2.4
303.15	0.3993	984.14	2.47
303.15	0.4897	1003.56	2.52
303.15	0.6017	1022.7	2.56
303.15	0.693	1035.25	2.59
303.15	0.7974	1047.18	2.62
303.15	0.905	1057.35	2.65
303.15	1	1065.76	2.68
308.15	0	776.7	1.95
308.15	0.0999	861.77	2.16
308.15	0.201	916.25	2.3
308.15	0.2996	953.18	2.39
308.15	0.3993	980.79	2.46
308.15	0.4897	1000.29	2.51
308.15	0.6017	1019.5	2.55
308.15	0.693	1032.09	2.59
308.15	0.7974	1044.05	2.62
308.15	0.905	1054.26	2.64
308.15	1	1062.7	2.67
313.15	0	772.31	1.93
313.15	0.0999	857.88	2.15
313.15	0.201	912.63	2.29
313.15	0.2996	949.73	2.38
313.15	0.3993	977.47	2.45
313.15	0.4897	997.04	2.5
313.15	0.6017	1016.31	2.55
313.15	0.693	1028.95	2.58
313.15	0.7974	1040.95	2.61
313.15	0.905	1051.18	2.64
313.15	1	1059.66	2.66
318.15	0	767.88	1.92
318.15	0.0999	853.98	2.14
318.15	0.201	909.01	2.28
318.15	0.2996	946.29	2.37
318.15	0.3993	974.15	2.44
318.15	0.4897	993.79	2.49
318.15	0.6017	1013.14	2.54
318.15	0.693	1025.82	2.57
318.15	0.7974	1037.86	2.6
318.15	0.905	1048.12	2.63
318.15	1	1056.64	2.65

System: 1-butylpyridinium dicyanamide + ethanol; phases: Liquid, Air at 1 atmosphere
Property: Surface tension liquid-gas, N/m (Liquid); method: Maximal bubble pressure
Temperature, K	Mole fraction of 1-butylpyridinium dicyanamide	Surface tension liquid-gas, N/m	uncertainty
288.15	0	0.0233	0.0008
288.15	0.0999	0.0257	0.0009
288.15	0.201	0.028	0.0009
288.15	0.2996	0.0303	0.001
288.15	0.3993	0.0332	0.0011
288.15	0.4897	0.0358	0.0012
288.15	0.6017	0.0383	0.0013
288.15	0.693	0.0409	0.0014
288.15	0.7974	0.0445	0.0015
288.15	0.905	0.0503	0.0017
288.15	1	0.0563	0.0019
293.15	0	0.0227	0.0008
293.15	0.0999	0.0251	0.0008
293.15	0.201	0.0275	0.0009
293.15	0.2996	0.0298	0.001
293.15	0.3993	0.0329	0.0011
293.15	0.4897	0.0355	0.0012
293.15	0.6017	0.038	0.0013
293.15	0.693	0.0406	0.0014
293.15	0.7974	0.0442	0.0015
293.15	0.905	0.05	0.0017
293.15	1	0.056	0.0019
298.15	0	0.0222	0.0008
298.15	0.0999	0.0246	0.0008
298.15	0.201	0.0271	0.0009
298.15	0.2996	0.0295	0.001
298.15	0.3993	0.0326	0.0011
298.15	0.4897	0.0352	0.0012
298.15	0.6017	0.0377	0.0013
298.15	0.693	0.0403	0.0014
298.15	0.7974	0.0439	0.0015
298.15	0.905	0.0497	0.0017
298.15	1	0.0557	0.0019
303.15	0	0.0216	0.0007
303.15	0.0999	0.0242	0.0008
303.15	0.201	0.0267	0.0009
303.15	0.2996	0.0291	0.001
303.15	0.3993	0.0323	0.0011
303.15	0.4897	0.0349	0.0012
303.15	0.6017	0.0374	0.0013
303.15	0.693	0.04	0.0014
303.15	0.7974	0.0436	0.0015
303.15	0.905	0.0494	0.0017
303.15	1	0.0555	0.0019
308.15	0	0.0211	0.0007
308.15	0.0999	0.0238	0.0008
308.15	0.201	0.0263	0.0009
308.15	0.2996	0.0288	0.001
308.15	0.3993	0.0319	0.0011
308.15	0.4897	0.0345	0.0012
308.15	0.6017	0.037	0.0012
308.15	0.693	0.0397	0.0013
308.15	0.7974	0.0433	0.0015
308.15	0.905	0.0491	0.0017
308.15	1	0.0552	0.0019
313.15	0	0.0207	0.0007
313.15	0.0999	0.0234	0.0008
313.15	0.201	0.0259	0.0009
313.15	0.2996	0.0283	0.001
313.15	0.3993	0.0314	0.0011
313.15	0.4897	0.0341	0.0012
313.15	0.6017	0.0367	0.0012
313.15	0.693	0.0394	0.0013
313.15	0.7974	0.0431	0.0015
313.15	0.905	0.0488	0.0017
313.15	1	0.0549	0.0019
318.15	0	0.02	0.0007
318.15	0.0999	0.0227	0.0008
318.15	0.201	0.0254	0.0009
318.15	0.2996	0.0279	0.0009
318.15	0.3993	0.0311	0.0011
318.15	0.4897	0.0338	0.0011
318.15	0.6017	0.0364	0.0012
318.15	0.693	0.039	0.0013
318.15	0.7974	0.0427	0.0014
318.15	0.905	0.0486	0.0016
318.15	1	0.0545	0.0018

System: 1-butylpyridinium dicyanamide + propan-1-ol; phases: Liquid
Fixed: Pressure, kPa = 100
Property: Mass density, kg/m3 (Liquid); method: Vibrating tube method
Temperature, K	Mole fraction of 1-butylpyridinium dicyanamide	Mass density, kg/m3	uncertainty
288.15	0	807.55	2.02
288.15	0.1001	872.25	2.18
288.15	0.2008	919.12	2.3
288.15	0.3008	954.79	2.39
288.15	0.4009	982.76	2.46
288.15	0.4994	1005.24	2.52
288.15	0.5998	1023.96	2.57
288.15	0.6976	1039.92	2.6
288.15	0.7974	1052.61	2.64
288.15	0.903	1064.59	2.67
288.15	1	1074.97	2.7
293.15	0	803.59	2.01
293.15	0.1001	868.53	2.17
293.15	0.2008	915.57	2.29
293.15	0.3008	951.37	2.39
293.15	0.4009	979.42	2.46
293.15	0.4994	1001.98	2.51
293.15	0.5998	1020.75	2.56
293.15	0.6976	1036.74	2.6
293.15	0.7974	1049.46	2.63
293.15	0.903	1061.47	2.66
293.15	1	1071.9	2.69
298.15	0	799.58	2
298.15	0.1001	864.79	2.17
298.15	0.2008	912.01	2.29
298.15	0.3008	947.94	2.38
298.15	0.4009	976.09	2.45
298.15	0.4994	998.72	2.5
298.15	0.5998	1017.54	2.55
298.15	0.6976	1033.57	2.59
298.15	0.7974	1046.31	2.62
298.15	0.903	1058.35	2.65
298.15	1	1068.83	2.68
303.15	0	795.55	1.99
303.15	0.1001	861.04	2.16
303.15	0.2008	908.45	2.28
303.15	0.3008	944.53	2.37
303.15	0.4009	972.76	2.44
303.15	0.4994	995.47	2.5
303.15	0.5998	1014.34	2.54
303.15	0.6976	1030.42	2.58
303.15	0.7974	1043.18	2.61
303.15	0.903	1055.25	2.65
303.15	1	1065.76	2.68
308.15	0	791.47	1.98
308.15	0.1001	857.28	2.15
308.15	0.2008	904.9	2.27
308.15	0.3008	941.11	2.36
308.15	0.4009	969.44	2.43
308.15	0.4994	992.23	2.49
308.15	0.5998	1011.15	2.53
308.15	0.6976	1027.27	2.57
308.15	0.7974	1040.07	2.61
308.15	0.903	1052.16	2.64
308.15	1	1062.7	2.67
313.15	0	787.36	1.97
313.15	0.1001	853.51	2.14
313.15	0.2008	901.33	2.26
313.15	0.3008	937.71	2.35
313.15	0.4009	966.13	2.42
313.15	0.4994	989	2.48
313.15	0.5998	1007.98	2.53
313.15	0.6976	1024.14	2.57
313.15	0.7974	1036.96	2.6
313.15	0.903	1049.09	2.63
313.15	1	1059.66	2.66
318.15	0	783.2	1.96
318.15	0.1001	849.73	2.13
318.15	0.2008	897.78	2.25
318.15	0.3008	934.3	2.34
318.15	0.4009	962.85	2.41
318.15	0.4994	985.79	2.47
318.15	0.5998	1004.82	2.52
318.15	0.6976	1021.02	2.56
318.15	0.7974	1033.88	2.59
318.15	0.903	1046.03	2.62
318.15	1	1056.64	2.65

System: 1-butylpyridinium dicyanamide + propan-1-ol; phases: Liquid, Air at 1 atmosphere
Property: Surface tension liquid-gas, N/m (Liquid); method: Maximal bubble pressure
Temperature, K	Mole fraction of 1-butylpyridinium dicyanamide	Surface tension liquid-gas, N/m	uncertainty
288.15	0	0.0245	0.0008
288.15	0.1001	0.0265	0.0009
288.15	0.2008	0.0279	0.0009
288.15	0.3008	0.0295	0.001
288.15	0.4009	0.0317	0.0011
288.15	0.4994	0.0331	0.0011
288.15	0.5998	0.0357	0.0012
288.15	0.6976	0.0384	0.0013
288.15	0.7974	0.0412	0.0014
288.15	0.903	0.0458	0.0015
288.15	1	0.0563	0.0019
293.15	0	0.0239	0.0008
293.15	0.1001	0.0261	0.0009
293.15	0.2008	0.0276	0.0009
293.15	0.3008	0.0291	0.001
293.15	0.4009	0.0313	0.0011
293.15	0.4994	0.0328	0.0011
293.15	0.5998	0.0353	0.0012
293.15	0.6976	0.038	0.0013
293.15	0.7974	0.041	0.0014
293.15	0.903	0.0456	0.0015
293.15	1	0.056	0.0019
298.15	0	0.0234	0.0008
298.15	0.1001	0.0256	0.0009
298.15	0.2008	0.0271	0.0009
298.15	0.3008	0.0288	0.001
298.15	0.4009	0.0311	0.0011
298.15	0.4994	0.0325	0.0011
298.15	0.5998	0.035	0.0012
298.15	0.6976	0.0377	0.0013
298.15	0.7974	0.0407	0.0014
298.15	0.903	0.0452	0.0015
298.15	1	0.0557	0.0019
303.15	0	0.023	0.0008
303.15	0.1001	0.0252	0.0009
303.15	0.2008	0.0267	0.0009
303.15	0.3008	0.0284	0.001
303.15	0.4009	0.0307	0.001
303.15	0.4994	0.0322	0.0011
303.15	0.5998	0.0347	0.0012
303.15	0.6976	0.0374	0.0013
303.15	0.7974	0.0404	0.0014
303.15	0.903	0.045	0.0015
303.15	1	0.0555	0.0019
308.15	0	0.0225	0.0008
308.15	0.1001	0.0247	0.0008
308.15	0.2008	0.0264	0.0009
308.15	0.3008	0.0281	0.0009
308.15	0.4009	0.0304	0.001
308.15	0.4994	0.0317	0.0011
308.15	0.5998	0.0344	0.0012
308.15	0.6976	0.0371	0.0013
308.15	0.7974	0.0401	0.0014
308.15	0.903	0.0447	0.0015
308.15	1	0.0552	0.0019
313.15	0	0.0221	0.0007
313.15	0.1001	0.0244	0.0008
313.15	0.2008	0.026	0.0009
313.15	0.3008	0.0277	0.0009
313.15	0.4009	0.03	0.001
313.15	0.4994	0.0315	0.0011
313.15	0.5998	0.0341	0.0012
313.15	0.6976	0.0368	0.0012
313.15	0.7974	0.0398	0.0013
313.15	0.903	0.0444	0.0015
313.15	1	0.0549	0.0019
318.15	0	0.0216	0.0007
318.15	0.1001	0.024	0.0008
318.15	0.2008	0.0256	0.0009
318.15	0.3008	0.0273	0.0009
318.15	0.4009	0.0296	0.001
318.15	0.4994	0.0312	0.0011
318.15	0.5998	0.0338	0.0011
318.15	0.6976	0.0366	0.0012
318.15	0.7974	0.0395	0.0013
318.15	0.903	0.0441	0.0015
318.15	1	0.0545	0.0018

System: 1-butylpyridinium dicyanamide + propan-2-ol; phases: Liquid
Fixed: Pressure, kPa = 100
Property: Mass density, kg/m3 (Liquid); method: Vibrating tube method
Temperature, K	Mole fraction of 1-butylpyridinium dicyanamide	Mass density, kg/m3	uncertainty
288.15	0	789.41	1.98
288.15	0.1008	857.57	2.15
288.15	0.2007	906.69	2.27
288.15	0.3005	944.56	2.37
288.15	0.3999	974.5	2.45
288.15	0.5005	999.39	2.51
288.15	0.5998	1019.53	2.56
288.15	0.7004	1036.66	2.6
288.15	0.7972	1050.66	2.63
288.15	0.9032	1063.81	2.67
288.15	1	1074.97	2.7
293.15	0	785.29	1.97
293.15	0.1008	853.79	2.14
293.15	0.2007	903.11	2.26
293.15	0.3005	941.13	2.36
293.15	0.3999	971.16	2.44
293.15	0.5005	996.12	2.5
293.15	0.5998	1016.32	2.55
293.15	0.7004	1033.49	2.59
293.15	0.7972	1047.51	2.63
293.15	0.9032	1060.69	2.66
293.15	1	1071.9	2.69
298.15	0	781.08	1.96
298.15	0.1008	849.98	2.13
298.15	0.2007	899.51	2.26
298.15	0.3005	937.68	2.35
298.15	0.3999	967.82	2.43
298.15	0.5005	992.86	2.49
298.15	0.5998	1013.12	2.54
298.15	0.7004	1030.32	2.58
298.15	0.7972	1044.37	2.62
298.15	0.9032	1057.57	2.65
298.15	1	1068.83	2.68
303.15	0	776.81	1.95
303.15	0.1008	846.14	2.12
303.15	0.2007	895.9	2.25
303.15	0.3005	934.24	2.34
303.15	0.3999	964.49	2.42
303.15	0.5005	989.61	2.48
303.15	0.5998	1009.92	2.53
303.15	0.7004	1027.16	2.57
303.15	0.7972	1041.24	2.61
303.15	0.9032	1054.46	2.65
303.15	1	1065.76	2.68
308.15	0	772.46	1.93
308.15	0.1008	842.28	2.11
308.15	0.2007	892.3	2.24
308.15	0.3005	930.8	2.34
308.15	0.3999	961.18	2.41
308.15	0.5005	986.37	2.48
308.15	0.5998	1006.74	2.52
308.15	0.7004	1024.02	2.57
308.15	0.7972	1038.13	2.6
308.15	0.9032	1051.37	2.64
308.15	1	1062.7	2.67
313.15	0	768.02	1.92
313.15	0.1008	838.39	2.1
313.15	0.2007	888.69	2.23
313.15	0.3005	927.36	2.33
313.15	0.3999	957.86	2.4
313.15	0.5005	983.14	2.47
313.15	0.5998	1003.56	2.52
313.15	0.7004	1020.89	2.56
313.15	0.7972	1035.03	2.59
313.15	0.9032	1048.3	2.63
313.15	1	1059.66	2.66
318.15	0	763.48	1.91
318.15	0.1008	834.48	2.09
318.15	0.2007	885.06	2.22
318.15	0.3005	923.93	2.32
318.15	0.3999	954.55	2.4
318.15	0.5005	979.93	2.46
318.15	0.5998	1000.4	2.51
318.15	0.7004	1017.77	2.55
318.15	0.7972	1031.94	2.59
318.15	0.9032	1045.24	2.62
318.15	1	1056.64	2.65

System: 1-butylpyridinium dicyanamide + propan-2-ol; phases: Liquid, Air at 1 atmosphere
Property: Surface tension liquid-gas, N/m (Liquid); method: Maximal bubble pressure
Temperature, K	Mole fraction of 1-butylpyridinium dicyanamide	Surface tension liquid-gas, N/m	uncertainty
288.15	0	0.0222	0.0008
288.15	0.1008	0.0233	0.0008
288.15	0.2007	0.0257	0.0009
288.15	0.3005	0.0269	0.0009
288.15	0.3999	0.0285	0.001
288.15	0.5005	0.0305	0.001
288.15	0.5998	0.0332	0.0011
288.15	0.7004	0.0359	0.0012
288.15	0.7972	0.0399	0.0014
288.15	0.9032	0.0455	0.0015
288.15	1	0.0563	0.0019
293.15	0	0.0217	0.0007
293.15	0.1008	0.0228	0.0008
293.15	0.2007	0.0252	0.0009
293.15	0.3005	0.0267	0.0009
293.15	0.3999	0.028	0.0009
293.15	0.5005	0.0302	0.001
293.15	0.5998	0.0329	0.0011
293.15	0.7004	0.0357	0.0012
293.15	0.7972	0.0396	0.0013
293.15	0.9032	0.0452	0.0015
293.15	1	0.056	0.0019
298.15	0	0.0212	0.0007
298.15	0.1008	0.0223	0.0008
298.15	0.2007	0.0248	0.0008
298.15	0.3005	0.0262	0.0009
298.15	0.3999	0.0278	0.0009
298.15	0.5005	0.0299	0.001
298.15	0.5998	0.0325	0.0011
298.15	0.7004	0.0353	0.0012
298.15	0.7972	0.0393	0.0013
298.15	0.9032	0.0449	0.0015
298.15	1	0.0557	0.0019
303.15	0	0.0208	0.0007
303.15	0.1008	0.022	0.0007
303.15	0.2007	0.0245	0.0008
303.15	0.3005	0.0259	0.0009
303.15	0.3999	0.0275	0.0009
303.15	0.5005	0.0296	0.001
303.15	0.5998	0.0323	0.0011
303.15	0.7004	0.0351	0.0012
303.15	0.7972	0.0391	0.0013
303.15	0.9032	0.0447	0.0015
303.15	1	0.0555	0.0019
308.15	0	0.0203	0.0007
308.15	0.1008	0.0216	0.0007
308.15	0.2007	0.0241	0.0008
308.15	0.3005	0.0255	0.0009
308.15	0.3999	0.0271	0.0009
308.15	0.5005	0.0293	0.001
308.15	0.5998	0.032	0.0011
308.15	0.7004	0.0348	0.0012
308.15	0.7972	0.0388	0.0013
308.15	0.9032	0.0444	0.0015
308.15	1	0.0552	0.0019
313.15	0	0.0199	0.0007
313.15	0.1008	0.0213	0.0007
313.15	0.2007	0.0238	0.0008
313.15	0.3005	0.0252	0.0009
313.15	0.3999	0.0268	0.0009
313.15	0.5005	0.029	0.001
313.15	0.5998	0.0317	0.0011
313.15	0.7004	0.0345	0.0012
313.15	0.7972	0.0385	0.0013
313.15	0.9032	0.0441	0.0015
313.15	1	0.0549	0.0019
318.15	0	0.0194	0.0007
318.15	0.1008	0.0208	0.0007
318.15	0.2007	0.0234	0.0008
318.15	0.3005	0.0249	0.0008
318.15	0.3999	0.0265	0.0009
318.15	0.5005	0.0286	0.001
318.15	0.5998	0.0314	0.0011
318.15	0.7004	0.0342	0.0012
318.15	0.7972	0.0382	0.0013
318.15	0.9032	0.0438	0.0015
318.15	1	0.0545	0.0018
