Measured thermophysical data. The measurements of coexistence curves and light scattering for {xC6H5CN + (1 - x)CH3(CH2)16CH3} in the critical region
Source: J. Chem. Thermodyn., 2006, 10.1016/j.jct.2005.05.012
Compound 1: benzonitrile, C7H5N, InChI=1S/C7H5N/c8-6-7-4-2-1-3-5-7/h1-5H, purity 99%
Compound 2: octadecane, C18H38, InChI=1S/C18H38/c1-3-5-7-9-11-13-15-17-18-16-14-12-10-8-6-4-2/h3-18H2,1-2H3, purity 99%

System: benzonitrile; phases: Liquid
Fixed: Pressure, kPa = 101
Fixed: Wavelength, nm = 632.8
Property: Refractive index (other wavelength) (Liquid); method: Newport model 1825-C
Temperature, K	Refractive index (other wavelength)	uncertainty
301.396	1.521	0.0002
302.96	1.5202	0.0002
304.802	1.5194	0.0002
306.415	1.5186	0.0002
307.828	1.5179	0.0002
309.649	1.517	0.0002

System: octadecane; phases: Liquid
Fixed: Pressure, kPa = 101
Fixed: Wavelength, nm = 632.8
Property: Refractive index (other wavelength) (Liquid); method: Newport model 1825-C
Temperature, K	Refractive index (other wavelength)	uncertainty
301.971	1.4339	0.0002
303.42	1.4333	0.0002
304.679	1.4328	0.0002
306.378	1.4321	0.0002
307.841	1.4315	0.0002
309.276	1.4307	0.0002

System: benzonitrile + octadecane; phases: Liquid mixture 1, Liquid mixture 2
Fixed: Pressure, kPa = 101
Fixed: Wavelength, nm = 632.8
Property: Refractive index (other wavelength) (Liquid mixture 1); method: Newport model 1825-C
Temperature, K	Refractive index (other wavelength)	uncertainty
301.382	1.4499	0.0002
304.272	1.4514	0.0002
305.849	1.4527	0.0002
307.002	1.454	0.0002
307.889	1.4554	0.0002
308.473	1.4567	0.0002
308.874	1.4581	0.0002
309.169	1.4595	0.0002
309.335	1.4606	0.0003
309.467	1.462	0.0003
309.531	1.463	0.0004
309.565	1.4639	0.0008
309.58	1.4645	0.0006
309.595	1.4655	0.0011
309.597	1.466	0.0013

System: benzonitrile + octadecane; phases: Liquid mixture 2, Liquid mixture 1
Fixed: Pressure, kPa = 101
Fixed: Wavelength, nm = 632.8
Property: Refractive index (other wavelength) (Liquid mixture 2); method: Newport model 1825-C
Temperature, K	Refractive index (other wavelength)	uncertainty
301.382	1.4944	0.0002
304.272	1.4899	0.0002
305.849	1.4869	0.0002
307.002	1.4843	0.0002
307.889	1.4818	0.0002
308.473	1.4799	0.0002
308.874	1.4779	0.0002
309.169	1.4761	0.0002
309.335	1.4748	0.0003
309.467	1.4733	0.0003
309.531	1.4722	0.0005
309.565	1.4712	0.0008
309.58	1.4707	0.0006
309.595	1.4697	0.001
309.597	1.4691	0.0013

System: benzonitrile + octadecane; phases: Liquid
Fixed: Temperature, K = 305.5
Fixed: Pressure, kPa = 101
Fixed: Wavelength, nm = 632.8
Property: Refractive index (other wavelength) (Liquid); method: Newport model 1825-C
Mole fraction of benzonitrile	Refractive index (other wavelength)	uncertainty
0.0996	1.4316	0.0002
0.1986	1.4362	0.0002
0.2992	1.4398	0.0002
0.4025	1.4447	0.0002
0.4955	1.4499	0.0002
0.5947	1.4567	0.0002
0.7985	1.4777	0.0002
0.8876	1.4917	0.0002

System: benzonitrile + octadecane; phases: Liquid mixture 1, Liquid mixture 2
Fixed: Pressure, kPa = 101
Property: Liquid-liquid equilibrium temperature, K (Liquid mixture 1); method: transmitted light intensity
Mole fraction of benzonitrile	Liquid-liquid equilibrium temperature, K	uncertainty
0.428	301.382	0.02
0.476	304.272	0.02
0.508	305.849	0.02
0.535	307.002	0.02
0.562	307.889	0.02
0.582	308.473	0.02
0.603	308.874	0.02
0.622	309.169	0.02
0.636	309.335	0.02
0.652	309.467	0.02
0.664	309.531	0.02
0.674	309.565	0.02
0.68	309.58	0.02
0.69	309.595	0.02
0.696	309.597	0.02

System: benzonitrile + octadecane; phases: Liquid mixture 2, Liquid mixture 1
Fixed: Pressure, kPa = 101
Property: Liquid-liquid equilibrium temperature, K (Liquid mixture 2); method: transmitted light intensity
Mole fraction of benzonitrile	Liquid-liquid equilibrium temperature, K	uncertainty
0.725	309.597	0.02
0.73	309.595	0.02
0.739	309.58	0.02
0.744	309.565	0.02
0.752	309.531	0.02
0.761	309.467	0.02
0.773	309.335	0.02
0.783	309.169	0.02
0.795	308.874	0.02
0.808	308.473	0.02
0.819	307.889	0.02
0.833	307.002	0.02
0.847	305.849	0.02
0.861	304.272	0.02
0.879	301.382	0.02
