Measured thermophysical data. Low-temperature heat capacity and standard molar enthalpy of formation of crystalline 2-pyridinealdoxime (C6H6N2O)
Source: J. Chem. Thermodyn., 2007, 10.1016/j.jct.2006.09.016
Compound 1: carbon dioxide, CO2, InChI=1S/CO2/c2-1-3
Compound 2: nitrogen, N2, InChI=1S/N2/c1-2
Compound 3: water, H2O, InChI=1S/H2O/h1H2
Compound 4: oxygen, O2, InChI=1S/O2/c1-2
Compound 5: 2-pyridinealdoxime, C6H6N2O, InChI=1S/C6H6N2O/c9-8-5-6-3-1-2-4-7-6/h1-5,9H, purity 98%

System: 2-pyridinealdoxime; phases: Crystal, Liquid, Air at 1 atmosphere
Property: Molar enthalpy of transition or fusion, kJ/mol (Crystal); method: DSC
Molar enthalpy of transition or fusion, kJ/mol	uncertainty
19.98	0.6

System: 2-pyridinealdoxime; phases: Crystal, Liquid, Air at 1 atmosphere
Property: Normal melting temperature, K (Crystal); method: DTA
Normal melting temperature, K	uncertainty
386.23	0.5

System: 2-pyridinealdoxime; phases: Crystal
Fixed: Pressure, kPa = 101.325
Property: Molar heat capacity at constant pressure, J/K/mol (Crystal); method: VADIAC:UFactor:4
Temperature, K	Molar heat capacity at constant pressure, J/K/mol	uncertainty
80.459	51.676	0.574
84.395	53.782	0.59
87.269	55.385	0.603
90.224	57.071	1.028
93.263	58.782	1.035
96.219	60.423	1.042
99.102	61.803	1.047
102.071	63.155	1.053
105.127	64.653	1.059
108.12	65.953	1.064
111.052	67.399	1.07
113.933	68.687	1.075
116.902	69.935	1.08
119.961	71.329	1.085
122.969	72.927	1.092
125.935	74.138	1.097
128.855	75.406	1.102
131.738	76.558	1.106
134.71	77.885	1.112
137.773	79.053	1.116
140.797	80.49	1.122
143.787	81.654	1.127
146.741	82.724	1.131
149.664	83.99	1.136
152.558	85.274	1.141
155.54	86.711	1.147
158.614	87.834	1.151
161.656	88.91	1.156
164.672	90.296	1.161
167.664	91.696	1.167
170.634	92.907	1.172
173.579	93.875	1.176
176.498	95.229	1.181
179.396	96.674	1.187
182.381	97.915	1.192
185.453	99.23	1.197
188.5	100.673	1.203
191.524	101.974	1.208
194.525	103.155	1.213
197.504	104.64	1.219
200.466	106.057	1.224
203.408	107	1.228
206.328	108.59	1.234
209.234	109.824	1.239
212.222	111.347	1.245
215.294	112.899	1.252
218.346	113.966	1.256
221.376	115.374	1.262
224.384	117.315	1.269
227.368	118.697	1.275
230.298	120.004	1.28
233.323	121.772	1.287
236.347	123.515	1.294
239.262	124.251	1.297
242.248	125.83	1.303
245.318	127.093	1.308
248.389	128.401	1.314
251.438	129.847	1.319
254.474	130.364	1.321
257.497	131.522	1.326
260.5	132.739	1.331
263.487	134.492	1.338
266.458	136.14	1.345
269.411	137.724	1.351
272.346	139.497	1.358
275.265	140.579	1.362
278.165	142.551	1.37
281.055	143.696	1.375
284.009	145.454	1.382
287.035	147.062	1.388
290.037	148.677	1.395
293.009	149.589	1.398
295.976	150.985	1.404
298.931	152.097	1.408
301.865	153.857	1.415
304.784	154.721	1.419
307.687	155.908	1.424
310.57	157.909	1.432
313.438	159.333	1.437
316.285	160.277	1.441
319.112	161.83	1.447
321.922	163.285	1.453
324.797	164.636	1.459
327.74	165.878	1.464
330.664	167.182	1.469
333.568	168.109	1.472
336.45	169.621	1.479
339.314	171.009	1.484
342.158	172.573	1.49
344.982	173.513	1.494
347.783	174.141	1.497
350.554	175.824	1.503
353.292	176.471	1.506
355.961	177.079	1.508
358.396	178.592	1.514
360.605	179.152	1.517
363.305	180.384	1.522
365.844	181.564	1.526
367.878	182.966	1.532
370.494	183.669	1.535
372.973	184.416	1.538

Reaction: -1 2-pyridinealdoxime + 6 carbon dioxide + 1 nitrogen + 3 water + -7 oxygen
Property: Molar internal energy of reaction at constant volume, kJ/mol
-3297.11
