Measured thermophysical data. Excess volumes of mixing in (N,N-dimethylacetamide + methanol + water) and (N,N-dimethylacetamide + ethanol + water) at the temperature 313.15 K
Source: J. Chem. Thermodyn., 2008, 10.1016/j.jct.2007.09.009
Compound 1: N,N-dimethylethanamide, C4H9NO, InChI=1S/C4H9NO/c1-4(6)5(2)3/h1-3H3, purity 99%
Compound 2: methanol, CH4O, InChI=1S/CH4O/c1-2/h2H,1H3
Compound 3: ethanol, C2H6O, InChI=1S/C2H6O/c1-2-3/h3H,2H2,1H3
Compound 4: water, H2O, InChI=1S/H2O/h1H2

System: N,N-dimethylethanamide; phases: Liquid
Property: Refractive index (Na D-line) (Liquid); method: Standard Abbe refractometry
Temperature, K	Pressure, kPa	Refractive index (Na D-line)	uncertainty
298.15	101.325	1.43556	0.0007

System: N,N-dimethylethanamide; phases: Liquid
Property: Mass density, kg/m3 (Liquid); method: Pycnometric method
Temperature, K	Pressure, kPa	Mass density, kg/m3	uncertainty
298.15	101.325	922.4	0.9

System: methanol; phases: Liquid
Property: Refractive index (Na D-line) (Liquid); method: Standard Abbe refractometry
Temperature, K	Pressure, kPa	Refractive index (Na D-line)	uncertainty
298.15	101.325	1.32645	0.00121

System: methanol; phases: Liquid
Property: Mass density, kg/m3 (Liquid); method: Pycnometric method
Temperature, K	Pressure, kPa	Mass density, kg/m3	uncertainty
298.15	101.325	772.2	3.4

System: ethanol; phases: Liquid
Property: Refractive index (Na D-line) (Liquid); method: Standard Abbe refractometry
Temperature, K	Pressure, kPa	Refractive index (Na D-line)	uncertainty
298.15	101.325	1.3592	0.00121

System: ethanol; phases: Liquid
Property: Mass density, kg/m3 (Liquid); method: Pycnometric method
Temperature, K	Pressure, kPa	Mass density, kg/m3	uncertainty
298.15	101.325	772.2	3.4

System: N,N-dimethylethanamide + water; phases: Liquid
Fixed: Temperature, K = 313.15
Fixed: Pressure, kPa = 101
Property: Excess molar volume, m3/mol (Liquid); method: Direct dilatometry
Mole fraction of N,N-dimethylethanamide	Excess molar volume, m3/mol	uncertainty
0.0092	-3.79e-08	3.2e-09
0.0196	-8.59e-08	3.2e-09
0.03	-1.402e-07	3.3e-09
0.0556	-2.881e-07	3.5e-09
0.0704	-3.778e-07	3.6e-09
0.0823	-4.496e-07	3.7e-09
0.0853	-4.67e-07	3.6e-09
0.091	-4.98e-07	3.7e-09
0.0968	-5.344e-07	3.8e-09
0.0981	-5.428e-07	3.8e-09
0.1063	-5.918e-07	3.8e-09
0.1088	-6.146e-07	3.8e-09
0.1167	-6.527e-07	3.8e-09
0.1258	-7.063e-07	3.9e-09
0.1364	-7.653e-07	3.9e-09
0.1478	-8.283e-07	4e-09
0.1603	-8.946e-07	4e-09
0.1651	-9.21e-07	4e-09
0.1728	-9.553e-07	4.1e-09
0.1728	-9.577e-07	4.1e-09
0.1851	-1.0167e-06	4.1e-09
0.1902	-1.0387e-06	4.1e-09
0.2039	-1.0981e-06	4.2e-09
0.2221	-1.1717e-06	4.2e-09
0.2379	-1.2291e-06	4.3e-09
0.2514	-1.273e-06	4.3e-09
0.2642	-1.3148e-06	4.3e-09
0.2665	-1.3177e-06	4.3e-09
0.2718	-1.3339e-06	4.4e-09
0.2773	-1.3485e-06	4.4e-09
0.2787	-1.3504e-06	4.4e-09
0.2883	-1.3743e-06	4.4e-09
0.2987	-1.3967e-06	4.4e-09
0.31	-1.4183e-06	4.4e-09
0.3216	-1.4398e-06	4.5e-09
0.3377	-1.463e-06	4.5e-09
0.352	-1.4793e-06	4.5e-09
0.3679	-1.4928e-06	4.5e-09
0.3759	-1.5009e-06	4.5e-09
0.3782	-1.4994e-06	4.5e-09
0.3812	-1.5022e-06	4.5e-09
0.3884	-1.5058e-06	4.5e-09
0.3918	-1.5054e-06	4.5e-09
0.3948	-1.5081e-06	4.5e-09
0.4047	-1.5111e-06	4.5e-09
0.4141	-1.5114e-06	4.5e-09
0.4248	-1.5111e-06	4.5e-09
0.4402	-1.5067e-06	4.5e-09
0.4583	-1.4973e-06	4.5e-09
0.47	-1.489e-06	4.5e-09
0.4759	-1.487e-06	4.5e-09
0.4881	-1.4731e-06	4.5e-09
0.4976	-1.4642e-06	4.5e-09
0.5257	-1.4298e-06	4.4e-09
0.5546	-1.38e-06	4.4e-09
0.5961	-1.2953e-06	4.3e-09
0.6483	-1.1728e-06	4.2e-09
0.6819	-1.0816e-06	4.1e-09
0.7273	-9.449e-07	4e-09
0.732	-9.375e-07	4e-09
0.755	-8.613e-07	3.9e-09
0.7743	-8.015e-07	3.9e-09
0.7939	-7.378e-07	3.8e-09
0.8089	-6.896e-07	3.7e-09
0.8158	-6.653e-07	3.7e-09
0.8331	-6.07e-07	3.7e-09
0.8622	-5.075e-07	3.6e-09
0.8823	-4.342e-07	3.6e-09
0.884	-4.256e-07	3.6e-09
0.9064	-3.494e-07	3.4e-09
0.9258	-2.754e-07	3.3e-09
0.9539	-1.863e-07	3.7e-09
0.9568	-1.596e-07	3.7e-09
0.9716	-1.062e-07	3.2e-09

System: methanol + N,N-dimethylethanamide; phases: Liquid
Fixed: Temperature, K = 313.15
Fixed: Pressure, kPa = 101
Property: Excess molar volume, m3/mol (Liquid); method: Direct dilatometry
Mole fraction of N,N-dimethylethanamide	Excess molar volume, m3/mol	uncertainty
0.0166	-5.83e-08	3.1e-09
0.0295	-9.34e-08	3.1e-09
0.0344	-1.106e-07	3.2e-09
0.0508	-1.501e-07	3.2e-09
0.0623	-1.832e-07	3.2e-09
0.0717	-2.034e-07	3.2e-09
0.0953	-2.561e-07	3.3e-09
0.0979	-2.653e-07	3.3e-09
0.1263	-3.178e-07	3.3e-09
0.1366	-3.395e-07	3.4e-09
0.169	-3.878e-07	3.4e-09
0.1692	-3.91e-07	3.4e-09
0.1997	-4.315e-07	3.4e-09
0.2025	-4.324e-07	3.4e-09
0.228	-4.611e-07	3.5e-09
0.2317	-4.661e-07	3.5e-09
0.2533	-4.845e-07	3.5e-09
0.2599	-4.913e-07	3.5e-09
0.2804	-5.069e-07	3.5e-09
0.2837	-5.077e-07	3.5e-09
0.3079	-5.225e-07	3.6e-09
0.308	-5.222e-07	3.6e-09
0.3093	-5.264e-07	3.6e-09
0.3243	-5.305e-07	3.5e-09
0.3406	-5.399e-07	3.5e-09
0.3748	-5.488e-07	3.5e-09
0.4031	-5.518e-07	3.6e-09
0.4372	-5.508e-07	3.6e-09
0.4807	-5.416e-07	3.5e-09
0.5265	-5.238e-07	3.5e-09
0.5817	-4.921e-07	3.5e-09
0.5988	-4.766e-07	3.5e-09
0.6131	-4.66e-07	3.5e-09
0.6318	-4.516e-07	3.5e-09
0.6362	-4.516e-07	3.5e-09
0.6489	-4.37e-07	3.4e-09
0.6633	-4.244e-07	3.4e-09
0.6702	-4.188e-07	3.4e-09
0.6938	-3.98e-07	3.4e-09
0.6957	-3.938e-07	3.4e-09
0.6975	-3.923e-07	3.4e-09
0.7225	-3.669e-07	3.4e-09
0.7286	-3.606e-07	3.4e-09
0.7471	-3.413e-07	3.3e-09
0.752	-3.354e-07	3.3e-09
0.7584	-3.295e-07	3.3e-09
0.7813	-3.022e-07	3.3e-09
0.7951	-2.867e-07	3.3e-09
0.8055	-2.731e-07	3.3e-09
0.8278	-2.456e-07	3.2e-09
0.83	-2.444e-07	3.2e-09
0.8417	-2.295e-07	3.2e-09
0.8584	-2.065e-07	3.2e-09
0.8746	-1.858e-07	3.2e-09
0.8862	-1.705e-07	3.2e-09
0.9051	-1.481e-07	3.2e-09
0.9081	-1.406e-07	3.2e-09
0.9134	-1.337e-07	3.1e-09
0.9384	-9.87e-08	3.1e-09
0.943	-9.15e-08	3.1e-09
0.9698	-5.42e-08	3.1e-09
0.9711	-5.33e-08	3.1e-09

System: ethanol + N,N-dimethylethanamide; phases: Liquid
Fixed: Temperature, K = 313.15
Fixed: Pressure, kPa = 101
Property: Excess molar volume, m3/mol (Liquid); method: Direct dilatometry
Mole fraction of N,N-dimethylethanamide	Excess molar volume, m3/mol	uncertainty
0.0259	-3.74e-08	3e-09
0.0456	-6.13e-08	3.1e-09
0.0769	-9.86e-08	3.1e-09
0.103	-1.237e-07	3.1e-09
0.1481	-1.61e-07	3.2e-09
0.1765	-1.787e-07	3.2e-09
0.2149	-1.991e-07	3.2e-09
0.2587	-2.157e-07	3.2e-09
0.2846	-2.228e-07	3.2e-09
0.3094	-2.282e-07	3.2e-09
0.3288	-2.315e-07	3.2e-09
0.3513	-2.338e-07	3.2e-09
0.3784	-2.352e-07	3.2e-09
0.3866	-2.374e-07	3.2e-09
0.4014	-2.353e-07	3.2e-09
0.4131	-2.373e-07	3.2e-09
0.4396	-2.356e-07	3.2e-09
0.4661	-2.327e-07	3.2e-09
0.4937	-2.292e-07	3.2e-09
0.5249	-2.227e-07	3.2e-09
0.5532	-2.161e-07	3.2e-09
0.5913	-2.059e-07	3.2e-09
0.6379	-1.906e-07	3.2e-09
0.6743	-1.761e-07	3.2e-09
0.7191	-1.593e-07	3.2e-09
0.7691	-1.359e-07	3.1e-09
0.8211	-1.109e-07	3.1e-09
0.8768	-7.86e-08	3.1e-09
0.9287	-4.6e-08	3e-09
0.962	-2.56e-08	3e-09

System: methanol + N,N-dimethylethanamide + water; phases: Liquid
Fixed: Temperature, K = 313.15
Fixed: Pressure, kPa = 101
Property: Excess molar volume, m3/mol (Liquid); method: Direct dilatometry
Mole fraction of N,N-dimethylethanamide	Mole fraction of methanol	Excess molar volume, m3/mol	uncertainty
0.0577	0.6029	-1.0045e-06	7.2e-09
0.0619	0.6476	-9.349e-07	7.7e-09
0.0668	0.6983	-8.387e-07	8.7e-09
0.0723	0.7563	-7.095e-07	1.01e-08
0.0791	0.8275	-5.22e-07	1.06e-08
0.0936	0.3933	-1.1384e-06	4.2e-09
0.0977	0.3665	-1.1403e-06	4.2e-09
0.1015	0.3419	-1.1387e-06	4.4e-09
0.1052	0.3179	-1.1353e-06	4.5e-09
0.1091	0.293	-1.1282e-06	4.9e-09
0.1135	0.2644	-1.1158e-06	5.2e-09
0.1175	0.2387	-1.1016e-06	5.6e-09
0.1218	0.2108	-1.0834e-06	6e-09
0.1274	0.1743	-1.0527e-06	6.6e-09
0.1325	0.1411	-1.0194e-06	7.3e-09
0.1372	0.1107	-9.846e-07	8e-09
0.1426	0.0758	-9.383e-07	8.4e-09
0.1471	0.0464	-8.957e-07	9e-09
0.1513	0.0193	-8.545e-07	9.2e-09
0.1619	0.4734	-1.1732e-06	6.3e-09
0.1729	0.4375	-1.2115e-06	5.9e-09
0.1822	0.4072	-1.2402e-06	4.3e-09
0.1917	0.3764	-1.266e-06	4.9e-09
0.1996	0.5316	-1.0766e-06	8.4e-09
0.2036	0.3375	-1.2953e-06	8.4e-09
0.2142	0.3031	-1.3189e-06	6.8e-09
0.2142	0.4973	-1.1211e-06	8.4e-09
0.2258	0.2654	-1.3397e-06	5.1e-09
0.2309	0.458	-1.1688e-06	1.25e-08
0.2358	0.2329	-1.3554e-06	4.7e-09
0.2441	0.5924	-8.989e-07	8.4e-09
0.2445	0.4263	-1.2044e-06	5.2e-09
0.2479	0.1936	-1.3724e-06	9.8e-09
0.2603	0.5654	-9.327e-07	1.04e-08
0.2605	0.3885	-1.244e-06	4.7e-09
0.2647	0.1389	-1.3904e-06	8.1e-09
0.2648	0.6464	-7.287e-07	1.17e-08
0.2752	0.5405	-9.623e-07	8.6e-09
0.2761	0.102	-1.4001e-06	1.22e-08
0.2804	0.6255	-7.509e-07	1.04e-08
0.281	0.3405	-1.2903e-06	7.4e-09
0.2844	0.6805	-6.019e-07	1.11e-08
0.2895	0.0584	-1.409e-06	8.4e-09
0.292	0.2498	-1.372e-06	4.5e-09
0.2965	0.3041	-1.3218e-06	7.4e-09
0.2966	0.5047	-1.0023e-06	9.3e-09
0.2974	0.6028	-7.735e-07	1.03e-08
0.299	0.664	-6.149e-07	1.08e-08
0.2993	0.0264	-1.4132e-06	9.2e-09
0.3116	0.2667	-1.3504e-06	1.73e-08
0.3151	0.4738	-1.0342e-06	8.6e-09
0.3154	0.2599	-1.3562e-06	4.4e-09
0.3219	0.5701	-8.018e-07	1.01e-08
0.3273	0.6323	-6.362e-07	1.06e-08
0.3406	0.2005	-1.4001e-06	5.6e-09
0.3408	0.2916	-1.3006e-06	7e-09
0.346	0.5379	-8.263e-07	9.9e-09
0.348	0.1404	-1.4422e-06	4.8e-09
0.3486	0.418	-1.0859e-06	8.6e-09
0.3562	0.5999	-6.54e-07	1.04e-08
0.3589	0.1577	-1.4275e-06	6.9e-09
0.3617	0.1594	-1.4223e-06	6.3e-09
0.3667	0.5102	-8.45e-07	9.8e-09
0.3713	0.1498	-1.4232e-06	5.7e-09
0.3735	0.3196	-1.2157e-06	6.7e-09
0.3762	0.3719	-1.1237e-06	9.9e-09
0.3832	0.1008	-1.462e-06	4.5e-09
0.3857	0.5667	-6.665e-07	1.03e-08
0.396	0.4712	-8.684e-07	9.8e-09
0.4036	0.0528	-1.4879e-06	4.5e-09
0.4061	0.3475	-1.1097e-06	1.15e-08
0.4076	0.0723	-1.4729e-06	5.6e-09
0.4091	0.1651	-1.3785e-06	6.7e-09
0.414	0.3088	-1.1683e-06	7.7e-09
0.4184	0.5299	-6.762e-07	1e-08
0.424	0.1868	-1.3293e-06	6.6e-09
0.4265	0.4305	-8.877e-07	9.9e-09
0.4449	0.1795	-1.3111e-06	7e-09
0.4461	0.2551	-1.1996e-06	8.2e-09
0.4476	0.383	-9.45e-07	9.4e-09
0.4595	0.0815	-1.4161e-06	6.3e-09
0.4631	0.4797	-6.809e-07	1e-08
0.4728	0.3686	-9.089e-07	8.8e-09
0.4834	0.1929	-1.2319e-06	9.4e-09
0.4854	0.2139	-1.1818e-06	9e-09
0.4878	0.1968	-1.2098e-06	4.3e-09
0.4889	0.4183	-7.716e-07	1.33e-08
0.4987	0.4397	-6.789e-07	1.33e-08
0.5214	0.3037	-9.217e-07	9.1e-09
0.5264	0.1211	-1.2623e-06	5.8e-09
0.5367	0.397	-6.71e-07	9.7e-09
0.542	0.0961	-1.2593e-06	7.8e-09
0.5596	0.0655	-1.2807e-06	8.7e-09
0.5644	0.2487	-9.383e-07	1.1e-08
0.5748	0.2324	-9.251e-07	6.2e-09
0.609	0.3158	-6.419e-07	9.6e-09
0.633	0.1547	-9.178e-07	8.8e-09
0.6411	0.2587	-6.858e-07	9e-09
0.6424	0.1139	-9.658e-07	8.2e-09
0.671	0.2462	-6.046e-07	8.7e-09
0.6912	0.077	-9.064e-07	8.8e-09
0.7419	0.1665	-5.499e-07	9.5e-09
0.7691	0.1364	-5.391e-07	9.9e-09
0.8357	0.0611	-4.662e-07	8.4e-09

System: ethanol + N,N-dimethylethanamide + water; phases: Liquid
Fixed: Temperature, K = 313.15
Fixed: Pressure, kPa = 101
Property: Excess molar volume, m3/mol (Liquid); method: Direct dilatometry
Mole fraction of N,N-dimethylethanamide	Mole fraction of ethanol	Excess molar volume, m3/mol	uncertainty
0.0616	0.5038	-1.0706e-06	5.6e-09
0.0657	0.5371	-1.0386e-06	6e-09
0.0706	0.5772	-9.877e-07	6.6e-09
0.0743	0.6075	-9.417e-07	7.6e-09
0.0797	0.6515	-8.582e-07	8.7e-09
0.0858	0.7016	-7.467e-07	1e-08
0.0927	0.7574	-5.933e-07	1.18e-08
0.1008	0.4575	-1.127e-06	4.8e-09
0.1027	0.8398	-3.298e-07	1.21e-08
0.1047	0.338	-1.1932e-06	4.6e-09
0.1072	0.4863	-1.095e-06	5.3e-09
0.1101	0.3033	-1.2019e-06	4.2e-09
0.1128	0.5116	-1.0676e-06	8.7e-09
0.1151	0.2722	-1.204e-06	4.3e-09
0.1194	0.5418	-1.0195e-06	9.5e-09
0.12	0.2411	-1.2006e-06	4.6e-09
0.1233	0.2199	-1.1946e-06	4.6e-09
0.1268	0.198	-1.1857e-06	5.2e-09
0.1275	0.5786	-9.525e-07	1.04e-08
0.1301	0.1771	-1.1743e-06	5.2e-09
0.1346	0.1489	-1.1523e-06	6.6e-09
0.1376	0.6241	-8.458e-07	1.11e-08
0.1383	0.1255	-1.1286e-06	7.3e-09
0.1426	0.0978	-1.0926e-06	8.4e-09
0.1466	0.0729	-1.0513e-06	1.02e-08
0.15	0.0515	-1.0091e-06	1.12e-08
0.1503	0.6821	-6.82e-07	1.15e-08
0.1525	0.0353	-9.744e-07	1.11e-08
0.1555	0.0166	-9.297e-07	1.24e-08
0.1644	0.7458	-4.79e-07	1.15e-08
0.1726	0.4646	-1.0469e-06	1.06e-08
0.1809	0.487	-1.0118e-06	7.6e-09
0.1866	0.3841	-1.2077e-06	8.3e-09
0.1916	0.5157	-9.579e-07	7.3e-09
0.1991	0.3426	-1.2483e-06	9.3e-09
0.2007	0.5403	-9.015e-07	8.5e-09
0.2071	0.5574	-8.568e-07	1.27e-08
0.209	0.31	-1.2778e-06	4.5e-09
0.219	0.277	-1.3042e-06	1.05e-08
0.2244	0.604	-7.199e-07	1.1e-08
0.2276	0.2486	-1.326e-06	1.07e-08
0.2349	0.4618	-1.0523e-06	1.11e-08
0.2362	0.2202	-1.3445e-06	1.27e-08
0.238	0.6404	-5.873e-07	1.2e-08
0.243	0.1976	-1.3576e-06	9.8e-09
0.2474	0.4331	-1.0889e-06	9.3e-09
0.2545	0.1597	-1.3774e-06	9.1e-09
0.2575	0.6929	-3.862e-07	1.22e-08
0.2597	0.405	-1.1231e-06	4.6e-09
0.2643	0.1276	-1.3909e-06	1.04e-08
0.2737	0.0965	-1.3993e-06	1.28e-08
0.2737	0.373	-1.1613e-06	9.5e-09
0.2826	0.3526	-1.1845e-06	4.5e-09
0.2885	0.0476	-1.4074e-06	1.45e-08
0.2913	0.5359	-7.672e-07	1.06e-08
0.296	0.3218	-1.2189e-06	9.2e-09
0.2975	0.0178	-1.4152e-06	1.68e-08
0.308	0.2943	-1.2477e-06	4.4e-09
0.3097	0.5067	-7.999e-07	9.6e-09
0.3219	0.2624	-1.2815e-06	4.3e-09
0.325	0.4822	-8.262e-07	9.5e-09
0.3323	0.5712	-5.457e-07	1.28e-08
0.3377	0.2263	-1.3184e-06	8.5e-09
0.3422	0.6088	-3.971e-07	1.35e-08
0.3432	0.4533	-8.561e-07	1.12e-08
0.3496	0.199	-1.3436e-06	6.3e-09
0.357	0.5394	-5.691e-07	1.22e-08
0.3616	0.5866	-4.068e-07	1.3e-08
0.3656	0.4175	-8.917e-07	1.08e-08
0.3663	0.1607	-1.3796e-06	8.1e-09
0.3809	0.1274	-1.4089e-06	4.4e-09
0.3819	0.5072	-5.906e-07	1.22e-08
0.3846	0.5604	-4.176e-07	1.29e-08
0.3898	0.379	-9.325e-07	1.07e-08
0.3963	0.0921	-1.4377e-06	1.57e-08
0.4049	0.4775	-6.096e-07	1.22e-08
0.4091	0.5324	-4.279e-07	1.28e-08
0.4093	0.348	-9.578e-07	1.13e-08
0.4116	0.0571	-1.4657e-06	1.82e-08
0.4249	0.0266	-1.4887e-06	1.1e-08
0.431	0.4438	-6.3e-07	1.19e-08
0.4325	0.311	-9.915e-07	1.06e-08
0.4361	0.5015	-4.376e-07	1.27e-08
0.4532	0.278	-1.0205e-06	1.05e-08
0.4587	0.4082	-6.503e-07	1.18e-08
0.4687	0.4642	-4.482e-07	1.27e-08
0.4813	0.2332	-1.0585e-06	1.04e-08
0.4902	0.3674	-6.712e-07	1.17e-08
0.4983	0.4304	-4.564e-07	1.25e-08
0.5064	0.1932	-1.0907e-06	1.04e-08
0.5172	0.3327	-6.883e-07	1.16e-08
0.5302	0.394	-4.652e-07	1.24e-08
0.5322	0.1521	-1.1228e-06	9.8e-09
0.5458	0.2957	-7.049e-07	1.15e-08
0.5587	0.1099	-1.1531e-06	9.7e-09
0.5621	0.3575	-4.688e-07	1.24e-08
0.5776	0.0798	-1.1752e-06	9.8e-09
0.5819	0.2491	-7.238e-07	1.15e-08
0.6064	0.0339	-1.2064e-06	9.9e-09
0.6102	0.2126	-7.37e-07	1.23e-08
0.6157	0.2961	-4.751e-07	1.22e-08
0.6613	0.1467	-7.604e-07	1.24e-08
0.6732	0.2304	-4.779e-07	1.22e-08
0.6962	0.1017	-7.741e-07	1.22e-08
0.7179	0.1794	-4.772e-07	1.21e-08
0.7269	0.0621	-7.853e-07	1.22e-08
0.758	0.0219	-7.943e-07	1.22e-08
0.7877	0.0996	-4.726e-07	1.2e-08
0.8309	0.0502	-4.673e-07	1.19e-08
