Measured thermophysical data. Thermal conductivity data for refrigerant mixtures containing R1234yf and R1234ze(E)
Source: J. Chem. Thermodyn., 2019, 10.1016/j.jct.2019.01.028
Compound 1: pentafluoroethane, C2HF5, InChI=1S/C2HF5/c3-1(4)2(5,6)7/h1H, purity 99.5%
Compound 2: 1,1,1,2-tetrafluoroethane, C2H2F4, InChI=1S/C2H2F4/c3-1-2(4,5)6/h1H2, purity 99.5%
Compound 3: 1,1,1-trifluoroethane, C2H3F3, InChI=1S/C2H3F3/c1-2(3,4)5/h1H3, purity 99.5%
Compound 4: 1,1-difluoroethane, C2H4F2, InChI=1S/C2H4F2/c1-2(3)4/h2H,1H3, purity 99.5%
Compound 5: 2,3,3,3-tetrafluoro-1-propene, C3H2F4, InChI=1S/C3H2F4/c1-2(4)3(5,6)7/h1H2, purity 99.5%
Compound 6: trans-1,3,3,3-tetrafluoropropene, C3H2F4, InChI=1S/C3H2F4/c4-2-1-3(5,6)7/h1-2H/b2-1+, purity 99.5%
Compound 7: argon, Ar, InChI=1S/Ar, purity 99.999%
Compound 8: water, H2O, InChI=1S/H2O/h1H2, purity 99.9%
Compound 9: toluene, C7H8, InChI=1S/C7H8/c1-7-5-3-2-4-6-7/h2-6H,1H3, purity 99.8%

System: argon; phases: Gas
Property: Thermal conductivity, W/m/K (Gas); method: THOTW
Temperature, K	Pressure, kPa	Thermal conductivity, W/m/K	uncertainty
312.12	31080	0.0342	0.00061
312.35	27380	0.0324	0.00058
312.18	27390	0.03235	0.00058
312.2	25850	0.03134	0.00056
312.12	24160	0.03024	0.00054
311.92	20370	0.02811	0.0005
312.59	17170	0.02649	0.00047
312.61	13790	0.02465	0.00043
312.73	10320	0.02285	0.0004

System: water; phases: Liquid
Fixed: Pressure, kPa = 100
Property: Thermal conductivity, W/m/K (Liquid); method: THOTW
Temperature, K	Thermal conductivity, W/m/K	uncertainty
292.8	0.60123	0.00629
295.01	0.60504	0.00633
303.13	0.61841	0.00647
303.93	0.61927	0.00648
305.47	0.62199	0.00651
314.01	0.62592	0.00655
314.95	0.6275	0.00656
336.26	0.64964	0.00679
334.75	0.64788	0.00677

System: toluene; phases: Liquid
Fixed: Pressure, kPa = 100
Property: Thermal conductivity, W/m/K (Liquid); method: THOTW
Temperature, K	Thermal conductivity, W/m/K	uncertainty
272.64	0.13719	0.00147
273.45	0.13655	0.00147
295.07	0.13071	0.00141
295.01	0.13082	0.00141
316.82	0.12529	0.00135
318.84	0.12433	0.00134
321.21	0.12371	0.00133
335.27	0.12	0.00129
337.36	0.1192	0.00129
347	0.11754	0.00127

System: pentafluoroethane + 1,1-difluoroethane; phases: Gas
Fixed: Mole fraction of pentafluoroethane = 0.5
Property: Thermal conductivity, W/m/K (Gas); method: THOTW
Pressure, kPa	Temperature, K	Thermal conductivity, W/m/K	uncertainty
1110	335.9	0.0178	0.00038
1220	353.92	0.01934	0.0004
1710	353.81	0.01953	0.0004
1920	374.25	0.0231	0.00047
2760	374.33	0.0237	0.00049
3110	393.94	0.02557	0.00052

System: pentafluoroethane + 1,1-difluoroethane; phases: Liquid
Fixed: Mole fraction of pentafluoroethane = 0.5
Property: Thermal conductivity, W/m/K (Liquid); method: THOTW
Pressure, kPa	Temperature, K	Thermal conductivity, W/m/K	uncertainty
1000	264.9	0.0845	0.0017
1000	284.7	0.0799	0.0016
2010	294.83	0.0774	0.0015
2140	273.97	0.0856	0.0018
3030	294.68	0.0789	0.0016
3080	314.1	0.0646	0.0013

System: pentafluoroethane + trans-1,3,3,3-tetrafluoropropene; phases: Gas
Fixed: Mole fraction of pentafluoroethane = 0.5
Property: Thermal conductivity, W/m/K (Gas); method: THOTW
Pressure, kPa	Temperature, K	Thermal conductivity, W/m/K	uncertainty
1120	333.94	0.01783	0.00038
1230	353.84	0.01927	0.0004
1810	353.67	0.01927	0.0004
2020	373.56	0.02145	0.00046
3040	373.67	0.02479	0.00052
3040	395.41	0.02441	0.00052

System: pentafluoroethane + trans-1,3,3,3-tetrafluoropropene; phases: Liquid
Fixed: Mole fraction of pentafluoroethane = 0.5
Property: Thermal conductivity, W/m/K (Liquid); method: THOTW
Pressure, kPa	Temperature, K	Thermal conductivity, W/m/K	uncertainty
1000	262.72	0.0781	0.0016
1080	285.7	0.0737	0.0015
1940	304.23	0.0636	0.0014
2060	285.77	0.0738	0.0015
3020	324.33	0.0618	0.0013
3080	304.8	0.0688	0.0015

System: 1,1,1-trifluoroethane + trans-1,3,3,3-tetrafluoropropene; phases: Gas
Fixed: Mole fraction of 1,1,1-trifluoroethane = 0.5
Property: Thermal conductivity, W/m/K (Gas); method: THOTW
Pressure, kPa	Temperature, K	Thermal conductivity, W/m/K	uncertainty
950	345.02	0.01913	0.0004
1040	364.82	0.02103	0.00044
1730	364.82	0.02117	0.00044
1920	384.54	0.02317	0.00047
2540	384.6	0.02357	0.00048
2960	404.05	0.02606	0.00053

System: 1,1,1-trifluoroethane + trans-1,3,3,3-tetrafluoropropene; phases: Liquid
Fixed: Mole fraction of 1,1,1-trifluoroethane = 0.5
Property: Thermal conductivity, W/m/K (Liquid); method: THOTW
Pressure, kPa	Temperature, K	Thermal conductivity, W/m/K	uncertainty
910	264.94	0.0772	0.0015
1020	286.02	0.0742	0.0015
2020	304.35	0.069	0.0014
2120	285.99	0.0752	0.0015
2890	324.01	0.0624	0.0012
3040	304.36	0.0685	0.0014

System: 1,1,1-trifluoroethane + 2,3,3,3-tetrafluoro-1-propene; phases: Gas
Fixed: Mole fraction of 1,1,1-trifluoroethane = 0.5
Property: Thermal conductivity, W/m/K (Gas); method: THOTW
Pressure, kPa	Temperature, K	Thermal conductivity, W/m/K	uncertainty
1080	334.34	0.01836	0.00039
1170	354.13	0.02059	0.00043
1730	354.52	0.02034	0.00042
1900	374.86	0.02277	0.00047
2750	373.86	0.02379	0.00049
3090	393.8	0.02622	0.00053

System: 1,1,1-trifluoroethane + 2,3,3,3-tetrafluoro-1-propene; phases: Liquid
Fixed: Mole fraction of 1,1,1-trifluoroethane = 0.5
Property: Thermal conductivity, W/m/K (Liquid); method: THOTW
Pressure, kPa	Temperature, K	Thermal conductivity, W/m/K	uncertainty
1060	285.09	0.0696	0.0014
1220	265.44	0.0777	0.0016
2030	307.25	0.0625	0.0013
2050	284.11	0.0715	0.0014
3040	324.39	0.0585	0.0012
3050	307.34	0.0644	0.0013

System: trans-1,3,3,3-tetrafluoropropene + 2,3,3,3-tetrafluoro-1-propene; phases: Gas
Fixed: Mole fraction of trans-1,3,3,3-tetrafluoropropene = 0.5
Property: Thermal conductivity, W/m/K (Gas); method: THOTW
Pressure, kPa	Temperature, K	Thermal conductivity, W/m/K	uncertainty
940	355.01	0.01929	0.0004
1010	375.09	0.02168	0.00045
1740	375.04	0.02197	0.00045
1860	393.98	0.02321	0.00048
2520	394.38	0.0246	0.00051
2920	414.22	0.02633	0.00053

System: trans-1,3,3,3-tetrafluoropropene + 2,3,3,3-tetrafluoro-1-propene; phases: Liquid
Fixed: Mole fraction of trans-1,3,3,3-tetrafluoropropene = 0.5
Property: Thermal conductivity, W/m/K (Liquid); method: THOTW
Pressure, kPa	Temperature, K	Thermal conductivity, W/m/K	uncertainty
1080	294.69	0.0689	0.0014
1240	274.82	0.0766	0.0025
2050	303.67	0.0679	0.0015
2070	324.62	0.0622	0.0012
2920	323.14	0.0633	0.0013
2960	303.96	0.0715	0.0015

System: pentafluoroethane + 2,3,3,3-tetrafluoro-1-propene; phases: Gas
Fixed: Mole fraction of pentafluoroethane = 0.5
Property: Thermal conductivity, W/m/K (Gas); method: THOTW
Pressure, kPa	Temperature, K	Thermal conductivity, W/m/K	uncertainty
1340	334.55	0.01759	0.00039
1450	354.3	0.01925	0.00042
1840	354.63	0.02057	0.00045
2040	374.46	0.02202	0.00046
2810	374.24	0.02329	0.00048
3100	394.23	0.02512	0.00052

System: pentafluoroethane + 2,3,3,3-tetrafluoro-1-propene; phases: Liquid
Fixed: Mole fraction of pentafluoroethane = 0.5
Property: Thermal conductivity, W/m/K (Liquid); method: THOTW
Pressure, kPa	Temperature, K	Thermal conductivity, W/m/K	uncertainty
1110	259.84	0.0717	0.0014
1150	284.9	0.0674	0.0013
1880	285.15	0.0686	0.0014
2060	304.07	0.0644	0.0014
3030	305.21	0.0595	0.0013
3030	324.75	0.0529	0.0012

System: 1,1,1,2-tetrafluoroethane + trans-1,3,3,3-tetrafluoropropene; phases: Gas
Fixed: Mole fraction of 1,1,1,2-tetrafluoroethane = 0.5
Property: Thermal conductivity, W/m/K (Gas); method: THOTW
Pressure, kPa	Temperature, K	Thermal conductivity, W/m/K	uncertainty
870	344.05	0.01922	0.0004
990	364.05	0.02123	0.00044
2030	364.13	0.02192	0.00045
2230	383.85	0.02365	0.00049
3020	403.87	0.02684	0.00055
3030	384.09	0.02611	0.00054

System: 1,1,1,2-tetrafluoroethane + trans-1,3,3,3-tetrafluoropropene; phases: Liquid
Fixed: Mole fraction of 1,1,1,2-tetrafluoroethane = 0.5
Property: Thermal conductivity, W/m/K (Liquid); method: THOTW
Pressure, kPa	Temperature, K	Thermal conductivity, W/m/K	uncertainty
980	274.68	0.0884	0.0018
1040	305.18	0.0739	0.0015
2030	326.02	0.0621	0.0012
2040	305.22	0.0736	0.0015
2960	324.82	0.0627	0.0013
3140	305.14	0.0754	0.0015
