Measured thermophysical data. Influence of the temperature on the equilibrium phase diagram of the ternary system water + ammonium chloride + 2-propanol at 101.3 kPa
Source: J. Chem. Thermodyn., 2019, 10.1016/j.jct.2018.10.022
Compound 1: ammonium chloride (NH4Cl), ClH4N, InChI=1S/ClH.H3N/h1H;1H3, purity 99.6%
Compound 2: propan-2-ol, C3H8O, InChI=1S/C3H8O/c1-3(2)4/h3-4H,1-2H3, purity 99.5%
Compound 3: water, H2O, InChI=1S/H2O/h1H2, purity 99.8%

System: water + ammonium chloride (NH4Cl) + propan-2-ol; phases: Liquid, Crystal
Fixed: Pressure, kPa = 101.3
Property: Mole fraction of ammonium chloride (NH4Cl) (Liquid); method: gravimetric analysis
Temperature, K	Mole fraction of water	Mole fraction of ammonium chloride (NH4Cl)	uncertainty
298.1	0.685	0.0624	0.0033
298.1	0.54	0.0381	0.0029
298.1	0.332	0.0135	0.0012
298.1	0.126	0.0032	0.0004
308.1	0.678	0.0705	0.0038
308.1	0.538	0.0423	0.0033
308.1	0.331	0.0154	0.0014
308.1	0.126	0.004	0.0005
313.1	0.833	0.115	0.005
313.1	0.54	0.0449	0.0037
313.1	0.369	0.0201	0.0018
313.1	0.163	0.0052	0.0007
313.1	0.797	0.105	0.005
313.1	0.633	0.0669	0.0044
333.1	0.824	0.139	0.007
333.1	0.364	0.0231	0.0021
333.1	0.184	0.0071	0.001
333.1	0.818	0.134	0.007
333.1	0.481	0.0472	0.0051
354.04	0.813	0.156	0.007
354.04	0.439	0.0391	0.0032
354.03	0.423	0.0366	0.003
353.86	0.332	0.023	0.0016
354.1	0.115	0.0043	0.0005
355.05	0.0235	0.0019	0.0002

System: water + ammonium chloride (NH4Cl) + propan-2-ol; phases: Liquid mixture 2, Liquid mixture 1
Fixed: Pressure, kPa = 101.3
Property: Mole fraction of ammonium chloride (NH4Cl) (Liquid mixture 2); method: OTHER
Property: Mole fraction of ammonium chloride (NH4Cl) (Liquid mixture 1); method: OTHER
Property: Mole fraction of water (Liquid mixture 1); method: OTHER
Temperature, K	Mole fraction of water	Mole fraction of ammonium chloride (NH4Cl)	uncertainty	Mole fraction of ammonium chloride (NH4Cl)	uncertainty	Mole fraction of water	uncertainty
313.1	0.633	0.0669	0.0035	0.105	0.005	0.797	
354.05	0.5	0.0394	0.0018	0.128	0.006	0.833	
354.04	0.458	0.0391	0.0018	0.137	0.006	0.828	
313.1	0.671	0.0712	0.0036	0.0975	0.0044	0.786	
333.1	0.481	0.0472	0.0024	0.134	0.006	0.818	
333.1	0.564	0.0517	0.0026	0.104	0.005	0.821	
333.1	0.628	0.0561	0.0027	0.0942	0.0043	0.818	
354.04	0.439	0.0391	0.0018	0.156	0.007	0.813	
354.2	0.648	0.048	0.0026	0.0867	0.0039	0.837	
354.15	0.608	0.0441	0.0023	0.0964	0.0044	0.839	
354.05	0.543	0.0409	0.002	0.11	0.005	0.841	

System: water + ammonium chloride (NH4Cl) + propan-2-ol; phases: Liquid, Gas
Fixed: Pressure, kPa = 101.3
Property: Mole fraction of propan-2-ol (Liquid); method: Chromatography
Property: Mole fraction of propan-2-ol (Gas); method: Chromatography
Property: Mole fraction of water (Gas); method: Chromatography
Temperature, K	Mole fraction of water	Mole fraction of propan-2-ol	uncertainty	Mole fraction of propan-2-ol	uncertainty	Mole fraction of water	uncertainty
354.04	0.813	0.0309	0.0013	0.72	0.012	0.28	
354.04	0.439	0.522	0.019	0.72	0.012	0.28	
354.2	0.837	0.0765	0.0031	0.663	0.014	0.337	
354.15	0.839	0.0642	0.0026	0.667	0.014	0.333	
354.05	0.841	0.0481	0.002	0.683	0.013	0.317	
354.05	0.833	0.0387	0.0016	0.696	0.013	0.304	
354.04	0.828	0.0342	0.0014	0.703	0.012	0.297	
354.2	0.648	0.303	0.012	0.663	0.014	0.337	
354.15	0.608	0.348	0.014	0.667	0.014	0.333	
354.05	0.543	0.416	0.017	0.683	0.013	0.317	
354.05	0.5	0.461	0.019	0.696	0.013	0.304	
354.04	0.458	0.503	0.02	0.703	0.012	0.297	
354.03	0.423	0.54	0.019	0.715	0.012	0.285	
353.86	0.332	0.645	0.014	0.737	0.011	0.263	
354.1	0.115	0.881	0.005	0.862	0.006	0.138	
355.05	0.0235	0.975	0.001	0.961	0.002	0.0394	
355.77	0.886	0.102	0.004	0.515	0.02	0.485	
354.59	0.839	0.104	0.004	0.634	0.015	0.366	
354.64	0.836	0.119	0.005	0.612	0.016	0.388	
354.36	0.75	0.199	0.008	0.65	0.014	0.35	
354.52	0.747	0.228	0.009	0.609	0.016	0.391	
354.34	0.723	0.234	0.01	0.642	0.015	0.358	
354.34	0.726	0.235	0.01	0.642	0.015	0.358	
354.34	0.707	0.253	0.01	0.644	0.015	0.356	
354.15	0.611	0.353	0.014	0.662	0.014	0.338	
354.04	0.563	0.407	0.017	0.663	0.014	0.337	
