Measured thermophysical data. Solvation of ionic liquids based on N-methyl-N-alkylmorpholinium cations in N,N-dimethylformamide and N,N-dimethylacetamide - Volumetric and compressibility studies
Source: J. Chem. Thermodyn., 2018, 10.1016/j.jct.2017.12.018
Compound 1: dimethylformamide, C3H7NO, InChI=1S/C3H7NO/c1-4(2)3-5/h3H,1-2H3
Compound 2: N,N-dimethylethanamide, C4H9NO, InChI=1S/C4H9NO/c1-4(6)5(2)3/h1-3H3
Compound 3: N-ethyl-N-methylmorpholinium bis(trifluoromethanesulfonyl)imide, C9H16F6N2O5S2, InChI=1S/C7H16NO.C2F6NO4S2/c1-3-8(2)4-6-9-7-5-8;3-1(4,5)14(10,11)9-15(12,13)2(6,7)8/h3-7H2,1-2H3;/q+1;-1
Compound 4: N-butyl-N-methylmorpholinium bis(trifluoromethanesulfonyl)imide, C11H20F6N2O5S2, InChI=1S/C9H20NO.C2F6NO4S2/c1-3-4-5-10(2)6-8-11-9-7-10;3-1(4,5)14(10,11)9-15(12,13)2(6,7)8/h3-9H2,1-2H3;/q+1;-1
Compound 5: N-methyl-N-octylmorpholinium bis(trifluoromethanesulfonyl)imide, C15H28F6N2O5S2, InChI=1S/C13H28NO.C2F6NO4S2/c1-3-4-5-6-7-8-9-14(2)10-12-15-13-11-14;3-1(4,5)14(10,11)9-15(12,13)2(6,7)8/h3-13H2,1-2H3;/q+1;-1
Compound 6: N-decyl-N-methylmorpholinium bis(trifluoromethanesulfonyl)-imide, C17H32F6N2O5S2, InChI=1S/C15H32NO.C2F6NO4S2/c1-3-4-5-6-7-8-9-10-11-16(2)12-14-17-15-13-16;3-1(4,5)14(10,11)9-15(12,13)2(6,7)8/h3-15H2,1-2H3;/q+1;-1

System: dimethylformamide; phases: Liquid
Fixed: Pressure, kPa = 100
Property: Mass density, kg/m3 (Liquid); method: Vibrating tube method
Temperature, K	Mass density, kg/m3	uncertainty
298.15	943.896	0.313
303.15	939.122	0.314
308.15	934.337	0.314
313.15	929.54	0.314
318.15	924.727	0.315

System: dimethylformamide; phases: Liquid
Fixed: Pressure, kPa = 100
Fixed: Frequency, MHz = 3
Property: Speed of sound, m/s (Liquid); method: Single path-length method
Temperature, K	Speed of sound, m/s	uncertainty
298.15	1457.26	1.13
303.15	1437.88	1.13
308.15	1418.5	1.13
313.15	1399.22	1.13
318.15	1379.99	1.13

System: N,N-dimethylethanamide; phases: Liquid
Fixed: Pressure, kPa = 100
Property: Mass density, kg/m3 (Liquid); method: Vibrating tube method
Temperature, K	Mass density, kg/m3	uncertainty
298.15	936.282	0.314
303.15	931.669	0.314
308.15	927.048	0.315
313.15	922.414	0.315
318.15	917.782	0.315

System: N,N-dimethylethanamide; phases: Liquid
Fixed: Pressure, kPa = 100
Fixed: Frequency, MHz = 3
Property: Speed of sound, m/s (Liquid); method: Single path-length method
Temperature, K	Speed of sound, m/s	uncertainty
298.15	1455.86	1.13
303.15	1436.03	1.13
308.15	1416.22	1.13
313.15	1396.51	1.13
318.15	1376.94	1.13

System: N-ethyl-N-methylmorpholinium bis(trifluoromethanesulfonyl)imide + dimethylformamide; phases: Liquid
Fixed: Pressure, kPa = 100
Property: Mass density, kg/m3 (Liquid); method: Vibrating tube method
Temperature, K	Molality, mol/kg of N-ethyl-N-methylmorpholinium bis(trifluoromethanesulfonyl)imide	Mass density, kg/m3	uncertainty
298.15	0	943.898	0.433
298.15	0.00944	945.311	0.433
298.15	0.0139	945.976	0.431
298.15	0.02484	947.594	0.43
298.15	0.03493	949.077	0.428
298.15	0.05306	951.714	0.427
298.15	0.06815	953.887	0.424
298.15	0.08723	956.609	0.422
298.15	0.10921	959.699	0.42
298.15	0.13513	963.305	0.417
298.15	0.16667	967.61	0.415
303.15	0	939.128	0.434
303.15	0.00944	940.541	0.433
303.15	0.0139	941.205	0.432
303.15	0.02484	942.825	0.43
303.15	0.03493	944.306	0.428
303.15	0.05306	946.941	0.427
303.15	0.06815	949.119	0.425
303.15	0.08723	951.837	0.422
303.15	0.10921	954.934	0.42
303.15	0.13513	958.531	0.417
303.15	0.16667	962.837	0.416
308.15	0	934.342	0.434
308.15	0.00944	935.755	0.434
308.15	0.0139	936.42	0.432
308.15	0.02484	938.04	0.431
308.15	0.03493	939.524	0.429
308.15	0.05306	942.158	0.427
308.15	0.06815	944.334	0.425
308.15	0.08723	947.051	0.423
308.15	0.10921	950.151	0.42
308.15	0.13513	953.752	0.417
308.15	0.16667	958.063	0.416
313.15	0	929.546	0.435
313.15	0.00944	930.96	0.434
313.15	0.0139	931.625	0.432
313.15	0.02484	933.244	0.431
313.15	0.03493	934.726	0.429
313.15	0.05306	937.366	0.427
313.15	0.06815	939.539	0.425
313.15	0.08723	942.258	0.423
313.15	0.10921	945.347	0.421
313.15	0.13513	948.956	0.418
313.15	0.16667	953.255	0.416
318.15	0	924.735	0.435
318.15	0.00944	926.15	0.434
318.15	0.0139	926.816	0.432
318.15	0.02484	928.435	0.431
318.15	0.03493	929.918	0.429
318.15	0.05306	932.558	0.428
318.15	0.06815	934.734	0.425
318.15	0.08723	937.452	0.423
318.15	0.10921	940.549	0.421
318.15	0.13513	944.152	0.418
318.15	0.16667	948.459	0.416

System: N-ethyl-N-methylmorpholinium bis(trifluoromethanesulfonyl)imide + dimethylformamide; phases: Liquid
Fixed: Pressure, kPa = 100
Fixed: Frequency, MHz = 3
Property: Speed of sound, m/s (Liquid); method: Single path-length method
Temperature, K	Molality, mol/kg of N-ethyl-N-methylmorpholinium bis(trifluoromethanesulfonyl)imide	Speed of sound, m/s	uncertainty
298.15	0	1457.25	1.13
298.15	0.00944	1456.74	1.13
298.15	0.0139	1456.5	1.13
298.15	0.02484	1455.89	1.13
298.15	0.03493	1455.33	1.13
298.15	0.05306	1454.3	1.14
298.15	0.06815	1453.46	1.14
298.15	0.08723	1452.37	1.14
298.15	0.10921	1451.16	1.14
298.15	0.13513	1449.7	1.14
298.15	0.16667	1447.99	1.14
303.15	0	1437.88	1.13
303.15	0.00944	1437.4	1.13
303.15	0.0139	1437.17	1.13
303.15	0.02484	1436.59	1.13
303.15	0.03493	1436.06	1.13
303.15	0.05306	1435.12	1.13
303.15	0.06815	1434.32	1.14
303.15	0.08723	1433.3	1.14
303.15	0.10921	1432.14	1.14
303.15	0.13513	1430.73	1.14
303.15	0.16667	1429.13	1.14
308.15	0	1418.54	1.13
308.15	0.00944	1418.09	1.13
308.15	0.0139	1417.87	1.13
308.15	0.02484	1417.33	1.13
308.15	0.03493	1416.82	1.13
308.15	0.05306	1415.93	1.13
308.15	0.06815	1415.18	1.14
308.15	0.08723	1414.22	1.14
308.15	0.10921	1413.16	1.14
308.15	0.13513	1411.84	1.14
308.15	0.16667	1410.28	1.14
313.15	0	1399.26	1.13
313.15	0.00944	1398.84	1.13
313.15	0.0139	1398.63	1.13
313.15	0.02484	1398.12	1.13
313.15	0.03493	1397.64	1.13
313.15	0.05306	1396.8	1.13
313.15	0.06815	1396.1	1.14
313.15	0.08723	1395.2	1.14
313.15	0.10921	1394.18	1.14
313.15	0.13513	1392.93	1.14
313.15	0.16667	1391.43	1.14
318.15	0	1380.06	1.13
318.15	0.00944	1379.66	1.13
318.15	0.0139	1379.46	1.13
318.15	0.02484	1378.98	1.13
318.15	0.03493	1378.53	1.13
318.15	0.05306	1377.73	1.13
318.15	0.06815	1377.08	1.13
318.15	0.08723	1376.2	1.14
318.15	0.10921	1375.25	1.14
318.15	0.13513	1374.1	1.14
318.15	0.16667	1372.7	1.14

System: N-butyl-N-methylmorpholinium bis(trifluoromethanesulfonyl)imide + dimethylformamide; phases: Liquid
Fixed: Pressure, kPa = 100
Property: Mass density, kg/m3 (Liquid); method: Vibrating tube method
Temperature, K	Molality, mol/kg of N-butyl-N-methylmorpholinium bis(trifluoromethanesulfonyl)imide	Mass density, kg/m3	uncertainty
298.15	0	943.895	0.426
298.15	0.01226	945.664	0.426
298.15	0.01719	946.37	0.423
298.15	0.03098	948.329	0.422
298.15	0.03915	949.48	0.42
298.15	0.06098	952.526	0.418
298.15	0.08181	955.388	0.415
298.15	0.10138	958.036	0.413
298.15	0.11941	960.449	0.41
298.15	0.1495	964.417	0.407
298.15	0.19759	970.603	0.405
303.15	0	939.124	0.427
303.15	0.01226	940.893	0.426
303.15	0.01719	941.6	0.424
303.15	0.03098	943.559	0.423
303.15	0.03915	944.709	0.42
303.15	0.06098	947.754	0.418
303.15	0.08181	950.615	0.416
303.15	0.10138	953.267	0.413
303.15	0.11941	955.675	0.41
303.15	0.1495	959.642	0.407
303.15	0.19759	965.83	0.406
308.15	0	934.335	0.427
308.15	0.01226	936.105	0.426
308.15	0.01719	936.812	0.424
308.15	0.03098	938.773	0.423
308.15	0.03915	939.923	0.42
308.15	0.06098	942.967	0.419
308.15	0.08181	945.83	0.416
308.15	0.10138	948.483	0.414
308.15	0.11941	950.894	0.411
308.15	0.1495	954.855	0.407
308.15	0.19759	961.047	0.406
313.15	0	929.536	0.427
313.15	0.01226	931.307	0.427
313.15	0.01719	932.015	0.424
313.15	0.03098	933.977	0.423
313.15	0.03915	935.129	0.42
313.15	0.06098	938.17	0.419
313.15	0.08181	941.034	0.416
313.15	0.10138	943.69	0.414
313.15	0.11941	946.1	0.411
313.15	0.1495	950.072	0.408
313.15	0.19759	956.266	0.406
318.15	0	924.728	0.428
318.15	0.01226	926.502	0.427
318.15	0.01719	927.212	0.425
318.15	0.03098	929.176	0.424
318.15	0.03915	930.328	0.421
318.15	0.06098	933.377	0.419
318.15	0.08181	936.238	0.417
318.15	0.10138	938.895	0.414
318.15	0.11941	941.301	0.411
318.15	0.1495	945.276	0.408
318.15	0.19759	951.454	0.406

System: N-butyl-N-methylmorpholinium bis(trifluoromethanesulfonyl)imide + dimethylformamide; phases: Liquid
Fixed: Pressure, kPa = 100
Fixed: Frequency, MHz = 3
Property: Speed of sound, m/s (Liquid); method: Single path-length method
Temperature, K	Molality, mol/kg of N-butyl-N-methylmorpholinium bis(trifluoromethanesulfonyl)imide	Speed of sound, m/s	uncertainty
298.15	0	1457.24	1.13
298.15	0.01226	1456.47	1.13
298.15	0.01719	1456.15	1.13
298.15	0.03098	1455.28	1.14
298.15	0.03915	1454.76	1.14
298.15	0.06098	1453.33	1.14
298.15	0.08181	1452	1.14
298.15	0.10138	1450.78	1.14
298.15	0.11941	1449.66	1.14
298.15	0.1495	1447.82	1.15
298.15	0.19759	1444.93	1.15
303.15	0	1437.89	1.13
303.15	0.01226	1437.16	1.13
303.15	0.01719	1436.87	1.13
303.15	0.03098	1436.02	1.13
303.15	0.03915	1435.53	1.14
303.15	0.06098	1434.21	1.14
303.15	0.08181	1432.95	1.14
303.15	0.10138	1431.78	1.14
303.15	0.11941	1430.7	1.14
303.15	0.1495	1428.93	1.15
303.15	0.19759	1426.08	1.15
308.15	0	1418.5	1.13
308.15	0.01226	1417.82	1.13
308.15	0.01719	1417.54	1.13
308.15	0.03098	1416.74	1.13
308.15	0.03915	1416.29	1.13
308.15	0.06098	1415.03	1.14
308.15	0.08181	1413.84	1.14
308.15	0.10138	1412.74	1.14
308.15	0.11941	1411.71	1.14
308.15	0.1495	1410.02	1.14
308.15	0.19759	1407.27	1.15
313.15	0	1399.23	1.13
313.15	0.01226	1398.59	1.13
313.15	0.01719	1398.33	1.13
313.15	0.03098	1397.6	1.13
313.15	0.03915	1397.15	1.13
313.15	0.06098	1395.98	1.14
313.15	0.08181	1394.82	1.14
313.15	0.10138	1393.77	1.14
313.15	0.11941	1392.77	1.14
313.15	0.1495	1391.19	1.14
313.15	0.19759	1388.54	1.15
318.15	0	1379.98	1.13
318.15	0.01226	1379.39	1.13
318.15	0.01719	1379.15	1.13
318.15	0.03098	1378.47	1.13
318.15	0.03915	1378.05	1.13
318.15	0.06098	1376.97	1.14
318.15	0.08181	1375.88	1.14
318.15	0.10138	1374.85	1.14
318.15	0.11941	1373.94	1.14
318.15	0.1495	1372.41	1.14
318.15	0.19759	1369.86	1.15

System: N-methyl-N-octylmorpholinium bis(trifluoromethanesulfonyl)imide + dimethylformamide; phases: Liquid
Fixed: Pressure, kPa = 100
Property: Mass density, kg/m3 (Liquid); method: Vibrating tube method
Temperature, K	Molality, mol/kg of N-methyl-N-octylmorpholinium bis(trifluoromethanesulfonyl)imide	Mass density, kg/m3	uncertainty
298.15	0	943.896	0.421
298.15	0.00876	945.125	0.42
298.15	0.01286	945.697	0.418
298.15	0.02223	946.994	0.417
298.15	0.03696	949.01	0.415
298.15	0.04547	950.161	0.413
298.15	0.06177	952.353	0.411
298.15	0.08567	955.511	0.408
298.15	0.10771	958.373	0.405
298.15	0.13133	961.385	0.402
298.15	0.16506	965.602	0.401
303.15	0	939.123	0.422
303.15	0.00876	940.354	0.421
303.15	0.01286	940.926	0.419
303.15	0.02223	942.225	0.417
303.15	0.03696	944.245	0.416
303.15	0.04547	945.4	0.414
303.15	0.06177	947.589	0.411
303.15	0.08567	950.755	0.409
303.15	0.10771	953.617	0.406
303.15	0.13133	956.633	0.402
303.15	0.16506	960.846	0.401
308.15	0	934.336	0.422
308.15	0.00876	935.57	0.421
308.15	0.01286	936.142	0.419
308.15	0.02223	937.441	0.418
308.15	0.03696	939.468	0.417
308.15	0.04547	940.625	0.414
308.15	0.06177	942.816	0.412
308.15	0.08567	945.984	0.409
308.15	0.10771	948.846	0.406
308.15	0.13133	951.866	0.403
308.15	0.16506	956.081	0.401
313.15	0	929.54	0.423
313.15	0.00876	930.776	0.422
313.15	0.01286	931.349	0.42
313.15	0.02223	932.653	0.418
313.15	0.03696	934.677	0.417
313.15	0.04547	935.838	0.415
313.15	0.06177	938.034	0.412
313.15	0.08567	941.2	0.41
313.15	0.10771	944.068	0.407
313.15	0.13133	947.089	0.403
313.15	0.16506	951.307	0.402
318.15	0	924.729	0.423
318.15	0.00876	925.968	0.423
318.15	0.01286	926.543	0.421
318.15	0.02223	927.85	0.419
318.15	0.03696	929.879	0.418
318.15	0.04547	931.04	0.415
318.15	0.06177	933.238	0.413
318.15	0.08567	936.41	0.41
318.15	0.10771	939.281	0.407
318.15	0.13133	942.301	0.403
318.15	0.16506	946.517	0.402

System: N-methyl-N-octylmorpholinium bis(trifluoromethanesulfonyl)imide + dimethylformamide; phases: Liquid
Fixed: Pressure, kPa = 100
Fixed: Frequency, MHz = 3
Property: Speed of sound, m/s (Liquid); method: Single path-length method
Temperature, K	Molality, mol/kg of N-methyl-N-octylmorpholinium bis(trifluoromethanesulfonyl)imide	Speed of sound, m/s	uncertainty
298.15	0	1457.28	1.13
298.15	0.00876	1456.64	1.14
298.15	0.01286	1456.33	1.14
298.15	0.02223	1455.64	1.14
298.15	0.03696	1454.55	1.14
298.15	0.04547	1453.94	1.14
298.15	0.06177	1452.73	1.14
298.15	0.08567	1451	1.14
298.15	0.10771	1449.48	1.15
298.15	0.13133	1447.82	1.15
298.15	0.16506	1445.5	1.15
303.15	0	1437.88	1.13
303.15	0.00876	1437.28	1.13
303.15	0.01286	1437	1.14
303.15	0.02223	1436.35	1.14
303.15	0.03696	1435.31	1.14
303.15	0.04547	1434.74	1.14
303.15	0.06177	1433.63	1.14
303.15	0.08567	1432	1.14
303.15	0.10771	1430.48	1.14
303.15	0.13133	1428.91	1.15
303.15	0.16506	1426.74	1.15
308.15	0	1418.48	1.13
308.15	0.00876	1417.92	1.13
308.15	0.01286	1417.66	1.13
308.15	0.02223	1417.05	1.14
308.15	0.03696	1416.09	1.14
308.15	0.04547	1415.54	1.14
308.15	0.06177	1414.47	1.14
308.15	0.08567	1412.93	1.14
308.15	0.10771	1411.55	1.14
308.15	0.13133	1410.07	1.15
308.15	0.16506	1407.99	1.15
313.15	0	1399.2	1.13
313.15	0.00876	1398.69	1.13
313.15	0.01286	1398.44	1.13
313.15	0.02223	1397.87	1.13
313.15	0.03696	1396.98	1.14
313.15	0.04547	1396.45	1.14
313.15	0.06177	1395.44	1.14
313.15	0.08567	1394.02	1.14
313.15	0.10771	1392.59	1.14
313.15	0.13133	1391.12	1.15
313.15	0.16506	1389.12	1.15
318.15	0	1379.94	1.13
318.15	0.00876	1379.47	1.13
318.15	0.01286	1379.23	1.13
318.15	0.02223	1378.69	1.13
318.15	0.03696	1377.85	1.13
318.15	0.04547	1377.37	1.14
318.15	0.06177	1376.41	1.14
318.15	0.08567	1375.07	1.14
318.15	0.10771	1373.72	1.14
318.15	0.13133	1372.3	1.15
318.15	0.16506	1370.29	1.15

System: N-decyl-N-methylmorpholinium bis(trifluoromethanesulfonyl)-imide + dimethylformamide; phases: Liquid
Fixed: Pressure, kPa = 100
Property: Mass density, kg/m3 (Liquid); method: Vibrating tube method
Temperature, K	Molality, mol/kg of N-decyl-N-methylmorpholinium bis(trifluoromethanesulfonyl)-imide	Mass density, kg/m3	uncertainty
298.15	0	943.893	0.411
298.15	0.00797	944.951	0.41
298.15	0.01461	945.824	0.409
298.15	0.01984	946.508	0.407
298.15	0.03462	948.423	0.406
298.15	0.04616	949.901	0.403
298.15	0.06559	952.359	0.402
298.15	0.07458	953.482	0.399
298.15	0.09931	956.524	0.397
298.15	0.12076	959.121	0.394
298.15	0.15559	963.256	0.393
303.15	0	939.122	0.412
303.15	0.00797	940.182	0.41
303.15	0.01461	941.055	0.409
303.15	0.01984	941.74	0.408
303.15	0.03462	943.659	0.406
303.15	0.04616	945.14	0.404
303.15	0.06559	947.603	0.403
303.15	0.07458	948.728	0.4
303.15	0.09931	951.782	0.398
303.15	0.12076	954.379	0.395
303.15	0.15559	958.523	0.394
308.15	0	934.335	0.412
308.15	0.00797	935.397	0.411
308.15	0.01461	936.273	0.41
308.15	0.01984	936.959	0.408
308.15	0.03462	938.882	0.407
308.15	0.04616	940.364	0.404
308.15	0.06559	942.828	0.403
308.15	0.07458	943.956	0.4
308.15	0.09931	947.008	0.398
308.15	0.12076	949.613	0.395
308.15	0.15559	953.759	0.394
313.15	0	929.537	0.413
313.15	0.00797	930.601	0.412
313.15	0.01461	931.479	0.41
313.15	0.01984	932.166	0.409
313.15	0.03462	934.093	0.408
313.15	0.04616	935.578	0.405
313.15	0.06559	938.045	0.404
313.15	0.07458	939.173	0.401
313.15	0.09931	942.233	0.399
313.15	0.12076	944.841	0.396
313.15	0.15559	948.993	0.395
318.15	0	924.725	0.413
318.15	0.00797	925.792	0.412
318.15	0.01461	926.672	0.411
318.15	0.01984	927.362	0.409
318.15	0.03462	929.292	0.408
318.15	0.04616	930.778	0.406
318.15	0.06559	933.252	0.404
318.15	0.07458	934.381	0.401
318.15	0.09931	937.445	0.4
318.15	0.12076	940.058	0.396
318.15	0.15559	944.206	0.395

System: N-decyl-N-methylmorpholinium bis(trifluoromethanesulfonyl)-imide + dimethylformamide; phases: Liquid
Fixed: Pressure, kPa = 100
Fixed: Frequency, MHz = 3
Property: Speed of sound, m/s (Liquid); method: Single path-length method
Temperature, K	Molality, mol/kg of N-decyl-N-methylmorpholinium bis(trifluoromethanesulfonyl)-imide	Speed of sound, m/s	uncertainty
298.15	0	1457.26	1.14
298.15	0.00797	1456.66	1.14
298.15	0.01461	1456.16	1.14
298.15	0.01984	1455.77	1.14
298.15	0.03462	1454.66	1.14
298.15	0.04616	1453.78	1.14
298.15	0.06559	1452.35	1.14
298.15	0.07458	1451.7	1.14
298.15	0.09931	1449.92	1.15
298.15	0.12076	1448.43	1.15
298.15	0.15559	1446.01	1.15
303.15	0	1437.88	1.13
303.15	0.00797	1437.33	1.13
303.15	0.01461	1436.86	1.14
303.15	0.01984	1436.49	1.14
303.15	0.03462	1435.45	1.14
303.15	0.04616	1434.65	1.14
303.15	0.06559	1433.28	1.14
303.15	0.07458	1432.65	1.14
303.15	0.09931	1430.91	1.14
303.15	0.12076	1429.47	1.15
303.15	0.15559	1427.14	1.15
308.15	0	1418.47	1.13
308.15	0.00797	1417.96	1.13
308.15	0.01461	1417.53	1.13
308.15	0.01984	1417.18	1.14
308.15	0.03462	1416.2	1.14
308.15	0.04616	1415.43	1.14
308.15	0.06559	1414.13	1.14
308.15	0.07458	1413.56	1.14
308.15	0.09931	1411.96	1.14
308.15	0.12076	1410.49	1.15
308.15	0.15559	1408.28	1.15
313.15	0	1399.2	1.13
313.15	0.00797	1398.72	1.13
313.15	0.01461	1398.3	1.13
313.15	0.01984	1397.97	1.13
313.15	0.03462	1397.04	1.14
313.15	0.04616	1396.32	1.14
313.15	0.06559	1395.09	1.14
313.15	0.07458	1394.52	1.14
313.15	0.09931	1392.99	1.14
313.15	0.12076	1391.6	1.15
313.15	0.15559	1389.45	1.15
318.15	0	1379.96	1.13
318.15	0.00797	1379.51	1.13
318.15	0.01461	1379.12	1.13
318.15	0.01984	1378.81	1.13
318.15	0.03462	1377.93	1.14
318.15	0.04616	1377.25	1.14
318.15	0.06559	1376.07	1.14
318.15	0.07458	1375.54	1.14
318.15	0.09931	1374.06	1.14
318.15	0.12076	1372.76	1.14
318.15	0.15559	1370.65	1.15

System: N-ethyl-N-methylmorpholinium bis(trifluoromethanesulfonyl)imide + N,N-dimethylethanamide; phases: Liquid
Fixed: Pressure, kPa = 100
Property: Mass density, kg/m3 (Liquid); method: Vibrating tube method
Temperature, K	Molality, mol/kg of N-ethyl-N-methylmorpholinium bis(trifluoromethanesulfonyl)imide	Mass density, kg/m3	uncertainty
298.15	0	936.285	0.435
298.15	0.01045	937.856	0.434
298.15	0.01572	938.642	0.432
298.15	0.02226	939.612	0.431
298.15	0.03591	941.623	0.429
298.15	0.05223	944.005	0.428
298.15	0.05916	945.009	0.425
298.15	0.08588	948.84	0.424
298.15	0.1077	951.928	0.421
298.15	0.12896	954.888	0.417
298.15	0.16306	959.56	0.416
303.15	0	931.674	0.435
303.15	0.01045	933.244	0.434
303.15	0.01572	934.03	0.432
303.15	0.02226	934.999	0.431
303.15	0.03591	937.011	0.43
303.15	0.05223	939.393	0.428
303.15	0.05916	940.398	0.425
303.15	0.08588	944.222	0.424
303.15	0.1077	947.31	0.421
303.15	0.12896	950.279	0.418
303.15	0.16306	954.968	0.417
308.15	0	927.048	0.435
308.15	0.01045	928.618	0.435
308.15	0.01572	929.404	0.433
308.15	0.02226	930.375	0.431
308.15	0.03591	932.386	0.43
308.15	0.05223	934.768	0.429
308.15	0.05916	935.771	0.426
308.15	0.08588	939.606	0.425
308.15	0.1077	942.694	0.422
308.15	0.12896	945.663	0.418
308.15	0.16306	950.351	0.417
313.15	0	922.412	0.435
313.15	0.01045	923.984	0.435
313.15	0.01572	924.771	0.433
313.15	0.02226	925.742	0.432
313.15	0.03591	927.757	0.431
313.15	0.05223	930.146	0.43
313.15	0.05916	931.152	0.426
313.15	0.08588	934.983	0.425
313.15	0.1077	938.071	0.422
313.15	0.12896	941.039	0.419
313.15	0.16306	945.728	0.418
318.15	0	917.782	0.436
318.15	0.01045	919.355	0.435
318.15	0.01572	920.142	0.434
318.15	0.02226	921.113	0.432
318.15	0.03591	923.131	0.431
318.15	0.05223	925.52	0.43
318.15	0.05916	926.524	0.426
318.15	0.08588	930.351	0.425
318.15	0.1077	933.441	0.423
318.15	0.12896	936.418	0.419
318.15	0.16306	941.099	0.418

System: N-ethyl-N-methylmorpholinium bis(trifluoromethanesulfonyl)imide + N,N-dimethylethanamide; phases: Liquid
Fixed: Pressure, kPa = 100
Fixed: Frequency, MHz = 3
Property: Speed of sound, m/s (Liquid); method: Single path-length method
Temperature, K	Molality, mol/kg of N-ethyl-N-methylmorpholinium bis(trifluoromethanesulfonyl)imide	Speed of sound, m/s	uncertainty
298.15	0	1455.86	1.13
298.15	0.01045	1455.32	1.13
298.15	0.01572	1455.04	1.13
298.15	0.02226	1454.68	1.13
298.15	0.03591	1453.94	1.13
298.15	0.05223	1453.06	1.14
298.15	0.05916	1452.68	1.14
298.15	0.08588	1451.21	1.14
298.15	0.1077	1449.97	1.14
298.15	0.12896	1448.79	1.14
298.15	0.16306	1446.9	1.14
303.15	0	1436.04	1.13
303.15	0.01045	1435.53	1.13
303.15	0.01572	1435.26	1.13
303.15	0.02226	1434.93	1.13
303.15	0.03591	1434.24	1.13
303.15	0.05223	1433.42	1.13
303.15	0.05916	1433.05	1.14
303.15	0.08588	1431.68	1.14
303.15	0.1077	1430.54	1.14
303.15	0.12896	1429.44	1.14
303.15	0.16306	1427.64	1.14
308.15	0	1416.26	1.13
308.15	0.01045	1415.78	1.13
308.15	0.01572	1415.53	1.13
308.15	0.02226	1415.22	1.13
308.15	0.03591	1414.57	1.13
308.15	0.05223	1413.81	1.13
308.15	0.05916	1413.46	1.13
308.15	0.08588	1412.17	1.14
308.15	0.1077	1411.12	1.14
308.15	0.12896	1410.06	1.14
308.15	0.16306	1408.39	1.14
313.15	0	1396.54	1.13
313.15	0.01045	1396.08	1.13
313.15	0.01572	1395.85	1.13
313.15	0.02226	1395.56	1.13
313.15	0.03591	1394.95	1.13
313.15	0.05223	1394.21	1.13
313.15	0.05916	1393.9	1.13
313.15	0.08588	1392.7	1.14
313.15	0.1077	1391.71	1.14
313.15	0.12896	1390.76	1.14
313.15	0.16306	1389.22	1.14
318.15	0	1376.98	1.13
318.15	0.01045	1376.55	1.13
318.15	0.01572	1376.33	1.13
318.15	0.02226	1376.06	1.13
318.15	0.03591	1375.5	1.13
318.15	0.05223	1374.81	1.13
318.15	0.05916	1374.52	1.13
318.15	0.08588	1373.41	1.14
318.15	0.1077	1372.49	1.14
318.15	0.12896	1371.57	1.14
318.15	0.16306	1370.2	1.14

System: N-butyl-N-methylmorpholinium bis(trifluoromethanesulfonyl)imide + N,N-dimethylethanamide; phases: Liquid
Fixed: Pressure, kPa = 100
Property: Mass density, kg/m3 (Liquid); method: Vibrating tube method
Temperature, K	Molality, mol/kg of N-butyl-N-methylmorpholinium bis(trifluoromethanesulfonyl)imide	Mass density, kg/m3	uncertainty
298.15	0	936.282	0.428
298.15	0.01021	937.766	0.427
298.15	0.01536	938.51	0.426
298.15	0.02566	939.988	0.424
298.15	0.03595	941.452	0.422
298.15	0.05212	943.729	0.42
298.15	0.06919	946.099	0.418
298.15	0.08422	948.166	0.416
298.15	0.10522	951.023	0.414
298.15	0.12783	954.054	0.411
298.15	0.16211	958.586	0.41
303.15	0	931.67	0.429
303.15	0.01021	933.155	0.428
303.15	0.01536	933.899	0.426
303.15	0.02566	935.38	0.425
303.15	0.03595	936.843	0.423
303.15	0.05212	939.124	0.421
303.15	0.06919	941.494	0.418
303.15	0.08422	943.558	0.416
303.15	0.10522	946.423	0.414
303.15	0.12783	949.451	0.411
303.15	0.16211	953.986	0.41
308.15	0	927.049	0.429
308.15	0.01021	928.535	0.428
308.15	0.01536	929.28	0.426
308.15	0.02566	930.76	0.425
308.15	0.03595	932.226	0.423
308.15	0.05212	934.501	0.421
308.15	0.06919	936.882	0.419
308.15	0.08422	938.944	0.416
308.15	0.10522	941.804	0.414
308.15	0.12783	944.825	0.411
308.15	0.16211	949.352	0.411
313.15	0	922.416	0.429
313.15	0.01021	923.903	0.429
313.15	0.01536	924.65	0.427
313.15	0.02566	926.13	0.426
313.15	0.03595	927.6	0.423
313.15	0.05212	929.879	0.421
313.15	0.06919	932.253	0.419
313.15	0.08422	934.325	0.417
313.15	0.10522	937.19	0.415
313.15	0.12783	940.223	0.412
313.15	0.16211	944.755	0.411
318.15	0	917.78	0.43
318.15	0.01021	919.27	0.429
318.15	0.01536	920.016	0.427
318.15	0.02566	921.5	0.426
318.15	0.03595	922.973	0.424
318.15	0.05212	925.25	0.422
318.15	0.06919	927.634	0.42
318.15	0.08422	929.698	0.417
318.15	0.10522	932.567	0.416
318.15	0.12783	935.607	0.412
318.15	0.16211	940.135	0.411

System: N-butyl-N-methylmorpholinium bis(trifluoromethanesulfonyl)imide + N,N-dimethylethanamide; phases: Liquid
Fixed: Pressure, kPa = 100
Fixed: Frequency, MHz = 3
Property: Speed of sound, m/s (Liquid); method: Single path-length method
Temperature, K	Molality, mol/kg of N-butyl-N-methylmorpholinium bis(trifluoromethanesulfonyl)imide	Speed of sound, m/s	uncertainty
298.15	0	1455.86	1.13
298.15	0.01021	1455.24	1.13
298.15	0.01536	1454.91	1.13
298.15	0.02566	1454.28	1.13
298.15	0.03595	1453.65	1.14
298.15	0.05212	1452.68	1.14
298.15	0.06919	1451.61	1.14
298.15	0.08422	1450.69	1.14
298.15	0.10522	1449.43	1.14
298.15	0.12783	1448.1	1.14
298.15	0.16211	1446.08	1.15
303.15	0	1436.04	1.13
303.15	0.01021	1435.45	1.13
303.15	0.01536	1435.15	1.13
303.15	0.02566	1434.55	1.13
303.15	0.03595	1433.94	1.13
303.15	0.05212	1433.01	1.14
303.15	0.06919	1432.03	1.14
303.15	0.08422	1431.19	1.14
303.15	0.10522	1429.96	1.14
303.15	0.12783	1428.68	1.14
303.15	0.16211	1426.81	1.15
308.15	0	1416.22	1.13
308.15	0.01021	1415.67	1.13
308.15	0.01536	1415.38	1.13
308.15	0.02566	1414.81	1.13
308.15	0.03595	1414.25	1.13
308.15	0.05212	1413.37	1.14
308.15	0.06919	1412.44	1.14
308.15	0.08422	1411.6	1.14
308.15	0.10522	1410.45	1.14
308.15	0.12783	1409.22	1.14
308.15	0.16211	1407.37	1.14
313.15	0	1396.53	1.13
313.15	0.01021	1396.02	1.13
313.15	0.01536	1395.74	1.13
313.15	0.02566	1395.22	1.13
313.15	0.03595	1394.69	1.13
313.15	0.05212	1393.88	1.13
313.15	0.06919	1393.02	1.14
313.15	0.08422	1392.22	1.14
313.15	0.10522	1391.16	1.14
313.15	0.12783	1390.02	1.14
313.15	0.16211	1388.32	1.14
318.15	0	1376.97	1.13
318.15	0.01021	1376.49	1.13
318.15	0.01536	1376.25	1.13
318.15	0.02566	1375.76	1.13
318.15	0.03595	1375.27	1.13
318.15	0.05212	1374.5	1.13
318.15	0.06919	1373.7	1.14
318.15	0.08422	1372.98	1.14
318.15	0.10522	1371.97	1.14
318.15	0.12783	1370.96	1.14
318.15	0.16211	1369.29	1.14

System: N-methyl-N-octylmorpholinium bis(trifluoromethanesulfonyl)imide + N,N-dimethylethanamide; phases: Liquid
Fixed: Pressure, kPa = 100
Property: Mass density, kg/m3 (Liquid); method: Vibrating tube method
Temperature, K	Molality, mol/kg of N-methyl-N-octylmorpholinium bis(trifluoromethanesulfonyl)imide	Mass density, kg/m3	uncertainty
298.15	0	936.287	0.422
298.15	0.01004	937.707	0.422
298.15	0.01578	938.513	0.42
298.15	0.02557	939.876	0.418
298.15	0.03602	941.315	0.417
298.15	0.04889	943.073	0.415
298.15	0.06192	944.829	0.412
298.15	0.08551	947.971	0.41
298.15	0.10865	950.988	0.407
298.15	0.13107	953.861	0.403
298.15	0.16603	958.26	0.402
303.15	0	931.668	0.423
303.15	0.01004	933.089	0.423
303.15	0.01578	933.896	0.42
303.15	0.02557	935.26	0.419
303.15	0.03602	936.701	0.417
303.15	0.04889	938.462	0.415
303.15	0.06192	940.221	0.412
303.15	0.08551	943.361	0.41
303.15	0.10865	946.385	0.407
303.15	0.13107	949.269	0.404
303.15	0.16603	953.684	0.403
308.15	0	927.049	0.424
308.15	0.01004	928.473	0.423
308.15	0.01578	929.28	0.421
308.15	0.02557	930.649	0.42
308.15	0.03602	932.093	0.418
308.15	0.04889	933.854	0.416
308.15	0.06192	935.615	0.413
308.15	0.08551	938.762	0.411
308.15	0.10865	941.788	0.408
308.15	0.13107	944.682	0.404
308.15	0.16603	949.085	0.403
313.15	0	922.416	0.424
313.15	0.01004	923.843	0.424
313.15	0.01578	924.65	0.422
313.15	0.02557	926.021	0.421
313.15	0.03602	927.471	0.418
313.15	0.04889	929.232	0.416
313.15	0.06192	931	0.413
313.15	0.08551	934.141	0.411
313.15	0.10865	937.182	0.409
313.15	0.13107	940.069	0.405
313.15	0.16603	944.488	0.404
318.15	0	917.785	0.425
318.15	0.01004	919.215	0.424
318.15	0.01578	920.025	0.422
318.15	0.02557	921.396	0.421
318.15	0.03602	922.846	0.419
318.15	0.04889	924.613	0.417
318.15	0.06192	926.386	0.414
318.15	0.08551	929.535	0.412
318.15	0.10865	932.568	0.409
318.15	0.13107	935.47	0.405
318.15	0.16603	939.885	0.404

System: N-methyl-N-octylmorpholinium bis(trifluoromethanesulfonyl)imide + N,N-dimethylethanamide; phases: Liquid
Fixed: Pressure, kPa = 100
Fixed: Frequency, MHz = 3
Property: Speed of sound, m/s (Liquid); method: Single path-length method
Temperature, K	Molality, mol/kg of N-methyl-N-octylmorpholinium bis(trifluoromethanesulfonyl)imide	Speed of sound, m/s	uncertainty
298.15	0	1455.86	1.13
298.15	0.01004	1455.15	1.14
298.15	0.01578	1454.74	1.14
298.15	0.02557	1454.05	1.14
298.15	0.03602	1453.3	1.14
298.15	0.04889	1452.39	1.14
298.15	0.06192	1451.44	1.14
298.15	0.08551	1449.76	1.14
298.15	0.10865	1448.15	1.15
298.15	0.13107	1446.59	1.15
298.15	0.16603	1444.24	1.15
303.15	0	1436.04	1.13
303.15	0.01004	1435.37	1.13
303.15	0.01578	1434.98	1.13
303.15	0.02557	1434.33	1.14
303.15	0.03602	1433.64	1.14
303.15	0.04889	1432.76	1.14
303.15	0.06192	1431.85	1.14
303.15	0.08551	1430.26	1.14
303.15	0.10865	1428.76	1.14
303.15	0.13107	1427.29	1.15
303.15	0.16603	1425.04	1.15
308.15	0	1416.23	1.13
308.15	0.01004	1415.61	1.13
308.15	0.01578	1415.26	1.13
308.15	0.02557	1414.66	1.13
308.15	0.03602	1414	1.14
308.15	0.04889	1413.18	1.14
308.15	0.06192	1412.37	1.14
308.15	0.08551	1410.86	1.14
308.15	0.10865	1409.41	1.14
308.15	0.13107	1408	1.15
308.15	0.16603	1405.9	1.15
313.15	0	1396.51	1.13
313.15	0.01004	1395.95	1.13
313.15	0.01578	1395.61	1.13
313.15	0.02557	1395.06	1.13
313.15	0.03602	1394.45	1.14
313.15	0.04889	1393.71	1.14
313.15	0.06192	1392.96	1.14
313.15	0.08551	1391.57	1.14
313.15	0.10865	1390.17	1.14
313.15	0.13107	1388.91	1.14
313.15	0.16603	1386.86	1.15
318.15	0	1376.94	1.13
318.15	0.01004	1376.42	1.13
318.15	0.01578	1376.11	1.13
318.15	0.02557	1375.61	1.13
318.15	0.03602	1375.03	1.13
318.15	0.04889	1374.34	1.14
318.15	0.06192	1373.63	1.14
318.15	0.08551	1372.34	1.14
318.15	0.10865	1371.03	1.14
318.15	0.13107	1369.83	1.14
318.15	0.16603	1367.9	1.15

System: N-decyl-N-methylmorpholinium bis(trifluoromethanesulfonyl)-imide + N,N-dimethylethanamide; phases: Liquid
Fixed: Pressure, kPa = 100
Property: Mass density, kg/m3 (Liquid); method: Vibrating tube method
Temperature, K	Molality, mol/kg of N-decyl-N-methylmorpholinium bis(trifluoromethanesulfonyl)-imide	Mass density, kg/m3	uncertainty
298.15	0	936.274	0.413
298.15	0.01071	937.715	0.413
298.15	0.01562	938.368	0.411
298.15	0.02382	939.453	0.409
298.15	0.03664	941.132	0.408
298.15	0.05141	943.042	0.406
298.15	0.06847	945.22	0.403
298.15	0.08376	947.142	0.401
298.15	0.10814	950.162	0.399
298.15	0.13024	952.852	0.395
298.15	0.16615	957.114	0.394
303.15	0	931.664	0.414
303.15	0.01071	933.108	0.414
303.15	0.01562	933.765	0.412
303.15	0.02382	934.854	0.41
303.15	0.03664	936.54	0.408
303.15	0.05141	938.451	0.406
303.15	0.06847	940.638	0.404
303.15	0.08376	942.553	0.401
303.15	0.10814	945.58	0.399
303.15	0.13024	948.272	0.395
303.15	0.16615	952.533	0.394
308.15	0	927.044	0.415
308.15	0.01071	928.492	0.414
308.15	0.01562	929.148	0.412
308.15	0.02382	930.24	0.411
308.15	0.03664	931.931	0.409
308.15	0.05141	933.846	0.407
308.15	0.06847	936.037	0.404
308.15	0.08376	937.956	0.402
308.15	0.10814	940.988	0.4
308.15	0.13024	943.694	0.396
308.15	0.16615	947.952	0.394
313.15	0	922.414	0.415
313.15	0.01071	923.864	0.415
313.15	0.01562	924.522	0.413
313.15	0.02382	925.615	0.411
313.15	0.03664	927.303	0.41
313.15	0.05141	929.23	0.408
313.15	0.06847	931.424	0.405
313.15	0.08376	933.349	0.402
313.15	0.10814	936.388	0.401
313.15	0.13024	939.099	0.396
313.15	0.16615	943.373	0.395
318.15	0	917.782	0.416
318.15	0.01071	919.236	0.416
318.15	0.01562	919.897	0.414
318.15	0.02382	920.992	0.412
318.15	0.03664	922.69	0.41
318.15	0.05141	924.611	0.408
318.15	0.06847	926.81	0.406
318.15	0.08376	928.748	0.403
318.15	0.10814	931.782	0.401
318.15	0.13024	934.49	0.397
318.15	0.16615	938.77	0.395

System: N-decyl-N-methylmorpholinium bis(trifluoromethanesulfonyl)-imide + N,N-dimethylethanamide; phases: Liquid
Fixed: Pressure, kPa = 100
Fixed: Frequency, MHz = 3
Property: Speed of sound, m/s (Liquid); method: Single path-length method
Temperature, K	Molality, mol/kg of N-decyl-N-methylmorpholinium bis(trifluoromethanesulfonyl)-imide	Speed of sound, m/s	uncertainty
298.15	0	1455.85	1.13
298.15	0.01071	1455.09	1.14
298.15	0.01562	1454.74	1.14
298.15	0.02382	1454.15	1.14
298.15	0.03664	1453.22	1.14
298.15	0.05141	1452.15	1.14
298.15	0.06847	1450.91	1.14
298.15	0.08376	1449.8	1.14
298.15	0.10814	1448.01	1.15
298.15	0.13024	1446.5	1.15
298.15	0.16615	1443.94	1.15
303.15	0	1436.02	1.13
303.15	0.01071	1435.31	1.13
303.15	0.01562	1434.98	1.14
303.15	0.02382	1434.43	1.14
303.15	0.03664	1433.56	1.14
303.15	0.05141	1432.54	1.14
303.15	0.06847	1431.38	1.14
303.15	0.08376	1430.31	1.14
303.15	0.10814	1428.65	1.15
303.15	0.13024	1427.21	1.15
303.15	0.16615	1424.76	1.15
308.15	0	1416.16	1.13
308.15	0.01071	1415.51	1.13
308.15	0.01562	1415.2	1.13
308.15	0.02382	1414.7	1.14
308.15	0.03664	1413.86	1.14
308.15	0.05141	1412.97	1.14
308.15	0.06847	1411.87	1.14
308.15	0.08376	1410.85	1.14
308.15	0.10814	1409.31	1.14
308.15	0.13024	1407.93	1.15
308.15	0.16615	1405.6	1.15
313.15	0	1396.47	1.13
313.15	0.01071	1395.87	1.13
313.15	0.01562	1395.58	1.13
313.15	0.02382	1395.11	1.13
313.15	0.03664	1394.37	1.14
313.15	0.05141	1393.47	1.14
313.15	0.06847	1392.48	1.14
313.15	0.08376	1391.57	1.14
313.15	0.10814	1390.07	1.14
313.15	0.13024	1388.79	1.15
313.15	0.16615	1386.59	1.15
318.15	0	1376.88	1.13
318.15	0.01071	1376.32	1.13
318.15	0.01562	1376.06	1.13
318.15	0.02382	1375.61	1.13
318.15	0.03664	1374.91	1.13
318.15	0.05141	1374.12	1.14
318.15	0.06847	1373.19	1.14
318.15	0.08376	1372.28	1.14
318.15	0.10814	1370.91	1.14
318.15	0.13024	1369.71	1.15
318.15	0.16615	1367.66	1.15
