Measured thermophysical data. Phase equilibrium measurements and thermodynamic modelling of {water + phenol + [Hmim][NTf2]} ionic liquid system at several temperatures
Source: J. Chem. Thermodyn., 2018, 10.1016/j.jct.2017.12.014
Compound 1: phenol, C6H6O, InChI=1S/C6H6O/c7-6-4-2-1-3-5-6/h1-5,7H, purity 99.5%
Compound 2: 1-hexyl-3-methylimidazolium bis[(trifluoromethyl)sulfonyl]imide, C12H19F6N3O4S2, InChI=1S/C10H19N2.C2F6NO4S2/c1-3-4-5-6-7-12-9-8-11(2)10-12;3-1(4,5)14(10,11)9-15(12,13)2(6,7)8/h8-10H,3-7H2,1-2H3;/q+1;-1
Compound 3: water, H2O, InChI=1S/H2O/h1H2, purity 99.9%

System: 1-hexyl-3-methylimidazolium bis[(trifluoromethyl)sulfonyl]imide; phases: Liquid
Fixed: Pressure, kPa = 81.5
Property: Refractive index (Na D-line) (Liquid); method: Standard Abbe refractometry
Temperature, K	Refractive index (Na D-line)	uncertainty
293.2	1.43115	0.00144
298.2	1.42975	0.00144
308.2	1.42705	0.00144

System: water; phases: Liquid
Fixed: Pressure, kPa = 81.5
Property: Refractive index (Na D-line) (Liquid); method: Standard Abbe refractometry
Temperature, K	Refractive index (Na D-line)	uncertainty
293.2	1.33305	0.00143
298.2	1.3325	0.00143
308.2	1.33135	0.00143

System: water + phenol + 1-hexyl-3-methylimidazolium bis[(trifluoromethyl)sulfonyl]imide; phases: Liquid mixture 1, Liquid mixture 2
Fixed: Pressure, kPa = 81.5
Property: Mass fraction of phenol (Liquid mixture 1); method: Titration method
Temperature, K	Mass fraction of water	Mass fraction of phenol	uncertainty
293.2	0.9942	0	
293.2	0.9851	0.0099	0.0099
293.2	0.9755	0.0199	0.0147
293.2	0.9665	0.0299	0.0147
293.2	0.9571	0.0399	0.015
293.2	0.9479	0.0499	0.0147
293.2	0.9385	0.0613	0.0147
293.2	0.9291	0.0699	0.0147
293.2	0.9194	0.0799	0.0141
298.2	0.9936	0	
298.2	0.9845	0.0099	0.0099
298.2	0.9751	0.0199	0.0147
298.2	0.9657	0.0299	0.0146
298.2	0.9565	0.0399	0.0149
298.2	0.9471	0.0498	0.0146
298.2	0.9376	0.0612	0.0147
298.2	0.9278	0.0698	0.0147
298.2	0.9187	0.0799	0.0143
308.2	0.9915	0	
308.2	0.9821	0.0099	0.0099
308.2	0.9728	0.0199	0.0148
308.2	0.9638	0.0298	0.0148
308.2	0.9548	0.0398	0.0153
308.2	0.9456	0.0497	0.015
308.2	0.9368	0.0612	0.0156
308.2	0.9276	0.0698	0.0151

System: water + phenol + 1-hexyl-3-methylimidazolium bis[(trifluoromethyl)sulfonyl]imide; phases: Liquid mixture 2, Liquid mixture 1
Fixed: Pressure, kPa = 81.5
Property: Mass fraction of phenol (Liquid mixture 2); method: Titration method
Temperature, K	Mass fraction of water	Mass fraction of phenol	uncertainty
293.2	0.0103	0	
293.2	0.0124	0.0099	0.0099
293.2	0.0148	0.0197	0.01
293.2	0.0154	0.0295	0.0101
293.2	0.0163	0.0393	0.0102
293.2	0.0173	0.0491	0.0103
293.2	0.0179	0.0603	0.0103
293.2	0.019	0.0686	0.0104
293.2	0.0219	0.0782	0.0103
293.2	0.0251	0.0975	0.0104
293.2	0.0319	0.1355	0.0107
293.2	0.0396	0.1729	0.0112
298.2	0.0126	0	
298.2	0.0132	0.0099	0.0099
298.2	0.0144	0.0197	0.01
298.2	0.0155	0.0295	0.01
298.2	0.0165	0.0393	0.0101
298.2	0.0173	0.0491	0.0101
298.2	0.019	0.0602	0.0101
298.2	0.0203	0.0685	0.0102
298.2	0.0225	0.0782	0.0102
298.2	0.0263	0.0974	0.0104
298.2	0.0357	0.135	0.0107
298.2	0.0412	0.1726	0.0111
308.2	0.0142	0	
308.2	0.0154	0.0098	0.0098
308.2	0.0163	0.0197	0.01
308.2	0.0175	0.0295	0.0101
308.2	0.0183	0.0392	0.0101
308.2	0.0186	0.0491	0.0101
308.2	0.0198	0.0602	0.0102
308.2	0.0225	0.0684	0.0102
308.2	0.0244	0.078	0.0102
308.2	0.0557	0.17	0.0111

System: water + phenol + 1-hexyl-3-methylimidazolium bis[(trifluoromethyl)sulfonyl]imide; phases: Liquid
Fixed: Pressure, kPa = 81.5
Property: Refractive index (Na D-line) (Liquid); method: Standard Abbe refractometry
Temperature, K	Mass fraction of water	Mass fraction of phenol	Refractive index (Na D-line)	uncertainty
293.2	0.9942	0	1.3331	0.00154
293.2	0.9851	0.0099	1.33535	0.0022
293.2	0.9755	0.0199	1.3367	0.0023
293.2	0.9665	0.0299	1.3391	0.0023
293.2	0.9571	0.0399	1.3414	0.00191
293.2	0.9479	0.0499	1.3431	0.00184
293.2	0.9385	0.0613	1.3445	0.0018
293.2	0.9291	0.0699	1.34685	0.00187
293.2	0.9194	0.0799	1.3485	0.00188
298.2	0.9936	0	1.33295	0.00156
298.2	0.9845	0.0099	1.33495	0.00198
298.2	0.9751	0.0199	1.33645	0.00193
298.2	0.9657	0.0299	1.3381	0.0021
298.2	0.9565	0.0399	1.3405	0.0018
298.2	0.9471	0.0498	1.34215	0.00189
298.2	0.9376	0.0612	1.34395	0.00192
298.2	0.9278	0.0698	1.3451	0.00189
298.2	0.9187	0.0799	1.34735	0.00228
308.2	0.9915	0	1.33205	0.00165
308.2	0.9821	0.0099	1.33355	0.00183
308.2	0.9728	0.0199	1.33555	0.0021
308.2	0.9638	0.0298	1.3376	0.0021
308.2	0.9548	0.0398	1.33925	0.00187
308.2	0.9456	0.0497	1.34085	0.00198
308.2	0.9368	0.0612	1.34305	0.00209
308.2	0.9276	0.0698	1.3442	0.00191
293.2	0.0103	0	1.43055	0.00175
293.2	0.0124	0.0099	1.43195	0.00221
293.2	0.0148	0.0197	1.4331	0.00225
293.2	0.0154	0.0295	1.4343	0.0022
293.2	0.0163	0.0393	1.4355	0.00217
293.2	0.0173	0.0491	1.43665	0.00217
293.2	0.0179	0.0603	1.43795	0.00219
293.2	0.019	0.0686	1.4385	0.00233
293.2	0.0219	0.0782	1.43995	0.00237
293.2	0.0251	0.0975	1.44305	0.00224
293.2	0.0319	0.1355	1.44695	0.00231
293.2	0.0396	0.1729	1.45275	0.00747
298.2	0.0126	0	1.429	0.00175
298.2	0.0132	0.0099	1.4301	0.00205
298.2	0.0144	0.0197	1.43155	0.00217
298.2	0.0155	0.0295	1.43225	0.0023
298.2	0.0165	0.0393	1.43365	0.00222
298.2	0.0173	0.0491	1.4355	0.00235
298.2	0.019	0.0602	1.4366	0.00208
298.2	0.0203	0.0685	1.43745	0.00221
298.2	0.0225	0.0782	1.43815	0.00224
298.2	0.0263	0.0974	1.44095	0.0023
298.2	0.0357	0.135	1.44555	0.00224
298.2	0.0412	0.1726	1.44975	0.00382
308.2	0.0142	0	1.42645	0.00174
308.2	0.0154	0.0098	1.4276	0.00222
308.2	0.0163	0.0197	1.42895	0.00216
308.2	0.0175	0.0295	1.43015	0.00219
308.2	0.0183	0.0392	1.43105	0.00212
308.2	0.0186	0.0491	1.4325	0.0021
308.2	0.0198	0.0602	1.43345	0.00229
308.2	0.0225	0.0684	1.43515	0.00236
308.2	0.0244	0.078	1.4361	0.00248
308.2	0.0557	0.17	1.44795	0.00191

System: water + phenol + 1-hexyl-3-methylimidazolium bis[(trifluoromethyl)sulfonyl]imide; phases: Liquid mixture 2, Liquid mixture 1
Fixed: Pressure, kPa = 81.5
Property: Mass fraction of water (Liquid mixture 2); method: Index of refraction calibration data
Property: Mass fraction of phenol (Liquid mixture 1); method: Index of refraction calibration data
Property: Mass fraction of water (Liquid mixture 1); method: Index of refraction calibration data
Temperature, K	Mass fraction of phenol	Mass fraction of water	uncertainty	Mass fraction of phenol	uncertainty	Mass fraction of water	uncertainty
293.2	0.0398	0.0168	0.0101	0.0016	0.0016	0.9928	
293.2	0.06	0.0201	0.0101	0.0029	0.0029	0.9916	
293.2	0.1002	0.0266	0.0101	0.007	0.007	0.9878	
293.2	0.1284	0.0312	0.0102	0.0109	0.01	0.9841	
293.2	0.1403	0.0332	0.0102	0.014	0.01	0.9812	
293.2	0.1554	0.0356	0.0102	0.0171	0.01	0.9783	
293.2	0.1594	0.0363	0.0102	0.0213	0.01	0.9744	
293.2	0.1677	0.0376	0.0102	0.0249	0.01	0.971	
293.2	0.1777	0.0392	0.0102	0.0278	0.01	0.9684	
298.2	0.0375	0.0169	0.0101	0.0023	0.0023	0.9916	
298.2	0.069	0.0223	0.0102	0.0062	0.0062	0.9879	
298.2	0.0907	0.0261	0.0102	0.0085	0.0085	0.9858	
298.2	0.1032	0.0283	0.0102	0.0107	0.01	0.9837	
298.2	0.1207	0.0313	0.0102	0.0135	0.01	0.981	
298.2	0.1257	0.0322	0.0102	0.0172	0.01	0.9776	
298.2	0.1411	0.0348	0.0102	0.0211	0.01	0.9739	
298.2	0.1561	0.0374	0.0102	0.0233	0.01	0.9718	
298.2	0.1711	0.04	0.0104	0.0306	0.01	0.9649	
308.2	0.0339	0.0183	0.01	0.0036	0.0036	0.9878	
308.2	0.0566	0.0193	0.0101	0.0068	0.0068	0.985	
308.2	0.0673	0.0224	0.0104	0.0085	0.0085	0.9834	
308.2	0.074	0.0243	0.0104	0.0107	0.01	0.9813	
308.2	0.0886	0.0286	0.0104	0.0141	0.01	0.9782	
308.2	0.0965	0.0309	0.0104	0.0164	0.01	0.9762	
308.2	0.1162	0.0366	0.0104	0.0198	0.01	0.9731	
308.2	0.1375	0.0428	0.0105	0.0251	0.01	0.9682	
308.2	0.1699	0.0522	0.0105	0.0305	0.01	0.9633	

System: water + 1-hexyl-3-methylimidazolium bis[(trifluoromethyl)sulfonyl]imide; phases: Liquid mixture 1, Liquid mixture 2
Fixed: Pressure, kPa = 81.5
Property: Mass fraction of water (Liquid mixture 1); method: Titration method
Temperature, K	Mass fraction of water	uncertainty
293.2	0.9942	0.0058
298.2	0.9936	0.0064
308.2	0.9915	0.0085

System: water + 1-hexyl-3-methylimidazolium bis[(trifluoromethyl)sulfonyl]imide; phases: Liquid mixture 2, Liquid mixture 1
Fixed: Pressure, kPa = 81.5
Property: Mass fraction of water (Liquid mixture 2); method: Titration method
Temperature, K	Mass fraction of water	uncertainty
293.2	0.0103	0.01
298.2	0.0126	0.01
308.2	0.0142	0.01

System: water + 1-hexyl-3-methylimidazolium bis[(trifluoromethyl)sulfonyl]imide; phases: Liquid
Fixed: Pressure, kPa = 81.5
Property: Refractive index (Na D-line) (Liquid); method: Standard Abbe refractometry
Temperature, K	Mass fraction of water	Refractive index (Na D-line)	uncertainty
293.2	0.9942	1.3331	0.00154
298.2	0.9936	1.33295	0.00156
308.2	0.9915	1.33205	0.00165
293.2	0.0103	1.43055	0.00175
298.2	0.0126	1.429	0.00175
308.2	0.0142	1.42645	0.00174
