Measured thermophysical data. Volumetric properties, viscosities and refractive indices of binary liquid mixtures of tetrafluoroborate-based ionic liquids with methanol at several temperatures
Source: J. Chem. Thermodyn., 2015, 10.1016/j.jct.2015.06.036
Compound 1: methanol, CH4O, InChI=1S/CH4O/c1-2/h2H,1H3, purity 99.9%
Compound 2: 1-butyl-3-methylimidazolium tetrafluoroborate, C8H15BF4N2, InChI=1S/C8H15N2.BF4/c1-3-4-5-10-7-6-9(2)8-10;2-1(3,4)5/h6-8H,3-5H2,1-2H3;/q+1;-1, purity 99%
Compound 3: 1-ethyl-3-methylimidazolium tetrafluoroborate, C6H11BF4N2, InChI=1S/C6H11N2.BF4/c1-3-8-5-4-7(2)6-8;2-1(3,4)5/h4-6H,3H2,1-2H3;/q+1;-1, purity 98%

System: methanol; phases: Liquid
Fixed: Pressure, kPa = 101
Property: Mass density, kg/m3 (Liquid); method: Vibrating tube method
Temperature, K	Mass density, kg/m3	uncertainty
278.15	805.4	0.2
288.15	796	0.2
298.15	786.6	0.2
308.15	777.1	0.2
318.15	767.6	0.2

System: methanol; phases: Liquid
Fixed: Pressure, kPa = 101
Property: Speed of sound, m/s (Liquid); method: Sing-around technique in a fixed-path interferometer
Temperature, K	Speed of sound, m/s	uncertainty
278.15	1169	2
288.15	1135	2
298.15	1102	2
308.15	1070	2
318.15	1037	2

System: methanol; phases: Liquid
Fixed: Pressure, kPa = 101
Property: Viscosity, Pa*s (Liquid); method: Falling or rolling sphere viscometry
Temperature, K	Viscosity, Pa*s	uncertainty
278.15	0.000687	2.8e-05
288.15	0.000596	2.4e-05
298.15	0.000524	2.1e-05
308.15	0.000466	1.9e-05
318.15	0.00042	1.7e-05

System: methanol; phases: Liquid
Fixed: Pressure, kPa = 101
Property: Refractive index (Na D-line) (Liquid); method: Standard Abbe refractometry
Temperature, K	Refractive index (Na D-line)	uncertainty
288.15	1.3316	0.0005
298.15	1.3265	0.0005
308.15	1.3224	0.0005
318.15	1.3182	0.0005

System: 1-butyl-3-methylimidazolium tetrafluoroborate; phases: Liquid
Fixed: Pressure, kPa = 101
Property: Mass density, kg/m3 (Liquid); method: Vibrating tube method
Temperature, K	Mass density, kg/m3	uncertainty
278.15	1215.9	0.4
288.15	1208.5	0.4
298.15	1201.3	0.4
308.15	1194.2	0.4
318.15	1187.2	0.4

System: 1-butyl-3-methylimidazolium tetrafluoroborate; phases: Liquid
Fixed: Pressure, kPa = 101
Property: Speed of sound, m/s (Liquid); method: Sing-around technique in a fixed-path interferometer
Temperature, K	Speed of sound, m/s	uncertainty
278.15	1615	2
288.15	1590	2
298.15	1565	2
308.15	1542	2
318.15	1519	2

System: 1-butyl-3-methylimidazolium tetrafluoroborate; phases: Liquid
Fixed: Pressure, kPa = 101
Property: Viscosity, Pa*s (Liquid); method: Falling or rolling sphere viscometry
Temperature, K	Viscosity, Pa*s	uncertainty
278.15	0.361	0.026
288.15	0.186	0.011
298.15	0.105	0.005
308.15	0.0648	0.0027
318.15	0.0427	0.0018

System: 1-butyl-3-methylimidazolium tetrafluoroborate; phases: Liquid
Fixed: Pressure, kPa = 101
Property: Refractive index (Na D-line) (Liquid); method: Standard Abbe refractometry
Temperature, K	Refractive index (Na D-line)	uncertainty
288.15	1.4243	0.0005
298.15	1.4217	0.0005
308.15	1.419	0.0005
318.15	1.4164	0.0005

System: 1-ethyl-3-methylimidazolium tetrafluoroborate; phases: Liquid
Fixed: Pressure, kPa = 101
Property: Mass density, kg/m3 (Liquid); method: Vibrating tube method
Temperature, K	Mass density, kg/m3	uncertainty
278.15	1305.3	1.5
288.15	1297.6	1.5
298.15	1290	1.5
308.15	1282.4	1.5
318.15	1274.9	1.5

System: 1-ethyl-3-methylimidazolium tetrafluoroborate; phases: Liquid
Fixed: Pressure, kPa = 101
Property: Speed of sound, m/s (Liquid); method: Sing-around technique in a fixed-path interferometer
Temperature, K	Speed of sound, m/s	uncertainty
278.15	1677	3
288.15	1653	3
298.15	1629	3
308.15	1606	3
318.15	1583	3

System: 1-ethyl-3-methylimidazolium tetrafluoroborate; phases: Liquid
Fixed: Pressure, kPa = 101
Property: Viscosity, Pa*s (Liquid); method: Falling or rolling sphere viscometry
Temperature, K	Viscosity, Pa*s	uncertainty
278.15	0.101	0.005
288.15	0.062	0.0026
298.15	0.041	0.0017
308.15	0.0288	0.0012
318.15	0.0212	0.0009

System: 1-ethyl-3-methylimidazolium tetrafluoroborate; phases: Liquid
Fixed: Pressure, kPa = 101
Property: Refractive index (Na D-line) (Liquid); method: Standard Abbe refractometry
Temperature, K	Refractive index (Na D-line)	uncertainty
288.15	1.4143	0.0006
298.15	1.4118	0.0006
308.15	1.4092	0.0006
318.15	1.4067	0.0006

System: methanol + 1-butyl-3-methylimidazolium tetrafluoroborate; phases: Liquid
Fixed: Pressure, kPa = 101
Property: Mass density, kg/m3 (Liquid); method: Vibrating tube method
Temperature, K	Mole fraction of 1-butyl-3-methylimidazolium tetrafluoroborate	Mass density, kg/m3	uncertainty
278.15	0	805.4	0.2
278.15	0.0501	893	0.4
278.15	0.0999	954.2	0.3
278.15	0.1498	999.7	0.3
278.15	0.2	1035.5	0.2
278.15	0.2999	1087.2	0.2
278.15	0.4008	1122.5	0.2
278.15	0.4995	1147.9	0.3
278.15	0.5999	1167.9	0.3
278.15	0.6991	1183.3	0.3
278.15	0.8006	1196.4	0.3
278.15	0.8494	1201.6	0.4
278.15	0.9006	1206.9	0.4
278.15	0.9501	1211.4	0.4
278.15	1	1215.9	0.4
288.15	0	796	0.2
288.15	0.0501	884	0.4
288.15	0.0999	945.5	0.3
288.15	0.1498	991.2	0.3
288.15	0.2	1027.2	0.2
288.15	0.2999	1079.1	0.2
288.15	0.4008	1114.6	0.2
288.15	0.4995	1140.2	0.3
288.15	0.5999	1160.3	0.3
288.15	0.6991	1175.9	0.3
288.15	0.8006	1189	0.3
288.15	0.8494	1194.3	0.4
288.15	0.9006	1199.6	0.4
288.15	0.9501	1204	0.4
288.15	1	1208.5	0.4
298.15	0	786.6	0.2
298.15	0.0501	875	0.4
298.15	0.0999	936.8	0.3
298.15	0.1498	982.8	0.3
298.15	0.2	1018.9	0.2
298.15	0.2999	1071	0.2
298.15	0.4008	1106.8	0.2
298.15	0.4995	1132.5	0.3
298.15	0.5999	1152.8	0.3
298.15	0.6991	1168.5	0.3
298.15	0.8006	1181.7	0.3
298.15	0.8494	1187.1	0.4
298.15	0.9006	1192.4	0.4
298.15	0.9501	1196.9	0.4
298.15	1	1201.3	0.4
308.15	0	777.1	0.2
308.15	0.0501	866	0.4
308.15	0.0999	928.1	0.3
308.15	0.1498	974.3	0.3
308.15	0.2	1010.6	0.2
308.15	0.2999	1063.1	0.2
308.15	0.4008	1099	0.2
308.15	0.4995	1124.9	0.3
308.15	0.5999	1145.3	0.3
308.15	0.6991	1161.1	0.3
308.15	0.8006	1174.5	0.3
308.15	0.8494	1179.9	0.3
308.15	0.9006	1185.3	0.4
308.15	0.9501	1189.8	0.4
308.15	1	1194.2	0.4
318.15	0	767.6	0.2
318.15	0.0501	857	0.4
318.15	0.0999	919.4	0.3
318.15	0.1498	965.8	0.3
318.15	0.2	1002.4	0.2
318.15	0.2999	1055.1	0.2
318.15	0.4008	1091.3	0.2
318.15	0.4995	1117.4	0.3
318.15	0.5999	1137.9	0.3
318.15	0.6991	1153.8	0.3
318.15	0.8006	1167.3	0.3
318.15	0.8494	1172.7	0.3
318.15	0.9006	1178.2	0.4
318.15	0.9501	1182.7	0.4
318.15	1	1187.2	0.4

System: methanol + 1-butyl-3-methylimidazolium tetrafluoroborate; phases: Liquid
Fixed: Pressure, kPa = 101
Property: Speed of sound, m/s (Liquid); method: Sing-around technique in a fixed-path interferometer
Temperature, K	Mole fraction of 1-butyl-3-methylimidazolium tetrafluoroborate	Speed of sound, m/s	uncertainty
278.15	0	1169	2
278.15	0.0501	1239	2
278.15	0.0999	1294	2
278.15	0.1498	1341	2
278.15	0.2	1383	2
278.15	0.2999	1447	2
278.15	0.4008	1493	2
278.15	0.4995	1527	2
278.15	0.5999	1552	2
278.15	0.6991	1573	2
278.15	0.8006	1589	2
278.15	0.8494	1596	2
278.15	0.9006	1603	2
278.15	0.9501	1611	2
278.15	1	1615	2
288.15	0	1135	2
288.15	0.0501	1209	2
288.15	0.0999	1266	2
288.15	0.1498	1315	2
288.15	0.2	1356	2
288.15	0.2999	1422	2
288.15	0.4008	1468	2
288.15	0.4995	1502	2
288.15	0.5999	1527	2
288.15	0.6991	1548	2
288.15	0.8006	1564	2
288.15	0.8494	1571	2
288.15	0.9006	1578	2
288.15	0.9501	1586	2
288.15	1	1590	2
298.15	0	1102	2
298.15	0.0501	1179	2
298.15	0.0999	1238	2
298.15	0.1498	1288	2
298.15	0.2	1331	2
298.15	0.2999	1397	2
298.15	0.4008	1443	2
298.15	0.4995	1477	2
298.15	0.5999	1503	2
298.15	0.6991	1524	2
298.15	0.8006	1540	2
298.15	0.8494	1547	2
298.15	0.9006	1554	2
298.15	0.9501	1562	2
298.15	1	1565	2
308.15	0	1070	2
308.15	0.0501	1150	2
308.15	0.0999	1211	2
308.15	0.1498	1262	2
308.15	0.2	1305	2
308.15	0.2999	1372	2
308.15	0.4008	1418	2
308.15	0.4995	1454	2
308.15	0.5999	1479	2
308.15	0.6991	1500	2
308.15	0.8006	1517	2
308.15	0.8494	1524	2
308.15	0.9006	1531	2
308.15	0.9501	1538	2
308.15	1	1542	2
318.15	0	1037	2
318.15	0.0501	1121	2
318.15	0.0999	1184	2
318.15	0.1498	1236	2
318.15	0.2	1280	2
318.15	0.2999	1348	2
318.15	0.4008	1394	2
318.15	0.4995	1430	2
318.15	0.5999	1456	2
318.15	0.6991	1477	2
318.15	0.8006	1493	2
318.15	0.8494	1501	2
318.15	0.9006	1508	2
318.15	0.9501	1515	2
318.15	1	1519	2

System: methanol + 1-butyl-3-methylimidazolium tetrafluoroborate; phases: Liquid
Fixed: Pressure, kPa = 101
Property: Viscosity, Pa*s (Liquid); method: Falling or rolling sphere viscometry
Temperature, K	Mole fraction of 1-butyl-3-methylimidazolium tetrafluoroborate	Viscosity, Pa*s	uncertainty
278.15	0	0.000687	2.8e-05
278.15	0.0501	0.00107	4e-05
278.15	0.0999	0.0017	7e-05
278.15	0.1498	0.00236	0.0001
278.15	0.2	0.00335	0.00014
278.15	0.2999	0.00622	0.00025
278.15	0.4008	0.0111	0.0005
278.15	0.4995	0.0206	0.0008
278.15	0.5999	0.0353	0.0014
278.15	0.6991	0.0602	0.0025
278.15	0.8006	0.108	0.005
278.15	0.8494	0.143	0.007
278.15	0.9006	0.196	0.011
278.15	0.9501	0.264	0.017
278.15	1	0.361	0.026
288.15	0	0.000596	2.4e-05
288.15	0.0501	0.000905	3.7e-05
288.15	0.0999	0.0014	6e-05
288.15	0.1498	0.00191	8e-05
288.15	0.2	0.00265	0.00011
288.15	0.2999	0.00473	0.00019
288.15	0.4008	0.0081	0.00033
288.15	0.4995	0.0145	0.0006
288.15	0.5999	0.0237	0.001
288.15	0.6991	0.0382	0.0016
288.15	0.8006	0.0648	0.0027
288.15	0.8494	0.0825	0.0036
288.15	0.9006	0.11	0.005
288.15	0.9501	0.143	0.007
288.15	1	0.186	0.011
298.15	0	0.000524	2.1e-05
298.15	0.0501	0.000779	3.2e-05
298.15	0.0999	0.00118	5e-05
298.15	0.1498	0.00158	6e-05
298.15	0.2	0.00216	9e-05
298.15	0.2999	0.00373	0.00015
298.15	0.4008	0.00618	0.00025
298.15	0.4995	0.0107	0.0004
298.15	0.5999	0.0169	0.0007
298.15	0.6991	0.0258	0.0011
298.15	0.8006	0.0415	0.0017
298.15	0.8494	0.0516	0.0021
298.15	0.9006	0.0669	0.0028
298.15	0.9501	0.0838	0.0037
298.15	1	0.105	0.005
308.15	0	0.000466	1.9e-05
308.15	0.0501	0.000679	2.8e-05
308.15	0.0999	0.00101	4e-05
308.15	0.1498	0.00133	5e-05
308.15	0.2	0.0018	7e-05
308.15	0.2999	0.00302	0.00012
308.15	0.4008	0.00488	0.0002
308.15	0.4995	0.00817	0.00033
308.15	0.5999	0.0127	0.0005
308.15	0.6991	0.0185	0.0008
308.15	0.8006	0.0284	0.0012
308.15	0.8494	0.0344	0.0014
308.15	0.9006	0.0433	0.0018
308.15	0.9501	0.0533	0.0022
308.15	1	0.0648	0.0027
318.15	0	0.00042	1.7e-05
318.15	0.0501	0.0006	2.4e-05
318.15	0.0999	0.000873	3.6e-05
318.15	0.1498	0.00114	5e-05
318.15	0.2	0.00152	6e-05
318.15	0.2999	0.00251	0.0001
318.15	0.4008	0.00396	0.00016
318.15	0.4995	0.00645	0.00026
318.15	0.5999	0.00983	0.0004
318.15	0.6991	0.0137	0.0006
318.15	0.8006	0.0204	0.0008
318.15	0.8494	0.0242	0.001
318.15	0.9006	0.03	0.0012
318.15	0.9501	0.036	0.0015
318.15	1	0.0427	0.0018

System: methanol + 1-butyl-3-methylimidazolium tetrafluoroborate; phases: Liquid
Fixed: Pressure, kPa = 101
Property: Refractive index (Na D-line) (Liquid); method: Standard Abbe refractometry
Temperature, K	Mole fraction of 1-butyl-3-methylimidazolium tetrafluoroborate	Refractive index (Na D-line)	uncertainty
288.15	0	1.3316	0.0005
288.15	0.0113	1.337	0.0005
288.15	0.0235	1.3428	0.0005
288.15	0.0366	1.3481	0.0005
288.15	0.0509	1.3539	0.0005
288.15	0.0845	1.364	0.0005
288.15	0.1254	1.3729	0.0005
288.15	0.1771	1.3827	0.0005
288.15	0.2441	1.3912	0.0005
288.15	0.3338	1.3999	0.0005
288.15	0.4626	1.4082	0.0005
288.15	0.5482	1.4123	0.0005
288.15	0.6589	1.4163	0.0005
288.15	0.8037	1.4204	0.0005
288.15	1	1.4243	0.0005
298.15	0	1.3265	0.0005
298.15	0.0113	1.3325	0.0005
298.15	0.0235	1.3381	0.0005
298.15	0.0366	1.3435	0.0005
298.15	0.0509	1.3488	0.0005
298.15	0.0845	1.3595	0.0005
298.15	0.1254	1.369	0.0005
298.15	0.1771	1.3788	0.0005
298.15	0.2441	1.3877	0.0005
298.15	0.3338	1.3966	0.0005
298.15	0.4626	1.4052	0.0005
298.15	0.5482	1.4093	0.0005
298.15	0.6589	1.4135	0.0005
298.15	0.8037	1.4177	0.0005
298.15	1	1.4217	0.0005
308.15	0	1.3224	0.0005
308.15	0.0113	1.3285	0.0005
308.15	0.0235	1.3343	0.0005
308.15	0.0366	1.3398	0.0005
308.15	0.0509	1.3453	0.0005
308.15	0.0845	1.3562	0.0005
308.15	0.1254	1.3657	0.0005
308.15	0.1771	1.3754	0.0005
308.15	0.2441	1.3845	0.0005
308.15	0.3338	1.3934	0.0005
308.15	0.4626	1.4022	0.0005
308.15	0.5482	1.4064	0.0005
308.15	0.6589	1.4107	0.0005
308.15	0.8037	1.415	0.0005
308.15	1	1.419	0.0005
318.15	0	1.3182	0.0005
318.15	0.0113	1.3246	0.0005
318.15	0.0235	1.3305	0.0005
318.15	0.0366	1.3365	0.0005
318.15	0.0509	1.3419	0.0005
318.15	0.0845	1.3536	0.0005
318.15	0.1254	1.3629	0.0005
318.15	0.1771	1.3726	0.0005
318.15	0.2441	1.3813	0.0005
318.15	0.3338	1.3904	0.0005
318.15	0.4626	1.3993	0.0005
318.15	0.5482	1.4036	0.0005
318.15	0.6589	1.408	0.0005
318.15	0.8037	1.4124	0.0005
318.15	1	1.4164	0.0005

System: methanol + 1-ethyl-3-methylimidazolium tetrafluoroborate; phases: Liquid
Fixed: Pressure, kPa = 101
Property: Mass density, kg/m3 (Liquid); method: Vibrating tube method
Temperature, K	Mole fraction of 1-ethyl-3-methylimidazolium tetrafluoroborate	Mass density, kg/m3	uncertainty
278.15	0	805.4	0.2
278.15	0.0499	896.8	0.4
278.15	0.0998	965.1	0.3
278.15	0.1498	1019.5	0.3
278.15	0.1998	1062.4	0.3
278.15	0.3002	1127.9	0.3
278.15	0.4004	1174.8	0.4
278.15	0.5001	1209.6	0.5
278.15	0.6004	1237.2	0.6
278.15	0.6987	1258.7	0.8
278.15	0.8005	1277.4	1
278.15	0.8486	1284.8	1.1
278.15	0.8987	1292.3	1.2
278.15	0.9476	1298.6	1.4
278.15	1	1305.3	1.5
288.15	0	796	0.2
288.15	0.0499	887.8	0.4
288.15	0.0998	956.3	0.3
288.15	0.1498	1010.9	0.3
288.15	0.1998	1053.8	0.3
288.15	0.3002	1119.4	0.3
288.15	0.4004	1166.5	0.3
288.15	0.5001	1201.4	0.4
288.15	0.6004	1229.1	0.6
288.15	0.6987	1250.7	0.8
288.15	0.8005	1269.5	1
288.15	0.8486	1276.9	1.1
288.15	0.8987	1284.5	1.2
288.15	0.9476	1290.9	1.4
288.15	1	1297.6	1.5
298.15	0	786.6	0.2
298.15	0.0499	878.7	0.4
298.15	0.0998	947.5	0.3
298.15	0.1498	1002.2	0.3
298.15	0.1998	1045.3	0.3
298.15	0.3002	1111	0.3
298.15	0.4004	1158.2	0.3
298.15	0.5001	1193.3	0.4
298.15	0.6004	1221.1	0.6
298.15	0.6987	1242.8	0.8
298.15	0.8005	1261.7	1
298.15	0.8486	1269.2	1.1
298.15	0.8987	1276.8	1.2
298.15	0.9476	1283.2	1.3
298.15	1	1290	1.5
308.15	0	777.1	0.2
308.15	0.0499	869.6	0.4
308.15	0.0998	938.7	0.3
308.15	0.1498	993.6	0.3
308.15	0.1998	1036.8	0.3
308.15	0.3002	1102.7	0.3
308.15	0.4004	1150	0.3
308.15	0.5001	1185.3	0.4
308.15	0.6004	1213.2	0.6
308.15	0.6987	1235	0.7
308.15	0.8005	1254	1
308.15	0.8486	1261.5	1.1
308.15	0.8987	1269.1	1.2
308.15	0.9476	1275.6	1.3
308.15	1	1282.4	1.5
318.15	0	767.6	0.2
318.15	0.0499	860.5	0.4
318.15	0.0998	929.8	0.3
318.15	0.1498	984.9	0.3
318.15	0.1998	1028.3	0.3
318.15	0.3002	1094.4	0.3
318.15	0.4004	1141.9	0.3
318.15	0.5001	1177.3	0.4
318.15	0.6004	1205.4	0.6
318.15	0.6987	1227.2	0.7
318.15	0.8005	1246.3	0.9
318.15	0.8486	1253.9	1.1
318.15	0.8987	1261.6	1.2
318.15	0.9476	1268	1.3
318.15	1	1274.9	1.5

System: methanol + 1-ethyl-3-methylimidazolium tetrafluoroborate; phases: Liquid
Fixed: Pressure, kPa = 101
Property: Speed of sound, m/s (Liquid); method: Sing-around technique in a fixed-path interferometer
Temperature, K	Mole fraction of 1-ethyl-3-methylimidazolium tetrafluoroborate	Speed of sound, m/s	uncertainty
278.15	0	1169	2
278.15	0.0499	1233	2
278.15	0.0998	1283	2
278.15	0.1498	1336	2
278.15	0.1998	1384	2
278.15	0.3002	1465	2
278.15	0.4004	1523	2
278.15	0.5001	1565	2
278.15	0.6004	1597	3
278.15	0.6987	1623	3
278.15	0.8005	1644	3
278.15	0.8486	1653	3
278.15	0.8987	1661	3
278.15	0.9476	1669	3
278.15	1	1677	3
288.15	0	1135	2
288.15	0.0499	1204	2
288.15	0.0998	1259	2
288.15	0.1498	1313	2
288.15	0.1998	1361	2
288.15	0.3002	1441	2
288.15	0.4004	1499	2
288.15	0.5001	1540	2
288.15	0.6004	1572	3
288.15	0.6987	1598	3
288.15	0.8005	1619	3
288.15	0.8486	1628	3
288.15	0.8987	1636	3
288.15	0.9476	1644	3
288.15	1	1653	3
298.15	0	1102	2
298.15	0.0499	1176	2
298.15	0.0998	1233	2
298.15	0.1498	1289	2
298.15	0.1998	1337	2
298.15	0.3002	1418	2
298.15	0.4004	1475	2
298.15	0.5001	1516	2
298.15	0.6004	1548	3
298.15	0.6987	1575	3
298.15	0.8005	1596	3
298.15	0.8486	1605	3
298.15	0.8987	1613	3
298.15	0.9476	1621	3
298.15	1	1629	3
308.15	0	1069	2
308.15	0.0499	1147	2
308.15	0.0998	1208	2
308.15	0.1498	1265	2
308.15	0.1998	1314	2
308.15	0.3002	1394	2
308.15	0.4004	1451	2
308.15	0.5001	1493	2
308.15	0.6004	1525	3
308.15	0.6987	1551	3
308.15	0.8005	1573	3
308.15	0.8486	1581	3
308.15	0.8987	1589	3
308.15	0.9476	1598	3
308.15	1	1606	3
318.15	0	1037	2
318.15	0.0499	1119	2
318.15	0.0998	1182	2
318.15	0.1498	1241	2
318.15	0.1998	1290	2
318.15	0.3002	1371	2
318.15	0.4004	1428	2
318.15	0.5001	1470	2
318.15	0.6004	1502	3
318.15	0.6987	1528	3
318.15	0.8005	1550	3
318.15	0.8486	1559	3
318.15	0.8987	1567	3
318.15	0.9476	1575	3
318.15	1	1583	3

System: methanol + 1-ethyl-3-methylimidazolium tetrafluoroborate; phases: Liquid
Fixed: Pressure, kPa = 101
Property: Viscosity, Pa*s (Liquid); method: Falling or rolling sphere viscometry
Temperature, K	Mole fraction of 1-ethyl-3-methylimidazolium tetrafluoroborate	Viscosity, Pa*s	uncertainty
278.15	0	0.000687	2.8e-05
278.15	0.0499	0.000998	4.1e-05
278.15	0.0998	0.00143	6e-05
278.15	0.1498	0.00192	8e-05
278.15	0.1998	0.00252	0.0001
278.15	0.3002	0.00408	0.00017
278.15	0.4004	0.00645	0.00026
278.15	0.5001	0.00984	0.0004
278.15	0.6004	0.0153	0.0006
278.15	0.6987	0.0246	0.001
278.15	0.8005	0.0389	0.0016
278.15	0.8486	0.0479	0.002
278.15	0.8987	0.0615	0.0026
278.15	0.9476	0.0765	0.0033
278.15	1	0.101	0.005
288.15	0	0.000596	2.4e-05
288.15	0.0499	0.000848	3.5e-05
288.15	0.0998	0.00119	5e-05
288.15	0.1498	0.00157	6e-05
288.15	0.1998	0.00203	8e-05
288.15	0.3002	0.00324	0.00013
288.15	0.4004	0.00501	0.00021
288.15	0.5001	0.00749	0.00031
288.15	0.6004	0.0113	0.0005
288.15	0.6987	0.0177	0.0007
288.15	0.8005	0.0268	0.0011
288.15	0.8486	0.0323	0.0013
288.15	0.8987	0.0402	0.0017
288.15	0.9476	0.0487	0.002
288.15	1	0.062	0.0026
298.15	0	0.000524	2.1e-05
298.15	0.0499	0.000732	3e-05
298.15	0.0998	0.00101	4e-05
298.15	0.1498	0.00132	5e-05
298.15	0.1998	0.00169	7e-05
298.15	0.3002	0.00266	0.00011
298.15	0.4004	0.00403	0.00016
298.15	0.5001	0.00591	0.00024
298.15	0.6004	0.00869	0.00036
298.15	0.6987	0.0133	0.0006
298.15	0.8005	0.0195	0.0008
298.15	0.8486	0.0229	0.001
298.15	0.8987	0.028	0.0012
298.15	0.9476	0.0332	0.0014
298.15	1	0.041	0.0017
308.15	0	0.000466	1.9e-05
308.15	0.0499	0.000642	2.6e-05
308.15	0.0998	0.000872	3.5e-05
308.15	0.1498	0.00113	5e-05
308.15	0.1998	0.00144	6e-05
308.15	0.3002	0.00223	9e-05
308.15	0.4004	0.00333	0.00014
308.15	0.5001	0.00479	0.0002
308.15	0.6004	0.00691	0.00028
308.15	0.6987	0.0104	0.0004
308.15	0.8005	0.0149	0.0006
308.15	0.8486	0.0171	0.0007
308.15	0.8987	0.0205	0.0009
308.15	0.9476	0.0238	0.001
308.15	1	0.0288	0.0012
318.15	0	0.00042	1.7e-05
318.15	0.0499	0.00057	2.3e-05
318.15	0.0998	0.000772	3.1e-05
318.15	0.1498	0.000979	4e-05
318.15	0.1998	0.00124	5e-05
318.15	0.3002	0.0019	8e-05
318.15	0.4004	0.00281	0.00012
318.15	0.5001	0.00398	0.00016
318.15	0.6004	0.00565	0.00023
318.15	0.6987	0.00837	0.00035
318.15	0.8005	0.0117	0.0005
318.15	0.8486	0.0132	0.0006
318.15	0.8987	0.0157	0.0007
318.15	0.9476	0.0178	0.0007
318.15	1	0.0212	0.0009

System: methanol + 1-ethyl-3-methylimidazolium tetrafluoroborate; phases: Liquid
Fixed: Pressure, kPa = 101
Property: Refractive index (Na D-line) (Liquid); method: Standard Abbe refractometry
Temperature, K	Mole fraction of 1-ethyl-3-methylimidazolium tetrafluoroborate	Refractive index (Na D-line)	uncertainty
288.15	0	1.3316	0.0005
288.15	0.0136	1.3368	0.0005
288.15	0.0283	1.3419	0.0005
288.15	0.044	1.3466	0.0005
288.15	0.0615	1.3515	0.0005
288.15	0.101	1.3604	0.0005
288.15	0.1485	1.3697	0.0005
288.15	0.2073	1.3785	0.0005
288.15	0.2817	1.3865	0.0005
288.15	0.379	1.3937	0.0005
288.15	0.5111	1.4008	0.0005
288.15	0.5959	1.404	0.0006
288.15	0.7027	1.4075	0.0006
288.15	0.8297	1.4109	0.0006
288.15	1	1.4143	0.0006
298.15	0	1.3265	0.0005
298.15	0.0136	1.3324	0.0005
298.15	0.0283	1.3376	0.0005
298.15	0.044	1.3423	0.0005
298.15	0.0615	1.3474	0.0005
298.15	0.101	1.3566	0.0005
298.15	0.1485	1.3659	0.0005
298.15	0.2073	1.3749	0.0005
298.15	0.2817	1.383	0.0005
298.15	0.379	1.3905	0.0005
298.15	0.5111	1.3978	0.0005
298.15	0.5959	1.4012	0.0006
298.15	0.7027	1.4048	0.0006
298.15	0.8297	1.4082	0.0006
298.15	1	1.4118	0.0006
308.15	0	1.3224	0.0005
308.15	0.0136	1.3286	0.0005
308.15	0.0283	1.3337	0.0005
308.15	0.044	1.3389	0.0005
308.15	0.0615	1.3439	0.0005
308.15	0.101	1.353	0.0005
308.15	0.1485	1.3627	0.0005
308.15	0.2073	1.3715	0.0005
308.15	0.2817	1.38	0.0005
308.15	0.379	1.3874	0.0005
308.15	0.5111	1.3949	0.0005
308.15	0.5959	1.3985	0.0006
308.15	0.7027	1.4022	0.0006
308.15	0.8297	1.4056	0.0006
308.15	1	1.4092	0.0006
318.15	0	1.3182	0.0005
318.15	0.0136	1.3247	0.0005
318.15	0.0283	1.33	0.0005
318.15	0.044	1.3357	0.0005
318.15	0.0615	1.3402	0.0005
318.15	0.101	1.3495	0.0005
318.15	0.1485	1.3592	0.0005
318.15	0.2073	1.3685	0.0005
318.15	0.2817	1.3768	0.0005
318.15	0.379	1.3845	0.0005
318.15	0.5111	1.3922	0.0005
318.15	0.5959	1.3958	0.0006
318.15	0.7027	1.3996	0.0006
318.15	0.8297	1.4031	0.0006
318.15	1	1.4067	0.0006
