Measured thermophysical data. Phase equilibria of didecyldimethylammonium nitrate ionic liquid with water and organic solvents
Source: J. Chem. Thermodyn., 2007, 10.1016/j.jct.2006.10.009
Compound 1: water, H2O, InChI=1S/H2O/h1H2
Compound 2: Didecyldimethylammonium nitrate, C22H48N2O3, InChI=1S/C22H48N.NO3/c1-5-7-9-11-13-15-17-19-21-23(3,4)22-20-18-16-14-12-10-8-6-2;2-1(3)4/h5-22H2,1-4H3;/q+1;-1
Compound 3: propan-1-ol, C3H8O, InChI=1S/C3H8O/c1-2-3-4/h4H,2-3H2,1H3
Compound 4: butan-1-ol, C4H10O, InChI=1S/C4H10O/c1-2-3-4-5/h5H,2-4H2,1H3
Compound 5: octan-1-ol, C8H18O, InChI=1S/C8H18O/c1-2-3-4-5-6-7-8-9/h9H,2-8H2,1H3
Compound 6: toluene, C7H8, InChI=1S/C7H8/c1-7-5-3-2-4-6-7/h2-6H,1H3
Compound 7: propylbenzene, C9H12, InChI=1S/C9H12/c1-2-6-9-7-4-3-5-8-9/h3-5,7-8H,2,6H2,1H3
Compound 8: decan-1-ol, C10H22O, InChI=1S/C10H22O/c1-2-3-4-5-6-7-8-9-10-11/h11H,2-10H2,1H3
Compound 9: hexane, C6H14, InChI=1S/C6H14/c1-3-5-6-4-2/h3-6H2,1-2H3
Compound 10: hexadecane, C16H34, InChI=1S/C16H34/c1-3-5-7-9-11-13-15-16-14-12-10-8-6-4-2/h3-16H2,1-2H3

System: Didecyldimethylammonium nitrate; phases: Crystal, Liquid, Air at 1 atmosphere
Property: Normal melting temperature, K (Crystal); method: DTA
Normal melting temperature, K	uncertainty
304.8	4

System: Didecyldimethylammonium nitrate; phases: Crystal, Liquid, Air at 1 atmosphere
Property: Molar enthalpy of transition or fusion, kJ/mol (Crystal); method: DSC
Molar enthalpy of transition or fusion, kJ/mol	uncertainty
9.88	0.361

System: propan-1-ol; phases: Crystal, Liquid, Air at 1 atmosphere
Property: Normal melting temperature, K (Crystal); method: VISOBS
Normal melting temperature, K	uncertainty
146.7	4

System: butan-1-ol; phases: Crystal, Liquid, Air at 1 atmosphere
Property: Normal melting temperature, K (Crystal); method: VISOBS
Normal melting temperature, K	uncertainty
183.7	4

System: octan-1-ol; phases: Crystal, Liquid, Air at 1 atmosphere
Property: Normal melting temperature, K (Crystal); method: VISOBS
Normal melting temperature, K	uncertainty
258.2	4

System: toluene; phases: Crystal, Liquid, Air at 1 atmosphere
Property: Normal melting temperature, K (Crystal); method: VISOBS
Normal melting temperature, K	uncertainty
178.1	4

System: propylbenzene; phases: Crystal, Liquid, Air at 1 atmosphere
Property: Normal melting temperature, K (Crystal); method: VISOBS
Normal melting temperature, K	uncertainty
174.1	4

System: decan-1-ol; phases: Crystal, Liquid, Air at 1 atmosphere
Property: Normal melting temperature, K (Crystal); method: VISOBS
Normal melting temperature, K	uncertainty
278.2	4

System: hexane; phases: Crystal, Liquid, Air at 1 atmosphere
Property: Normal melting temperature, K (Crystal); method: VISOBS
Normal melting temperature, K	uncertainty
178.8	4

System: hexadecane; phases: Crystal, Liquid, Air at 1 atmosphere
Property: Normal melting temperature, K (Crystal); method: VISOBS
Normal melting temperature, K	uncertainty
291.1	4

System: water + Didecyldimethylammonium nitrate; phases: Liquid, Crystal
Fixed: Pressure, kPa = 101
Property: Solid-liquid equilibrium temperature, K (Liquid); method: VISOBS
Mole fraction of Didecyldimethylammonium nitrate	Solid-liquid equilibrium temperature, K	uncertainty
0.08	275.1	4
0.1091	276.8	4
0.1378	277.4	4
0.1799	278.7	4
0.221	280.4	4
0.3845	284.5	4
0.5573	289.6	4
0.6722	294.4	4
0.7402	298.3	4
0.8554	300.5	4
1	304.8	4

System: propan-1-ol + Didecyldimethylammonium nitrate; phases: Liquid, Crystal
Fixed: Pressure, kPa = 101
Property: Solid-liquid equilibrium temperature, K (Liquid); method: VISOBS
Mole fraction of Didecyldimethylammonium nitrate	Solid-liquid equilibrium temperature, K	uncertainty
0.0042	223.5	4.4
0.0084	230.9	4.1
0.0247	240.9	4
0.0622	248.7	4
0.1214	258.1	4
0.214	269.2	4
0.287	275.3	4
0.3643	281.9	4
0.4193	283.1	4
0.4943	290.2	4
0.588	295	4
0.7177	296.1	4
0.8177	297.7	4
1	304.8	4

System: butan-1-ol + Didecyldimethylammonium nitrate; phases: Liquid, Crystal
Fixed: Pressure, kPa = 101
Property: Solid-liquid equilibrium temperature, K (Liquid); method: VISOBS
Mole fraction of Didecyldimethylammonium nitrate	Solid-liquid equilibrium temperature, K	uncertainty
0.0256	236.7	4
0.0597	242.2	4
0.1105	246.9	4
0.2044	257.2	4
0.3181	274.1	4
0.3747	283.9	4
0.4865	291.9	4
0.6159	299.9	4
0.7831	302	4
1	304.8	4

System: octan-1-ol + Didecyldimethylammonium nitrate; phases: Liquid, Crystal
Fixed: Pressure, kPa = 101
Property: Solid-liquid equilibrium temperature, K (Liquid); method: VISOBS
Mole fraction of Didecyldimethylammonium nitrate	Solid-liquid equilibrium temperature, K	uncertainty
0.0474	267.2	4
0.0885	269	4
0.1387	275	4
0.194	279.5	4
0.25	282.8	4
0.3384	288.4	4
0.4296	292.1	4
0.5142	293.1	4
0.5956	293.1	4
0.7062	298.3	4
0.8036	299.3	4
0.9409	301.3	4
1	304.8	4

System: toluene + Didecyldimethylammonium nitrate; phases: Liquid, Crystal
Fixed: Pressure, kPa = 101
Property: Solid-liquid equilibrium temperature, K (Liquid); method: VISOBS
Mole fraction of Didecyldimethylammonium nitrate	Solid-liquid equilibrium temperature, K	uncertainty
0.0463	271.8	4
0.0735	272.1	4
0.1372	273.3	4
0.2178	275.8	4
0.2788	278.1	4
0.3688	280.9	4
0.4671	282.8	4
0.5651	283.5	4
0.682	290.4	4
0.7594	294.9	4
0.8632	300	4
0.9501	304.7	4
1	304.8	4

System: propylbenzene + Didecyldimethylammonium nitrate; phases: Liquid, Crystal
Fixed: Pressure, kPa = 101
Property: Solid-liquid equilibrium temperature, K (Liquid); method: VISOBS
Mole fraction of Didecyldimethylammonium nitrate	Solid-liquid equilibrium temperature, K	uncertainty
0.0385	286.2	4
0.0529	287.1	4
0.0827	287.8	4
0.1422	288.3	4
0.2133	289.4	4
0.2914	290.7	4
0.3956	291.8	4
0.4825	291.7	4
0.5769	294.8	4
0.6823	299.3	4
0.7759	302.5	4
0.8604	303.4	4
0.9189	304.4	4
0.9676	303.4	4
1	304.8	4

System: decan-1-ol + Didecyldimethylammonium nitrate; phases: Liquid mixture 1, Liquid mixture 2, Crystal, Air at 1 atmosphere
Property: Quadruple (quintuple) point temperature, K (Liquid mixture 1); method: visual observation
Quadruple (quintuple) point temperature, K	uncertainty
303.7	2

System: decan-1-ol + Didecyldimethylammonium nitrate; phases: Liquid, Crystal
Fixed: Pressure, kPa = 101
Property: Solid-liquid equilibrium temperature, K (Liquid); method: VISOBS
Mole fraction of Didecyldimethylammonium nitrate	Solid-liquid equilibrium temperature, K	uncertainty
0.0444	286.9	4
0.0643	287.5	4
0.0967	289.3	4
0.1384	292	4
0.1923	295.4	4
0.2394	297.9	4

System: decan-1-ol + Didecyldimethylammonium nitrate; phases: Liquid mixture 1, Liquid mixture 2
Fixed: Pressure, kPa = 101
Property: Liquid-liquid equilibrium temperature, K (Liquid mixture 1); method: VISOBS
Mole fraction of Didecyldimethylammonium nitrate	Liquid-liquid equilibrium temperature, K	uncertainty
0.3012	306.7	4
0.3796	314.3	4
0.4164	316.2	4
0.4544	319.9	4
0.513	325.3	4
0.5572	331.9	4
0.6354	340.5	4
0.7027	349.7	4
0.789	355.8	4
0.9325	363.1	4

System: hexane + Didecyldimethylammonium nitrate; phases: Liquid mixture 1, Liquid mixture 2, Crystal, Air at 1 atmosphere
Property: Quadruple (quintuple) point temperature, K (Liquid mixture 1); method: visual observation
Quadruple (quintuple) point temperature, K	uncertainty
298.1	2

System: hexane + Didecyldimethylammonium nitrate; phases: Liquid, Crystal
Fixed: Pressure, kPa = 101
Property: Solid-liquid equilibrium temperature, K (Liquid); method: VISOBS
Mole fraction of Didecyldimethylammonium nitrate	Solid-liquid equilibrium temperature, K	uncertainty
0.5182	300.9	4
0.5717	299.7	4
0.641	302.8	4
0.695	299.2	4
0.7486	300.2	4
0.8176	298.3	4
0.8628	302.1	4
0.9167	302.5	4
0.966	304.5	4
1	304.8	4

System: hexane + Didecyldimethylammonium nitrate; phases: Liquid mixture 1, Liquid mixture 2
Fixed: Pressure, kPa = 101
Property: Liquid-liquid equilibrium temperature, K (Liquid mixture 1); method: VISOBS
Mole fraction of Didecyldimethylammonium nitrate	Liquid-liquid equilibrium temperature, K	uncertainty
0.3445	323.3	4
0.3756	315	4
0.4463	309.4	4
0.4868	303.7	4

System: hexadecane + Didecyldimethylammonium nitrate; phases: Liquid mixture 1, Liquid mixture 2, Crystal, Air at 1 atmosphere
Property: Quadruple (quintuple) point temperature, K (Liquid mixture 1); method: visual observation
Quadruple (quintuple) point temperature, K	uncertainty
303	2

System: hexadecane + Didecyldimethylammonium nitrate; phases: Liquid mixture 1, Liquid mixture 2
Fixed: Pressure, kPa = 101
Property: Liquid-liquid equilibrium temperature, K (Liquid mixture 1); method: VISOBS
Mole fraction of Didecyldimethylammonium nitrate	Liquid-liquid equilibrium temperature, K	uncertainty
0.7705	424.3	4
0.9159	411.9	4
0.9715	406.8	4
0.9918	393.7	4.1
