Measured thermophysical data. Densities and derived thermodynamic properties for the (n-heptane + n-octane), (n-heptane + ethanol) and (n-octane + ethanol) systems at high pressures
Source: J. Chem. Thermodyn., 2016, 10.1016/j.jct.2016.04.014
Compound 1: heptane, C7H16, InChI=1S/C7H16/c1-3-5-7-6-4-2/h3-7H2,1-2H3, purity 99%
Compound 2: octane, C8H18, InChI=1S/C8H18/c1-3-5-7-8-6-4-2/h3-8H2,1-2H3, purity 99%
Compound 3: ethanol, C2H6O, InChI=1S/C2H6O/c1-2-3/h3H,2H2,1H3, purity 99.9%

System: heptane; phases: Liquid
Property: Mass density, kg/m3 (Liquid); method: Vibrating tube method
Temperature, K	Pressure, kPa	Mass density, kg/m3	uncertainty
288.15	101	688.33	0.25
293.15	101	684.11	0.25
298.15	101	679.87	0.25
303.15	101	675.6	0.25
308.15	101	671.31	0.25
313.15	101	667	0.25
288.15	100	688.4	1.7
288.15	1000	689.2	1.7
288.15	5000	692.5	1.7
288.15	10000	696.5	1.7
288.15	15000	700.4	1.7
288.15	20000	704.1	1.8
288.15	25000	707.7	1.8
288.15	30000	711.1	1.8
288.15	35000	714.3	1.8
288.15	40000	717.4	1.8
288.15	45000	720.3	1.8
288.15	50000	723.1	1.8
288.15	55000	725.8	1.9
288.15	60000	728.2	1.9
293.15	100	684.2	1.7
293.15	1000	685	1.7
293.15	5000	688.4	1.7
293.15	10000	692.6	1.7
293.15	15000	696.5	1.7
293.15	20000	700.4	1.8
293.15	25000	704	1.8
293.15	30000	707.5	1.8
293.15	35000	710.9	1.8
293.15	40000	714	1.8
293.15	45000	717	1.8
293.15	50000	719.9	1.8
293.15	55000	722.5	1.9
293.15	60000	725.1	1.9
298.15	100	679.9	1.7
298.15	1000	680.7	1.7
298.15	5000	684.3	1.7
298.15	10000	688.6	1.7
298.15	15000	692.7	1.7
298.15	20000	696.6	1.8
298.15	25000	700.4	1.8
298.15	30000	704	1.8
298.15	35000	707.4	1.8
298.15	40000	710.7	1.8
298.15	45000	713.8	1.8
298.15	50000	716.7	1.8
298.15	55000	719.4	1.9
298.15	60000	721.9	1.9
303.15	100	675.7	1.7
303.15	1000	676.5	1.7
303.15	5000	680.2	1.7
303.15	10000	684.6	1.7
303.15	15000	688.9	1.7
303.15	20000	693	1.8
303.15	25000	696.8	1.8
303.15	30000	700.5	1.8
303.15	35000	704	1.8
303.15	40000	707.4	1.8
303.15	45000	710.5	1.8
303.15	50000	713.5	1.9
303.15	55000	716.2	1.9
303.15	60000	718.8	1.9
308.15	100	671.4	1.7
308.15	1000	672.2	1.7
308.15	5000	676	1.7
308.15	10000	680.6	1.7
308.15	15000	685	1.7
308.15	20000	689.2	1.8
308.15	25000	693.2	1.8
308.15	30000	697	1.8
308.15	35000	700.6	1.8
308.15	40000	704	1.8
308.15	45000	707.2	1.8
308.15	50000	710.3	1.9
308.15	55000	713.1	1.9
308.15	60000	715.7	1.9
313.15	100	667.1	1.7
313.15	1000	668	1.7
313.15	5000	672	1.7
313.15	10000	676.7	1.7
313.15	15000	681.2	1.7
313.15	20000	685.5	1.8
313.15	25000	689.6	1.8
313.15	30000	693.5	1.8
313.15	35000	697.2	1.8
313.15	40000	700.7	1.8
313.15	45000	704	1.8
313.15	50000	707.1	1.9
313.15	55000	709.9	1.9
313.15	60000	712.6	1.9
318.15	100	662.7	1.7
318.15	1000	663.6	1.7
318.15	5000	667.7	1.7
318.15	10000	672.6	1.7
318.15	15000	677.3	1.7
318.15	20000	681.8	1.8
318.15	25000	686	1.8
318.15	30000	690	1.8
318.15	35000	693.8	1.8
318.15	40000	697.4	1.8
318.15	45000	700.7	1.8
318.15	50000	703.9	1.9
318.15	55000	706.8	1.9
318.15	60000	709.5	1.9
323.15	100	658.3	1.7
323.15	1000	659.3	1.7
323.15	5000	663.5	1.7
323.15	10000	668.6	1.7
323.15	15000	673.4	1.7
323.15	20000	678	1.8
323.15	25000	682.4	1.8
323.15	30000	686.5	1.8
323.15	35000	690.4	1.8
323.15	40000	694.1	1.8
323.15	45000	697.5	1.8
323.15	50000	700.7	1.9
323.15	55000	703.7	1.9
323.15	60000	706.4	1.9
328.15	100	653.9	1.7
328.15	1000	654.9	1.7
328.15	5000	659.3	1.7
328.15	10000	664.5	1.7
328.15	15000	669.5	1.7
328.15	20000	674.3	1.8
328.15	25000	678.8	1.8
328.15	30000	683	1.8
328.15	35000	687	1.8
328.15	40000	690.8	1.8
328.15	45000	694.3	1.8
328.15	50000	697.6	1.9
328.15	55000	700.6	1.9
328.15	60000	703.3	1.9
333.15	100	649.5	1.7
333.15	1000	650.6	1.7
333.15	5000	655.1	1.7
333.15	10000	660.5	1.7
333.15	15000	665.7	1.8
333.15	20000	670.6	1.8
333.15	25000	675.2	1.8
333.15	30000	679.6	1.8
333.15	35000	683.7	1.8
333.15	40000	687.5	1.8
333.15	45000	691.1	1.8
333.15	50000	694.4	1.9
333.15	55000	697.4	1.9
333.15	60000	700.2	1.9
343.15	100	640.5	1.7
343.15	1000	641.6	1.7
343.15	5000	646.5	1.7
343.15	10000	652.3	1.7
343.15	15000	657.8	1.8
343.15	20000	663.1	1.8
343.15	25000	668	1.8
343.15	30000	672.6	1.8
343.15	35000	676.9	1.8
343.15	40000	681	1.8
343.15	45000	684.7	1.9
343.15	50000	688.1	1.9
343.15	55000	691.3	1.9
343.15	60000	694.1	1.9
353.15	100	631.3	1.7
353.15	1000	632.5	1.7
353.15	5000	637.8	1.7
353.15	10000	644	1.7
353.15	15000	649.9	1.8
353.15	20000	655.5	1.8
353.15	25000	660.7	1.8
353.15	30000	665.6	1.8
353.15	35000	670.2	1.8
353.15	40000	674.4	1.8
353.15	45000	678.3	1.9
353.15	50000	681.9	1.9
353.15	55000	685.1	1.9
353.15	60000	688	1.9
363.15	100	621.9	1.7
363.15	1000	623.2	1.7
363.15	5000	628.9	1.7
363.15	10000	635.6	1.7
363.15	15000	641.9	1.8
363.15	20000	647.9	1.8
363.15	25000	653.4	1.8
363.15	30000	658.6	1.8
363.15	35000	663.5	1.8
363.15	40000	667.9	1.8
363.15	45000	672	1.9
363.15	50000	675.7	1.9
363.15	55000	679	1.9
363.15	60000	681.9	1.9
373.15	1000	614.2	2.7
373.15	5000	620.2	2.7
373.15	10000	627.4	2.7
373.15	15000	634.1	2.7
373.15	20000	640.4	2.7
373.15	25000	646.3	2.8
373.15	30000	651.8	2.8
373.15	35000	656.9	2.8
373.15	40000	661.5	2.8
373.15	45000	665.8	2.8
373.15	50000	669.6	2.8
373.15	55000	673.1	2.8
373.15	60000	676.1	2.9
393.15	1000	594.6	2.7
393.15	5000	601.7	2.7
393.15	10000	610	2.7
393.15	15000	617.8	2.7
393.15	20000	625	2.7
393.15	25000	631.7	2.8
393.15	30000	637.9	2.8
393.15	35000	643.6	2.8
393.15	40000	648.7	2.8
393.15	45000	653.3	2.8
393.15	50000	657.4	2.8
393.15	55000	660.9	2.8
393.15	60000	663.9	2.9
413.15	1000	574.1	2.7
413.15	5000	582.3	2.7
413.15	10000	592	2.7
413.15	15000	600.9	2.7
413.15	20000	609.2	2.8
413.15	25000	616.9	2.8
413.15	30000	623.9	2.8
413.15	35000	630.2	2.8
413.15	40000	635.9	2.8
413.15	45000	640.9	2.8
413.15	50000	645.2	2.8
413.15	55000	648.9	2.9
413.15	60000	651.9	2.9

System: octane; phases: Liquid
Property: Mass density, kg/m3 (Liquid); method: Vibrating tube method
Temperature, K	Pressure, kPa	Mass density, kg/m3	uncertainty
293.15	101	702.58	0.25
303.15	101	694.48	0.25
313.15	101	686.32	0.25
323.15	101	678.09	0.25
288.15	100	706.5	1.7
288.15	1000	707.2	1.7
288.15	5000	710.3	1.7
288.15	10000	714.1	1.7
288.15	15000	717.7	1.7
288.15	20000	721.2	1.8
288.15	25000	724.5	1.8
288.15	30000	727.7	1.8
288.15	35000	730.8	1.8
288.15	40000	733.7	1.8
288.15	45000	736.5	1.8
288.15	50000	739.2	1.8
288.15	55000	741.7	1.8
288.15	60000	744.1	1.9
293.15	100	702.5	1.7
293.15	1000	703.2	1.7
293.15	5000	706.4	1.7
293.15	10000	710.3	1.7
293.15	15000	714	1.7
293.15	20000	717.6	1.8
293.15	25000	721	1.8
293.15	30000	724.3	1.8
293.15	35000	727.5	1.8
293.15	40000	730.5	1.8
293.15	45000	733.3	1.8
293.15	50000	736	1.8
293.15	55000	738.6	1.9
293.15	60000	741	1.9
298.15	100	698.5	1.7
298.15	1000	699.2	1.7
298.15	5000	702.5	1.7
298.15	10000	706.5	1.7
298.15	15000	710.3	1.7
298.15	20000	714	1.8
298.15	25000	717.6	1.8
298.15	30000	720.9	1.8
298.15	35000	724.1	1.8
298.15	40000	727.2	1.8
298.15	45000	730.1	1.8
298.15	50000	732.9	1.8
298.15	55000	735.5	1.9
298.15	60000	738	1.9
303.15	100	694.4	1.7
303.15	1000	695.2	1.7
303.15	5000	698.6	1.7
303.15	10000	702.7	1.7
303.15	15000	706.7	1.7
303.15	20000	710.5	1.8
303.15	25000	714.1	1.8
303.15	30000	717.5	1.8
303.15	35000	720.9	1.8
303.15	40000	724	1.8
303.15	45000	727	1.8
303.15	50000	729.8	1.8
303.15	55000	732.5	1.9
303.15	60000	735	1.9
308.15	100	690.4	1.7
308.15	1000	691.2	1.7
308.15	5000	694.7	1.7
308.15	10000	698.9	1.7
308.15	15000	703	1.7
308.15	20000	706.9	1.8
308.15	25000	710.6	1.8
308.15	30000	714.2	1.8
308.15	35000	717.5	1.8
308.15	40000	720.8	1.8
308.15	45000	723.8	1.8
308.15	50000	726.7	1.8
308.15	55000	729.4	1.9
308.15	60000	731.9	1.9
313.15	100	686.3	1.7
313.15	1000	687.1	1.7
313.15	5000	690.8	1.7
313.15	10000	695.1	1.7
313.15	15000	699.3	1.7
313.15	20000	703.3	1.8
313.15	25000	707.2	1.8
313.15	30000	710.8	1.8
313.15	35000	714.3	1.8
313.15	40000	717.6	1.8
313.15	45000	720.7	1.8
313.15	50000	723.6	1.8
313.15	55000	726.3	1.9
313.15	60000	728.9	1.9
318.15	100	682.2	1.7
318.15	1000	683	1.7
318.15	5000	686.8	1.7
318.15	10000	691.3	1.7
318.15	15000	695.6	1.7
318.15	20000	699.7	1.8
318.15	25000	703.6	1.8
318.15	30000	707.4	1.8
318.15	35000	711	1.8
318.15	40000	714.3	1.8
318.15	45000	717.5	1.8
318.15	50000	720.5	1.8
318.15	55000	723.3	1.9
318.15	60000	725.9	1.9
323.15	100	678	1.7
323.15	1000	678.9	1.7
323.15	5000	682.8	1.7
323.15	10000	687.4	1.7
323.15	15000	691.9	1.7
323.15	20000	696.1	1.8
323.15	25000	700.2	1.8
323.15	30000	704	1.8
323.15	35000	707.7	1.8
323.15	40000	711.1	1.8
323.15	45000	714.4	1.8
323.15	50000	717.4	1.8
323.15	55000	720.3	1.9
323.15	60000	722.9	1.9
328.15	100	673.8	1.7
328.15	1000	674.7	1.7
328.15	5000	678.7	1.7
328.15	10000	683.5	1.7
328.15	15000	688.1	1.7
328.15	20000	692.5	1.8
328.15	25000	696.7	1.8
328.15	30000	700.7	1.8
328.15	35000	704.4	1.8
328.15	40000	707.9	1.8
328.15	45000	711.3	1.8
328.15	50000	714.4	1.9
328.15	55000	717.3	1.9
328.15	60000	719.9	1.9
333.15	100	669.7	1.7
333.15	1000	670.6	1.7
333.15	5000	674.8	1.7
333.15	10000	679.7	1.7
333.15	15000	684.5	1.7
333.15	20000	689	1.8
333.15	25000	693.2	1.8
333.15	30000	697.3	1.8
333.15	35000	701.1	1.8
333.15	40000	704.7	1.8
333.15	45000	708.1	1.8
333.15	50000	711.3	1.9
333.15	55000	714.2	1.9
333.15	60000	716.9	1.9
343.15	100	661.2	1.7
343.15	1000	662.2	1.7
343.15	5000	666.6	1.7
343.15	10000	671.9	1.7
343.15	15000	677	1.7
343.15	20000	681.8	1.8
343.15	25000	686.3	1.8
343.15	30000	690.6	1.8
343.15	35000	694.6	1.8
343.15	40000	698.4	1.8
343.15	45000	701.9	1.8
343.15	50000	705.2	1.9
343.15	55000	708.2	1.9
343.15	60000	711	1.9
353.15	100	652.6	1.7
353.15	1000	653.7	1.7
353.15	5000	658.4	1.7
353.15	10000	664.1	1.7
353.15	15000	669.4	1.8
353.15	20000	674.5	1.8
353.15	25000	679.3	1.8
353.15	30000	683.9	1.8
353.15	35000	688.1	1.8
353.15	40000	692.1	1.8
353.15	45000	695.7	1.8
353.15	50000	699.1	1.9
353.15	55000	702.3	1.9
353.15	60000	705.1	1.9
363.15	100	643.8	1.7
363.15	1000	645	1.7
363.15	5000	650.1	1.7
363.15	10000	656.1	1.7
363.15	15000	661.9	1.8
363.15	20000	667.3	1.8
363.15	25000	672.4	1.8
363.15	30000	677.2	1.8
363.15	35000	681.6	1.8
363.15	40000	685.8	1.8
363.15	45000	689.6	1.8
363.15	50000	693.1	1.9
363.15	55000	696.3	1.9
363.15	60000	699.2	1.9
373.15	100	634.7	2.7
373.15	1000	636.3	2.7
373.15	5000	641.8	2.7
373.15	10000	648.2	2.7
373.15	15000	654.4	2.7
373.15	20000	660.1	2.7
373.15	25000	665.5	2.8
373.15	30000	670.6	2.8
373.15	35000	675.3	2.8
373.15	40000	679.6	2.8
373.15	45000	683.6	2.8
373.15	50000	687.3	2.8
373.15	55000	690.5	2.8
373.15	60000	693.5	2.8
393.15	100	616.3	2.7
393.15	1000	618.1	2.7
393.15	5000	624.3	2.7
393.15	10000	631.8	2.7
393.15	15000	638.8	2.7
393.15	20000	645.3	2.7
393.15	25000	651.5	2.8
393.15	30000	657.1	2.8
393.15	35000	662.3	2.8
393.15	40000	667.1	2.8
393.15	45000	671.4	2.8
393.15	50000	675.3	2.8
393.15	55000	678.8	2.8
393.15	60000	681.8	2.8
413.15	1000	599.3	2.7
413.15	5000	606.6	2.7
413.15	10000	615.1	2.7
413.15	15000	623.1	2.7
413.15	20000	630.6	2.7
413.15	25000	637.4	2.8
413.15	30000	643.8	2.8
413.15	35000	649.6	2.8
413.15	40000	654.8	2.8
413.15	45000	659.5	2.8
413.15	50000	663.6	2.8
413.15	55000	667.2	2.8
413.15	60000	670.2	2.9

System: ethanol; phases: Liquid
Property: Mass density, kg/m3 (Liquid); method: Vibrating tube method
Temperature, K	Pressure, kPa	Mass density, kg/m3	uncertainty
303.15	101	780.83	0.15
313.15	101	772.1	0.15
323.15	101	763.22	0.15
288.15	100	793.7	1.7
288.15	1000	794.4	1.7
288.15	5000	797.6	1.7
288.15	10000	801.5	1.7
288.15	15000	805.3	1.7
288.15	20000	808.9	1.7
288.15	25000	812.4	1.7
288.15	30000	815.7	1.7
288.15	35000	819	1.7
288.15	40000	822.1	1.7
288.15	45000	825.1	1.7
288.15	50000	828	1.7
288.15	55000	830.7	1.8
288.15	60000	833.3	1.8
293.15	100	789.4	1.7
293.15	1000	790.2	1.7
293.15	5000	793.5	1.7
293.15	10000	797.4	1.7
293.15	15000	801.3	1.7
293.15	20000	805	1.7
293.15	25000	808.6	1.7
293.15	30000	812	1.7
293.15	35000	815.3	1.7
293.15	40000	818.5	1.7
293.15	45000	821.5	1.7
293.15	50000	824.5	1.7
293.15	55000	827.2	1.8
293.15	60000	829.9	1.8
298.15	100	785.2	1.7
298.15	1000	785.9	1.7
298.15	5000	789.3	1.7
298.15	10000	793.4	1.7
298.15	15000	797.3	1.7
298.15	20000	801.1	1.7
298.15	25000	804.8	1.7
298.15	30000	808.3	1.7
298.15	35000	811.7	1.7
298.15	40000	814.9	1.7
298.15	45000	818	1.7
298.15	50000	821	1.8
298.15	55000	823.8	1.8
298.15	60000	826.5	1.8
303.15	100	780.9	1.7
303.15	1000	781.6	1.7
303.15	5000	785.1	1.7
303.15	10000	789.3	1.7
303.15	15000	793.3	1.7
303.15	20000	797.2	1.7
303.15	25000	801	1.7
303.15	30000	804.6	1.7
303.15	35000	808	1.7
303.15	40000	811.3	1.7
303.15	45000	814.5	1.7
303.15	50000	817.5	1.8
303.15	55000	820.3	1.8
303.15	60000	823.1	1.8
308.15	100	776.5	1.7
308.15	1000	777.3	1.7
308.15	5000	780.9	1.7
308.15	10000	785.2	1.7
308.15	15000	789.3	1.7
308.15	20000	793.3	1.7
308.15	25000	797.1	1.7
308.15	30000	800.8	1.7
308.15	35000	804.3	1.7
308.15	40000	807.7	1.7
308.15	45000	810.9	1.7
308.15	50000	814	1.8
308.15	55000	816.9	1.8
308.15	60000	819.6	1.8
313.15	100	772.1	1.7
313.15	1000	773	1.7
313.15	5000	776.6	1.7
313.15	10000	781	1.7
313.15	15000	785.3	1.7
313.15	20000	789.4	1.7
313.15	25000	793.3	1.7
313.15	30000	797	1.7
313.15	35000	800.6	1.7
313.15	40000	804.1	1.7
313.15	45000	807.4	1.7
313.15	50000	810.5	1.8
313.15	55000	813.4	1.8
313.15	60000	816.2	1.8
318.15	100	767.7	1.7
318.15	1000	768.5	1.7
318.15	5000	772.3	1.7
318.15	10000	776.8	1.7
318.15	15000	781.2	1.7
318.15	20000	785.4	1.7
318.15	25000	789.4	1.7
318.15	30000	793.2	1.7
318.15	35000	796.9	1.7
318.15	40000	800.4	1.7
318.15	45000	803.8	1.8
318.15	50000	806.9	1.8
318.15	55000	809.9	1.8
318.15	60000	812.8	1.8
323.15	100	763.2	1.7
323.15	1000	764.1	1.7
323.15	5000	768	1.7
323.15	10000	772.6	1.7
323.15	15000	777.1	1.7
323.15	20000	781.4	1.7
323.15	25000	785.5	1.7
323.15	30000	789.4	1.7
323.15	35000	793.2	1.7
323.15	40000	796.8	1.7
323.15	45000	800.2	1.8
323.15	50000	803.4	1.8
323.15	55000	806.5	1.8
323.15	60000	809.3	1.8
328.15	100	758.7	1.7
328.15	1000	759.6	1.7
328.15	5000	763.6	1.7
328.15	10000	768.3	1.7
328.15	15000	772.9	1.7
328.15	20000	777.3	1.7
328.15	25000	781.6	1.7
328.15	30000	785.6	1.7
328.15	35000	789.5	1.7
328.15	40000	793.1	1.7
328.15	45000	796.6	1.8
328.15	50000	799.9	1.8
328.15	55000	803	1.8
328.15	60000	805.9	1.8
333.15	100	754.1	1.7
333.15	1000	755	1.7
333.15	5000	759.1	1.7
333.15	10000	764	1.7
333.15	15000	768.8	1.7
333.15	20000	773.3	1.7
333.15	25000	777.6	1.7
333.15	30000	781.7	1.7
333.15	35000	785.7	1.7
333.15	40000	789.4	1.7
333.15	45000	792.9	1.8
333.15	50000	796.3	1.8
333.15	55000	799.4	1.8
333.15	60000	802.4	1.8
343.15	100	744.6	1.7
343.15	1000	745.6	1.7
343.15	5000	750	1.7
343.15	10000	755.2	1.7
343.15	15000	760.2	1.7
343.15	20000	765	1.7
343.15	25000	769.6	1.7
343.15	30000	773.9	1.7
343.15	35000	778	1.7
343.15	40000	781.9	1.8
343.15	45000	785.6	1.8
343.15	50000	789.1	1.8
343.15	55000	792.3	1.8
343.15	60000	795.3	1.8
353.15	1000	736	1.7
353.15	5000	740.6	1.7
353.15	10000	746.2	1.7
353.15	15000	751.5	1.7
353.15	20000	756.5	1.7
353.15	25000	761.3	1.7
353.15	30000	765.9	1.7
353.15	35000	770.2	1.7
353.15	40000	774.3	1.8
353.15	45000	778.1	1.8
353.15	50000	781.7	1.8
353.15	55000	785.1	1.8
353.15	60000	788.2	1.8
363.15	1000	725.9	1.7
363.15	5000	730.8	1.7
363.15	10000	736.7	1.7
363.15	15000	742.4	1.7
363.15	20000	747.7	1.7
363.15	25000	752.8	1.7
363.15	30000	757.7	1.7
363.15	35000	762.2	1.8
363.15	40000	766.5	1.8
363.15	45000	770.5	1.8
363.15	50000	774.3	1.8
363.15	55000	777.7	1.8
363.15	60000	780.9	1.8
373.15	1000	715.3	2.7
373.15	5000	720.6	2.7
373.15	10000	727	2.7
373.15	15000	733	2.7
373.15	20000	738.7	2.7
373.15	25000	744.2	2.7
373.15	30000	749.3	2.7
373.15	35000	754.1	2.7
373.15	40000	758.6	2.7
373.15	45000	762.8	2.7
373.15	50000	766.7	2.8
373.15	55000	770.2	2.8
373.15	60000	773.5	2.8
393.15	1000	692.2	2.7
393.15	5000	698.4	2.7
393.15	10000	705.8	2.7
393.15	15000	712.8	2.7
393.15	20000	719.4	2.7
393.15	25000	725.6	2.7
393.15	30000	731.4	2.7
393.15	35000	736.8	2.7
393.15	40000	741.8	2.7
393.15	45000	746.4	2.8
393.15	50000	750.7	2.8
393.15	55000	754.5	2.8
393.15	60000	757.9	2.8
413.15	1000	666.3	2.7
413.15	5000	673.6	2.7
413.15	10000	682.3	2.7
413.15	15000	690.5	2.7
413.15	20000	698.1	2.7
413.15	25000	705.3	2.7
413.15	30000	712	2.7
413.15	35000	718.2	2.7
413.15	40000	723.8	2.8
413.15	45000	729	2.8
413.15	50000	733.7	2.8
413.15	55000	737.9	2.8
413.15	60000	741.5	2.8

System: octane + heptane; phases: Liquid
Property: Mass density, kg/m3 (Liquid); method: Vibrating tube method
Mole fraction of heptane	Temperature, K	Pressure, kPa	Mass density, kg/m3	uncertainty
0.25	293.15	100	698.22	1.72
0.25	293.15	500	698.6	1.7
0.25	293.15	5000	702.4	1.7
0.25	293.15	10000	706.4	1.7
0.25	293.15	15000	710.2	1.7
0.25	293.15	20000	713.8	1.8
0.25	293.15	25000	717.2	1.8
0.25	293.15	30000	720.4	1.8
0.25	293.15	35000	723.6	1.8
0.25	293.15	40000	726.6	1.8
0.25	303.15	100	690.1	1.7
0.25	303.15	500	690.4	1.7
0.25	303.15	5000	694.5	1.7
0.25	303.15	10000	698.8	1.7
0.25	303.15	15000	702.8	1.7
0.25	303.15	20000	706.6	1.8
0.25	303.15	25000	710.2	1.8
0.25	303.15	30000	713.6	1.8
0.25	303.15	35000	716.9	1.8
0.25	303.15	40000	720.1	1.8
0.25	313.15	100	681.8	1.7
0.25	313.15	500	682.2	1.7
0.25	313.15	5000	686.5	1.7
0.25	313.15	10000	691.1	1.7
0.25	313.15	15000	695.4	1.7
0.25	313.15	20000	699.4	1.8
0.25	313.15	25000	703.2	1.8
0.25	313.15	30000	706.8	1.8
0.25	313.15	35000	710.2	1.8
0.25	313.15	40000	713.5	1.8
0.25	323.15	100	673.4	1.7
0.25	323.15	500	673.8	1.7
0.25	323.15	5000	678.5	1.7
0.25	323.15	10000	683.4	1.7
0.25	323.15	15000	687.9	1.7
0.25	323.15	20000	692.1	1.8
0.25	323.15	25000	696.1	1.8
0.25	323.15	30000	699.9	1.8
0.25	323.15	35000	703.6	1.8
0.25	323.15	40000	707	1.8
0.25	333.15	100	664.9	1.7
0.25	333.15	500	665.4	1.7
0.25	333.15	5000	670.4	1.7
0.25	333.15	10000	675.6	1.7
0.25	333.15	15000	680.4	1.7
0.25	333.15	20000	684.9	1.8
0.25	333.15	25000	689.2	1.8
0.25	333.15	30000	693.2	1.8
0.25	333.15	35000	696.9	1.8
0.25	333.15	40000	700.6	1.8
0.25	353.15	100	647.5	1.7
0.25	353.15	500	648.1	1.7
0.25	353.15	5000	653.9	1.7
0.25	353.15	10000	659.9	1.7
0.25	353.15	15000	665.4	1.8
0.25	353.15	20000	670.5	1.8
0.25	353.15	25000	675.2	1.8
0.25	353.15	30000	679.6	1.8
0.25	353.15	35000	683.7	1.8
0.25	353.15	40000	687.7	1.8
0.25	373.15	500	630.3	2.7
0.25	373.15	5000	637.1	2.7
0.25	373.15	10000	644.1	2.7
0.25	373.15	15000	650.3	2.7
0.25	373.15	20000	656	2.7
0.25	373.15	25000	661.2	2.8
0.25	373.15	30000	666.1	2.8
0.25	373.15	35000	670.7	2.8
0.25	373.15	40000	675.1	2.8
0.5002	293.15	100	693.9	1.7
0.5002	293.15	500	694.3	1.7
0.5002	293.15	5000	698.1	1.7
0.5002	293.15	10000	702.2	1.7
0.5002	293.15	15000	706	1.7
0.5002	293.15	20000	709.7	1.8
0.5002	293.15	25000	713.2	1.8
0.5002	293.15	30000	716.5	1.8
0.5002	293.15	35000	719.6	1.8
0.5002	293.15	40000	722.7	1.8
0.5002	303.15	100	685.6	1.7
0.5002	303.15	500	686	1.7
0.5002	303.15	5000	690.2	1.7
0.5002	303.15	10000	694.5	1.7
0.5002	303.15	15000	698.6	1.7
0.5002	303.15	20000	702.5	1.8
0.5002	303.15	25000	706.1	1.8
0.5002	303.15	30000	709.6	1.8
0.5002	303.15	35000	712.9	1.8
0.5002	303.15	40000	716.1	1.8
0.5002	313.15	100	677.3	1.7
0.5002	313.15	500	677.7	1.7
0.5002	313.15	5000	682.1	1.7
0.5002	313.15	10000	686.8	1.7
0.5002	313.15	15000	691.1	1.7
0.5002	313.15	20000	695.2	1.8
0.5002	313.15	25000	699.1	1.8
0.5002	313.15	30000	702.7	1.8
0.5002	313.15	35000	706.2	1.8
0.5002	313.15	40000	709.6	1.8
0.5002	323.15	100	668.7	1.7
0.5002	323.15	500	669.2	1.7
0.5002	323.15	5000	674	1.7
0.5002	323.15	10000	678.9	1.7
0.5002	323.15	15000	683.6	1.7
0.5002	323.15	20000	687.9	1.8
0.5002	323.15	25000	692	1.8
0.5002	323.15	30000	695.8	1.8
0.5002	323.15	35000	699.5	1.8
0.5002	323.15	40000	703	1.8
0.5002	333.15	100	660.2	1.7
0.5002	333.15	500	660.6	1.7
0.5002	333.15	5000	665.8	1.7
0.5002	333.15	10000	671.1	1.7
0.5002	333.15	15000	676	1.7
0.5002	333.15	20000	680.6	1.8
0.5002	333.15	25000	684.9	1.8
0.5002	333.15	30000	689	1.8
0.5002	333.15	35000	692.8	1.8
0.5002	333.15	40000	696.5	1.8
0.5002	353.15	100	642.5	1.7
0.5002	353.15	500	643.1	1.7
0.5002	353.15	5000	649.1	1.7
0.5002	353.15	10000	655.2	1.7
0.5002	353.15	15000	660.8	1.8
0.5002	353.15	20000	666	1.8
0.5002	353.15	25000	670.8	1.8
0.5002	353.15	30000	675.3	1.8
0.5002	353.15	35000	679.5	1.8
0.5002	353.15	40000	683.6	1.8
0.5002	373.15	500	625	2.7
0.5002	373.15	5000	632	2.7
0.5002	373.15	10000	639.2	2.7
0.5002	373.15	15000	645.6	2.7
0.5002	373.15	20000	651.4	2.7
0.5002	373.15	25000	656.7	2.8
0.5002	373.15	30000	661.7	2.8
0.5002	373.15	35000	666.3	2.8
0.5002	373.15	40000	670.8	2.8
0.7502	293.15	100	689	1.7
0.7502	293.15	500	689.4	1.7
0.7502	293.15	5000	693.4	1.7
0.7502	293.15	10000	697.5	1.7
0.7502	293.15	15000	701.4	1.7
0.7502	293.15	20000	705.1	1.8
0.7502	293.15	25000	708.7	1.8
0.7502	293.15	30000	712	1.8
0.7502	293.15	35000	715.2	1.8
0.7502	293.15	40000	718.4	1.8
0.7502	303.15	100	680.7	1.7
0.7502	303.15	500	681	1.7
0.7502	303.15	5000	685.3	1.7
0.7502	303.15	10000	689.7	1.7
0.7502	303.15	15000	693.9	1.7
0.7502	303.15	20000	697.8	1.8
0.7502	303.15	25000	701.6	1.8
0.7502	303.15	30000	705.1	1.8
0.7502	303.15	35000	708.5	1.8
0.7502	303.15	40000	711.7	1.8
0.7502	313.15	100	672.2	1.7
0.7502	313.15	500	672.6	1.7
0.7502	313.15	5000	677.2	1.7
0.7502	313.15	10000	681.9	1.7
0.7502	313.15	15000	686.3	1.7
0.7502	313.15	20000	690.5	1.8
0.7502	313.15	25000	694.4	1.8
0.7502	313.15	30000	698.1	1.8
0.7502	313.15	35000	701.7	1.8
0.7502	313.15	40000	705.1	1.8
0.7502	323.15	100	663.5	1.7
0.7502	323.15	500	664	1.7
0.7502	323.15	5000	668.9	1.7
0.7502	323.15	10000	674	1.7
0.7502	323.15	15000	678.7	1.7
0.7502	323.15	20000	683.1	1.8
0.7502	323.15	25000	687.3	1.8
0.7502	323.15	30000	691.2	1.8
0.7502	323.15	35000	694.9	1.8
0.7502	323.15	40000	698.5	1.8
0.7502	333.15	100	654.8	1.7
0.7502	333.15	500	655.3	1.7
0.7502	333.15	5000	660.6	1.7
0.7502	333.15	10000	666	1.7
0.7502	333.15	15000	671.1	1.7
0.7502	333.15	20000	675.8	1.8
0.7502	333.15	25000	680.2	1.8
0.7502	333.15	30000	684.3	1.8
0.7502	333.15	35000	688.2	1.8
0.7502	333.15	40000	692	1.8
0.7502	353.15	100	636.9	1.7
0.7502	353.15	500	637.4	1.7
0.7502	353.15	5000	643.6	1.7
0.7502	353.15	10000	649.9	1.7
0.7502	353.15	15000	655.7	1.8
0.7502	353.15	20000	661	1.8
0.7502	353.15	25000	665.9	1.8
0.7502	353.15	30000	670.4	1.8
0.7502	353.15	35000	674.7	1.8
0.7502	353.15	40000	678.9	1.8
0.7502	373.15	500	619	2.7
0.7502	373.15	5000	626.3	2.7
0.7502	373.15	10000	633.6	2.7
0.7502	373.15	15000	640.2	2.7
0.7502	373.15	20000	646.2	2.7
0.7502	373.15	25000	651.7	2.8
0.7502	373.15	30000	656.7	2.8
0.7502	373.15	35000	661.5	2.8
0.7502	373.15	40000	666	2.8

System: ethanol + heptane; phases: Liquid
Property: Mass density, kg/m3 (Liquid); method: Vibrating tube method
Mole fraction of heptane	Temperature, K	Pressure, kPa	Mass density, kg/m3	uncertainty
0.2505	293.15	100	737.7	1.7
0.2505	293.15	500	738.1	1.7
0.2505	293.15	5000	742.1	1.7
0.2505	293.15	10000	746.4	1.7
0.2505	293.15	15000	750.4	1.7
0.2505	293.15	20000	754.3	1.7
0.2505	293.15	25000	757.9	1.7
0.2505	293.15	30000	761.4	1.7
0.2505	293.15	35000	764.7	1.8
0.2505	293.15	40000	768	1.8
0.2505	303.15	100	728.9	1.7
0.2505	303.15	500	729.3	1.7
0.2505	303.15	5000	733.6	1.7
0.2505	303.15	10000	738.2	1.7
0.2505	303.15	15000	742.4	1.7
0.2505	303.15	20000	746.5	1.7
0.2505	303.15	25000	750.3	1.7
0.2505	303.15	30000	754	1.7
0.2505	303.15	35000	757.5	1.8
0.2505	303.15	40000	760.8	1.8
0.2505	313.15	100	719.9	1.7
0.2505	313.15	500	720.3	1.7
0.2505	313.15	5000	725	1.7
0.2505	313.15	10000	729.8	1.7
0.2505	313.15	15000	734.3	1.7
0.2505	313.15	20000	738.6	1.7
0.2505	313.15	25000	742.6	1.7
0.2505	313.15	30000	746.5	1.7
0.2505	313.15	35000	750.1	1.8
0.2505	313.15	40000	753.7	1.8
0.2505	323.15	100	710.6	1.7
0.2505	323.15	500	711.1	1.7
0.2505	323.15	5000	716.1	1.7
0.2505	323.15	10000	721.2	1.7
0.2505	323.15	15000	726.1	1.7
0.2505	323.15	20000	730.6	1.7
0.2505	323.15	25000	734.8	1.7
0.2505	323.15	30000	738.9	1.8
0.2505	323.15	35000	742.7	1.8
0.2505	323.15	40000	746.4	1.8
0.2505	333.15	100	701.1	1.7
0.2505	333.15	500	701.6	1.7
0.2505	333.15	5000	706.9	1.7
0.2505	333.15	10000	712.5	1.7
0.2505	333.15	15000	717.6	1.7
0.2505	333.15	20000	722.4	1.7
0.2505	333.15	25000	726.9	1.7
0.2505	333.15	30000	731.2	1.8
0.2505	333.15	35000	735.2	1.8
0.2505	333.15	40000	739.1	1.8
0.2505	353.15	500	681.4	1.7
0.2505	353.15	5000	687.7	1.7
0.2505	353.15	10000	694.1	1.7
0.2505	353.15	15000	700	1.7
0.2505	353.15	20000	705.5	1.7
0.2505	353.15	25000	710.5	1.7
0.2505	353.15	30000	715.3	1.8
0.2505	353.15	35000	719.7	1.8
0.2505	353.15	40000	724	1.8
0.2505	373.15	500	659.3	2.7
0.2505	373.15	5000	666.9	2.7
0.2505	373.15	10000	674.5	2.7
0.2505	373.15	15000	681.4	2.7
0.2505	373.15	20000	687.6	2.7
0.2505	373.15	25000	693.3	2.7
0.2505	373.15	30000	698.6	2.7
0.2505	373.15	35000	703.6	2.7
0.2505	373.15	40000	708.4	2.8
0.5004	293.15	100	711	1.8
0.5004	293.15	500	711.3	1.8
0.5004	293.15	5000	715.4	1.7
0.5004	293.15	10000	719.8	1.7
0.5004	293.15	15000	723.8	1.7
0.5004	293.15	20000	727.7	1.7
0.5004	293.15	25000	731.3	1.7
0.5004	293.15	30000	734.8	1.8
0.5004	293.15	35000	738.1	1.8
0.5004	293.15	40000	741.4	1.8
0.5004	303.15	100	702.1	1.7
0.5004	303.15	500	702.5	1.7
0.5004	303.15	5000	706.9	1.7
0.5004	303.15	10000	711.5	1.7
0.5004	303.15	15000	715.8	1.7
0.5004	303.15	20000	719.9	1.7
0.5004	303.15	25000	723.8	1.7
0.5004	303.15	30000	727.4	1.8
0.5004	303.15	35000	730.9	1.8
0.5004	303.15	40000	734.3	1.8
0.5004	313.15	100	693	1.7
0.5004	313.15	500	693.4	1.7
0.5004	313.15	5000	698.2	1.7
0.5004	313.15	10000	703.1	1.7
0.5004	313.15	15000	707.7	1.7
0.5004	313.15	20000	712	1.7
0.5004	313.15	25000	716.1	1.8
0.5004	313.15	30000	720	1.8
0.5004	313.15	35000	723.7	1.8
0.5004	313.15	40000	727.2	1.8
0.5004	323.15	100	683.6	1.7
0.5004	323.15	500	684.1	1.7
0.5004	323.15	5000	689.2	1.7
0.5004	323.15	10000	694.5	1.7
0.5004	323.15	15000	699.4	1.7
0.5004	323.15	20000	704	1.7
0.5004	323.15	25000	708.4	1.8
0.5004	323.15	30000	712.4	1.8
0.5004	323.15	35000	716.3	1.8
0.5004	323.15	40000	720.1	1.8
0.5004	333.15	100	674	1.8
0.5004	333.15	500	674.5	1.7
0.5004	333.15	5000	680	1.7
0.5004	333.15	10000	685.7	1.7
0.5004	333.15	15000	691	1.7
0.5004	333.15	20000	695.9	1.7
0.5004	333.15	25000	700.5	1.8
0.5004	333.15	30000	704.8	1.8
0.5004	333.15	35000	708.9	1.8
0.5004	333.15	40000	712.8	1.8
0.5004	353.15	500	654.2	1.7
0.5004	353.15	5000	660.8	1.7
0.5004	353.15	10000	667.5	1.7
0.5004	353.15	15000	673.6	1.7
0.5004	353.15	20000	679.1	1.7
0.5004	353.15	25000	684.3	1.8
0.5004	353.15	30000	689.1	1.8
0.5004	353.15	35000	693.7	1.8
0.5004	353.15	40000	698.1	1.8
0.5004	373.15	500	632.2	2.7
0.5004	373.15	5000	640.2	2.7
0.5004	373.15	10000	648.1	2.7
0.5004	373.15	15000	655.3	2.7
0.5004	373.15	20000	661.7	2.7
0.5004	373.15	25000	667.5	2.7
0.5004	373.15	30000	672.9	2.8
0.5004	373.15	35000	678	2.8
0.5004	373.15	40000	682.9	2.8
0.7501	293.15	100	694.3	1.7
0.7501	293.15	500	694.6	1.7
0.7501	293.15	5000	698.7	1.7
0.7501	293.15	10000	703	1.7
0.7501	293.15	15000	707.1	1.7
0.7501	293.15	20000	710.9	1.7
0.7501	293.15	25000	714.6	1.8
0.7501	293.15	30000	718	1.8
0.7501	293.15	35000	721.4	1.8
0.7501	293.15	40000	724.6	1.8
0.7501	303.15	100	685.4	1.7
0.7501	303.15	500	685.8	1.7
0.7501	303.15	5000	690.3	1.7
0.7501	303.15	10000	694.9	1.7
0.7501	303.15	15000	699.2	1.7
0.7501	303.15	20000	703.3	1.7
0.7501	303.15	25000	707.1	1.8
0.7501	303.15	30000	710.8	1.8
0.7501	303.15	35000	714.3	1.8
0.7501	303.15	40000	717.6	1.8
0.7501	313.15	100	676.4	1.7
0.7501	313.15	500	676.9	1.7
0.7501	313.15	5000	681.6	1.7
0.7501	313.15	10000	686.6	1.7
0.7501	313.15	15000	691.2	1.7
0.7501	313.15	20000	695.5	1.8
0.7501	313.15	25000	699.6	1.8
0.7501	313.15	30000	703.4	1.8
0.7501	313.15	35000	707.1	1.8
0.7501	313.15	40000	710.6	1.8
0.7501	323.15	100	667.2	1.7
0.7501	323.15	500	667.6	1.7
0.7501	323.15	5000	672.8	1.7
0.7501	323.15	10000	678.1	1.7
0.7501	323.15	15000	683	1.7
0.7501	323.15	20000	687.7	1.8
0.7501	323.15	25000	692	1.8
0.7501	323.15	30000	696	1.8
0.7501	323.15	35000	699.9	1.8
0.7501	323.15	40000	703.6	1.8
0.7501	333.15	100	657.7	1.7
0.7501	333.15	500	658.2	1.7
0.7501	333.15	5000	663.8	1.7
0.7501	333.15	10000	669.6	1.7
0.7501	333.15	15000	674.9	1.7
0.7501	333.15	20000	679.8	1.8
0.7501	333.15	25000	684.3	1.8
0.7501	333.15	30000	688.6	1.8
0.7501	333.15	35000	692.7	1.8
0.7501	333.15	40000	696.6	1.8
0.7501	353.15	500	638.4	1.7
0.7501	353.15	5000	645.1	1.7
0.7501	353.15	10000	651.8	1.7
0.7501	353.15	15000	657.9	1.7
0.7501	353.15	20000	663.5	1.8
0.7501	353.15	25000	668.6	1.8
0.7501	353.15	30000	673.4	1.8
0.7501	353.15	35000	678	1.8
0.7501	353.15	40000	682.3	1.8
0.7501	373.15	500	617.2	2.7
0.7501	373.15	5000	625.3	2.7
0.7501	373.15	10000	633.3	2.7
0.7501	373.15	15000	640.4	2.7
0.7501	373.15	20000	646.8	2.7
0.7501	373.15	25000	652.6	2.7
0.7501	373.15	30000	658	2.8
0.7501	373.15	35000	663	2.8
0.7501	373.15	40000	667.9	2.8

System: ethanol + octane; phases: Liquid
Property: Mass density, kg/m3 (Liquid); method: Vibrating tube method
Mole fraction of octane	Temperature, K	Pressure, kPa	Mass density, kg/m3	uncertainty
0.2492	293.15	100	743.9	1.7
0.2492	293.15	500	744.3	1.7
0.2492	293.15	5000	748.2	1.7
0.2492	293.15	10000	752.3	1.7
0.2492	293.15	15000	756.2	1.7
0.2492	293.15	20000	759.9	1.7
0.2492	293.15	25000	763.4	1.7
0.2492	293.15	30000	766.8	1.7
0.2492	293.15	35000	770	1.8
0.2492	293.15	40000	773.2	1.8
0.2492	303.15	100	735.3	1.7
0.2492	303.15	500	735.7	1.7
0.2492	303.15	5000	739.8	1.7
0.2492	303.15	10000	744.2	1.7
0.2492	303.15	15000	748.3	1.7
0.2492	303.15	20000	752.2	1.7
0.2492	303.15	25000	755.9	1.7
0.2492	303.15	30000	759.5	1.7
0.2492	303.15	35000	762.9	1.8
0.2492	303.15	40000	766.2	1.8
0.2492	313.15	100	726.5	1.7
0.2492	313.15	500	726.9	1.7
0.2492	313.15	5000	731.3	1.7
0.2492	313.15	10000	736	1.7
0.2492	313.15	15000	740.4	1.7
0.2492	313.15	20000	744.5	1.7
0.2492	313.15	25000	748.4	1.7
0.2492	313.15	30000	752.1	1.7
0.2492	313.15	35000	755.7	1.8
0.2492	313.15	40000	759.1	1.8
0.2492	323.15	100	717.4	1.7
0.2492	323.15	500	717.9	1.7
0.2492	323.15	5000	722.6	1.7
0.2492	323.15	10000	727.6	1.7
0.2492	323.15	15000	732.2	1.7
0.2492	323.15	20000	736.6	1.7
0.2492	323.15	25000	740.7	1.7
0.2492	323.15	30000	744.6	1.7
0.2492	323.15	35000	748.4	1.8
0.2492	323.15	40000	752	1.8
0.2492	333.15	100	708.2	1.7
0.2492	333.15	500	708.6	1.7
0.2492	333.15	5000	713.7	1.7
0.2492	333.15	10000	719.1	1.7
0.2492	333.15	15000	724	1.7
0.2492	333.15	20000	728.6	1.7
0.2492	333.15	25000	733	1.7
0.2492	333.15	30000	737.1	1.8
0.2492	333.15	35000	741	1.8
0.2492	333.15	40000	744.8	1.8
0.2492	353.15	500	689	1.7
0.2492	353.15	5000	695	1.7
0.2492	353.15	10000	701.1	1.7
0.2492	353.15	15000	706.8	1.7
0.2492	353.15	20000	712	1.7
0.2492	353.15	25000	716.9	1.7
0.2492	353.15	30000	721.5	1.8
0.2492	353.15	35000	725.8	1.8
0.2492	353.15	40000	730	1.8
0.2492	373.15	500	667.6	2.7
0.2492	373.15	5000	674.8	2.7
0.2492	373.15	10000	682	2.7
0.2492	373.15	15000	688.6	2.7
0.2492	373.15	20000	694.6	2.7
0.2492	373.15	25000	700.1	2.7
0.2492	373.15	30000	705.2	2.7
0.2492	373.15	35000	710	2.7
0.2492	373.15	40000	714.6	2.8
0.4999	293.15	100	722.3	1.7
0.4999	293.15	500	722.6	1.8
0.4999	293.15	5000	726.5	1.7
0.4999	293.15	10000	730.6	1.7
0.4999	293.15	15000	734.4	1.7
0.4999	293.15	20000	738.1	1.7
0.4999	293.15	25000	741.6	1.7
0.4999	293.15	30000	744.9	1.8
0.4999	293.15	35000	748.1	1.8
0.4999	293.15	40000	751.2	1.8
0.4999	303.15	100	713.7	1.7
0.4999	303.15	500	714.1	1.7
0.4999	303.15	5000	718.3	1.7
0.4999	303.15	10000	722.6	1.7
0.4999	303.15	15000	726.7	1.7
0.4999	303.15	20000	730.6	1.7
0.4999	303.15	25000	734.2	1.7
0.4999	303.15	30000	737.7	1.8
0.4999	303.15	35000	741.1	1.8
0.4999	303.15	40000	744.3	1.8
0.4999	313.15	100	705	1.7
0.4999	313.15	500	705.4	1.7
0.4999	313.15	5000	709.8	1.7
0.4999	313.15	10000	714.5	1.7
0.4999	313.15	15000	718.8	1.7
0.4999	313.15	20000	722.9	1.7
0.4999	313.15	25000	726.8	1.7
0.4999	313.15	30000	730.5	1.8
0.4999	313.15	35000	734	1.8
0.4999	313.15	40000	737.4	1.8
0.4999	323.15	100	696	1.7
0.4999	323.15	500	696.4	1.7
0.4999	323.15	5000	701.2	1.7
0.4999	323.15	10000	706.1	1.7
0.4999	323.15	15000	710.8	1.7
0.4999	323.15	20000	715.1	1.7
0.4999	323.15	25000	719.2	1.8
0.4999	323.15	30000	723.1	1.8
0.4999	323.15	35000	726.8	1.8
0.4999	323.15	40000	730.4	1.8
0.4999	333.15	100	686.8	1.8
0.4999	333.15	500	687.3	1.7
0.4999	333.15	5000	692.4	1.7
0.4999	333.15	10000	697.7	1.7
0.4999	333.15	15000	702.7	1.7
0.4999	333.15	20000	707.3	1.7
0.4999	333.15	25000	711.6	1.8
0.4999	333.15	30000	715.7	1.8
0.4999	333.15	35000	719.6	1.8
0.4999	333.15	40000	723.4	1.8
0.4999	353.15	500	667.9	1.7
0.4999	353.15	5000	674	1.7
0.4999	353.15	10000	680.2	1.7
0.4999	353.15	15000	685.8	1.7
0.4999	353.15	20000	691.1	1.7
0.4999	353.15	25000	695.9	1.8
0.4999	353.15	30000	700.5	1.8
0.4999	353.15	35000	704.8	1.8
0.4999	353.15	40000	709	1.8
0.4999	373.15	500	647.2	2.7
0.4999	373.15	5000	654.4	2.7
0.4999	373.15	10000	661.7	2.7
0.4999	373.15	15000	668.3	2.7
0.4999	373.15	20000	674.3	2.7
0.4999	373.15	25000	679.8	2.7
0.4999	373.15	30000	684.9	2.7
0.4999	373.15	35000	689.7	2.8
0.4999	373.15	40000	694.3	2.8
0.7503	293.15	100	709.6	1.7
0.7503	293.15	500	709.9	1.7
0.7503	293.15	5000	713.7	1.7
0.7503	293.15	10000	717.7	1.7
0.7503	293.15	15000	721.5	1.7
0.7503	293.15	20000	725.1	1.7
0.7503	293.15	25000	728.6	1.8
0.7503	293.15	30000	731.9	1.8
0.7503	293.15	35000	735	1.8
0.7503	293.15	40000	738.1	1.8
0.7503	303.15	100	701.2	1.7
0.7503	303.15	500	701.5	1.7
0.7503	303.15	5000	705.6	1.7
0.7503	303.15	10000	709.9	1.7
0.7503	303.15	15000	713.9	1.7
0.7503	303.15	20000	717.8	1.7
0.7503	303.15	25000	721.4	1.8
0.7503	303.15	30000	724.9	1.8
0.7503	303.15	35000	728.2	1.8
0.7503	303.15	40000	731.4	1.8
0.7503	313.15	100	692.6	1.7
0.7503	313.15	500	693	1.7
0.7503	313.15	5000	697.4	1.7
0.7503	313.15	10000	702	1.7
0.7503	313.15	15000	706.3	1.7
0.7503	313.15	20000	710.3	1.7
0.7503	313.15	25000	714.1	1.8
0.7503	313.15	30000	717.8	1.8
0.7503	313.15	35000	721.2	1.8
0.7503	313.15	40000	724.6	1.8
0.7503	323.15	100	683.8	1.7
0.7503	323.15	500	684.2	1.7
0.7503	323.15	5000	688.9	1.7
0.7503	323.15	10000	693.8	1.7
0.7503	323.15	15000	698.4	1.7
0.7503	323.15	20000	702.7	1.7
0.7503	323.15	25000	706.8	1.8
0.7503	323.15	30000	710.6	1.8
0.7503	323.15	35000	714.2	1.8
0.7503	323.15	40000	717.8	1.8
0.7503	333.15	100	674.8	1.7
0.7503	333.15	500	675.3	1.7
0.7503	333.15	5000	680.4	1.7
0.7503	333.15	10000	685.6	1.7
0.7503	333.15	15000	690.5	1.7
0.7503	333.15	20000	695.1	1.8
0.7503	333.15	25000	699.3	1.8
0.7503	333.15	30000	703.4	1.8
0.7503	333.15	35000	707.2	1.8
0.7503	333.15	40000	710.9	1.8
0.7503	353.15	500	656.6	1.7
0.7503	353.15	5000	662.6	1.7
0.7503	353.15	10000	668.7	1.7
0.7503	353.15	15000	674.3	1.7
0.7503	353.15	20000	679.5	1.8
0.7503	353.15	25000	684.3	1.8
0.7503	353.15	30000	688.7	1.8
0.7503	353.15	35000	693	1.8
0.7503	353.15	40000	697.1	1.8
0.7503	373.15	500	637	2.7
0.7503	373.15	5000	644.1	2.7
0.7503	373.15	10000	651.2	2.7
0.7503	373.15	15000	657.7	2.7
0.7503	373.15	20000	663.6	2.7
0.7503	373.15	25000	669	2.7
0.7503	373.15	30000	674	2.8
0.7503	373.15	35000	678.7	2.8
0.7503	373.15	40000	683.2	2.8
