Measured thermophysical data. Determination of phase transition points of ionic liquids by combination of thermal analysis and conductivity measurements at very low heating and cooling rates
Source: J. Chem. Thermodyn., 2010, 10.1016/j.jct.2010.03.003
Compound 1: 1-butyl-1-methylpyrrolidinium bis[(trifluoromethyl)sulfonyl]imide, C11H20F6N2O4S2, InChI=1S/C9H20N.C2F6NO4S2/c1-3-4-7-10(2)8-5-6-9-10;3-1(4,5)14(10,11)9-15(12,13)2(6,7)8/h3-9H2,1-2H3;/q+1;-1, purity 98%
Compound 2: 1-butyl-1-methylpyrrolidinium trifluoromethanesulfonate, C10H20F3NO3S, InChI=1S/C9H20N.CHF3O3S/c1-3-4-7-10(2)8-5-6-9-10;2-1(3,4)8(5,6)7/h3-9H2,1-2H3;(H,5,6,7)/q+1;/p-1, purity 98%
Compound 3: 1-butyl-1-methylpyrrolidinium tris(pentafluoroethyl)trifluorophosphate, C15H20F18NP, InChI=1S/C9H20N.C6F18P/c1-3-4-7-10(2)8-5-6-9-10;7-1(8,9)4(16,17)25(22,23,24,5(18,19)2(10,11)12)6(20,21)3(13,14)15/h3-9H2,1-2H3;/q+1;-1, purity 98%
Compound 4: 1-ethyl-3-methylimidazolium dicyanamide, C8H11N5, InChI=1S/C6H11N2.C2N3/c1-3-8-5-4-7(2)6-8;3-1-5-2-4/h4-6H,3H2,1-2H3;/q+1;-1, purity 97%
Compound 5: 1-ethyl-3-methylimidazolium tetrafluoroborate, C6H11BF4N2, InChI=1S/C6H11N2.BF4/c1-3-8-5-4-7(2)6-8;2-1(3,4)5/h4-6H,3H2,1-2H3;/q+1;-1, purity 98%
Compound 6: 1-ethyl-3-methylimidazolium bis((trifluoromethyl)sulfonyl)imide, C8H11F6N3O4S2, InChI=1S/C6H11N2.C2F6NO4S2/c1-3-8-5-4-7(2)6-8;3-1(4,5)14(10,11)9-15(12,13)2(6,7)8/h4-6H,3H2,1-2H3;/q+1;-1, purity 98%
Compound 7: 1-hexyl-3-methylimidazolium bis[(trifluoromethyl)sulfonyl]imide, C12H19F6N3O4S2, InChI=1S/C10H19N2.C2F6NO4S2/c1-3-4-5-6-7-12-9-8-11(2)10-12;3-1(4,5)14(10,11)9-15(12,13)2(6,7)8/h8-10H,3-7H2,1-2H3;/q+1;-1, purity 98%
Compound 8: 1-methyl-3-propylimidazolium iodide, C7H13IN2, InChI=1S/C7H13N2.HI/c1-3-4-9-6-5-8(2)7-9;/h5-7H,3-4H2,1-2H3;1H/q+1;/p-1, purity 97%
Compound 9: trimethylsulfonium dicyanamide, C5H9N3S, InChI=1S/C3H9S.C2N3/c1-4(2)3;3-1-5-2-4/h1-3H3;/q+1;-1, purity 97%

System: 1-butyl-1-methylpyrrolidinium bis[(trifluoromethyl)sulfonyl]imide; phases: Crystal, Liquid, Air at 1 atmosphere
Property: Normal melting temperature, K (Crystal); method: Heating/Cooling curves
Normal melting temperature, K	uncertainty
264.5	0.8

System: 1-butyl-1-methylpyrrolidinium trifluoromethanesulfonate; phases: Crystal, Liquid, Air at 1 atmosphere
Property: Normal melting temperature, K (Crystal); method: Heating/Cooling curves
Normal melting temperature, K	uncertainty
277.56	0.8

System: 1-butyl-1-methylpyrrolidinium trifluoromethanesulfonate; phases: Crystal, Liquid, Air at 1 atmosphere
Property: Normal melting temperature, K (Crystal); method: from temp. dependence of electrical conductivity
Normal melting temperature, K	uncertainty
278.59	1

System: 1-butyl-1-methylpyrrolidinium tris(pentafluoroethyl)trifluorophosphate; phases: Crystal, Liquid, Air at 1 atmosphere
Property: Normal melting temperature, K (Crystal); method: Heating/Cooling curves
Normal melting temperature, K	uncertainty
275.1	1

System: 1-butyl-1-methylpyrrolidinium tris(pentafluoroethyl)trifluorophosphate; phases: Crystal, Liquid, Air at 1 atmosphere
Property: Normal melting temperature, K (Crystal); method: from temp. dependence of electrical conductivity
Normal melting temperature, K	uncertainty
275.9	1

System: 1-ethyl-3-methylimidazolium dicyanamide; phases: Crystal, Liquid, Air at 1 atmosphere
Property: Normal melting temperature, K (Crystal); method: Heating/Cooling curves
Normal melting temperature, K	uncertainty
267.7	0.8

System: 1-ethyl-3-methylimidazolium dicyanamide; phases: Crystal, Liquid, Air at 1 atmosphere
Property: Normal melting temperature, K (Crystal); method: from temp. dependence of electrical conductivity
Normal melting temperature, K	uncertainty
268.34	1

System: 1-ethyl-3-methylimidazolium tetrafluoroborate; phases: Crystal, Liquid, Air at 1 atmosphere
Property: Normal melting temperature, K (Crystal); method: Heating/Cooling curves
Normal melting temperature, K	uncertainty
286.6	0.8

System: 1-ethyl-3-methylimidazolium tetrafluoroborate; phases: Crystal, Liquid, Air at 1 atmosphere
Property: Normal melting temperature, K (Crystal); method: from temp. dependence of electrical conductivity
Normal melting temperature, K	uncertainty
287.1	1

System: 1-ethyl-3-methylimidazolium bis((trifluoromethyl)sulfonyl)imide; phases: Crystal 4, Liquid, Air at 1 atmosphere
Property: Normal melting temperature, K (Crystal 4); method: Heating/Cooling curves
Normal melting temperature, K	uncertainty
256	0.8

System: 1-ethyl-3-methylimidazolium bis((trifluoromethyl)sulfonyl)imide; phases: Crystal 4, Liquid, Air at 1 atmosphere
Property: Normal melting temperature, K (Crystal 4); method: from temp. dependence of electrical conductivity
Normal melting temperature, K	uncertainty
256.7	1

System: 1-ethyl-3-methylimidazolium bis((trifluoromethyl)sulfonyl)imide; phases: Crystal 1, Liquid, Air at 1 atmosphere
Property: Normal melting temperature, K (Crystal 1); method: Heating/Cooling curves
Normal melting temperature, K	uncertainty
270.7	0.8

System: 1-hexyl-3-methylimidazolium bis[(trifluoromethyl)sulfonyl]imide; phases: Crystal, Liquid, Air at 1 atmosphere
Property: Normal melting temperature, K (Crystal); method: Heating/Cooling curves
Normal melting temperature, K	uncertainty
271.3	0.8

System: 1-methyl-3-propylimidazolium iodide; phases: Crystal, Liquid, Air at 1 atmosphere
Property: Normal melting temperature, K (Crystal); method: Heating/Cooling curves
Normal melting temperature, K	uncertainty
290.1	0.8

System: 1-methyl-3-propylimidazolium iodide; phases: Crystal, Liquid, Air at 1 atmosphere
Property: Normal melting temperature, K (Crystal); method: from temp. dependence of electrical conductivity
Normal melting temperature, K	uncertainty
291.4	1

System: trimethylsulfonium dicyanamide; phases: Crystal, Liquid, Air at 1 atmosphere
Property: Normal melting temperature, K (Crystal); method: Heating/Cooling curves
Normal melting temperature, K	uncertainty
285.9	0.8

System: trimethylsulfonium dicyanamide; phases: Crystal, Liquid, Air at 1 atmosphere
Property: Normal melting temperature, K (Crystal); method: from temp. dependence of electrical conductivity
Normal melting temperature, K	uncertainty
287.74	1
