Measured thermophysical data. (Liquid + liquid) equilibria of (water + propionic acid + diethyl phthalate) at several temperatures
Source: J. Chem. Thermodyn., 2005, 10.1016/j.jct.2005.02.005
Compound 1: water, H2O, InChI=1S/H2O/h1H2, purity 99%
Compound 2: propanoic acid, C3H6O2, InChI=1S/C3H6O2/c1-2-3(4)5/h2H2,1H3,(H,4,5), purity 99%
Compound 3: diethyl phthalate, C12H14O4, InChI=1S/C12H14O4/c1-3-15-11(13)9-7-5-6-8-10(9)12(14)16-4-2/h5-8H,3-4H2,1-2H3, purity 99%

System: propanoic acid; phases: Liquid, Gas
Property: Normal boiling temperature, K (Liquid); method: DISTILL:FP
Normal boiling temperature, K	uncertainty
414.1	0.1

System: propanoic acid; phases: Liquid
Property: Refractive index (Na D-line) (Liquid); method: Standard Abbe refractometry
Temperature, K	Pressure, kPa	Refractive index (Na D-line)	uncertainty
293.15	101.325	1.3811	0.0008

System: propanoic acid; phases: Liquid
Property: Mass density, kg/m3 (Liquid); method: VIBTUB:UFactor:4
Temperature, K	Pressure, kPa	Mass density, kg/m3	uncertainty
293.15	101.325	992.7	0.5

System: diethyl phthalate; phases: Liquid, Gas
Property: Normal boiling temperature, K (Liquid); method: DISTILL:FP
Normal boiling temperature, K	uncertainty
571.17	0.1

System: diethyl phthalate; phases: Liquid
Property: Refractive index (Na D-line) (Liquid); method: Standard Abbe refractometry
Temperature, K	Pressure, kPa	Refractive index (Na D-line)	uncertainty
293.15	101.325	1.5003	0.0008

System: diethyl phthalate; phases: Liquid
Property: Mass density, kg/m3 (Liquid); method: Vibrating tube method
Temperature, K	Pressure, kPa	Mass density, kg/m3	uncertainty
293.15	101.325	1117.2	0.6

System: propanoic acid + diethyl phthalate + water; phases: Liquid mixture 1, Liquid mixture 2
Fixed: Pressure, kPa = 101.3
Property: Mass fraction of propanoic acid (Liquid mixture 1); method: Titration method
Temperature, K	Mass fraction of water	Mass fraction of propanoic acid	uncertainty
298.2	0.0461	0.1921	0.0077
298.2	0.0677	0.2507	0.01
298.2	0.0828	0.2814	0.0113
298.2	0.1033	0.3206	0.0128
298.2	0.1441	0.3714	0.0149
298.2	0.1997	0.3991	0.016
298.2	0.2558	0.4099	0.0164
298.2	0.3015	0.4174	0.0167
298.2	0.3426	0.4139	0.0166
298.2	0.3806	0.4063	0.0163
298.2	0.425	0.3993	0.016
298.2	0.4799	0.3875	0.0155
298.2	0.5486	0.3648	0.0146
298.2	0.5963	0.3419	0.0137
298.2	0.6638	0.3024	0.0121
303.2	0.0205	0.0671	0.0027
303.2	0.0349	0.1563	0.0063
303.2	0.0494	0.2078	0.0083
303.2	0.0788	0.2672	0.0107
303.2	0.1296	0.3336	0.0134
303.2	0.1734	0.3738	0.015
303.2	0.2361	0.4001	0.016
303.2	0.3211	0.4057	0.0162
303.2	0.3938	0.3995	0.016
303.2	0.5022	0.376	0.015
303.2	0.5756	0.3489	0.014
303.2	0.636	0.3169	0.0127
303.2	0.7017	0.274	0.011
308.2	0.0335	0.1266	0.0052
308.2	0.0496	0.185	0.0075
308.2	0.0758	0.2437	0.0098
308.2	0.1067	0.3034	0.0121
308.2	0.152	0.3547	0.0142
308.2	0.2012	0.3841	0.0154
308.2	0.2709	0.4027	0.0161
308.2	0.3665	0.3999	0.016
308.2	0.4628	0.383	0.0153
308.2	0.5552	0.354	0.0142
308.2	0.6106	0.3309	0.0132
308.2	0.6352	0.3177	0.0127
308.2	0.6939	0.279	0.0112
313.2	0.03	0.0738	0.0033
313.2	0.0546	0.1702	0.007
313.2	0.0808	0.236	0.0095
313.2	0.1133	0.2968	0.0119
313.2	0.1469	0.3433	0.0138
313.2	0.2236	0.3861	0.0155
313.2	0.2858	0.3968	0.0159
313.2	0.3541	0.394	0.0158
313.2	0.4244	0.3854	0.0154
313.2	0.475	0.3768	0.0151
313.2	0.5342	0.3611	0.0144
313.2	0.6167	0.3241	0.013
313.2	0.6853	0.2823	0.0113

System: propanoic acid + diethyl phthalate + water; phases: Liquid mixture 1, Liquid mixture 2
Fixed: Pressure, kPa = 101.3
Property: Mass fraction of propanoic acid (Liquid mixture 1); method: CHROM:UFactor:4
Property: Mass fraction of propanoic acid (Liquid mixture 2); method: CHROM:UFactor:4
Property: Mass fraction of water (Liquid mixture 2); method: CHROM:UFactor:4
Temperature, K	Mass fraction of water	Mass fraction of propanoic acid	uncertainty	Mass fraction of propanoic acid	uncertainty	Mass fraction of water	uncertainty
298.2	0.9382	0.0593	0.0024	0.0528	0.0021	0.0239	
298.2	0.901	0.0963	0.0039	0.099	0.004	0.0345	
298.2	0.873	0.1238	0.005	0.1443	0.0058	0.0451	
298.2	0.8227	0.1719	0.0069	0.2158	0.0086	0.0723	
298.2	0.7681	0.2209	0.0088	0.281	0.0112	0.0941	
298.2	0.7228	0.2581	0.0103	0.3241	0.013	0.1134	
298.2	0.6691	0.3	0.012	0.3731	0.0149	0.154	
298.2	0.5526	0.368	0.0147	0.4218	0.0169	0.2775	
303.2	0.9332	0.0633	0.0025	0.0537	0.0021	0.0209	
303.2	0.8928	0.103	0.0041	0.0995	0.004	0.0366	
303.2	0.8706	0.1251	0.005	0.1446	0.0058	0.0504	
303.2	0.8194	0.1731	0.0069	0.2075	0.0083	0.062	
303.2	0.7567	0.2311	0.0092	0.2816	0.0113	0.1011	
303.2	0.7234	0.2544	0.0102	0.3196	0.0128	0.141	
303.2	0.6605	0.2977	0.0119	0.3766	0.0151	0.1891	
303.2	0.5754	0.3401	0.0136	0.4006	0.016	0.2655	
308.2	0.9195	0.0709	0.0028	0.0575	0.0023	0.0237	
308.2	0.901	0.0944	0.0038	0.0994	0.004	0.0293	
308.2	0.8631	0.1326	0.0053	0.1509	0.006	0.0472	
308.2	0.8035	0.1883	0.0075	0.2161	0.0086	0.0744	
308.2	0.759	0.2257	0.009	0.2748	0.011	0.097	
308.2	0.7263	0.2523	0.0101	0.3116	0.0125	0.1261	
308.2	0.6573	0.3073	0.0123	0.36	0.0144	0.162	
308.2	0.583	0.3454	0.0138	0.3948	0.0158	0.2416	
313.2	0.9401	0.0582	0.0023	0.052	0.0021	0.023	
313.2	0.9081	0.0898	0.0036	0.0922	0.0037	0.0312	
313.2	0.8791	0.1175	0.0047	0.1355	0.0054	0.0453	
313.2	0.8234	0.1704	0.0068	0.2041	0.0082	0.0663	
313.2	0.7621	0.2235	0.0089	0.2741	0.011	0.0946	
313.2	0.7332	0.249	0.01	0.3198	0.0128	0.1212	
313.2	0.6708	0.2972	0.0119	0.3641	0.0146	0.155	
