Measured thermophysical data. Standard molar enthalpies of formation in the crystalline phase of 7-hydroxy-4-methylcoumarin, 7-ethoxy-4-methylcoumarin, and 6-methoxy-4-methylcoumarin
Source: J. Chem. Thermodyn., 2011, 10.1016/j.jct.2011.04.013
Compound 1: carbon dioxide, CO2, InChI=1S/CO2/c2-1-3
Compound 2: water, H2O, InChI=1S/H2O/h1H2
Compound 3: oxygen, O2, InChI=1S/O2/c1-2
Compound 4: hydrogen, H2, InChI=1S/H2/h1H
Compound 5: graphite, C
Compound 6: 7-hydroxy-4-methyl-2H-chromen-2-one, C10H8O3, InChI=1S/C10H8O3/c1-6-4-10(12)13-9-5-7(11)2-3-8(6)9/h2-5,11H,1H3, purity 99%
Compound 7: 7-ethoxy-4-methyl-2H-chromen-2-one, C12H12O3, InChI=1S/C12H12O3/c1-3-14-9-4-5-10-8(2)6-12(13)15-11(10)7-9/h4-7H,3H2,1-2H3, purity 99%
Compound 8: 6-methoxy-4-methylcoumarin, C11H10O3, InChI=1S/C11H10O3/c1-7-5-11(12)14-10-4-3-8(13-2)6-9(7)10/h3-6H,1-2H3, purity 99%

System: 7-hydroxy-4-methyl-2H-chromen-2-one; phases: Crystal, Liquid, Air at 1 atmosphere
Property: Molar enthalpy of transition or fusion, kJ/mol (Crystal); method: DSC
Molar enthalpy of transition or fusion, kJ/mol	uncertainty
31.41	0.69

System: 7-hydroxy-4-methyl-2H-chromen-2-one; phases: Crystal
Property: Molar heat capacity at constant pressure, J/K/mol (Crystal); method: Large sample (1 g) DSC
Temperature, K	Pressure, kPa	Molar heat capacity at constant pressure, J/K/mol	uncertainty
462.02	101.325	8.971	0.179

System: 7-hydroxy-4-methyl-2H-chromen-2-one; phases: Crystal, Liquid
Property: Solid-liquid equilibrium temperature, K (Crystal); method: DTA
Pressure, kPa	Solid-liquid equilibrium temperature, K	uncertainty
101.33	462.02	0.24

System: 7-ethoxy-4-methyl-2H-chromen-2-one; phases: Crystal, Liquid, Air at 1 atmosphere
Property: Molar enthalpy of transition or fusion, kJ/mol (Crystal); method: DSC
Molar enthalpy of transition or fusion, kJ/mol	uncertainty
25.81	0.73

System: 7-ethoxy-4-methyl-2H-chromen-2-one; phases: Crystal
Property: Molar heat capacity at constant pressure, J/K/mol (Crystal); method: Large sample (1 g) DSC
Temperature, K	Pressure, kPa	Molar heat capacity at constant pressure, J/K/mol	uncertainty
387.52	101.325	10.618	0.212

System: 7-ethoxy-4-methyl-2H-chromen-2-one; phases: Crystal, Liquid
Property: Solid-liquid equilibrium temperature, K (Crystal); method: DTA
Pressure, kPa	Solid-liquid equilibrium temperature, K	uncertainty
101.33	387.52	0.2

System: 6-methoxy-4-methylcoumarin; phases: Crystal, Liquid, Air at 1 atmosphere
Property: Molar enthalpy of transition or fusion, kJ/mol (Crystal); method: DSC
Molar enthalpy of transition or fusion, kJ/mol	uncertainty
33.31	0.72

System: 6-methoxy-4-methylcoumarin; phases: Crystal
Property: Molar heat capacity at constant pressure, J/K/mol (Crystal); method: Large sample (1 g) DSC
Temperature, K	Pressure, kPa	Molar heat capacity at constant pressure, J/K/mol	uncertainty
436.13	101.325	9.878	0.198

System: 6-methoxy-4-methylcoumarin; phases: Crystal, Liquid
Property: Solid-liquid equilibrium temperature, K (Crystal); method: DTA
Pressure, kPa	Solid-liquid equilibrium temperature, K	uncertainty
101.33	436.13	0.22

Reaction: -1 7-hydroxy-4-methyl-2H-chromen-2-one + 10 carbon dioxide + 4 water + -10.5 oxygen
Property: Specific internal energy of reaction at constant volume, J/g
-25750.5

Reaction: -1 7-ethoxy-4-methyl-2H-chromen-2-one + 12 carbon dioxide + 6 water + -13.5 oxygen
Property: Specific internal energy of reaction at constant volume, J/g
-28831.2

Reaction: -1 6-methoxy-4-methylcoumarin + 11 carbon dioxide + 5 water + -12 oxygen
Property: Specific internal energy of reaction at constant volume, J/g
-27694.2

Reaction: 1 7-hydroxy-4-methyl-2H-chromen-2-one + -4 hydrogen + -10 graphite + -1.5 oxygen
Property: Molar enthalpy of reaction, kJ/mol
-540.8

Reaction: 1 7-ethoxy-4-methyl-2H-chromen-2-one + -6 hydrogen + -12 graphite + -1.5 oxygen
Property: Molar enthalpy of reaction, kJ/mol
-545.4

Reaction: 1 6-methoxy-4-methylcoumarin + -5 hydrogen + -11 graphite + -1.5 oxygen
Property: Molar enthalpy of reaction, kJ/mol
-488
