Measured thermophysical data. Speeds of sound in {(1 - x)CH4 + xN2} with x = (0.10001, 0.19999, and 0.5422) at temperatures between 170 K and 400 K and pressures up to 30 MPa
Source: J. Chem. Thermodyn., 2006, 10.1016/j.jct.2005.10.006
Compound 1: methane, CH4, InChI=1S/CH4/h1H4, purity 99.995%
Compound 2: nitrogen, N2, InChI=1S/N2/c1-2, purity 99.999%

System: methane + nitrogen; phases: Fluid (supercritical or subcritical phases)
Property: Speed of sound, m/s (Fluid (supercritical or subcritical phases)); method: Spherical resonator
Mole fraction of nitrogen	Pressure, kPa	Temperature, K	Speed of sound, m/s	uncertainty
0.10001	20228	275	515.84	0.84
0.10001	24821	275	581.11	0.95
0.10001	24934	300	563.32	0.92
0.10001	25516	250	637.9	1.04
0.10001	29257	275	642.82	1.04
0.10001	30044	250	707.81	1.15
0.10001	30250	300	625.49	1.02
0.19999	20114	400	537.94	0.87
0.19999	25037	220	675.84	1.1
0.19999	29972	275	619.3	1
0.19999	30196	250	665.27	1.07
0.19999	30201	220	753.84	1.21

System: methane + nitrogen; phases: Fluid (supercritical or subcritical phases)
Property: Speed of sound, m/s (Fluid (supercritical or subcritical phases)); method: Spherical resonator
Mole fraction of nitrogen	Pressure, kPa	Temperature, K	Speed of sound, m/s	uncertainty
0.10001	199.4	400	494.39	0.8
0.10001	199.5	300	434.92	0.71
0.10001	199.6	250	398.92	0.66
0.10001	200	220	374.49	0.62
0.10001	202.3	350	466.26	0.76
0.10001	497.1	400	494.48	0.8
0.10001	498	300	434.24	0.71
0.10001	498.5	275	416.53	0.68
0.10001	499.1	250	397.32	0.65
0.10001	501.4	220	371.96	0.62
0.10001	502	350	466.1	0.76
0.10001	995.6	400	494.7	0.81
0.10001	996.8	300	433.15	0.71
0.10001	998.1	275	414.81	0.68
0.10001	999.8	250	394.71	0.65
0.10001	1001	220	367.77	0.61
0.10001	1001	350	465.83	0.76
0.10001	1990	400	495.31	0.81
0.10001	1998	300	431.25	0.71
0.10001	1999	275	411.66	0.68
0.10001	2001	350	465.52	0.76
0.10001	2004	250	389.75	0.64
0.10001	2007	220	359.38	0.6
0.10001	2974	250	385.4	0.64
0.10001	2989	400	496.16	0.81
0.10001	3003	300	429.75	0.7
0.10001	3007	350	465.52	0.76
0.10001	3012	275	408.95	0.67
0.10001	3018	220	351.21	0.58
0.10001	3994	400	497.25	0.81
0.10001	4012	350	465.86	0.76
0.10001	4016	300	428.73	0.7
0.10001	4024	275	406.81	0.67
0.10001	4027	250	381.43	0.63
0.10001	4040	220	343.53	0.57
0.10001	5019	300	428.26	0.7
0.10001	5041	250	378.44	0.63
0.10001	6011	400	500.22	0.81
0.10001	6023	350	467.64	0.76
0.10001	6030	300	428.38	0.7
0.10001	6053	275	404.7	0.67
0.10001	6066	250	376.58	0.62
0.10001	6099	220	332.63	0.55
0.10001	7046	300	429.17	0.7
0.10001	7089	250	376.21	0.62
0.10001	8005	275	406.18	0.67
0.10001	8012	400	504.2	0.82
0.10001	8048	350	471.02	0.77
0.10001	8086	300	430.75	0.71
0.10001	8117	250	377.7	0.62
0.10001	8215	220	339.23	0.57
0.10001	9155	250	381.49	0.63
0.10001	9957	275	411.99	0.68
0.10001	10023	400	509.28	0.83
0.10001	10069	350	476.07	0.78
0.10001	10134	300	436.25	0.71
0.10001	10204	250	387.94	0.64
0.10001	10421	220	383.6	0.64
0.10001	11238	250	397.06	0.65
0.10001	12035	275	423.61	0.7
0.10001	12036	275	423.62	0.7
0.10001	12054	400	515.5	0.84
0.10001	12122	350	482.98	0.79
0.10001	12193	300	445.26	0.73
0.10001	12284	250	408.99	0.67
0.10001	13320	250	423.21	0.69
0.10001	14084	400	522.78	0.85
0.10001	14111	275	440.93	0.72
0.10001	14143	350	491.53	0.8
0.10001	14166	250	436.28	0.72
0.10001	14237	300	457.66	0.75
0.10001	14274	220	498.94	0.82
0.10001	15044	250	450.92	0.74
0.10001	15988	275	460.87	0.75
0.10001	16075	250	469.1	0.77
0.10001	16081	400	530.96	0.86
0.10001	16082	400	530.96	0.86
0.10001	16179	350	501.83	0.82
0.10001	16322	300	473.66	0.77
0.10001	16645	220	562.65	0.91
0.10001	17093	250	487.71	0.8
0.10001	18033	275	486.14	0.79
0.10001	18043	220	596.39	0.96
0.10001	18052	400	539.93	0.88
0.10001	18084	250	506.09	0.83
0.10001	18210	350	513.66	0.83
0.10001	18326	300	491.78	0.8
0.10001	18990	250	522.94	0.85
0.10001	19788	400	548.54	0.89
0.10001	19809	350	523.96	0.85
0.10001	19924	300	507.75	0.83
0.10001	19985	220	639.27	1.03
0.10001	19992	250	541.47	0.88
0.19999	99.6	220	363.86	0.6
0.19999	99.6	250	387.32	0.64
0.19999	101.5	220	363.89	0.6
0.19999	105	250	387.33	0.64
0.19999	105.1	275	405.31	0.67
0.19999	231.4	400	480.07	0.78
0.19999	248.5	300	421.88	0.69
0.19999	248.7	350	452.58	0.74
0.19999	249.1	220	362.81	0.6
0.19999	249.1	250	386.69	0.64
0.19999	249.2	220	362.81	0.6
0.19999	249.5	220	362.85	0.6
0.19999	249.5	250	386.7	0.64
0.19999	249.6	275	404.93	0.67
0.19999	498.3	250	385.62	0.64
0.19999	498.5	275	404.25	0.67
0.19999	498.6	220	361.06	0.6
0.19999	498.6	300	421.47	0.69
0.19999	498.6	350	452.54	0.74
0.19999	498.8	220	361.05	0.6
0.19999	499.1	220	361.09	0.6
0.19999	499.1	250	385.63	0.64
0.19999	501.8	400	480.26	0.78
0.19999	998	275	402.93	0.66
0.19999	998.2	250	383.53	0.63
0.19999	998.6	220	357.56	0.59
0.19999	998.9	250	383.54	0.63
0.19999	999.3	220	357.56	0.59
0.19999	1003	220	357.57	0.59
0.19999	1999	300	419.47	0.69
0.19999	1999	350	452.66	0.74
0.19999	2001	275	400.6	0.66
0.19999	2002	250	379.64	0.63
0.19999	2005	250	379.64	0.63
0.19999	2005	400	481.61	0.78
0.19999	2006	220	350.72	0.58
0.19999	2008	220	350.73	0.58
0.19999	3002	250	376.26	0.62
0.19999	3010	275	398.72	0.66
0.19999	3014	220	344.27	0.57
0.19999	3014	250	376.24	0.62
0.19999	3016	220	344.28	0.57
0.19999	4002	220	338.63	0.56
0.19999	4009	350	453.86	0.74
0.19999	4014	275	397.39	0.65
0.19999	4015	300	418.25	0.69
0.19999	4015	400	484.18	0.79
0.19999	4021	250	373.48	0.62
0.19999	4026	250	373.48	0.62
0.19999	4034	220	338.48	0.56
0.19999	4989	250	371.62	0.62
0.19999	5030	250	371.55	0.66
0.19999	5030	275	396.69	0.65
0.19999	5057	220	333.84	0.56
0.19999	5903	250	370.69	0.61
0.19999	6000	250	370.66	0.61
0.19999	6027	400	487.68	0.79
0.19999	6037	300	419.02	0.69
0.19999	6042	350	456.41	0.75
0.19999	6045	275	396.72	0.65
0.19999	6079	220	331.09	0.55
0.19999	7000	220	331.07	0.55
0.19999	7002	250	370.93	0.61
0.19999	7052	275	397.57	0.65
0.19999	7981	220	334.7	0.56
0.19999	8018	250	372.66	0.62
0.19999	8046	400	492.14	0.8
0.19999	8068	300	422.18	0.69
0.19999	8072	275	399.34	0.66
0.19999	8140	350	460.55	0.75
0.19999	9000	220	343.57	0.57
0.19999	9001	250	375.95	0.62
0.19999	9089	275	402.1	0.66
0.19999	9931	350	465.36	0.76
0.19999	9974	220	357.39	0.59
0.19999	10077	400	497.61	0.81
0.19999	10104	300	428.03	0.7
0.19999	10115	275	405.96	0.67
0.19999	10144	350	466.02	0.76
0.19999	10175	250	382.17	0.63
0.19999	10996	220	376.87	0.62
0.19999	11147	275	410.97	0.68
0.19999	11195	250	389.7	0.64
0.19999	11983	300	435.96	0.71
0.19999	12004	400	503.66	0.82
0.19999	12068	220	401.11	0.66
0.19999	12140	350	472.93	0.77
0.19999	12160	275	416.99	0.68
0.19999	12996	220	423.71	0.7
0.19999	13078	250	408.65	0.67
0.19999	13171	275	424.08	0.7
0.19999	14003	250	420.05	0.69
0.19999	14013	275	430.77	0.71
0.19999	14014	220	449.03	0.73
0.19999	14023	300	447.31	0.73
0.19999	14157	350	481.39	0.79
0.19999	14562	400	513.02	0.83
0.19999	14891	220	470.66	0.77
0.19999	15003	275	439.49	0.72
0.19999	15316	250	438.11	0.72
0.19999	15990	275	449	0.74
0.19999	16022	300	461.03	0.75
0.19999	16024	220	497.89	0.81
0.19999	16027	400	519	0.84
0.19999	16059	250	449.07	0.74
0.19999	16162	350	491.18	0.8
0.19999	17009	275	459.59	0.75
0.19999	17031	220	521.17	0.85
0.19999	17054	250	464.35	0.76
0.19999	17867	350	500.53	0.81
0.19999	17969	300	476.54	0.78
0.19999	17997	275	470.47	0.77
0.19999	18039	400	527.93	0.86
0.19999	18088	220	544.6	0.88
0.19999	18089	250	480.72	0.79
0.19999	19031	250	495.86	0.81
0.19999	19084	275	483.04	0.79
0.19999	19087	220	565.86	0.92
0.19999	19448	350	509.95	0.83
0.19999	19556	220	575.49	0.93
0.19999	19680	275	490.13	0.8
0.19999	19736	300	492.16	0.8
0.19999	19850	250	509.09	0.83
0.19999	99.6	220	363.86	0.6

System: methane + nitrogen; phases: Fluid (supercritical or subcritical phases)
Fixed: Mole fraction of nitrogen = 0.5422
Property: Speed of sound, m/s (Fluid (supercritical or subcritical phases)); method: Spherical resonator
Pressure, kPa	Temperature, K	Speed of sound, m/s	uncertainty
124.7	170	291.53	0.49
150	170	291.29	0.49
174.8	170	291.06	0.49
199.8	170	290.83	0.49
224.8	170	290.59	0.49
249.8	170	290.36	0.49
279.7	170	290.07	0.49
280	170	290.07	0.49
311.9	190	307.35	0.52
351.4	215	327.5	0.55
405.3	250	353.38	0.59
409.7	170	288.85	0.49
409.8	170	288.85	0.49
457.6	190	306.42	0.51
480.1	300	386.4	0.64
516.2	215	326.87	0.55
552.3	350	415.67	0.68
596.4	250	353.08	0.59
622	400	442.06	0.72
680.3	170	286.28	0.48
680.4	170	286.28	0.48
707.5	300	386.45	0.64
762.5	190	304.49	0.51
814.8	350	415.97	0.68
863.4	215	325.57	0.54
918.4	400	442.56	0.72
1001	250	352.48	0.58
1191	300	386.59	0.64
1293	170	280.36	0.47
1374	350	416.67	0.68
1464	190	300.13	0.5
1551	400	443.69	0.73
1672	215	322.77	0.54
1955	250	351.35	0.58
2344	300	387.23	0.64
2374	170	269.67	0.46
2717	350	418.62	0.69
2748	190	292.7	0.49
3075	400	446.66	0.73
3199	215	318.49	0.53
3248	170	261.01	0.45
3249	170	260.99	0.44
3805	250	350.46	0.58
3852	190	287.32	0.48
3953	170	254.33	0.43
3954	170	254.32	0.43
4555	170	249.39	0.43
4572	170	249.51	0.43
4573	215	316.24	0.53
4632	300	389.87	0.64
4810	190	284.03	0.48
5419	350	423.85	0.7
5536	250	351.48	0.58
5716	190	282.84	0.48
5826	215	316.02	0.53
6170	400	453.88	0.74
6838	300	394.27	0.65
7070	215	317.96	0.53
7176	250	354.43	0.59
8070	350	430.68	0.71
8849	250	359.54	0.6
8859	250	359.5	0.6
8994	300	400.43	0.66
9240	400	462.55	0.76
11262	300	408.61	0.67
13507	350	449.48	0.74
15633	400	484.69	0.79
1293	170	280.36	0.47
2374	170	269.68	0.46
