Measured thermophysical data. Excess molar volumes of (acetophenone + benzene, or toluene, or 1,3-xylene, or 1,3,5-trimethylbenzene) at temperatures (298.15 and 328.15) K
Source: J. Chem. Thermodyn., 2005, 10.1016/j.jct.2004.11.023
Compound 1: acetophenone, C8H8O, InChI=1S/C8H8O/c1-7(9)8-5-3-2-4-6-8/h2-6H,1H3, purity 99%
Compound 2: benzene, C6H6, InChI=1S/C6H6/c1-2-4-6-5-3-1/h1-6H, purity 99.7%
Compound 3: toluene, C7H8, InChI=1S/C7H8/c1-7-5-3-2-4-6-7/h2-6H,1H3, purity 99.7%
Compound 4: 1,3-dimethylbenzene, C8H10, InChI=1S/C8H10/c1-7-4-3-5-8(2)6-7/h3-6H,1-2H3, purity 99%
Compound 5: 1,3,5-trimethylbenzene, C9H12, InChI=1S/C9H12/c1-7-4-8(2)6-9(3)5-7/h4-6H,1-3H3, purity 99%

System: benzene + acetophenone; phases: Liquid
Fixed: Pressure, kPa = 101
Property: Mass density, kg/m3 (Liquid); method: Vibrating tube method
Temperature, K	Mole fraction of benzene	Mass density, kg/m3	uncertainty
298.15	0	1023.11	0.52
298.15	0.10571	1011.02	0.48
298.15	0.18602	1001.34	0.44
298.15	0.28547	988.94	0.4
298.15	0.37918	976.58	0.37
298.15	0.46261	964.98	0.33
298.15	0.54838	952.49	0.3
298.15	0.62477	940.71	0.27
298.15	0.72894	923.84	0.24
298.15	0.80033	911.56	0.22
298.15	0.89527	894.23	0.19
298.15	1	873.64	0.16
328.15	0	997	0.51
328.15	0.10571	984.62	0.46
328.15	0.18602	974.7	0.43
328.15	0.28547	961.91	0.39
328.15	0.37918	949.15	0.36
328.15	0.46261	937.16	0.33
328.15	0.54838	924.19	0.3
328.15	0.62477	911.99	0.27
328.15	0.72894	894.3	0.23
328.15	0.80033	881.44	0.21
328.15	0.89527	863.18	0.19
328.15	1	841.51	0.16

System: acetophenone + toluene; phases: Liquid
Fixed: Pressure, kPa = 101
Property: Mass density, kg/m3 (Liquid); method: Vibrating tube method
Temperature, K	Mole fraction of toluene	Mass density, kg/m3	uncertainty
298.15	0	1023.12	0.52
298.15	0.10158	1008.8	0.48
298.15	0.19817	994.83	0.44
298.15	0.25698	986.17	0.41
298.15	0.35759	971	0.37
298.15	0.45295	956.2	0.33
298.15	0.53693	942.81	0.3
298.15	0.6366	926.48	0.27
298.15	0.71542	913.19	0.24
298.15	0.81976	895.09	0.21
298.15	0.9019	880.36	0.18
298.15	1	862.27	0.16
328.15	0	997.01	0.51
328.15	0.10158	982.57	0.46
328.15	0.19817	968.48	0.43
328.15	0.25698	959.73	0.4
328.15	0.35759	944.41	0.36
328.15	0.45295	929.46	0.33
328.15	0.53693	915.9	0.3
328.15	0.6366	899.39	0.26
328.15	0.71542	885.89	0.24
328.15	0.81976	867.55	0.21
328.15	0.9019	852.62	0.18
328.15	1	834.26	0.16

System: acetophenone + 1,3-dimethylbenzene; phases: Liquid
Fixed: Pressure, kPa = 101
Property: Mass density, kg/m3 (Liquid); method: Vibrating tube method
Temperature, K	Mole fraction of 1,3-dimethylbenzene	Mass density, kg/m3	uncertainty
298.15	0	1023.12	0.52
298.15	0.09263	1007.97	0.51
298.15	0.18067	993.62	0.5
298.15	0.26623	979.65	0.5
298.15	0.35662	964.94	0.49
298.15	0.45253	949.31	0.48
298.15	0.53803	935.34	0.48
298.15	0.62523	921.13	0.47
298.15	0.73395	903.38	0.46
298.15	0.84793	884.76	0.45
298.15	0.89433	877.15	0.45
298.15	1	859.88	0.44
328.15	0	996.98	0.51
328.15	0.09263	981.88	0.5
328.15	0.18067	967.52	0.49
328.15	0.26623	953.61	0.49
328.15	0.35662	938.89	0.48
328.15	0.45253	923.26	0.47
328.15	0.53803	909.32	0.47
328.15	0.62523	895.13	0.46
328.15	0.73395	877.43	0.45
328.15	0.84793	858.85	0.44
328.15	0.89433	851.29	0.44
328.15	1	834.12	0.43

System: acetophenone + 1,3,5-trimethylbenzene; phases: Liquid
Fixed: Pressure, kPa = 101
Property: Mass density, kg/m3 (Liquid); method: Vibrating tube method
Temperature, K	Mole fraction of 1,3,5-trimethylbenzene	Mass density, kg/m3	uncertainty
298.15	0	1023.13	0.52
298.15	0.09015	1006.63	0.51
298.15	0.18501	989.75	0.5
298.15	0.26744	975.43	0.5
298.15	0.35805	960.07	0.49
298.15	0.45687	943.72	0.48
298.15	0.53578	930.98	0.48
298.15	0.64089	914.41	0.47
298.15	0.73218	900.4	0.46
298.15	0.83599	884.84	0.45
298.15	0.89613	876.03	0.45
298.15	1	861.13	0.44
328.15	0	996.99	0.51
328.15	0.09015	980.65	0.5
328.15	0.18501	963.9	0.49
328.15	0.26744	949.71	0.48
328.15	0.35805	934.46	0.48
328.15	0.45687	918.28	0.47
328.15	0.53578	905.65	0.46
328.15	0.64089	889.25	0.46
328.15	0.73218	875.38	0.45
328.15	0.83599	860	0.44
328.15	0.89613	851.31	0.44
328.15	1	836.63	0.43
