Measured thermophysical data. High pressure phase behaviour of the binary mixture for the 2-hydroxyethyl methacrylate, 2-hydroxypropyl acrylate, and 2-hydroxypropyl methacrylate in supercritical carbon dioxide
Source: J. Chem. Thermodyn., 2007, 10.1016/j.jct.2006.11.010
Compound 1: carbon dioxide, CO2, InChI=1S/CO2/c2-1-3, purity 99.8%
Compound 2: 2-hydroxyethyl 2-methyl-2-propenoate, C6H10O3, InChI=1S/C6H10O3/c1-5(2)6(8)9-4-3-7/h7H,1,3-4H2,2H3, purity 98%
Compound 3: 2-hydroxypropyl acrylate, C6H10O3, InChI=1S/C6H10O3/c1-3-6(8)9-4-5(2)7/h3,5,7H,1,4H2,2H3, purity 96%
Compound 4: 2-hydroxypropyl 2-methyl-2-propenoate, C7H12O3, InChI=1S/C7H12O3/c1-5(2)7(9)10-4-6(3)8/h6,8H,1,4H2,2-3H3, purity 98%

System: carbon dioxide + 2-hydroxyethyl 2-methyl-2-propenoate; phases: Liquid, Gas
Property: Critical pressure, kPa (Liquid); method: Direct measurement
Mole fraction of 2-hydroxyethyl 2-methyl-2-propenoate	Critical pressure, kPa	uncertainty
0.085	13620	1500
0.114	18590	1500
0.136	22280	1500
0.187	25030	1500
0.187	27100	1500

System: carbon dioxide + 2-hydroxyethyl 2-methyl-2-propenoate; phases: Liquid, Gas
Property: Critical temperature, K (Liquid); method: Visual observation in an unstirred cell
Mole fraction of 2-hydroxyethyl 2-methyl-2-propenoate	Critical temperature, K	uncertainty
0.085	313.2	10
0.114	333.2	10
0.136	353.2	10
0.187	373.2	10
0.187	393.2	10

System: carbon dioxide + 2-hydroxyethyl 2-methyl-2-propenoate; phases: Liquid, Gas
Property: Vapor or sublimation pressure, kPa (Liquid); method: CCELL:UFactor:16
Temperature, K	Mole fraction of 2-hydroxyethyl 2-methyl-2-propenoate	Vapor or sublimation pressure, kPa	uncertainty
313.2	0.114	13620	680
313.2	0.136	13540	680
313.2	0.187	13260	660
313.2	0.225	12650	630
313.2	0.292	11550	580
313.2	0.352	10380	520
313.2	0.425	9350	470
313.2	0.501	8020	400
313.2	0.557	7220	360
313.2	0.694	5310	270
333.2	0.136	18400	920
333.2	0.187	17230	860
333.2	0.225	16660	830
333.2	0.292	15010	750
333.2	0.352	13430	670
333.2	0.425	11730	580
333.2	0.501	10000	500
333.2	0.557	9050	450
333.2	0.694	6860	340
353.2	0.187	21540	1070
353.2	0.225	20860	1040
353.2	0.292	18770	930
353.2	0.352	16490	820
353.2	0.425	14490	720
353.2	0.501	11890	590
353.2	0.557	11070	550
353.2	0.694	8070	400
373.2	0.225	24450	1210
373.2	0.292	21900	1090
373.2	0.352	18950	940
373.2	0.425	16930	840
373.2	0.501	13990	700
373.2	0.557	12900	640
373.2	0.694	9240	460
393.2	0.225	26520	1320
393.2	0.292	24000	1190
393.2	0.352	21460	1070
393.2	0.425	18830	940
393.2	0.501	15920	790
393.2	0.557	14350	710
393.2	0.694	9970	500

System: carbon dioxide + 2-hydroxyethyl 2-methyl-2-propenoate; phases: Gas, Liquid
Property: Vapor or sublimation pressure, kPa (Gas); method: CCELL:UFactor:16
Temperature, K	Mole fraction of 2-hydroxyethyl 2-methyl-2-propenoate	Vapor or sublimation pressure, kPa	uncertainty
333.2	0.085	18000	900
353.2	0.085	21440	1060
353.2	0.114	22210	1100
373.2	0.085	24100	1200
373.2	0.114	24790	1230
373.2	0.136	24930	1240
393.2	0.085	26410	1310
393.2	0.114	26830	1330
393.2	0.136	26790	1330

System: carbon dioxide + 2-hydroxypropyl acrylate; phases: Liquid, Gas
Property: Critical pressure, kPa (Liquid); method: Direct measurement
Mole fraction of 2-hydroxypropyl acrylate	Critical pressure, kPa	uncertainty
0.088	12880	1500
0.09	18050	1500
0.126	22240	1500
0.126	24070	1500
0.165	25930	1500

System: carbon dioxide + 2-hydroxypropyl acrylate; phases: Liquid, Gas
Property: Critical temperature, K (Liquid); method: Visual observation in an unstirred cell
Mole fraction of 2-hydroxypropyl acrylate	Critical temperature, K	uncertainty
0.088	313.2	10
0.09	333.2	10
0.126	353.2	10
0.126	373.2	10
0.165	393.2	10

System: carbon dioxide + 2-hydroxypropyl acrylate; phases: Gas, Liquid
Property: Vapor or sublimation pressure, kPa (Gas); method: CCELL:UFactor:12
Temperature, K	Mole fraction of 2-hydroxypropyl acrylate	Vapor or sublimation pressure, kPa	uncertainty
333.2	0.088	17890	670
353.2	0.088	21430	800
353.2	0.09	21560	800
373.2	0.088	23240	870
373.2	0.09	23620	880
393.2	0.088	25070	930
393.2	0.09	25310	940
393.2	0.126	25720	960

System: carbon dioxide + 2-hydroxypropyl acrylate; phases: Liquid, Gas
Property: Vapor or sublimation pressure, kPa (Liquid); method: CCELL:UFactor:12
Temperature, K	Mole fraction of 2-hydroxypropyl acrylate	Vapor or sublimation pressure, kPa	uncertainty
313.2	0.09	12860	490
313.2	0.126	12720	490
313.2	0.165	12010	460
313.2	0.209	11360	430
313.2	0.251	10780	410
313.2	0.283	10230	390
313.2	0.318	9830	370
313.2	0.348	9600	370
313.2	0.375	9220	350
313.2	0.446	8220	310
313.2	0.485	7590	290
313.2	0.565	6880	260
313.2	0.631	6270	240
313.2	0.724	5210	200
333.2	0.126	17940	670
333.2	0.165	17260	650
333.2	0.209	16190	610
333.2	0.251	15120	570
333.2	0.283	14500	550
333.2	0.318	13740	520
333.2	0.348	13100	490
333.2	0.375	12700	480
333.2	0.446	11270	430
333.2	0.485	10500	400
333.2	0.565	9040	340
333.2	0.631	8080	310
333.2	0.724	6420	240
353.2	0.165	21580	810
353.2	0.209	20690	770
353.2	0.251	19210	720
353.2	0.283	18070	680
353.2	0.318	16970	640
353.2	0.348	16550	620
353.2	0.375	15670	590
353.2	0.446	14180	530
353.2	0.485	12820	480
353.2	0.565	11220	420
353.2	0.631	9790	370
353.2	0.724	7510	280
373.2	0.165	24000	890
373.2	0.209	22930	850
373.2	0.251	21590	810
373.2	0.283	20790	780
373.2	0.318	19760	740
373.2	0.348	18790	700
373.2	0.375	18100	680
373.2	0.446	16380	610
373.2	0.485	14900	560
373.2	0.565	12920	490
373.2	0.631	11190	420
373.2	0.724	8490	320
393.2	0.209	24660	920
393.2	0.251	23720	880
393.2	0.283	22760	850
393.2	0.318	21590	810
393.2	0.348	20760	780
393.2	0.375	20030	750
393.2	0.446	17830	670
393.2	0.485	16420	620
393.2	0.565	14260	540
393.2	0.631	12480	470
393.2	0.724	9280	350

System: carbon dioxide + 2-hydroxypropyl 2-methyl-2-propenoate; phases: Liquid, Gas
Property: Critical pressure, kPa (Liquid); method: Direct measurement
Mole fraction of 2-hydroxypropyl 2-methyl-2-propenoate	Critical pressure, kPa	uncertainty
0.038	9370	1500
0.068	18470	1500
0.108	23620	1500

System: carbon dioxide + 2-hydroxypropyl 2-methyl-2-propenoate; phases: Liquid, Gas
Property: Critical temperature, K (Liquid); method: Visual observation in an unstirred cell
Mole fraction of 2-hydroxypropyl 2-methyl-2-propenoate	Critical temperature, K	uncertainty
0.038	313.2	10
0.068	353.2	10
0.108	393.2	10

System: carbon dioxide + 2-hydroxypropyl 2-methyl-2-propenoate; phases: Gas, Liquid
Property: Vapor or sublimation pressure, kPa (Gas); method: CCELL:UFactor:16
Temperature, K	Mole fraction of 2-hydroxypropyl 2-methyl-2-propenoate	Vapor or sublimation pressure, kPa	uncertainty
313.2	0.018	9360	470
333.2	0.018	11790	590
333.2	0.038	13660	680
333.2	0.058	14100	700
353.2	0.018	14540	720
353.2	0.038	17410	870
353.2	0.058	18220	910
373.2	0.018	16860	840
373.2	0.038	19930	990
373.2	0.058	20740	1030
373.2	0.068	21070	1050
393.2	0.018	17520	870
393.2	0.038	21690	1080
393.2	0.058	22860	1130
393.2	0.068	23140	1150

System: carbon dioxide + 2-hydroxypropyl 2-methyl-2-propenoate; phases: Liquid, Gas
Property: Vapor or sublimation pressure, kPa (Liquid); method: CCELL:UFactor:16
Temperature, K	Mole fraction of 2-hydroxypropyl 2-methyl-2-propenoate	Vapor or sublimation pressure, kPa	uncertainty
313.2	0.058	9320	470
313.2	0.068	9340	470
313.2	0.108	9260	470
313.2	0.158	9070	460
313.2	0.196	8990	450
313.2	0.294	8190	410
313.2	0.331	7830	390
313.2	0.408	7310	370
313.2	0.477	6830	340
313.2	0.586	5830	290
313.2	0.662	4940	250
313.2	0.747	4230	210
333.2	0.068	14340	720
333.2	0.108	14340	720
333.2	0.158	13740	690
333.2	0.196	13010	650
333.2	0.294	11690	580
333.2	0.331	10790	540
333.2	0.408	9860	490
333.2	0.477	8780	440
333.2	0.586	7240	360
333.2	0.662	6030	300
333.2	0.747	5300	260
353.2	0.108	18460	920
353.2	0.158	18150	900
353.2	0.196	17190	860
353.2	0.294	14690	730
353.2	0.331	13830	690
353.2	0.408	12520	620
353.2	0.477	10750	530
353.2	0.586	8680	430
353.2	0.662	7130	350
353.2	0.747	6040	300
373.2	0.108	21480	1070
373.2	0.158	21190	1050
373.2	0.196	20070	1000
373.2	0.294	17410	870
373.2	0.331	16480	820
373.2	0.408	14340	710
373.2	0.477	12470	620
373.2	0.586	9820	490
373.2	0.662	8120	400
373.2	0.747	6650	330
393.2	0.158	23360	1160
393.2	0.196	22260	1100
393.2	0.294	19450	970
393.2	0.331	18590	920
393.2	0.408	16030	800
393.2	0.477	14210	710
393.2	0.586	10990	550
393.2	0.662	9110	450
393.2	0.747	7030	350
