Measured thermophysical data. Thermodynamic and thermophysics properties of synthetic britholite SrPr4(SiO4)3O
Source: J. Chem. Thermodyn., 2017, 10.1016/j.jct.2017.01.002
Compound 1: praseodymium strontium oxide silicate (Pr4SrO(SiO4)3), O13Pr4Si3Sr, InChI=1S/3O4Si.O.4Pr.Sr/c3*1-5(2,3)4;;;;;;/q3*-4;-2;4*+3;+2, purity 99.8%

System: praseodymium strontium oxide silicate (Pr4SrO(SiO4)3); phases: Crystal
Fixed: Pressure, kPa = 101.325
Property: Molar heat capacity at constant pressure, J/K/mol (Crystal); method: Small (less than 1 g) adiabatic calorimetry
Temperature, K	Molar heat capacity at constant pressure, J/K/mol	uncertainty
2	0.3111	0.0267
3	1.05	0.055
4	2.489	0.116
5	4.861	0.213
6	6.477	0.278
7	7.907	0.336
8	9.276	0.392
9	10.59	0.45
10	11.75	0.49
15	15.55	0.64
20	20.67	0.85
25	28.22	0.36
30	37.77	0.43
35	48.67	0.55
40	59.88	0.66
45	71.52	0.43
50	83.68	0.5
60	107.9	0.6
70	131.3	0.8
80	153.5	0.9
90	174.4	0.9
100	194.1	1
110	212.8	1.1
120	230.5	1.2
130	247.3	1.3
140	263.2	1.4
150	278.1	1.4
160	292.2	1.5
170	305.4	1.6
180	317.8	1.6
190	329.5	1.7
200	340.4	1.8
210	350.7	1.8
220	360.5	1.9
230	369.8	1.9
240	378.8	1.9
250	387.4	2
260	395.8	2
270	404	2.1
273.15	406.5	2.1
280	412	2.1
290	420	2.1
298.15	426.4	2.2
300	427.8	2.2
310	435.6	2.2
320	443.3	2.3
330	450.9	2.3
340	458.4	2.3
347	463.6	2.4

System: praseodymium strontium oxide silicate (Pr4SrO(SiO4)3); phases: Crystal
Fixed: Pressure, kPa = 101.325
Property: Molar enthalpy, kJ/mol (Crystal); method: Small (less than 1 g) adiabatic calorimetry
Temperature, K	Molar enthalpy, kJ/mol	uncertainty
2	0.000179	3.6e-05
3	0.000825	6.7e-05
4	0.00254	0.00015
5	0.00607	0.0003
6	0.01188	0.00054
7	0.01903	0.00084
8	0.02768	0.00121
9	0.03757	0.00162
10	0.0488	0.00208
15	0.1185	0.0049
20	0.208	0.0086
25	0.3293	0.0043
30	0.4936	0.0063
35	0.7093	0.0087
40	0.9807	0.0117
45	1.309	0.01
50	1.697	0.012
60	2.655	0.017
70	3.852	0.024
80	5.277	0.032
90	6.918	0.043
100	8.761	0.053
110	10.8	0.06
120	13.01	0.08
130	15.4	0.09
140	17.96	0.1
150	20.66	0.12
160	23.52	0.13
170	26.5	0.15
180	29.62	0.16
190	32.86	0.18
200	36.21	0.2
210	39.66	0.21
220	43.22	0.23
230	46.87	0.25
240	50.62	0.27
250	54.45	0.29
260	58.36	0.31
270	62.36	0.33
273.15	63.64	0.34
280	66.44	0.35
290	70.6	0.37
298.15	74.05	0.39
300	74.84	0.39
310	79.16	0.41
320	83.55	0.44
330	88.03	0.46
340	92.57	0.48
347	95.8	0.5

System: praseodymium strontium oxide silicate (Pr4SrO(SiO4)3); phases: Crystal
Fixed: Pressure, kPa = 101.325
Property: Molar entropy, J/K/mol (Crystal); method: Small (less than 1 g) adiabatic calorimetry
Temperature, K	Molar entropy, J/K/mol	uncertainty
2	0.1069	0.0261
3	0.3532	0.0361
4	0.8328	0.0637
5	1.604	0.111
6	2.678	0.177
7	3.768	0.244
8	4.93	0.316
9	6.092	0.388
10	7.277	0.461
15	12.88	0.8
20	17.99	1.11
25	23.38	0.44
30	29.34	0.51
35	35.97	0.62
40	43.2	0.73
45	50.92	0.49
50	59.09	0.55
60	76.48	0.69
70	94.89	0.83
80	113.9	1
90	133.2	1.1
100	152.6	1.3
110	172	1.4
120	191.3	1.5
130	210.4	1.7
140	229.3	1.8
150	248	2
160	266.4	2.1
170	284.5	2.2
180	302.3	2.4
190	319.8	2.5
200	337	2.6
210	353.8	2.7
220	370.4	2.9
230	386.6	3
240	402.5	3.1
250	418.2	3.2
260	433.5	3.3
270	448.6	3.4
273.15	453.3	3.5
280	463.5	3.5
290	478.1	3.6
298.15	489.8	3.7
300	492.4	3.7
310	506.6	3.8
320	520.5	4
330	534.3	4.1
340	547.9	4.2
347	557.3	4.2

System: praseodymium strontium oxide silicate (Pr4SrO(SiO4)3); phases: Crystal
Fixed: Pressure, kPa = 101.325
Property: Mass density, kg/m3 (Crystal); method: X-ray diffraction
Temperature, K	Mass density, kg/m3	uncertainty
173	5477	4
223	5471	4
248	5461	4
273	5459	4
298	5461	4
323	5455	4
373	5447	4
473	5434	4
573	5422	4
673	5406	4
773	5395	4
873	5378	4
973	5361	4
1073	5344	4
1173	5330	4

System: praseodymium strontium oxide silicate (Pr4SrO(SiO4)3); phases: Crystal
Fixed: Pressure, kPa = 101.325
Property: Molar heat capacity at constant pressure, J/K/mol (Crystal); method: Small (less than 1 g) adiabatic calorimetry
Temperature, K	Molar heat capacity at constant pressure, J/K/mol	uncertainty
5.42	5.568	0.24
5.58	5.834	0.251
5.8	6.203	0.267
6.03	6.534	0.28
6.24	6.847	0.293
6.44	7.143	0.305
6.65	7.468	0.318
6.85	7.734	0.329
7.05	8.001	0.34
7.26	8.273	0.351
7.46	8.537	0.362
7.67	8.805	0.373
7.87	9.156	0.387
8.08	9.367	0.396
8.28	9.743	0.411
8.49	9.933	0.419
8.69	10.19	0.43
8.9	10.47	0.44
9.11	10.76	0.45
9.31	10.98	0.46
9.52	11.24	0.47
9.72	11.44	0.48
9.93	11.66	0.49
10.34	12.1	0.51
10.97	12.79	0.54
11.61	13.43	0.56
12.25	14.08	0.59
12.91	14.52	0.6
9.82	11.48	0.48
10.03	11.76	0.49
10.44	12.24	0.51
11.07	12.88	0.54
11.71	13.55	0.57
12.36	14.08	0.59
13.01	14.53	0.6
13.68	14.68	0.61
14.36	15.04	0.62
15.03	15.59	0.65
15.7	16.12	0.67
16.38	16.76	0.69
17.06	17.33	0.72
17.74	17.94	0.74
18.43	18.81	0.77
19.12	19.51	0.8
19.81	20.41	0.84
21.17	22.27	0.3
23.23	25.35	0.33
25.36	28.78	0.36
27.52	32.77	0.4
29.71	37.17	0.44
31.93	42.02	0.48
34.19	46.96	0.53
36.49	51.96	0.58
38.81	57.15	0.63
41.15	62.54	0.39
43.52	68.09	0.42
45.91	73.77	0.45
48.32	79.63	0.48
50.74	85.59	0.51
226.84	366.9	1.9
226.9	367	1.9
229.38	369.4	1.9
230.44	370.5	1.9
231.91	371.4	1.9
233.99	373.3	1.9
234.44	374.6	1.9
236.98	376.5	1.9
237.56	376.6	1.9
239.51	378.5	1.9
241.13	379.8	1.9
242.04	380.9	2
244.56	383.1	2
244.7	383.2	2
248.28	385.8	2
251.87	388.8	2
255.57	392.4	2
259.18	394.8	2
262.79	397.7	2
266.4	400.4	2
270.02	403.4	2.1
273.65	406.2	2.1
277.27	409.3	2.1
280.89	412.5	2.1
284.5	415.2	2.1
288.11	417.8	2.1
291.71	421.2	2.1
295.29	424	2.2
13.58	14.69	0.61
14.25	15.02	0.62
14.92	15.51	0.64
15.6	16.05	0.66
16.26	16.57	0.69
16.95	17.19	0.71
17.63	17.85	0.74
18.31	18.68	0.77
19	19.52	0.8
19.7	20.29	0.83
21.06	22.12	0.3
23.13	25.18	0.33
25.26	28.66	0.36
27.42	32.53	0.4
29.61	37	0.44
31.83	41.75	0.47
34.09	46.62	0.52
36.38	51.62	0.58
38.69	56.81	0.63
41.03	62.28	0.39
43.4	67.77	0.41
45.79	73.43	0.44
48.19	79.36	0.48
50.61	85.23	0.51
53.05	91.16	0.54
55.5	96.92	0.57
57.96	103	0.6
60.43	108.9	0.6
62.91	114.6	0.7
53.18	91.54	0.54
55.63	97.3	0.57
58.09	103.4	0.6
60.57	109.2	0.6
63.05	115	0.7
65.55	121	0.7
68.05	126.9	0.7
70.56	132.7	0.8
73.06	138.2	0.8
75.55	143.9	0.8
78.05	149.1	0.8
80.55	154.8	0.9
83.07	160.2	0.9
85.59	165.3	0.9
88.11	170.5	1
90.64	175.9	1
93.18	180.9	1
95.72	185.9	1
98.26	190.8	1
88.32	171.1	1
91.69	177.7	1
95.06	184.7	1
98.45	191.2	1
101.84	197.6	1.1
105.23	203.9	1.1
108.64	210.1	1.1
112.05	216.5	1.1
115.47	222.4	1.2
118.89	228.4	1.2
122.32	234.4	1.2
298.86	426.5	2.2
303.03	430.4	2.2
307.64	433.3	2.2
312.2	436.8	2.2
316.71	440.6	2.2
321.18	444.1	2.3
325.61	447.7	2.3
329.98	451.1	2.3
334.32	453.8	2.3
338.64	457.5	2.3
342.92	460.6	2.3
347.15	464.2	2.4
222.09	361.9	1.9
225.4	365.2	1.9
228.08	367.6	1.9
230.76	371.1	1.9
233.45	373	1.9
236.15	375.3	1.9
238.85	377.7	1.9
241.55	380.4	1.9
244.27	382.2	2
246.98	384.1	2
249.7	387.9	2
252.46	389.1	2
255.2	392.1	2
257.94	394.3	2
260.68	395.8	2
65.41	120.5	0.7
67.91	126.4	0.7
4.77	4.296	0.189
4.86	4.437	0.194
4.93	4.657	0.203
5.01	4.794	0.209
5.16	5.189	0.225
5.38	5.526	0.239
5.61	5.824	0.251
5.84	6.173	0.265
6.06	6.502	0.279
6.27	6.914	0.295
6.49	7.188	0.307
6.7	7.467	0.318
6.91	7.748	0.33
7.11	8.07	0.343
7.32	8.304	0.352
7.54	8.619	0.365
7.75	8.902	0.377
7.95	9.17	0.388
8.16	9.452	0.399
8.37	9.777	0.413
8.58	10	0.42
8.78	10.31	0.43
8.99	10.59	0.45
9.2	10.89	0.46
9.41	11.1	0.47
9.62	11.28	0.47
125.75	240.1	1.3
129.19	245.7	1.3
132.64	251.5	1.3
136.09	257	1.3
139.54	262.5	1.4
143.02	268.1	1.4
146.49	273.2	1.4
149.95	278.1	1.4
153.42	283	1.5
156.89	288	1.5
160.36	292.8	1.5
163.83	297.4	1.5
167.31	301.9	1.6
170.79	306.5	1.6
174.28	310.8	1.6
177.76	315.1	1.6
181.25	319.3	1.7
184.74	323.5	1.7
188.23	327.4	1.7
191.73	331.1	1.7
195.22	335.2	1.7
198.75	339.1	1.7
202.25	342.9	1.8
205.76	346.6	1.8
209.27	349.7	1.8
212.78	353.5	1.8
216.3	356.7	1.8
219.83	360.2	1.9
221.1	361.6	1.9
223.36	363.3	1.9
224.3	364.9	1.9
263.43	398.4	2
266.33	401.7	2.1
269.09	402.9	2.1
271.86	405.5	2.1
274.64	408.3	2.1
277.41	410.1	2.1
280.19	412.8	2.1
282.97	414.9	2.1
285.76	416.8	2.1
288.54	419.5	2.1
291.32	421.8	2.2
294.1	423.7	2.2
296.87	425.5	2.2
299.63	428	2.2
302.94	430.4	2.2
306.52	432.6	2.2
310.07	436.1	2.2
313.61	438.9	2.2
317.12	441.4	2.2
320.63	444.1	2.3
324.11	446.7	2.3
327.57	448.7	2.3
331.01	452.1	2.3
334.43	453.5	2.3
337.85	456.4	2.3
341.24	458.9	2.3
344.6	462.1	2.3
