Measured thermophysical data. Standard enthalpy, entropy and Gibbs free energy of formation of "A" type carbonate phosphocalcium hydroxyapatites
Source: J. Chem. Thermodyn., 2017, 10.1016/j.jct.2016.10.035
Compound 1: calcium, Ca, InChI=1S/Ca
Compound 2: phosphorus, P, InChI=1S/P
Compound 3: hydrogen, H2, InChI=1S/H2/h1H
Compound 4: oxygen, O2, InChI=1S/O2/c1-2
Compound 5: graphite, C
Compound 6: hydroxyapatite, Ca5HO13P3, InChI=1S/5Ca.3H3O4P.H2O/c;;;;;3*1-5(2,3)4;/h;;;;;3*(H3,1,2,3,4);1H2/q5*+2;;;;/p-10, purity 98%
Compound 7: calcium carbonate phosphate (Ca10(CO3)(PO4)6), CCa10O27P6, InChI=1S/CH2O3.10Ca.6H3O4P/c2-1(3)4;;;;;;;;;;;6*1-5(2,3)4/h(H2,2,3,4);;;;;;;;;;;6*(H3,1,2,3,4)/q;10*+2;;;;;;/p-20, purity 98%

System: hydroxyapatite; phases: Crystal
Property: Mass density, kg/m3 (Crystal); method: X-ray diffraction
Pressure, kPa	Temperature, K	Mass density, kg/m3	uncertainty
100	298.15	3155	12

System: calcium carbonate phosphate (Ca10(CO3)(PO4)6); phases: Crystal
Property: Mass density, kg/m3 (Crystal); method: X-ray diffraction
Pressure, kPa	Temperature, K	Mass density, kg/m3	uncertainty
100	298.15	3172	12

System: hydroxyapatite + calcium carbonate phosphate (Ca10(CO3)(PO4)6); phases: Crystal
Fixed: Pressure, kPa = 100
Fixed: Temperature, K = 298.15
Property: Mass density, kg/m3 (Crystal); method: X-ray diffraction
Mole fraction of calcium carbonate phosphate (Ca10(CO3)(PO4)6)	Mass density, kg/m3	uncertainty
0	3155	12
0.119	3171	14
0.245	3174	12
0.311	3164	12
0.406	3168	12
0.54	3175	12
0.724	3180	12
0.84	3173	12
1	3172	12

Reaction: -5 calcium + -3 phosphorus + 1 hydroxyapatite + -.5 hydrogen + -6.5 oxygen
Property: Molar enthalpy of reaction, kJ/mol
-6680.5

Reaction: -10 calcium + -6 phosphorus + 1 calcium carbonate phosphate (Ca10(CO3)(PO4)6) + -1 graphite + -13.5 oxygen
Property: Molar enthalpy of reaction, kJ/mol
-13494
