Measured thermophysical data. Experimental thermochemical study of 2-chloroacetophenone and 2,4'-dichloroacetophenone
Source: J. Chem. Thermodyn., 2014, 10.1016/j.jct.2013.07.026
Compound 1: hydrogen chloride, ClH, InChI=1S/ClH/h1H
Compound 2: carbon dioxide, CO2, InChI=1S/CO2/c2-1-3
Compound 3: water, H2O, InChI=1S/H2O/h1H2
Compound 4: oxygen, O2, InChI=1S/O2/c1-2
Compound 5: 2,4'-dichloroacetophenone, C8H6Cl2O, InChI=1S/C8H6Cl2O/c9-5-8(11)6-1-3-7(10)4-2-6/h1-4H,5H2, purity 99%
Compound 6: 2-chloroacetophenone, C8H7ClO, InChI=1S/C8H7ClO/c9-6-8(10)7-4-2-1-3-5-7/h1-5H,6H2, purity 98%

System: 2,4'-dichloroacetophenone; phases: Crystal, Gas
Property: Vapor or sublimation pressure, kPa (Crystal); method: Calculated from knudsen effusion weight loss
Temperature, K	Vapor or sublimation pressure, kPa	uncertainty
323.09	0.001131	0.000116
321.15	0.000911	4.6e-05
319.18	0.000757	3.8e-05
317.1	0.000562	2.8e-05
315.19	0.000448	2.2e-05
313.19	0.000359	1.8e-05
311.1	0.000278	1.4e-05
309.18	0.000221	1.1e-05
307.19	0.000178	9e-06
305.1	0.000134	7e-06
303.19	9.9e-05	5e-06
301.2	8.5e-05	4e-06
323.09	0.001115	0.000114
321.15	0.000903	4.5e-05
319.18	0.000699	3.5e-05
317.1	0.000561	2.8e-05
315.19	0.000447	2.2e-05
313.19	0.000344	1.7e-05
311.1	0.00027	1.4e-05
309.18	0.000218	1.1e-05
307.19	0.000165	8e-06
305.1	0.000133	7e-06
303.19	0.000105	5e-06
301.2	7.6e-05	4e-06
323.09	0.001107	0.000113
321.15	0.000875	4.4e-05
319.18	0.000686	3.4e-05
317.1	0.000553	2.8e-05
315.19	0.000437	2.2e-05
313.19	0.000341	1.7e-05
311.1	0.000271	1.4e-05
309.18	0.000214	1.1e-05
307.19	0.000165	8e-06
305.1	0.000131	7e-06
303.19	0.000103	5e-06
301.2	7.9e-05	4e-06

System: 2-chloroacetophenone; phases: Crystal, Gas
Property: Molar enthalpy of vaporization or sublimation, kJ/mol (Crystal); method: Static calorimetry
Temperature, K	Molar enthalpy of vaporization or sublimation, kJ/mol	uncertainty
298.15	87.7	1.7

Reaction: -1 2-chloroacetophenone + 1 hydrogen chloride + 8 carbon dioxide + 3 water + -9 oxygen
Property: Specific internal energy of reaction at constant volume, J/g
-25809.9

Reaction: -1 2,4'-dichloroacetophenone + 2 hydrogen chloride + 8 carbon dioxide + 2 water + -8.5 oxygen
Property: Specific internal energy of reaction at constant volume, J/g
-20251.6
