Measured thermophysical data. Study of bromide salts solubility in the (m1KBr + m2CaBr2)(aq) system at T = 323.15 K. Thermodynamic model of solution behaviour and (solid + liquid) equilibria in the ternaries (m1KBr + m2CaBr2)(aq), and (m1MgBr2 + m2CaBr2)(aq), and in the quinary (Na + K + Mg + Ca + Br + H2O) systems to high concentration and temperature
Source: J. Chem. Thermodyn., 2012, 10.1016/j.jct.2012.06.006
Compound 1: potassium bromide, BrK, InChI=1S/BrH.K/h1H;/q;+1/p-1, purity 99.99%
Compound 2: calcium bromide, Br2Ca, InChI=1S/2BrH.Ca/h2*1H;/q;;+2/p-2, purity 99.99%
Compound 3: water, H2O, InChI=1S/H2O/h1H2, purity 99%

System: water + potassium bromide; phases: Liquid, Crystal
Property: Mass fraction of potassium bromide (Liquid); method: Titration method
Temperature, K	Pressure, kPa	Mass fraction of potassium bromide	uncertainty
323.15	101	0.447	0.001

System: water + potassium bromide + calcium bromide; phases: Liquid, Crystal
Fixed: Temperature, K = 323.15
Fixed: Pressure, kPa = 101
Property: Mass fraction of calcium bromide (Liquid); method: Titration method
Mass fraction of potassium bromide	Mass fraction of calcium bromide	uncertainty
0.416	0.0346	0.0001
0.328	0.119	0.001
0.237	0.218	0.001
0.0769	0.393	0.001
0.0399	0.487	0.002
0.0142	0.576	0.002
0.0038	0.643	0.002
0.0037	0.686	0.002
0.00403	0.689	0.002

System: water + potassium bromide + calcium bromide; phases: Liquid, Crystal of intercomponent compound 3, Crystal
Fixed: Temperature, K = 323.15
Fixed: Pressure, kPa = 101
Property: Mass fraction of calcium bromide (Liquid); method: Titration method
Mass fraction of calcium bromide	uncertainty
0.703	0.002
0.705	0.002

System: water + calcium bromide; phases: Liquid, Crystal
Property: Mass fraction of calcium bromide (Liquid); method: Titration method
Temperature, K	Pressure, kPa	Mass fraction of calcium bromide	uncertainty
323.15	101	0.702	0.002
