Measured thermophysical data. Thermodynamic modeling of ternary and quaternary (liquid + liquid) systems containing water, FeCl3, HCl and diisopropyl ether
Source: J. Chem. Thermodyn., 2013, 10.1016/j.jct.2013.07.007
Compound 1: hydrogen chloride, ClH, InChI=1S/ClH/h1H, purity 99%
Compound 2: diisopropyl ether, C6H14O, InChI=1S/C6H14O/c1-5(2)7-6(3)4/h5-6H,1-4H3, purity 99%
Compound 3: ferric chloride, Cl3Fe, InChI=1S/3ClH.Fe/h3*1H;/q;;;+3/p-3, purity 97%
Compound 4: water, H2O, InChI=1S/H2O/h1H2, purity 99.8%

System: diisopropyl ether + hydrogen chloride + water; phases: Liquid mixture 1, Liquid mixture 2
Fixed: Pressure, kPa = 101
Fixed: Temperature, K = 293.15
Property: Mole fraction of hydrogen chloride (Liquid mixture 1); method: Titration method
Mole fraction of water	Mole fraction of hydrogen chloride	uncertainty
0.611	0.2105	0.0085
0.6758	0.1924	0.0082
0.8137	0.1558	0.0077
0.9254	0.0728	0.0071
0.9811	0.0177	0.0072

System: diisopropyl ether + ferric chloride + water; phases: Liquid mixture 1, Liquid mixture 2
Fixed: Pressure, kPa = 101
Fixed: Temperature, K = 293.15
Property: Mole fraction of ferric chloride (Liquid mixture 1); method: Titration method
Mole fraction of water	Mole fraction of ferric chloride	uncertainty
0.9466	0.0515	0.0072
0.9821	0.0178	0.0071
0.9989	0.0011	0.0011
