Measured thermophysical data. Solubility and preferential solvation of 2-methyl-4-nitroaniline in mixed solvents of ethyl acetate + (methanol, ethanol, n-propanol and isopropanol)
Source: J. Chem. Thermodyn., 2017, 10.1016/j.jct.2017.05.044
Compound 1: 2-methyl-4-nitroaniline, C7H8N2O2, InChI=1S/C7H8N2O2/c1-5-4-6(9(10)11)2-3-7(5)8/h2-4H,8H2,1H3, purity 97.9%
Compound 2: methanol, CH4O, InChI=1S/CH4O/c1-2/h2H,1H3, purity 99.3%
Compound 3: ethanol, C2H6O, InChI=1S/C2H6O/c1-2-3/h3H,2H2,1H3, purity 99.5%
Compound 4: propan-1-ol, C3H8O, InChI=1S/C3H8O/c1-2-3-4/h4H,2-3H2,1H3, purity 99.4%
Compound 5: propan-2-ol, C3H8O, InChI=1S/C3H8O/c1-3(2)4/h3-4H,1-2H3, purity 99.4%
Compound 6: ethyl acetate, C4H8O2, InChI=1S/C4H8O2/c1-3-6-4(2)5/h3H2,1-2H3, purity 99.5%

System: methanol + 2-methyl-4-nitroaniline + ethyl acetate; phases: Liquid, Crystal
Fixed: Pressure, kPa = 101.1
Property: Mole fraction of 2-methyl-4-nitroaniline (Liquid); method: Chromatography
Temperature, K	Solvent: Mass fraction of ethyl acetate	Mole fraction of 2-methyl-4-nitroaniline	uncertainty
278.15	0.0996	0.01182	0.00156
283.15	0.0996	0.01429	0.00189
288.15	0.0996	0.01679	0.00222
293.15	0.0996	0.01982	0.00262
298.15	0.0996	0.0232	0.00306
303.15	0.0996	0.02739	0.00362
308.15	0.0996	0.03181	0.0042
313.15	0.0996	0.03687	0.00487
278.15	0.2002	0.01598	0.00211
283.15	0.2002	0.01919	0.00253
288.15	0.2002	0.02236	0.00295
293.15	0.2002	0.02637	0.00348
298.15	0.2002	0.03075	0.00406
303.15	0.2002	0.03605	0.00476
308.15	0.2002	0.04174	0.00551
313.15	0.2002	0.04814	0.00636
278.15	0.2998	0.02057	0.00272
283.15	0.2998	0.02453	0.00324
288.15	0.2998	0.02856	0.00377
293.15	0.2998	0.03358	0.00444
298.15	0.2998	0.03912	0.00517
303.15	0.2998	0.04547	0.00601
308.15	0.2998	0.05239	0.00692
313.15	0.2998	0.06034	0.00797
278.15	0.4002	0.02556	0.00338
283.15	0.4002	0.03043	0.00402
288.15	0.4002	0.0353	0.00466
293.15	0.4002	0.04119	0.00544
298.15	0.4002	0.04777	0.00631
303.15	0.4002	0.05531	0.00731
308.15	0.4002	0.0639	0.00844
313.15	0.4002	0.07312	0.00966
278.15	0.4994	0.03066	0.00405
283.15	0.4994	0.03621	0.00479
288.15	0.4994	0.04229	0.00559
293.15	0.4994	0.04898	0.00647
298.15	0.4994	0.0569	0.00752
303.15	0.4994	0.06551	0.00866
308.15	0.4994	0.07515	0.00993
313.15	0.4994	0.08592	0.01135
278.15	0.6005	0.03594	0.00475
283.15	0.6005	0.04239	0.0056
288.15	0.6005	0.04934	0.00652
293.15	0.6005	0.05708	0.00754
298.15	0.6005	0.06603	0.00872
303.15	0.6005	0.0762	0.01007
308.15	0.6005	0.08694	0.01148
313.15	0.6005	0.09897	0.01307
278.15	0.6992	0.04171	0.00551
283.15	0.6992	0.04893	0.00646
288.15	0.6992	0.05659	0.00747
293.15	0.6992	0.06559	0.00866
298.15	0.6992	0.07542	0.00996
303.15	0.6992	0.08653	0.01143
308.15	0.6992	0.0988	0.01305
313.15	0.6992	0.1123	0.0148
278.15	0.7993	0.04776	0.00631
283.15	0.7993	0.05566	0.00735
288.15	0.7993	0.06434	0.0085
293.15	0.7993	0.07438	0.00982
298.15	0.7993	0.08579	0.01133
303.15	0.7993	0.09758	0.01289
308.15	0.7993	0.1113	0.0147
313.15	0.7993	0.1262	0.0167
278.15	0.9007	0.05415	0.00715
283.15	0.9007	0.06342	0.00837
288.15	0.9007	0.07346	0.0097
293.15	0.9007	0.08441	0.01115
298.15	0.9007	0.09719	0.01283
303.15	0.9007	0.1104	0.0146
308.15	0.9007	0.1255	0.0166
313.15	0.9007	0.1422	0.0188

System: ethanol + 2-methyl-4-nitroaniline + ethyl acetate; phases: Liquid, Crystal
Fixed: Pressure, kPa = 101.1
Property: Mole fraction of 2-methyl-4-nitroaniline (Liquid); method: Chromatography
Temperature, K	Solvent: Mass fraction of ethyl acetate	Mole fraction of 2-methyl-4-nitroaniline	uncertainty
278.15	0.1002	0.0112	0.00148
283.15	0.1002	0.01345	0.00178
288.15	0.1002	0.01612	0.00213
293.15	0.1002	0.01894	0.0025
298.15	0.1002	0.02243	0.00296
303.15	0.1002	0.02647	0.0035
308.15	0.1002	0.03107	0.0041
313.15	0.1002	0.03625	0.00479
278.15	0.1995	0.01554	0.00205
283.15	0.1995	0.01883	0.00249
288.15	0.1995	0.02225	0.00294
293.15	0.1995	0.02622	0.00346
298.15	0.1995	0.03081	0.00407
303.15	0.1995	0.03621	0.00478
308.15	0.1995	0.04222	0.00558
313.15	0.1995	0.04904	0.00648
278.15	0.2996	0.02083	0.00275
283.15	0.2996	0.02487	0.00329
288.15	0.2996	0.02927	0.00387
293.15	0.2996	0.03434	0.00454
298.15	0.2996	0.04019	0.00531
303.15	0.2996	0.04693	0.0062
308.15	0.2996	0.05444	0.00719
313.15	0.2996	0.06291	0.00831
278.15	0.4002	0.02648	0.0035
283.15	0.4002	0.03136	0.00414
288.15	0.4002	0.03718	0.00491
293.15	0.4002	0.04317	0.0057
298.15	0.4002	0.05043	0.00666
303.15	0.4002	0.05832	0.00771
308.15	0.4002	0.06724	0.00888
313.15	0.4002	0.07737	0.01022
278.15	0.4996	0.03244	0.00429
283.15	0.4996	0.03828	0.00506
288.15	0.4996	0.0449	0.00593
293.15	0.4996	0.05217	0.00689
298.15	0.4996	0.06042	0.00798
303.15	0.4996	0.06983	0.00923
308.15	0.4996	0.08021	0.0106
313.15	0.4996	0.09199	0.01215
278.15	0.5993	0.03843	0.00508
283.15	0.5993	0.04517	0.00597
288.15	0.5993	0.0527	0.00696
293.15	0.5993	0.06116	0.00808
298.15	0.5993	0.07085	0.00936
303.15	0.5993	0.0814	0.01075
308.15	0.5993	0.09344	0.01234
313.15	0.5993	0.1064	0.0141
278.15	0.7002	0.04457	0.00589
283.15	0.7002	0.05188	0.00685
288.15	0.7002	0.06063	0.00801
293.15	0.7002	0.07054	0.00932
298.15	0.7002	0.081	0.0107
303.15	0.7002	0.09214	0.01217
308.15	0.7002	0.1063	0.014
313.15	0.7002	0.1207	0.0159
278.15	0.8003	0.05079	0.00671
283.15	0.8003	0.05937	0.00784
288.15	0.8003	0.06852	0.00905
293.15	0.8003	0.07929	0.01047
298.15	0.8003	0.09103	0.01202
303.15	0.8003	0.1039	0.0137
308.15	0.8003	0.1186	0.0157
313.15	0.8003	0.1346	0.0178
278.15	0.9001	0.05628	0.00743
283.15	0.9001	0.06568	0.00867
288.15	0.9001	0.07636	0.01008
293.15	0.9001	0.08769	0.01158
298.15	0.9001	0.1007	0.0133
303.15	0.9001	0.1147	0.0151
308.15	0.9001	0.1306	0.0172
313.15	0.9001	0.1479	0.0195

System: propan-1-ol + 2-methyl-4-nitroaniline + ethyl acetate; phases: Liquid, Crystal
Fixed: Pressure, kPa = 101.1
Property: Mole fraction of 2-methyl-4-nitroaniline (Liquid); method: Chromatography
Temperature, K	Solvent: Mass fraction of ethyl acetate	Mole fraction of 2-methyl-4-nitroaniline	uncertainty
278.15	0.1005	0.009877	0.001305
283.15	0.1005	0.01195	0.00158
288.15	0.1005	0.01437	0.0019
293.15	0.1005	0.01717	0.00227
298.15	0.1005	0.0205	0.00271
303.15	0.1005	0.02418	0.00319
308.15	0.1005	0.02852	0.00377
313.15	0.1005	0.03346	0.00442
278.15	0.1991	0.01408	0.00186
283.15	0.1991	0.01689	0.00223
288.15	0.1991	0.02008	0.00265
293.15	0.1991	0.02379	0.00314
298.15	0.1991	0.0283	0.00374
303.15	0.1991	0.03337	0.00441
308.15	0.1991	0.03879	0.00512
313.15	0.1991	0.04525	0.00598
278.15	0.3004	0.01872	0.00247
283.15	0.3004	0.02248	0.00297
288.15	0.3004	0.0267	0.00353
293.15	0.3004	0.03138	0.00415
298.15	0.3004	0.03706	0.0049
303.15	0.3004	0.04335	0.00573
308.15	0.3004	0.0504	0.00666
313.15	0.3004	0.05843	0.00772
278.15	0.4008	0.02397	0.00317
283.15	0.4008	0.0286	0.00378
288.15	0.4008	0.03347	0.00442
293.15	0.4008	0.03949	0.00522
298.15	0.4008	0.04625	0.00611
303.15	0.4008	0.05367	0.00709
308.15	0.4008	0.06207	0.0082
313.15	0.4008	0.07171	0.00947
278.15	0.5011	0.02932	0.00388
283.15	0.5011	0.03485	0.00461
288.15	0.5011	0.04103	0.00542
293.15	0.5011	0.04778	0.00631
298.15	0.5011	0.05586	0.00738
303.15	0.5011	0.06452	0.00853
308.15	0.5011	0.0744	0.00983
313.15	0.5011	0.08555	0.0113
278.15	0.5993	0.03489	0.00461
283.15	0.5993	0.0414	0.00547
288.15	0.5993	0.0487	0.00643
293.15	0.5993	0.05633	0.00744
298.15	0.5993	0.06574	0.00868
303.15	0.5993	0.07576	0.01001
308.15	0.5993	0.08704	0.0115
313.15	0.5993	0.09968	0.01317
278.15	0.7002	0.04113	0.00543
283.15	0.7002	0.04853	0.00641
288.15	0.7002	0.0569	0.00752
293.15	0.7002	0.06587	0.0087
298.15	0.7002	0.07614	0.01006
303.15	0.7002	0.08731	0.01153
308.15	0.7002	0.1004	0.0133
313.15	0.7002	0.114	0.0151
278.15	0.7996	0.04811	0.00635
283.15	0.7996	0.05615	0.00742
288.15	0.7996	0.06559	0.00866
293.15	0.7996	0.07553	0.00997
298.15	0.7996	0.08705	0.0115
303.15	0.7996	0.09968	0.01316
308.15	0.7996	0.114	0.0151
313.15	0.7996	0.1296	0.0171
278.15	0.9005	0.05493	0.00725
283.15	0.9005	0.06401	0.00845
288.15	0.9005	0.07447	0.00983
293.15	0.9005	0.08596	0.01135
298.15	0.9005	0.09873	0.01304
303.15	0.9005	0.1124	0.0148
308.15	0.9005	0.128	0.0169
313.15	0.9005	0.145	0.0191

System: propan-2-ol + 2-methyl-4-nitroaniline + ethyl acetate; phases: Liquid, Crystal
Fixed: Pressure, kPa = 101.1
Property: Mole fraction of 2-methyl-4-nitroaniline (Liquid); method: Chromatography
Temperature, K	Solvent: Mass fraction of ethyl acetate	Mole fraction of 2-methyl-4-nitroaniline	uncertainty
278.15	0.1003	0.008519	0.001126
283.15	0.1003	0.01048	0.00138
288.15	0.1003	0.01265	0.00167
293.15	0.1003	0.01537	0.00203
298.15	0.1003	0.01861	0.00246
303.15	0.1003	0.02242	0.00296
308.15	0.1003	0.02674	0.00353
313.15	0.1003	0.03191	0.00421
278.15	0.1997	0.01326	0.00175
283.15	0.1997	0.01626	0.00215
288.15	0.1997	0.01951	0.00258
293.15	0.1997	0.02332	0.00308
298.15	0.1997	0.028	0.0037
303.15	0.1997	0.03344	0.00442
308.15	0.1997	0.03956	0.00523
313.15	0.1997	0.04675	0.00618
278.15	0.2991	0.01864	0.00246
283.15	0.2991	0.02224	0.00294
288.15	0.2991	0.02669	0.00353
293.15	0.2991	0.0317	0.00419
298.15	0.2991	0.03799	0.00502
303.15	0.2991	0.0447	0.00591
308.15	0.2991	0.05271	0.00696
313.15	0.2991	0.06193	0.00818
278.15	0.4005	0.02377	0.00314
283.15	0.4005	0.02876	0.0038
288.15	0.4005	0.03424	0.00453
293.15	0.4005	0.04059	0.00536
298.15	0.4005	0.04793	0.00633
303.15	0.4005	0.05611	0.00741
308.15	0.4005	0.06573	0.00868
313.15	0.4005	0.07654	0.01011
278.15	0.4996	0.02928	0.00387
283.15	0.4996	0.03487	0.00461
288.15	0.4996	0.04126	0.00545
293.15	0.4996	0.04859	0.00642
298.15	0.4996	0.05697	0.00753
303.15	0.4996	0.06655	0.00879
308.15	0.4996	0.07747	0.01024
313.15	0.4996	0.08959	0.01184
278.15	0.6001	0.03462	0.00457
283.15	0.6001	0.04123	0.00545
288.15	0.6001	0.04851	0.00641
293.15	0.6001	0.05683	0.00751
298.15	0.6001	0.06636	0.00877
303.15	0.6001	0.07702	0.01017
308.15	0.6001	0.08878	0.01173
313.15	0.6001	0.1025	0.0135
278.15	0.7002	0.04027	0.00532
283.15	0.7002	0.04776	0.00631
288.15	0.7002	0.05624	0.00743
293.15	0.7002	0.06549	0.00865
298.15	0.7002	0.07572	0.01
303.15	0.7002	0.08755	0.01156
308.15	0.7002	0.1006	0.0133
313.15	0.7002	0.1155	0.0153
278.15	0.7996	0.0467	0.00617
283.15	0.7996	0.05518	0.00729
288.15	0.7996	0.06415	0.00847
293.15	0.7996	0.07439	0.00982
298.15	0.7996	0.0861	0.01137
303.15	0.7996	0.09892	0.01306
308.15	0.7996	0.1134	0.015
313.15	0.7996	0.1293	0.0171
278.15	0.9009	0.05411	0.00715
283.15	0.9009	0.06358	0.0084
288.15	0.9009	0.07355	0.00971
293.15	0.9009	0.08477	0.01119
298.15	0.9009	0.09797	0.01294
303.15	0.9009	0.1118	0.0148
308.15	0.9009	0.1273	0.0168
313.15	0.9009	0.1446	0.0191
