Measured thermophysical data. Thermodynamic evidence for nano-heterogeneity in solutions of the macrocycle C-butylresorcin[4]arene in non-aqueous solvents
Source: J. Chem. Thermodyn., 2018, 10.1016/j.jct.2018.06.006
Compound 1: C-butylresorcin[4]arene, C44H56O8, InChI=1S/C44H56O8/c1-5-9-13-25-29-17-31(39(47)21-37(29)45)26(14-10-6-2)33-19-35(43(51)23-41(33)49)28(16-12-8-4)36-20-34(42(50)24-44(36)52)27(15-11-7-3)32-18-30(25)38(46)22-40(32)48/h17-28,45-52H,5-16H2,1-4H3
Compound 2: ethanol, C2H6O, InChI=1S/C2H6O/c1-2-3/h3H,2H2,1H3, purity 99.9%
Compound 3: propan-1-ol, C3H8O, InChI=1S/C3H8O/c1-2-3-4/h4H,2-3H2,1H3, purity 99%
Compound 4: dimethylformamide, C3H7NO, InChI=1S/C3H7NO/c1-4(2)3-5/h3H,1-2H3, purity 99.7%
Compound 5: dimethyl sulfoxide, C2H6OS, InChI=1S/C2H6OS/c1-4(2)3/h1-2H3, purity 99%
Compound 6: acetonitrile, C2H3N, InChI=1S/C2H3N/c1-2-3/h1H3, purity 99.9%

System: ethanol; phases: Liquid
Fixed: Pressure, kPa = 74
Property: Mass density, kg/m3 (Liquid); method: Vibrating tube method
Temperature, K	Mass density, kg/m3	uncertainty
278.15	802.328	1.608
283.15	798.098	1.599
288.15	793.849	1.591
293.15	789.581	1.583
298.15	785.293	1.574
303.15	780.974	1.566
308.15	776.626	1.557

System: ethanol; phases: Liquid
Fixed: Pressure, kPa = 74
Fixed: Frequency, MHz = 3
Property: Speed of sound, m/s (Liquid); method: Single path-length method
Temperature, K	Speed of sound, m/s	uncertainty
278.15	1212.22	10
283.15	1195.32	10
288.15	1178.97	10
293.15	1163.58	10
298.15	1141.41	10
303.15	1134.38	10
308.15	1109.54	10

System: propan-1-ol; phases: Liquid
Fixed: Pressure, kPa = 74
Property: Mass density, kg/m3 (Liquid); method: Vibrating tube method
Temperature, K	Mass density, kg/m3	uncertainty
278.15	815.55	1.645
283.15	811.603	1.637
288.15	807.64	1.63
293.15	803.658	1.622
298.15	799.653	1.614
303.15	795.616	1.606
308.15	791.548	1.598

System: propan-1-ol; phases: Liquid
Fixed: Pressure, kPa = 74
Fixed: Frequency, MHz = 3
Property: Speed of sound, m/s (Liquid); method: Single path-length method
Temperature, K	Speed of sound, m/s	uncertainty
278.15	1263.01	10.05
283.15	1257.07	10.05
288.15	1240.49	10.05
293.15	1222.04	10.05
298.15	1205.07	10.05
303.15	1188.08	10.05
308.15	1171.04	10.05

System: dimethylformamide; phases: Liquid
Fixed: Pressure, kPa = 74
Property: Mass density, kg/m3 (Liquid); method: Vibrating tube method
Temperature, K	Mass density, kg/m3	uncertainty
278.15	962.907	1.927
283.15	958.169	1.917
288.15	953.415	1.908
293.15	948.658	1.898
298.15	943.891	1.889
303.15	939.12	1.879
308.15	934.339	1.87

System: dimethylformamide; phases: Liquid
Fixed: Pressure, kPa = 74
Fixed: Frequency, MHz = 3
Property: Speed of sound, m/s (Liquid); method: Single path-length method
Temperature, K	Speed of sound, m/s	uncertainty
278.15	1532.39	10
283.15	1513.2	10
288.15	1491.21	10
293.15	1474.19	10
298.15	1455.2	10
303.15	1436.18	10
308.15	1416.21	10

System: dimethyl sulfoxide; phases: Liquid
Fixed: Pressure, kPa = 74
Property: Mass density, kg/m3 (Liquid); method: Vibrating tube method
Temperature, K	Mass density, kg/m3	uncertainty
293.15	1100.428	2.219
298.15	1095.416	2.209
303.15	1090.401	2.198
308.15	1085.388	2.188

System: dimethyl sulfoxide; phases: Liquid
Fixed: Pressure, kPa = 74
Fixed: Frequency, MHz = 3
Property: Speed of sound, m/s (Liquid); method: Single path-length method
Temperature, K	Speed of sound, m/s	uncertainty
293.15	1504.25	10.05
298.15	1485.24	10.05
303.15	1468.22	10.05
308.15	1451.21	10.05

System: acetonitrile; phases: Liquid
Fixed: Pressure, kPa = 74
Property: Mass density, kg/m3 (Liquid); method: Vibrating tube method
Temperature, K	Mass density, kg/m3	uncertainty
278.15	798.119	1.6
283.15	792.789	1.589
288.15	787.436	1.579
293.15	782.057	1.568
298.15	776.659	1.557
303.15	771.229	1.547
308.15	765.768	1.536

System: acetonitrile; phases: Liquid
Fixed: Pressure, kPa = 74
Fixed: Frequency, MHz = 3
Property: Speed of sound, m/s (Liquid); method: Single path-length method
Temperature, K	Speed of sound, m/s	uncertainty
278.15	1357.75	10
283.15	1338.18	10
288.15	1318.95	10
293.15	1298.62	10
298.15	1278.21	10
303.15	1256.01	10
308.15	1237.77	10

System: C-butylresorcin[4]arene + ethanol; phases: Liquid
Fixed: Pressure, kPa = 74
Property: Mass density, kg/m3 (Liquid); method: Vibrating tube method
Temperature, K	Molality, mol/kg of C-butylresorcin[4]arene	Mass density, kg/m3	uncertainty
278.15	0	802.328	1.608
283.15	0	798.098	1.6
288.15	0	793.849	1.591
293.15	0	789.581	1.583
298.15	0	785.293	1.574
303.15	0	780.974	1.566
308.15	0	776.626	1.557
278.15	0.00243	802.889	1.609
278.15	0.00387	803.219	1.61
278.15	0.00579	803.657	1.61
278.15	0.00733	804.009	1.611
278.15	0.00927	804.448	1.612
278.15	0.01059	804.749	1.613
278.15	0.01155	804.966	1.613
278.15	0.013	805.294	1.614
278.15	0.01439	805.608	1.614
278.15	0.01954	806.771	1.617
278.15	0.02331	807.619	1.618
278.15	0.02779	808.625	1.62
278.15	0.03336	809.868	1.623
278.15	0.03558	810.362	1.624
278.15	0.04084	811.525	1.626
278.15	0.04698	812.88	1.629
283.15	0.00243	798.66	1.601
283.15	0.00387	798.99	1.601
283.15	0.00579	799.429	1.602
283.15	0.00733	799.782	1.603
283.15	0.00927	800.222	1.604
283.15	0.01059	800.524	1.604
283.15	0.01155	800.741	1.605
283.15	0.013	801.07	1.605
283.15	0.01439	801.385	1.606
283.15	0.01954	802.55	1.608
283.15	0.02331	803.4	1.61
283.15	0.02779	804.408	1.612
283.15	0.03336	805.654	1.614
283.15	0.03558	806.149	1.615
283.15	0.04084	807.315	1.618
283.15	0.04698	808.673	1.62
288.15	0.00243	794.412	1.592
288.15	0.00387	794.742	1.593
288.15	0.00579	795.182	1.594
288.15	0.00733	795.536	1.594
288.15	0.00927	795.977	1.595
288.15	0.01059	796.279	1.596
288.15	0.01155	796.497	1.596
288.15	0.013	796.827	1.597
288.15	0.01439	797.142	1.598
288.15	0.01954	798.309	1.6
288.15	0.02331	799.161	1.602
288.15	0.02779	800.171	1.604
288.15	0.03336	801.42	1.606
288.15	0.03558	801.916	1.607
288.15	0.04084	803.085	1.609
288.15	0.04698	804.446	1.612
293.15	0.00243	790.145	1.584
293.15	0.00387	790.476	1.584
293.15	0.00579	790.917	1.585
293.15	0.00733	791.271	1.586
293.15	0.00927	791.713	1.587
293.15	0.01059	792.016	1.588
293.15	0.01155	792.234	1.588
293.15	0.013	792.564	1.589
293.15	0.01439	792.88	1.589
293.15	0.01954	794.05	1.592
293.15	0.02331	794.903	1.593
293.15	0.02779	795.915	1.595
293.15	0.03336	797.167	1.598
293.15	0.03558	797.664	1.599
293.15	0.04084	798.836	1.601
293.15	0.04698	800.201	1.604
298.15	0.00243	785.858	1.575
298.15	0.00387	786.19	1.576
298.15	0.00579	786.631	1.577
298.15	0.00733	786.986	1.578
298.15	0.00927	787.429	1.578
298.15	0.01059	787.733	1.579
298.15	0.01155	787.951	1.58
298.15	0.013	788.282	1.58
298.15	0.01439	788.599	1.581
298.15	0.01954	789.771	1.583
298.15	0.02331	790.626	1.585
298.15	0.02779	791.64	1.587
298.15	0.03336	792.894	1.589
298.15	0.03558	793.392	1.59
298.15	0.04084	794.567	1.593
298.15	0.04698	795.935	1.595
303.15	0.00243	781.54	1.567
303.15	0.00387	781.872	1.568
303.15	0.00579	782.314	1.568
303.15	0.00733	782.67	1.569
303.15	0.00927	783.114	1.57
303.15	0.01059	783.418	1.571
303.15	0.01155	783.637	1.571
303.15	0.013	783.969	1.572
303.15	0.01439	784.286	1.572
303.15	0.01954	785.461	1.575
303.15	0.02331	786.318	1.576
303.15	0.02779	787.334	1.578
303.15	0.03336	788.591	1.581
303.15	0.03558	789.09	1.582
303.15	0.04084	790.267	1.584
303.15	0.04698	791.638	1.587
308.15	0.00243	777.193	1.558
308.15	0.00387	777.525	1.559
308.15	0.00579	777.968	1.56
308.15	0.00733	778.325	1.561
308.15	0.00927	778.77	1.561
308.15	0.01059	779.074	1.562
308.15	0.01155	779.294	1.562
308.15	0.013	779.626	1.563
308.15	0.01439	779.944	1.564
308.15	0.01954	781.121	1.566
308.15	0.02331	781.98	1.568
308.15	0.02779	782.998	1.57
308.15	0.03336	784.257	1.572
308.15	0.03558	784.757	1.573
308.15	0.04084	785.936	1.576
308.15	0.04698	787.31	1.578

System: C-butylresorcin[4]arene + ethanol; phases: Liquid
Fixed: Pressure, kPa = 74
Fixed: Frequency, MHz = 3
Property: Speed of sound, m/s (Liquid); method: Single path-length method
Temperature, K	Molality, mol/kg of C-butylresorcin[4]arene	Speed of sound, m/s	uncertainty
278.15	0	1212.22	10
283.15	0	1195.32	10
288.15	0	1178.97	10
293.15	0	1163.58	10
298.15	0	1141.41	10
303.15	0	1134.38	10
308.15	0	1109.54	10
278.15	0.00243	1215.2	10
278.15	0.00387	1216	10
278.15	0.00579	1216.1	10
278.15	0.00733	1216.2	10
278.15	0.00927	1216.2	10
278.15	0.01059	1216.3	10
278.15	0.01155	1216.5	10
278.15	0.013	1216.5	10
278.15	0.01439	1216.6	10
278.15	0.01954	1216.7	10
278.15	0.02331	1216.9	10
278.15	0.02779	1217.4	10
278.15	0.03336	1217.9	10
278.15	0.03558	1218	10
278.15	0.04084	1218	10
278.15	0.04698	1218.1	10
283.15	0.00243	1198	10
283.15	0.00387	1198.7	10
283.15	0.00579	1198.7	10
283.15	0.00733	1198.7	10
283.15	0.00927	1198.8	10
283.15	0.01059	1198.8	10
283.15	0.01155	1198.8	10
283.15	0.013	1198.8	10
283.15	0.01439	1198.9	10
283.15	0.01954	1198.9	10
283.15	0.02331	1198.9	10
283.15	0.02779	1199	10
283.15	0.03336	1199	10
283.15	0.03558	1199	10
283.15	0.04084	1199.1	10
283.15	0.04698	1199.1	10
288.15	0.00243	1181.4	10
288.15	0.00387	1181.9	10
288.15	0.00579	1181.9	10
288.15	0.00733	1182	10
288.15	0.00927	1182	10
288.15	0.01059	1182	10
288.15	0.01155	1182	10
288.15	0.013	1182	10
288.15	0.01439	1182.1	10
288.15	0.01954	1182.1	10
288.15	0.02331	1182.1	10
288.15	0.02779	1182.1	10
288.15	0.03336	1182.1	10
288.15	0.03558	1182.2	10
288.15	0.04084	1182.2	10
288.15	0.04698	1182.2	10
293.15	0.00243	1165.8	10
293.15	0.00387	1166.1	10
293.15	0.00579	1166.2	10
293.15	0.00733	1166.2	10
293.15	0.00927	1166.3	10
293.15	0.01059	1165.9	10
293.15	0.01155	1166	10
293.15	0.013	1166	10
293.15	0.01439	1166	10
293.15	0.01954	1166.1	10
293.15	0.02331	1166.2	10
293.15	0.02779	1166.3	10
293.15	0.03336	1166.3	10
293.15	0.03558	1166.4	10
293.15	0.04084	1166.4	10
293.15	0.04698	1166.5	10
298.15	0.00243	1143.3	10
298.15	0.00387	1143.5	10
298.15	0.00579	1143.6	10
298.15	0.00733	1143.6	10
298.15	0.00927	1143.6	10
298.15	0.01059	1143.7	10
298.15	0.01155	1143.7	10
298.15	0.013	1143.8	10
298.15	0.01439	1143.8	10
298.15	0.01954	1143.8	10
298.15	0.02331	1143.9	10
298.15	0.02779	1143.9	10
298.15	0.03336	1143.9	10
298.15	0.03558	1143.8	10
298.15	0.04084	1143.8	10
298.15	0.04698	1143.8	10
303.15	0.00243	1136.1	10
303.15	0.00387	1136.2	10
303.15	0.00579	1136.2	10
303.15	0.00733	1136.2	10
303.15	0.00927	1136.2	10
303.15	0.01059	1136.2	10
303.15	0.01155	1136.2	10
303.15	0.013	1136.2	10
303.15	0.01439	1136.2	10
303.15	0.01954	1136.2	10
303.15	0.02331	1136.3	10
303.15	0.02779	1136.3	10
303.15	0.03336	1136.3	10
303.15	0.03558	1136.3	10
303.15	0.04084	1136.3	10
303.15	0.04698	1136.3	10
308.15	0.00243	1111	10
308.15	0.00387	1111	10
308.15	0.00579	1110.8	10
308.15	0.00733	1110.8	10
308.15	0.00927	1110.8	10
308.15	0.01059	1110.9	10
308.15	0.01155	1110.9	10
308.15	0.013	1110.9	10
308.15	0.01439	1110.9	10
308.15	0.01954	1110.5	10
308.15	0.02331	1110.4	10
308.15	0.02779	1110.3	10
308.15	0.03336	1110.3	10
308.15	0.03558	1110.3	10
308.15	0.04084	1110	10
308.15	0.04698	1110	10

System: C-butylresorcin[4]arene + propan-1-ol; phases: Liquid
Fixed: Pressure, kPa = 74
Property: Mass density, kg/m3 (Liquid); method: Vibrating tube method
Temperature, K	Molality, mol/kg of C-butylresorcin[4]arene	Mass density, kg/m3	uncertainty
278.15	0	815.55	1.645
283.15	0	811.603	1.637
288.15	0	807.64	1.63
293.15	0	803.658	1.622
298.15	0	799.653	1.614
303.15	0	795.616	1.606
308.15	0	791.548	1.598
278.15	0.00277	816.128	1.646
278.15	0.00409	816.399	1.647
278.15	0.00572	816.73	1.647
278.15	0.00753	817.098	1.648
278.15	0.00847	817.289	1.649
278.15	0.00937	817.472	1.649
278.15	0.01015	817.629	1.649
278.15	0.01144	817.889	1.65
278.15	0.01237	818.078	1.65
278.15	0.01421	818.45	1.651
278.15	0.01637	818.886	1.652
278.15	0.01831	819.277	1.653
278.15	0.02502	820.626	1.655
278.15	0.03167	821.953	1.658
278.15	0.04231	824.062	1.662
278.15	0.05201	825.962	1.666
283.15	0.00277	812.182	1.639
283.15	0.00409	812.454	1.639
283.15	0.00572	812.786	1.64
283.15	0.00753	813.155	1.64
283.15	0.00847	813.346	1.641
283.15	0.00937	813.53	1.641
283.15	0.01015	813.688	1.641
283.15	0.01144	813.948	1.642
283.15	0.01237	814.138	1.642
283.15	0.01421	814.512	1.643
283.15	0.01637	814.949	1.644
283.15	0.01831	815.341	1.645
283.15	0.02502	816.694	1.647
283.15	0.03167	818.024	1.65
283.15	0.04231	820.14	1.654
283.15	0.05201	822.049	1.658
288.15	0.00277	808.22	1.631
288.15	0.00409	808.493	1.631
288.15	0.00572	808.826	1.632
288.15	0.00753	809.196	1.633
288.15	0.00847	809.387	1.633
288.15	0.00937	809.572	1.633
288.15	0.01015	809.73	1.634
288.15	0.01144	809.991	1.634
288.15	0.01237	810.182	1.635
288.15	0.01421	810.557	1.635
288.15	0.01637	810.995	1.636
288.15	0.01831	811.388	1.637
288.15	0.02502	812.745	1.64
288.15	0.03167	814.08	1.642
288.15	0.04231	816.202	1.646
288.15	0.05201	818.115	1.65
293.15	0.00277	804.239	1.623
293.15	0.00409	804.513	1.623
293.15	0.00572	804.847	1.624
293.15	0.00753	805.218	1.625
293.15	0.00847	805.41	1.625
293.15	0.00937	805.595	1.625
293.15	0.01015	805.754	1.626
293.15	0.01144	806.016	1.626
293.15	0.01237	806.207	1.627
293.15	0.01421	806.583	1.627
293.15	0.01637	807.022	1.628
293.15	0.01831	807.416	1.629
293.15	0.02502	808.777	1.632
293.15	0.03167	810.115	1.634
293.15	0.04231	812.242	1.639
293.15	0.05201	814.161	1.642
298.15	0.00277	800.235	1.615
298.15	0.00409	800.51	1.615
298.15	0.00572	800.845	1.616
298.15	0.00753	801.217	1.617
298.15	0.00847	801.409	1.617
298.15	0.00937	801.595	1.618
298.15	0.01015	801.754	1.618
298.15	0.01144	802.017	1.618
298.15	0.01237	802.209	1.619
298.15	0.01421	802.586	1.62
298.15	0.01637	803.026	1.62
298.15	0.01831	803.422	1.621
298.15	0.02502	804.785	1.624
298.15	0.03167	806.127	1.627
298.15	0.04231	808.259	1.631
298.15	0.05201	810.185	1.635
303.15	0.00277	796.199	1.607
303.15	0.00409	796.475	1.608
303.15	0.00572	796.811	1.608
303.15	0.00753	797.184	1.609
303.15	0.00847	797.377	1.609
303.15	0.00937	797.563	1.61
303.15	0.01015	797.723	1.61
303.15	0.01144	797.987	1.61
303.15	0.01237	798.179	1.611
303.15	0.01421	798.557	1.612
303.15	0.01637	798.998	1.612
303.15	0.01831	799.395	1.613
303.15	0.02502	800.763	1.616
303.15	0.03167	802.108	1.619
303.15	0.04231	804.246	1.623
303.15	0.05201	806.175	1.627
308.15	0.00277	792.132	1.599
308.15	0.00409	792.409	1.599
308.15	0.00572	792.746	1.6
308.15	0.00753	793.12	1.601
308.15	0.00847	793.314	1.601
308.15	0.00937	793.5	1.602
308.15	0.01015	793.66	1.602
308.15	0.01144	793.925	1.602
308.15	0.01237	794.117	1.603
308.15	0.01421	794.496	1.604
308.15	0.01637	794.939	1.604
308.15	0.01831	795.337	1.605
308.15	0.02502	796.709	1.608
308.15	0.03167	798.058	1.611
308.15	0.04231	800.201	1.615
308.15	0.05201	802.138	1.619

System: C-butylresorcin[4]arene + propan-1-ol; phases: Liquid
Fixed: Pressure, kPa = 74
Fixed: Frequency, MHz = 3
Property: Speed of sound, m/s (Liquid); method: Single path-length method
Temperature, K	Molality, mol/kg of C-butylresorcin[4]arene	Speed of sound, m/s	uncertainty
278.15	0	1263.01	10.05
283.15	0	1257.07	10.05
288.15	0	1240.49	10.05
293.15	0	1222.04	10.05
298.15	0	1205.07	10.05
303.15	0	1188.08	10.05
308.15	0	1171.04	10.05
278.15	0.00277	1267.8	10.1
278.15	0.00409	1268	10.1
278.15	0.00572	1268.2	10.1
278.15	0.00753	1268.6	10.1
278.15	0.00847	1268.7	10.1
278.15	0.00937	1268.8	10.1
278.15	0.01015	1268.9	10.1
278.15	0.01144	1269.1	10.1
278.15	0.01237	1269.3	10.1
278.15	0.01421	1269.5	10.1
278.15	0.01637	1269.6	10.1
278.15	0.01831	1269.8	10.1
278.15	0.02502	1270	10.1
278.15	0.03167	1270.4	10.1
278.15	0.04231	1270.6	10.1
278.15	0.05201	1270.9	10.1
283.15	0.00277	1261.5	10.1
283.15	0.00409	1261.6	10.1
283.15	0.00572	1261.7	10.1
283.15	0.00753	1261.8	10.1
283.15	0.00847	1261.9	10.1
283.15	0.00937	1262	10.1
283.15	0.01015	1262.1	10.1
283.15	0.01144	1262.2	10.1
283.15	0.01237	1262.4	10.1
283.15	0.01421	1262.5	10.1
283.15	0.01637	1262.6	10.1
283.15	0.01831	1262.8	10.1
283.15	0.02502	1262.9	10.1
283.15	0.03167	1263	10.1
283.15	0.04231	1263	10.1
283.15	0.05201	1263.1	10.1
288.15	0.00277	1244.7	10.1
288.15	0.00409	1244.7	10.1
288.15	0.00572	1244.7	10.1
288.15	0.00753	1244.7	10.1
288.15	0.00847	1244.8	10.1
288.15	0.00937	1244.8	10.1
288.15	0.01015	1244.8	10.1
288.15	0.01144	1244.8	10.1
288.15	0.01237	1244.9	10.1
288.15	0.01421	1244.9	10.1
288.15	0.01637	1244.9	10.1
288.15	0.01831	1245	10.1
288.15	0.02502	1245	10.1
288.15	0.03167	1245	10.1
288.15	0.04231	1245.1	10.1
288.15	0.05201	1245.1	10.1
293.15	0.00277	1225.9	10.1
293.15	0.00409	1225.9	10.1
293.15	0.00572	1225.9	10.1
293.15	0.00753	1226	10.1
293.15	0.00847	1226	10.1
293.15	0.00937	1226	10.1
293.15	0.01015	1226	10.1
293.15	0.01144	1226	10.1
293.15	0.01237	1226.1	10.1
293.15	0.01421	1226.1	10.1
293.15	0.01637	1226.1	10.1
293.15	0.01831	1226.1	10.1
293.15	0.02502	1226.1	10.1
293.15	0.03167	1226.2	10.1
293.15	0.04231	1226.2	10.1
293.15	0.05201	1226.2	10.1
298.15	0.00277	1208.6	10.1
298.15	0.00409	1208.5	10.1
298.15	0.00572	1208.6	10.1
298.15	0.00753	1208.6	10.1
298.15	0.00847	1208.6	10.1
298.15	0.00937	1208.7	10.1
298.15	0.01015	1208.7	10.1
298.15	0.01144	1208.8	10.1
298.15	0.01237	1208.8	10.1
298.15	0.01421	1208.8	10.1
298.15	0.01637	1208.9	10.1
298.15	0.01831	1208.9	10.1
298.15	0.02502	1208.9	10.1
298.15	0.03167	1208.8	10.1
298.15	0.04231	1208.8	10.1
298.15	0.05201	1208.8	10.1
303.15	0.00277	1191.1	10.1
303.15	0.00409	1191.2	10.1
303.15	0.00572	1191.2	10.1
303.15	0.00753	1191.2	10.1
303.15	0.00847	1191.2	10.1
303.15	0.00937	1191.2	10.1
303.15	0.01015	1191.2	10.1
303.15	0.01144	1191.2	10.1
303.15	0.01237	1191.2	10.1
303.15	0.01421	1191.2	10.1
303.15	0.01637	1191.3	10.1
303.15	0.01831	1191.3	10.1
303.15	0.02502	1191.3	10.1
303.15	0.03167	1191.3	10.1
303.15	0.04231	1191.3	10.1
303.15	0.05201	1191.3	10.1
308.15	0.00277	1173.8	10.1
308.15	0.00409	1173.8	10.1
308.15	0.00572	1173.8	10.1
308.15	0.00753	1173.8	10.1
308.15	0.00847	1173.8	10.1
308.15	0.00937	1173.9	10.1
308.15	0.01015	1173.9	10.1
308.15	0.01144	1173.9	10.1
308.15	0.01237	1173.9	10.1
308.15	0.01421	1173.9	10.1
308.15	0.01637	1173.9	10.1
308.15	0.01831	1173.9	10.1
308.15	0.02502	1173.9	10.1
308.15	0.03167	1173.9	10.1
308.15	0.04231	1174	10.1
308.15	0.05201	1174	10.1

System: C-butylresorcin[4]arene + acetonitrile; phases: Liquid
Fixed: Pressure, kPa = 74
Property: Mass density, kg/m3 (Liquid); method: Vibrating tube method
Temperature, K	Molality, mol/kg of C-butylresorcin[4]arene	Mass density, kg/m3	uncertainty
278.15	0	798.119	1.6
283.15	0	792.789	1.589
288.15	0	787.436	1.579
293.15	0	782.057	1.568
298.15	0	776.659	1.557
303.15	0	771.229	1.547
308.15	0	765.768	1.536
278.15	0.00932	799.734	1.603
278.15	0.01049	799.931	1.603
278.15	0.01137	800.077	1.603
278.15	0.01243	800.254	1.604
278.15	0.01312	800.368	1.604
278.15	0.01412	800.534	1.604
278.15	0.01488	800.659	1.605
278.15	0.01594	800.836	1.605
278.15	0.01724	801.052	1.605
278.15	0.02066	801.622	1.607
278.15	0.02398	802.175	1.608
278.15	0.03007	803.188	1.61
278.15	0.03563	804.108	1.611
278.15	0.04065	804.931	1.613
278.15	0.0463	805.856	1.615
278.15	0.05165	806.724	1.617
283.15	0.00932	794.416	1.592
283.15	0.01049	794.615	1.593
283.15	0.01137	794.762	1.593
283.15	0.01243	794.941	1.593
283.15	0.01312	795.056	1.594
283.15	0.01412	795.223	1.594
283.15	0.01488	795.349	1.594
283.15	0.01594	795.528	1.594
283.15	0.01724	795.746	1.595
283.15	0.02066	796.321	1.596
283.15	0.02398	796.879	1.597
283.15	0.03007	797.9	1.599
283.15	0.03563	798.828	1.601
283.15	0.04065	799.659	1.603
283.15	0.0463	800.592	1.605
283.15	0.05165	801.467	1.606
288.15	0.00932	789.075	1.582
288.15	0.01049	789.276	1.582
288.15	0.01137	789.424	1.582
288.15	0.01243	789.604	1.583
288.15	0.01312	789.72	1.583
288.15	0.01412	789.889	1.583
288.15	0.01488	790.016	1.584
288.15	0.01594	790.196	1.584
288.15	0.01724	790.416	1.584
288.15	0.02066	790.996	1.586
288.15	0.02398	791.558	1.587
288.15	0.03007	792.587	1.589
288.15	0.03563	793.522	1.591
288.15	0.04065	794.36	1.592
288.15	0.0463	795.301	1.594
288.15	0.05165	796.184	1.596
293.15	0.00932	783.708	1.571
293.15	0.01049	783.911	1.572
293.15	0.01137	784.06	1.572
293.15	0.01243	784.241	1.572
293.15	0.01312	784.358	1.572
293.15	0.01412	784.529	1.573
293.15	0.01488	784.657	1.573
293.15	0.01594	784.838	1.573
293.15	0.01724	785.06	1.574
293.15	0.02066	785.645	1.575
293.15	0.02398	786.212	1.576
293.15	0.03007	787.249	1.578
293.15	0.03563	788.192	1.58
293.15	0.04065	789.037	1.582
293.15	0.0463	789.985	1.584
293.15	0.05165	790.875	1.585
298.15	0.00932	778.322	1.561
298.15	0.01049	778.526	1.561
298.15	0.01137	778.676	1.561
298.15	0.01243	778.859	1.562
298.15	0.01312	778.977	1.562
298.15	0.01412	779.149	1.562
298.15	0.01488	779.278	1.562
298.15	0.01594	779.461	1.563
298.15	0.01724	779.685	1.563
298.15	0.02066	780.274	1.564
298.15	0.02398	780.846	1.566
298.15	0.03007	781.891	1.568
298.15	0.03563	782.841	1.57
298.15	0.04065	783.693	1.571
298.15	0.0463	784.648	1.573
298.15	0.05165	785.546	1.575
303.15	0.00932	772.904	1.55
303.15	0.01049	773.109	1.55
303.15	0.01137	773.26	1.551
303.15	0.01243	773.445	1.551
303.15	0.01312	773.564	1.551
303.15	0.01412	773.737	1.552
303.15	0.01488	773.867	1.552
303.15	0.01594	774.051	1.552
303.15	0.01724	774.277	1.553
303.15	0.02066	774.871	1.554
303.15	0.02398	775.447	1.555
303.15	0.03007	776.5	1.557
303.15	0.03563	777.458	1.559
303.15	0.04065	778.316	1.561
303.15	0.0463	779.279	1.562
303.15	0.05165	780.183	1.564
308.15	0.00932	767.454	1.539
308.15	0.01049	767.661	1.54
308.15	0.01137	767.813	1.54
308.15	0.01243	767.999	1.54
308.15	0.01312	768.119	1.54
308.15	0.01412	768.294	1.541
308.15	0.01488	768.425	1.541
308.15	0.01594	768.61	1.541
308.15	0.01724	768.838	1.542
308.15	0.02066	769.436	1.543
308.15	0.02398	770.016	1.544
308.15	0.03007	771.077	1.546
308.15	0.03563	772.042	1.548
308.15	0.04065	772.906	1.55
308.15	0.0463	773.877	1.552
308.15	0.05165	774.788	1.554

System: C-butylresorcin[4]arene + acetonitrile; phases: Liquid
Fixed: Pressure, kPa = 74
Fixed: Frequency, MHz = 3
Property: Speed of sound, m/s (Liquid); method: Single path-length method
Temperature, K	Molality, mol/kg of C-butylresorcin[4]arene	Speed of sound, m/s	uncertainty
278.15	0	1357.75	10
283.15	0	1338.18	10
288.15	0	1318.95	10
293.15	0	1298.62	10
298.15	0	1278.21	10
303.15	0	1256.01	10
308.15	0	1237.77	10
278.15	0.00932	1369.74	10
278.15	0.01049	1369.85	10
278.15	0.01137	1369.87	10
278.15	0.01243	1369.94	10
278.15	0.01312	1369.97	10
278.15	0.01412	1370.05	10
278.15	0.01488	1370.19	10
278.15	0.01594	1370.25	10
278.15	0.01724	1370.35	10
278.15	0.02066	1370.39	10
278.15	0.02398	1370.41	10
278.15	0.03007	1370.49	10
278.15	0.03563	1370.58	10
278.15	0.04065	1370.64	10
278.15	0.0463	1370.76	10
278.15	0.05165	1370.91	10
283.15	0.00932	1349.46	10
283.15	0.01049	1349.57	10
283.15	0.01137	1349.6	10
283.15	0.01243	1349.67	10
283.15	0.01312	1349.73	10
283.15	0.01412	1349.82	10
283.15	0.01488	1349.89	10
283.15	0.01594	1349.93	10
283.15	0.01724	1350.05	10
283.15	0.02066	1350.09	10
283.15	0.02398	1350.12	10
283.15	0.03007	1350.19	10
283.15	0.03563	1350.24	10
283.15	0.04065	1350.29	10
283.15	0.0463	1350.38	10
283.15	0.05165	1350.44	10
288.15	0.00932	1325.82	10
288.15	0.01049	1325.83	10
288.15	0.01137	1325.91	10
288.15	0.01243	1325.99	10
288.15	0.01312	1326.08	10
288.15	0.01412	1326.15	10
288.15	0.01488	1326.24	10
288.15	0.01594	1326.38	10
288.15	0.01724	1326.43	10
288.15	0.02066	1326.49	10
288.15	0.02398	1326.55	10
288.15	0.03007	1326.58	10
288.15	0.03563	1326.61	10
288.15	0.04065	1326.66	10
288.15	0.0463	1326.72	10
288.15	0.05165	1326.81	10
293.15	0.00932	1304.49	10
293.15	0.01049	1304.57	10
293.15	0.01137	1304.68	10
293.15	0.01243	1304.76	10
293.15	0.01312	1304.84	10
293.15	0.01412	1304.92	10
293.15	0.01488	1304.99	10
293.15	0.01594	1305.05	10
293.15	0.01724	1305.09	10
293.15	0.02066	1305.16	10
293.15	0.02398	1305.26	10
293.15	0.03007	1305.3	10
293.15	0.03563	1305.35	10
293.15	0.04065	1305.41	10
293.15	0.0463	1305.56	10
293.15	0.05165	1305.61	10
298.15	0.00932	1281.15	10
298.15	0.01049	1281.27	10
298.15	0.01137	1281.34	10
298.15	0.01243	1281.42	10
298.15	0.01312	1281.55	10
298.15	0.01412	1281.61	10
298.15	0.01488	1281.65	10
298.15	0.01594	1281.71	10
298.15	0.01724	1281.75	10
298.15	0.02066	1281.81	10
298.15	0.02398	1281.88	10
298.15	0.03007	1281.93	10
298.15	0.03563	1281.95	10
298.15	0.04065	1282.04	10
298.15	0.0463	1282.11	10
298.15	0.05165	1282.19	10
303.15	0.00932	1261.6	10
303.15	0.01049	1261.7	10
303.15	0.01137	1261.9	10
303.15	0.01243	1261.9	10
303.15	0.01312	1262	10
303.15	0.01412	1262	10
303.15	0.01488	1262.1	10
303.15	0.01594	1262.2	10
303.15	0.01724	1262.2	10
303.15	0.02066	1262.3	10
303.15	0.02398	1262.4	10
303.15	0.03007	1262.4	10
303.15	0.03563	1262.4	10
303.15	0.04065	1262.5	10
303.15	0.0463	1262.6	10
303.15	0.05165	1262.6	10
308.15	0.00932	1241.1	10
308.15	0.01049	1241.19	10
308.15	0.01137	1241.32	10
308.15	0.01243	1241.39	10
308.15	0.01312	1241.44	10
308.15	0.01412	1241.51	10
308.15	0.01488	1241.55	10
308.15	0.01594	1241.6	10
308.15	0.01724	1241.68	10
308.15	0.02066	1241.73	10
308.15	0.02398	1241.75	10
308.15	0.03007	1241.81	10
308.15	0.03563	1241.85	10
308.15	0.04065	1241.89	10
308.15	0.0463	1241.94	10
308.15	0.05165	1242.01	10

System: C-butylresorcin[4]arene + dimethylformamide; phases: Liquid
Fixed: Pressure, kPa = 74
Property: Mass density, kg/m3 (Liquid); method: Vibrating tube method
Temperature, K	Molality, mol/kg of C-butylresorcin[4]arene	Mass density, kg/m3	uncertainty
278.15	0	962.907	1.927
283.15	0	958.169	1.917
288.15	0	953.415	1.908
293.15	0	948.658	1.898
298.15	0	943.891	1.889
303.15	0	939.12	1.879
308.15	0	934.339	1.87
278.15	0.00368	963.475	1.928
278.15	0.00591	963.809	1.929
278.15	0.00757	964.05	1.929
278.15	0.00926	964.295	1.93
278.15	0.01099	964.545	1.93
278.15	0.01269	964.788	1.93
278.15	0.01436	965.025	1.931
278.15	0.01577	965.227	1.931
278.15	0.01774	965.511	1.932
278.15	0.02074	965.942	1.933
278.15	0.02313	966.285	1.933
278.15	0.02805	966.991	1.935
278.15	0.03137	967.462	1.936
278.15	0.03706	968.267	1.937
278.15	0.04269	969.06	1.939
278.15	0.05131	970.265	1.941
278.15	0.0563	970.957	1.943
283.15	0.00374	958.752	1.918
283.15	0.00591	959.079	1.919
283.15	0.00757	959.323	1.92
283.15	0.00926	959.571	1.92
283.15	0.01099	959.823	1.921
283.15	0.01269	960.069	1.921
283.15	0.01436	960.309	1.922
283.15	0.01577	960.513	1.922
283.15	0.01774	960.801	1.923
283.15	0.02074	961.239	1.923
283.15	0.02313	961.586	1.924
283.15	0.02805	962.298	1.926
283.15	0.03137	962.773	1.927
283.15	0.03706	963.591	1.928
283.15	0.04269	964.394	1.93
283.15	0.05131	965.609	1.932
283.15	0.0563	966.307	1.934
288.15	0.00374	954.003	1.909
288.15	0.00591	954.332	1.91
288.15	0.00757	954.579	1.91
288.15	0.00926	954.829	1.911
288.15	0.01099	955.084	1.911
288.15	0.01269	955.331	1.912
288.15	0.01436	955.575	1.912
288.15	0.01577	955.781	1.913
288.15	0.01774	956.07	1.913
288.15	0.02074	956.511	1.914
288.15	0.02313	956.862	1.915
288.15	0.02805	957.582	1.916
288.15	0.03137	958.06	1.917
288.15	0.03706	958.883	1.919
288.15	0.04269	959.692	1.92
288.15	0.05131	960.915	1.923
288.15	0.0563	961.619	1.924
293.15	0.00374	949.251	1.9
293.15	0.00591	949.583	1.9
293.15	0.00757	949.831	1.901
293.15	0.00926	950.084	1.901
293.15	0.01099	950.34	1.902
293.15	0.01269	950.589	1.902
293.15	0.01436	950.836	1.903
293.15	0.01577	951.046	1.903
293.15	0.01774	951.337	1.904
293.15	0.02074	951.781	1.905
293.15	0.02313	952.131	1.905
293.15	0.02805	952.856	1.907
293.15	0.03137	953.34	1.908
293.15	0.03706	954.172	1.909
293.15	0.04269	954.989	1.911
293.15	0.05131	956.224	1.914
293.15	0.0563	956.935	1.915
298.15	0.00374	944.488	1.89
298.15	0.00591	944.823	1.891
298.15	0.00757	945.073	1.891
298.15	0.00926	945.326	1.892
298.15	0.01099	945.584	1.892
298.15	0.01269	945.835	1.893
298.15	0.01436	946.083	1.893
298.15	0.01577	946.295	1.894
298.15	0.01774	946.589	1.894
298.15	0.02074	947.038	1.895
298.15	0.02313	947.395	1.896
298.15	0.02805	948.127	1.897
298.15	0.03137	948.615	1.898
298.15	0.03706	949.45	1.9
298.15	0.04269	950.268	1.902
298.15	0.05131	951.515	1.904
298.15	0.0563	952.234	1.906
303.15	0.00374	939.721	1.881
303.15	0.00591	940.059	1.881
303.15	0.00757	940.311	1.882
303.15	0.00926	940.565	1.882
303.15	0.01099	940.825	1.883
303.15	0.01269	941.079	1.883
303.15	0.01436	941.329	1.884
303.15	0.01577	941.542	1.884
303.15	0.01774	941.838	1.885
303.15	0.02074	942.291	1.886
303.15	0.02313	942.65	1.886
303.15	0.02805	943.387	1.888
303.15	0.03137	943.878	1.889
303.15	0.03706	944.721	1.891
303.15	0.04269	945.55	1.892
303.15	0.05131	946.801	1.895
303.15	0.0563	947.516	1.896
308.15	0.00374	934.945	1.871
308.15	0.00591	935.286	1.872
308.15	0.00757	935.54	1.872
308.15	0.00926	935.796	1.873
308.15	0.01099	936.059	1.873
308.15	0.01269	936.316	1.874
308.15	0.01436	936.568	1.874
308.15	0.01577	936.783	1.875
308.15	0.01774	937.081	1.875
308.15	0.02074	937.538	1.876
308.15	0.02313	937.898	1.877
308.15	0.02805	938.642	1.879
308.15	0.03137	939.138	1.88
308.15	0.03706	939.99	1.881
308.15	0.04269	940.824	1.883
308.15	0.05131	942.092	1.885
308.15	0.0563	942.811	1.887

System: C-butylresorcin[4]arene + dimethylformamide; phases: Liquid
Fixed: Pressure, kPa = 74
Fixed: Frequency, MHz = 3
Property: Speed of sound, m/s (Liquid); method: Single path-length method
Temperature, K	Molality, mol/kg of C-butylresorcin[4]arene	Speed of sound, m/s	uncertainty
278.15	0	1532.39	10
283.15	0	1513.2	10
288.15	0	1491.21	10
293.15	0	1474.19	10
298.15	0	1455.2	10
303.15	0	1436.18	10
308.15	0	1416.21	10
278.15	0.00368	1535.67	10
278.15	0.00591	1536.08	10
278.15	0.00757	1536.25	10
278.15	0.00926	1536.49	10
278.15	0.01099	1536.54	10
278.15	0.01269	1536.69	10.01
278.15	0.01436	1536.87	10.01
278.15	0.01577	1537.01	10.01
278.15	0.01774	1537.26	10.01
278.15	0.02074	1537.39	10.01
278.15	0.02313	1537.49	10.01
278.15	0.02805	1537.8	10.01
278.15	0.03137	1538.08	10.01
278.15	0.03706	1538.17	10.01
278.15	0.04269	1538.29	10.01
278.15	0.05131	1538.51	10.01
278.15	0.0563	1538.69	10.01
283.15	0.00374	1516.21	10
283.15	0.00591	1516.55	10
283.15	0.00757	1516.65	10
283.15	0.00926	1516.84	10
283.15	0.01099	1516.97	10.01
283.15	0.01269	1517.11	10.01
283.15	0.01436	1517.28	10.01
283.15	0.01577	1517.34	10.01
283.15	0.01774	1517.54	10.01
283.15	0.02074	1517.67	10.01
283.15	0.02313	1517.71	10.01
283.15	0.02805	1517.89	10.01
283.15	0.03137	1518.02	10.01
283.15	0.03706	1518.09	10.01
283.15	0.04269	1518.19	10.01
283.15	0.05131	1518.21	10.01
283.15	0.0563	1518.29	10.01
288.15	0.00374	1493.91	10
288.15	0.00591	1494.16	10
288.15	0.00757	1494.31	10
288.15	0.00926	1494.49	10
288.15	0.01099	1494.64	10
288.15	0.01269	1494.78	10.01
288.15	0.01436	1494.85	10.01
288.15	0.01577	1494.98	10.01
288.15	0.01774	1495.11	10.01
288.15	0.02074	1495.27	10.01
288.15	0.02313	1495.38	10.01
288.15	0.02805	1495.51	10.01
288.15	0.03137	1495.57	10.01
288.15	0.03706	1495.64	10.01
288.15	0.04269	1495.78	10.01
288.15	0.05131	1495.86	10.01
288.15	0.0563	1495.99	10.01
293.15	0.00374	1476.63	10
293.15	0.00591	1476.91	10
293.15	0.00757	1477.08	10
293.15	0.00926	1477.16	10
293.15	0.01099	1477.26	10
293.15	0.01269	1477.38	10
293.15	0.01436	1477.49	10
293.15	0.01577	1477.55	10.01
293.15	0.01774	1477.68	10.01
293.15	0.02074	1477.77	10.01
293.15	0.02313	1477.87	10.01
293.15	0.02805	1477.93	10.01
293.15	0.03137	1478.09	10.01
293.15	0.03706	1478.19	10.01
293.15	0.04269	1478.35	10.01
293.15	0.05131	1478.49	10.01
293.15	0.0563	1478.59	10.01
298.15	0.00374	1457.4	10
298.15	0.00591	1457.64	10
298.15	0.00757	1457.79	10
298.15	0.00926	1457.84	10
298.15	0.01099	1457.95	10
298.15	0.01269	1458.09	10
298.15	0.01436	1458.19	10.01
298.15	0.01577	1458.28	10.01
298.15	0.01774	1458.37	10.01
298.15	0.02074	1458.44	10.01
298.15	0.02313	1458.49	10.01
298.15	0.02805	1458.56	10.01
298.15	0.03137	1458.67	10.01
298.15	0.03706	1458.79	10.01
298.15	0.04269	1458.91	10.01
298.15	0.05131	1459.06	10.01
298.15	0.0563	1459.17	10.01
303.15	0.00374	1438.2	10
303.15	0.00591	1438.5	10
303.15	0.00757	1438.5	10
303.15	0.00926	1438.6	10
303.15	0.01099	1438.7	10
303.15	0.01269	1438.8	10
303.15	0.01436	1438.8	10
303.15	0.01577	1438.9	10
303.15	0.01774	1438.9	10
303.15	0.02074	1439	10
303.15	0.02313	1439	10
303.15	0.02805	1439.1	10
303.15	0.03137	1439.1	10
303.15	0.03706	1439.2	10
303.15	0.04269	1439.2	10
303.15	0.05131	1439.3	10
303.15	0.0563	1439.3	10
308.15	0.00374	1418.06	10
308.15	0.00591	1418.19	10
308.15	0.00757	1418.29	10
308.15	0.00926	1418.37	10
308.15	0.01099	1418.44	10
308.15	0.01269	1418.49	10.01
308.15	0.01436	1418.53	10.01
308.15	0.01577	1418.59	10.01
308.15	0.01774	1418.62	10.01
308.15	0.02074	1418.66	10.01
308.15	0.02313	1418.69	10.01
308.15	0.02805	1418.72	10.01
308.15	0.03137	1418.75	10.01
308.15	0.03706	1418.77	10.01
308.15	0.04269	1418.81	10.01
308.15	0.05131	1418.88	10.01
308.15	0.0563	1418.94	10.01

System: C-butylresorcin[4]arene + dimethyl sulfoxide; phases: Liquid
Fixed: Pressure, kPa = 74
Property: Mass density, kg/m3 (Liquid); method: Vibrating tube method
Temperature, K	Molality, mol/kg of C-butylresorcin[4]arene	Mass density, kg/m3	uncertainty
293.15	0	1100.428	2.219
298.15	0	1095.416	2.209
303.15	0	1090.401	2.198
308.15	0	1085.388	2.188
293.15	0.00231	1100.546	2.219
293.15	0.00384	1100.615	2.219
293.15	0.00576	1100.7	2.22
293.15	0.00785	1100.788	2.22
293.15	0.00955	1100.86	2.22
293.15	0.01128	1100.934	2.22
293.15	0.01279	1100.998	2.22
293.15	0.01467	1101.079	2.22
293.15	0.01667	1101.164	2.221
293.15	0.01771	1101.208	2.221
293.15	0.02246	1101.409	2.221
293.15	0.02782	1101.633	2.222
293.15	0.03207	1101.808	2.222
293.15	0.04114	1102.179	2.223
293.15	0.05216	1102.615	2.224
293.15	0.0603	1102.933	2.224
298.15	0.00231	1095.54	2.209
298.15	0.00384	1095.613	2.209
298.15	0.00576	1095.703	2.209
298.15	0.00785	1095.797	2.209
298.15	0.00955	1095.873	2.21
298.15	0.01128	1095.952	2.21
298.15	0.01279	1096.02	2.21
298.15	0.01467	1096.107	2.21
298.15	0.01667	1096.198	2.21
298.15	0.01771	1096.244	2.21
298.15	0.02246	1096.459	2.211
298.15	0.02782	1096.698	2.211
298.15	0.03207	1096.885	2.212
298.15	0.04114	1097.282	2.212
298.15	0.05216	1097.748	2.213
298.15	0.0603	1098.087	2.214
303.15	0.00231	1090.531	2.198
303.15	0.00384	1090.608	2.199
303.15	0.00576	1090.703	2.199
303.15	0.00785	1090.802	2.199
303.15	0.00955	1090.882	2.199
303.15	0.01128	1090.966	2.199
303.15	0.01279	1091.038	2.199
303.15	0.01467	1091.129	2.2
303.15	0.01667	1091.224	2.2
303.15	0.01771	1091.274	2.2
303.15	0.02246	1091.501	2.2
303.15	0.02782	1091.752	2.201
303.15	0.03207	1091.95	2.201
303.15	0.04114	1092.37	2.202
303.15	0.05216	1092.863	2.203
303.15	0.0603	1093.223	2.204
308.15	0.00231	1085.524	2.188
308.15	0.00384	1085.605	2.188
308.15	0.00576	1085.705	2.188
308.15	0.00785	1085.809	2.189
308.15	0.00955	1085.894	2.189
308.15	0.01128	1085.982	2.189
308.15	0.01279	1086.059	2.189
308.15	0.01467	1086.154	2.189
308.15	0.01667	1086.255	2.19
308.15	0.01771	1086.308	2.19
308.15	0.02246	1086.548	2.19
308.15	0.02782	1086.813	2.191
308.15	0.03207	1087.022	2.191
308.15	0.04114	1087.462	2.192
308.15	0.05216	1087.981	2.193
308.15	0.0603	1088.363	2.194

System: C-butylresorcin[4]arene + dimethyl sulfoxide; phases: Liquid
Fixed: Pressure, kPa = 74
Fixed: Frequency, MHz = 3
Property: Speed of sound, m/s (Liquid); method: Single path-length method
Temperature, K	Molality, mol/kg of C-butylresorcin[4]arene	Speed of sound, m/s	uncertainty
293.15	0	1504.25	10.05
298.15	0	1485.24	10.05
303.15	0	1468.22	10.05
308.15	0	1451.21	10.05
293.15	0.00231	1505.1	10.1
293.15	0.00384	1505.2	10.1
293.15	0.00576	1505.2	10.1
293.15	0.00785	1505.2	10.1
293.15	0.00955	1505.3	10.1
293.15	0.01128	1505.3	10.1
293.15	0.01279	1505.5	10.1
293.15	0.01467	1505.5	10.1
293.15	0.01667	1505.6	10.1
293.15	0.01771	1505.6	10.1
293.15	0.02246	1505.6	10.1
293.15	0.02782	1505.7	10.1
293.15	0.03207	1505.7	10.1
293.15	0.04114	1505.8	10.1
293.15	0.05216	1505.8	10.1
293.15	0.0603	1505.9	10.1
298.15	0.00231	1486.1	10.1
298.15	0.00384	1486.1	10.1
298.15	0.00576	1486.2	10.1
298.15	0.00785	1486.2	10.1
298.15	0.00955	1486.3	10.1
298.15	0.01128	1486.3	10.1
298.15	0.01279	1486.5	10.1
298.15	0.01467	1486.5	10.1
298.15	0.01667	1486.6	10.1
298.15	0.01771	1486.6	10.1
298.15	0.02246	1486.6	10.1
298.15	0.02782	1486.7	10.1
298.15	0.03207	1486.7	10.1
298.15	0.04114	1486.8	10.1
298.15	0.05216	1486.8	10.1
298.15	0.0603	1486.9	10.1
303.15	0.00231	1469	10.1
303.15	0.00384	1469.1	10.1
303.15	0.00576	1469.1	10.1
303.15	0.00785	1469.1	10.1
303.15	0.00955	1469.2	10.1
303.15	0.01128	1469.2	10.1
303.15	0.01279	1469.3	10.1
303.15	0.01467	1469.3	10.1
303.15	0.01667	1469.4	10.1
303.15	0.01771	1469.4	10.1
303.15	0.02246	1469.4	10.1
303.15	0.02782	1469.5	10.1
303.15	0.03207	1469.5	10.1
303.15	0.04114	1469.5	10.1
303.15	0.05216	1469.5	10.1
303.15	0.0603	1469.5	10.1
308.15	0.00231	1452	10.1
308.15	0.00384	1452	10.1
308.15	0.00576	1452	10.1
308.15	0.00785	1452.1	10.1
308.15	0.00955	1452.1	10.1
308.15	0.01128	1452.1	10.1
308.15	0.01279	1452.2	10.1
308.15	0.01467	1452.2	10.1
308.15	0.01667	1452.3	10.1
308.15	0.01771	1452.3	10.1
308.15	0.02246	1452.3	10.1
308.15	0.02782	1452.4	10.1
308.15	0.03207	1452.4	10.1
308.15	0.04114	1452.6	10.1
308.15	0.05216	1452.6	10.1
308.15	0.0603	1452.7	10.1
