Measured thermophysical data. Vapor pressures and standard molar enthalpies, entropies, and Gibbs free energies of sublimation of 2,4- and 3,4-dinitrobenzoic acids
Source: J. Chem. Thermodyn., 2009, 10.1016/j.jct.2009.02.008
Compound 1: 2,4-dinitrobenzoic acid, C7H4N2O6, InChI=1S/C7H4N2O6/c10-7(11)5-2-1-4(8(12)13)3-6(5)9(14)15/h1-3H,(H,10,11), purity 95%
Compound 2: 3,4-dinitrobenzoic acid, C7H4N2O6, InChI=1S/C7H4N2O6/c10-7(11)4-1-2-5(8(12)13)6(3-4)9(14)15/h1-3H,(H,10,11), purity 99.3%

System: 2,4-dinitrobenzoic acid; phases: Crystal, Liquid, Air at 1 atmosphere
Property: Molar enthalpy of transition or fusion, kJ/mol (Crystal); method: DSC
Molar enthalpy of transition or fusion, kJ/mol	uncertainty
30.6	1.9

System: 2,4-dinitrobenzoic acid; phases: Crystal, Liquid, Air at 1 atmosphere
Property: Normal melting temperature, K (Crystal); method: DTA
Normal melting temperature, K	uncertainty
455.8	1.3

System: 2,4-dinitrobenzoic acid; phases: Crystal, Gas
Property: Vapor or sublimation pressure, kPa (Crystal); method: Torsion effusion method
Temperature, K	Vapor or sublimation pressure, kPa	uncertainty
363.5	3e-05	6e-06
370	6e-05	8e-06
373	9e-05	1.2e-05
375	0.000105	1.9e-05
377	0.00015	2.8e-05
377.5	0.00015	2.8e-05
379	0.000195	3.2e-05
381	0.00024	3e-05
381	0.00024	3e-05
381.5	0.00024	3e-05
385	0.00033	4.9e-05
388.5	0.000511	6e-05
388.5	0.000541	6.2e-05
389	0.00048	5.8e-05
389	0.000541	6.2e-05
391	0.000601	9.5e-05
391	0.000631	9.6e-05
391	0.000691	9.7e-05
393	0.000781	0.000125
393.5	0.000901	0.000126
394	0.000871	0.000125
396.5	0.001141	0.000129
397	0.001141	0.000128
399	0.001351	0.00023
399	0.001502	0.000229
399.5	0.001622	0.000232
400	0.001622	0.000228
401.5	0.001952	0.000282
402	0.001862	0.000172
402.5	0.001922	0.000173

System: 2,4-dinitrobenzoic acid; phases: Liquid, Gas
Property: Vapor or sublimation pressure, kPa (Liquid); method: Torsion effusion method
Temperature, K	Vapor or sublimation pressure, kPa	uncertainty
501.2	1.016	0.154
502.4	1.13	0.071
503.2	1.259	0.106
504.4	1.202	0.08
505.3	1.309	0.068
506.2	1.299	0.111
507.3	1.316	0.1
508.2	1.484	0.117
510.3	1.607	0.119
511.4	1.647	0.099
512.3	1.785	0.124
513.2	1.704	0.14
514.4	1.9	0.107
515.2	1.995	0.178
516.4	1.952	0.132
517.3	2.207	0.12
518.4	2.196	0.196
519.3	2.153	0.143
520.2	2.466	0.153
521.4	2.522	0.228
522.3	2.494	0.199
523.2	2.768	0.188
524.3	2.997	0.225
526.3	3.049	0.206
527.2	3.107	0.172
528.4	3.467	0.303
529.2	3.297	0.276
530.4	3.895	0.221
531.3	3.86	0.324
532.2	3.786	0.233
533.4	4.205	0.301
534.2	4.308	0.325
535.4	4.593	0.279
536.3	4.615	0.294
537.3	4.715	0.267
538.2	4.909	0.279
539.4	4.999	0.367
540.3	5.053	0.331
541.2	5.592	0.369
543.3	5.789	0.312
544.2	5.62	0.283

System: 2,4-dinitrobenzoic acid; phases: Liquid, Gas
Property: Vapor or sublimation pressure, kPa (Liquid); method: Torsion effusion method
Temperature, K	Vapor or sublimation pressure, kPa	uncertainty
494.3	0.85	0.048
494.4	0.85	0.052
494.5	0.851	0.05
494.7	0.85	0.059
495.6	0.874	0.059
495.7	0.883	0.059
495.8	0.879	0.06
495.9	0.884	0.06
500.6	1.05	0.081
500.6	1.065	0.081
500.8	1.051	0.081
500.8	1.058	0.081
501.1	1.047	0.081
501.2	1.046	0.081
501.2	1.048	0.081
501.5	1.06	0.081
507.1	1.451	0.09
507.2	1.464	0.086
507.4	1.458	0.124
507.5	1.475	0.125
508.1	1.511	0.125
508.2	1.513	0.125
508.3	1.516	0.125
508.5	1.513	0.151
511.5	1.909	0.134
512.8	1.798	0.131
512.8	1.814	0.131
512.8	1.816	0.131
512.9	1.826	0.13
512.9	1.849	0.13
512.9	1.85	0.13
512.9	1.848	0.13
513	1.814	0.13
517.2	2.293	0.159
517.2	2.389	0.162
517.2	2.212	0.157
517.3	2.212	0.157
523	2.741	0.194
523.1	2.703	0.192
523.1	2.754	0.194
523.3	2.731	0.193
528.9	3.528	0.233
528.9	3.623	0.239
528.9	3.453	0.228
529	3.447	0.227
531.2	3.694	0.217
531.3	3.894	0.224
531.4	3.865	0.223
531.5	3.847	0.223
534.2	3.936	0.238
534.2	4.141	0.246
534.4	4.173	0.247
534.4	4.085	0.243
537.3	4.48	0.343
537.4	4.808	0.362
537.4	4.815	0.362
537.5	4.648	0.35
539.2	5.258	0.505
539.2	5.485	0.652
539.2	5.433	0.618
539.3	5.693	0.753

System: 3,4-dinitrobenzoic acid; phases: Crystal, Liquid, Air at 1 atmosphere
Property: Molar enthalpy of transition or fusion, kJ/mol (Crystal); method: DSC
Molar enthalpy of transition or fusion, kJ/mol	uncertainty
24.6	1.9

System: 3,4-dinitrobenzoic acid; phases: Crystal, Liquid, Air at 1 atmosphere
Property: Normal melting temperature, K (Crystal); method: DTA
Normal melting temperature, K	uncertainty
438.2	1.3

System: 3,4-dinitrobenzoic acid; phases: Crystal, Gas
Property: Vapor or sublimation pressure, kPa (Crystal); method: Torsion effusion method
Temperature, K	Vapor or sublimation pressure, kPa	uncertainty
366	6e-05	1e-05
367	7.5e-05	1e-05
368	7.5e-05	1.4e-05
369	9e-05	1.1e-05
370	0.000105	1.9e-05
370.5	0.000105	1.9e-05
373	0.00015	1.6e-05
373.5	0.00015	1.8e-05
374	0.00015	1.8e-05
374.5	0.00015	1.4e-05
376	0.00018	3.2e-05
378	0.00024	3e-05
379	0.00027	4.4e-05
380	0.00027	4.7e-05
382	0.00039	4.7e-05
382	0.00036	4.6e-05
383	0.00039	5.8e-05
383.5	0.00039	5.2e-05
384.5	0.00048	5.6e-05
385	0.000511	6.6e-05
386.5	0.000541	8e-05
387	0.000571	8e-05
387.5	0.000631	7.9e-05
387.5	0.000631	7.9e-05
390.5	0.000841	0.000103
391.5	0.000901	0.000119
392	0.000991	0.000119
393	0.001171	0.000167
393.5	0.001111	0.000166
396	0.001502	0.000195
396	0.001441	0.000194
396.5	0.001622	0.000199
397	0.001652	0.000199
398.5	0.001862	0.000192
399.3	0.001952	0.000184

System: 3,4-dinitrobenzoic acid; phases: Liquid, Gas
Property: Vapor or sublimation pressure, kPa (Liquid); method: Torsion effusion method
Temperature, K	Vapor or sublimation pressure, kPa	uncertainty
517.5	2.396	0.186
518.3	2.448	0.214
519.1	2.585	0.183
519.5	2.554	0.182
520.2	2.726	0.189
521.3	2.807	0.231
521.7	2.815	0.21
522.1	2.971	0.207
523.1	3.104	0.248
523.5	3.122	0.222
524.1	3.125	0.187
524.2	3.181	0.189
525	3.353	0.191
525.2	3.39	0.229
526.3	3.328	0.201
526.3	3.288	0.2
527.1	3.585	0.233
527.3	3.644	0.235
528.1	3.627	0.281
528.2	3.635	0.28
529.2	3.887	0.256
529.6	3.918	0.298
530.1	3.984	0.294
530.3	4.045	0.296
531	4.159	0.279
531.3	4.216	0.282
532.2	4.354	0.262
532.2	4.308	0.26
533.2	4.481	0.286
533.3	4.47	0.286
534.3	4.532	0.283
535.7	4.867	0.345
536.2	4.889	0.348
538.3	5.356	0.377
540.6	5.862	0.394

System: 3,4-dinitrobenzoic acid; phases: Liquid, Gas
Property: Vapor or sublimation pressure, kPa (Liquid); method: Torsion effusion method
Temperature, K	Vapor or sublimation pressure, kPa	uncertainty
504.2	1.398	0.08
506.3	1.467	0.108
506.3	1.527	0.111
508.1	1.661	0.143
509.3	1.686	0.127
509.3	1.713	0.128
510.3	1.855	0.149
511.2	1.855	0.152
512.2	2.062	0.14
512.2	1.928	0.134
512.6	2.021	0.16
513.3	2.078	0.155
514	2.144	0.146
514.2	2.189	0.147
514.5	2.164	0.147
515.2	2.237	0.153
516.3	2.326	0.165
516.3	2.215	0.161
517.3	2.424	0.17
517.4	2.494	0.173
518.2	2.524	0.158
518.2	2.484	0.156
519.3	2.646	0.188
520	2.619	0.177
520.2	2.672	0.178
520.2	2.772	0.183
521.2	2.916	0.198
522.1	2.909	0.186
522.2	2.978	0.189
523.3	3.095	0.194
523.3	3.121	0.195
524.2	3.059	0.196
524.4	3.199	0.227
525.5	3.335	0.251
526	3.494	0.229
526.3	3.406	0.241
526.5	3.316	0.234
527.3	3.551	0.203
528.1	3.726	0.266
528.3	3.831	0.296
529.4	3.764	0.282
529.6	3.879	0.263
530.3	4.036	0.257
531.3	4.262	0.31
532.2	4.348	0.277
532.2	4.29	0.275
533.3	4.576	0.28
534.3	4.611	0.292
535.4	4.812	0.307
536.5	4.992	0.36
537.3	5.217	0.375
539.3	5.685	0.4
