Measured thermophysical data. (Liquid + liquid) equilibria of (water + propionic acid + cyclohexanone) at several temperatures
Source: J. Chem. Thermodyn., 2005, 10.1016/j.jct.2005.03.017
Compound 1: water, H2O, InChI=1S/H2O/h1H2
Compound 2: propanoic acid, C3H6O2, InChI=1S/C3H6O2/c1-2-3(4)5/h2H2,1H3,(H,4,5), purity 99%
Compound 3: cyclohexanone, C6H10O, InChI=1S/C6H10O/c7-6-4-2-1-3-5-6/h1-5H2, purity 99%

System: water; phases: Liquid, Gas
Property: Normal boiling temperature, K (Liquid); method: Ebulliometric method (Recirculating still)
Normal boiling temperature, K	uncertainty
373.23	0.1

System: water; phases: Liquid
Property: Refractive index (Na D-line) (Liquid); method: Standard Abbe refractometry
Temperature, K	Pressure, kPa	Refractive index (Na D-line)	uncertainty
293.15	101.325	1.3326	0.0008

System: propanoic acid; phases: Liquid, Gas
Property: Normal boiling temperature, K (Liquid); method: Ebulliometric method (Recirculating still)
Normal boiling temperature, K	uncertainty
414.1	0.1

System: propanoic acid; phases: Liquid
Property: Refractive index (Na D-line) (Liquid); method: Standard Abbe refractometry
Temperature, K	Pressure, kPa	Refractive index (Na D-line)	uncertainty
293.15	101.325	1.3811	0.0008

System: propanoic acid; phases: Liquid
Property: Mass density, kg/m3 (Liquid); method: VIBTUB:UFactor:4
Temperature, K	Pressure, kPa	Mass density, kg/m3	uncertainty
293.15	101.325	992.7	0.5

System: cyclohexanone; phases: Liquid, Gas
Property: Normal boiling temperature, K (Liquid); method: Ebulliometric method (Recirculating still)
Normal boiling temperature, K	uncertainty
428.69	0.1

System: cyclohexanone; phases: Liquid
Property: Refractive index (Na D-line) (Liquid); method: Standard Abbe refractometry
Temperature, K	Pressure, kPa	Refractive index (Na D-line)	uncertainty
293.15	101.325	1.451	0.0008

System: cyclohexanone; phases: Liquid
Property: Mass density, kg/m3 (Liquid); method: VIBTUB:UFactor:4
Temperature, K	Pressure, kPa	Mass density, kg/m3	uncertainty
293.15	101.325	947.3	0.6

System: propanoic acid + cyclohexanone + water; phases: Liquid mixture 2, Liquid mixture 1
Fixed: Pressure, kPa = 101.325
Property: Mass fraction of propanoic acid (Liquid mixture 2); method: CHROM:UFactor:8
Property: Mass fraction of propanoic acid (Liquid mixture 1); method: CHROM:UFactor:8
Property: Mass fraction of water (Liquid mixture 1); method: CHROM:UFactor:8
Temperature, K	Mass fraction of water	Mass fraction of propanoic acid	uncertainty	Mass fraction of propanoic acid	uncertainty	Mass fraction of water	uncertainty
293.2	0.0952	0.0928	0.0075	0.0304	0.0025	0.9106	
293.2	0.1134	0.1536	0.0123	0.0463	0.0037	0.8877	
293.2	0.1292	0.1978	0.0159	0.084	0.0068	0.836	
293.2	0.1799	0.2551	0.0205	0.1025	0.0082	0.8125	
293.2	0.2925	0.3025	0.0242	0.1445	0.0116	0.7535	
298.2	0.09	0.088	0.0073	0.0232	0.0019	0.9288	
298.2	0.116	0.144	0.0116	0.0495	0.004	0.8905	
298.2	0.1622	0.2078	0.0168	0.0775	0.0062	0.8605	
298.2	0.22	0.265	0.0212	0.1289	0.0103	0.7881	
298.2	0.2638	0.2862	0.0229	0.1421	0.0114	0.7629	
303.2	0.08	0.085	0.0071	0.0217	0.0023	0.9103	
303.2	0.0998	0.1452	0.0118	0.0515	0.0042	0.8785	
303.2	0.1165	0.1985	0.0164	0.0723	0.0058	0.8557	
303.2	0.2015	0.2435	0.0195	0.105	0.0084	0.818	
303.2	0.24	0.26	0.0208	0.1205	0.0097	0.7845	

System: propanoic acid + cyclohexanone + water; phases: Liquid mixture 1, Liquid mixture 2
Fixed: Pressure, kPa = 101
Property: Mass fraction of propanoic acid (Liquid mixture 1); method: TITR:UFactor:2
Temperature, K	Mass fraction of water	Mass fraction of propanoic acid	uncertainty
293.2	0.0588	0	0.0001
293.2	0.0896	0.0574	0.0047
293.2	0.0903	0.0868	0.0072
293.2	0.101	0.1205	0.0098
293.2	0.127	0.1768	0.0143
293.2	0.1447	0.2248	0.0181
293.2	0.1804	0.2611	0.0212
293.2	0.2443	0.283	0.0226
293.2	0.2565	0.288	0.023
293.2	0.2918	0.2977	0.0238
293.2	0.3305	0.3	0.024
293.2	0.3909	0.2863	0.0229
293.2	0.4769	0.2647	0.0212
293.2	0.5162	0.2482	0.0199
293.2	0.5791	0.2275	0.0182
293.2	0.6383	0.2044	0.0164
293.2	0.6439	0.2023	0.0162
293.2	0.7032	0.1745	0.014
293.2	0.7988	0.1204	0.0097
293.2	0.8515	0.0741	0.0061
293.2	0.914	0	0.0001
298.2	0.0597	0	0.0001
298.2	0.095	0.08	0.0065
298.2	0.1191	0.1338	0.0107
298.2	0.141	0.1825	0.0146
298.2	0.1737	0.2006	0.0161
298.2	0.2093	0.258	0.0207
298.2	0.2614	0.2862	0.0229
298.2	0.3459	0.293	0.0234
298.2	0.3953	0.2852	0.0228
298.2	0.4656	0.267	0.0214
298.2	0.4695	0.2665	0.0213
298.2	0.5929	0.2225	0.0178
298.2	0.6412	0.2047	0.0164
298.2	0.705	0.1732	0.0139
298.2	0.8388	0.0985	0.0079
298.2	0.8791	0.0594	0.0048
298.2	0.9095	0.0294	0.0024
298.2	0.9195	0	0.0001
303.2	0.0628	0	0.0001
303.2	0.0745	0.0351	0.0032
303.2	0.0906	0.1176	0.0097
303.2	0.1232	0.1862	0.0151
303.2	0.1552	0.2106	0.0169
303.2	0.2053	0.2495	0.02
303.2	0.2704	0.2779	0.0223
303.2	0.3403	0.2902	0.0232
303.2	0.4321	0.2732	0.0219
303.2	0.4513	0.2677	0.0214
303.2	0.4783	0.254	0.0204
303.2	0.4809	0.2581	0.0208
303.2	0.5608	0.2338	0.0187
303.2	0.6201	0.2098	0.0168
303.2	0.6472	0.1994	0.016
303.2	0.6851	0.1824	0.0146
303.2	0.7074	0.1701	0.0136
303.2	0.7301	0.1616	0.0129
303.2	0.7898	0.1216	0.0098
303.2	0.8607	0.0672	0.0054
303.2	0.8857	0.0433	0.0036
303.2	0.92	0	0.0001
