Measured thermophysical data. Bubble point temperatures of the binary mixtures of nitrobenzene with C1 C4 aliphatic alcohols at 94.95 kPa
Source: J. Chem. Thermodyn., 2006, 10.1016/j.jct.2005.08.011
Compound 1: nitrobenzene, C6H5NO2, InChI=1S/C6H5NO2/c8-7(9)6-4-2-1-3-5-6/h1-5H
Compound 2: methanol, CH4O, InChI=1S/CH4O/c1-2/h2H,1H3
Compound 3: ethanol, C2H6O, InChI=1S/C2H6O/c1-2-3/h3H,2H2,1H3
Compound 4: propan-1-ol, C3H8O, InChI=1S/C3H8O/c1-2-3-4/h4H,2-3H2,1H3
Compound 5: propan-2-ol, C3H8O, InChI=1S/C3H8O/c1-3(2)4/h3-4H,1-2H3
Compound 6: butan-1-ol, C4H10O, InChI=1S/C4H10O/c1-2-3-4-5/h5H,2-4H2,1H3
Compound 7: 2-methyl-1-propanol, C4H10O, InChI=1S/C4H10O/c1-4(2)3-5/h4-5H,3H2,1-2H3
Compound 8: butan-2-ol, C4H10O, InChI=1S/C4H10O/c1-3-4(2)5/h4-5H,3H2,1-2H3
Compound 9: 2-methylpropan-2-ol, C4H10O, InChI=1S/C4H10O/c1-4(2,3)5/h5H,1-3H3

System: nitrobenzene; phases: Liquid
Property: Mass density, kg/m3 (Liquid); method: PYCNOM:UFactor:8
Temperature, K	Pressure, kPa	Mass density, kg/m3	uncertainty
298.15	101.325	1198	3.2

System: nitrobenzene; phases: Liquid
Property: Refractive index (Na D-line) (Liquid); method: ABBE:UFactor:4
Temperature, K	Pressure, kPa	Refractive index (Na D-line)	uncertainty
298.15	101.325	1.55	0.0016

System: nitrobenzene; phases: Liquid, Gas
Property: Vapor or sublimation pressure, kPa (Liquid); method: EBULLIO:UFactor:32
Temperature, K	Vapor or sublimation pressure, kPa	uncertainty
481.15	94.95	4.77

System: methanol; phases: Liquid
Property: Mass density, kg/m3 (Liquid); method: PYCNOM:UFactor:8
Temperature, K	Pressure, kPa	Mass density, kg/m3	uncertainty
298.15	101.325	786.4	1.9

System: methanol; phases: Liquid
Property: Refractive index (Na D-line) (Liquid); method: ABBE:UFactor:4
Temperature, K	Pressure, kPa	Refractive index (Na D-line)	uncertainty
298.15	101.325	1.3265	0.0016

System: methanol; phases: Liquid, Gas
Property: Vapor or sublimation pressure, kPa (Liquid); method: EBULLIO:UFactor:32
Temperature, K	Vapor or sublimation pressure, kPa	uncertainty
336.15	94.95	4.77

System: ethanol; phases: Liquid
Property: Mass density, kg/m3 (Liquid); method: PYCNOM:UFactor:8
Temperature, K	Pressure, kPa	Mass density, kg/m3	uncertainty
298.15	101.325	784.9	1.9

System: ethanol; phases: Liquid
Property: Refractive index (Na D-line) (Liquid); method: ABBE:UFactor:4
Temperature, K	Pressure, kPa	Refractive index (Na D-line)	uncertainty
298.15	101.325	1.3594	0.0016

System: ethanol; phases: Liquid, Gas
Property: Vapor or sublimation pressure, kPa (Liquid); method: EBULLIO:UFactor:32
Temperature, K	Vapor or sublimation pressure, kPa	uncertainty
349.85	94.95	4.77

System: propan-1-ol; phases: Liquid
Property: Mass density, kg/m3 (Liquid); method: PYCNOM:UFactor:8
Temperature, K	Pressure, kPa	Mass density, kg/m3	uncertainty
298.15	101.325	799.6	1.9

System: propan-1-ol; phases: Liquid
Property: Refractive index (Na D-line) (Liquid); method: ABBE:UFactor:4
Temperature, K	Pressure, kPa	Refractive index (Na D-line)	uncertainty
298.15	101.325	1.3837	0.0016

System: propan-1-ol; phases: Liquid, Gas
Property: Vapor or sublimation pressure, kPa (Liquid); method: EBULLIO:UFactor:32
Temperature, K	Vapor or sublimation pressure, kPa	uncertainty
368.75	94.95	4.77

System: propan-2-ol; phases: Liquid
Property: Mass density, kg/m3 (Liquid); method: PYCNOM:UFactor:8
Temperature, K	Pressure, kPa	Mass density, kg/m3	uncertainty
298.15	101.325	781.3	1.9

System: propan-2-ol; phases: Liquid
Property: Refractive index (Na D-line) (Liquid); method: ABBE:UFactor:4
Temperature, K	Pressure, kPa	Refractive index (Na D-line)	uncertainty
298.15	101.325	1.3752	0.0016

System: propan-2-ol; phases: Liquid, Gas
Property: Vapor or sublimation pressure, kPa (Liquid); method: EBULLIO:UFactor:32
Temperature, K	Vapor or sublimation pressure, kPa	uncertainty
353.85	94.95	4.77

System: butan-1-ol; phases: Liquid
Property: Mass density, kg/m3 (Liquid); method: PYCNOM:UFactor:8
Temperature, K	Pressure, kPa	Mass density, kg/m3	uncertainty
298.15	101.325	805.8	2

System: butan-1-ol; phases: Liquid
Property: Refractive index (Na D-line) (Liquid); method: ABBE:UFactor:4
Temperature, K	Pressure, kPa	Refractive index (Na D-line)	uncertainty
298.15	101.325	1.3974	0.0016

System: butan-1-ol; phases: Liquid, Gas
Property: Vapor or sublimation pressure, kPa (Liquid); method: EBULLIO:UFactor:32
Temperature, K	Vapor or sublimation pressure, kPa	uncertainty
389.15	94.95	4.77

System: 2-methyl-1-propanol; phases: Liquid
Property: Mass density, kg/m3 (Liquid); method: PYCNOM:UFactor:8
Temperature, K	Pressure, kPa	Mass density, kg/m3	uncertainty
298.15	101.325	797.8	1.9

System: 2-methyl-1-propanol; phases: Liquid
Property: Refractive index (Na D-line) (Liquid); method: ABBE:UFactor:4
Temperature, K	Pressure, kPa	Refractive index (Na D-line)	uncertainty
298.15	101.325	1.3939	0.0016

System: 2-methyl-1-propanol; phases: Liquid, Gas
Property: Vapor or sublimation pressure, kPa (Liquid); method: EBULLIO:UFactor:32
Temperature, K	Vapor or sublimation pressure, kPa	uncertainty
379.45	94.95	4.77

System: butan-2-ol; phases: Liquid
Property: Mass density, kg/m3 (Liquid); method: PYCNOM:UFactor:8
Temperature, K	Pressure, kPa	Mass density, kg/m3	uncertainty
298.15	101.325	802.4	1.9

System: butan-2-ol; phases: Liquid
Property: Refractive index (Na D-line) (Liquid); method: ABBE:UFactor:4
Temperature, K	Pressure, kPa	Refractive index (Na D-line)	uncertainty
298.15	101.325	1.3953	0.0016

System: butan-2-ol; phases: Liquid, Gas
Property: Vapor or sublimation pressure, kPa (Liquid); method: EBULLIO:UFactor:32
Temperature, K	Vapor or sublimation pressure, kPa	uncertainty
371.15	94.95	4.77

System: 2-methylpropan-2-ol; phases: Liquid
Property: Mass density, kg/m3 (Liquid); method: PYCNOM:UFactor:8
Temperature, K	Pressure, kPa	Mass density, kg/m3	uncertainty
298.15	101.325	781.2	1.9

System: 2-methylpropan-2-ol; phases: Liquid
Property: Refractive index (Na D-line) (Liquid); method: ABBE:UFactor:4
Temperature, K	Pressure, kPa	Refractive index (Na D-line)	uncertainty
298.15	101.325	1.3852	0.0016

System: 2-methylpropan-2-ol; phases: Liquid, Gas
Property: Vapor or sublimation pressure, kPa (Liquid); method: EBULLIO:UFactor:32
Temperature, K	Vapor or sublimation pressure, kPa	uncertainty
354.05	94.95	4.77

System: methanol + nitrobenzene; phases: Liquid, Gas
Fixed: Pressure, kPa = 94.95
Property: Boiling temperature at pressure P, K (Liquid); method: EBULLIO:UFactor:32
Mole fraction of methanol	Boiling temperature at pressure P, K	uncertainty
0	481.15	1.02
0.0814	431.55	1.02
0.1626	410.15	1.02
0.2125	401.25	1.02
0.2797	391.65	1.02
0.3435	384.15	1.02
0.4372	374.95	1.02
0.5113	368.65	1.02
0.5987	361.85	1.02
0.6665	356.85	1.02
0.7322	352.25	1.02
0.8183	346.25	1.02
0.8913	341.45	1.02
0.9538	337.85	1.02
1	336.15	1.02

System: ethanol + nitrobenzene; phases: Liquid, Gas
Fixed: Pressure, kPa = 94.95
Property: Boiling temperature at pressure P, K (Liquid); method: EBULLIO:UFactor:32
Mole fraction of ethanol	Boiling temperature at pressure P, K	uncertainty
0	481.15	1.02
0.0603	438.85	1.02
0.1187	419.85	1.02
0.2007	403.55	1.02
0.2878	392.05	1.02
0.3662	384.15	1.02
0.4469	377.45	1.02
0.5228	372.15	1.02
0.6028	367.15	1.02
0.6717	363.35	1.02
0.7399	359.85	1.02
0.8005	357.05	1.02
0.8836	353.65	1.02
0.9408	351.5	1.02
1	349.85	1.02

System: propan-1-ol + nitrobenzene; phases: Liquid, Gas
Fixed: Pressure, kPa = 94.95
Property: Boiling temperature at pressure P, K (Liquid); method: EBULLIO:UFactor:32
Mole fraction of propan-1-ol	Boiling temperature at pressure P, K	uncertainty
0	481.15	1.02
0.0853	429.75	1.02
0.173	414.65	1.02
0.2332	407.75	1.02
0.2957	401.95	1.02
0.3721	395.95	1.02
0.457	390.35	1.02
0.5231	386.55	1.02
0.5971	382.85	1.02
0.6605	379.95	1.02
0.7427	376.75	1.02
0.8202	373.95	1.02
0.8989	371.55	1.02
0.9506	370.05	1.02
1	368.75	1.02

System: propan-2-ol + nitrobenzene; phases: Liquid, Gas
Fixed: Pressure, kPa = 94.95
Property: Boiling temperature at pressure P, K (Liquid); method: EBULLIO:UFactor:32
Mole fraction of propan-2-ol	Boiling temperature at pressure P, K	uncertainty
0	481.15	1.02
0.0851	434.55	1.02
0.1706	414.25	1.02
0.2308	404.85	1.02
0.2915	397.25	1.02
0.3707	389.35	1.02
0.4514	382.55	1.02
0.5221	377.45	1.02
0.5916	372.95	1.02
0.6663	368.55	1.02
0.7421	364.45	1.02
0.8386	359.85	1.02
0.8968	357.35	1.02
0.9508	355.25	1.02
1	353.85	1.02

System: butan-1-ol + nitrobenzene; phases: Liquid, Gas
Fixed: Pressure, kPa = 94.95
Property: Boiling temperature at pressure P, K (Liquid); method: EBULLIO:UFactor:32
Mole fraction of butan-1-ol	Boiling temperature at pressure P, K	uncertainty
0	481.15	1.02
0.0733	449.75	1.02
0.1465	437.25	1.02
0.2557	425.45	1.02
0.3402	418.55	1.02
0.4074	413.85	1.02
0.462	410.45	1.02
0.5077	407.85	1.02
0.5922	403.55	1.02
0.6448	401.25	1.02
0.707	398.65	1.02
0.784	395.75	1.02
0.878	392.65	1.02
1	389.15	1.02

System: 2-methyl-1-propanol + nitrobenzene; phases: Liquid, Gas
Fixed: Pressure, kPa = 94.95
Property: Boiling temperature at pressure P, K (Liquid); method: EBULLIO:UFactor:32
Mole fraction of 2-methyl-1-propanol	Boiling temperature at pressure P, K	uncertainty
0	481.15	1.02
0.0732	443.55	1.02
0.1454	428.45	1.02
0.2002	421.05	1.02
0.2984	411.35	1.02
0.4002	403.95	1.02
0.4596	400.35	1.02
0.5002	398.05	1.02
0.5898	393.65	1.02
0.7002	388.95	1.02
0.7149	387.45	1.02
0.8002	385.55	1.02
0.877	382.95	1.02
1	379.45	1.02

System: butan-2-ol + nitrobenzene; phases: Liquid, Gas
Fixed: Pressure, kPa = 94.95
Property: Boiling temperature at pressure P, K (Liquid); method: EBULLIO:UFactor:32
Mole fraction of butan-2-ol	Boiling temperature at pressure P, K	uncertainty
0	481.15	1.02
0.0772	436.25	1.02
0.1436	418.95	1.02
0.2002	410.05	1.02
0.2998	398.75	1.02
0.3883	391.45	1.02
0.4613	386.65	1.02
0.5221	383.45	1.02
0.5913	380.25	1.02
0.6721	377.15	1.02
0.7413	374.95	1.02
0.878	371.95	1.02
0.9487	371.25	1.02
1	371.15	1.02

System: 2-methylpropan-2-ol + nitrobenzene; phases: Liquid, Gas
Fixed: Pressure, kPa = 94.95
Property: Boiling temperature at pressure P, K (Liquid); method: EBULLIO:UFactor:32
Mole fraction of 2-methylpropan-2-ol	Boiling temperature at pressure P, K	uncertainty
0	481.15	1.02
0.1007	437.05	1.02
0.1431	426.75	1.02
0.2006	416.05	1.02
0.2994	402.95	1.02
0.4005	391.85	1.02
0.4548	387.05	1.02
0.5004	383.35	1.02
0.5852	377.05	1.02
0.7003	369.35	1.02
0.7384	367.05	1.02
0.8002	363.35	1.02
0.9501	355.75	1.02
1	354.05	1.02
