Measured thermophysical data. Studies on the thermodynamic properties of new ionic liquids: 1-Methyl-3-pentylimidazolium salts containing metal of group III
Source: J. Chem. Thermodyn., 2006, 10.1016/j.jct.2006.01.017
Compound 1: 1-methyl-3-pentylimidazolium aluminum tetrachloride, C9H17AlCl4N2, InChI=1S/C9H17N2.Al.4ClH/c1-3-4-5-6-11-8-7-10(2)9-11;;;;;/h7-9H,3-6H2,1-2H3;;4*1H/q+1;+3;;;;/p-4
Compound 2: 1-methyl-3-pentylimidazolium gallium tetrachloride, C9H17Cl4GaN2, InChI=1S/C9H17N2.4ClH.Ga/c1-3-4-5-6-11-8-7-10(2)9-11;;;;;/h7-9H,3-6H2,1-2H3;4*1H;/q+1;;;;;+3/p-4
Compound 3: 1-methyl-3-pentylimidazolium tetrachloroindate, C9H17Cl4InN2, InChI=1S/C9H17N2.4ClH.In/c1-3-4-5-6-11-8-7-10(2)9-11;;;;;/h7-9H,3-6H2,1-2H3;4*1H;/q+1;;;;;+3/p-4

System: 1-methyl-3-pentylimidazolium aluminum tetrachloride; phases: Liquid, Gas
Property: Surface tension liquid-gas, N/m (Liquid); method: Maximal bubble pressure
Temperature, K	Surface tension liquid-gas, N/m	uncertainty
273.15	0.044	0.0011
278.15	0.0437	0.0011
283.15	0.0434	0.0011
288.15	0.0431	0.0011
293.15	0.0429	0.0011
298.15	0.0426	0.0011
303.15	0.0424	0.0011
308.15	0.0421	0.0011
313.15	0.0419	0.0011
318.15	0.0415	0.0011
323.15	0.0412	0.0011
328.15	0.0408	0.0011
333.15	0.0406	0.0011
338.15	0.0403	0.001
343.15	0.04	0.001

System: 1-methyl-3-pentylimidazolium aluminum tetrachloride; phases: Liquid
Fixed: Pressure, kPa = 101.325
Property: Mass density, kg/m3 (Liquid); method: Buoyancy - hydrostatic balance
Temperature, K	Mass density, kg/m3	uncertainty
273.15	1231.1	8.1
278.15	1227.6	8.1
283.15	1224.3	8
288.15	1220.8	8
293.15	1217.4	8
298.15	1213.3	7.9
303.15	1209.4	7.8
308.15	1205.9	7.8
313.15	1202.7	7.8
318.15	1198.9	7.7
323.15	1195.9	7.7
328.15	1192.2	7.6
333.15	1188.2	7.6
338.15	1185.8	7.5
343.15	1182.3	7.5

System: 1-methyl-3-pentylimidazolium gallium tetrachloride; phases: Liquid, Gas
Property: Surface tension liquid-gas, N/m (Liquid); method: Maximal bubble pressure
Temperature, K	Surface tension liquid-gas, N/m	uncertainty
273.15	0.0444	0.0011
278.15	0.0442	0.0011
283.15	0.0439	0.0011
288.15	0.0435	0.0011
293.15	0.0433	0.0011
298.15	0.0431	0.0011
303.15	0.0428	0.0011
308.15	0.0426	0.0011
313.15	0.0423	0.0011
318.15	0.0421	0.0011
323.15	0.0418	0.0011
328.15	0.0415	0.0011
333.15	0.0411	0.0011
338.15	0.0408	0.0011
343.15	0.0404	0.001

System: 1-methyl-3-pentylimidazolium gallium tetrachloride; phases: Liquid
Fixed: Pressure, kPa = 101.325
Property: Mass density, kg/m3 (Liquid); method: Buoyancy - hydrostatic balance
Temperature, K	Mass density, kg/m3	uncertainty
273.15	1395.6	10.4
278.15	1391.6	10.4
283.15	1387.5	10.3
288.15	1383.5	10.3
293.15	1379.6	10.2
298.15	1375.6	10.2
303.15	1371.5	10.1
308.15	1367.5	10
313.15	1363.6	10
318.15	1359.7	9.9
323.15	1356.2	9.9
328.15	1352.1	9.8
333.15	1348.3	9.8
338.15	1344.3	9.7
343.15	1340.2	9.6

System: 1-methyl-3-pentylimidazolium tetrachloroindate; phases: Liquid, Gas
Property: Surface tension liquid-gas, N/m (Liquid); method: Maximal bubble pressure
Temperature, K	Surface tension liquid-gas, N/m	uncertainty
273.15	0.0451	0.0012
278.15	0.0448	0.0012
283.15	0.0445	0.0011
288.15	0.0441	0.0011
293.15	0.0437	0.0011
298.15	0.0434	0.0011
303.15	0.0433	0.0011
308.15	0.043	0.0011
313.15	0.0428	0.0011
318.15	0.0425	0.0011
323.15	0.042	0.0011
328.15	0.0417	0.0011
333.15	0.0415	0.0011
338.15	0.0413	0.0011
343.15	0.041	0.0011

System: 1-methyl-3-pentylimidazolium tetrachloroindate; phases: Liquid
Fixed: Pressure, kPa = 101.325
Property: Mass density, kg/m3 (Liquid); method: Buoyancy - hydrostatic balance
Temperature, K	Mass density, kg/m3	uncertainty
273.15	1534.2	12.6
278.15	1529.6	12.6
283.15	1524.6	12.5
288.15	1520	12.4
293.15	1515.2	12.3
298.15	1510.8	12.2
303.15	1505.9	12.2
308.15	1501	12.1
313.15	1496	12
318.15	1491.4	11.9
323.15	1487	11.9
328.15	1482.7	11.8
333.15	1478.4	11.7
338.15	1473.7	11.7
343.15	1469.6	11.6
