Measured thermophysical data. Aggregation of sodium salt of ibuprofen and sodium taurocholate mixture in different media: A tensiometry and fluorometry study
Source: J. Chem. Thermodyn., 2018, 10.1016/j.jct.2018.02.019
Compound 1: water, H2O, InChI=1S/H2O/h1H2
Compound 2: urea, CH4N2O, InChI=1S/CH4N2O/c2-1(3)4/h(H4,2,3,4), purity 98%
Compound 3: sodium ibuprofen, C13H17NaO2, InChI=1S/C13H18O2.Na/c1-9(2)8-11-4-6-12(7-5-11)10(3)13(14)15;/h4-7,9-10H,8H2,1-3H3,(H,14,15);/q;+1/p-1, purity 98%
Compound 4: sodium taurocholate, C26H44NNaO7S, InChI=1S/C26H45NO7S.Na/c1-15(4-7-23(31)27-10-11-35(32,33)34)18-5-6-19-24-20(14-22(30)26(18,19)3)25(2)9-8-17(28)12-16(25)13-21(24)29;/h15-22,24,28-30H,4-14H2,1-3H3,(H,27,31)(H,32,33,34);/q;+1/p-1/t15-,16+,17-,18-,19+,20+,21-,22+,24+,25+,26-;/m1./s1, purity 97%
Compound 5: sodium chloride, ClNa, InChI=1S/ClH.Na/h1H;/q;+1/p-1, purity 98%

System: sodium ibuprofen + sodium taurocholate + water; phases: Liquid, Air at 1 atmosphere
Fixed: Temperature, K = 298.15
Property: Surface tension liquid-gas, N/m (Liquid); method: Ring tensiometer
Molality, mol/kg of sodium ibuprofen	Molality, mol/kg of sodium taurocholate	Surface tension liquid-gas, N/m	uncertainty
0.00045	0.00011	0.06484	0.00214
0.00074	0.00019	0.06307	0.00214
0.0016	0.0004	0.05959	0.00214
0.00312	0.00078	0.05383	0.00211
0.00411	0.00103	0.0513	0.0021
0.00508	0.00127	0.04917	0.00209
0.00673	0.00168	0.04699	0.00209
0.00821	0.00205	0.04521	0.00208
0.01018	0.00255	0.04337	0.00207
0.01249	0.00312	0.04174	0.00207
0.01498	0.00375	0.04049	0.00207
0.01636	0.00409	0.04011	0.00207
0.0179	0.00447	0.04013	0.00206
0.02	0.005	0.04003	0.00206
0.0219	0.00548	0.0401	0.00206
0.00018	0.00012	0.06494	0.00216
0.00029	0.0002	0.06256	0.00216
0.00048	0.00032	0.06059	0.00218
0.00085	0.00056	0.0564	0.00214
0.00125	0.00084	0.05323	0.00212
0.00195	0.0013	0.04979	0.00212
0.00267	0.00178	0.0475	0.00209
0.00353	0.00235	0.04505	0.0021
0.00481	0.0032	0.04336	0.00208
0.00605	0.00403	0.0421	0.00207
0.00757	0.00505	0.04084	0.00206
0.00883	0.00589	0.04083	0.00206
0.00982	0.00654	0.04085	0.00206
0.01117	0.00745	0.04086	0.00206
6e-05	9e-05	0.06205	0.00213
0.00012	0.00018	0.05878	0.00212
0.00019	0.00028	0.05579	0.00211
0.0003	0.00044	0.05393	0.00216
0.00041	0.00062	0.0516	0.0021
0.00054	0.00081	0.05007	0.0021
0.00077	0.00116	0.04778	0.00209
0.00119	0.00179	0.04554	0.00209
0.00171	0.00256	0.04346	0.00208
0.00267	0.004	0.04168	0.00207
0.00341	0.00512	0.04106	0.00207
0.00441	0.00661	0.04109	0.00206
0.00518	0.00776	0.04118	0.00207
5e-05	0.0002	0.06568	0.00214
0.0001	0.0004	0.06024	0.00216
0.00015	0.00059	0.05624	0.00213
0.0002	0.00079	0.05334	0.00212
0.00026	0.00104	0.05073	0.00212
0.00037	0.00147	0.04736	0.00212
0.0005	0.002	0.04419	0.00209
0.00071	0.00285	0.04178	0.00208
0.00094	0.00374	0.04125	0.00206
0.00114	0.00454	0.04128	0.00206
0.0014	0.00558	0.0413	0.00206
0.00182	0.00727	0.04122	0.00206
0	0.00062	0.05339	0.00215
0	0.00093	0.05095	0.00211
0	0.00149	0.04764	0.0021
0	0.00208	0.04558	0.00209
0	0.00263	0.04418	0.00209
0	0.00313	0.043	0.00209
0	0.00354	0.04208	0.00208
0	0.00392	0.04148	0.00207
0	0.00455	0.04095	0.00207
0	0.00489	0.0405	0.00206
0	0.00556	0.04048	0.00206
0	0.0062	0.04051	0.00206
0	0.00714	0.04045	0.00206
0	0.00804	0.0405	0.00206

System: sodium taurocholate + water; phases: Liquid, Air at 1 atmosphere
Fixed: Temperature, K = 298.15
Property: Surface tension liquid-gas, N/m (Liquid); method: Ring tensiometer
Molality, mol/kg of sodium taurocholate	Surface tension liquid-gas, N/m	uncertainty
0.00062	0.05339	0.00211
0.00093	0.05095	0.00211
0.00149	0.04764	0.0021
0.00208	0.04558	0.00209
0.00263	0.04418	0.00209
0.00313	0.043	0.00209
0.00354	0.04208	0.00208
0.00392	0.04148	0.00207
0.00455	0.04095	0.00207
0.00489	0.0405	0.00206
0.00556	0.04048	0.00206
0.0062	0.04051	0.00206
0.00714	0.04045	0.00206
0.00804	0.0405	0.00206

System: sodium taurocholate + sodium chloride + water; phases: Liquid, Air at 1 atmosphere
Fixed: Temperature, K = 298.15
Fixed: Solvent: Molality, mol/kg of sodium chloride = 0.1
Property: Surface tension liquid-gas, N/m (Liquid); method: Ring tensiometer
Molality, mol/kg of sodium taurocholate	Surface tension liquid-gas, N/m	uncertainty
0.00015	0.05643	0.00217
0.00028	0.05412	0.00216
0.00047	0.05223	0.00215
0.00074	0.05062	0.00214
0.00108	0.04915	0.00213
0.0015	0.04801	0.00213
0.00225	0.04643	0.00212
0.00391	0.04515	0.00211
0.00522	0.04521	0.00211
0.00707	0.04521	0.00211
0.00921	0.04523	0.00211

System: sodium taurocholate + urea + water; phases: Liquid, Air at 1 atmosphere
Fixed: Temperature, K = 298.15
Fixed: Solvent: Molality, mol/kg of urea = 0.25
Property: Surface tension liquid-gas, N/m (Liquid); method: Ring tensiometer
Molality, mol/kg of sodium taurocholate	Surface tension liquid-gas, N/m	uncertainty
0.0004	0.0604	0.00219
0.0008	0.05687	0.00218
0.00108	0.05522	0.00217
0.00164	0.05316	0.00216
0.00269	0.05064	0.00215
0.00395	0.04886	0.00213
0.00598	0.04729	0.00212
0.00741	0.04733	0.00212
0.00909	0.0473	0.00212
0.01071	0.04733	0.00212
