Measured thermophysical data. Thermodynamics of (1-alkanol + linear monoether) systems
Source: J. Chem. Thermodyn., 2008, 10.1016/j.jct.2008.06.001
Compound 1: heptan-1-ol, C7H16O, InChI=1S/C7H16O/c1-2-3-4-5-6-7-8/h8H,2-7H2,1H3
Compound 2: octan-1-ol, C8H18O, InChI=1S/C8H18O/c1-2-3-4-5-6-7-8-9/h9H,2-8H2,1H3
Compound 3: decan-1-ol, C10H22O, InChI=1S/C10H22O/c1-2-3-4-5-6-7-8-9-10-11/h11H,2-10H2,1H3
Compound 4: dibutyl ether, C8H18O, InChI=1S/C8H18O/c1-3-5-7-9-8-6-4-2/h3-8H2,1-2H3

System: heptan-1-ol; phases: Liquid
Fixed: Pressure, kPa = 101.325
Property: Speed of sound, m/s (Liquid); method: Sing-around technique in a fixed-path interferometer
Temperature, K	Speed of sound, m/s	uncertainty
293.15	1344.05	1.21
298.15	1326.73	1.2
303.15	1309.93	1.2

System: heptan-1-ol; phases: Liquid
Fixed: Pressure, kPa = 101.325
Property: Mass density, kg/m3 (Liquid); method: VIBTUB:UFactor:4
Temperature, K	Mass density, kg/m3	uncertainty
293.15	822.398	0.541
298.15	818.894	0.546
303.15	815.357	0.55

System: octan-1-ol; phases: Liquid
Fixed: Pressure, kPa = 101.325
Property: Speed of sound, m/s (Liquid); method: Sing-around technique in a fixed-path interferometer
Temperature, K	Speed of sound, m/s	uncertainty
293.15	1364.29	1.21
298.15	1347.08	1.21
303.15	1330.2	1.21

System: octan-1-ol; phases: Liquid
Fixed: Pressure, kPa = 101.325
Property: Mass density, kg/m3 (Liquid); method: VIBTUB:UFactor:4
Temperature, K	Mass density, kg/m3	uncertainty
293.15	825.183	0.537
298.15	821.732	0.542
303.15	818.248	0.547

System: decan-1-ol; phases: Liquid
Fixed: Pressure, kPa = 101.325
Property: Speed of sound, m/s (Liquid); method: Sing-around technique in a fixed-path interferometer
Temperature, K	Speed of sound, m/s	uncertainty
293.15	1396.16	1.22
298.15	1378.9	1.22
303.15	1361.69	1.21

System: decan-1-ol; phases: Liquid
Fixed: Pressure, kPa = 101.325
Property: Mass density, kg/m3 (Liquid); method: VIBTUB:UFactor:4
Temperature, K	Mass density, kg/m3	uncertainty
293.15	829.601	0.532
298.15	826.198	0.536
303.15	822.767	0.541

System: dibutyl ether; phases: Liquid
Fixed: Pressure, kPa = 101.325
Property: Speed of sound, m/s (Liquid); method: Sing-around technique in a fixed-path interferometer
Temperature, K	Speed of sound, m/s	uncertainty
293.15	1181.82	0.8
298.15	1161.19	0.79
303.15	1142.07	0.78

System: dibutyl ether; phases: Liquid
Fixed: Pressure, kPa = 101.325
Property: Mass density, kg/m3 (Liquid); method: VIBTUB:UFactor:4
Temperature, K	Mass density, kg/m3	uncertainty
293.15	768.468	0.522
298.15	764.17	0.529
303.15	759.829	0.536

System: heptan-1-ol + dibutyl ether; phases: Liquid
Fixed: Pressure, kPa = 101
Property: Speed of sound, m/s (Liquid); method: Sing-around technique in a fixed-path interferometer
Temperature, K	Mole fraction of heptan-1-ol	Speed of sound, m/s	uncertainty
293.15	0.1017	-2.159	0.603
293.15	0.1519	-4.02	0.626
293.15	0.1998	-5.658	0.648
293.15	0.2503	-7.073	0.671
293.15	0.3495	-9.241	0.717
293.15	0.4019	-10.074	0.742
293.15	0.4529	-10.442	0.766
293.15	0.5013	-10.632	0.789
293.15	0.548	-10.596	0.811
293.15	0.6032	-10.228	0.838
293.15	0.6486	-9.677	0.859
293.15	0.7001	-8.824	0.884
293.15	0.7515	-7.639	0.909
293.15	0.7771	-7.252	0.921
293.15	0.8009	-6.633	0.933
293.15	0.8982	-3.736	0.98
293.15	0.947	-2.067	1.004
298.15	0.0513	-0.478	0.58
298.15	0.0991	-1.958	0.602
298.15	0.1526	-3.868	0.626
298.15	0.2019	-5.576	0.649
298.15	0.2506	-7.029	0.671
298.15	0.3033	-8.33	0.696
298.15	0.3498	-9.266	0.717
298.15	0.4	-9.902	0.741
298.15	0.4523	-10.42	0.766
298.15	0.4995	-10.677	0.788
298.15	0.5491	-10.596	0.812
298.15	0.6026	-10.255	0.837
298.15	0.6503	-9.73	0.86
298.15	0.6985	-8.94	0.883
298.15	0.7533	-7.891	0.91
298.15	0.8005	-6.684	0.933
298.15	0.8485	-5.293	0.956
298.15	0.8994	-3.694	0.981
298.15	0.9439	-2.099	1.002
303.15	0.0548	-0.595	0.581
303.15	0.1037	-2.062	0.604
303.15	0.1537	-3.856	0.626
303.15	0.2034	-5.502	0.649
303.15	0.2496	-6.866	0.671
303.15	0.3003	-8.08	0.694
303.15	0.3482	-9.125	0.717
303.15	0.3977	-9.732	0.74
303.15	0.4501	-10.24	0.765
303.15	0.4938	-10.513	0.785
303.15	0.5487	-10.574	0.812
303.15	0.6009	-10.297	0.836
303.15	0.6508	-9.633	0.86
303.15	0.6994	-8.911	0.884
303.15	0.7519	-7.894	0.909
303.15	0.8005	-6.667	0.933
303.15	0.851	-5.223	0.957
303.15	0.8994	-3.624	0.981
303.15	0.946	-2.021	1.003

System: heptan-1-ol + dibutyl ether; phases: Liquid
Fixed: Pressure, kPa = 101
Property: Mass density, kg/m3 (Liquid); method: VIBTUB:UFactor:4
Temperature, K	Mole fraction of heptan-1-ol	Mass density, kg/m3	uncertainty
293.15	0.1017	773.953	0.514
293.15	0.1519	776.565	0.513
293.15	0.1998	779.042	0.513
293.15	0.2503	781.671	0.513
293.15	0.3495	786.842	0.513
293.15	0.4019	789.598	0.514
293.15	0.4529	792.309	0.514
293.15	0.5013	794.907	0.515
293.15	0.548	797.412	0.516
293.15	0.6032	800.39	0.518
293.15	0.6486	802.884	0.519
293.15	0.7001	805.686	0.521
293.15	0.7515	808.582	0.523
293.15	0.7771	809.94	0.524
293.15	0.8009	811.278	0.525
293.15	0.8982	816.689	0.53
293.15	0.947	819.42	0.532
298.15	0.0513	767.002	0.521
298.15	0.0991	769.571	0.52
298.15	0.1526	772.412	0.519
298.15	0.2019	775.005	0.519
298.15	0.2506	777.565	0.519
298.15	0.3033	780.366	0.519
298.15	0.3498	782.806	0.519
298.15	0.4	785.5	0.519
298.15	0.4523	788.317	0.52
298.15	0.4995	790.883	0.521
298.15	0.5491	793.589	0.522
298.15	0.6026	796.53	0.523
298.15	0.6503	799.167	0.524
298.15	0.6985	801.859	0.526
298.15	0.7533	804.902	0.528
298.15	0.8005	807.562	0.53
298.15	0.8485	810.291	0.532
298.15	0.8994	813.176	0.534
298.15	0.9439	815.703	0.537
303.15	0.0548	762.859	0.527
303.15	0.1037	765.526	0.526
303.15	0.1537	768.203	0.526
303.15	0.2034	770.861	0.525
303.15	0.2496	773.336	0.525
303.15	0.3003	776.062	0.525
303.15	0.3482	778.634	0.525
303.15	0.3977	781.333	0.525
303.15	0.4501	784.185	0.526
303.15	0.4938	786.627	0.526
303.15	0.5487	789.635	0.527
303.15	0.6009	792.536	0.528
303.15	0.6508	795.355	0.529
303.15	0.6994	798.099	0.531
303.15	0.7519	801.07	0.533
303.15	0.8005	803.865	0.534
303.15	0.851	806.755	0.537
303.15	0.8994	809.543	0.539
303.15	0.946	812.239	0.541

System: octan-1-ol + dibutyl ether; phases: Liquid
Fixed: Pressure, kPa = 101
Property: Speed of sound, m/s (Liquid); method: Sing-around technique in a fixed-path interferometer
Temperature, K	Mole fraction of octan-1-ol	Speed of sound, m/s	uncertainty
293.15	0.1021	-1.183	0.603
293.15	0.1491	-2.547	0.624
293.15	0.1997	-3.844	0.648
293.15	0.2473	-4.959	0.67
293.15	0.2979	-5.89	0.693
293.15	0.3497	-6.766	0.717
293.15	0.4017	-7.201	0.742
293.15	0.4493	-7.483	0.764
293.15	0.4972	-7.53	0.787
293.15	0.5504	-7.511	0.813
293.15	0.6001	-7.242	0.836
293.15	0.6455	-6.797	0.858
293.15	0.6985	-6.166	0.884
293.15	0.7484	-5.373	0.908
293.15	0.7994	-4.547	0.932
293.15	0.8484	-3.562	0.956
293.15	0.9004	-2.407	0.981
293.15	0.949	-1.295	1.005
298.15	0.0511	0.174	0.58
298.15	0.1005	-0.992	0.602
298.15	0.1486	-2.252	0.624
298.15	0.1998	-3.651	0.648
298.15	0.2458	-4.719	0.669
298.15	0.2978	-5.771	0.693
298.15	0.3497	-6.472	0.717
298.15	0.4009	-6.963	0.742
298.15	0.4475	-7.264	0.764
298.15	0.4956	-7.429	0.786
298.15	0.5441	-7.323	0.81
298.15	0.603	-7.096	0.838
298.15	0.6477	-6.627	0.859
298.15	0.6984	-6.148	0.883
298.15	0.7506	-5.292	0.909
298.15	0.7997	-4.443	0.932
298.15	0.8461	-3.564	0.955
298.15	0.8994	-2.426	0.981
298.15	0.9503	-1.241	1.005
303.15	0.0491	0.126	0.579
303.15	0.1041	-0.94	0.604
303.15	0.1506	-2.147	0.625
303.15	0.1996	-3.41	0.648
303.15	0.2461	-4.505	0.669
303.15	0.2978	-5.454	0.693
303.15	0.3507	-6.233	0.718
303.15	0.4139	-6.765	0.748
303.15	0.4496	-6.999	0.765
303.15	0.5145	-7.258	0.795
303.15	0.5478	-7.115	0.811
303.15	0.5967	-6.843	0.835
303.15	0.6501	-6.383	0.86
303.15	0.6989	-5.942	0.884
303.15	0.7495	-5.225	0.908
303.15	0.7992	-4.32	0.932
303.15	0.8481	-3.312	0.956
303.15	0.8984	-2.337	0.98
303.15	0.9488	-1.169	1.005

System: octan-1-ol + dibutyl ether; phases: Liquid
Fixed: Pressure, kPa = 101
Property: Mass density, kg/m3 (Liquid); method: VIBTUB:UFactor:4
Temperature, K	Mole fraction of octan-1-ol	Mass density, kg/m3	uncertainty
293.15	0.1021	774.774	0.512
293.15	0.1491	777.553	0.512
293.15	0.1997	780.513	0.511
293.15	0.2473	783.26	0.51
293.15	0.2979	786.177	0.51
293.15	0.3497	789.095	0.51
293.15	0.4017	792.053	0.51
293.15	0.4493	794.746	0.511
293.15	0.4972	797.47	0.511
293.15	0.5504	800.439	0.512
293.15	0.6001	803.218	0.513
293.15	0.6455	805.774	0.515
293.15	0.6985	808.712	0.517
293.15	0.7484	811.495	0.518
293.15	0.7994	814.29	0.521
293.15	0.8484	816.969	0.523
293.15	0.9004	819.813	0.526
293.15	0.949	822.438	0.529
298.15	0.0511	767.422	0.52
298.15	0.1005	770.448	0.519
298.15	0.1486	773.364	0.518
298.15	0.1998	776.391	0.517
298.15	0.2458	779.081	0.516
298.15	0.2978	782.1	0.516
298.15	0.3497	785.119	0.516
298.15	0.4009	788.072	0.516
298.15	0.4475	790.743	0.516
298.15	0.4956	793.501	0.517
298.15	0.5441	796.3	0.517
298.15	0.603	799.619	0.519
298.15	0.6477	802.183	0.52
298.15	0.6984	805.007	0.521
298.15	0.7506	807.961	0.523
298.15	0.7997	810.704	0.525
298.15	0.8461	813.276	0.528
298.15	0.8994	816.228	0.53
298.15	0.9503	819.023	0.533
303.15	0.0491	762.975	0.527
303.15	0.1041	766.404	0.525
303.15	0.1506	769.248	0.524
303.15	0.1996	772.204	0.523
303.15	0.2461	774.957	0.522
303.15	0.2978	778.044	0.522
303.15	0.3507	781.141	0.521
303.15	0.4139	784.859	0.521
303.15	0.4496	786.924	0.522
303.15	0.5145	790.697	0.522
303.15	0.5478	792.645	0.523
303.15	0.5967	795.447	0.524
303.15	0.6501	798.548	0.525
303.15	0.6989	801.324	0.526
303.15	0.7495	804.196	0.528
303.15	0.7992	807.033	0.53
303.15	0.8481	809.788	0.532
303.15	0.8984	812.611	0.535
303.15	0.9488	815.417	0.538

System: decan-1-ol + dibutyl ether; phases: Liquid
Fixed: Pressure, kPa = 101
Property: Speed of sound, m/s (Liquid); method: Sing-around technique in a fixed-path interferometer
Temperature, K	Mole fraction of decan-1-ol	Speed of sound, m/s	uncertainty
293.15	0.1021	1.655	0.603
293.15	0.1496	1.357	0.625
293.15	0.1993	1.039	0.648
293.15	0.25	0.687	0.671
293.15	0.2996	0.445	0.694
293.15	0.3412	0.325	0.714
293.15	0.3978	0.281	0.741
293.15	0.4468	0.15	0.764
293.15	0.4978	0.236	0.788
293.15	0.5495	0.319	0.813
293.15	0.6009	0.303	0.837
293.15	0.65	0.358	0.861
293.15	0.6993	0.331	0.884
293.15	0.7464	0.362	0.907
293.15	0.7946	0.428	0.93
293.15	0.8488	0.349	0.956
293.15	0.9004	0.303	0.981
293.15	0.95	0.161	1.005
298.15	0.0516	1.622	0.58
298.15	0.1006	1.893	0.603
298.15	0.1498	1.707	0.625
298.15	0.2012	1.366	0.649
298.15	0.2522	1.099	0.672
298.15	0.2996	0.868	0.695
298.15	0.35	0.728	0.718
298.15	0.3994	0.6	0.741
298.15	0.4479	0.635	0.764
298.15	0.4981	0.596	0.788
298.15	0.5512	0.609	0.813
298.15	0.5993	0.625	0.836
298.15	0.6492	0.632	0.86
298.15	0.6995	0.701	0.884
298.15	0.7501	0.728	0.909
298.15	0.7981	0.611	0.932
298.15	0.8498	0.468	0.957
298.15	0.9001	0.46	0.981
298.15	0.9498	0.2	1.005
303.15	0.0509	1.712	0.58
303.15	0.1009	2.154	0.603
303.15	0.1503	1.973	0.625
303.15	0.1994	1.777	0.648
303.15	0.25	1.664	0.671
303.15	0.2996	1.339	0.695
303.15	0.3498	1.16	0.718
303.15	0.3992	1.127	0.741
303.15	0.4451	1.2	0.763
303.15	0.4944	1.014	0.786
303.15	0.5509	1.031	0.813
303.15	0.5921	1.127	0.833
303.15	0.6514	1.104	0.861
303.15	0.6896	1.244	0.88
303.15	0.7493	0.97	0.908
303.15	0.7963	0.91	0.931
303.15	0.8475	0.816	0.956
303.15	0.899	0.548	0.981
303.15	0.9474	0.357	1.004

System: decan-1-ol + dibutyl ether; phases: Liquid
Fixed: Pressure, kPa = 101
Property: Mass density, kg/m3 (Liquid); method: VIBTUB:UFactor:4
Temperature, K	Mole fraction of decan-1-ol	Mass density, kg/m3	uncertainty
293.15	0.1021	776.363	0.51
293.15	0.1496	779.787	0.508
293.15	0.1993	783.289	0.507
293.15	0.25	786.71	0.506
293.15	0.2996	789.984	0.505
293.15	0.3412	792.683	0.504
293.15	0.3978	796.258	0.504
293.15	0.4468	799.27	0.504
293.15	0.4978	802.397	0.505
293.15	0.5495	805.461	0.505
293.15	0.6009	808.42	0.506
293.15	0.65	811.195	0.508
293.15	0.6993	813.929	0.51
293.15	0.7464	816.506	0.512
293.15	0.7946	819.104	0.514
293.15	0.8488	821.951	0.517
293.15	0.9004	824.616	0.52
293.15	0.95	827.118	0.523
298.15	0.0516	768.307	0.519
298.15	0.1006	772.051	0.516
298.15	0.1498	775.68	0.514
298.15	0.2012	779.315	0.513
298.15	0.2522	782.834	0.511
298.15	0.2996	786.011	0.51
298.15	0.35	789.331	0.51
298.15	0.3994	792.479	0.509
298.15	0.4479	795.536	0.509
298.15	0.4981	798.656	0.51
298.15	0.5512	801.843	0.51
298.15	0.5993	804.66	0.511
298.15	0.6492	807.539	0.513
298.15	0.6995	810.378	0.514
298.15	0.7501	813.185	0.516
298.15	0.7981	815.763	0.519
298.15	0.8498	818.511	0.521
298.15	0.9001	821.147	0.524
298.15	0.9498	823.681	0.527
303.15	0.0509	763.957	0.525
303.15	0.1009	767.841	0.523
303.15	0.1503	771.536	0.521
303.15	0.1994	775.085	0.519
303.15	0.25	778.691	0.517
303.15	0.2996	782.028	0.516
303.15	0.3498	785.36	0.515
303.15	0.3992	788.589	0.515
303.15	0.4451	791.54	0.515
303.15	0.4944	794.601	0.515
303.15	0.5509	798.05	0.516
303.15	0.5921	800.526	0.516
303.15	0.6514	803.989	0.518
303.15	0.6896	806.226	0.519
303.15	0.7493	809.528	0.521
303.15	0.7963	812.111	0.523
303.15	0.8475	814.866	0.526
303.15	0.899	817.595	0.529
303.15	0.9474	820.099	0.532
