Measured thermophysical data. Effect of temperature on mixing thermodynamics of a new ionic liquid: {2-Hydroxy ethylammonium formate (2-HEAF) + short hydroxylic solvents}
Source: J. Chem. Thermodyn., 2008, 10.1016/j.jct.2007.05.011
Compound 1: water, H2O, InChI=1S/H2O/h1H2
Compound 2: 2-hydroxyethylammonium formate, C3H9NO3, InChI=1S/C2H7NO.CH2O2/c3-1-2-4;2-1-3/h4H,1-3H2;1H,(H,2,3)
Compound 3: methanol, CH4O, InChI=1S/CH4O/c1-2/h2H,1H3, purity 99.5%
Compound 4: ethanol, C2H6O, InChI=1S/C2H6O/c1-2-3/h3H,2H2,1H3, purity 99.5%

System: 2-hydroxyethylammonium formate; phases: Liquid
Fixed: Pressure, kPa = 101
Property: Speed of sound, m/s (Liquid); method: FPINT:UFactor:8
Temperature, K	Speed of sound, m/s	uncertainty
288.15	1733.91	9.9
290.65	1727.43	9.87
293.15	1721.27	9.85
295.65	1715.13	9.83
298.15	1709	9.81
300.65	1702.9	9.79
303.15	1696.81	9.77
305.65	1690.79	9.75
308.15	1684.76	9.73
310.65	1678.74	9.71
313.15	1672.72	9.68
315.65	1666.74	9.66
318.15	1660.78	9.64
320.65	1654.81	9.62
323.15	1648.9	9.6

System: 2-hydroxyethylammonium formate; phases: Liquid
Fixed: Pressure, kPa = 101
Property: Mass density, kg/m3 (Liquid); method: Vibrating tube method
Temperature, K	Mass density, kg/m3	uncertainty
288.15	1183.574	30.795
290.65	1181.809	30.791
293.15	1180.037	30.786
295.65	1178.265	30.781
298.15	1176.489	30.776
300.65	1174.714	30.772
303.15	1172.937	30.767
305.65	1171.165	30.762
308.15	1169.391	30.758
310.65	1167.617	30.753
313.15	1165.839	30.749
315.65	1164.062	30.744
318.15	1162.286	30.739
320.65	1160.509	30.735
323.15	1158.734	30.73

System: methanol; phases: Liquid
Fixed: Pressure, kPa = 101
Property: Speed of sound, m/s (Liquid); method: FPINT:UFactor:8
Temperature, K	Speed of sound, m/s	uncertainty
288.15	1134.45	6.17
290.65	1126.2	6.13
293.15	1117.95	6.1
295.65	1109.77	6.07
298.15	1101.58	6.04
300.65	1093.44	6
303.15	1085.45	5.97
305.65	1077.33	5.94
308.15	1069.19	5.91
310.65	1061.07	5.87
313.15	1052.93	5.84
315.65	1044.9	5.81
318.15	1036.74	5.78
320.65	1028.6	5.75
323.15	1020.46	5.71

System: methanol; phases: Liquid
Fixed: Pressure, kPa = 101
Property: Mass density, kg/m3 (Liquid); method: Vibrating tube method
Temperature, K	Mass density, kg/m3	uncertainty
288.15	795.775	30
290.65	793.495	30
293.15	791.149	30
295.65	788.811	30
298.15	786.463	30
300.65	784.102	30
303.15	781.764	30
305.65	779.385	30
308.15	777.026	30
310.65	774.659	30
313.15	772.261	30
315.65	769.86	30
318.15	767.541	30
320.65	765.074	30
323.15	762.738	30

System: ethanol; phases: Liquid
Fixed: Pressure, kPa = 101
Property: Speed of sound, m/s (Liquid); method: FPINT:UFactor:8
Temperature, K	Speed of sound, m/s	uncertainty
288.15	1178.19	6.34
290.65	1169.12	6.31
293.15	1160.34	6.27
295.65	1151.65	6.24
298.15	1143.12	6.2
300.65	1134.62	6.17
303.15	1126.23	6.13
305.65	1117.77	6.1
308.15	1109.4	6.07
310.65	1101	6.03
313.15	1092.7	6
315.65	1084.34	5.97
318.15	1075.9	5.93
320.65	1067.46	5.9
323.15	1058.83	5.87

System: ethanol; phases: Liquid
Fixed: Pressure, kPa = 101
Property: Mass density, kg/m3 (Liquid); method: Vibrating tube method
Temperature, K	Mass density, kg/m3	uncertainty
288.15	794.444	30
290.65	792.305	30
293.15	790.158	30
295.65	788.027	30
298.15	785.89	30
300.65	783.729	30
303.15	781.591	30
305.65	779.402	30
308.15	777.238	30
310.65	775.055	30
313.15	772.846	30
315.65	770.625	30
318.15	768.482	30
320.65	766.198	30
323.15	764.019	30

System: water + 2-hydroxyethylammonium formate; phases: Liquid
Fixed: Pressure, kPa = 101
Property: Speed of sound, m/s (Liquid); method: FPINT:UFactor:8
Temperature, K	Mole fraction of water	Speed of sound, m/s	uncertainty
288.15	0	1733.91	9.9
288.15	0.047	1759.21	9.87
288.15	0.108	1760.32	9.74
288.15	0.199	1761.37	9.55
288.15	0.311	1761.44	9.33
288.15	0.4	1759.66	9.17
288.15	0.492	1757.1	9.02
288.15	0.601	1749.87	8.86
288.15	0.699	1739.29	8.71
288.15	0.8	1710.84	8.53
288.15	0.9	1644.66	8.23
288.15	0.95	1578.91	7.96
288.15	1	1466.4	7.48
290.65	0	1727.43	9.87
290.65	0.047	1754.03	9.85
290.65	0.108	1755.46	9.72
290.65	0.199	1756.4	9.53
290.65	0.311	1756.69	9.31
290.65	0.4	1755.14	9.16
290.65	0.492	1752.87	9.01
290.65	0.601	1746.3	8.84
290.65	0.699	1736.3	8.7
290.65	0.8	1709.18	8.52
290.65	0.9	1645.84	8.21
290.65	0.95	1582.27	7.94
290.65	1	1474.69	7.51
293.15	0	1721.27	9.85
293.15	0.047	1748.9	9.83
293.15	0.108	1750.49	9.7
293.15	0.199	1751.44	9.51
293.15	0.311	1751.96	9.3
293.15	0.4	1750.63	9.14
293.15	0.492	1748.65	8.99
293.15	0.601	1742.6	8.83
293.15	0.699	1733.27	8.69
293.15	0.8	1707.45	8.51
293.15	0.9	1646.81	8.22
293.15	0.95	1585.59	7.96
293.15	1	1482.53	7.54
295.65	0	1715.13	9.83
295.65	0.047	1743.78	9.82
295.65	0.108	1745.42	9.68
295.65	0.199	1746.5	9.49
295.65	0.311	1747.23	9.28
295.65	0.4	1746.11	9.12
295.65	0.492	1744.41	8.98
295.65	0.601	1738.86	8.81
295.65	0.699	1730.2	8.68
295.65	0.8	1705.64	8.5
295.65	0.9	1647.62	8.22
295.65	0.95	1588.76	7.97
295.65	1	1489.93	7.57
298.15	0	1709	9.81
298.15	0.047	1738.69	9.8
298.15	0.108	1740.36	9.67
298.15	0.199	1741.57	9.48
298.15	0.311	1742.5	9.26
298.15	0.4	1741.59	9.11
298.15	0.492	1740.18	8.96
298.15	0.601	1735.06	8.8
298.15	0.699	1727.09	8.67
298.15	0.8	1703.74	8.5
298.15	0.9	1648.26	8.22
298.15	0.95	1591.69	7.98
298.15	1	1496.89	7.59
300.65	0	1702.9	9.79
300.65	0.047	1733.61	9.78
300.65	0.108	1735.32	9.65
300.65	0.199	1736.65	9.46
300.65	0.311	1737.78	9.24
300.65	0.4	1737.08	9.09
300.65	0.492	1735.92	8.94
300.65	0.601	1731.25	8.78
300.65	0.699	1723.92	8.65
300.65	0.8	1701.76	8.49
300.65	0.9	1648.7	8.22
300.65	0.95	1594.37	7.99
300.65	1	1503.41	7.62
303.15	0	1696.81	9.77
303.15	0.047	1728.54	9.76
303.15	0.108	1730.28	9.63
303.15	0.199	1731.75	9.44
303.15	0.311	1733.06	9.23
303.15	0.4	1732.56	9.07
303.15	0.492	1731.63	8.93
303.15	0.601	1727.39	8.77
303.15	0.699	1720.69	8.64
303.15	0.8	1699.67	8.48
303.15	0.9	1648.96	8.22
303.15	0.95	1596.78	8
303.15	1	1509.48	7.64
305.65	0	1690.79	9.75
305.65	0.047	1723.47	9.75
305.65	0.108	1725.24	9.61
305.65	0.199	1726.84	9.42
305.65	0.311	1728.33	9.21
305.65	0.4	1728.03	9.05
305.65	0.492	1727.35	8.91
305.65	0.601	1723.51	8.75
305.65	0.699	1717.4	8.63
305.65	0.8	1697.49	8.47
305.65	0.9	1649.03	8.22
305.65	0.95	1598.91	8.01
305.65	1	1515.11	7.67
308.15	0	1684.76	9.73
308.15	0.047	1718.42	9.73
308.15	0.108	1720.2	9.59
308.15	0.199	1721.94	9.4
308.15	0.311	1723.61	9.19
308.15	0.4	1723.49	9.04
308.15	0.492	1723.04	8.89
308.15	0.601	1719.59	8.74
308.15	0.699	1714.06	8.62
308.15	0.8	1695.22	8.46
308.15	0.9	1648.92	8.22
308.15	0.95	1600.79	8.02
308.15	1	1520.3	7.69
310.65	0	1678.74	9.71
310.65	0.047	1713.38	9.71
310.65	0.108	1715.2	9.58
310.65	0.199	1717.06	9.39
310.65	0.311	1718.91	9.17
310.65	0.4	1718.91	9.02
310.65	0.492	1718.71	8.88
310.65	0.601	1715.63	8.72
310.65	0.699	1710.68	8.6
310.65	0.8	1692.85	8.45
310.65	0.9	1648.63	8.22
310.65	0.95	1602.41	8.02
310.65	1	1525.04	7.7
313.15	0	1672.72	9.68
313.15	0.047	1708.34	9.69
313.15	0.108	1710.18	9.56
313.15	0.199	1712.14	9.37
313.15	0.311	1714.14	9.16
313.15	0.4	1714.36	9
313.15	0.492	1714.35	8.86
313.15	0.601	1711.65	8.71
313.15	0.699	1707.21	8.59
313.15	0.8	1690.37	8.44
313.15	0.9	1648.18	8.22
313.15	0.95	1603.77	8.03
313.15	1	1529.34	7.72
315.65	0	1666.74	9.66
315.65	0.047	1703.32	9.68
315.65	0.108	1705.19	9.54
315.65	0.199	1707.24	9.35
315.65	0.311	1709.4	9.14
315.65	0.4	1709.77	8.99
315.65	0.492	1709.97	8.84
315.65	0.601	1707.63	8.69
315.65	0.699	1703.7	8.58
315.65	0.8	1687.8	8.43
315.65	0.9	1647.53	8.22
315.65	0.95	1604.89	8.03
315.65	1	1533.2	7.74
318.15	0	1660.78	9.64
318.15	0.047	1698.32	9.66
318.15	0.108	1700.24	9.52
318.15	0.199	1702.38	9.33
318.15	0.311	1704.68	9.12
318.15	0.4	1705.18	8.97
318.15	0.492	1705.59	8.83
318.15	0.601	1703.59	8.68
318.15	0.699	1700.16	8.56
318.15	0.8	1685.14	8.42
318.15	0.9	1646.72	8.22
318.15	0.95	1605.77	8.04
318.15	1	1536.62	7.75
320.65	0	1654.81	9.62
320.65	0.047	1693.33	9.64
320.65	0.108	1695.32	9.51
320.65	0.199	1697.5	9.32
320.65	0.311	1699.94	9.1
320.65	0.4	1700.57	8.95
320.65	0.492	1701.18	8.81
320.65	0.601	1699.51	8.66
320.65	0.699	1696.52	8.55
320.65	0.8	1682.36	8.41
320.65	0.9	1645.74	8.21
320.65	0.95	1606.4	8.04
320.65	1	1539.6	7.76
323.15	0	1648.9	9.6
323.15	0.047	1688.38	9.65
323.15	0.108	1690.46	9.49
323.15	0.199	1692.69	9.3
323.15	0.311	1695.23	9.09
323.15	0.4	1695.98	8.93
323.15	0.492	1696.75	8.79
323.15	0.601	1695.4	8.65
323.15	0.699	1692.84	8.54
323.15	0.8	1679.48	8.41
323.15	0.9	1644.57	8.22
323.15	0.95	1606.82	8.05
323.15	1	1542.13	7.77

System: water + 2-hydroxyethylammonium formate; phases: Liquid
Fixed: Pressure, kPa = 101
Property: Mass density, kg/m3 (Liquid); method: Vibrating tube method
Temperature, K	Mole fraction of water	Mass density, kg/m3	uncertainty
288.15	0	1183.574	30.795
288.15	0.047	1182.889	30.657
288.15	0.108	1181.452	30.505
288.15	0.199	1178.553	30.329
288.15	0.311	1173.679	30.182
288.15	0.4	1168.783	30.106
288.15	0.492	1162.23	30.056
288.15	0.601	1151.556	30.023
288.15	0.699	1137.387	30.009
288.15	0.8	1114.925	30.002
288.15	0.9	1076.215	30
288.15	0.95	1045.029	30
288.15	1	999.1	30
290.65	0	1181.809	30.791
290.65	0.047	1181.243	30.653
290.65	0.108	1179.793	30.502
290.65	0.199	1176.92	30.327
290.65	0.311	1172.05	30.181
290.65	0.4	1167.17	30.106
290.65	0.492	1160.633	30.056
290.65	0.601	1149.991	30.023
290.65	0.699	1135.871	30.009
290.65	0.8	1113.518	30.002
290.65	0.9	1075.064	30
290.65	0.95	1044.13	30
290.65	1	998.68	30
293.15	0	1180.037	30.786
293.15	0.047	1179.6	30.649
293.15	0.108	1178.134	30.499
293.15	0.199	1175.288	30.325
293.15	0.311	1170.427	30.18
293.15	0.4	1165.553	30.105
293.15	0.492	1159.035	30.056
293.15	0.601	1148.423	30.023
293.15	0.699	1134.353	30.009
293.15	0.8	1112.101	30.002
293.15	0.9	1073.889	30
293.15	0.95	1043.204	30
293.15	1	998.2	30
295.65	0	1178.265	30.781
295.65	0.047	1177.953	30.646
295.65	0.108	1176.522	30.496
295.65	0.199	1173.652	30.323
295.65	0.311	1168.802	30.179
295.65	0.4	1163.94	30.104
295.65	0.492	1157.437	30.055
295.65	0.601	1146.85	30.023
295.65	0.699	1132.828	30.008
295.65	0.8	1110.673	30.002
295.65	0.9	1072.696	30
295.65	0.95	1042.255	30
295.65	1	997.65	30
298.15	0	1176.489	30.776
298.15	0.047	1176.31	30.642
298.15	0.108	1174.913	30.493
298.15	0.199	1172.021	30.322
298.15	0.311	1167.178	30.178
298.15	0.4	1162.323	30.104
298.15	0.492	1155.834	30.055
298.15	0.601	1145.277	30.023
298.15	0.699	1131.3	30.008
298.15	0.8	1109.235	30.002
298.15	0.9	1071.481	30
298.15	0.95	1041.278	30
298.15	1	997.04	30
300.65	0	1174.714	30.772
300.65	0.047	1174.667	30.639
300.65	0.108	1173.292	30.491
300.65	0.199	1170.388	30.32
300.65	0.311	1165.552	30.177
300.65	0.4	1160.705	30.103
300.65	0.492	1154.228	30.055
300.65	0.601	1143.698	30.022
300.65	0.699	1129.765	30.008
300.65	0.8	1107.788	30.002
300.65	0.9	1070.241	30
300.65	0.95	1040.272	30
300.65	1	996.37	30
303.15	0	1172.937	30.767
303.15	0.047	1173.024	30.635
303.15	0.108	1171.659	30.488
303.15	0.199	1168.755	30.318
303.15	0.311	1163.926	30.176
303.15	0.4	1159.087	30.103
303.15	0.492	1152.625	30.054
303.15	0.601	1142.116	30.022
303.15	0.699	1128.222	30.008
303.15	0.8	1106.329	30.002
303.15	0.9	1068.977	30
303.15	0.95	1039.217	30
303.15	1	995.65	30
305.65	0	1171.165	30.762
305.65	0.047	1171.383	30.631
305.65	0.108	1170.029	30.485
305.65	0.199	1167.122	30.316
305.65	0.311	1162.303	30.175
305.65	0.4	1157.469	30.102
305.65	0.492	1151.019	30.054
305.65	0.601	1140.53	30.022
305.65	0.699	1126.673	30.008
305.65	0.8	1104.859	30.002
305.65	0.9	1067.695	30
305.65	0.95	1038.123	30
305.65	1	994.86	30
308.15	0	1169.391	30.758
308.15	0.047	1169.741	30.628
308.15	0.108	1168.407	30.482
308.15	0.199	1165.489	30.314
308.15	0.311	1160.675	30.174
308.15	0.4	1155.845	30.101
308.15	0.492	1149.405	30.054
308.15	0.601	1138.937	30.022
308.15	0.699	1125.117	30.008
308.15	0.8	1103.378	30.002
308.15	0.9	1066.391	30
308.15	0.95	1036.994	30
308.15	1	994.03	30
310.65	0	1167.617	30.753
310.65	0.047	1168.099	30.624
310.65	0.108	1166.774	30.48
310.65	0.199	1163.857	30.313
310.65	0.311	1159.045	30.173
310.65	0.4	1154.225	30.101
310.65	0.492	1147.791	30.053
310.65	0.601	1137.34	30.022
310.65	0.699	1123.557	30.008
310.65	0.8	1101.884	30.002
310.65	0.9	1065.062	30
310.65	0.95	1035.834	30
310.65	1	993.15	30
313.15	0	1165.839	30.749
313.15	0.047	1166.461	30.621
313.15	0.108	1165.141	30.477
313.15	0.199	1162.225	30.311
313.15	0.311	1157.419	30.172
313.15	0.4	1152.599	30.1
313.15	0.492	1146.175	30.053
313.15	0.601	1135.741	30.022
313.15	0.699	1121.985	30.008
313.15	0.8	1100.377	30.002
313.15	0.9	1063.714	30
313.15	0.95	1034.643	30
313.15	1	992.21	30
315.65	0	1164.062	30.744
315.65	0.047	1164.821	30.617
315.65	0.108	1163.509	30.474
315.65	0.199	1160.593	30.309
315.65	0.311	1155.789	30.171
315.65	0.4	1150.972	30.1
315.65	0.492	1144.557	30.053
315.65	0.601	1134.132	30.022
315.65	0.699	1120.404	30.008
315.65	0.8	1098.857	30.002
315.65	0.9	1062.345	30
315.65	0.95	1033.421	30
315.65	1	991.24	30
318.15	0	1162.286	30.739
318.15	0.047	1163.184	30.614
318.15	0.108	1161.876	30.471
318.15	0.199	1158.965	30.307
318.15	0.311	1154.161	30.17
318.15	0.4	1149.341	30.099
318.15	0.492	1142.936	30.053
318.15	0.601	1132.522	30.021
318.15	0.699	1118.819	30.008
318.15	0.8	1097.33	30.002
318.15	0.9	1060.955	30
318.15	0.95	1032.169	30
318.15	1	990.21	30
320.65	0	1160.509	30.735
320.65	0.047	1161.553	30.61
320.65	0.108	1160.246	30.469
320.65	0.199	1157.336	30.305
320.65	0.311	1152.532	30.169
320.65	0.4	1147.7	30.098
320.65	0.492	1141.309	30.052
320.65	0.601	1130.905	30.021
320.65	0.699	1117.223	30.008
320.65	0.8	1095.784	30.002
320.65	0.9	1059.542	30
320.65	0.95	1030.888	30
320.65	1	989.15	30
323.15	0	1158.734	30.73
323.15	0.047	1159.937	30.607
323.15	0.108	1158.622	30.466
323.15	0.199	1155.722	30.304
323.15	0.311	1150.914	30.168
323.15	0.4	1146.05	30.098
323.15	0.492	1139.688	30.052
323.15	0.601	1129.286	30.021
323.15	0.699	1115.622	30.008
323.15	0.8	1094.233	30.002
323.15	0.9	1058.115	30.001
323.15	0.95	1029.58	30
323.15	1	988.04	30

System: methanol + 2-hydroxyethylammonium formate; phases: Liquid
Fixed: Pressure, kPa = 101
Property: Speed of sound, m/s (Liquid); method: FPINT:UFactor:8
Temperature, K	Mole fraction of methanol	Speed of sound, m/s	uncertainty
288.15	0	1733.91	9.9
288.15	0.055	1744.48	9.81
288.15	0.098	1733.2	9.68
288.15	0.193	1703.15	9.37
288.15	0.296	1666.15	9.04
288.15	0.399	1623.45	8.71
288.15	0.5	1573.59	8.36
288.15	0.598	1516.42	8.01
288.15	0.701	1448.4	7.62
288.15	0.799	1365.82	7.2
288.15	0.9	1265.21	6.73
288.15	0.951	1203.61	6.46
288.15	1	1134.45	6.17
290.65	0	1727.43	9.87
290.65	0.055	1739.2	9.79
290.65	0.098	1727.9	9.66
290.65	0.193	1697.74	9.36
290.65	0.296	1660.72	9.03
290.65	0.399	1617.76	8.69
290.65	0.5	1567.69	8.35
290.65	0.598	1510.33	7.99
290.65	0.701	1441.79	7.6
290.65	0.799	1358.79	7.18
290.65	0.9	1257.61	6.71
290.65	0.951	1195.64	6.43
290.65	1	1126.2	6.13
293.15	0	1721.27	9.85
293.15	0.055	1733.99	9.77
293.15	0.098	1722.61	9.64
293.15	0.193	1692.4	9.34
293.15	0.296	1655.3	9.01
293.15	0.399	1612.13	8.67
293.15	0.5	1561.85	8.32
293.15	0.598	1504.26	7.97
293.15	0.701	1435.28	7.58
293.15	0.799	1351.92	7.15
293.15	0.9	1250.16	6.68
293.15	0.951	1187.8	6.4
293.15	1	1117.95	6.1
295.65	0	1715.13	9.83
295.65	0.055	1728.77	9.75
295.65	0.098	1717.36	9.62
295.65	0.193	1687.05	9.32
295.65	0.296	1649.88	8.99
295.65	0.399	1606.51	8.65
295.65	0.5	1556.02	8.3
295.65	0.598	1498.18	7.94
295.65	0.701	1428.78	7.55
295.65	0.799	1345.08	7.13
295.65	0.9	1242.72	6.65
295.65	0.951	1179.96	6.37
295.65	1	1109.77	6.07
298.15	0	1709	9.81
298.15	0.055	1723.59	9.74
298.15	0.098	1712.11	9.6
298.15	0.193	1681.74	9.3
298.15	0.296	1644.46	8.97
298.15	0.399	1600.89	8.63
298.15	0.5	1550.19	8.28
298.15	0.598	1492.11	7.92
298.15	0.701	1422.32	7.53
298.15	0.799	1338.26	7.1
298.15	0.9	1235.3	6.62
298.15	0.951	1172.14	6.34
298.15	1	1101.58	6.04
300.65	0	1702.9	9.79
300.65	0.055	1718.41	9.72
300.65	0.098	1706.89	9.58
300.65	0.193	1676.42	9.28
300.65	0.296	1639.04	8.95
300.65	0.399	1595.29	8.61
300.65	0.5	1544.4	8.26
300.65	0.598	1486.06	7.9
300.65	0.701	1415.91	7.5
300.65	0.799	1331.49	7.07
300.65	0.9	1227.91	6.59
300.65	0.951	1164.38	6.31
300.65	1	1093.44	6
303.15	0	1696.81	9.77
303.15	0.055	1713.24	9.7
303.15	0.098	1701.68	9.57
303.15	0.193	1671.11	9.26
303.15	0.296	1633.6	8.93
303.15	0.399	1589.69	8.58
303.15	0.5	1538.62	8.24
303.15	0.598	1480.02	7.87
303.15	0.701	1409.53	7.48
303.15	0.799	1324.71	7.05
303.15	0.9	1220.57	6.56
303.15	0.951	1156.63	6.28
303.15	1	1085.45	5.97
305.65	0	1690.79	9.75
305.65	0.055	1708.08	9.68
305.65	0.098	1696.45	9.55
305.65	0.193	1665.82	9.24
305.65	0.296	1628.17	8.91
305.65	0.399	1584.11	8.56
305.65	0.5	1532.85	8.21
305.65	0.598	1474.01	7.85
305.65	0.701	1403.15	7.45
305.65	0.799	1317.97	7.02
305.65	0.9	1213.25	6.53
305.65	0.951	1148.92	6.25
305.65	1	1077.33	5.94
308.15	0	1684.76	9.73
308.15	0.055	1702.94	9.66
308.15	0.098	1691.3	9.53
308.15	0.193	1660.54	9.22
308.15	0.296	1622.77	8.89
308.15	0.399	1578.55	8.54
308.15	0.5	1527.09	8.19
308.15	0.598	1468	7.83
308.15	0.701	1396.8	7.43
308.15	0.799	1311.25	7
308.15	0.9	1205.95	6.5
308.15	0.951	1141.24	6.21
308.15	1	1069.19	5.91
310.65	0	1678.74	9.71
310.65	0.055	1697.82	9.65
310.65	0.098	1686.11	9.51
310.65	0.193	1655.3	9.2
310.65	0.296	1617.42	8.87
310.65	0.399	1573.02	8.52
310.65	0.5	1521.37	8.17
310.65	0.598	1462.04	7.81
310.65	0.701	1390.47	7.4
310.65	0.799	1304.55	6.97
310.65	0.9	1198.71	6.47
310.65	0.951	1133.57	6.18
310.65	1	1061.07	5.87
313.15	0	1672.72	9.68
313.15	0.055	1692.7	9.63
313.15	0.098	1680.96	9.49
313.15	0.193	1650.04	9.18
313.15	0.296	1612.03	8.85
313.15	0.399	1567.46	8.5
313.15	0.5	1515.62	8.15
313.15	0.598	1456.05	7.78
313.15	0.701	1384.17	7.38
313.15	0.799	1297.85	6.94
313.15	0.9	1191.44	6.44
313.15	0.951	1125.93	6.15
313.15	1	1052.93	5.84
315.65	0	1666.74	9.66
315.65	0.055	1687.58	9.61
315.65	0.098	1675.79	9.47
315.65	0.193	1644.78	9.17
315.65	0.296	1606.67	8.83
315.65	0.399	1561.91	8.48
315.65	0.5	1509.91	8.13
315.65	0.598	1450.1	7.76
315.65	0.701	1377.88	7.36
315.65	0.799	1291.18	6.92
315.65	0.9	1184.23	6.42
315.65	0.951	1118.41	6.12
315.65	1	1044.9	5.81
318.15	0	1660.78	9.64
318.15	0.055	1682.52	9.59
318.15	0.098	1670.66	9.46
318.15	0.193	1639.55	9.15
318.15	0.296	1601.33	8.81
318.15	0.399	1556.41	8.46
318.15	0.5	1504.2	8.11
318.15	0.598	1444.19	7.74
318.15	0.701	1371.69	7.33
318.15	0.799	1284.58	6.89
318.15	0.9	1177.09	6.39
318.15	0.951	1110.87	6.09
318.15	1	1036.74	5.78
320.65	0	1654.81	9.62
320.65	0.055	1677.42	9.57
320.65	0.098	1665.54	9.44
320.65	0.193	1634.33	9.13
320.65	0.296	1595.99	8.79
320.65	0.399	1550.9	8.44
320.65	0.5	1498.51	8.08
320.65	0.598	1438.3	7.72
320.65	0.701	1365.53	7.31
320.65	0.799	1277.95	6.87
320.65	0.9	1169.98	6.36
320.65	0.951	1103.45	6.06
320.65	1	1028.6	5.75
323.15	0	1648.9	9.6
323.15	0.055	1672.38	9.58
323.15	0.098	1660.48	9.42
323.15	0.193	1629.17	9.11
323.15	0.296	1590.72	8.77
323.15	0.399	1545.45	8.42
323.15	0.5	1492.87	8.07
323.15	0.598	1432.48	7.7
323.15	0.701	1359.51	7.3
323.15	0.799	1271.4	6.85
323.15	0.9	1162.96	6.34
323.15	0.951	1096.12	6.04
323.15	1	1020.46	5.71

System: methanol + 2-hydroxyethylammonium formate; phases: Liquid
Fixed: Pressure, kPa = 101
Property: Mass density, kg/m3 (Liquid); method: Vibrating tube method
Temperature, K	Mole fraction of methanol	Mass density, kg/m3	uncertainty
288.15	0	1183.574	30.795
288.15	0.055	1176.053	30.63
288.15	0.098	1169.588	30.519
288.15	0.193	1153.025	30.328
288.15	0.296	1132.54	30.188
288.15	0.399	1108.245	30.1
288.15	0.5	1079.689	30.049
288.15	0.598	1046.627	30.022
288.15	0.701	1005.325	30.008
288.15	0.799	953.96	30.003
288.15	0.9	887.02	30.001
288.15	0.951	844.491	30
288.15	1	795.775	30
290.65	0	1181.809	30.791
290.65	0.055	1174.399	30.626
290.65	0.098	1167.927	30.516
290.65	0.193	1151.338	30.326
290.65	0.296	1130.825	30.187
290.65	0.399	1106.497	30.099
290.65	0.5	1077.902	30.048
290.65	0.598	1044.785	30.021
290.65	0.701	1003.418	30.008
290.65	0.799	951.962	30.003
290.65	0.9	884.894	30.001
290.65	0.951	842.26	30
290.65	1	793.495	30
293.15	0	1180.037	30.786
293.15	0.055	1172.742	30.622
293.15	0.098	1166.261	30.513
293.15	0.193	1149.651	30.324
293.15	0.296	1129.107	30.186
293.15	0.399	1104.749	30.098
293.15	0.5	1076.111	30.048
293.15	0.598	1042.946	30.021
293.15	0.701	1001.512	30.007
293.15	0.799	949.965	30.003
293.15	0.9	882.765	30.001
293.15	0.951	840.027	30
293.15	1	791.149	30
295.65	0	1178.265	30.781
295.65	0.055	1171.087	30.619
295.65	0.098	1164.599	30.51
295.65	0.193	1147.966	30.322
295.65	0.296	1127.398	30.184
295.65	0.399	1103	30.098
295.65	0.5	1074.323	30.048
295.65	0.598	1041.105	30.021
295.65	0.701	999.603	30.007
295.65	0.799	947.967	30.003
295.65	0.9	880.636	30.001
295.65	0.951	837.792	30
295.65	1	788.811	30
298.15	0	1176.489	30.776
298.15	0.055	1169.427	30.615
298.15	0.098	1162.938	30.508
298.15	0.193	1146.281	30.32
298.15	0.296	1125.685	30.183
298.15	0.399	1101.255	30.097
298.15	0.5	1072.536	30.047
298.15	0.598	1039.266	30.021
298.15	0.701	997.697	30.007
298.15	0.799	945.97	30.003
298.15	0.9	878.505	30.001
298.15	0.951	835.555	30
298.15	1	786.463	30
300.65	0	1174.714	30.772
300.65	0.055	1167.774	30.612
300.65	0.098	1161.278	30.505
300.65	0.193	1144.598	30.318
300.65	0.296	1123.971	30.182
300.65	0.399	1099.511	30.097
300.65	0.5	1070.748	30.047
300.65	0.598	1037.428	30.021
300.65	0.701	995.792	30.007
300.65	0.799	943.973	30.003
300.65	0.9	876.371	30.001
300.65	0.951	833.316	30
300.65	1	784.102	30
303.15	0	1172.937	30.767
303.15	0.055	1166.122	30.608
303.15	0.098	1159.617	30.502
303.15	0.193	1142.915	30.316
303.15	0.296	1122.262	30.181
303.15	0.399	1097.765	30.096
303.15	0.5	1068.962	30.047
303.15	0.598	1035.588	30.021
303.15	0.701	993.884	30.007
303.15	0.799	941.97	30.003
303.15	0.9	874.236	30.001
303.15	0.951	831.073	30
303.15	1	781.764	30
305.65	0	1171.165	30.762
305.65	0.055	1164.467	30.605
305.65	0.098	1157.955	30.499
305.65	0.193	1141.233	30.314
305.65	0.296	1120.552	30.18
305.65	0.399	1096.02	30.095
305.65	0.5	1067.175	30.046
305.65	0.598	1033.748	30.02
305.65	0.701	991.972	30.007
305.65	0.799	939.967	30.003
305.65	0.9	872.095	30.001
305.65	0.951	828.823	30
305.65	1	779.385	30
308.15	0	1169.391	30.758
308.15	0.055	1162.815	30.601
308.15	0.098	1156.295	30.496
308.15	0.193	1139.55	30.313
308.15	0.296	1118.838	30.179
308.15	0.399	1094.272	30.095
308.15	0.5	1065.385	30.046
308.15	0.598	1031.904	30.02
308.15	0.701	990.06	30.007
308.15	0.799	937.959	30.003
308.15	0.9	869.95	30.001
308.15	0.951	826.572	30
308.15	1	777.026	30
310.65	0	1167.617	30.753
310.65	0.055	1161.161	30.598
310.65	0.098	1154.636	30.493
310.65	0.193	1137.869	30.311
310.65	0.296	1117.129	30.178
310.65	0.399	1092.526	30.094
310.65	0.5	1063.594	30.046
310.65	0.598	1030.062	30.02
310.65	0.701	988.146	30.007
310.65	0.799	935.95	30.002
310.65	0.9	867.803	30.001
310.65	0.951	824.316	30
310.65	1	774.659	30
313.15	0	1165.839	30.749
313.15	0.055	1159.512	30.595
313.15	0.098	1152.978	30.49
313.15	0.193	1136.189	30.309
313.15	0.296	1115.418	30.177
313.15	0.399	1090.782	30.093
313.15	0.5	1061.806	30.045
313.15	0.598	1028.217	30.02
313.15	0.701	986.228	30.007
313.15	0.799	933.936	30.002
313.15	0.9	865.647	30.001
313.15	0.951	822.053	30
313.15	1	772.261	30
315.65	0	1164.062	30.744
315.65	0.055	1157.861	30.591
315.65	0.098	1151.325	30.487
315.65	0.193	1134.51	30.307
315.65	0.296	1113.707	30.175
315.65	0.399	1089.034	30.093
315.65	0.5	1060.015	30.045
315.65	0.598	1026.37	30.02
315.65	0.701	984.31	30.007
315.65	0.799	931.919	30.002
315.65	0.9	863.489	30.001
315.65	0.951	819.788	30
315.65	1	769.86	30
318.15	0	1162.286	30.739
318.15	0.055	1156.214	30.588
318.15	0.098	1149.672	30.484
318.15	0.193	1132.83	30.305
318.15	0.296	1111.996	30.174
318.15	0.399	1087.286	30.092
318.15	0.5	1058.222	30.045
318.15	0.598	1024.524	30.02
318.15	0.701	982.388	30.007
318.15	0.799	929.9	30.002
318.15	0.9	861.326	30.001
318.15	0.951	817.518	30
318.15	1	767.541	30
320.65	0	1160.509	30.735
320.65	0.055	1154.573	30.584
320.65	0.098	1148.025	30.482
320.65	0.193	1131.155	30.303
320.65	0.296	1110.288	30.173
320.65	0.399	1085.539	30.091
320.65	0.5	1056.428	30.044
320.65	0.598	1022.674	30.019
320.65	0.701	980.467	30.007
320.65	0.799	927.874	30.002
320.65	0.9	859.158	30.001
320.65	0.951	815.245	30
320.65	1	765.074	30
323.15	0	1158.734	30.73
323.15	0.055	1152.945	30.581
323.15	0.098	1146.392	30.479
323.15	0.193	1129.491	30.301
323.15	0.296	1108.589	30.172
323.15	0.399	1083.8	30.091
323.15	0.5	1054.643	30.044
323.15	0.598	1020.831	30.019
323.15	0.701	978.549	30.007
323.15	0.799	925.853	30.003
323.15	0.9	856.995	30.001
323.15	0.951	812.98	30.001
323.15	1	762.738	30

System: ethanol + 2-hydroxyethylammonium formate; phases: Liquid
Fixed: Pressure, kPa = 101
Property: Speed of sound, m/s (Liquid); method: FPINT:UFactor:8
Temperature, K	Mole fraction of ethanol	Speed of sound, m/s	uncertainty
288.15	0	1733.91	9.9
288.15	0.058	1741.47	9.79
288.15	0.098	1723.05	9.64
288.15	0.193	1681.54	9.3
288.15	0.296	1639.04	8.94
288.15	0.399	1587.51	8.58
288.15	0.5	1529.72	8.2
288.15	0.598	1468.66	7.83
288.15	0.701	1402.4	7.45
288.15	0.799	1333.53	7.08
288.15	0.9	1261.82	6.72
288.15	0.95	1223.43	6.54
288.15	1	1178.19	6.34
290.65	0	1727.43	9.87
290.65	0.058	1736.16	9.77
290.65	0.098	1717.61	9.62
290.65	0.193	1675.91	9.28
290.65	0.296	1633.2	8.93
290.65	0.399	1581.37	8.55
290.65	0.5	1523.3	8.18
290.65	0.598	1461.87	7.81
290.65	0.701	1395.26	7.42
290.65	0.799	1325.98	7.05
290.65	0.9	1253.74	6.69
290.65	0.95	1215.04	6.51
290.65	1	1169.12	6.31
293.15	0	1721.27	9.85
293.15	0.058	1730.88	9.75
293.15	0.098	1712.22	9.6
293.15	0.193	1670.35	9.26
293.15	0.296	1627.42	8.9
293.15	0.399	1575.29	8.53
293.15	0.5	1516.95	8.16
293.15	0.598	1455.12	7.78
293.15	0.701	1388.2	7.4
293.15	0.799	1318.49	7.02
293.15	0.9	1245.73	6.66
293.15	0.95	1206.76	6.48
293.15	1	1160.34	6.27
295.65	0	1715.13	9.83
295.65	0.058	1725.63	9.74
295.65	0.098	1706.81	9.58
295.65	0.193	1664.8	9.24
295.65	0.296	1621.65	8.88
295.65	0.399	1569.23	8.51
295.65	0.5	1510.62	8.13
295.65	0.598	1448.39	7.75
295.65	0.701	1381.12	7.37
295.65	0.799	1311.01	6.99
295.65	0.9	1237.75	6.63
295.65	0.95	1198.48	6.44
295.65	1	1151.65	6.24
298.15	0	1709	9.81
298.15	0.058	1720.38	9.72
298.15	0.098	1701.48	9.57
298.15	0.193	1659.26	9.22
298.15	0.296	1615.9	8.86
298.15	0.399	1563.2	8.49
298.15	0.5	1504.3	8.11
298.15	0.598	1441.74	7.73
298.15	0.701	1374.06	7.34
298.15	0.799	1303.56	6.97
298.15	0.9	1229.8	6.6
298.15	0.95	1190.22	6.41
298.15	1	1143.12	6.2
300.65	0	1702.9	9.79
300.65	0.058	1715.16	9.7
300.65	0.098	1696.14	9.55
300.65	0.193	1653.74	9.2
300.65	0.296	1610.16	8.84
300.65	0.399	1557.18	8.47
300.65	0.5	1498	8.08
300.65	0.598	1435.07	7.7
300.65	0.701	1367.04	7.31
300.65	0.799	1296.12	6.94
300.65	0.9	1221.87	6.56
300.65	0.95	1182.02	6.38
300.65	1	1134.62	6.17
303.15	0	1696.81	9.77
303.15	0.058	1709.94	9.68
303.15	0.098	1690.8	9.53
303.15	0.193	1648.24	9.18
303.15	0.296	1604.44	8.82
303.15	0.399	1551.17	8.44
303.15	0.5	1491.72	8.06
303.15	0.598	1428.4	7.68
303.15	0.701	1360.03	7.29
303.15	0.799	1288.72	6.91
303.15	0.9	1213.98	6.53
303.15	0.95	1173.84	6.35
303.15	1	1126.23	6.13
305.65	0	1690.79	9.75
305.65	0.058	1704.73	9.66
305.65	0.098	1685.48	9.51
305.65	0.193	1642.74	9.16
305.65	0.296	1598.72	8.8
305.65	0.399	1545.19	8.42
305.65	0.5	1485.43	8.04
305.65	0.598	1421.8	7.65
305.65	0.701	1353.08	7.26
305.65	0.799	1281.34	6.88
305.65	0.9	1206.1	6.5
305.65	0.95	1165.69	6.31
305.65	1	1117.77	6.1
308.15	0	1684.76	9.73
308.15	0.058	1699.55	9.65
308.15	0.098	1680.16	9.49
308.15	0.193	1637.26	9.14
308.15	0.296	1593.01	8.78
308.15	0.399	1539.23	8.4
308.15	0.5	1479.19	8.01
308.15	0.598	1415.22	7.63
308.15	0.701	1346.14	7.23
308.15	0.799	1273.98	6.85
308.15	0.9	1198.26	6.47
308.15	0.95	1157.57	6.28
308.15	1	1109.4	6.07
310.65	0	1678.74	9.71
310.65	0.058	1694.38	9.63
310.65	0.098	1674.9	9.47
310.65	0.193	1631.81	9.12
310.65	0.296	1587.36	8.76
310.65	0.399	1533.33	8.38
310.65	0.5	1472.99	7.99
310.65	0.598	1408.66	7.6
310.65	0.701	1339.26	7.21
310.65	0.799	1266.67	6.82
310.65	0.9	1190.48	6.44
310.65	0.95	1149.53	6.25
310.65	1	1101	6.03
313.15	0	1672.72	9.68
313.15	0.058	1689.24	9.61
313.15	0.098	1669.76	9.45
313.15	0.193	1626.35	9.1
313.15	0.296	1581.67	8.74
313.15	0.399	1527.37	8.36
313.15	0.5	1466.75	7.97
313.15	0.598	1402.15	7.58
313.15	0.701	1332.35	7.18
313.15	0.799	1259.35	6.79
313.15	0.9	1182.68	6.41
313.15	0.95	1141.44	6.22
313.15	1	1092.7	6
315.65	0	1666.74	9.66
315.65	0.058	1684.1	9.59
315.65	0.098	1664.47	9.44
315.65	0.193	1620.9	9.08
315.65	0.296	1575.99	8.72
315.65	0.399	1521.46	8.33
315.65	0.5	1460.54	7.94
315.65	0.598	1395.63	7.55
315.65	0.701	1325.47	7.15
315.65	0.799	1252.05	6.76
315.65	0.9	1174.91	6.38
315.65	0.95	1133.39	6.18
315.65	1	1084.34	5.97
318.15	0	1660.78	9.64
318.15	0.058	1678.98	9.57
318.15	0.098	1659.19	9.42
318.15	0.193	1615.49	9.06
318.15	0.296	1570.36	8.7
318.15	0.399	1515.63	8.31
318.15	0.5	1454.38	7.92
318.15	0.598	1389.2	7.53
318.15	0.701	1318.65	7.13
318.15	0.799	1244.81	6.74
318.15	0.9	1167.21	6.35
318.15	0.95	1125.41	6.15
318.15	1	1075.9	5.93
320.65	0	1654.81	9.62
320.65	0.058	1673.88	9.56
320.65	0.098	1653.95	9.4
320.65	0.193	1610.09	9.04
320.65	0.296	1564.82	8.68
320.65	0.399	1509.9	8.29
320.65	0.5	1448.23	7.9
320.65	0.598	1382.78	7.5
320.65	0.701	1311.84	7.1
320.65	0.799	1237.59	6.71
320.65	0.9	1159.55	6.32
320.65	0.95	1117.5	6.12
320.65	1	1067.46	5.9
323.15	0	1648.9	9.6
323.15	0.058	1668.84	9.56
323.15	0.098	1648.77	9.38
323.15	0.193	1604.71	9.02
323.15	0.296	1559.39	8.66
323.15	0.399	1504.22	8.27
323.15	0.5	1442.14	7.88
323.15	0.598	1376.48	7.48
323.15	0.701	1305.13	7.08
323.15	0.799	1230.47	6.68
323.15	0.9	1152.01	6.29
323.15	0.95	1109.71	6.1
323.15	1	1058.83	5.87

System: ethanol + 2-hydroxyethylammonium formate; phases: Liquid
Fixed: Pressure, kPa = 101
Property: Mass density, kg/m3 (Liquid); method: Vibrating tube method
Temperature, K	Mole fraction of ethanol	Mass density, kg/m3	uncertainty
288.15	0	1183.574	30.795
288.15	0.058	1172.993	30.616
288.15	0.098	1161.053	30.504
288.15	0.193	1135.719	30.308
288.15	0.296	1110.039	30.173
288.15	0.399	1079.513	30.089
288.15	0.5	1044.575	30.042
288.15	0.598	1006.569	30.018
288.15	0.701	963.374	30.007
288.15	0.799	914.502	30.002
288.15	0.9	859.222	30.001
288.15	0.95	828.585	30
288.15	1	794.444	30
290.65	0	1181.809	30.791
290.65	0.058	1171.334	30.612
290.65	0.098	1159.384	30.501
290.65	0.193	1134.023	30.306
290.65	0.296	1108.316	30.172
290.65	0.399	1077.757	30.089
290.65	0.5	1042.777	30.042
290.65	0.598	1004.724	30.018
290.65	0.701	961.474	30.007
290.65	0.799	912.536	30.002
290.65	0.9	857.183	30.001
290.65	0.95	826.503	30
290.65	1	792.305	30
293.15	0	1180.037	30.786
293.15	0.058	1169.684	30.609
293.15	0.098	1157.717	30.498
293.15	0.193	1132.326	30.305
293.15	0.296	1106.596	30.171
293.15	0.399	1076	30.088
293.15	0.5	1040.977	30.042
293.15	0.598	1002.876	30.018
293.15	0.701	959.571	30.007
293.15	0.799	910.569	30.002
293.15	0.9	855.141	30.001
293.15	0.95	824.416	30
293.15	1	790.158	30
295.65	0	1178.265	30.781
295.65	0.058	1168.025	30.605
295.65	0.098	1156.05	30.495
295.65	0.193	1130.636	30.303
295.65	0.296	1104.873	30.17
295.65	0.399	1074.243	30.088
295.65	0.5	1039.178	30.042
295.65	0.598	1001.029	30.018
295.65	0.701	957.67	30.007
295.65	0.799	908.602	30.002
295.65	0.9	853.093	30.001
295.65	0.95	822.326	30
295.65	1	788.027	30
298.15	0	1176.489	30.776
298.15	0.058	1166.368	30.602
298.15	0.098	1154.383	30.493
298.15	0.193	1128.945	30.301
298.15	0.296	1103.153	30.169
298.15	0.399	1072.489	30.087
298.15	0.5	1037.381	30.041
298.15	0.598	999.182	30.018
298.15	0.701	955.767	30.007
298.15	0.799	906.63	30.002
298.15	0.9	851.045	30.001
298.15	0.95	820.231	30
298.15	1	785.89	30
300.65	0	1174.714	30.772
300.65	0.058	1164.714	30.598
300.65	0.098	1152.718	30.49
300.65	0.193	1127.25	30.299
300.65	0.296	1101.437	30.168
300.65	0.399	1070.735	30.086
300.65	0.5	1035.58	30.041
300.65	0.598	997.335	30.018
300.65	0.701	953.861	30.007
300.65	0.799	904.657	30.002
300.65	0.9	848.99	30.001
300.65	0.95	818.13	30
300.65	1	783.729	30
303.15	0	1172.937	30.767
303.15	0.058	1163.059	30.595
303.15	0.098	1151.052	30.487
303.15	0.193	1125.562	30.297
303.15	0.296	1099.717	30.166
303.15	0.399	1068.979	30.086
303.15	0.5	1033.786	30.041
303.15	0.598	995.485	30.017
303.15	0.701	951.952	30.007
303.15	0.799	902.677	30.002
303.15	0.9	846.93	30.001
303.15	0.95	816.023	30
303.15	1	781.591	30
305.65	0	1171.165	30.762
305.65	0.058	1161.41	30.592
305.65	0.098	1149.387	30.484
305.65	0.193	1123.87	30.295
305.65	0.296	1097.999	30.165
305.65	0.399	1067.225	30.085
305.65	0.5	1031.985	30.04
305.65	0.598	993.634	30.017
305.65	0.701	950.042	30.007
305.65	0.799	900.694	30.002
305.65	0.9	844.863	30.001
305.65	0.95	813.907	30
305.65	1	779.402	30
308.15	0	1169.391	30.758
308.15	0.058	1159.755	30.588
308.15	0.098	1147.72	30.481
308.15	0.193	1122.178	30.294
308.15	0.296	1096.281	30.164
308.15	0.399	1065.469	30.085
308.15	0.5	1030.183	30.04
308.15	0.598	991.781	30.017
308.15	0.701	948.127	30.007
308.15	0.799	898.707	30.002
308.15	0.9	842.788	30.001
308.15	0.95	811.783	30
308.15	1	777.238	30
310.65	0	1167.617	30.753
310.65	0.058	1158.105	30.585
310.65	0.098	1146.059	30.478
310.65	0.193	1120.486	30.292
310.65	0.296	1094.561	30.163
310.65	0.399	1063.711	30.084
310.65	0.5	1028.382	30.04
310.65	0.598	989.927	30.017
310.65	0.701	946.21	30.006
310.65	0.799	896.716	30.002
310.65	0.9	840.709	30.001
310.65	0.95	809.653	30
310.65	1	775.055	30
313.15	0	1165.839	30.749
313.15	0.058	1156.452	30.581
313.15	0.098	1144.396	30.476
313.15	0.193	1118.797	30.29
313.15	0.296	1092.843	30.162
313.15	0.399	1061.951	30.083
313.15	0.5	1026.574	30.039
313.15	0.598	988.066	30.017
313.15	0.701	944.29	30.006
313.15	0.799	894.718	30.002
313.15	0.9	838.621	30.001
313.15	0.95	807.511	30
313.15	1	772.846	30
315.65	0	1164.062	30.744
315.65	0.058	1154.805	30.578
315.65	0.098	1142.735	30.473
315.65	0.193	1117.108	30.288
315.65	0.296	1091.123	30.161
315.65	0.399	1060.195	30.083
315.65	0.5	1024.769	30.039
315.65	0.598	986.208	30.017
315.65	0.701	942.365	30.006
315.65	0.799	892.716	30.002
315.65	0.9	836.524	30.001
315.65	0.95	805.362	30
315.65	1	770.625	30
318.15	0	1162.286	30.739
318.15	0.058	1153.158	30.575
318.15	0.098	1141.073	30.47
318.15	0.193	1115.42	30.286
318.15	0.296	1089.404	30.16
318.15	0.399	1058.436	30.082
318.15	0.5	1022.961	30.039
318.15	0.598	984.346	30.017
318.15	0.701	940.437	30.006
318.15	0.799	890.71	30.002
318.15	0.9	834.423	30.001
318.15	0.95	803.205	30
318.15	1	768.482	30
320.65	0	1160.509	30.735
320.65	0.058	1151.513	30.571
320.65	0.098	1139.415	30.467
320.65	0.193	1113.733	30.285
320.65	0.296	1087.686	30.159
320.65	0.399	1056.678	30.082
320.65	0.5	1021.155	30.039
320.65	0.598	982.484	30.017
320.65	0.701	938.509	30.006
320.65	0.799	888.697	30.002
320.65	0.9	832.314	30.001
320.65	0.95	801.039	30
320.65	1	766.198	30
323.15	0	1158.734	30.73
323.15	0.058	1149.884	30.568
323.15	0.098	1137.775	30.464
323.15	0.193	1112.061	30.283
323.15	0.296	1085.977	30.158
323.15	0.399	1054.93	30.081
323.15	0.5	1019.354	30.038
323.15	0.598	980.632	30.017
323.15	0.701	936.584	30.006
323.15	0.799	886.69	30.002
323.15	0.9	830.212	30.001
323.15	0.95	798.879	30.001
323.15	1	764.019	30
