Measured thermophysical data. Molar heat capacity and thermodynamic properties of N-alklypyridinium hexafluorophosphate salts, [Cnpy][PF6] (n = 2, 3, 5)
Source: J. Chem. Thermodyn., 2014, 10.1016/j.jct.2013.08.024
Compound 1: 1-ethylpyridinium hexafluorophosphate, C7H10F6NP, InChI=1S/C7H10N.F6P/c1-2-8-6-4-3-5-7-8;1-7(2,3,4,5)6/h3-7H,2H2,1H3;/q+1;-1
Compound 2: 1-propylpyridinium hexafluorophosphate, C8H12F6NP, InChI=1S/C8H12N.F6P/c1-2-6-9-7-4-3-5-8-9;1-7(2,3,4,5)6/h3-5,7-8H,2,6H2,1H3;/q+1;-1
Compound 3: 1-pentylpyridinium hexafluorophosphate, C10H16F6NP, InChI=1S/C10H16N.F6P/c1-2-3-5-8-11-9-6-4-7-10-11;1-7(2,3,4,5)6/h4,6-7,9-10H,2-3,5,8H2,1H3;/q+1;-1

System: 1-ethylpyridinium hexafluorophosphate; phases: Crystal, Liquid, Gas
Property: Triple point temperature, K (Crystal); method: Adiabatic calorimetry
Triple point temperature, K	uncertainty
374.28	0.7

System: 1-ethylpyridinium hexafluorophosphate; phases: Crystal, Liquid, Gas
Property: Molar enthalpy of transition or fusion, kJ/mol (Crystal); method: Adiabatic calorimetry
Molar enthalpy of transition or fusion, kJ/mol	uncertainty
22.44	0.23

System: 1-ethylpyridinium hexafluorophosphate; phases: Crystal
Fixed: Pressure, kPa = 100
Property: Molar heat capacity at constant pressure, J/K/mol (Crystal); method: Vacuum adiabatic calorimetry
Temperature, K	Molar heat capacity at constant pressure, J/K/mol	uncertainty
85.823	122.41	0.76
87.749	123.62	0.77
89.685	124.86	0.78
91.564	125.59	0.79
93.465	127.7	0.8
95.367	128.69	0.81
97.303	130.05	0.81
99.217	131.42	0.82
101.881	133.48	0.83
104.501	134.83	0.84
106.341	136.78	0.85
108.251	139.19	0.87
110.186	139.53	0.87
112.103	141.28	0.88
113.984	142.41	0.89
115.905	143.58	0.9
117.82	145.23	0.91
119.734	147.09	0.92
121.629	148.06	0.92
123.534	150.86	0.94
125.474	151.91	0.94
127.378	153.39	0.95
129.287	154.18	0.96
131.167	155.71	0.97
133.013	157.25	0.98
134.9	159.21	0.99
136.81	160.3	1
138.699	162.36	1.01
140.567	162.67	1.01
142.464	164.16	1.02
144.365	166.9	1.03
146.281	169.39	1.05
148.163	170.3	1.05
150.024	171.2	1.06
152.505	173.66	1.08
154.961	175.7	1.09
156.869	177.57	1.1
158.825	178.84	1.11
160.76	180.18	1.11
162.688	183.18	1.13
164.599	183.81	1.14
166.515	185.36	1.15
168.4	187.16	1.16
170.289	188.62	1.16
172.154	190.1	1.17
174.081	191.35	1.18
175.98	193.75	1.2
177.886	194.48	1.2
179.823	196.33	1.21
181.759	197.2	1.22
183.682	198.81	1.23
185.605	199.67	1.23
187.503	201.46	1.24
189.398	204.49	1.26
191.287	206.25	1.27
193.151	207.22	1.28
195.076	209.32	1.29
197.037	210.02	1.29
198.979	210.95	1.3
200.922	215.54	1.33
203.292	216.68	1.33
205.655	218.06	1.34
207.55	220.87	1.36
209.444	221.18	1.36
211.417	222.63	1.37
213.367	224.57	1.38
215.237	225.17	1.38
217.101	227.56	1.4
219.046	228.81	1.41
221.044	229.14	1.41
223.033	232.24	1.43
225.023	234.66	1.44
227.003	235.22	1.44
228.974	235.75	1.45
230.904	236.14	1.45
232.858	239.9	1.47
234.809	241.68	1.48
236.753	243.45	1.49
238.705	245.5	1.51
240.639	248.13	1.52
242.924	249.02	1.53
245.208	250.7	1.54
247.177	252.97	1.55
249.15	254.21	1.56
251.122	255.77	1.57
253.178	256.23	1.57
255.225	257.49	1.58
257.279	258.83	1.59
259.307	260.02	1.59
261.342	263.46	1.61
263.377	265.13	1.62
265.399	267.72	1.64
267.423	269.99	1.65
269.46	270.94	1.66
271.467	271.65	1.66
273.47	273.65	1.68
275.451	275.24	1.69
277.427	277.47	1.7
279.4	278.18	1.7
281.361	279.64	1.71
283.311	282.73	1.73
285.257	283.81	1.74
287.2	284.51	1.74
289.123	286.96	1.76
291.131	287.04	1.76
293.107	289.57	1.77
295.093	290.61	1.78
297.087	292.65	1.79
298.982	294.95	1.8
300.87	295.1	1.8
302.844	297.17	1.82
304.909	298.3	1.82
306.959	300.16	1.84
309.019	301.5	1.84
311.045	303.02	1.85
313.087	305.07	1.87
315.116	306.79	1.88
317.142	307.86	1.88
319.159	309.29	1.89
321.171	310.39	1.9
323.174	312.11	1.91
325.178	313.19	1.91
327.172	315.09	1.93
329.157	317.89	1.94
331.151	318.58	1.95
333.117	321.36	1.96
335.092	324.04	1.98
337.056	325.74	1.99
339.015	327.27	2
340.963	330.58	2.02
342.912	331.97	2.03
344.849	333.4	2.04
346.795	336.06	2.05
348.714	337.11	2.06
350.734	339.76	2.07
352.726	340.5	2.08
354.716	342.13	2.09
356.777	348.97	2.13
358.835	354.11	2.16
360.865	363.77	2.22

System: 1-ethylpyridinium hexafluorophosphate; phases: Liquid
Fixed: Pressure, kPa = 100
Property: Molar heat capacity at constant pressure, J/K/mol (Liquid); method: Vacuum adiabatic calorimetry
Temperature, K	Molar heat capacity at constant pressure, J/K/mol	uncertainty
378.075	378.71	2.31
380.665	380.05	2.32
382.235	380.74	2.32
383.931	381.89	2.33
385.981	383.05	2.34
387.971	384.6	2.34
389.767	385.68	2.35
391.539	387	2.36
393.428	387.8	2.36
395.319	388	2.36
397.232	389.44	2.37

System: 1-ethylpyridinium hexafluorophosphate; phases: Liquid
Fixed: Pressure, kPa = 101.325
Property: Molar heat capacity at constant pressure, J/K/mol (Liquid); method: Vacuum adiabatic calorimetry
Temperature, K	Molar heat capacity at constant pressure, J/K/mol	uncertainty
380	379.598	2.314
385	382.571	2.332
390	385.808	2.352
395	388.431	2.367
400	389.56	2.374

System: 1-ethylpyridinium hexafluorophosphate; phases: Crystal
Fixed: Pressure, kPa = 101.325
Property: Molar heat capacity at constant pressure, J/K/mol (Crystal); method: Vacuum adiabatic calorimetry
Temperature, K	Molar heat capacity at constant pressure, J/K/mol	uncertainty
195	208.745	1.285
200	212.89	1.31
205	217.042	1.335
210	221.203	1.36
215	225.369	1.385
220	229.541	1.41
225	233.716	1.436
230	237.89	1.461
235	242.061	1.486
240	246.225	1.511
245	250.377	1.536
250	254.514	1.561
255	258.63	1.585
260	262.723	1.61
265	266.79	1.634
270	270.826	1.659
275	274.832	1.683
280	278.808	1.707
285	282.755	1.731
290	286.677	1.754
295	290.583	1.778
298.15	293.039	1.793
300	294.482	1.801
305	298.387	1.825
310	302.318	1.848
315	306.297	1.872
320	310.352	1.897
325	314.518	1.922
330	318.835	1.948
335	323.351	1.975
340	328.123	2.004
345	333.216	2.035
350	338.704	2.068
80	119.515	0.744
85	122.167	0.76
90	125.149	0.785
95	128.401	0.805
100	131.871	0.825
105	135.516	0.847
110	139.296	0.87
115	143.181	0.893
120	147.145	0.916
125	151.165	0.941
130	155.225	0.965
135	159.312	0.989
140	163.415	1.014
145	167.528	1.038
150	171.645	1.063
155	175.763	1.088
160	179.88	1.112
165	183.997	1.137
170	188.114	1.162
175	192.232	1.186
180	196.353	1.211
185	200.478	1.236
190	204.608	1.261

System: 1-propylpyridinium hexafluorophosphate; phases: Crystal, Liquid, Gas
Property: Triple point temperature, K (Crystal); method: Adiabatic calorimetry
Triple point temperature, K	uncertainty
370.65	0.45

System: 1-propylpyridinium hexafluorophosphate; phases: Crystal, Liquid, Gas
Property: Molar enthalpy of transition or fusion, kJ/mol (Crystal); method: Adiabatic calorimetry
Molar enthalpy of transition or fusion, kJ/mol	uncertainty
6.83	0.08

System: 1-propylpyridinium hexafluorophosphate; phases: Crystal
Fixed: Pressure, kPa = 100
Property: Molar heat capacity at constant pressure, J/K/mol (Crystal); method: Vacuum adiabatic calorimetry
Temperature, K	Molar heat capacity at constant pressure, J/K/mol	uncertainty
80.677	132.69	0.83
84.384	136.34	0.85
85.487	137.33	0.85
88.926	140.12	0.87
90.485	142.8	0.89
92.342	143.79	0.9
94.681	146.33	0.91
96.386	147.58	0.92
98.43	149.08	0.93
100.294	150.69	0.94
102.899	152.23	0.95
105.935	153.67	0.96
108.879	157.69	0.98
111.828	161.25	1
114.681	164.89	1.02
117.9	167.83	1.04
120.199	169.77	1.05
122.813	171.74	1.06
125.677	173.3	1.07
128.737	176.86	1.09
131.605	179.38	1.11
134.522	182.04	1.13
138.092	185.24	1.14
141.256	188.41	1.16
144.445	190.65	1.18
147.369	193.5	1.19
150.314	196.22	1.21
154.048	198.56	1.22
157.794	203.77	1.26
160.686	205.83	1.27
163.669	207.49	1.28
166.637	211.91	1.3
169.415	212.73	1.31
172.615	216.3	1.33
175.816	219.22	1.35
178.644	222.15	1.37
181.505	224.8	1.38
184.202	226.44	1.39
187.052	229.23	1.41
189.989	232.43	1.43
191.983	233.62	1.43
196.083	237.25	1.46
198.529	239.61	1.47
202.276	243.62	1.5
205.968	246.53	1.51
208.835	249.45	1.53
211.771	251.22	1.54
214.706	254.89	1.56
217.692	257.53	1.58
220.532	259.13	1.59
223.584	262.48	1.61
226.573	265.94	1.63
229.494	269.97	1.65
232.375	272.74	1.67
235.301	273.95	1.68
238.293	277.73	1.7
241.354	279.25	1.71
244.916	281.61	1.72
248.418	284.89	1.74
251.419	287.12	1.76
254.482	290.19	1.78
257.519	293.37	1.79
260.585	295.49	1.81
263.545	298.28	1.82
266.524	301.35	1.84
269.472	303.75	1.86
272.442	306.26	1.87
275.376	309.18	1.89
278.425	311.7	1.9
281.388	314.19	1.92
284.259	317.03	1.94
287.29	320.19	1.96
290.287	322.11	1.97
293.259	325.22	1.99
296.402	326.72	2
299.433	328.33	2.01
302.436	329.2	2.01
305.401	333.87	2.04
308.433	337.68	2.06
311.342	340.94	2.08
314.619	341.55	2.08
317.745	345.45	2.11
320.714	349.06	2.13
323.777	352.59	2.15
326.654	357.83	2.18
329.611	358.97	2.19
332.564	360.7	2.2
335.52	363.08	2.21
338.686	366.56	2.24
341.71	368.32	2.25
344.727	372.17	2.27
347.715	374.85	2.29
350.576	376.97	2.3
353.539	392.01	2.39
356.522	393.2	2.4
359.456	394.4	2.4

System: 1-propylpyridinium hexafluorophosphate; phases: Liquid
Fixed: Pressure, kPa = 100
Property: Molar heat capacity at constant pressure, J/K/mol (Liquid); method: Vacuum adiabatic calorimetry
Temperature, K	Molar heat capacity at constant pressure, J/K/mol	uncertainty
377.671	454.33	2.79
380.403	404.42	2.47
383.262	408.42	2.49
386.198	410.49	2.5
389.194	412.9	2.52
392.308	415.68	2.53
395.324	417.54	2.54
398.233	419.87	2.56

System: 1-propylpyridinium hexafluorophosphate; phases: Crystal
Fixed: Pressure, kPa = 101.325
Property: Molar heat capacity at constant pressure, J/K/mol (Crystal); method: Vacuum adiabatic calorimetry
Temperature, K	Molar heat capacity at constant pressure, J/K/mol	uncertainty
80	131.863	0.82
85	136.725	0.85
90	141.474	0.883
95	146.134	0.911
100	150.726	0.938
105	155.269	0.965
110	159.776	0.992
115	164.263	1.019
120	168.738	1.046
125	173.21	1.072
130	177.687	1.099
135	182.172	1.126
140	186.67	1.153
145	191.183	1.18
150	195.711	1.207
155	200.254	1.235
160	204.813	1.262
165	209.384	1.289
170	213.966	1.317
175	218.557	1.344
180	223.153	1.372
185	227.751	1.4
190	232.349	1.427
195	236.943	1.455
200	241.529	1.483
205	246.105	1.51
210	250.669	1.538
215	255.217	1.565
220	259.749	1.592
225	264.261	1.619
230	268.754	1.646
235	273.227	1.673
240	277.68	1.7
245	282.113	1.727
250	286.527	1.753
255	290.925	1.78
260	295.308	1.806
265	299.681	1.833
270	304.045	1.859
275	308.406	1.885
280	312.768	1.911
285	317.136	1.938
290	321.516	1.964
295	325.913	1.991
298.15	328.696	2.007
300	330.335	2.017
305	334.787	2.044
310	339.277	2.071
315	343.811	2.098
320	348.396	2.126
325	353.04	2.154
330	357.748	2.183
335	362.528	2.211
340	367.385	2.241
345	372.324	2.27
350	377.351	2.301

System: 1-propylpyridinium hexafluorophosphate; phases: Liquid
Fixed: Pressure, kPa = 101.325
Property: Molar heat capacity at constant pressure, J/K/mol (Liquid); method: Vacuum adiabatic calorimetry
Temperature, K	Molar heat capacity at constant pressure, J/K/mol	uncertainty
380	404.049	2.462
385	409.69	2.496
390	413.744	2.52
395	417.321	2.542
400	421.534	2.567

System: 1-pentylpyridinium hexafluorophosphate; phases: Crystal, Liquid, Gas
Property: Triple point temperature, K (Crystal); method: Adiabatic calorimetry
Triple point temperature, K	uncertainty
328.35	0.29

System: 1-pentylpyridinium hexafluorophosphate; phases: Crystal, Liquid, Gas
Property: Molar enthalpy of transition or fusion, kJ/mol (Crystal); method: Adiabatic calorimetry
Molar enthalpy of transition or fusion, kJ/mol	uncertainty
5.9	0.08

System: 1-pentylpyridinium hexafluorophosphate; phases: Crystal
Fixed: Pressure, kPa = 100
Property: Molar heat capacity at constant pressure, J/K/mol (Crystal); method: Vacuum adiabatic calorimetry
Temperature, K	Molar heat capacity at constant pressure, J/K/mol	uncertainty
299.231	346	2.11
300.987	346.75	2.12
303.045	348.82	2.13
305.049	349.38	2.13
307.053	350.65	2.14
309.054	351.87	2.15
311.051	353.68	2.16
313.045	354.35	2.16
314.765	356.82	2.18
316.213	357.11	2.18
317.659	358.05	2.18
319.101	359.18	2.19
320.543	360.06	2.2
321.981	361.63	2.21
323.415	364.64	2.22
324.843	369.47	2.26
326.252	384.9	2.36

System: 1-pentylpyridinium hexafluorophosphate; phases: Liquid
Fixed: Pressure, kPa = 100
Property: Molar heat capacity at constant pressure, J/K/mol (Liquid); method: Vacuum adiabatic calorimetry
Temperature, K	Molar heat capacity at constant pressure, J/K/mol	uncertainty
330.91	382.58	2.33
332.313	383.34	2.34
333.716	384.03	2.34
335.117	384.53	2.34
336.517	384.57	2.34
337.916	384.71	2.35
339.317	384.96	2.35
340.714	385.12	2.35
342.111	386.03	2.35
343.509	386.23	2.35
344.905	386.44	2.36
346.299	386.53	2.36
348.056	387.36	2.36
350.12	387.52	2.36
352.131	388.47	2.37
354.141	389.26	2.37
356.148	389.69	2.38
358.151	390.9	2.38
360.208	391.42	2.39
362.311	391.86	2.39
364.413	392.61	2.39
366.513	393.92	2.4
368.612	394.51	2.4
370.707	395.34	2.41
372.8	395.97	2.41
374.891	396.37	2.42
376.981	397.77	2.42
379.069	398.05	2.43
381.153	399	2.43
383.235	399.66	2.44
385.313	400.52	2.44
387.387	402.5	2.45
389.459	404.2	2.46
391.526	405.71	2.47
393.588	406.17	2.47
395.646	408.31	2.49

System: 1-pentylpyridinium hexafluorophosphate; phases: Crystal
Fixed: Pressure, kPa = 101.325
Property: Molar heat capacity at constant pressure, J/K/mol (Crystal); method: Vacuum adiabatic calorimetry
Temperature, K	Molar heat capacity at constant pressure, J/K/mol	uncertainty
300	346.36	2.11
305	349.58	2.13
310	352.56	2.15
315	356.44	2.17
320	359.63	2.19

System: 1-pentylpyridinium hexafluorophosphate; phases: Liquid
Fixed: Pressure, kPa = 101.325
Property: Molar heat capacity at constant pressure, J/K/mol (Liquid); method: Vacuum adiabatic calorimetry
Temperature, K	Molar heat capacity at constant pressure, J/K/mol	uncertainty
335	384.32	2.34
340	385.28	2.35
345	386.32	2.35
350	387.74	2.36
355	389.48	2.37
360	391.36	2.39
365	393.17	2.4
370	394.88	2.41
375	396.58	2.42
380	398.51	2.43
385	400.97	2.44
390	404.1	2.46
395	407.77	2.48
400	411.19	2.5
