Measured thermophysical data. Experimental determination of the liquidus of the binary system (Cu2O + CaO) in air at temperature from (1050 to 1500) degC
Source: J. Chem. Thermodyn., 2014, 10.1016/j.jct.2014.05.012
Compound 1: calcium monoxide, CaO, InChI=1S/Ca.O/q+2;-2
Compound 2: copper(I) oxide, Cu2O, InChI=1S/2Cu.O/q2*+1;-2, purity 99%

System: calcium monoxide + copper(I) oxide; phases: Liquid, Crystal
Fixed: Pressure, kPa = 101
Property: Mass fraction of calcium monoxide (Liquid); method: Electron microprobe
Temperature, K	Mass fraction of calcium monoxide	uncertainty
1423.15	0.1352	0.02
1473.15	0.1392	0.02
1523.15	0.1485	0.02
1573.15	0.1557	0.02
1623.15	0.1607	0.02
1673.15	0.1673	0.02
1723.15	0.1673	0.02
1773.15	0.1801	0.02

System: calcium monoxide + copper(I) oxide; phases: Liquid, Crystal
Fixed: Pressure, kPa = 101
Property: Mass fraction of calcium monoxide (Liquid); method: Electron microprobe
Temperature, K	Mass fraction of calcium monoxide	uncertainty
1323.15	0.0612	0.0201
1363.15	0.0298	0.0201
