Measured thermophysical data. Densities and dynamic viscosities of the binary system (water + 1-hexyl-3-methylimidazolium bromide) at different temperatures
Source: J. Chem. Thermodyn., 2010, 10.1016/j.jct.2010.03.002
Compound 1: water, H2O, InChI=1S/H2O/h1H2, purity 99.8%
Compound 2: 3-hexyl-1-methyl-1H-imidazolium bromide, C10H19BrN2, InChI=1S/C10H19N2.BrH/c1-3-4-5-6-7-12-9-8-11(2)10-12;/h8-10H,3-7H2,1-2H3;1H/q+1;/p-1, purity 98%

System: water; phases: Liquid
Fixed: Pressure, kPa = 101
Property: Viscosity, Pa*s (Liquid); method: Capillary tube (Ostwald; Ubbelohde) method
Temperature, K	Viscosity, Pa*s	uncertainty
293.15	0.001304	1.2e-05
303.15	0.001002	1e-05
313.15	0.000653	7e-06
323.15	0.000544	5e-06
333.15	0.000467	5e-06

System: water; phases: Liquid
Fixed: Pressure, kPa = 101
Property: Mass density, kg/m3 (Liquid); method: Vibrating tube method
Temperature, K	Mass density, kg/m3	uncertainty
293.15	998.2	0.1
303.15	995.6	0.1
313.15	992.2	0.1
323.15	988	0.1
333.15	983.2	0.1

System: 3-hexyl-1-methyl-1H-imidazolium bromide; phases: Liquid
Fixed: Pressure, kPa = 101
Property: Viscosity, Pa*s (Liquid); method: Capillary tube (Ostwald; Ubbelohde) method
Temperature, K	Viscosity, Pa*s	uncertainty
293.15	6.936	0.752
303.15	2.239	0.196
313.15	0.85165	0.05597
323.15	0.51214	0.02694
333.15	0.35069	0.01566

System: 3-hexyl-1-methyl-1H-imidazolium bromide; phases: Liquid
Fixed: Pressure, kPa = 101
Property: Mass density, kg/m3 (Liquid); method: Vibrating tube method
Temperature, K	Mass density, kg/m3	uncertainty
293.15	1227.4	1.7
303.15	1220.1	1.7
313.15	1213.3	1.7
323.15	1205.7	1.7
333.15	1198.6	1.6

System: water + 3-hexyl-1-methyl-1H-imidazolium bromide; phases: Liquid
Fixed: Pressure, kPa = 101
Property: Viscosity, Pa*s (Liquid); method: Capillary tube (Ostwald; Ubbelohde) method
Temperature, K	Mole fraction of water	Viscosity, Pa*s	uncertainty
293.15	0	6.936	0.752
293.15	0.1225	3.519	0.331
293.15	0.2196	1.578	0.121
293.15	0.2978	0.77662	0.04776
293.15	0.348	0.5078	0.02657
293.15	0.4166	0.31352	0.01324
293.15	0.504	0.17373	0.00522
293.15	0.5701	0.11142	0.00234
293.15	0.6405	0.07083	0.00091
293.15	0.7285	0.0364	0.00045
293.15	0.816	0.01813	0.0002
293.15	0.9048	0.006655	5.9e-05
293.15	0.9241	0.004951	4.6e-05
293.15	0.944	0.00348	3.2e-05
293.15	0.9613	0.002438	2.3e-05
293.15	0.9899	0.001342	1.4e-05
293.15	1	0.001304	1.2e-05
303.15	0	2.239	0.196
303.15	0.1225	1.255	0.094
303.15	0.2196	0.69545	0.04219
303.15	0.2978	0.39549	0.01902
303.15	0.348	0.26562	0.01055
303.15	0.4166	0.16831	0.00511
303.15	0.504	0.09893	0.00198
303.15	0.5701	0.06577	0.00089
303.15	0.6405	0.04345	0.00053
303.15	0.7285	0.02254	0.00026
303.15	0.816	0.0121	0.00013
303.15	0.9048	0.004764	4.7e-05
303.15	0.9241	0.003619	3.5e-05
303.15	0.944	0.002622	2.3e-05
303.15	0.9613	0.00186	1.7e-05
303.15	0.9899	0.001047	1e-05
303.15	1	0.001002	1e-05
313.15	0	0.85165	0.05597
313.15	0.1225	0.50366	0.02746
313.15	0.2196	0.32014	0.01421
313.15	0.2978	0.1941	0.00658
313.15	0.348	0.1435	0.0039
313.15	0.4166	0.09798	0.00193
313.15	0.504	0.06018	0.00075
313.15	0.5701	0.04124	0.00049
313.15	0.6405	0.02814	0.00031
313.15	0.7285	0.015134	0.000158
313.15	0.816	0.008492	7.6e-05
313.15	0.9048	0.003519	3.3e-05
313.15	0.9241	0.002764	2.5e-05
313.15	0.944	0.002334	2e-05
313.15	0.9613	0.001469	1.2e-05
313.15	0.9899	0.000846	8e-06
313.15	1	0.000653	7e-06
323.15	0	0.51214	0.02694
323.15	0.1225	0.30269	0.01258
323.15	0.2196	0.18056	0.00568
323.15	0.2978	0.11764	0.00266
323.15	0.348	0.08965	0.00158
323.15	0.4166	0.06085	0.00076
323.15	0.504	0.03859	0.00046
323.15	0.5701	0.02769	0.0003
323.15	0.6405	0.01939	0.00019
323.15	0.7285	0.01075	0.0001
323.15	0.816	0.007247	6.3e-05
323.15	0.9048	0.002744	2.5e-05
323.15	0.9241	0.002165	1.9e-05
323.15	0.944	0.0016	1.6e-05
323.15	0.9613	0.001547	1.3e-05
323.15	0.9899	0.000695	6e-06
323.15	1	0.000544	5e-06
333.15	0	0.35069	0.01566
333.15	0.1225	0.20169	0.00667
333.15	0.2196	0.11566	0.00257
333.15	0.2978	0.07741	0.00122
333.15	0.348	0.05752	0.00074
333.15	0.4166	0.04003	0.0005
333.15	0.504	0.02669	0.00031
333.15	0.5701	0.01936	0.00021
333.15	0.6405	0.01463	0.00015
333.15	0.7285	0.007929	6.7e-05
333.15	0.816	0.004762	5.8e-05
333.15	0.9048	0.002184	2e-05
333.15	0.9241	0.001733	1.6e-05
333.15	0.944	0.001301	1.2e-05
333.15	0.9613	0.000982	1.3e-05
333.15	0.9899	0.000588	6e-06
333.15	1	0.000467	5e-06

System: water + 3-hexyl-1-methyl-1H-imidazolium bromide; phases: Liquid
Fixed: Pressure, kPa = 101
Property: Mass density, kg/m3 (Liquid); method: Vibrating tube method
Temperature, K	Mole fraction of water	Mass density, kg/m3	uncertainty
293.15	0	1227.4	1.7
293.15	0.1225	1223.4	1.4
293.15	0.2196	1220.4	1.1
293.15	0.2978	1217.9	1
293.15	0.348	1216.3	0.9
293.15	0.4166	1213.4	0.7
293.15	0.504	1208.7	0.6
293.15	0.5701	1203.9	0.5
293.15	0.6405	1196.9	0.4
293.15	0.7285	1184.3	0.3
293.15	0.816	1163.7	0.2
293.15	0.9048	1123.6	0.2
293.15	0.9241	1109.4	0.2
293.15	0.944	1091.2	0.1
293.15	0.9613	1070.9	0.1
293.15	0.9899	1022.6	0.1
293.15	1	998.2	0.1
303.15	0	1220.1	1.7
303.15	0.1225	1216.1	1.4
303.15	0.2196	1213.2	1.1
303.15	0.2978	1210.8	1
303.15	0.348	1209	0.9
303.15	0.4166	1206.2	0.7
303.15	0.504	1201.6	0.6
303.15	0.5701	1196.8	0.5
303.15	0.6405	1189.9	0.4
303.15	0.7285	1177.3	0.3
303.15	0.816	1156.9	0.2
303.15	0.9048	1117.3	0.2
303.15	0.9241	1103.6	0.2
303.15	0.944	1085.4	0.1
303.15	0.9613	1065.7	0.1
303.15	0.9899	1019.2	0.1
303.15	1	995.6	0.1
313.15	0	1213.3	1.7
313.15	0.1225	1209.3	1.3
313.15	0.2196	1206.4	1.1
313.15	0.2978	1204	0.9
313.15	0.348	1202.2	0.8
313.15	0.4166	1199.5	0.7
313.15	0.504	1194.9	0.6
313.15	0.5701	1190.1	0.5
313.15	0.6405	1183.3	0.4
313.15	0.7285	1170.7	0.3
313.15	0.816	1150.1	0.2
313.15	0.9048	1110.7	0.2
313.15	0.9241	1097	0.2
313.15	0.944	1079.5	0.1
313.15	0.9613	1060.4	0.1
313.15	0.9899	1015.1	0.1
313.15	1	992.2	0.1
323.15	0	1205.7	1.7
323.15	0.1225	1201.8	1.3
323.15	0.2196	1198.8	1.1
323.15	0.2978	1196.2	0.9
323.15	0.348	1194.6	0.8
323.15	0.4166	1192	0.7
323.15	0.504	1187.5	0.6
323.15	0.5701	1182.7	0.5
323.15	0.6405	1176	0.4
323.15	0.7285	1163.5	0.3
323.15	0.816	1142.9	0.2
323.15	0.9048	1104.4	0.2
323.15	0.9241	1090.9	0.1
323.15	0.944	1073.6	0.1
323.15	0.9613	1054.7	0.1
323.15	0.9899	1010.1	0.1
323.15	1	988	0.1
333.15	0	1198.6	1.6
333.15	0.1225	1194.6	1.3
333.15	0.2196	1191.5	1.1
333.15	0.2978	1189	0.9
333.15	0.348	1187.4	0.8
333.15	0.4166	1184.8	0.7
333.15	0.504	1180.3	0.6
333.15	0.5701	1175.8	0.5
333.15	0.6405	1169	0.4
333.15	0.7285	1156.5	0.3
333.15	0.816	1136.3	0.2
333.15	0.9048	1097.6	0.2
333.15	0.9241	1084.2	0.1
333.15	0.944	1067.2	0.1
333.15	0.9613	1048.5	0.1
333.15	0.9899	1004.2	0.1
333.15	1	983.2	0.1
