Measured thermophysical data. Thermodynamic properties of 2-methyl lactic acid
Source: J. Chem. Thermodyn., 2018, 10.1016/j.jct.2018.07.017
Compound 1: carbon dioxide, CO2, InChI=1S/CO2/c2-1-3
Compound 2: water, H2O, InChI=1S/H2O/h1H2
Compound 3: oxygen, O2, InChI=1S/O2/c1-2
Compound 4: 2-hydroxy-2-methylpropanoic acid, C4H8O3, InChI=1S/C4H8O3/c1-4(2,7)3(5)6/h7H,1-2H3,(H,5,6)

System: 2-hydroxy-2-methylpropanoic acid; phases: Crystal
Property: Mass density, kg/m3 (Crystal); method: Pycnometric method
Temperature, K	Pressure, kPa	Mass density, kg/m3	uncertainty
293	101.325	1240	400

System: 2-hydroxy-2-methylpropanoic acid; phases: Crystal, Liquid, Air at 1 atmosphere
Property: Normal melting temperature, K (Crystal); method: DTA
Normal melting temperature, K	uncertainty
348	1.1

System: 2-hydroxy-2-methylpropanoic acid; phases: Crystal, Liquid, Air at 1 atmosphere
Property: Molar enthalpy of transition or fusion, kJ/mol (Crystal); method: DSC
Molar enthalpy of transition or fusion, kJ/mol	uncertainty
17.6	0.6

System: 2-hydroxy-2-methylpropanoic acid; phases: Crystal, Gas
Property: Vapor or sublimation pressure, kPa (Crystal); method: Transpiration method
Temperature, K	Vapor or sublimation pressure, kPa	uncertainty
313.3	0.005081	0.000372
318.2	0.008221	0.000574
323.2	0.01418	0.00095
328.1	0.02187	0.00145
333.1	0.03606	0.00235
338.1	0.05555	0.0036
343.1	0.08884	0.00575
347.8	0.139	0.0088

System: 2-hydroxy-2-methylpropanoic acid; phases: Liquid, Gas
Property: Vapor or sublimation pressure, kPa (Liquid); method: Transpiration method
Temperature, K	Vapor or sublimation pressure, kPa	uncertainty
356	0.27239	0.01717
359.8	0.34628	0.02173
363.7	0.44794	0.02804
367.7	0.5693	0.03547
369.3	0.62413	0.03902
371.7	0.72114	0.04487
373	0.76637	0.0477
375.6	0.88145	0.05501
377.1	0.98241	0.06116
379.5	1.0929	0.0676
379.6	1.0972	0.0679

Reaction: -1 2-hydroxy-2-methylpropanoic acid + 4 carbon dioxide + 4 water + -4.5 oxygen
Property: Specific internal energy of reaction at constant volume, J/g
-18915.4
