Measured thermophysical data. Vapor pressures and sublimation enthalpies of seven heteroatomic aromatic hydrocarbons measured using the Knudsen effusion technique
Source: J. Chem. Thermodyn., 2010, 10.1016/j.jct.2010.01.014
Compound 1: 9(9H)-fluorenone, C13H8O, InChI=1S/C13H8O/c14-13-11-7-3-1-5-9(11)10-6-2-4-8-12(10)13/h1-8H, purity 98%
Compound 2: 9H-fluoren-9-ol, C13H10O, InChI=1S/C13H10O/c14-13-11-7-3-1-5-9(11)10-6-2-4-8-12(10)13/h1-8,13-14H, purity 95%
Compound 3: 9-oximinofluorene, C13H9NO, InChI=1S/C13H9NO/c15-14-13-11-7-3-1-5-9(11)10-6-2-4-8-12(10)13/h1-8,15H, purity 97%
Compound 4: 9H-pyrido[3,4-b]indole, C11H8N2, InChI=1S/C11H8N2/c1-2-4-10-8(3-1)9-5-6-12-7-11(9)13-10/h1-7,13H, purity 98%
Compound 5: 9,10(9H,10H)-anthracenedione, C14H8O2, InChI=1S/C14H8O2/c15-13-9-5-1-2-6-10(9)14(16)12-8-4-3-7-11(12)13/h1-8H, purity 98%
Compound 6: phenoxazine, C12H9NO, InChI=1S/C12H9NO/c1-3-7-11-9(5-1)13-10-6-2-4-8-12(10)14-11/h1-8,13H, purity 95%
Compound 7: phenoxathiin, C12H8OS, InChI=1S/C12H8OS/c1-3-7-11-9(5-1)13-10-6-2-4-8-12(10)14-11/h1-8H, purity 98%

System: 9(9H)-fluorenone; phases: Crystal, Gas
Property: Vapor or sublimation pressure, kPa (Crystal); method: Calculated from knudsen effusion weight loss
Temperature, K	Vapor or sublimation pressure, kPa	uncertainty
300.8	1.21e-05	4.9e-06
303.6	1.69e-05	6.8e-06
307.9	2.79e-05	1.13e-05
309.8	3.65e-05	1.48e-05
313	5.1e-05	2.06e-05
313.1	5.09e-05	2.05e-05
315.1	6.16e-05	2.5e-05
323	0.000139	5.6e-05
323.1	0.000143	5.8e-05
324.5	0.000159	6.4e-05
324.7	0.000167	6.8e-05
328.4	0.000246	9.9e-05
328.6	0.000245	9.9e-05
330.9	0.000311	0.000125
331.1	0.000319	0.000129
331.9	0.000345	0.000139
336.5	0.000528	0.000213
336.6	0.00054	0.000218
337.8	0.000596	0.00024
337.9	0.000599	0.000242
342.7	0.000937	0.000377
342.8	0.000952	0.000383

System: 9H-fluoren-9-ol; phases: Crystal, Gas
Property: Vapor or sublimation pressure, kPa (Crystal); method: Calculated from knudsen effusion weight loss
Temperature, K	Vapor or sublimation pressure, kPa	uncertainty
326.1	2.1e-05	2.4e-06
327.5	2.44e-05	2.8e-06
329.8	3.15e-05	3.6e-06
331.3	3.74e-05	4.3e-06
334.9	5.12e-05	6.1e-06
340.9	0.000101	1.1e-05
342.6	0.000115	1.3e-05
343.6	0.000123	1.4e-05
344.7	0.000144	1.6e-05
346.1	0.000159	1.8e-05
347.4	0.000186	2.2e-05
351.2	0.000276	3.1e-05
355.1	0.000402	4.5e-05
358.7	0.00056	6.3e-05
361.9	0.00074	8.3e-05
366.1	0.00103	0.00013

System: 9-oximinofluorene; phases: Crystal, Gas
Property: Vapor or sublimation pressure, kPa (Crystal); method: Calculated from knudsen effusion weight loss
Temperature, K	Vapor or sublimation pressure, kPa	uncertainty
374.5	0.000175	1.9e-05
376.6	0.000198	2.2e-05
378.5	0.000231	2.5e-05
382.6	0.000302	3.4e-05
383.2	0.000317	3.5e-05
386.2	0.000385	4.2e-05
387.9	0.000428	4.6e-05
389.9	0.000474	5.2e-05
393.8	0.000613	6.7e-05
395.2	0.000671	7.3e-05
398.6	0.000816	8.8e-05

System: 9H-pyrido[3,4-b]indole; phases: Crystal, Gas
Property: Vapor or sublimation pressure, kPa (Crystal); method: Calculated from knudsen effusion weight loss
Temperature, K	Vapor or sublimation pressure, kPa	uncertainty
352.8	5.7e-06	7.4e-07
363.8	1.74e-05	1.9e-06
367.9	2.56e-05	2.9e-06
368.1	2.72e-05	3.1e-06
370.3	3.37e-05	3.9e-06
371.4	4.16e-05	4.7e-06
371.5	4.16e-05	4.7e-06
374.1	5.03e-05	5.7e-06
374.4	5.45e-05	6.1e-06
378.2	7.53e-05	8.4e-06
381.8	0.000103	1.2e-05
382	0.000107	1.2e-05
382.2	0.000108	1.2e-05
385.4	0.000141	1.9e-05
385.9	0.000155	2e-05
389.2	0.000218	2.4e-05
389.4	0.000229	2.6e-05

System: 9,10(9H,10H)-anthracenedione; phases: Crystal, Gas
Property: Vapor or sublimation pressure, kPa (Crystal); method: Calculated from knudsen effusion weight loss
Temperature, K	Vapor or sublimation pressure, kPa	uncertainty
346	4.49e-06	6.7e-07
359.9	2.09e-05	2.3e-06
360.9	2.2e-05	2.4e-06
362.7	2.52e-05	2.9e-06
367.4	4.1e-05	4.6e-06
369.9	5.42e-05	6.5e-06
377.6	0.000119	1.4e-05
379.2	0.000144	1.6e-05
380.1	0.000149	1.6e-05
385.4	0.000267	3e-05
385.8	0.000263	3.3e-05
386.8	0.000305	3.6e-05
392.7	0.000493	5.4e-05
392.8	0.000494	5.5e-05
393.4	0.000519	5.8e-05
399.2	0.000872	0.000102
399.9	0.000948	0.00011

System: phenoxazine; phases: Crystal, Gas
Property: Vapor or sublimation pressure, kPa (Crystal); method: Calculated from knudsen effusion weight loss
Temperature, K	Vapor or sublimation pressure, kPa	uncertainty
329.7	2.81e-05	3.5e-06
336.7	5.94e-05	6.8e-06
340.9	0.000102	1.2e-05
340.9	0.000102	1.2e-05
344.9	0.000164	1.9e-05
345.1	0.000164	1.8e-05
346.9	0.000196	2.2e-05
348.2	0.00022	2.5e-05
352.9	0.000345	3.9e-05
353.1	0.000363	4e-05
356.7	0.000483	5.5e-05
360.9	0.000748	8.5e-05
364.5	0.00107	0.00014

System: phenoxathiin; phases: Crystal, Gas
Property: Vapor or sublimation pressure, kPa (Crystal); method: Calculated from knudsen effusion weight loss
Temperature, K	Vapor or sublimation pressure, kPa	uncertainty
304.2	8.61e-05	1.04e-05
308.7	0.000143	1.7e-05
311.4	0.000209	2.3e-05
311.5	0.000207	2.6e-05
311.9	0.000217	2.4e-05
318.2	0.000453	5.2e-05
323	0.000771	8.7e-05
324.5	0.000927	0.000107
