Measured thermophysical data. Solubilities of CO2 in, densities and kinematic viscosities of poly(propylene glycol) diglycidyl ether and poly(ethylene glycol) monooleate
Source: J. Chem. Thermodyn., 2019, 10.1016/j.jct.2018.09.031
Compound 1: 1,2-ethanediol, C2H6O2, InChI=1S/C2H6O2/c3-1-2-4/h3-4H,1-2H2, purity 99.5%

System: 1,2-ethanediol; phases: Liquid
Fixed: Pressure, kPa = 101.325
Property: Mass density, kg/m3 (Liquid); method: Pycnometric method
Temperature, K	Mass density, kg/m3	uncertainty
273.15	1127.43	6.32
283.15	1120.35	6.28
293.15	1113.25	6.24
303.15	1106.26	6.2
313.15	1099.2	6.17
323.15	1092.07	6.13
333.15	1084.84	6.09

System: 1,2-ethanediol; phases: Liquid
Fixed: Pressure, kPa = 101.325
Property: Kinematic viscosity, m2/s (Liquid); method: Capillary tube (Ostwald; Ubbelohde) method
Temperature, K	Kinematic viscosity, m2/s	uncertainty
273.15	5.096e-05	1.54e-06
283.15	2.958e-05	9e-07
293.15	1.921e-05	5.9e-07
303.15	1.284e-05	3.9e-07
313.15	8.8e-06	2.68e-07
323.15	6.216e-06	1.9e-07
333.15	4.601e-06	1.41e-07
