Measured thermophysical data. Volumetric properties for glycine and L-serine in aqueous solutions of 1-Ethyl-3-methylimidazolium hydrogen sulfate ([Emim][HSO4]) at T = (293.15-313.15) K and ambient pressure
Source: J. Chem. Thermodyn., 2016, 10.1016/j.jct.2016.07.046
Compound 1: 2-aminoacetic acid, C2H5NO2, InChI=1S/C2H5NO2/c3-1-2(4)5/h1,3H2,(H,4,5), purity 99.5%
Compound 2: L-serine, C3H7NO3, InChI=1S/C3H7NO3/c4-2(1-5)3(6)7/h2,5H,1,4H2,(H,6,7)/t2-/m0/s1, purity 99.5%
Compound 3: 1-ethyl-3-methylimidazolium hydrogen sulfate, C6H12N2O4S, InChI=1S/C6H11N2.H2O4S/c1-3-8-5-4-7(2)6-8;1-5(2,3)4/h4-6H,3H2,1-2H3;(H2,1,2,3,4)/q+1;/p-1, purity 98%
Compound 4: water, H2O, InChI=1S/H2O/h1H2

System: water; phases: Liquid
Fixed: Pressure, kPa = 87
Property: Mass density, kg/m3 (Liquid); method: Vibrating tube method
Temperature, K	Mass density, kg/m3	uncertainty
293.15	998.22	3
298.15	997.06	3
303.15	995.66	3
308.15	994.05	3
313.15	992.21	3

System: 2-aminoacetic acid + water; phases: Liquid
Fixed: Pressure, kPa = 87
Property: Mass density, kg/m3 (Liquid); method: Vibrating tube method
Temperature, K	Molality, mol/kg of 2-aminoacetic acid	Mass density, kg/m3	uncertainty
293.15	0	998.22	3
293.15	0.0547	999.97	3
293.15	0.1057	1001.59	3
293.15	0.1546	1003.13	3
293.15	0.2061	1004.74	3
293.15	0.2531	1006.2	3
293.15	0.3046	1007.78	3
293.15	0.3538	1009.28	3
293.15	0.403	1010.77	3
293.15	0.452	1012.24	3
293.15	0.499	1013.64	3
298.15	0	997.06	3
298.15	0.0547	998.8	3
298.15	0.1057	1000.41	3
298.15	0.1546	1001.94	3
298.15	0.2061	1003.54	3
298.15	0.2531	1004.99	3
298.15	0.3046	1006.56	3
298.15	0.3538	1008.06	3
298.15	0.403	1009.54	3
298.15	0.452	1011	3
298.15	0.499	1012.39	3
303.15	0	995.66	3
303.15	0.0547	997.39	3
303.15	0.1057	998.99	3
303.15	0.1546	1000.51	3
303.15	0.2061	1002.1	3
303.15	0.2531	1003.53	3
303.15	0.3046	1005.09	3
303.15	0.3538	1006.57	3
303.15	0.403	1008.04	3
303.15	0.452	1009.48	3
303.15	0.499	1010.86	3
308.15	0	994.05	3
308.15	0.0547	995.77	3
308.15	0.1057	997.36	3
308.15	0.1546	998.87	3
308.15	0.2061	1000.45	3
308.15	0.2531	1001.88	3
308.15	0.3046	1003.42	3
308.15	0.3538	1004.89	3
308.15	0.403	1006.35	3
308.15	0.452	1007.78	3
308.15	0.499	1009.14	3
313.15	0	992.21	3
313.15	0.0547	993.92	3
313.15	0.1057	995.5	3
313.15	0.1546	997	3
313.15	0.2061	998.57	3
313.15	0.2531	999.99	3
313.15	0.3046	1001.53	3
313.15	0.3538	1002.98	3
313.15	0.403	1004.43	3
313.15	0.452	1005.86	3
313.15	0.499	1007.22	3

System: L-serine + water; phases: Liquid
Fixed: Pressure, kPa = 87
Property: Mass density, kg/m3 (Liquid); method: Vibrating tube method
Temperature, K	Molality, mol/kg of L-serine	Mass density, kg/m3	uncertainty
293.15	0	998.22	3
293.15	0.0529	1000.59	3
293.15	0.1005	1002.7	3
293.15	0.1529	1005	3
293.15	0.2024	1007.15	3
293.15	0.2541	1009.38	3
293.15	0.3019	1011.42	3
293.15	0.3525	1013.56	3
293.15	0.4023	1015.65	3
293.15	0.4535	1017.77	3
293.15	0.5008	1019.72	3
298.15	0	997.06	3
298.15	0.0529	999.41	3
298.15	0.1005	1001.5	3
298.15	0.1529	1003.78	3
298.15	0.2024	1005.92	3
298.15	0.2541	1008.13	3
298.15	0.3019	1010.15	3
298.15	0.3525	1012.27	3
298.15	0.4023	1014.34	3
298.15	0.4535	1016.44	3
298.15	0.5008	1018.37	3
303.15	0	995.66	3
303.15	0.0529	997.99	3
303.15	0.1005	1000.06	3
303.15	0.1529	1002.33	3
303.15	0.2024	1004.45	3
303.15	0.2541	1006.64	3
303.15	0.3019	1008.65	3
303.15	0.3525	1010.76	3
303.15	0.4023	1012.81	3
303.15	0.4535	1014.9	3
303.15	0.5008	1016.82	3
308.15	0	994.05	3
308.15	0.0529	996.36	3
308.15	0.1005	998.42	3
308.15	0.1529	1000.67	3
308.15	0.2024	1002.77	3
308.15	0.2541	1004.94	3
308.15	0.3019	1006.94	3
308.15	0.3525	1009.04	3
308.15	0.4023	1011.08	3
308.15	0.4535	1013.16	3
308.15	0.5008	1015.07	3
313.15	0	992.21	3
313.15	0.0529	994.5	3
313.15	0.1005	996.54	3
313.15	0.1529	998.77	3
313.15	0.2024	1000.85	3
313.15	0.2541	1003.01	3
313.15	0.3019	1004.99	3
313.15	0.3525	1007.07	3
313.15	0.4023	1009.11	3
313.15	0.4535	1011.18	3
313.15	0.5008	1013.07	3

System: 2-aminoacetic acid + water + 1-ethyl-3-methylimidazolium hydrogen sulfate; phases: Liquid
Fixed: Pressure, kPa = 87
Property: Mass density, kg/m3 (Liquid); method: Vibrating tube method
Temperature, K	Molality, mol/kg of 2-aminoacetic acid	Solvent: Molality, mol/kg of 1-ethyl-3-methylimidazolium hydrogen sulfate	Mass density, kg/m3	uncertainty
293.15	0	0.05	1001.85	3.01
293.15	0.051	0.05	1003.52	3.01
293.15	0.1045	0.05	1005.25	3.01
293.15	0.1538	0.05	1006.83	3.01
293.15	0.1958	0.05	1008.16	3.01
293.15	0.2475	0.05	1009.78	3.01
293.15	0.3046	0.05	1011.54	3.01
293.15	0.353	0.05	1013.02	3.01
293.15	0.4062	0.05	1014.63	3.01
293.15	0.4533	0.05	1016.04	3.01
293.15	0.495	0.05	1017.27	3.01
298.15	0	0.05	1000.62	3.01
298.15	0.051	0.05	1002.28	3.01
298.15	0.1045	0.05	1004	3.01
298.15	0.1538	0.05	1005.57	3.01
298.15	0.1958	0.05	1006.89	3.01
298.15	0.2475	0.05	1008.5	3.01
298.15	0.3046	0.05	1010.25	3.01
298.15	0.353	0.05	1011.71	3.01
298.15	0.4062	0.05	1013.3	3.01
298.15	0.4533	0.05	1014.7	3.01
298.15	0.495	0.05	1015.92	3.01
303.15	0	0.05	999.15	3.01
303.15	0.051	0.05	1000.8	3.01
303.15	0.1045	0.05	1002.51	3.01
303.15	0.1538	0.05	1004.07	3.01
303.15	0.1958	0.05	1005.38	3.01
303.15	0.2475	0.05	1006.98	3.01
303.15	0.3046	0.05	1008.72	3.01
303.15	0.353	0.05	1010.18	3.01
303.15	0.4062	0.05	1011.76	3.01
303.15	0.4533	0.05	1013.15	3.01
303.15	0.495	0.05	1014.37	3.01
308.15	0	0.05	997.45	3.01
308.15	0.051	0.05	999.09	3.01
308.15	0.1045	0.05	1000.79	3.01
308.15	0.1538	0.05	1002.34	3.01
308.15	0.1958	0.05	1003.65	3.01
308.15	0.2475	0.05	1005.24	3.01
308.15	0.3046	0.05	1006.97	3.01
308.15	0.353	0.05	1008.43	3.01
308.15	0.4062	0.05	1010.01	3.01
308.15	0.4533	0.05	1011.39	3.01
308.15	0.495	0.05	1012.6	3.01
313.15	0	0.05	995.6	3.01
313.15	0.051	0.05	997.23	3.01
313.15	0.1045	0.05	998.92	3.01
313.15	0.1538	0.05	1000.46	3.01
313.15	0.1958	0.05	1001.76	3.01
313.15	0.2475	0.05	1003.34	3.01
313.15	0.3046	0.05	1005.07	3.01
313.15	0.353	0.05	1006.52	3.01
313.15	0.4062	0.05	1008.09	3.01
313.15	0.4533	0.05	1009.47	3.01
313.15	0.495	0.05	1010.67	3.01
293.15	0	0.1	1005.19	3.01
293.15	0.0523	0.1	1006.98	3.01
293.15	0.101	0.1	1008.62	3.01
293.15	0.1513	0.1	1010.29	3.01
293.15	0.2024	0.1	1011.96	3.01
293.15	0.2487	0.1	1013.44	3.01
293.15	0.304	0.1	1015.18	3.01
293.15	0.3518	0.1	1016.66	3.01
293.15	0.4029	0.1	1018.21	3.01
293.15	0.4522	0.1	1019.68	3.01
293.15	0.5008	0.1	1021.12	3.01
298.15	0	0.1	1003.89	3.01
298.15	0.0523	0.1	1005.67	3.01
298.15	0.101	0.1	1007.3	3.01
298.15	0.1513	0.1	1008.96	3.01
298.15	0.2024	0.1	1010.62	3.01
298.15	0.2487	0.1	1012.1	3.01
298.15	0.304	0.1	1013.83	3.01
298.15	0.3518	0.1	1015.3	3.01
298.15	0.4029	0.1	1016.84	3.01
298.15	0.4522	0.1	1018.3	3.01
298.15	0.5008	0.1	1019.73	3.01
303.15	0	0.1	1002.36	3.01
303.15	0.0523	0.1	1004.13	3.01
303.15	0.101	0.1	1005.75	3.01
303.15	0.1513	0.1	1007.4	3.01
303.15	0.2024	0.1	1009.05	3.01
303.15	0.2487	0.1	1010.52	3.01
303.15	0.304	0.1	1012.25	3.01
303.15	0.3518	0.1	1013.71	3.01
303.15	0.4029	0.1	1015.24	3.01
303.15	0.4522	0.1	1016.7	3.01
303.15	0.5008	0.1	1018.12	3.01
308.15	0	0.1	1000.61	3.01
308.15	0.0523	0.1	1002.37	3.01
308.15	0.101	0.1	1003.98	3.01
308.15	0.1513	0.1	1005.62	3.01
308.15	0.2024	0.1	1007.26	3.01
308.15	0.2487	0.1	1008.72	3.01
308.15	0.304	0.1	1010.44	3.01
308.15	0.3518	0.1	1011.9	3.01
308.15	0.4029	0.1	1013.42	3.01
308.15	0.4522	0.1	1014.88	3.01
308.15	0.5008	0.1	1016.29	3.01
313.15	0	0.1	998.69	3.01
313.15	0.0523	0.1	1000.44	3.01
313.15	0.101	0.1	1002.04	3.01
313.15	0.1513	0.1	1003.67	3.01
313.15	0.2024	0.1	1005.3	3.01
313.15	0.2487	0.1	1006.75	3.01
313.15	0.304	0.1	1008.46	3.01
313.15	0.3518	0.1	1009.91	3.01
313.15	0.4029	0.1	1011.43	3.01
313.15	0.4522	0.1	1012.89	3.01
313.15	0.5008	0.1	1014.29	3.01
293.15	0	0.15	1008.26	3.01
293.15	0.053	0.15	1010.16	3.01
293.15	0.102	0.15	1011.88	3.01
293.15	0.1521	0.15	1013.6	3.01
293.15	0.2018	0.15	1015.26	3.01
293.15	0.2493	0.15	1016.81	3.01
293.15	0.3055	0.15	1018.61	3.01
293.15	0.3517	0.15	1020.05	3.01
293.15	0.4053	0.15	1021.68	3.01
293.15	0.4502	0.15	1023	3.01
293.15	0.5033	0.15	1024.56	3.01
298.15	0	0.15	1006.91	3.01
298.15	0.053	0.15	1008.8	3.01
298.15	0.102	0.15	1010.51	3.01
298.15	0.1521	0.15	1012.22	3.01
298.15	0.2018	0.15	1013.88	3.01
298.15	0.2493	0.15	1015.42	3.01
298.15	0.3055	0.15	1017.2	3.01
298.15	0.3517	0.15	1018.64	3.01
298.15	0.4053	0.15	1020.26	3.01
298.15	0.4502	0.15	1021.58	3.01
298.15	0.5033	0.15	1023.12	3.01
303.15	0	0.15	1005.32	3.01
303.15	0.053	0.15	1007.2	3.01
303.15	0.102	0.15	1008.9	3.01
303.15	0.1521	0.15	1010.6	3.01
303.15	0.2018	0.15	1012.25	3.01
303.15	0.2493	0.15	1013.79	3.01
303.15	0.3055	0.15	1015.56	3.01
303.15	0.3517	0.15	1016.98	3.01
303.15	0.4053	0.15	1018.6	3.01
303.15	0.4502	0.15	1019.91	3.01
303.15	0.5033	0.15	1021.45	3.01
308.15	0	0.15	1003.53	3.01
308.15	0.053	0.15	1005.4	3.01
308.15	0.102	0.15	1007.09	3.01
308.15	0.1521	0.15	1008.78	3.01
308.15	0.2018	0.15	1010.42	3.01
308.15	0.2493	0.15	1011.95	3.01
308.15	0.3055	0.15	1013.72	3.01
308.15	0.3517	0.15	1015.13	3.01
308.15	0.4053	0.15	1016.75	3.01
308.15	0.4502	0.15	1018.05	3.01
308.15	0.5033	0.15	1019.58	3.01
313.15	0	0.15	1001.51	3.01
313.15	0.053	0.15	1003.37	3.01
313.15	0.102	0.15	1005.05	3.01
313.15	0.1521	0.15	1006.73	3.01
313.15	0.2018	0.15	1008.36	3.01
313.15	0.2493	0.15	1009.89	3.01
313.15	0.3055	0.15	1011.65	3.01
313.15	0.3517	0.15	1013.06	3.01
313.15	0.4053	0.15	1014.65	3.01
313.15	0.4502	0.15	1015.96	3.01
313.15	0.5033	0.15	1017.48	3.01

System: L-serine + water + 1-ethyl-3-methylimidazolium hydrogen sulfate; phases: Liquid
Fixed: Pressure, kPa = 87
Property: Mass density, kg/m3 (Liquid); method: Vibrating tube method
Temperature, K	Molality, mol/kg of L-serine	Solvent: Molality, mol/kg of 1-ethyl-3-methylimidazolium hydrogen sulfate	Mass density, kg/m3	uncertainty
293.15	0	0.05	1001.85	3.01
293.15	0.0526	0.05	1004.23	3.01
293.15	0.1011	0.05	1006.4	3.01
293.15	0.1516	0.05	1008.63	3.01
293.15	0.2011	0.05	1010.79	3.01
293.15	0.2517	0.05	1012.97	3.01
293.15	0.2971	0.05	1014.91	3.01
293.15	0.3461	0.05	1016.98	3.01
293.15	0.4079	0.05	1019.56	3.01
293.15	0.4498	0.05	1021.29	3.01
293.15	0.4981	0.05	1023.26	3.01
298.15	0	0.05	1000.62	3.01
298.15	0.0526	0.05	1002.99	3.01
298.15	0.1011	0.05	1005.15	3.01
298.15	0.1516	0.05	1007.37	3.01
298.15	0.2011	0.05	1009.52	3.01
298.15	0.2517	0.05	1011.69	3.01
298.15	0.2971	0.05	1013.62	3.01
298.15	0.3461	0.05	1015.67	3.01
298.15	0.4079	0.05	1018.22	3.01
298.15	0.4498	0.05	1019.93	3.01
298.15	0.4981	0.05	1021.9	3.01
303.15	0	0.05	999.15	3.01
303.15	0.0526	0.05	1001.51	3.01
303.15	0.1011	0.05	1003.66	3.01
303.15	0.1516	0.05	1005.87	3.01
303.15	0.2011	0.05	1008.01	3.01
303.15	0.2517	0.05	1010.17	3.01
303.15	0.2971	0.05	1012.08	3.01
303.15	0.3461	0.05	1014.12	3.01
303.15	0.4079	0.05	1016.67	3.01
303.15	0.4498	0.05	1018.38	3.01
303.15	0.4981	0.05	1020.33	3.01
308.15	0.0526	0.05	999.8	3.01
308.15	0.1011	0.05	1001.94	3.01
308.15	0.1516	0.05	1004.14	3.01
308.15	0.2011	0.05	1006.27	3.01
308.15	0.2517	0.05	1008.42	3.01
308.15	0.2971	0.05	1010.33	3.01
308.15	0.3461	0.05	1012.36	3.01
308.15	0.4079	0.05	1014.9	3.01
308.15	0.4498	0.05	1016.59	3.01
308.15	0.4981	0.05	1018.54	3.01
313.15	0	0.05	995.6	3.01
313.15	0.0526	0.05	997.94	3.01
313.15	0.1011	0.05	1000.07	3.01
313.15	0.1516	0.05	1002.26	3.01
313.15	0.2011	0.05	1004.38	3.01
313.15	0.2517	0.05	1006.52	3.01
313.15	0.2971	0.05	1008.41	3.01
313.15	0.3461	0.05	1010.43	3.01
313.15	0.4079	0.05	1012.95	3.01
313.15	0.4498	0.05	1014.64	3.01
313.15	0.4981	0.05	1016.57	3.01
293.15	0	0.1	1005.19	3.01
293.15	0.051	0.1	1007.51	3.01
293.15	0.1014	0.1	1009.78	3.01
293.15	0.1571	0.1	1012.27	3.01
293.15	0.2034	0.1	1014.31	3.01
293.15	0.2516	0.1	1016.42	3.01
293.15	0.3017	0.1	1018.59	3.01
293.15	0.3505	0.1	1020.69	3.01
293.15	0.4028	0.1	1022.92	3.01
293.15	0.45	0.1	1024.9	3.01
293.15	0.5006	0.1	1027.01	3.01
298.15	0	0.1	1003.89	3.01
298.15	0.051	0.1	1006.2	3.01
298.15	0.1014	0.1	1008.46	3.01
298.15	0.1571	0.1	1010.94	3.01
298.15	0.2034	0.1	1012.98	3.01
298.15	0.2516	0.1	1015.08	3.01
298.15	0.3017	0.1	1017.25	3.01
298.15	0.3505	0.1	1019.34	3.01
298.15	0.4028	0.1	1021.55	3.01
298.15	0.45	0.1	1023.53	3.01
298.15	0.5006	0.1	1025.64	3.01
303.15	0	0.1	1002.36	3.01
303.15	0.051	0.1	1004.66	3.01
303.15	0.1014	0.1	1006.91	3.01
303.15	0.1571	0.1	1009.38	3.01
303.15	0.2034	0.1	1011.41	3.01
303.15	0.2516	0.1	1013.51	3.01
303.15	0.3017	0.1	1015.66	3.01
303.15	0.3505	0.1	1017.75	3.01
303.15	0.4028	0.1	1019.96	3.01
303.15	0.45	0.1	1021.93	3.01
303.15	0.5006	0.1	1024.02	3.01
308.15	0	0.1	1000.61	3.01
308.15	0.051	0.1	1002.9	3.01
308.15	0.1014	0.1	1005.14	3.01
308.15	0.1571	0.1	1007.6	3.01
308.15	0.2034	0.1	1009.62	3.01
308.15	0.2516	0.1	1011.71	3.01
308.15	0.3017	0.1	1013.86	3.01
308.15	0.3505	0.1	1015.94	3.01
308.15	0.4028	0.1	1018.14	3.01
308.15	0.45	0.1	1020.12	3.01
308.15	0.5006	0.1	1022.21	3.01
313.15	0	0.1	998.69	3.01
313.15	0.051	0.1	1000.97	3.01
313.15	0.1014	0.1	1003.2	3.01
313.15	0.1571	0.1	1005.65	3.01
313.15	0.2034	0.1	1007.67	3.01
313.15	0.2516	0.1	1009.75	3.01
313.15	0.3017	0.1	1011.9	3.01
313.15	0.3505	0.1	1013.97	3.01
313.15	0.4028	0.1	1016.18	3.01
313.15	0.45	0.1	1018.15	3.01
313.15	0.5006	0.1	1020.24	3.01
293.15	0	0.15	1008.26	3.01
293.15	0.0536	0.15	1010.75	3.01
293.15	0.1009	0.15	1012.93	3.01
293.15	0.1517	0.15	1015.25	3.01
293.15	0.201	0.15	1017.48	3.01
293.15	0.2531	0.15	1019.81	3.01
293.15	0.3022	0.15	1021.99	3.01
293.15	0.35	0.15	1024.1	3.01
293.15	0.4001	0.15	1026.28	3.01
293.15	0.4531	0.15	1028.56	3.01
293.15	0.5012	0.15	1030.62	3.01
298.15	0	0.15	1006.91	3.01
298.15	0.0536	0.15	1009.39	3.01
298.15	0.1009	0.15	1011.56	3.01
298.15	0.1517	0.15	1013.87	3.01
298.15	0.201	0.15	1016.09	3.01
298.15	0.2531	0.15	1018.42	3.01
298.15	0.3022	0.15	1020.59	3.01
298.15	0.35	0.15	1022.69	3.01
298.15	0.4001	0.15	1024.87	3.01
298.15	0.4531	0.15	1027.15	3.01
298.15	0.5012	0.15	1029.2	3.01
303.15	0	0.15	1005.32	3.01
303.15	0.0536	0.15	1007.79	3.01
303.15	0.1009	0.15	1009.95	3.01
303.15	0.1517	0.15	1012.25	3.01
303.15	0.201	0.15	1014.46	3.01
303.15	0.2531	0.15	1016.78	3.01
303.15	0.3022	0.15	1018.95	3.01
303.15	0.35	0.15	1021.04	3.01
303.15	0.4001	0.15	1023.21	3.01
303.15	0.4531	0.15	1025.49	3.01
303.15	0.5012	0.15	1027.54	3.01
308.15	0	0.15	1003.53	3.01
308.15	0.0536	0.15	1005.99	3.01
308.15	0.1009	0.15	1008.14	3.01
308.15	0.1517	0.15	1010.43	3.01
308.15	0.201	0.15	1012.64	3.01
308.15	0.2531	0.15	1014.95	3.01
308.15	0.3022	0.15	1017.11	3.01
308.15	0.35	0.15	1019.2	3.01
308.15	0.4001	0.15	1021.36	3.01
308.15	0.4531	0.15	1023.64	3.01
308.15	0.5012	0.15	1025.69	3.01
313.15	0	0.15	1001.51	3.01
313.15	0.0536	0.15	1003.96	3.01
313.15	0.1009	0.15	1006.1	3.01
313.15	0.1517	0.15	1008.38	3.01
313.15	0.201	0.15	1010.58	3.01
313.15	0.2531	0.15	1012.89	3.01
313.15	0.3022	0.15	1015.04	3.01
313.15	0.35	0.15	1017.12	3.01
313.15	0.4001	0.15	1019.28	3.01
313.15	0.4531	0.15	1021.54	3.01
313.15	0.5012	0.15	1023.59	3.01

System: water + 1-ethyl-3-methylimidazolium hydrogen sulfate; phases: Liquid
Fixed: Pressure, kPa = 87
Property: Mass density, kg/m3 (Liquid); method: Vibrating tube method
Temperature, K	Molality, mol/kg of 1-ethyl-3-methylimidazolium hydrogen sulfate	Mass density, kg/m3	uncertainty
293.15	0.05	1001.85	3
298.15	0.05	1000.62	3
303.15	0.05	999.15	3
308.15	0.05	997.45	3
313.15	0.05	995.6	3
293.15	0.1	1005.19	3
298.15	0.1	1003.89	3
303.15	0.1	1002.36	3
308.15	0.1	1000.61	3
313.15	0.1	998.69	3
293.15	0.15	1008.26	3
298.15	0.15	1006.91	3
303.15	0.15	1005.32	3
308.15	0.15	1003.53	3
313.15	0.15	1001.51	3
