Measured thermophysical data. Solid-liquid phase equilibria of (n-octadecane with myristic, and palmitic acid) binary mixtures used as phase change materials (PCMs)
Source: J. Chem. Thermodyn., 2016, 10.1016/j.jct.2016.05.008
Compound 1: octadecane, C18H38, InChI=1S/C18H38/c1-3-5-7-9-11-13-15-17-18-16-14-12-10-8-6-4-2/h3-18H2,1-2H3, purity 99%
Compound 2: tetradecanoic acid, C14H28O2, InChI=1S/C14H28O2/c1-2-3-4-5-6-7-8-9-10-11-12-13-14(15)16/h2-13H2,1H3,(H,15,16), purity 99%
Compound 3: hexadecanoic acid, C16H32O2, InChI=1S/C16H32O2/c1-2-3-4-5-6-7-8-9-10-11-12-13-14-15-16(17)18/h2-15H2,1H3,(H,17,18), purity 99.5%

System: octadecane; phases: Crystal, Liquid, Air at 1 atmosphere
Property: Molar enthalpy of transition or fusion, kJ/mol (Crystal); method: DSC
Molar enthalpy of transition or fusion, kJ/mol	uncertainty
61.65	2.73

System: octadecane; phases: Crystal, Liquid, Air at 1 atmosphere
Property: Normal melting temperature, K (Crystal); method: DTA
Normal melting temperature, K	uncertainty
300.95	0.53

System: tetradecanoic acid; phases: Crystal, Liquid, Air at 1 atmosphere
Property: Molar enthalpy of transition or fusion, kJ/mol (Crystal); method: DSC
Molar enthalpy of transition or fusion, kJ/mol	uncertainty
44.75	1.99

System: tetradecanoic acid; phases: Crystal, Liquid, Air at 1 atmosphere
Property: Normal melting temperature, K (Crystal); method: DTA
Normal melting temperature, K	uncertainty
327.15	0.53

System: hexadecanoic acid; phases: Crystal, Liquid, Air at 1 atmosphere
Property: Molar enthalpy of transition or fusion, kJ/mol (Crystal); method: DSC
Molar enthalpy of transition or fusion, kJ/mol	uncertainty
52.55	2.33

System: hexadecanoic acid; phases: Crystal, Liquid, Air at 1 atmosphere
Property: Normal melting temperature, K (Crystal); method: DTA
Normal melting temperature, K	uncertainty
335.15	0.53

System: tetradecanoic acid + octadecane; phases: Liquid, Crystal, Crystal, Air at 1 atmosphere
Property: Eutectic temperature, K (Liquid); method: DTA
Eutectic temperature, K	uncertainty
299.48	0.53

System: tetradecanoic acid + octadecane; phases: Liquid, Crystal
Fixed: Pressure, kPa = 100
Property: Solid-liquid equilibrium temperature, K (Liquid); method: DTA
Mole fraction of octadecane	Solid-liquid equilibrium temperature, K	uncertainty
0	327.15	0.53
0.09571	325.45	0.53
0.1989	322.95	0.53
0.2974	321.05	0.53
0.3951	318.85	0.53
0.5032	316.55	0.53
0.5857	314.65	0.53
0.6244	313.05	0.53
0.6706	312.25	0.53
0.7272	310.65	0.54
0.7532	308.25	0.54
0.7932	307.15	0.54
0.8655	302.65	0.54

System: tetradecanoic acid + octadecane; phases: Liquid, Crystal
Fixed: Pressure, kPa = 100
Property: Solid-liquid equilibrium temperature, K (Liquid); method: DTA
Mole fraction of octadecane	Solid-liquid equilibrium temperature, K	uncertainty
0.969	300.55	0.53
1	300.95	0.53

System: hexadecanoic acid + octadecane; phases: Liquid, Crystal, Crystal, Air at 1 atmosphere
Property: Eutectic temperature, K (Liquid); method: DTA
Eutectic temperature, K	uncertainty
299.8	0.53

System: hexadecanoic acid + octadecane; phases: Liquid, Crystal
Fixed: Pressure, kPa = 100
Property: Solid-liquid equilibrium temperature, K (Liquid); method: DTA
Mole fraction of octadecane	Solid-liquid equilibrium temperature, K	uncertainty
0	335.15	0.53
0.1073	333.05	0.53
0.2125	330.95	0.53
0.3265	328.45	0.53
0.4069	326.75	0.53
0.5021	324.35	0.53
0.5989	321.75	0.53
0.6333	320.95	0.53
0.6862	318.85	0.53
0.7356	317.65	0.54
0.7973	314.65	0.54
0.8344	311.65	0.54
0.9008	306.45	0.54

System: hexadecanoic acid + octadecane; phases: Liquid, Crystal
Fixed: Pressure, kPa = 100
Property: Solid-liquid equilibrium temperature, K (Liquid); method: DTA
Mole fraction of octadecane	Solid-liquid equilibrium temperature, K	uncertainty
0.9723	300.55	0.53
1	300.95	0.53
