Measured thermophysical data. High-pressure phase behaviour of the binary system {CO2 + cis-decalin} from (292.75 to 373.75) K
Source: J. Chem. Thermodyn., 2008, 10.1016/j.jct.2008.05.008
Compound 1: carbon dioxide, CO2, InChI=1S/CO2/c2-1-3, purity 99.9%
Compound 2: cis-decahydronaphthalene, C10H18, InChI=1S/C10H18/c1-2-6-10-8-4-3-7-9(10)5-1/h9-10H,1-8H2/t9-,10+, purity 99%

System: carbon dioxide + cis-decahydronaphthalene; phases: Gas, Liquid mixture 1, Liquid mixture 2
Property: Triple point temperature, K (Gas); method: VISOBS:UFactor:2
Pressure, kPa	Triple point temperature, K	uncertainty
56000	293.15	0.4
60800	296.55	0.4
63200	298.25	0.4
67400	300.95	0.4
70400	302.95	0.4
70600	303.15	0.4
72400	304.35	0.4
75100	305.95	0.4
78500	308.05	0.4
81300	309.65	0.4
83800	311.05	0.4
85700	312.15	0.4

System: carbon dioxide + cis-decahydronaphthalene; phases: Liquid, Gas
Property: Vapor or sublimation pressure, kPa (Liquid); method: CCELL:UFactor:4
Temperature, K	Mole fraction of carbon dioxide	Vapor or sublimation pressure, kPa	uncertainty
292.75	0.301	4030	65
292.85	0.5002	5590	90
293.05	0.4006	4980	80
293.05	0.9792	5660	91
293.15	0.1009	1590	26
293.15	0.2073	2990	48
302.85	0.5002	6790	109
302.95	0.2073	3430	55
302.95	0.301	4700	76
302.95	0.4006	5890	95
302.95	0.9792	7070	113
303.05	0.1009	1860	30
312.85	0.2073	3880	62
312.85	0.4006	6830	110
312.95	0.1009	2100	34
313.05	0.301	5360	86
313.05	0.5002	8100	130
313.05	0.6005	11470	184
313.05	0.7002	19200	308
313.55	0.8001	22380	358
318.25	0.7002	17580	282
318.25	0.8001	20390	327
322.95	0.5002	9440	152
323.05	0.2073	4340	70
323.05	0.301	6050	97
323.05	0.6005	12050	193
323.25	0.1009	2350	38
323.25	0.4006	7810	125
323.25	0.8001	19420	311
323.85	0.7002	17000	272
327.85	0.8001	19160	307
333.15	0.1009	2590	42
333.15	0.2073	4790	77
333.15	0.6005	13400	215
333.25	0.301	6720	108
333.25	0.4006	8780	141
333.25	0.5002	10770	173
333.25	0.8001	19260	308
333.45	0.7002	17210	276
342.55	0.6005	14770	237
343.15	0.7002	18120	290
343.25	0.1009	2820	45
343.25	0.2073	5230	84
343.25	0.8001	20050	321
343.35	0.4006	9690	156
343.55	0.301	7370	118
343.55	0.5002	12080	194
352.35	0.6005	16130	259
352.95	0.1009	3050	49
353.15	0.7002	19330	310
353.25	0.2073	5640	91
353.25	0.4006	10550	169
353.25	0.8001	21130	338
353.45	0.301	7980	128
353.45	0.5002	13250	213
362.15	0.6005	17390	279
362.85	0.7002	20500	328
362.95	0.301	8530	137
363.05	0.2073	6020	97
363.05	0.5002	14260	229
363.15	0.1009	3270	53
363.25	0.8001	22280	357
363.75	0.4006	11420	183
372.95	0.1009	3460	56
373.05	0.4006	12120	195
373.05	0.5002	15240	245
373.05	0.6005	18660	299
373.05	0.8001	23370	374
373.15	0.2073	6390	103
373.15	0.7002	21710	348
373.35	0.301	9100	146

System: carbon dioxide + cis-decahydronaphthalene; phases: Gas, Liquid
Property: Vapor or sublimation pressure, kPa (Gas); method: CCELL:UFactor:4
Temperature, K	Mole fraction of carbon dioxide	Vapor or sublimation pressure, kPa	uncertainty
313.15	0.93	16800	269
313.15	0.9792	9040	145
313.25	0.8703	22020	353
313.25	0.96	11520	184
318.25	0.8703	20090	322
323.05	0.8703	19270	309
323.15	0.9792	11340	182
323.35	0.93	16590	266
323.35	0.96	13300	213
327.65	0.8703	19050	305
333.05	0.8703	19180	307
333.05	0.9792	13320	213
333.35	0.93	17540	281
333.35	0.96	15140	242
343.05	0.9792	14980	240
343.15	0.93	18920	303
343.15	0.96	16800	269
343.25	0.8703	20000	320
353.05	0.96	18320	293
353.25	0.8703	21130	338
353.25	0.93	20290	325
353.25	0.9792	16340	262
363.15	0.8703	22330	357
363.15	0.9792	17470	280
363.35	0.96	19670	315
363.45	0.93	21610	346
372.95	0.96	20710	331
373.15	0.8703	23440	375
373.15	0.9792	18270	292
373.75	0.93	22780	365

System: carbon dioxide + cis-decahydronaphthalene; phases: Liquid mixture 1, Liquid mixture 2
Property: Liquid-liquid equilibrium temperature, K (Liquid mixture 1); method: VISOBS:UFactor:2
Pressure, kPa	Mole fraction of carbon dioxide	Liquid-liquid equilibrium temperature, K	uncertainty
10040	0.96	303.35	0.4
10680	0.96	293.05	0.4
12080	0.6005	308.35	0.4
13860	0.6005	303.65	0.4
17310	0.6005	299.55	0.4
18020	0.93	308.05	0.4
21220	0.6005	297.25	0.4
22740	0.7002	308.05	0.4
23760	0.93	300.95	0.4
25220	0.8703	307.05	0.4
26330	0.6005	295.55	0.4
27770	0.8001	308.15	0.4
28330	0.8703	307.05	0.4
31160	0.93	298.25	0.4
31650	0.7002	303.25	0.4
36930	0.6005	294.05	0.4
37510	0.8001	303.25	0.4
43710	0.8703	303.05	0.4
44150	0.7002	301.15	0.4
49050	0.8001	303.25	0.4
