Measured thermophysical data. Magneto-structural correlation and low temperature heat capacity of a Mn (III) quadridentate Schiff-base coordination compound
Source: J. Chem. Thermodyn., 2014, 10.1016/j.jct.2014.02.006
Compound 1: bis(.mu.-(4-chloro-2-(((2-(((5-chloro-2-(hydroxy-.kappa.O)phenyl)methylene)amino-.kappa.N)ethyl)imino-.kappa.N)methyl)phenolato(2-)-.kappa.O:.kappa.O))bis(thiocyanato-.kappa.N)dimanganese, C34H24Cl4Mn2N6O4S2, InChI=1S/2C16H14Cl2N2O2.2CNS.2Mn/c2*17-13-1-3-15(21)11(7-13)9-19-5-6-20-10-12-8-14(18)2-4-16(12)22;2*2-1-3;;/h2*1-4,7-10,21-22H,5-6H2;;;;/q;;2*-1;2*+3/p-4/b2*19-9+,20-10+;;;;

System: bis(.mu.-(4-chloro-2-(((2-(((5-chloro-2-(hydroxy-.kappa.O)phenyl)methylene)amino-.kappa.N)ethyl)imino-.kappa.N)methyl)phenolato(2-)-.kappa.O:.kappa.O))bis(thiocyanato-.kappa.N)dimanganese; phases: Crystal
Property: Mass density, kg/m3 (Crystal); method: X-ray diffraction
Temperature, K	Pressure, kPa	Mass density, kg/m3	uncertainty
296	101.325	1651	11

System: bis(.mu.-(4-chloro-2-(((2-(((5-chloro-2-(hydroxy-.kappa.O)phenyl)methylene)amino-.kappa.N)ethyl)imino-.kappa.N)methyl)phenolato(2-)-.kappa.O:.kappa.O))bis(thiocyanato-.kappa.N)dimanganese; phases: Crystal
Fixed: Pressure, kPa = 101.325
Property: Molar heat capacity at constant pressure, J/K/mol (Crystal); method: Relaxation Calorimetry - Quantum Design PPMS
Temperature, K	Molar heat capacity at constant pressure, J/K/mol	uncertainty
1.8999	3.8271	0.2094
1.9933	3.9588	0.2171
2.0345	4.0272	0.2208
2.1806	4.2857	0.236
2.1999	4.2967	0.2368
2.3348	4.6034	0.2523
2.3681	4.6401	0.2542
2.5078	5.1681	0.2817
2.5539	5.119	0.2798
2.5731	5.1829	0.2831
2.7418	5.6672	0.3087
2.7685	5.7418	0.3126
2.8422	5.9811	0.3246
2.9263	6.0473	0.3291
2.936	6.3041	0.3426
3.0734	6.6386	0.3611
3.0965	6.8723	0.3734
3.1195	7.0056	0.3803
3.3192	7.7713	0.4212
3.4017	8.0872	0.4378
3.4059	8.0779	0.4373
3.5667	8.738	0.4727
3.6011	8.8555	0.4788
3.758	9.4878	0.5124
3.7888	9.324	0.5036
3.8245	9.7616	0.5267
3.8538	9.9148	0.5352
3.9527	10.256	0.553
4.0423	10.726	0.578
4.048	10.705	0.577
4.0799	10.778	0.58
4.2377	11.485	0.618
4.2396	11.458	0.616
4.2472	11.451	0.616
4.3925	12.008	0.645
4.4255	11.917	0.64
4.4293	12.17	0.654
4.5221	12.609	0.677
4.6065	12.875	0.691
4.6397	12.901	0.692
4.7094	13.194	0.708
4.7358	13.243	0.711
4.8243	13.558	0.727
4.9071	13.59	0.728
5.0199	14.224	0.762
5.1092	14.465	0.775
5.2164	14.811	0.793
5.2343	14.893	0.797
5.4131	15.398	0.824
5.6101	15.935	0.852
5.8293	16.486	0.882
5.8441	16.202	0.867
5.9983	16.908	0.904
6.2026	17.415	0.931
6.4012	17.907	0.957
6.4753	18.064	0.965
6.5991	18.286	0.977
6.7989	18.715	1
6.9987	19.113	1.021
7.2	19.54	1.044
7.2031	19.461	1.04
7.3976	19.879	1.062
7.5983	20.274	1.083
7.799	20.606	1.101
7.9981	21.038	1.124
8.0075	21.085	1.126
8.1993	21.43	1.145
8.3982	21.825	1.166
8.5997	22.262	1.189
8.8001	22.656	1.21
8.9082	22.93	1.225
9.0046	23.107	1.234
9.2048	23.51	1.256
9.4068	23.964	1.28
9.6019	24.374	1.302
9.761	24.925	1.331
9.9103	25.195	1.346
10.137	25.295	1.029
10.517	26.667	1.085
10.932	27.292	1.11
10.954	27.944	1.136
11.311	30.001	1.22
11.713	30.835	1.254
12.025	30.676	1.247
12.204	31.794	1.292
12.493	32.636	1.327
12.899	33.406	1.359
13.283	34.66	1.409
13.532	36.151	1.47
13.682	36.295	1.476
14.077	37.274	1.516
14.479	38.569	1.568
14.874	40.007	1.627
15.093	40.941	1.664
15.289	41.354	1.681
15.653	42.666	1.735
16.053	44.152	1.795
16.451	45.562	1.852
16.734	47.723	1.94
16.846	47.041	1.912
17.264	48.599	1.976
17.654	50.205	2.041
18.05	51.69	2.102
18.417	53.59	2.179
18.616	54.791	2.227
18.812	55.729	2.266
19.033	56.794	2.309
19.442	58.339	2.371
20.551	62.885	2.556
22.864	72.64	2.952
25.43	83.695	3.401
28.288	95.813	3.893
31.465	108.96	4.43
34.998	123.63	5.02
38.911	139.83	5.68
43.253	156.48	6.36
48.082	173.62	7.05
53.444	193.3	7.85
59.416	213.53	8.67
66.032	234.8	9.54
73.368	257.33	10.45
81.521	283.31	11.51
90.57	312.38	12.69
100.62	340.04	13.81
110.79	367.62	14.93
120.9	395.66	16.07
131.05	422.8	17.17
141.1	450.53	18.3
151.27	475.17	19.3
161.42	501.52	20.37
171.5	526.04	21.37
181.71	550.61	22.37
191.92	574.85	23.35
202.16	600.76	24.4
212.4	623.55	25.33
222.69	649.51	26.38
232.91	672.9	27.33
243.07	696.17	28.28
253.15	719.27	29.22
263.28	741.49	30.12
273.47	760.61	30.9
283.58	780.83	31.72
293.58	802.92	32.61
303.71	821.01	33.35

System: bis(.mu.-(4-chloro-2-(((2-(((5-chloro-2-(hydroxy-.kappa.O)phenyl)methylene)amino-.kappa.N)ethyl)imino-.kappa.N)methyl)phenolato(2-)-.kappa.O:.kappa.O))bis(thiocyanato-.kappa.N)dimanganese; phases: Crystal
Fixed: Pressure, kPa = 101.325
Property: Molar heat capacity at constant pressure, J/K/mol (Crystal); method: Relaxation Calorimetry - Quantum Design PPMS
Temperature, K	Molar heat capacity at constant pressure, J/K/mol	uncertainty
0.5	0.59691	0.0485
1	1.1948	0.0841
2	2.7042	0.1853
3	5.9346	0.4
4	10.16	0.678
5	13.89	0.922
6	16.738	1.11
7	18.972	1.257
8	20.978	1.39
9	23.056	1.528
10	25.382	1.682
11	28.013	1.582
12	30.919	1.746
13	34.024	1.922
14	37.245	2.103
15	40.544	2.289
16	43.972	2.483
17	47.672	2.692
18	51.96	2.934
19	56.165	3.171
20	60.44	3.413
25	81.942	3.697
30	102.95	4.64
35	123.69	5.58
40	143.99	6.49
45	162.91	7.35
50	180.27	8.13
55	197.99	8.24
60	215.2	8.96
65	231.91	9.66
70	248.17	10.33
75	264.02	10.99
80	279.49	11.64
85	294.63	12.27
90	309.46	12.89
95	324.01	13.49
100	338.31	14.09
110	366.24	15.25
120	393.42	16.38
130	420	17.49
140	446.09	18.58
150	471.77	19.65
160	497.12	20.7
170	522.17	21.74
180	546.94	22.78
190	571.43	23.8
200	595.62	24.8
210	619.49	25.8
220	643.01	26.78
230	666.15	27.74
240	688.86	28.69
250	711.12	29.61
260	732.89	30.52
270	754.14	31.4
273.15	760.72	31.68
280	774.84	32.27
290	794.98	33.1
298.15	810.95	33.77
300	814.52	33.92

System: bis(.mu.-(4-chloro-2-(((2-(((5-chloro-2-(hydroxy-.kappa.O)phenyl)methylene)amino-.kappa.N)ethyl)imino-.kappa.N)methyl)phenolato(2-)-.kappa.O:.kappa.O))bis(thiocyanato-.kappa.N)dimanganese; phases: Crystal
Fixed: Pressure, kPa = 101.325
Property: Molar entropy, J/K/mol (Crystal); method: Relaxation Calorimetry - Quantum Design PPMS
Temperature, K	Molar entropy, J/K/mol	uncertainty
0.5	0.59684	0.06413
1	1.1939	0.1211
2	2.4305	0.2432
3	4.0739	0.4066
4	6.3581	0.6336
5	9.0422	0.8999
6	11.839	1.177
7	14.592	1.451
8	17.257	1.715
9	19.846	1.972
10	22.393	2.225
11	24.933	2.112
12	27.493	2.328
13	30.09	2.548
14	32.728	2.771
15	35.41	2.999
16	38.135	3.229
17	40.91	3.464
18	43.757	3.705
19	46.679	3.953
20	49.668	4.206
25	65.47	4.43
30	82.274	5.566
35	99.703	6.745
40	117.55	7.95
45	135.62	9.17
50	153.69	10.4
55	171.7	10.72
60	189.67	11.85
65	207.56	12.96
70	225.34	14.08
75	243.01	15.18
80	260.54	16.27
85	277.94	17.36
90	295.2	18.44
95	312.33	19.51
100	329.31	20.57
110	362.87	22.67
120	395.91	24.73
130	428.45	26.76
140	460.53	28.77
150	492.19	30.74
160	523.45	32.7
170	554.34	34.63
180	584.89	36.53
190	615.12	38.42
200	645.04	40.29
210	674.68	42.14
220	704.05	43.98
230	733.14	45.79
240	761.97	47.59
250	790.55	49.38
260	818.86	51.15
270	846.92	52.9
273.15	855.71	53.45
280	874.72	54.64
290	902.27	56.36
298.15	924.52	57.75
300	929.55	58.06

System: bis(.mu.-(4-chloro-2-(((2-(((5-chloro-2-(hydroxy-.kappa.O)phenyl)methylene)amino-.kappa.N)ethyl)imino-.kappa.N)methyl)phenolato(2-)-.kappa.O:.kappa.O))bis(thiocyanato-.kappa.N)dimanganese; phases: Crystal
Fixed: Pressure, kPa = 101.325
Property: Molar enthalpy, kJ/mol (Crystal); method: Relaxation Calorimetry - Quantum Design PPMS
Temperature, K	Molar enthalpy, kJ/mol	uncertainty
0.5	0.00014921	3.241e-05
1	0.00059705	5.073e-05
2	0.0024639	0.000174
3	0.0066257	0.0004555
4	0.014668	0.000992
5	0.026766	0.001794
6	0.042147	0.002811
7	0.060036	0.003994
8	0.080016	0.005316
9	0.10202	0.00677
10	0.12621	0.00837
11	0.15288	0.00865
12	0.18233	0.01031
13	0.21479	0.01214
14	0.25042	0.01415
15	0.2893	0.01635
16	0.33155	0.01873
17	0.37734	0.02132
18	0.42717	0.02413
19	0.48122	0.02719
20	0.53952	0.03048
25	0.89559	0.04042
30	1.358	0.0613
35	1.9247	0.0868
40	2.5942	0.117
45	3.3623	0.1517
50	4.2201	0.1904
55	5.166	0.2152
60	6.1992	0.2582
65	7.3171	0.3047
70	8.5175	0.3547
75	9.7981	0.408
80	11.157	0.465
85	12.592	0.524
90	14.103	0.587
95	15.687	0.653
100	17.342	0.722
110	20.866	0.869
120	24.665	1.027
130	28.732	1.196
140	33.063	1.377
150	37.653	1.568
160	42.497	1.77
170	47.594	1.982
180	52.94	2.205
190	58.532	2.437
200	64.367	2.68
210	70.443	2.933
220	76.756	3.196
230	83.302	3.469
240	90.078	3.751
250	97.078	4.042
260	104.298	4.343
270	111.734	4.653
273.15	114.12	4.752
280	119.379	4.971
290	127.229	5.298
298.15	133.773	5.571
300	135.277	5.633
