Measured thermophysical data. Speeds of sound in (0.95 N2 + 0.05 CO and 0.9 N2 + 0.1 CO) gas mixtures at T = (273 and 325) K and pressure up to 10 MPa
Source: J. Chem. Thermodyn., 2014, 10.1016/j.jct.2014.07.022
Compound 1: nitrogen, N2, InChI=1S/N2/c1-2, purity 99.9995%
Compound 2: carbon monoxide, CO, InChI=1S/CO/c1-2, purity 99.9985%

System: carbon monoxide + nitrogen; phases: Gas
Fixed: Mole fraction of carbon monoxide = 0.10018
Property: Speed of sound, m/s (Gas); method: Spherical resonator
Pressure, kPa	Temperature, K	Speed of sound, m/s	uncertainty
9955	273.205	361.78	0.6
8970	273.178	357.95	0.59
8019	273.175	354.55	0.59
6994	273.175	351.2	0.58
6000	273.172	348.25	0.58
4989	273.172	345.57	0.57
3997	273.176	343.25	0.57
2993	273.174	341.21	0.57
1993	273.167	339.46	0.56
996	273.159	338.03	0.56
10006	324.9377	394.85	0.65
8963	324.9461	391.17	0.64
7996	324.9553	387.92	0.64
6999	324.9616	384.73	0.63
5998	324.9393	381.69	0.63
5002	324.9564	378.87	0.63
3998	324.9498	376.19	0.62
3002	324.9529	373.73	0.62
1989	324.9556	371.42	0.61
1001	324.9534	369.33	0.61
117	324.9375	367.62	0.61

System: carbon monoxide + nitrogen; phases: Gas
Fixed: Mole fraction of carbon monoxide = 0.04999
Property: Speed of sound, m/s (Gas); method: Spherical resonator
Temperature, K	Pressure, kPa	Speed of sound, m/s	uncertainty
273.236	9993	361.99	0.6
273.235	9010	358.19	0.59
273.041	7995	354.43	0.59
273.047	6998	351.18	0.58
273.045	5997	348.21	0.58
273.043	5000	345.57	0.57
273.05	3989	343.2	0.57
273.048	2997	341.18	0.57
273.108	1992	339.44	0.56
273.046	995	337.99	0.56
273.054	99	336.94	0.56
325.13	10001	394.94	0.65
325.045	9002	391.36	0.65
324.991	8000	387.94	0.64
325.227	7007	384.9	0.6
325.029	5995	381.72	0.63
325.014	4998	378.87	0.63
325.027	3999	376.21	0.62
325.013	3003	373.73	0.62
325.004	1991	371.4	0.6
325.002	1002	369.31	0.61
325.006	99	367.57	0.61
