Measured thermophysical data. Thermochemistry on ephedrine hydrochloride and N-methylephedrine hydrochloride
Source: J. Chem. Thermodyn., 2009, 10.1016/j.jct.2009.03.012
Compound 1: ephedrine hydrochloride, C10H16ClNO, InChI=1S/C10H15NO.ClH/c1-8(11-2)10(12)9-6-4-3-5-7-9;/h3-8,10-12H,1-2H3;1H/t8-,10-;/m0./s1, purity 99%
Compound 2: (-)-N-methylephedrine hydrochloride, C11H18ClNO, InChI=1S/C11H17NO.ClH/c1-9(12(2)3)11(13)10-7-5-4-6-8-10;/h4-9,11,13H,1-3H3;1H/t9-,11-;/m0./s1, purity 99%
Compound 3: water, H2O, InChI=1S/H2O/h1H2

System: ephedrine hydrochloride + water; phases: Liquid
Fixed: Temperature, K = 298.15
Fixed: Pressure, kPa = 101
Property: Molar enthalpy of solution, kJ/mol (Liquid); method: ISOPERIBOL
Molality, mol/kg of ephedrine hydrochloride	Molar enthalpy of solution, kJ/mol	uncertainty
0.0356	13.87	0.11
0.0712	13.88	0.11
0.1069	13.98	0.11
0.1801	14.16	0.11
0.2509	14.39	0.11
0.3221	14.56	0.11
0.3938	14.72	0.11
0.4653	14.83	0.12
0.5376	14.97	0.12
0.6092	15.08	0.12
0.6813	15.2	0.12
0.7522	15.27	0.12
0.824	15.34	0.12
0.8957	15.41	0.12
0.9674	15.51	0.12
1.039	15.61	0.12
1.111	15.69	0.12
1.183	15.74	0.12
1.256	15.79	0.12
1.327	15.82	0.12
1.364	15.84	0.12
1.393	15.84	0.12

System: water + (-)-N-methylephedrine hydrochloride; phases: Liquid
Fixed: Temperature, K = 298
Fixed: Pressure, kPa = 101
Property: Molar enthalpy of solution, kJ/mol (Liquid); method: ISOPERIBOL
Molality, mol/kg of (-)-N-methylephedrine hydrochloride	Molar enthalpy of solution, kJ/mol	uncertainty
0.0029	22.6	0.18
0.00584	22.25	0.17
0.00878	21.95	0.17
0.01474	21.52	0.17
0.0207	20.96	0.16
0.02655	20.63	0.16
0.03239	20.38	0.16
0.03825	20.15	0.16
0.04417	19.92	0.15
0.05287	19.76	0.15
0.06158	19.61	0.15
0.07028	19.47	0.15
0.07898	19.37	0.15
0.08769	19.21	0.15
0.09936	19.1	0.15
0.111	19.02	0.15
0.1227	18.99	0.15
0.1343	18.94	0.15
0.146	18.84	0.15
