Measured thermophysical data. Viscometric study of glycine, L-alanine, glycylglycine in aqueous tetra-n-alkylammonium bromide solutions at 298.15 K
Source: J. Chem. Thermodyn., 2004, 10.1016/j.jct.2004.07.006
Compound 1: (S)-2-aminopropanoic acid, C3H7NO2, InChI=1S/C3H7NO2/c1-2(4)3(5)6/h2H,4H2,1H3,(H,5,6)/t2-/m0/s1, purity 99.7%
Compound 2: 2-aminoacetic acid, C2H5NO2, InChI=1S/C2H5NO2/c3-1-2(4)5/h1,3H2,(H,4,5), purity 99%
Compound 3: glycylglycine, C4H8N2O3, InChI=1S/C4H8N2O3/c5-1-3(7)6-2-4(8)9/h1-2,5H2,(H,6,7)(H,8,9), purity 99.7%
Compound 4: tetramethylammonium bromide, C4H12BrN, InChI=1S/C4H12N.BrH/c1-5(2,3)4;/h1-4H3;1H/q+1;/p-1, purity 99%
Compound 5: tetraethylammonium bromide, C8H20BrN, InChI=1S/C8H20N.BrH/c1-5-9(6-2,7-3)8-4;/h5-8H2,1-4H3;1H/q+1;/p-1, purity 98%
Compound 6: tetrabutylammonium bromide, C16H36BrN, InChI=1S/C16H36N.BrH/c1-5-9-13-17(14-10-6-2,15-11-7-3)16-12-8-4;/h5-16H2,1-4H3;1H/q+1;/p-1, purity 99%
Compound 7: water, H2O, InChI=1S/H2O/h1H2

System: 2-aminoacetic acid + water; phases: Liquid
Fixed: Pressure, kPa = 101.325
Fixed: Temperature, K = 298.15
Property: Viscosity, Pa*s (Liquid); method: CAPTUB:UFactor:4
Molality, mol/kg of 2-aminoacetic acid	Viscosity, Pa*s	uncertainty
0.4993	0.0009561	3.06e-05
0.7501	0.0009914	3.16e-05
1.0003	0.0010281	3.26e-05
1.4992	0.0011059	3.48e-05
1.4999	0.0011059	3.48e-05
1.9995	0.0011894	3.71e-05

System: (S)-2-aminopropanoic acid + water; phases: Liquid
Fixed: Pressure, kPa = 101.325
Fixed: Temperature, K = 298.15
Property: Viscosity, Pa*s (Liquid); method: CAPTUB:UFactor:4
Molality, mol/kg of (S)-2-aminopropanoic acid	Viscosity, Pa*s	uncertainty
0.1002	0.0009179	2.96e-05
0.4992	0.0010166	3.23e-05
0.7503	0.0010796	3.4e-05
0.9992	0.0011521	3.61e-05

System: glycylglycine + water; phases: Liquid
Fixed: Pressure, kPa = 101.325
Fixed: Temperature, K = 298.15
Property: Viscosity, Pa*s (Liquid); method: CAPTUB:UFactor:4
Molality, mol/kg of glycylglycine	Viscosity, Pa*s	uncertainty
0.0995	0.0009265	2.98e-05
0.0998	0.0009265	2.98e-05
0.5004	0.0010618	3.36e-05
0.7502	0.0011449	3.59e-05

System: 2-aminoacetic acid + tetramethylammonium bromide + water; phases: Liquid
Fixed: Pressure, kPa = 101.325
Fixed: Temperature, K = 298.15
Property: Viscosity, Pa*s (Liquid); method: CAPTUB:UFactor:4
Molality, mol/kg of 2-aminoacetic acid	Molality, mol/kg of tetramethylammonium bromide	Viscosity, Pa*s	uncertainty
0.4993	0	0.0009561	3.06e-05
0.4993	0.2505	0.0010038	3.2e-05
0.4993	0.4992	0.0010296	3.27e-05
0.4993	1.0009	0.0010928	3.44e-05
0.4993	1.5007	0.0011716	3.66e-05
1.0003	0	0.0010281	3.26e-05
1.0003	0.2499	0.0010805	3.41e-05
1.0003	0.5004	0.0011069	3.48e-05
1.0003	1.0002	0.0011743	3.67e-05
1.0003	1.5007	0.0012404	3.85e-05
1.4999	0	0.0011059	3.48e-05
1.4999	0.2499	0.0011608	3.63e-05
1.4999	0.4998	0.0011988	3.74e-05
1.4999	1.001	0.0012639	3.92e-05
1.4999	1.5002	0.0013683	4.21e-05
1.9995	0	0.0011894	3.71e-05
1.9995	0.2499	0.0012462	3.87e-05
1.9995	0.5005	0.0012846	3.97e-05
1.9995	1.0002	0.0013696	4.21e-05
1.9995	1.5001	0.0014599	4.46e-05

System: 2-aminoacetic acid + tetraethylammonium bromide + water; phases: Liquid
Fixed: Pressure, kPa = 101.325
Fixed: Temperature, K = 298.15
Property: Viscosity, Pa*s (Liquid); method: CAPTUB:UFactor:4
Molality, mol/kg of 2-aminoacetic acid	Molality, mol/kg of tetraethylammonium bromide	Viscosity, Pa*s	uncertainty
0.4999	0.2498	0.0010682	3.37e-05
0.4999	0.4991	0.001171	3.66e-05
0.4999	0.7501	0.0012765	3.96e-05
0.4999	0.9998	0.0013889	4.27e-05
0.7501	0	0.0009914	3.16e-05
0.7501	0.2498	0.0011103	3.49e-05
0.7501	0.5001	0.0012079	3.76e-05
0.7501	0.7499	0.0013129	4.06e-05
0.7501	1.0008	0.0014339	4.39e-05
0.9997	0.2493	0.0011505	3.6e-05
0.9997	0.4996	0.001259	3.91e-05
0.9997	0.7494	0.0013769	4.23e-05
0.9997	0.9996	0.0014978	4.57e-05
1.4992	0	0.0011059	3.48e-05
1.4992	0.1784	0.0012397	3.85e-05
1.4992	0.5001	0.0013711	4.22e-05
1.4992	0.7503	0.0014996	4.57e-05
1.4992	1.0001	0.0016307	4.94e-05

System: 2-aminoacetic acid + tetrabutylammonium bromide + water; phases: Liquid
Fixed: Pressure, kPa = 101.325
Fixed: Temperature, K = 298.15
Property: Viscosity, Pa*s (Liquid); method: CAPTUB:UFactor:4
Molality, mol/kg of 2-aminoacetic acid	Molality, mol/kg of tetrabutylammonium bromide	Viscosity, Pa*s	uncertainty
0.4996	0.0499	0.0010312	3.27e-05
0.4996	0.0996	0.0010918	3.44e-05
0.4996	0.4997	0.0016643	5.02e-05
0.4996	0.6997	0.0020068	5.96e-05
0.7503	0.0502	0.001071	3.38e-05
0.7503	0.0999	0.0011376	3.57e-05
0.7503	0.4998	0.00173	5.2e-05
0.7503	0.701	0.0020894	6.19e-05
1.0001	0.0502	0.0010987	3.46e-05
1.0001	0.1002	0.0011701	3.66e-05
1.0001	0.4998	0.001771	5.31e-05
1.0001	0.6997	0.0021294	6.3e-05
1.5001	0.0499	0.0011847	3.7e-05
1.5001	0.0999	0.0012475	3.87e-05
1.5001	0.4998	0.0018977	5.66e-05
1.5001	0.7002	0.0022798	6.71e-05

System: (S)-2-aminopropanoic acid + tetramethylammonium bromide + water; phases: Liquid
Fixed: Pressure, kPa = 101.325
Fixed: Temperature, K = 298.15
Property: Viscosity, Pa*s (Liquid); method: CAPTUB:UFactor:4
Molality, mol/kg of (S)-2-aminopropanoic acid	Molality, mol/kg of tetramethylammonium bromide	Viscosity, Pa*s	uncertainty
0.1002	0	0.0009179	2.96e-05
0.1002	0.2505	0.0009607	3.08e-05
0.1002	0.4991	0.0009884	3.15e-05
0.1002	1.0002	0.001046	3.31e-05
0.1002	1.4999	0.0011107	3.49e-05
0.4992	0	0.0010166	3.23e-05
0.4992	0.2505	0.0010563	3.34e-05
0.4992	0.4997	0.001084	3.42e-05
0.4992	0.9995	0.0011565	3.62e-05
0.4992	1.4993	0.0012403	3.85e-05
0.7503	0	0.0010796	3.4e-05
0.7503	0.2499	0.0011347	3.56e-05
0.7503	0.4998	0.0011617	3.63e-05
0.7503	1.0003	0.0012342	3.83e-05
0.7503	1.4993	0.0013009	4.02e-05
0.9992	0	0.0011521	3.61e-05
0.9992	0.2505	0.0012133	3.77e-05
0.9992	0.5004	0.0012417	3.85e-05
0.9992	1.0002	0.0013184	4.07e-05
0.9992	1.4481	0.0013921	4.27e-05

System: (S)-2-aminopropanoic acid + tetraethylammonium bromide + water; phases: Liquid
Fixed: Pressure, kPa = 101.325
Fixed: Temperature, K = 298.15
Property: Viscosity, Pa*s (Liquid); method: CAPTUB:UFactor:4
Molality, mol/kg of (S)-2-aminopropanoic acid	Molality, mol/kg of tetraethylammonium bromide	Viscosity, Pa*s	uncertainty
0.0996	0.0999	0.0009815	3.13e-05
0.0996	0.2493	0.0010291	3.27e-05
0.0996	0.5001	0.0011172	3.51e-05
0.0996	1.1997	0.0014183	4.35e-05
0.4993	0.0999	0.0010725	3.39e-05
0.4993	0.2493	0.0011286	3.54e-05
0.4993	0.5006	0.0012326	3.83e-05
0.4993	1.1992	0.0015675	4.76e-05
0.7501	0.0999	0.0011424	3.58e-05
0.7501	0.2498	0.0012053	3.75e-05
0.7501	0.5001	0.0013044	4.03e-05
0.7501	1.1996	0.001655	5.01e-05
1.001	0.1004	0.0012108	3.77e-05
1.001	0.2498	0.0012762	3.95e-05
1.001	0.5001	0.0013933	4.27e-05
1.001	1.2003	0.0017575	5.29e-05

System: (S)-2-aminopropanoic acid + tetrabutylammonium bromide + water; phases: Liquid
Fixed: Pressure, kPa = 101.325
Fixed: Temperature, K = 298.15
Property: Viscosity, Pa*s (Liquid); method: CAPTUB:UFactor:4
Molality, mol/kg of (S)-2-aminopropanoic acid	Molality, mol/kg of tetrabutylammonium bromide	Viscosity, Pa*s	uncertainty
0.1007	0.0992	0.001056	3.34e-05
0.1007	0.2501	0.0012468	3.87e-05
0.1007	0.5004	0.0016169	4.89e-05
0.1007	0.6999	0.0019527	5.81e-05
0.4992	0.1002	0.0011635	3.64e-05
0.4992	0.2501	0.0013767	4.23e-05
0.4992	0.5004	0.0017852	5.35e-05
0.4992	0.6998	0.0021324	6.31e-05
0.7498	0.1002	0.0012468	3.87e-05
0.7498	0.2503	0.0014605	4.46e-05
0.7498	0.5003	0.0018671	5.58e-05
0.7498	0.7002	0.0023332	6.85e-05
0.9996	0.0999	0.0013164	4.06e-05
0.9996	0.2501	0.0015495	4.7e-05
0.9996	0.5001	0.0019916	5.92e-05
0.9996	0.6997	0.0023607	6.93e-05

System: tetramethylammonium bromide + glycylglycine + water; phases: Liquid
Fixed: Pressure, kPa = 101.325
Fixed: Temperature, K = 298.15
Property: Viscosity, Pa*s (Liquid); method: CAPTUB:UFactor:4
Molality, mol/kg of glycylglycine	Molality, mol/kg of tetramethylammonium bromide	Viscosity, Pa*s	uncertainty
0.0995	0	0.0009265	2.98e-05
0.0995	0.2499	0.0009622	3.08e-05
0.0995	0.4998	0.001003	3.19e-05
0.0995	0.7997	0.0010372	3.29e-05
0.0995	0.9997	0.0010654	3.37e-05
0.5004	0	0.0010618	3.36e-05
0.5004	0.2499	0.0011081	3.48e-05
0.5004	0.4998	0.0011364	3.56e-05
0.5004	0.7997	0.0011882	3.71e-05
0.5004	1.0009	0.001211	3.77e-05
0.7502	0	0.0011449	3.59e-05
0.7502	0.2493	0.001195	3.72e-05
0.7502	0.4998	0.0012302	3.82e-05
0.7502	0.7492	0.0012687	3.93e-05
0.7502	0.9997	0.0013055	4.03e-05

System: tetraethylammonium bromide + glycylglycine + water; phases: Liquid
Fixed: Pressure, kPa = 101.325
Fixed: Temperature, K = 298.15
Property: Viscosity, Pa*s (Liquid); method: CAPTUB:UFactor:4
Molality, mol/kg of glycylglycine	Molality, mol/kg of tetraethylammonium bromide	Viscosity, Pa*s	uncertainty
0.0998	0	0.0009265	2.98e-05
0.0998	0.0999	0.0009862	3.15e-05
0.0998	0.1837	0.0010154	3.23e-05
0.0998	0.3669	0.0010818	3.41e-05
0.0998	0.5863	0.0011688	3.66e-05
0.0998	0.7332	0.0012279	3.82e-05
0.5001	0.1832	0.0011458	3.59e-05
0.5001	0.3663	0.0012247	3.81e-05
0.5001	0.5862	0.0013416	4.13e-05
0.5001	0.7333	0.0013903	4.27e-05
0.5001	0.9997	0.0015197	4.63e-05
1.0002	0.1832	0.0013381	4.12e-05
1.0002	0.5863	0.0015367	4.67e-05
1.0002	0.7332	0.0016146	4.89e-05
1.0002	1.0006	0.001791	5.38e-05

System: glycylglycine + tetrabutylammonium bromide + water; phases: Liquid
Fixed: Pressure, kPa = 101.325
Fixed: Temperature, K = 298.15
Property: Viscosity, Pa*s (Liquid); method: CAPTUB:UFactor:4
Molality, mol/kg of glycylglycine	Molality, mol/kg of tetrabutylammonium bromide	Viscosity, Pa*s	uncertainty
0.1001	0.0499	0.0010139	3.22e-05
0.1001	0.0999	0.0010735	3.39e-05
0.1001	0.2999	0.0013344	4.11e-05
0.1001	0.6003	0.0018108	5.42e-05
0.4997	0.0502	0.0011415	3.58e-05
0.4997	0.0999	0.001212	3.77e-05
0.4997	0.2997	0.0014995	4.57e-05
0.4997	0.6002	0.0020152	5.98e-05
0.7506	0.0499	0.0012339	3.83e-05
0.7506	0.1002	0.001299	4.01e-05
0.7506	0.2891	0.0016041	4.85e-05
0.7506	0.5996	0.0021728	6.41e-05
