Measured thermophysical data. Isobaric (vapor + liquid) equilibria of 1-ethyl-3-methylimidazolium ethylsulfate plus (propionaldehyde or valeraldehyde): Experimental data and prediction
Source: J. Chem. Thermodyn., 2011, 10.1016/j.jct.2011.01.008
Compound 1: 1-ethyl-3-methylimidazolium ethyl sulfate, C8H16N2O4S, InChI=1S/C6H11N2.C2H6O4S/c1-3-8-5-4-7(2)6-8;1-2-6-7(3,4)5/h4-6H,3H2,1-2H3;2H2,1H3,(H,3,4,5)/q+1;/p-1, purity 97%
Compound 2: propanal, C3H6O, InChI=1S/C3H6O/c1-2-3-4/h3H,2H2,1H3, purity 99%
Compound 3: pentanal, C5H10O, InChI=1S/C5H10O/c1-2-3-4-5-6/h5H,2-4H2,1H3, purity 99%

System: 1-ethyl-3-methylimidazolium ethyl sulfate; phases: Liquid
Fixed: Pressure, kPa = 96
Property: Mass density, kg/m3 (Liquid); method: Vibrating tube method
Temperature, K	Mass density, kg/m3	uncertainty
288.157	1243.72	2.99
293.156	1239.95	2.97
298.141	1236.86	2.96
298.15	1236.86	2.96
303.14	1233.58	2.94
308.148	1229.9	2.92
313.152	1226.73	2.91
318.157	1223.17	2.89
323.155	1219.99	2.87

System: propanal; phases: Liquid, Gas
Property: Vapor or sublimation pressure, kPa (Liquid); method: Index of refraction calibration data
Temperature, K	Vapor or sublimation pressure, kPa	uncertainty
321.2	101.3	

System: propanal; phases: Liquid
Fixed: Pressure, kPa = 96
Property: Mass density, kg/m3 (Liquid); method: Vibrating tube method
Temperature, K	Mass density, kg/m3	uncertainty
288.14	807.26	0.24
293.155	801.06	0.24
298.15	794.85	0.24
298.151	794.85	0.24
303.15	788.72	0.24
308.157	782.55	0.24
313.153	776.53	0.24

System: pentanal; phases: Liquid, Gas
Property: Vapor or sublimation pressure, kPa (Liquid); method: Index of refraction calibration data
Temperature, K	Vapor or sublimation pressure, kPa	uncertainty
376.2	101.3	1

System: pentanal; phases: Liquid
Fixed: Pressure, kPa = 96
Property: Mass density, kg/m3 (Liquid); method: Vibrating tube method
Temperature, K	Mass density, kg/m3	uncertainty
288.153	814.15	0.24
293.142	809.45	0.24
298.145	804.73	0.24
298.15	804.73	0.24
303.146	799.97	0.24
308.146	795.17	0.24
313.143	790.33	0.24
318.144	785.46	0.24
323.143	780.55	0.24

System: pentanal + 1-ethyl-3-methylimidazolium ethyl sulfate; phases: Liquid
Fixed: Pressure, kPa = 96
Fixed: Temperature, K = 298.15
Property: Refractive index (Na D-line) (Liquid); method: Standard Abbe refractometry
Mole fraction of pentanal	Refractive index (Na D-line)	uncertainty
0	1.4817	0.0008
0.0792	1.4793	0.0008
0.101	1.4788	0.0008
0.2039	1.4759	0.0007
0.3008	1.4718	0.0007
0.4074	1.4672	0.0007
0.5048	1.4621	0.0006
0.6047	1.4554	0.0006
0.7012	1.4486	0.0006
0.8024	1.4403	0.0006
0.897	1.431	0.0006
0.9513	1.4231	0.0006
1	1.396	0.0005

System: pentanal + 1-ethyl-3-methylimidazolium ethyl sulfate; phases: Liquid, Gas
Fixed: Pressure, kPa = 101.3
Property: Mole fraction of pentanal (Liquid); method: Index of refraction calibration data
Temperature, K	Mole fraction of pentanal	uncertainty
376.2	1	
378.3	0.9595	0.0025
381.2	0.9403	0.0026
384.2	0.8916	0.003
385.4	0.8859	0.0026
386.7	0.8638	0.0028
388.2	0.8522	0.0023
392	0.8175	0.0022
396	0.8016	0.002

System: pentanal + 1-ethyl-3-methylimidazolium ethyl sulfate; phases: Liquid
Fixed: Pressure, kPa = 96
Property: Mass density, kg/m3 (Liquid); method: Vibrating tube method
Temperature, K	Mole fraction of pentanal	Mass density, kg/m3	uncertainty
288.148	0.897	935.22	0.7
288.149	0.101	1213.67	2.49
288.149	0.3008	1168.57	1.71
288.149	0.6047	1073.97	0.88
288.149	0.7012	1036.82	0.73
288.149	0.9513	896.87	1.2
288.151	0.4074	1139.93	1.37
288.153	0.0792	1218.05	2.59
288.153	1	814.15	0.24
288.157	0	1243.72	2.99
288.157	0.2039	1191.69	2.07
288.157	0.5048	1109.32	1.11
288.157	0.8024	990.74	0.66
293.142	0.0792	1215	2.58
293.142	1	809.45	0.24
293.149	0.7012	1033.26	0.73
293.149	0.8024	986.74	0.67
293.149	0.9513	892.5	1.19
293.15	0.101	1210.75	2.47
293.15	0.5048	1106.25	1.1
293.15	0.6047	1070.53	0.88
293.151	0.2039	1188.69	2.06
293.151	0.3008	1165.47	1.7
293.151	0.4074	1136.9	1.37
293.151	0.897	931.08	0.7
293.156	0	1239.95	2.97
298.141	0	1236.86	2.96
298.143	0.897	926.62	0.7
298.144	0.4074	1133.5	1.36
298.144	0.5048	1102.7	1.1
298.144	0.9513	887.82	1.2
298.145	0.0792	1211.93	2.56
298.145	0.101	1207.59	2.46
298.145	0.2039	1185.49	2.04
298.145	0.3008	1162.15	1.69
298.145	0.6047	1066.69	0.87
298.145	0.7012	1029.35	0.72
298.145	0.8024	982.52	0.67
298.145	1	804.73	0.24
303.14	0	1233.58	2.94
303.142	0.9513	882.85	1.2
303.143	0.2039	1182.28	2.03
303.143	0.3008	1158.83	1.68
303.143	0.7012	1025.33	0.72
303.143	0.8024	978.11	0.67
303.143	0.897	921.84	0.7
303.144	0.4074	1130.07	1.35
303.144	0.5048	1099.13	1.09
303.145	0.101	1204.47	2.45
303.145	0.6047	1062.78	0.87
303.146	0.0792	1208.72	2.55
303.146	1	799.97	0.24
308.141	0.101	1201.4	2.43
308.142	0.897	916.87	0.71
308.143	0.2039	1179.03	2.02
308.143	0.6047	1058.77	0.86
308.143	0.7012	1021.17	0.72
308.143	0.9513	877.74	1.2
308.144	0.4074	1126.55	1.34
308.144	0.5048	1095.35	1.08
308.146	0.0792	1205.39	2.54
308.146	0.3008	1155.36	1.67
308.146	0.8024	973.48	0.67
308.146	1	795.17	0.24
308.148	0	1229.9	2.92
313.143	0.0792	1201.93	2.52
313.143	0.2039	1175.7	2.01
313.143	0.6047	1054.63	0.86
313.143	0.7012	1016.96	0.72
313.143	0.897	911.86	0.69
313.143	1	790.33	0.24
313.144	0.5048	1091.33	1.08
313.144	0.9513	872.76	1.19
313.145	0.4074	1122.78	1.33
313.146	0.8024	966.65	0.67
313.147	0.101	1198.11	2.42
313.148	0.3008	1151.83	1.66
313.152	0	1226.73	2.91
318.142	0.7012	1012.64	0.72
318.143	0.5048	1087.33	1.07
318.143	0.6047	1050.4	0.85
318.143	0.8024	962.44	0.68
318.143	0.9513	867.68	1.19
318.144	0.0792	1198.39	2.5
318.144	0.2039	1172.28	2
318.144	1	785.46	0.24
318.145	0.897	906.82	0.7
318.147	0.101	1194.8	2.4
318.149	0.4074	1119.06	1.32
318.151	0.3008	1148.23	1.65
318.157	0	1223.17	2.89
323.142	0.9513	862.54	1.21
323.143	0.0792	1195.73	2.49
323.143	0.2039	1168.79	1.98
323.143	0.5048	1083.27	1.06
323.143	0.6047	1046.09	0.85
323.143	1	780.55	0.24
323.145	0.8024	959.29	0.68
323.146	0.101	1191.43	2.39
323.146	0.7012	1008.39	0.71
323.146	0.897	901.88	0.72
323.149	0.3008	1144.59	1.64
323.151	0.4074	1115.15	1.31
323.155	0	1219.99	2.87

System: propanal + 1-ethyl-3-methylimidazolium ethyl sulfate; phases: Liquid
Fixed: Pressure, kPa = 96
Fixed: Temperature, K = 298.15
Property: Refractive index (Na D-line) (Liquid); method: Standard Abbe refractometry
Mole fraction of propanal	Refractive index (Na D-line)	uncertainty
0	1.4817	0.0008
0.077	1.4789	0.0008
0.1702	1.4768	0.0007
0.2146	1.473	0.0007
0.3671	1.4641	0.0007
0.4184	1.4627	0.0007
0.5246	1.4532	0.0006
0.616	1.4467	0.0006
0.7074	1.4369	0.0006
0.8104	1.426	0.0006
0.9022	1.41	0.0006
0.9521	1.3854	0.0007
1	1.3648	0.0005

System: propanal + 1-ethyl-3-methylimidazolium ethyl sulfate; phases: Liquid, Gas
Fixed: Pressure, kPa = 101.3
Property: Mole fraction of propanal (Liquid); method: Index of refraction calibration data
Temperature, K	Mole fraction of propanal	uncertainty
321.2	1	
322.8	0.9164	0.0113
323.6	0.8633	0.0122
324	0.8449	0.0087
324.7	0.8159	0.0083
326.1	0.7601	0.0076
326.1	0.7526	0.0077
327.3	0.7208	0.0041
331.2	0.6694	0.0039
333.7	0.6352	0.0041
335.2	0.6171	0.004

System: propanal + 1-ethyl-3-methylimidazolium ethyl sulfate; phases: Liquid
Fixed: Pressure, kPa = 96
Property: Mass density, kg/m3 (Liquid); method: Vibrating tube method
Temperature, K	Mole fraction of propanal	Mass density, kg/m3	uncertainty
288.14	1	807.26	0.24
288.143	0.1702	1215.95	2.26
288.144	0.4184	1170.49	1.42
288.148	0.8104	1012.95	0.8
288.149	0.2146	1209	2.09
288.149	0.9022	936.46	1
288.152	0.5246	1139.5	1.13
288.153	0.616	1108.79	0.93
288.154	0.3671	1182.78	1.57
288.154	0.7074	1069.7	0.8
288.155	0.9521	876.3	1.35
288.157	0	1243.72	2.99
288.157	0.077	1227.88	2.63
293.148	0.077	1224.4	2.61
293.149	0.5246	1136.2	1.12
293.151	0.616	1105.04	0.92
293.151	0.7074	1066.43	0.8
293.152	0.1702	1212.43	2.24
293.155	1	801.06	0.24
293.156	0	1239.95	2.97
293.156	0.3671	1178.94	1.56
293.156	0.9022	931.16	0.99
293.156	0.9521	870.71	1.36
293.157	0.2146	1205.39	2.08
293.157	0.4184	1166.66	1.41
293.158	0.8104	1008.26	0.81
298.141	0	1236.86	2.96
298.148	0.1702	1208.92	2.23
298.151	0.5246	1132.3	1.11
298.151	1	794.85	0.24
298.152	0.616	1101.02	0.92
298.156	0.7074	1062.18	0.8
298.156	0.8104	1003.73	0.81
298.156	0.9022	925.91	1
298.156	0.9521	865.19	1.36
298.157	0.077	1220.94	2.6
298.157	0.2146	1201.81	2.06
298.157	0.3671	1175.21	1.55
298.159	0.4184	1162.88	1.4
303.14	0	1233.58	2.94
303.15	0.7074	1058.06	0.8
303.15	1	788.72	0.24
303.151	0.5246	1128.46	1.1
303.155	0.077	1217.48	2.58
303.156	0.4184	1159.08	1.39
303.156	0.9022	920.77	1
303.157	0.2146	1198.24	2.05
303.157	0.3671	1171.5	1.54
303.157	0.8104	999.38	0.81
303.157	0.9521	859.8	1.37
303.158	0.1702	1205.39	2.22
303.158	0.616	1097.06	0.91
308.148	0	1229.9	2.92
308.15	0.077	1214.04	2.57
308.15	0.9022	915.5	1.02
308.151	0.2146	1194.69	2.04
308.151	0.4184	1155.38	1.38
308.151	0.9521	854.41	1.38
308.152	0.3671	1167.83	1.53
308.152	0.8104	995.49	0.82
308.157	0.616	1093.39	0.9
308.157	1	782.55	0.24
308.158	0.1702	1201.91	2.2
308.158	0.5246	1124.75	1.1
308.158	0.7074	1054.45	0.79
313.143	0.616	1089.32	0.9
313.143	0.7074	1050.7	0.8
313.145	0.1702	1198.61	2.19
313.148	0.8104	990.4	0.83
313.148	0.9022	910.11	1.03
313.15	0.5246	1121.2	1.09
313.151	0.3671	1164.21	1.52
313.151	0.9521	848.67	1.39
313.152	0	1226.73	2.91
313.152	0.4184	1151.8	1.37
313.153	0.077	1210.68	2.55
313.153	1	776.53	0.24
313.157	0.2146	1191.34	2.03
