Measured thermophysical data. Thermodynamics of complexation of aqueous 18-crown-6 with sodium ion: apparent molar volumes and apparent molar heat capacities of aqueous (18-crown-6 + sodium chloride) at temperatures (278.15 to 393.15) K, at molalities (0.02 to 0.30) mol*kg-1, and at the pressure 0.35 MPa.
Source: J. Chem. Thermodyn., 2005, 10.1016/j.jct.2005.01.011
Compound 1: 1,4,7,10,13,16-hexaoxacyclooctadecane, C12H24O6, InChI=1S/C12H24O6/c1-2-14-5-6-16-9-10-18-12-11-17-8-7-15-4-3-13-1/h1-12H2, purity 99.9%
Compound 2: sodium chloride, ClNa, InChI=1S/ClH.Na/h1H;/q;+1/p-1, purity 99.99%
Compound 3: water, H2O, InChI=1S/H2O/h1H2

System: sodium chloride + water + 1,4,7,10,13,16-hexaoxacyclooctadecane; phases: Liquid
Fixed: Pressure, kPa = 350
Property: Apparent molar heat capacity, J/K/mol (Liquid); method: XDSC:UFactor:0.5
Temperature, K	Molality, mol/kg of 1,4,7,10,13,16-hexaoxacyclooctadecane	Molality, mol/kg of sodium chloride	Apparent molar heat capacity, J/K/mol	uncertainty
278.15	0.00996	0.01003	625	51
278.15	0.02013	0.02028	647	26
278.15	0.03056	0.03078	653.4	17.2
278.15	0.03974	0.04	645.6	13.5
278.15	0.05858	0.059	649.1	9.5
278.15	0.0802	0.0808	685.1	7.2
278.15	0.12235	0.1232	687	5.1
278.15	0.13001	0.131	706.7	4.9
278.15	0.17368	0.175	715.11	3.94
278.15	0.299	0.3012	719.96	2.75
283.15	0.00996	0.01003	665	51
283.15	0.02013	0.02028	684	26
283.15	0.03056	0.03078	687.6	17.3
283.15	0.03974	0.04	679.4	13.5
283.15	0.05858	0.059	681.5	9.5
283.15	0.0802	0.0808	713.8	7.3
283.15	0.12235	0.1232	713.9	5.1
283.15	0.13001	0.131	731.9	4.9
283.15	0.17368	0.175	738.99	3.97
283.15	0.299	0.3012	742.47	2.78
288.15	0.00996	0.01003	698	51
288.15	0.02013	0.02028	714	26
288.15	0.03056	0.03078	714.4	17.3
288.15	0.03974	0.04	706.8	13.6
288.15	0.05858	0.059	706.8	9.5
288.15	0.0802	0.0808	736.3	7.3
288.15	0.12235	0.1232	735.3	5.2
288.15	0.13001	0.131	751.9	5
288.15	0.17368	0.175	757.99	4
288.15	0.299	0.3012	760.41	2.81
293.15	0.00996	0.01003	724	51
293.15	0.02013	0.02028	740	26
293.15	0.03056	0.03078	738.2	17.4
293.15	0.03974	0.04	730.5	13.6
293.15	0.05858	0.059	729.1	9.6
293.15	0.0802	0.0808	756.1	7.3
293.15	0.12235	0.1232	753.7	5.2
293.15	0.13001	0.131	769.3	5
293.15	0.17368	0.175	774.79	4.02
293.15	0.299	0.3012	776.18	2.83
298.15	0.00996	0.01003	749	51
298.15	0.02013	0.02028	760	26
298.15	0.03056	0.03078	759.2	17.4
298.15	0.03974	0.04	750.8	13.6
298.15	0.05858	0.059	749.2	9.6
298.15	0.0802	0.0808	773.9	7.4
298.15	0.12235	0.1232	770.4	5.2
298.15	0.13001	0.131	785.3	5
298.15	0.17368	0.175	790.21	4.05
298.15	0.299	0.3012	790.64	2.85
303.15	0.00996	0.01003	770	51
303.15	0.02013	0.02028	779	26
303.15	0.03056	0.03078	778.1	17.4
303.15	0.03974	0.04	770.3	13.7
303.15	0.05858	0.059	767.6	9.6
303.15	0.0802	0.0808	790.4	7.4
303.15	0.12235	0.1232	786.3	5.2
303.15	0.13001	0.131	800.4	5
303.15	0.17368	0.175	804.74	4.07
303.15	0.299	0.3012	804.36	2.87
308.15	0.00996	0.01003	788	51
308.15	0.02013	0.02028	798	26
308.15	0.03056	0.03078	795.5	17.4
308.15	0.03974	0.04	788.4	13.7
308.15	0.05858	0.059	784.5	9.7
308.15	0.0802	0.0808	805.6	7.4
308.15	0.12235	0.1232	801.3	5.3
308.15	0.13001	0.131	814.4	5
308.15	0.17368	0.175	818.34	4.09
308.15	0.299	0.3012	817.33	2.89
313.15	0.00996	0.01003	804	51
313.15	0.02013	0.02028	814	26
313.15	0.03056	0.03078	810.9	17.5
313.15	0.03974	0.04	805.1	13.7
313.15	0.05858	0.059	799.9	9.7
313.15	0.0802	0.0808	819.6	7.4
313.15	0.12235	0.1232	815.4	5.3
313.15	0.13001	0.131	827.8	5.1
313.15	0.17368	0.175	831.17	4.11
313.15	0.299	0.3012	829.65	2.91
318.15	0.00996	0.01003	819	51
318.15	0.02013	0.02028	830	26
318.15	0.03056	0.03078	824.9	17.5
318.15	0.03974	0.04	820.4	13.7
318.15	0.05858	0.059	814	9.7
318.15	0.0802	0.0808	832.5	7.4
318.15	0.12235	0.1232	828.5	5.3
318.15	0.13001	0.131	840.2	5.1
318.15	0.17368	0.175	843.29	4.13
318.15	0.299	0.3012	841.18	2.93
323.15	0.00996	0.01003	834	51
323.15	0.02013	0.02028	844	26
323.15	0.03056	0.03078	837.5	17.5
323.15	0.03974	0.04	834.5	13.8
323.15	0.05858	0.059	827	9.7
323.15	0.0802	0.0808	844.4	7.5
323.15	0.12235	0.1232	840.8	5.3
323.15	0.13001	0.131	852	5.1
323.15	0.17368	0.175	854.72	4.14
323.15	0.299	0.3012	852.14	2.94
328.15	0.00996	0.01003	848	51
328.15	0.02013	0.02028	855	26
328.15	0.03056	0.03078	848.6	17.5
328.15	0.03974	0.04	846.7	13.8
328.15	0.05858	0.059	838.6	9.7
328.15	0.0802	0.0808	855	7.5
328.15	0.12235	0.1232	851.8	5.3
328.15	0.13001	0.131	862.4	5.1
328.15	0.17368	0.175	865.02	4.16
328.15	0.299	0.3012	862.1	2.96
333.15	0.00996	0.01003	855	51
333.15	0.02013	0.02028	865	26
333.15	0.03056	0.03078	858.5	17.5
333.15	0.03974	0.04	857.1	13.8
333.15	0.05858	0.059	848.8	9.8
333.15	0.0802	0.0808	864.5	7.5
333.15	0.12235	0.1232	861.7	5.4
333.15	0.13001	0.131	871.9	5.1
333.15	0.17368	0.175	874.33	4.17
333.15	0.299	0.3012	871.33	2.97
338.15	0.00996	0.01003	863	51
338.15	0.02013	0.02028	873	26
338.15	0.03056	0.03078	866.9	17.5
338.15	0.03974	0.04	865.5	13.8
338.15	0.05858	0.059	857.7	9.8
338.15	0.0802	0.0808	872.8	7.5
338.15	0.12235	0.1232	870.2	5.4
338.15	0.13001	0.131	880.1	5.1
338.15	0.17368	0.175	882.44	4.19
338.15	0.299	0.3012	879.44	2.98
343.15	0.00996	0.01003	872	51
343.15	0.02013	0.02028	880	26
343.15	0.03056	0.03078	873.5	17.6
343.15	0.03974	0.04	872.5	13.8
343.15	0.05858	0.059	864.9	9.8
343.15	0.0802	0.0808	879.6	7.5
343.15	0.12235	0.1232	877.4	5.4
343.15	0.13001	0.131	886.8	5.2
343.15	0.17368	0.175	889.24	4.2
343.15	0.299	0.3012	886.34	2.99
348.15	0.00996	0.01003	877	51
348.15	0.02013	0.02028	885	26
348.15	0.03056	0.03078	878.5	17.6
348.15	0.03974	0.04	877.8	13.8
348.15	0.05858	0.059	870.6	9.8
348.15	0.0802	0.0808	885	7.5
348.15	0.12235	0.1232	883.1	5.4
348.15	0.13001	0.131	892.4	5.2
348.15	0.17368	0.175	894.78	4.2
348.15	0.299	0.3012	892.3	3
353.15	0.00996	0.01003	881	51
353.15	0.02013	0.02028	888	26
353.15	0.03056	0.03078	882.1	17.6
353.15	0.03974	0.04	881.8	13.8
353.15	0.05858	0.059	874.9	9.8
353.15	0.0802	0.0808	889.2	7.5
353.15	0.12235	0.1232	887.6	5.4
353.15	0.13001	0.131	896.7	5.2
353.15	0.17368	0.175	899.27	4.21
353.15	0.299	0.3012	897.14	3.01
358.15	0.00996	0.01003	882	51
358.15	0.02013	0.02028	891	26
358.15	0.03056	0.03078	884.6	17.6
358.15	0.03974	0.04	884.3	13.8
358.15	0.05858	0.059	877.6	9.8
358.15	0.0802	0.0808	891.9	7.5
358.15	0.12235	0.1232	890.8	5.4
358.15	0.13001	0.131	899.8	5.2
358.15	0.17368	0.175	902.55	4.22
358.15	0.299	0.3012	901.03	3.02
363.15	0.00996	0.01003	883	51
363.15	0.02013	0.02028	892	26
363.15	0.03056	0.03078	886.2	17.6
363.15	0.03974	0.04	885.3	13.8
363.15	0.05858	0.059	879.2	9.8
363.15	0.0802	0.0808	893.6	7.5
363.15	0.12235	0.1232	892.7	5.4
363.15	0.13001	0.131	901.7	5.2
363.15	0.17368	0.175	904.66	4.22
363.15	0.299	0.3012	903.73	3.02
368.15	0.00996	0.01003	883	51
368.15	0.02013	0.02028	890	26
368.15	0.03056	0.03078	885.7	17.6
368.15	0.03974	0.04	884.9	13.8
368.15	0.05858	0.059	879.1	9.8
368.15	0.0802	0.0808	893.9	7.5
368.15	0.12235	0.1232	893.3	5.4
368.15	0.13001	0.131	902.1	5.2
368.15	0.17368	0.175	905.39	4.22
368.15	0.299	0.3012	905.14	3.02
373.15	0.00996	0.01003	880	51
373.15	0.02013	0.02028	888	26
373.15	0.03056	0.03078	883.9	17.6
373.15	0.03974	0.04	882.9	13.8
373.15	0.05858	0.059	877.7	9.8
373.15	0.0802	0.0808	893	7.5
373.15	0.12235	0.1232	892.6	5.4
373.15	0.13001	0.131	901.5	5.2
373.15	0.17368	0.175	905.1	4.22
373.15	0.299	0.3012	905.59	3.02
378.15	0.00996	0.01003	876	51
378.15	0.02013	0.02028	884	26
378.15	0.03056	0.03078	881.2	17.6
378.15	0.03974	0.04	879.5	13.8
378.15	0.05858	0.059	875.3	9.8
378.15	0.0802	0.0808	891.1	7.5
378.15	0.12235	0.1232	890.7	5.4
378.15	0.13001	0.131	899.6	5.2
378.15	0.17368	0.175	903.58	4.22
378.15	0.299	0.3012	904.77	3.02
383.15	0.00996	0.01003	871	51
383.15	0.02013	0.02028	879	26
383.15	0.03056	0.03078	877.3	17.6
383.15	0.03974	0.04	874.9	13.8
383.15	0.05858	0.059	871.6	9.8
383.15	0.0802	0.0808	888	7.5
383.15	0.12235	0.1232	887.1	5.4
383.15	0.13001	0.131	896.8	5.2
383.15	0.17368	0.175	900.98	4.21
383.15	0.299	0.3012	902.99	3.02
388.15	0.00996	0.01003	867	51
388.15	0.02013	0.02028	874	26
388.15	0.03056	0.03078	872.9	17.6
388.15	0.03974	0.04	869	13.8
388.15	0.05858	0.059	867.1	9.8
388.15	0.0802	0.0808	884.2	7.5
388.15	0.12235	0.1232	883	5.4
388.15	0.13001	0.131	892.7	5.2
388.15	0.17368	0.175	897.43	4.21
388.15	0.299	0.3012	900.32	3.02
393.15	0.00996	0.01003	862	51
393.15	0.02013	0.02028	869	26
393.15	0.03056	0.03078	867.5	17.6
393.15	0.03974	0.04	863.5	13.8
393.15	0.05858	0.059	861.6	9.8
393.15	0.0802	0.0808	879.1	7.5
393.15	0.12235	0.1232	878	5.4
393.15	0.13001	0.131	887.9	5.2
393.15	0.17368	0.175	893.1	4.2
393.15	0.299	0.3012	896.77	3.01

System: sodium chloride + water + 1,4,7,10,13,16-hexaoxacyclooctadecane; phases: Liquid
Fixed: Pressure, kPa = 350
Property: Apparent molar heat capacity, J/K/mol (Liquid); method: XDSC:UFactor:0.5
Temperature, K	Molality, mol/kg of 1,4,7,10,13,16-hexaoxacyclooctadecane	Molality, mol/kg of sodium chloride	Apparent molar heat capacity, J/K/mol	uncertainty
278.15	0.13	0.1663	624	3.9
278.15	0.1793	0.2293	634.06	3.14
278.15	0.2994	0.383	642.03	2.27
283.15	0.13	0.1663	651.3	4
283.15	0.1793	0.2293	660.06	3.18
283.15	0.2994	0.383	666.32	2.31
288.15	0.13	0.1663	672.9	4
288.15	0.1793	0.2293	680.27	3.21
288.15	0.2994	0.383	685.24	2.34
293.15	0.13	0.1663	691.4	4
293.15	0.1793	0.2293	697.67	3.23
293.15	0.2994	0.383	701.44	2.36
298.15	0.13	0.1663	708	4.1
298.15	0.1793	0.2293	713.29	3.26
298.15	0.2994	0.383	716.03	2.38
303.15	0.13	0.1663	723.3	4.1
303.15	0.1793	0.2293	727.81	3.28
303.15	0.2994	0.383	729.58	2.41
308.15	0.13	0.1663	737.4	4.1
308.15	0.1793	0.2293	741.36	3.3
308.15	0.2994	0.383	742.31	2.42
313.15	0.13	0.1663	750.9	4.1
313.15	0.1793	0.2293	754.21	3.32
313.15	0.2994	0.383	754.31	2.44
318.15	0.13	0.1663	763.2	4.2
318.15	0.1793	0.2293	766.1	3.33
318.15	0.2994	0.383	765.49	2.46
323.15	0.13	0.1663	774.7	4.2
323.15	0.1793	0.2293	777.25	3.35
323.15	0.2994	0.383	776.15	2.47
328.15	0.13	0.1663	785.3	4.2
328.15	0.1793	0.2293	787.35	3.37
328.15	0.2994	0.383	785.83	2.49
333.15	0.13	0.1663	794.9	4.2
333.15	0.1793	0.2293	796.57	3.38
333.15	0.2994	0.383	794.81	2.5
338.15	0.13	0.1663	803.2	4.2
338.15	0.1793	0.2293	804.58	3.39
338.15	0.2994	0.383	802.82	2.51
343.15	0.13	0.1663	810.2	4.2
343.15	0.1793	0.2293	811.36	3.4
343.15	0.2994	0.383	809.68	2.53
348.15	0.13	0.1663	815.9	4.2
348.15	0.1793	0.2293	817.1	3.41
348.15	0.2994	0.383	815.67	2.53
353.15	0.13	0.1663	820.5	4.2
353.15	0.1793	0.2293	821.66	3.42
353.15	0.2994	0.383	820.59	2.54
358.15	0.13	0.1663	823.7	4.2
358.15	0.1793	0.2293	825.25	3.42
358.15	0.2994	0.383	824.66	2.55
363.15	0.13	0.1663	825.8	4.3
363.15	0.1793	0.2293	827.6	3.43
363.15	0.2994	0.383	827.56	2.55
368.15	0.13	0.1663	826.5	4.3
368.15	0.1793	0.2293	828.59	3.43
368.15	0.2994	0.383	829.19	2.55
373.15	0.13	0.1663	826.1	4.3
373.15	0.1793	0.2293	828.64	3.43
373.15	0.2994	0.383	830.04	2.56
378.15	0.13	0.1663	824.3	4.2
378.15	0.1793	0.2293	827.3	3.43
378.15	0.2994	0.383	829.39	2.55
383.15	0.13	0.1663	821.2	4.2
383.15	0.1793	0.2293	825.04	3.42
383.15	0.2994	0.383	827.94	2.55
388.15	0.13	0.1663	817	4.2
388.15	0.1793	0.2293	821.74	3.42
388.15	0.2994	0.383	825.52	2.55
393.15	0.13	0.1663	811.9	4.2
393.15	0.1793	0.2293	817.72	3.41
393.15	0.2994	0.383	822.2	2.54

System: sodium chloride + water + 1,4,7,10,13,16-hexaoxacyclooctadecane; phases: Liquid
Fixed: Pressure, kPa = 350
Property: Apparent molar heat capacity, J/K/mol (Liquid); method: XDSC:UFactor:0.5
Temperature, K	Molality, mol/kg of 1,4,7,10,13,16-hexaoxacyclooctadecane	Molality, mol/kg of sodium chloride	Apparent molar heat capacity, J/K/mol	uncertainty
278.15	0.1401	0.085657	494.4	6.6
278.15	0.1801	0.11015	505.8	5.3
278.15	0.2971	0.181666	519	3.5
283.15	0.1401	0.085657	532.5	6.6
283.15	0.1801	0.11015	542.6	5.4
283.15	0.2971	0.181666	555	3.6
288.15	0.1401	0.085657	563.4	6.7
288.15	0.1801	0.11015	572.7	5.4
288.15	0.2971	0.181666	584.1	3.6
293.15	0.1401	0.085657	590.9	6.7
293.15	0.1801	0.11015	599.2	5.4
293.15	0.2971	0.181666	609.88	3.67
298.15	0.1401	0.085657	616.5	6.8
298.15	0.1801	0.11015	624	5.5
298.15	0.2971	0.181666	633.83	3.71
303.15	0.1401	0.085657	640.8	6.8
303.15	0.1801	0.11015	647.4	5.5
303.15	0.2971	0.181666	656.56	3.74
308.15	0.1401	0.085657	663.5	6.8
308.15	0.1801	0.11015	669.6	5.5
308.15	0.2971	0.181666	678.02	3.77
313.15	0.1401	0.085657	685.3	6.9
313.15	0.1801	0.11015	691	5.6
313.15	0.2971	0.181666	698.47	3.81
318.15	0.1401	0.085657	705.5	6.9
318.15	0.1801	0.11015	710.6	5.6
318.15	0.2971	0.181666	717.54	3.83
323.15	0.1401	0.085657	724.4	6.9
323.15	0.1801	0.11015	729.3	5.6
323.15	0.2971	0.181666	735.54	3.86
328.15	0.1401	0.085657	741.5	7
328.15	0.1801	0.11015	746.2	5.7
328.15	0.2971	0.181666	751.91	3.89
333.15	0.1401	0.085657	756.6	7
333.15	0.1801	0.11015	761.3	5.7
333.15	0.2971	0.181666	766.67	3.91
338.15	0.1401	0.085657	769.6	7
338.15	0.1801	0.11015	774.2	5.7
338.15	0.2971	0.181666	779.49	3.93
343.15	0.1401	0.085657	780.6	7
343.15	0.1801	0.11015	785.1	5.7
343.15	0.2971	0.181666	790.38	3.94
348.15	0.1401	0.085657	789.2	7
348.15	0.1801	0.11015	793.8	5.7
348.15	0.2971	0.181666	799.34	3.96
353.15	0.1401	0.085657	795.8	7
353.15	0.1801	0.11015	800.7	5.7
353.15	0.2971	0.181666	806.34	3.97
358.15	0.1401	0.085657	800.7	7
358.15	0.1801	0.11015	805.4	5.8
358.15	0.2971	0.181666	811.47	3.97
363.15	0.1401	0.085657	803.1	7
363.15	0.1801	0.11015	808.2	5.8
363.15	0.2971	0.181666	814.58	3.98
368.15	0.1401	0.085657	803.6	7
368.15	0.1801	0.11015	809	5.8
368.15	0.2971	0.181666	815.72	3.98
373.15	0.1401	0.085657	802.1	7
373.15	0.1801	0.11015	808.1	5.8
373.15	0.2971	0.181666	815.18	3.98
378.15	0.1401	0.085657	798.8	7
378.15	0.1801	0.11015	805.2	5.8
378.15	0.2971	0.181666	812.7	3.98
383.15	0.1401	0.085657	794	7
383.15	0.1801	0.11015	800.6	5.7
383.15	0.2971	0.181666	808.6	3.97
388.15	0.1401	0.085657	787.5	7
388.15	0.1801	0.11015	794.6	5.7
388.15	0.2971	0.181666	803.09	3.96
393.15	0.1401	0.085657	780	7
393.15	0.1801	0.11015	787.3	5.7
393.15	0.2971	0.181666	796.15	3.95

System: sodium chloride + water + 1,4,7,10,13,16-hexaoxacyclooctadecane; phases: Liquid
Fixed: Pressure, kPa = 350
Property: Apparent molar volume, m3/mol (Liquid); method: SAME:UFactor:0.5
Temperature, K	Molality, mol/kg of 1,4,7,10,13,16-hexaoxacyclooctadecane	Molality, mol/kg of sodium chloride	Apparent molar volume, m3/mol	uncertainty
278.15	0.00996	0.01003	0.000212	2.5e-05
278.15	0.02013	0.02028	0.00023936	1.425e-05
278.15	0.03056	0.03078	0.0002297	8.9e-06
278.15	0.03974	0.04	0.00023528	7.07e-06
278.15	0.05858	0.059	0.0002334	4.8e-06
278.15	0.0802	0.0808	0.00023712	3.55e-06
278.15	0.1223	0.1232	0.00023793	2.34e-06
278.15	0.13	0.131	0.00023825	2.21e-06
278.15	0.1737	0.175	0.00023858	1.66e-06
278.15	0.299	0.3012	0.00024008	9.8e-07
283.15	0.00996	0.01003	0.000211	2.5e-05
283.15	0.02013	0.02028	0.00023802	1.415e-05
283.15	0.03056	0.03078	0.0002302	8.9e-06
283.15	0.03974	0.04	0.00023754	7.16e-06
283.15	0.05858	0.059	0.0002348	4.8e-06
283.15	0.0802	0.0808	0.0002387	3.58e-06
283.15	0.1223	0.1232	0.0002391	2.36e-06
283.15	0.13	0.131	0.00023993	2.23e-06
283.15	0.1737	0.175	0.00024018	1.67e-06
283.15	0.299	0.3012	0.00024159	9.9e-07
288.15	0.00996	0.01003	0.000213	2.5e-05
288.15	0.02013	0.02028	0.00023928	1.424e-05
288.15	0.03056	0.03078	0.0002314	9e-06
288.15	0.03974	0.04	0.000239	7.22e-06
288.15	0.05858	0.059	0.0002366	4.8e-06
288.15	0.0802	0.0808	0.00024001	3.6e-06
288.15	0.1223	0.1232	0.00024042	2.37e-06
288.15	0.13	0.131	0.00024139	2.24e-06
288.15	0.1737	0.175	0.00024155	1.69e-06
288.15	0.299	0.3012	0.0002429	9.9e-07
298.15	0.00996	0.01003	0.000218	2.6e-05
298.15	0.02013	0.02028	0.00024138	1.441e-05
298.15	0.03056	0.03078	0.0002332	9.1e-06
298.15	0.03974	0.04	0.0002421	7.34e-06
298.15	0.05858	0.059	0.0002394	4.9e-06
298.15	0.0802	0.0808	0.00024271	3.65e-06
298.15	0.1223	0.1232	0.00024315	2.41e-06
298.15	0.13	0.131	0.00024394	2.28e-06
298.15	0.1737	0.175	0.00024416	1.71e-06
298.15	0.299	0.3012	0.00024532	1.01e-06
308.15	0.00996	0.01003	0.000224	2.6e-05
308.15	0.02013	0.02028	0.00024309	1.454e-05
308.15	0.03056	0.03078	0.0002352	9.2e-06
308.15	0.03974	0.04	0.00024457	7.44e-06
308.15	0.05858	0.059	0.0002418	5e-06
308.15	0.0802	0.0808	0.00024508	3.7e-06
308.15	0.1223	0.1232	0.00024589	2.44e-06
308.15	0.13	0.131	0.00024648	2.31e-06
308.15	0.1737	0.175	0.00024655	1.73e-06
308.15	0.299	0.3012	0.00024757	1.02e-06
318.15	0.00996	0.01003	0.000235	2.8e-05
318.15	0.02013	0.02028	0.0002446	1.465e-05
318.15	0.03056	0.03078	0.0002385	9.4e-06
318.15	0.03974	0.04	0.00024628	7.5e-06
318.15	0.05858	0.059	0.0002436	5e-06
318.15	0.0802	0.0808	0.00024716	3.74e-06
318.15	0.1223	0.1232	0.00024809	2.47e-06
318.15	0.13	0.131	0.00024845	2.33e-06
318.15	0.1737	0.175	0.00024888	1.75e-06
318.15	0.299	0.3012	0.00024984	1.03e-06
328.15	0.00996	0.01003	0.000245	3e-05
328.15	0.02013	0.02028	0.00024591	1.476e-05
328.15	0.03056	0.03078	0.0002426	9.6e-06
328.15	0.03974	0.04	0.00024832	7.59e-06
328.15	0.05858	0.059	0.0002467	5.1e-06
328.15	0.0802	0.0808	0.00024925	3.78e-06
328.15	0.1223	0.1232	0.00025008	2.5e-06
328.15	0.13	0.131	0.0002503	2.35e-06
328.15	0.1737	0.175	0.00025098	1.77e-06
328.15	0.299	0.3012	0.00025183	1.04e-06
338.15	0.00996	0.01003	0.000252	3.1e-05
338.15	0.02013	0.02028	0.00024759	1.489e-05
338.15	0.03056	0.03078	0.0002471	9.8e-06
338.15	0.03974	0.04	0.00025023	7.66e-06
338.15	0.05858	0.059	0.0002499	5.2e-06
338.15	0.0802	0.0808	0.00025114	3.82e-06
338.15	0.1223	0.1232	0.00025207	2.52e-06
338.15	0.13	0.131	0.00025241	2.38e-06
338.15	0.1737	0.175	0.00025286	1.79e-06
338.15	0.299	0.3012	0.00025384	1.05e-06
348.15	0.00996	0.01003	0.0002509	3.06e-05
348.15	0.02013	0.02028	0.00024901	1.5e-05
348.15	0.03056	0.03078	0.000249	9.9e-06
348.15	0.03974	0.04	0.0002518	7.7e-06
348.15	0.05858	0.059	0.000251	5.2e-06
348.15	0.0802	0.0808	0.00025312	3.86e-06
348.15	0.1223	0.1232	0.00025361	2.54e-06
348.15	0.13	0.131	0.00025439	2.4e-06
348.15	0.1737	0.175	0.0002546	1.81e-06
348.15	0.299	0.3012	0.00025571	1.06e-06
358.15	0.00996	0.01003	0.000251	3.1e-05
358.15	0.02013	0.02028	0.00025039	1.511e-05
358.15	0.03056	0.03078	0.0002531	1.01e-05
358.15	0.03974	0.04	0.00025335	7.79e-06
358.15	0.05858	0.059	0.0002528	5.3e-06
358.15	0.0802	0.0808	0.00025522	3.9e-06
358.15	0.1223	0.1232	0.00025544	2.57e-06
358.15	0.13	0.131	0.00025632	2.43e-06
358.15	0.1737	0.175	0.00025653	1.82e-06
358.15	0.299	0.3012	0.00025761	1.07e-06
368.15	0.00996	0.01003	0.000252	3.1e-05
368.15	0.02013	0.02028	0.0002538	1.54e-05
368.15	0.03056	0.03078	0.0002565	1.03e-05
368.15	0.03974	0.04	0.0002556	7.88e-06
368.15	0.05858	0.059	0.0002552	5.3e-06
368.15	0.0802	0.0808	0.0002576	3.9e-06
368.15	0.1223	0.1232	0.00025772	2.6e-06
368.15	0.13	0.131	0.00025811	2.45e-06
368.15	0.1737	0.175	0.00025813	1.84e-06
368.15	0.299	0.3012	0.00025939	1.08e-06

System: sodium chloride + water + 1,4,7,10,13,16-hexaoxacyclooctadecane; phases: Liquid
Fixed: Pressure, kPa = 350
Property: Apparent molar volume, m3/mol (Liquid); method: SAME:UFactor:0.5
Temperature, K	Molality, mol/kg of 1,4,7,10,13,16-hexaoxacyclooctadecane	Molality, mol/kg of sodium chloride	Apparent molar volume, m3/mol	uncertainty
278.15	0.13	0.1663	0.00022775	1.64e-06
278.15	0.1793	0.2293	0.00022897	1.2e-06
278.15	0.2994	0.383	0.0002304	7.3e-07
283.15	0.13	0.1663	0.00022943	1.66e-06
283.15	0.1793	0.2293	0.00023034	1.21e-06
283.15	0.2994	0.383	0.00023184	7.4e-07
288.15	0.13	0.1663	0.00023091	1.67e-06
288.15	0.1793	0.2293	0.00023169	1.22e-06
288.15	0.2994	0.383	0.00023326	7.5e-07
298.15	0.13	0.1663	0.00023364	1.7e-06
298.15	0.1793	0.2293	0.00023395	1.24e-06
298.15	0.2994	0.383	0.00023574	7.6e-07
308.15	0.13	0.1663	0.0002357	1.72e-06
308.15	0.1793	0.2293	0.00023624	1.25e-06
308.15	0.2994	0.383	0.00023798	7.6e-07
318.15	0.13	0.1663	0.00023817	1.74e-06
318.15	0.1793	0.2293	0.0002384	1.27e-06
318.15	0.2994	0.383	0.00024006	7.7e-07
328.15	0.13	0.1663	0.00023991	1.76e-06
328.15	0.1793	0.2293	0.00024038	1.28e-06
328.15	0.2994	0.383	0.00024176	7.8e-07
338.15	0.13	0.1663	0.00024174	1.78e-06
338.15	0.1793	0.2293	0.00024223	1.3e-06
338.15	0.2994	0.383	0.00024362	7.9e-07
348.15	0.13	0.1663	0.00024357	1.79e-06
348.15	0.1793	0.2293	0.00024393	1.31e-06
348.15	0.2994	0.383	0.00024539	8e-07
358.15	0.13	0.1663	0.0002453	1.81e-06
358.15	0.1793	0.2293	0.00024574	1.32e-06
358.15	0.2994	0.383	0.00024717	8e-07
368.15	0.13	0.1663	0.00024675	1.82e-06
368.15	0.1793	0.2293	0.00024742	1.33e-06
368.15	0.2994	0.383	0.00024879	8.1e-07

System: sodium chloride + water + 1,4,7,10,13,16-hexaoxacyclooctadecane; phases: Liquid
Fixed: Pressure, kPa = 350
Property: Apparent molar volume, m3/mol (Liquid); method: SAME:UFactor:0.5
Temperature, K	Molality, mol/kg of 1,4,7,10,13,16-hexaoxacyclooctadecane	Molality, mol/kg of sodium chloride	Apparent molar volume, m3/mol	uncertainty
278.15	0.1401	0.0857	0.00021089	2.88e-06
278.15	0.2971	0.1817	0.00021505	1.4e-06
283.15	0.1401	0.0857	0.00021316	2.92e-06
283.15	0.2971	0.1817	0.00021695	1.42e-06
288.15	0.1401	0.0857	0.00021528	2.96e-06
288.15	0.2971	0.1817	0.00021885	1.43e-06
298.15	0.1401	0.0857	0.00021879	3.02e-06
298.15	0.2971	0.1817	0.00022211	1.46e-06
308.15	0.1401	0.0857	0.00022195	3.07e-06
308.15	0.2971	0.1817	0.00022497	1.48e-06
318.15	0.1401	0.0857	0.00022448	3.12e-06
318.15	0.2971	0.1817	0.00022773	1.51e-06
328.15	0.1401	0.0857	0.00022708	3.16e-06
328.15	0.2971	0.1817	0.00023026	1.53e-06
338.15	0.1401	0.0857	0.00022931	3.2e-06
338.15	0.2971	0.1817	0.00023258	1.55e-06
348.15	0.1401	0.0857	0.00023174	3.25e-06
348.15	0.2971	0.1817	0.00023483	1.57e-06
358.15	0.1401	0.0857	0.00023384	3.28e-06
358.15	0.2971	0.1817	0.00023699	1.59e-06
368.15	0.1401	0.0857	0.00023601	3.32e-06
368.15	0.2971	0.1817	0.00023898	1.6e-06
