Measured thermophysical data. The (p-Vm-T-x) properties of {water (1) + acetamide (2)} mixtures in the range 278.15-323.15 K and 0.10-100 MPa
Source: J. Chem. Thermodyn., 2019, 10.1016/j.jct.2019.06.028
Compound 1: water, H2O, InChI=1S/H2O/h1H2
Compound 2: ethanamide, C2H5NO, InChI=1S/C2H5NO/c1-2(3)4/h1H3,(H2,3,4), purity 99%

System: water; phases: Liquid
Fixed: Pressure, kPa = 101
Property: Mass density, kg/m3 (Liquid); method: Vibrating tube method
Temperature, K	Mass density, kg/m3	uncertainty
278.15	999.96	0.09
288.15	999.1	0.09
298.15	997.04	0.09
308.15	994.03	0.09
323.15	988.03	0.09

System: water; phases: Liquid
Property: Specific volume, m3/kg (Liquid); method: Constant-volume piezometry
Temperature, K	Pressure, kPa	Specific volume, m3/kg	uncertainty
278.15	10000	-0.00479	8e-05
288.15	10000	-0.00456	8e-05
298.15	10000	-0.00442	8e-05
308.15	10000	-0.00434	8e-05
323.15	10000	-0.00431	8e-05
278.15	25000	-0.01178	8e-05
288.15	25000	-0.01121	8e-05
298.15	25000	-0.01086	8e-05
308.15	25000	-0.01067	8e-05
323.15	25000	-0.01059	8e-05
278.15	50000	-0.02271	8e-05
288.15	50000	-0.02166	8e-05
298.15	50000	-0.02101	8e-05
308.15	50000	-0.02063	8e-05
323.15	50000	-0.02047	8e-05
278.15	75000	-0.03284	8e-05
288.15	75000	-0.03139	8e-05
298.15	75000	-0.03047	8e-05
308.15	75000	-0.02994	8e-05
323.15	75000	-0.0297	8e-05
278.15	100000	-0.04226	8e-05
288.15	100000	-0.04047	8e-05
298.15	100000	-0.03933	8e-05
308.15	100000	-0.03866	8e-05
323.15	100000	-0.03834	8e-05

System: ethanamide + water; phases: Liquid
Fixed: Pressure, kPa = 101
Property: Mass density, kg/m3 (Liquid); method: Vibrating tube method
Temperature, K	Mole fraction of ethanamide	Mass density, kg/m3	uncertainty
278.15	0	999.96	0.09
278.15	0.0045	1001.13	0.09
278.15	0.00696	1001.77	0.09
278.15	0.01255	1003.21	0.09
278.15	0.0221	1005.68	0.09
278.15	0.03704	1009.47	0.09
278.15	0.04992	1012.61	0.09
278.15	0.0607	1015.11	0.12
278.15	0.07958	1019.24	0.12
278.15	0.09463	1022.32	0.12
278.15	0.11279	1025.82	0.26
278.15	0.13253	1029.34	0.25
278.15	0.159	1033.54	0.24
278.15	0.19906	1038.57	0.23
278.15	0.25033	1043.75	0.23
288.15	0	999.1	0.09
288.15	0.0045	1000.13	0.09
288.15	0.00696	1000.68	0.09
288.15	0.01255	1001.93	0.09
288.15	0.0221	1004.08	0.09
288.15	0.03704	1007.37	0.09
288.15	0.04992	1010.12	0.09
288.15	0.0607	1012.3	0.12
288.15	0.07958	1015.92	0.12
288.15	0.09463	1018.65	0.12
288.15	0.11279	1021.71	0.25
288.15	0.13253	1024.81	0.24
288.15	0.159	1028.5	0.23
288.15	0.19906	1032.99	0.23
288.15	0.25033	1037.61	0.22
288.15	0.30388	1041.06	0.22
288.15	0.34555	1043.19	0.23
298.15	0	997.04	0.09
298.15	0.0045	997.95	0.09
298.15	0.00696	998.45	0.09
298.15	0.01255	999.55	0.09
298.15	0.0221	1001.45	0.09
298.15	0.03704	1004.39	0.09
298.15	0.04992	1006.82	0.09
298.15	0.0607	1008.75	0.12
298.15	0.07958	1011.95	0.12
298.15	0.09463	1014.35	0.12
298.15	0.11279	1017.06	0.24
298.15	0.13253	1019.79	0.23
298.15	0.159	1023.07	0.23
298.15	0.19906	1027.09	0.22
298.15	0.25033	1031.18	0.22
298.15	0.30388	1034.29	0.22
298.15	0.34555	1036.18	0.22
298.15	0.38752	1037.52	0.23
308.15	0	994.03	0.09
308.15	0.0045	994.84	0.09
308.15	0.00696	995.28	0.09
308.15	0.01255	996.27	0.09
308.15	0.0221	997.97	0.09
308.15	0.03704	1000.6	0.09
308.15	0.04992	1002.79	0.09
308.15	0.0607	1004.54	0.12
308.15	0.07958	1007.37	0.12
308.15	0.09463	1009.49	0.12
308.15	0.11279	1011.89	0.23
308.15	0.13253	1014.32	0.23
308.15	0.159	1017.25	0.22
308.15	0.19906	1020.83	0.22
308.15	0.25033	1024.52	0.22
308.15	0.30388	1027.28	0.22
308.15	0.34555	1028.97	0.22
308.15	0.38752	1030.2	0.22
323.15	0	988.03	0.09
323.15	0.0045	988.72	0.09
323.15	0.00696	989.09	0.09
323.15	0.01255	989.94	0.09
323.15	0.0221	991.4	0.09
323.15	0.03704	993.65	0.09
323.15	0.04992	995.48	0.09
323.15	0.0607	996.95	0.12
323.15	0.07958	999.36	0.12
323.15	0.09463	1001.16	0.12
323.15	0.11279	1003.22	0.23
323.15	0.13253	1005.31	0.22
323.15	0.159	1007.78	0.22
323.15	0.19906	1010.87	0.22
323.15	0.25033	1013.96	0.22
323.15	0.30388	1016.34	0.22
323.15	0.34555	1017.76	0.22
323.15	0.38752	1018.81	0.22

System: ethanamide + water; phases: Liquid
Property: Specific volume, m3/kg (Liquid); method: Constant-volume piezometry
Mole fraction of ethanamide	Temperature, K	Pressure, kPa	Specific volume, m3/kg	uncertainty
0	278.15	10000	-0.00479	8e-05
0	288.15	10000	-0.00456	8e-05
0	298.15	10000	-0.00442	8e-05
0	308.15	10000	-0.00434	8e-05
0	323.15	10000	-0.00431	8e-05
0	278.15	25000	-0.01178	8e-05
0	288.15	25000	-0.01121	8e-05
0	298.15	25000	-0.01086	8e-05
0	308.15	25000	-0.01067	8e-05
0	323.15	25000	-0.01059	8e-05
0	278.15	50000	-0.02271	8e-05
0	288.15	50000	-0.02166	8e-05
0	298.15	50000	-0.02101	8e-05
0	308.15	50000	-0.02063	8e-05
0	323.15	50000	-0.02047	8e-05
0	278.15	75000	-0.03284	8e-05
0	288.15	75000	-0.03139	8e-05
0	298.15	75000	-0.03047	8e-05
0	308.15	75000	-0.02994	8e-05
0	323.15	75000	-0.0297	8e-05
0	278.15	100000	-0.04226	8e-05
0	288.15	100000	-0.04047	8e-05
0	298.15	100000	-0.03933	8e-05
0	308.15	100000	-0.03866	8e-05
0	323.15	100000	-0.03834	8e-05
0.0045	278.15	10000	-0.00475	8e-05
0.0045	288.15	10000	-0.00451	8e-05
0.0045	298.15	10000	-0.00437	8e-05
0.0045	308.15	10000	-0.00431	8e-05
0.0045	323.15	10000	-0.00427	8e-05
0.0045	278.15	25000	-0.01166	8e-05
0.0045	288.15	25000	-0.0111	8e-05
0.0045	298.15	25000	-0.01077	8e-05
0.0045	308.15	25000	-0.01059	8e-05
0.0045	323.15	25000	-0.01051	8e-05
0.0045	278.15	50000	-0.02246	8e-05
0.0045	288.15	50000	-0.02146	8e-05
0.0045	298.15	50000	-0.02082	8e-05
0.0045	308.15	50000	-0.02047	8e-05
0.0045	323.15	50000	-0.02032	8e-05
0.0045	278.15	75000	-0.03246	8e-05
0.0045	288.15	75000	-0.0311	8e-05
0.0045	298.15	75000	-0.0302	8e-05
0.0045	308.15	75000	-0.02971	8e-05
0.0045	323.15	75000	-0.02947	8e-05
0.0045	278.15	100000	-0.04182	8e-05
0.0045	288.15	100000	-0.04009	8e-05
0.0045	298.15	100000	-0.039	8e-05
0.0045	308.15	100000	-0.03842	8e-05
0.0045	323.15	100000	-0.03809	8e-05
0.00696	278.15	10000	-0.00473	8e-05
0.00696	288.15	10000	-0.00448	8e-05
0.00696	298.15	10000	-0.00435	8e-05
0.00696	308.15	10000	-0.00428	8e-05
0.00696	323.15	10000	-0.00426	8e-05
0.00696	278.15	25000	-0.0116	8e-05
0.00696	288.15	25000	-0.01103	8e-05
0.00696	298.15	25000	-0.01071	8e-05
0.00696	308.15	25000	-0.01054	8e-05
0.00696	323.15	25000	-0.01047	8e-05
0.00696	278.15	50000	-0.02232	8e-05
0.00696	288.15	50000	-0.02133	8e-05
0.00696	298.15	50000	-0.02073	8e-05
0.00696	308.15	50000	-0.02039	8e-05
0.00696	323.15	50000	-0.02026	8e-05
0.00696	278.15	75000	-0.03226	8e-05
0.00696	288.15	75000	-0.03093	8e-05
0.00696	298.15	75000	-0.03009	8e-05
0.00696	308.15	75000	-0.02961	8e-05
0.00696	323.15	75000	-0.02941	8e-05
0.00696	278.15	100000	-0.04158	8e-05
0.00696	288.15	100000	-0.03988	8e-05
0.00696	298.15	100000	-0.03885	8e-05
0.00696	308.15	100000	-0.03828	8e-05
0.00696	323.15	100000	-0.03798	8e-05
0.01255	278.15	10000	-0.00467	8e-05
0.01255	288.15	10000	-0.00443	8e-05
0.01255	298.15	10000	-0.00431	8e-05
0.01255	308.15	10000	-0.00425	8e-05
0.01255	323.15	10000	-0.00423	8e-05
0.01255	278.15	25000	-0.01146	8e-05
0.01255	288.15	25000	-0.0109	8e-05
0.01255	298.15	25000	-0.01061	8e-05
0.01255	308.15	25000	-0.01047	8e-05
0.01255	323.15	25000	-0.0104	8e-05
0.01255	278.15	50000	-0.02201	8e-05
0.01255	288.15	50000	-0.02109	8e-05
0.01255	298.15	50000	-0.02056	8e-05
0.01255	308.15	50000	-0.02026	8e-05
0.01255	323.15	50000	-0.02013	8e-05
0.01255	278.15	75000	-0.0318	8e-05
0.01255	288.15	75000	-0.03058	8e-05
0.01255	298.15	75000	-0.02985	8e-05
0.01255	308.15	75000	-0.02941	8e-05
0.01255	323.15	75000	-0.02922	8e-05
0.01255	278.15	100000	-0.04104	8e-05
0.01255	288.15	100000	-0.03941	8e-05
0.01255	298.15	100000	-0.0385	8e-05
0.01255	308.15	100000	-0.03799	8e-05
0.01255	323.15	100000	-0.03774	8e-05
0.0221	278.15	10000	-0.00457	8e-05
0.0221	288.15	10000	-0.00435	8e-05
0.0221	298.15	10000	-0.00424	8e-05
0.0221	308.15	10000	-0.0042	8e-05
0.0221	323.15	10000	-0.00419	8e-05
0.0221	278.15	25000	-0.01121	8e-05
0.0221	288.15	25000	-0.01072	8e-05
0.0221	298.15	25000	-0.01045	8e-05
0.0221	308.15	25000	-0.01032	8e-05
0.0221	323.15	25000	-0.0103	8e-05
0.0221	278.15	50000	-0.02152	8e-05
0.0221	288.15	50000	-0.02073	8e-05
0.0221	298.15	50000	-0.02024	8e-05
0.0221	308.15	50000	-0.01999	8e-05
0.0221	323.15	50000	-0.01993	8e-05
0.0221	278.15	75000	-0.03109	8e-05
0.0221	288.15	75000	-0.03004	8e-05
0.0221	298.15	75000	-0.0294	8e-05
0.0221	308.15	75000	-0.02904	8e-05
0.0221	323.15	75000	-0.02892	8e-05
0.0221	278.15	100000	-0.04015	8e-05
0.0221	288.15	100000	-0.03868	8e-05
0.0221	298.15	100000	-0.03794	8e-05
0.0221	308.15	100000	-0.03753	8e-05
0.0221	323.15	100000	-0.03736	8e-05
0.03704	278.15	10000	-0.00441	8e-05
0.03704	288.15	10000	-0.00424	8e-05
0.03704	298.15	10000	-0.00415	8e-05
0.03704	308.15	10000	-0.00413	8e-05
0.03704	323.15	10000	-0.00413	8e-05
0.03704	278.15	25000	-0.01083	8e-05
0.03704	288.15	25000	-0.01044	8e-05
0.03704	298.15	25000	-0.01023	8e-05
0.03704	308.15	25000	-0.01016	8e-05
0.03704	323.15	25000	-0.01015	8e-05
0.03704	278.15	50000	-0.02085	8e-05
0.03704	288.15	50000	-0.02018	8e-05
0.03704	298.15	50000	-0.01982	8e-05
0.03704	308.15	50000	-0.01965	8e-05
0.03704	323.15	50000	-0.01965	8e-05
0.03704	278.15	75000	-0.03015	8e-05
0.03704	288.15	75000	-0.02925	8e-05
0.03704	298.15	75000	-0.02878	8e-05
0.03704	308.15	75000	-0.02854	8e-05
0.03704	323.15	75000	-0.02852	8e-05
0.03704	278.15	100000	-0.03887	8e-05
0.03704	288.15	100000	-0.0377	8e-05
0.03704	298.15	100000	-0.03714	8e-05
0.03704	308.15	100000	-0.03689	8e-05
0.03704	323.15	100000	-0.03683	8e-05
0.04992	278.15	10000	-0.0043	8e-05
0.04992	288.15	10000	-0.00416	8e-05
0.04992	298.15	10000	-0.00409	8e-05
0.04992	308.15	10000	-0.00407	8e-05
0.04992	323.15	10000	-0.00408	8e-05
0.04992	278.15	25000	-0.01056	8e-05
0.04992	288.15	25000	-0.01024	8e-05
0.04992	298.15	25000	-0.01007	8e-05
0.04992	308.15	25000	-0.01001	8e-05
0.04992	323.15	25000	-0.01005	8e-05
0.04992	278.15	50000	-0.02033	8e-05
0.04992	288.15	50000	-0.01978	8e-05
0.04992	298.15	50000	-0.0195	8e-05
0.04992	308.15	50000	-0.01939	8e-05
0.04992	323.15	50000	-0.01943	8e-05
0.04992	278.15	75000	-0.02939	8e-05
0.04992	288.15	75000	-0.02866	8e-05
0.04992	298.15	75000	-0.02831	8e-05
0.04992	308.15	75000	-0.02816	8e-05
0.04992	323.15	75000	-0.0282	8e-05
0.04992	278.15	100000	-0.03786	8e-05
0.04992	288.15	100000	-0.03698	8e-05
0.04992	298.15	100000	-0.03653	8e-05
0.04992	308.15	100000	-0.03641	8e-05
0.04992	323.15	100000	-0.03643	8e-05
0.0607	278.15	10000	-0.00421	0.0001
0.0607	288.15	10000	-0.00411	0.0001
0.0607	298.15	10000	-0.00405	0.0001
0.0607	308.15	10000	-0.00403	0.0001
0.0607	323.15	10000	-0.00405	0.0001
0.0607	278.15	25000	-0.01033	0.0001
0.0607	288.15	25000	-0.0101	0.0001
0.0607	298.15	25000	-0.00996	0.0001
0.0607	308.15	25000	-0.00992	0.0001
0.0607	323.15	25000	-0.00996	0.0001
0.0607	278.15	50000	-0.0199	0.0001
0.0607	288.15	50000	-0.0195	0.0001
0.0607	298.15	50000	-0.0193	0.0001
0.0607	308.15	50000	-0.0192	0.0001
0.0607	323.15	50000	-0.01928	0.0001
0.0607	278.15	75000	-0.02877	0.0001
0.0607	288.15	75000	-0.02825	0.0001
0.0607	298.15	75000	-0.028	0.0001
0.0607	308.15	75000	-0.02788	0.0001
0.0607	323.15	75000	-0.02799	0.0001
0.0607	278.15	100000	-0.03709	0.0001
0.0607	288.15	100000	-0.03646	0.0001
0.0607	298.15	100000	-0.03615	0.0001
0.0607	308.15	100000	-0.03605	0.0001
0.0607	323.15	100000	-0.03614	0.0001
0.07958	278.15	10000	-0.00406	0.0001
0.07958	288.15	10000	-0.00401	0.0001
0.07958	298.15	10000	-0.00396	0.0001
0.07958	308.15	10000	-0.00397	0.0001
0.07958	323.15	10000	-0.004	0.0001
0.07958	278.15	25000	-0.00998	0.0001
0.07958	288.15	25000	-0.00985	0.0001
0.07958	298.15	25000	-0.00976	0.0001
0.07958	308.15	25000	-0.00977	0.0001
0.07958	323.15	25000	-0.00985	0.0001
0.07958	278.15	50000	-0.01925	0.0001
0.07958	288.15	50000	-0.01906	0.0001
0.07958	298.15	50000	-0.01892	0.0001
0.07958	308.15	50000	-0.01891	0.0001
0.07958	323.15	50000	-0.01905	0.0001
0.07958	278.15	75000	-0.02785	0.0001
0.07958	288.15	75000	-0.02761	0.0001
0.07958	298.15	75000	-0.02748	0.0001
0.07958	308.15	75000	-0.02746	0.0001
0.07958	323.15	75000	-0.02764	0.0001
0.07958	278.15	100000	-0.03589	0.0001
0.07958	288.15	100000	-0.03569	0.0001
0.07958	298.15	100000	-0.03549	0.0001
0.07958	308.15	100000	-0.03551	0.0001
0.07958	323.15	100000	-0.03571	0.0001
0.09463	278.15	10000	-0.00397	0.0001
0.09463	288.15	10000	-0.00394	0.0001
0.09463	298.15	10000	-0.00392	0.0001
0.09463	308.15	10000	-0.00393	0.0001
0.09463	323.15	10000	-0.00397	0.0001
0.09463	278.15	25000	-0.00976	0.0001
0.09463	288.15	25000	-0.00969	0.0001
0.09463	298.15	25000	-0.00965	0.0001
0.09463	308.15	25000	-0.00968	0.0001
0.09463	323.15	25000	-0.00978	0.0001
0.09463	278.15	50000	-0.01882	0.0001
0.09463	288.15	50000	-0.01873	0.0001
0.09463	298.15	50000	-0.01869	0.0001
0.09463	308.15	50000	-0.01872	0.0001
0.09463	323.15	50000	-0.01892	0.0001
0.09463	278.15	75000	-0.02724	0.0001
0.09463	288.15	75000	-0.02716	0.0001
0.09463	298.15	75000	-0.02714	0.0001
0.09463	308.15	75000	-0.02719	0.0001
0.09463	323.15	75000	-0.02744	0.0001
0.09463	278.15	100000	-0.03509	0.0001
0.09463	288.15	100000	-0.03505	0.0001
0.09463	298.15	100000	-0.03503	0.0001
0.09463	308.15	100000	-0.03516	0.0001
0.09463	323.15	100000	-0.03544	0.0001
0.11279	278.15	10000	-0.00389	0.0002
0.11279	288.15	10000	-0.00387	0.0002
0.11279	298.15	10000	-0.00386	0.0002
0.11279	308.15	10000	-0.00389	0.0002
0.11279	323.15	10000	-0.00395	0.0002
0.11279	278.15	25000	-0.00954	0.0002
0.11279	288.15	25000	-0.00952	0.0002
0.11279	298.15	25000	-0.00951	0.0002
0.11279	308.15	25000	-0.00958	0.0002
0.11279	323.15	25000	-0.00971	0.0002
0.11279	278.15	50000	-0.01844	0.0002
0.11279	288.15	50000	-0.01839	0.0002
0.11279	298.15	50000	-0.01845	0.0002
0.11279	308.15	50000	-0.01854	0.0002
0.11279	323.15	50000	-0.01878	0.0002
0.11279	278.15	75000	-0.02667	0.0002
0.11279	288.15	75000	-0.02668	0.0002
0.11279	298.15	75000	-0.0268	0.0002
0.11279	308.15	75000	-0.02691	0.0002
0.11279	323.15	75000	-0.02725	0.0002
0.11279	278.15	100000	-0.03435	0.0002
0.11279	288.15	100000	-0.03446	0.0002
0.11279	298.15	100000	-0.03457	0.0002
0.11279	308.15	100000	-0.0348	0.0002
0.11279	323.15	100000	-0.03519	0.0002
0.13253	278.15	10000	-0.0038	0.0002
0.13253	288.15	10000	-0.00381	0.0002
0.13253	298.15	10000	-0.00382	0.0002
0.13253	308.15	10000	-0.00386	0.0002
0.13253	323.15	10000	-0.00393	0.0002
0.13253	278.15	25000	-0.00935	0.0002
0.13253	288.15	25000	-0.00937	0.0002
0.13253	298.15	25000	-0.00941	0.0002
0.13253	308.15	25000	-0.00949	0.0002
0.13253	323.15	25000	-0.00967	0.0002
0.13253	278.15	50000	-0.01807	0.0002
0.13253	288.15	50000	-0.0181	0.0002
0.13253	298.15	50000	-0.01823	0.0002
0.13253	308.15	50000	-0.01836	0.0002
0.13253	323.15	50000	-0.01871	0.0002
0.13253	278.15	75000	-0.02615	0.0002
0.13253	288.15	75000	-0.02626	0.0002
0.13253	298.15	75000	-0.02647	0.0002
0.13253	308.15	75000	-0.02667	0.0002
0.13253	323.15	75000	-0.02715	0.0002
0.13253	278.15	100000	-0.03364	0.0002
0.13253	288.15	100000	-0.03392	0.0002
0.13253	298.15	100000	-0.03417	0.0002
0.13253	308.15	100000	-0.03448	0.0002
0.13253	323.15	100000	-0.03505	0.0002
0.159	278.15	10000	-0.00374	0.0002
0.159	288.15	10000	-0.00376	0.0002
0.159	298.15	10000	-0.00377	0.0002
0.159	308.15	10000	-0.00382	0.0002
0.159	323.15	10000	-0.00392	0.0002
0.159	278.15	25000	-0.00919	0.0002
0.159	288.15	25000	-0.00923	0.0002
0.159	298.15	25000	-0.00929	0.0002
0.159	308.15	25000	-0.00941	0.0002
0.159	323.15	25000	-0.00965	0.0002
0.159	278.15	50000	-0.01774	0.0002
0.159	288.15	50000	-0.01783	0.0002
0.159	298.15	50000	-0.01799	0.0002
0.159	308.15	50000	-0.0182	0.0002
0.159	323.15	50000	-0.01866	0.0002
0.159	278.15	75000	-0.02569	0.0002
0.159	288.15	75000	-0.02585	0.0002
0.159	298.15	75000	-0.02612	0.0002
0.159	308.15	75000	-0.02642	0.0002
0.159	323.15	75000	-0.02707	0.0002
0.159	278.15	100000	-0.03309	0.0002
0.159	288.15	100000	-0.03339	0.0002
0.159	298.15	100000	-0.03374	0.0002
0.159	308.15	100000	-0.03416	0.0002
0.159	323.15	100000	-0.03495	0.0002
0.19906	278.15	10000	-0.00368	0.0002
0.19906	288.15	10000	-0.00369	0.0002
0.19906	298.15	10000	-0.00373	0.0002
0.19906	308.15	10000	-0.00379	0.0002
0.19906	323.15	10000	-0.00392	0.0002
0.19906	278.15	25000	-0.00904	0.0002
0.19906	288.15	25000	-0.00908	0.0002
0.19906	298.15	25000	-0.00918	0.0002
0.19906	308.15	25000	-0.00932	0.0002
0.19906	323.15	25000	-0.00965	0.0002
0.19906	278.15	50000	-0.01742	0.0002
0.19906	288.15	50000	-0.01755	0.0002
0.19906	298.15	50000	-0.01775	0.0002
0.19906	308.15	50000	-0.01802	0.0002
0.19906	323.15	50000	-0.01866	0.0002
0.19906	278.15	75000	-0.02522	0.0002
0.19906	288.15	75000	-0.02546	0.0002
0.19906	298.15	75000	-0.02576	0.0002
0.19906	308.15	75000	-0.02617	0.0002
0.19906	323.15	75000	-0.02707	0.0002
0.19906	278.15	100000	-0.0325	0.0002
0.19906	288.15	100000	-0.03287	0.0002
0.19906	298.15	100000	-0.03328	0.0002
0.19906	308.15	100000	-0.03384	0.0002
0.19906	323.15	100000	-0.03491	0.0002
0.25033	278.15	10000	-0.00363	0.0002
0.25033	288.15	10000	-0.00365	0.0002
0.25033	298.15	10000	-0.00369	0.0002
0.25033	308.15	10000	-0.00378	0.0002
0.25033	323.15	10000	-0.00394	0.0002
0.25033	278.15	25000	-0.00891	0.0002
0.25033	288.15	25000	-0.00896	0.0002
0.25033	298.15	25000	-0.00909	0.0002
0.25033	308.15	25000	-0.00929	0.0002
0.25033	323.15	25000	-0.00968	0.0002
0.25033	278.15	50000	-0.01722	0.0002
0.25033	288.15	50000	-0.01732	0.0002
0.25033	298.15	50000	-0.0176	0.0002
0.25033	308.15	50000	-0.01797	0.0002
0.25033	323.15	50000	-0.01871	0.0002
0.25033	278.15	75000	-0.02494	0.0002
0.25033	288.15	75000	-0.0251	0.0002
0.25033	298.15	75000	-0.02555	0.0002
0.25033	308.15	75000	-0.02609	0.0002
0.25033	323.15	75000	-0.02715	0.0002
0.25033	278.15	100000	-0.03213	0.0002
0.25033	288.15	100000	-0.0324	0.0002
0.25033	298.15	100000	-0.03302	0.0002
0.25033	308.15	100000	-0.03373	0.0002
0.25033	323.15	100000	-0.03508	0.0002
0.30388	288.15	10000	-0.00363	0.0002
0.30388	298.15	10000	-0.00369	0.0002
0.30388	308.15	10000	-0.00378	0.0002
0.30388	323.15	10000	-0.00398	0.0002
0.30388	288.15	25000	-0.00892	0.0002
0.30388	298.15	25000	-0.0091	0.0002
0.30388	308.15	25000	-0.0093	0.0002
0.30388	323.15	25000	-0.00978	0.0002
0.30388	288.15	50000	-0.01726	0.0002
0.30388	298.15	50000	-0.01759	0.0002
0.30388	308.15	50000	-0.018	0.0002
0.30388	323.15	50000	-0.01891	0.0002
0.30388	288.15	75000	-0.02503	0.0002
0.30388	298.15	75000	-0.02554	0.0002
0.30388	308.15	75000	-0.02614	0.0002
0.30388	323.15	75000	-0.02743	0.0002
0.30388	288.15	100000	-0.03231	0.0002
0.30388	298.15	100000	-0.03301	0.0002
0.30388	308.15	100000	-0.03377	0.0002
0.30388	323.15	100000	-0.03545	0.0002
0.34555	288.15	10000	-0.00363	0.0002
0.34555	298.15	10000	-0.0037	0.0002
0.34555	308.15	10000	-0.0038	0.0002
0.34555	323.15	10000	-0.00402	0.0002
0.34555	288.15	25000	-0.00892	0.0002
0.34555	298.15	25000	-0.00911	0.0002
0.34555	308.15	25000	-0.00934	0.0002
0.34555	323.15	25000	-0.00989	0.0002
0.34555	288.15	50000	-0.01725	0.0002
0.34555	298.15	50000	-0.01763	0.0002
0.34555	308.15	50000	-0.01808	0.0002
0.34555	323.15	50000	-0.01911	0.0002
0.34555	288.15	75000	-0.02502	0.0002
0.34555	298.15	75000	-0.02559	0.0002
0.34555	308.15	75000	-0.02625	0.0002
0.34555	323.15	75000	-0.02772	0.0002
0.34555	288.15	100000	-0.03231	0.0002
0.34555	298.15	100000	-0.03306	0.0002
0.34555	308.15	100000	-0.03394	0.0002
0.34555	323.15	100000	-0.03585	0.0002
0.38752	298.15	10000	-0.00371	0.0002
0.38752	308.15	10000	-0.00382	0.0002
0.38752	323.15	10000	-0.00408	0.0002
0.38752	298.15	25000	-0.00915	0.0002
0.38752	308.15	25000	-0.0094	0.0002
0.38752	323.15	25000	-0.01004	0.0002
0.38752	298.15	50000	-0.01771	0.0002
0.38752	308.15	50000	-0.01821	0.0002
0.38752	323.15	50000	-0.01939	0.0002
0.38752	298.15	75000	-0.02572	0.0002
0.38752	308.15	75000	-0.02645	0.0002
0.38752	323.15	75000	-0.02814	0.0002
0.38752	298.15	100000	-0.03323	0.0002
0.38752	308.15	100000	-0.0342	0.0002
0.38752	323.15	100000	-0.03638	0.0002
