Measured thermophysical data. Non-ideal behaviour of a room temperature ionic liquid in an alkoxyethanol or poly ethers at T = (298.15 to 318.15) K
Source: J. Chem. Thermodyn., 2008, 10.1016/j.jct.2007.06.002
Compound 1: 1-butyl-3-methylimidazolium hexafluorophosphate, C8H15F6N2P, InChI=1S/C8H15N2.F6P/c1-3-4-5-10-7-6-9(2)8-10;1-7(2,3,4,5)6/h6-8H,3-5H2,1-2H3;/q+1;-1, purity 98%
Compound 2: 2-methoxyethan-1-ol, C3H8O2, InChI=1S/C3H8O2/c1-5-3-2-4/h4H,2-3H2,1H3, purity 99.5%
Compound 3: 1,2-dimethoxyethane, C4H10O2, InChI=1S/C4H10O2/c1-5-3-4-6-2/h3-4H2,1-2H3, purity 99%
Compound 4: 2,5,8-trioxanonane, C6H14O3, InChI=1S/C6H14O3/c1-7-3-5-9-6-4-8-2/h3-6H2,1-2H3, purity 99%

System: 1-butyl-3-methylimidazolium hexafluorophosphate; phases: Liquid
Fixed: Temperature, K = 298.15
Fixed: Pressure, kPa = 101.325
Property: Refractive index (Na D-line) (Liquid); method: ABBE::UFactor:4
Refractive index (Na D-line)	uncertainty
1.4089	0.0013
1.4058	0.0025

System: 1-butyl-3-methylimidazolium hexafluorophosphate; phases: Liquid
Fixed: Pressure, kPa = 101
Property: Mass density, kg/m3 (Liquid); method: VIBTUB:UFactor:128
Temperature, K	Mass density, kg/m3	uncertainty
298.15	1367.88	23.9
308.15	1359.33	23.45
318.15	1350.87	23.01

System: 2-methoxyethan-1-ol; phases: Liquid
Property: Refractive index (Na D-line) (Liquid); method: ABBE::UFactor:4
Temperature, K	Pressure, kPa	Refractive index (Na D-line)	uncertainty
298.15	101.325	1.4004	0.0013

System: 2-methoxyethan-1-ol; phases: Liquid
Fixed: Pressure, kPa = 101
Property: Mass density, kg/m3 (Liquid); method: VIBTUB:UFactor:128
Temperature, K	Mass density, kg/m3	uncertainty
298.15	960.05	6.01
308.15	950.81	6.47
318.15	941.45	6.94

System: 1,2-dimethoxyethane; phases: Liquid
Property: Refractive index (Na D-line) (Liquid); method: ABBE::UFactor:4
Temperature, K	Pressure, kPa	Refractive index (Na D-line)	uncertainty
298.15	101.325	1.379	0.0013

System: 1,2-dimethoxyethane; phases: Liquid
Fixed: Pressure, kPa = 101
Property: Mass density, kg/m3 (Liquid); method: VIBTUB::UFactor:16
Temperature, K	Mass density, kg/m3	uncertainty
298.15	864.47	1.49
308.15	853.47	1.56
318.15	842.27	1.62

System: 2,5,8-trioxanonane; phases: Liquid
Property: Refractive index (Na D-line) (Liquid); method: ABBE::UFactor:8
Temperature, K	Pressure, kPa	Refractive index (Na D-line)	uncertainty
298.15	101.325	1.4058	0.0025

System: 2,5,8-trioxanonane; phases: Liquid
Fixed: Pressure, kPa = 101
Property: Mass density, kg/m3 (Liquid); method: VIBTUB::UFactor:16
Temperature, K	Mass density, kg/m3	uncertainty
298.15	939.1	1.05
308.15	929.6	1.11
318.15	919.3	1.17

System: 2-methoxyethan-1-ol + 1-butyl-3-methylimidazolium hexafluorophosphate; phases: Liquid
Fixed: Pressure, kPa = 101
Fixed: Temperature, K = 298.15
Property: Refractive index (Na D-line) (Liquid); method: ABBE:UFactor:4
Mole fraction of 1-butyl-3-methylimidazolium hexafluorophosphate	Refractive index (Na D-line)	uncertainty
0	1.4004	0.0013
0.0037	1.4006	0.0013
0.0078	1.401	0.0013
0.012	1.4013	0.0013
0.0354	1.403	0.0013
0.0801	1.405	0.0013
0.1468	1.4065	0.0013
0.2542	1.4078	0.0013
0.396	1.4083	0.0013
0.6104	1.4086	0.0013
0.8127	1.4086	0.0013
0.8961	1.4089	0.0013
0.9345	1.409	0.0013
0.9749	1.409	0.0013
1	1.4089	0.0013

System: 2-methoxyethan-1-ol + 1-butyl-3-methylimidazolium hexafluorophosphate; phases: Liquid
Fixed: Pressure, kPa = 101
Property: Mass density, kg/m3 (Liquid); method: VIBTUB:UFactor:128
Temperature, K	Mole fraction of 1-butyl-3-methylimidazolium hexafluorophosphate	Mass density, kg/m3	uncertainty
298.15	0	960.05	6.01
298.15	0.0037	964.55	5.79
298.15	0.0078	969.43	5.55
298.15	0.012	974.36	5.3
298.15	0.0354	1000.13	4.04
298.15	0.0801	1042.78	6.19
298.15	0.1468	1094.24	8.81
298.15	0.2542	1157.35	12.05
298.15	0.396	1219.08	15.29
298.15	0.6104	1284.64	18.88
298.15	0.8127	1328.13	21.44
298.15	0.8961	1344.77	22.47
298.15	0.9345	1352.85	22.97
298.15	0.9749	1361.9	23.53
298.15	1	1367.88	23.9
308.15	0	950.81	6.47
308.15	0.0037	962.53	5.9
308.15	0.0078	967.34	5.65
308.15	0.012	972.19	5.41
308.15	0.0354	997.66	4.15
308.15	0.0801	1039.97	6.05
308.15	0.1468	1091.12	8.65
308.15	0.2542	1153.41	11.85
308.15	0.396	1213.6	15.01
308.15	0.6104	1277.88	18.53
308.15	0.8127	1320.65	21.06
308.15	0.8961	1336.68	22.05
308.15	0.9345	1344.49	22.53
308.15	0.9749	1353.35	23.08
308.15	1	1359.33	23.45
318.15	0	941.45	6.94
318.15	0.0037	945.96	6.72
318.15	0.0078	950.88	6.48
318.15	0.012	955.82	6.23
318.15	0.0354	981.7	4.94
318.15	0.0801	1024.48	5.27
318.15	0.1468	1076.09	7.9
318.15	0.2542	1139.53	11.15
318.15	0.396	1201.72	14.41
318.15	0.6104	1267.48	18
318.15	0.8127	1311.1	20.56
318.15	0.8961	1327.9	21.59
318.15	0.9345	1336	22.09
318.15	0.9749	1344.99	22.65
318.15	1	1350.87	23.01

System: 1,2-dimethoxyethane + 1-butyl-3-methylimidazolium hexafluorophosphate; phases: Liquid
Fixed: Pressure, kPa = 101
Fixed: Temperature, K = 298.15
Property: Refractive index (Na D-line) (Liquid); method: ABBE:UFactor:4
Mole fraction of 1-butyl-3-methylimidazolium hexafluorophosphate	Refractive index (Na D-line)	uncertainty
0	1.379	0.0013
0.0041	1.3781	0.0013
0.0125	1.3798	0.0013
0.0416	1.3859	0.0013
0.1055	1.3926	0.0013
0.1219	1.3941	0.0013
0.2474	1.4009	0.0013
0.3744	1.4043	0.0013
0.4937	1.4062	0.0013
0.7092	1.4076	0.0013
0.9329	1.4087	0.0013
1	1.4089	0.0013

System: 1,2-dimethoxyethane + 1-butyl-3-methylimidazolium hexafluorophosphate; phases: Liquid
Fixed: Pressure, kPa = 101
Property: Mass density, kg/m3 (Liquid); method: VIBTUB:UFactor:16
Temperature, K	Mole fraction of 1-butyl-3-methylimidazolium hexafluorophosphate	Mass density, kg/m3	uncertainty
298.15	0	864.47	1.49
298.15	0.0125	879.28	1.43
298.15	0.0416	912.09	1.24
298.15	0.1055	976.53	0.91
298.15	0.1219	991.51	0.85
298.15	0.2474	1089.14	1.43
298.15	0.3744	1164.22	2.04
298.15	0.4937	1219.89	2.54
298.15	0.7092	1296.36	3.34
298.15	0.9329	1353.78	4.09
298.15	1	1367.88	4.31
308.15	0	853.47	1.56
308.15	0.0125	868.36	1.49
308.15	0.0416	901.37	1.3
308.15	0.1055	966.23	0.96
308.15	0.1219	981.31	0.89
308.15	0.2474	1079.57	1.36
308.15	0.3744	1155.09	1.97
308.15	0.4937	1211.03	2.47
308.15	0.7092	1287.72	3.27
308.15	0.9329	1345.27	4.02
308.15	1	1359.33	4.24
318.15	0	842.27	1.62
318.15	0.0125	857.25	1.56
318.15	0.0416	890.47	1.37
318.15	0.1055	955.79	1.01
318.15	0.1219	971	0.94
318.15	0.2474	1069.97	1.3
318.15	0.3744	1145.98	1.91
318.15	0.4937	1202.22	2.41
318.15	0.7092	1279.25	3.2
318.15	0.9329	1336.85	3.95
318.15	1	1350.87	4.16

System: 2,5,8-trioxanonane + 1-butyl-3-methylimidazolium hexafluorophosphate; phases: Liquid
Fixed: Pressure, kPa = 101
Fixed: Temperature, K = 298.15
Property: Refractive index (Na D-line) (Liquid); method: ABBE:UFactor:8
Mole fraction of 1-butyl-3-methylimidazolium hexafluorophosphate	Refractive index (Na D-line)	uncertainty
0	1.4058	0.0025
0.0039	1.4063	0.0025
0.0076	1.4065	0.0025
0.0127	1.407	0.003
0.0304	1.4081	0.0025
0.0505	1.4092	0.0025
0.1003	1.4113	0.0025
0.1617	1.4141	0.0025
0.207	1.4149	0.0025
0.3024	1.4148	0.0025
0.4018	1.4142	0.0025
0.5023	1.4138	0.0025
0.5623	1.4123	0.0025
0.7197	1.4098	0.0025
0.9477	1.4094	0.0025
0.9842	1.4089	0.0025
1	1.4058	0.0025

System: 2,5,8-trioxanonane + 1-butyl-3-methylimidazolium hexafluorophosphate; phases: Liquid
Fixed: Pressure, kPa = 101
Property: Mass density, kg/m3 (Liquid); method: VIBTUB:UFactor:16
Temperature, K	Mole fraction of 1-butyl-3-methylimidazolium hexafluorophosphate	Mass density, kg/m3	uncertainty
298.15	0	939.1	1.05
298.15	0.0039	942.16	1.05
298.15	0.0076	945.03	1.03
298.15	0.0127	948.97	1.01
298.15	0.0304	962.27	0.94
298.15	0.0505	976.74	0.88
298.15	0.1003	1010.23	0.85
298.15	0.1617	1047.81	1.1
298.15	0.207	1073.6	1.29
298.15	0.3024	1124.55	1.7
298.15	0.4018	1173.96	2.13
298.15	0.5023	1219.47	2.54
298.15	0.5623	1243.6	2.78
298.15	0.7197	1292.24	3.32
298.15	0.9477	1345.16	4.04
298.15	0.9842	1359.24	4.21
298.15	0.9952	1365.36	4.28
298.15	1	1367.88	4.31
308.15	0	929.6	1.11
308.15	0.0039	932.57	1.1
308.15	0.0076	935.37	1.09
308.15	0.0127	939.22	1.07
308.15	0.0304	952.3	1
308.15	0.0505	966.73	0.93
308.15	0.1003	1000.46	0.79
308.15	0.1617	1038.53	1.03
308.15	0.207	1064.59	1.23
308.15	0.3024	1115.44	1.64
308.15	0.4018	1164.58	2.06
308.15	0.5023	1210.5	2.48
308.15	0.5623	1235.27	2.71
308.15	0.7197	1286.05	3.27
308.15	0.9477	1336.93	3.97
308.15	0.9842	1351.31	4.14
308.15	0.9952	1356.87	4.21
308.15	1	1359.33	4.24
318.15	0	919.3	1.17
318.15	0.0039	922.34	1.16
318.15	0.0076	925.2	1.15
318.15	0.0127	929.13	1.12
318.15	0.0304	942.43	1.05
318.15	0.0505	957.03	0.97
318.15	0.1003	990.93	0.83
318.15	0.1617	1028.98	0.98
318.15	0.207	1055.02	1.17
318.15	0.3024	1106.04	1.58
318.15	0.4018	1155.65	2
318.15	0.5023	1202.05	2.41
318.15	0.5623	1226.97	2.65
318.15	0.7197	1277.69	3.2
318.15	0.9477	1328.47	3.9
318.15	0.9842	1342.85	4.07
318.15	0.9952	1348.47	4.14
318.15	1	1350.87	4.16
