Measured thermophysical data. Saturation molalities and standard molar enthalpies of solution of cytidine(cr), hypoxanthine(cr), thymidine(cr), thymine(cr), uridine(cr), and xanthine(cr) in H2O(l)
Source: J. Chem. Thermodyn., 2004, 10.1016/j.jct.2004.04.005
Compound 1: cytidine, C9H13N3O5, InChI=1S/C9H13N3O5/c10-5-1-2-12(9(16)11-5)8-7(15)6(14)4(3-13)17-8/h1-2,4,6-8,13-15H,3H2,(H2,10,11,16)/t4-,6?,7?,8-/m1/s1
Compound 2: 1,7-dihydro-6H-purin-6-one, C5H4N4O, InChI=1S/C5H4N4O/c10-5-3-4(7-1-6-3)8-2-9-5/h1-2H,(H2,6,7,8,9,10)
Compound 3: thymidine, C10H14N2O5, InChI=1S/C10H14N2O5/c1-5-3-12(10(16)11-9(5)15)8-2-6(14)7(4-13)17-8/h3,6-8,13-14H,2,4H2,1H3,(H,11,15,16)/t6?,7-,8-/m1/s1
Compound 4: thymine, C5H6N2O2, InChI=1S/C5H6N2O2/c1-3-2-6-5(9)7-4(3)8/h2H,1H3,(H2,6,7,8,9)
Compound 5: uridine, C9H12N2O6, InChI=1S/C9H12N2O6/c12-3-4-6(14)7(15)8(17-4)11-2-1-5(13)10-9(11)16/h1-2,4,6-8,12,14-15H,3H2,(H,10,13,16)/t4-,6?,7?,8-/m1/s1
Compound 6: 3,7-dihydropurine-2,6-dione, C5H4N4O2, InChI=1S/C5H4N4O2/c10-4-2-3(7-1-6-2)8-5(11)9-4/h1H,(H3,6,7,8,9,10,11)
Compound 7: water, H2O, InChI=1S/H2O/h1H2

System: cytidine; phases: Crystal
Property: Mass density, kg/m3 (Crystal); method: OTHER
Temperature, K	Pressure, kPa	Mass density, kg/m3	uncertainty
298.15	101.325	1530	10

System: 1,7-dihydro-6H-purin-6-one; phases: Crystal
Property: Mass density, kg/m3 (Crystal); method: OTHER
Temperature, K	Pressure, kPa	Mass density, kg/m3	uncertainty
298.15	101.325	1600	10

System: thymidine; phases: Crystal
Property: Mass density, kg/m3 (Crystal); method: OTHER
Temperature, K	Pressure, kPa	Mass density, kg/m3	uncertainty
298.15	101.325	1460	10

System: thymine; phases: Crystal
Property: Mass density, kg/m3 (Crystal); method: OTHER
Temperature, K	Pressure, kPa	Mass density, kg/m3	uncertainty
298.15	101.325	1450	10

System: uridine; phases: Crystal
Property: Mass density, kg/m3 (Crystal); method: OTHER
Temperature, K	Pressure, kPa	Mass density, kg/m3	uncertainty
298.15	101.325	1600	10

System: cytidine + water; phases: Liquid, Crystal
Property: Molality, mol/kg (Liquid); method: OTHER
Temperature, K	Pressure, kPa	Molality, mol/kg	uncertainty
298.39	101.3	0.802	0.016

System: 1,7-dihydro-6H-purin-6-one + water; phases: Liquid, Crystal
Fixed: Pressure, kPa = 101.3
Property: Molality, mol/kg (Liquid); method: OTHER
Temperature, K	Molality, mol/kg	uncertainty
288.04	0.004789	5.7e-05
293.47	0.00593	7.6e-05
298.1	0.00757	0.0001
303.13	0.00965	0.00013
308.25	0.01263	0.00015

System: thymidine + water; phases: Liquid, Crystal
Property: Molality, mol/kg (Liquid); method: OTHER
Temperature, K	Pressure, kPa	Molality, mol/kg	uncertainty
298.39	101.3	0.226	0.0026

System: thymine + water; phases: Liquid, Crystal
Fixed: Pressure, kPa = 101.3
Property: Molality, mol/kg (Liquid); method: OTHER
Temperature, K	Molality, mol/kg	uncertainty
288.04	0.01817	0.00026
293.47	0.02434	0.00037
298.39	0.02888	0.00044
303.13	0.03413	0.00052
308.25	0.0401	0.00063

System: uridine + water; phases: Liquid, Crystal
Property: Molality, mol/kg (Liquid); method: OTHER
Temperature, K	Pressure, kPa	Molality, mol/kg	uncertainty
298.39	101.3	2.557	0.029

System: 3,7-dihydropurine-2,6-dione + water; phases: Liquid, Crystal
Fixed: Pressure, kPa = 101.3
Property: Molality, mol/kg (Liquid); method: OTHER
Temperature, K	Molality, mol/kg	uncertainty
288.04	0.000261	1.2e-05
293.27	0.000327	1.4e-05
298.06	0.000421	8e-06
303.13	0.000508	1.8e-05
308.25	0.000761	1e-05
