Measured thermophysical data. High temperature calorimetric examination of enthalpies of mixing in liquid (gadolinium germanium manganese) alloys
Source: J. Chem. Thermodyn., 2006, 10.1016/j.jct.2005.09.002
Compound 1: germanium, Ge, InChI=1S/Ge, purity 99.9999%
Compound 2: gadolinium, Gd, InChI=1S/Gd, purity 99.995%
Compound 3: manganese, Mn, InChI=1S/Mn, purity 99.995%

System: manganese + germanium; phases: Liquid
Fixed: Temperature, K = 1830
Fixed: Pressure, kPa = 101
Property: Partial molar enthalpy, kJ/mol of manganese (Liquid); method: Drop calorimetry
Mole fraction of manganese	Partial molar enthalpy, kJ/mol of manganese	uncertainty
0.04886	-40.26	8.05
0.05428	-48.2	9.64
0.0931	-43.5	8.7
0.09355	-52.59	10.52
0.13684	-77.85	15.57
0.14838	-29.35	5.87
0.14993	-46.3	9.26
0.23023	-45.89	9.18
0.23862	-36.04	7.21
0.24098	-38	7.6
0.31007	-50.86	10.17
0.31977	-52.18	10.44
0.34789	-37.12	7.42
0.39181	-46.85	9.37
0.439	-39.49	7.9
0.44035	-43.7	8.74
0.46726	-46.42	9.28
0.51509	-32.26	6.45
0.52639	-44.73	8.95
0.57491	-20.91	4.18
0.58356	-37	7.4
0.62973	-36.29	7.26
0.67471	-30.74	6.15
0.71115	-20.42	4.08
0.73846	-13.42	2.68

System: manganese + gadolinium + germanium; phases: Liquid
Fixed: Temperature, K = 1830
Fixed: Pressure, kPa = 101
Property: Partial molar enthalpy, kJ/mol of gadolinium (Liquid); method: Drop calorimetry
Solvent: Mole fraction of manganese	Mole fraction of gadolinium	Partial molar enthalpy, kJ/mol of gadolinium	uncertainty
0.14993	0.00522	-213.53	42.71
0.14993	0.01545	-182.46	36.49
0.14993	0.02593	-238.7	47.7
0.14993	0.0365	-196.82	39.36
0.14993	0.04698	-208.17	41.63
0.14993	0.05732	-211.94	42.39
0.14993	0.06689	-198.05	39.61
0.14993	0.07582	-187.91	37.58
0.14993	0.08499	-198.81	39.76
0.14993	0.09428	-201.13	40.23
0.14993	0.10357	-191.76	38.35
0.14993	0.1133	-217.97	43.59
0.14993	0.12384	-188.17	37.63
0.14993	0.1357	-222.56	44.51
0.14993	0.14871	-216.47	43.29
0.14993	0.16334	-189.08	37.82
0.14993	0.17883	-218.4	43.7
0.14993	0.1939	-226.06	45.21
0.14993	0.2083	-217.63	43.53
0.14993	0.2232	-179.65	35.93
0.14993	0.23872	-194.68	38.94
0.14993	0.25301	-172.16	34.43
0.14993	0.26665	-163.41	32.68
0.14993	0.28007	-184.61	36.92
0.14993	0.29327	-182.09	36.42
0.14993	0.30718	-171.4	34.3
0.14993	0.32185	-173.65	34.73
0.14993	0.33623	-178.35	35.67
0.14993	0.34994	-155.01	31
0.14993	0.3634	-174.2	34.8
0.14993	0.37668	-137.59	27.52
0.14993	0.39004	-141.76	28.35
0.14993	0.40404	-164.01	32.8
0.14993	0.41846	-140.55	28.11
0.14993	0.43327	-150.8	30.2
0.14993	0.44856	-130.5	26.1
0.14993	0.46354	-139.63	27.93
0.14993	0.47755	-122.8	24.6
0.14993	0.49148	-113.42	22.68
0.14993	0.50409	16.96	3.39
0.14993	0.51407	7.37	1.47
0.24098	0.00196	-214.36	42.87
0.24098	0.00622	-181.85	36.37
0.24098	0.01058	-212.28	42.46
0.24098	0.01475	-194.13	38.83
0.24098	0.01898	-172.06	34.41
0.24098	0.02348	-168.93	33.79
0.24098	0.02847	-170.22	34.04
0.24098	0.03389	-187.77	37.55
0.24098	0.03985	-185.2	37.04
0.24098	0.04584	-188.99	37.8
0.24098	0.05081	-198.36	39.67
0.24098	0.05552	-178.49	35.7
0.24098	0.06072	-186.12	37.22
0.24098	0.06627	-161.82	32.36
0.24098	0.07214	-195.65	39.13
0.24098	0.07772	-166.97	33.39
0.24098	0.08425	-174.55	34.91
0.24098	0.09388	-172.36	34.47
0.24098	0.10398	-178.74	35.75
0.24098	0.11571	-184.15	36.83
0.24098	0.13003	-173.89	34.78
0.24098	0.14395	-162.61	32.52
0.24098	0.15838	-179.08	35.82
0.24098	0.1744	-158.35	31.67
0.24098	0.18987	-165.43	33.09
0.24098	0.20382	-150.77	30.15
0.24098	0.21754	-155.89	31.18
0.24098	0.23238	-162.92	32.58
0.24098	0.24806	-142.93	28.59
0.24098	0.26335	-142.08	28.42
0.24098	0.27858	-144.67	28.93
0.24098	0.29329	-124.75	24.95
0.24098	0.3072	-134.73	26.95
0.24098	0.32091	-126.72	25.34
0.24098	0.33475	-130.44	26.09
0.24098	0.34855	-119.29	23.86
0.24098	0.36203	-110.76	22.15
0.24098	0.375	-93.61	18.72
0.24098	0.3875	-118.16	23.63
0.24098	0.3999	-99.4	19.88
0.24098	0.41209	-108.47	21.69
0.24098	0.42382	-91.84	18.37
0.46726	0.0004	-175.92	35.18
0.46726	0.00161	-186	37
0.46726	0.00438	-194.49	38.9
0.46726	0.00819	-185.52	37.1
0.46726	0.0116	-189.39	37.88
0.46726	0.01623	-176.26	35.25
0.46726	0.02323	-172.16	34.43
0.46726	0.02963	-178.75	35.75
0.46726	0.03511	-180.82	36.16
0.46726	0.04292	-170.64	34.13
0.46726	0.05335	-179.96	35.99
0.46726	0.06331	-169.68	33.94
0.46726	0.07243	-156.51	31.3
0.46726	0.08207	-167.72	33.54
0.46726	0.09396	-160.97	32.19
0.46726	0.10663	-164.9	33
0.46726	0.11684	-145.48	29.1
0.46726	0.12616	-141.88	28.38
0.46726	0.13615	-143.16	28.63
0.46726	0.14657	-142.07	28.41
0.46726	0.15668	-147.97	29.59
0.46726	0.16648	-142.35	28.47
0.46726	0.1761	-136.82	27.36
0.46726	0.18499	-123.74	24.75
0.46726	0.19438	-132.52	26.5
0.46726	0.2044	-133.72	26.74
0.46726	0.21398	-120.39	24.08
0.46726	0.22515	-121.63	24.33
0.46726	0.23761	-105.55	21.11
0.46726	0.25086	-116.09	23.22
0.46726	0.26241	-105.75	21.15
0.46726	0.27265	-101.9	20.4
0.46726	0.28303	-102.29	20.46
0.46726	0.29285	-103.52	20.7
0.46726	0.30482	-98.71	19.74
0.46726	0.31818	-97.04	19.41
0.46726	0.33061	-89.14	17.83
0.46726	0.34267	-88.33	17.67
0.57491	0.00121	-163	32.6
0.57491	0.00506	-168.02	33.6
0.57491	0.01135	-173.85	34.77
0.57491	0.01862	-168.33	33.67
0.57491	0.02581	-155.51	31.1
0.57491	0.03312	-160.77	32.15
0.57491	0.04025	-158.96	31.79
0.57491	0.04846	-161.37	32.27
0.57491	0.05628	-145.31	29.06
0.57491	0.06325	-150.02	30
0.57491	0.07024	-146.2	29.24
0.57491	0.07783	-148.75	29.75
0.57491	0.0863	-134.57	26.91
0.57491	0.09476	-142.36	28.47
0.57491	0.10332	-130.98	26.2
0.57491	0.11158	-131.22	26.24
0.57491	0.11936	-120.08	24.02
0.57491	0.12605	-127.06	25.41
0.57491	0.13354	-117.61	23.52
0.57491	0.1422	-119.85	23.97
0.57491	0.15093	-115.88	23.18
0.57491	0.15822	-113.68	22.74
0.57491	0.165	-102.85	20.57
0.57491	0.17244	-102.86	20.57
0.57491	0.17987	-97.77	19.55
0.57491	0.18753	-88.52	17.7
0.57491	0.19422	-92.5	18.5
0.57491	0.201	-90.53	18.11
0.57491	0.20794	-89.04	17.81
0.57491	0.2146	-75.09	15.02
0.57491	0.22162	-81.63	16.33
0.57491	0.22866	-82.57	16.51
0.57491	0.23641	-70.84	14.17
0.57491	0.24593	-65.79	13.16
0.57491	0.25639	-67.1	13.42
0.57491	0.26579	-67.34	13.47
0.57491	0.27496	-58.16	11.63
0.57491	0.28658	-53.71	10.74
0.73846	0.00063	-115.09	23.02
0.73846	0.00223	-106.75	21.35
0.73846	0.00403	-117.04	23.41
0.73846	0.00733	-108.89	21.78
0.73846	0.01314	-106.99	21.4
0.73846	0.01885	-108.27	21.65
0.73846	0.02502	-97.34	19.47
0.73846	0.03207	-84.7	16.94
0.73846	0.0383	-92.93	18.59
0.73846	0.04733	-85.95	17.19
0.73846	0.06004	-88.88	17.78
0.73846	0.07219	-76.48	15.3
0.73846	0.08445	-72.44	14.49
0.73846	0.09599	-75.95	15.19
0.73846	0.10728	-63.12	12.62
0.73846	0.11984	-62.79	12.56
0.73846	0.13091	-53.79	10.76
0.73846	0.14089	-51.02	10.2
0.73846	0.15106	-38.9	7.78
0.73846	0.16049	-52.29	10.46
0.73846	0.17064	-37.19	7.44
0.73846	0.18222	-29.45	5.89
0.73846	0.19289	-28.25	5.65
0.73846	0.20442	-37.17	7.43
0.73846	0.21553	-25.99	5.2
0.73846	0.22486	-23.84	4.77
0.73846	0.23444	-19.98	4
0.73846	0.2438	-21.06	4.21
0.73846	0.25271	-23.76	4.75
0.73846	0.26227	-16.49	3.3
0.73846	0.27143	-12.64	2.53
0.73846	0.27926	-13.17	2.63
0.73846	0.28731	-16.44	3.29
0.73846	0.29639	-7.33	1.47
0.73846	0.30702	-15.97	3.19
0.73846	0.31842	-14.56	2.91
