Measured thermophysical data. Synthesis, structure, and thermodynamics of a lanthanide coordination compound incorporating 5-nitroisophthalic acid
Source: J. Chem. Thermodyn., 2012, 10.1016/j.jct.2012.06.029
Compound 1: samarium, Sm, InChI=1S/Sm
Compound 2: hydrogen, H2, InChI=1S/H2/h1H
Compound 3: nitrogen, N2, InChI=1S/N2/c1-2
Compound 4: graphite, C
Compound 5: oxygen, O2, InChI=1S/O2/c1-2
Compound 6: heptaaquabis(.mu.-(5-nitro-1,3-benzenedicarboxylato(2-)-.kappa.O1:.kappa.O1,.kappa.O'1))(.mu.-(5-nitro-1,3-benzenedicarboxylato(2-)-.kappa.O1:.kappa.O'1))(5-nitro-1,3-benzenedicarboxylato(2-)-.kappa.O1)(5-nitro-1,3-benzenedicarboxylato(2-)-.kappa.O1,.kappa.O'1)trisamarium nonahydrate, C40H47N5O46Sm3, InChI=1S/5C8H5NO6.16H2O.3Sm/c5*10-7(11)4-1-5(8(12)13)3-6(2-4)9(14)15;;;;;;;;;;;;;;;;;;;/h5*1-3H,(H,10,11)(H,12,13);16*1H2;;;/q;;;;;;;;;;;;;;;;;;;;;;;+10/p-10, purity 95%

System: heptaaquabis(.mu.-(5-nitro-1,3-benzenedicarboxylato(2-)-.kappa.O1:.kappa.O1,.kappa.O'1))(.mu.-(5-nitro-1,3-benzenedicarboxylato(2-)-.kappa.O1:.kappa.O'1))(5-nitro-1,3-benzenedicarboxylato(2-)-.kappa.O1)(5-nitro-1,3-benzenedicarboxylato(2-)-.kappa.O1,.kappa.O'1)trisamarium nonahydrate; phases: Crystal
Property: Mass density, kg/m3 (Crystal); method: X-ray diffraction
Temperature, K	Pressure, kPa	Mass density, kg/m3	uncertainty
273	101.325	1937	29

Reaction: -3 samarium + 1 heptaaquabis(.mu.-(5-nitro-1,3-benzenedicarboxylato(2-)-.kappa.O1:.kappa.O1,.kappa.O'1))(.mu.-(5-nitro-1,3-benzenedicarboxylato(2-)-.kappa.O1:.kappa.O'1))(5-nitro-1,3-benzenedicarboxylato(2-)-.kappa.O1)(5-nitro-1,3-benzenedicarboxylato(2-)-.kappa.O1,.kappa.O'1)trisamarium nonahydrate + -23.5 hydrogen + -2.5 nitrogen + -40 graphite + -23 oxygen
Property: Molar enthalpy of reaction, kJ/mol
-831.4
