Measured thermophysical data. Excess molar enthalpies of the ternary mixtures: {tetrahydrofuran or 2-methyltetrahydrofuran + methyl tert-butyl ether + n-dodecane} at the temperature 298.15 K
Source: J. Chem. Thermodyn., 2005, 10.1016/j.jct.2004.12.005
Compound 1: tetrahydrofuran, C4H8O, InChI=1S/C4H8O/c1-2-4-5-3-1/h1-4H2, purity 99%
Compound 2: 2-methyltetrahydrofuran, C5H10O, InChI=1S/C5H10O/c1-5-3-2-4-6-5/h5H,2-4H2,1H3, purity 99%
Compound 3: 2-methoxy-2-methylpropane, C5H12O, InChI=1S/C5H12O/c1-5(2,3)6-4/h1-4H3, purity 99.5%
Compound 4: dodecane, C12H26, InChI=1S/C12H26/c1-3-5-7-9-11-12-10-8-6-4-2/h3-12H2,1-2H3, purity 99%

System: tetrahydrofuran; phases: Liquid
Property: Mass density, kg/m3 (Liquid); method: VIBTUB:UFactor:4
Temperature, K	Pressure, kPa	Mass density, kg/m3	uncertainty
298.15	101.325	882.09	0.6

System: 2-methyltetrahydrofuran; phases: Liquid
Property: Mass density, kg/m3 (Liquid); method: VIBTUB:UFactor:4
Temperature, K	Pressure, kPa	Mass density, kg/m3	uncertainty
298.15	101.325	848.1	0.64

System: 2-methoxy-2-methylpropane; phases: Liquid
Property: Mass density, kg/m3 (Liquid); method: VIBTUB:UFactor:4
Temperature, K	Pressure, kPa	Mass density, kg/m3	uncertainty
298.15	101.325	735.99	0.73

System: dodecane; phases: Liquid
Property: Mass density, kg/m3 (Liquid); method: VIBTUB:UFactor:4
Temperature, K	Pressure, kPa	Mass density, kg/m3	uncertainty
298.15	101.325	745.38	0.78

System: tetrahydrofuran + 2-methoxy-2-methylpropane; phases: Liquid
Fixed: Temperature, K = 298.15
Fixed: Pressure, kPa = 101.3
Property: Excess molar enthalpy (molar enthalpy of mixing), kJ/mol (Liquid); method: Flow calorimetry
Mole fraction of tetrahydrofuran	Excess molar enthalpy (molar enthalpy of mixing), kJ/mol	uncertainty
0.1015	0.0343	0.0013
0.1924	0.0598	0.0016
0.2745	0.0778	0.0018
0.3482	0.0903	0.0019
0.4173	0.0979	0.002
0.4784	0.1019	0.002
0.5358	0.1036	0.002
0.5883	0.1015	0.002
0.6368	0.0976	0.002
0.6821	0.0925	0.0019
0.7242	0.086	0.0019
0.7626	0.0786	0.0018
0.7994	0.0701	0.0017
0.8338	0.0611	0.0016
0.8655	0.0514	0.0015
0.8799	0.0467	0.0015
0.9246	0.0309	0.0013
0.9507	0.0198	0.0012
0.9761	0.0101	0.0011

System: 2-methyltetrahydrofuran + 2-methoxy-2-methylpropane; phases: Liquid
Fixed: Temperature, K = 298.15
Fixed: Pressure, kPa = 101.3
Property: Excess molar enthalpy (molar enthalpy of mixing), kJ/mol (Liquid); method: Flow calorimetry
Mole fraction of 2-methyltetrahydrofuran	Excess molar enthalpy (molar enthalpy of mixing), kJ/mol	uncertainty
0.0499	0.00667	0.00107
0.0998	0.01246	0.00113
0.1498	0.01776	0.00118
0.2002	0.02264	0.00123
0.2501	0.02655	0.00127
0.3004	0.03002	0.0013
0.3504	0.03295	0.00133
0.4001	0.03435	0.00135
0.4501	0.03594	0.00136
0.5007	0.03659	0.00137
0.5495	0.03699	0.00137
0.5999	0.03595	0.00136
0.6501	0.03409	0.00134
0.7002	0.03149	0.00132
0.7508	0.02815	0.00128
0.8	0.02436	0.00125
0.8509	0.01981	0.0012
0.9	0.01415	0.00115
0.95	0.00768	0.00108

System: tetrahydrofuran + dodecane + 2-methoxy-2-methylpropane; phases: Liquid
Fixed: Temperature, K = 298.15
Fixed: Pressure, kPa = 101.3
Property: Excess molar enthalpy (molar enthalpy of mixing), kJ/mol (Liquid); method: Flow calorimetry
Solvent: Amount ratio of component to other component of binary solvent of 2-methoxy-2-methylpropane	Mole fraction of tetrahydrofuran	Excess molar enthalpy (molar enthalpy of mixing), kJ/mol	uncertainty
0.3333	0.05	0.10839	0.00209
0.3333	0.0998	0.2235	0.00324
0.3333	0.15	0.3245	0.00425
0.3333	0.1999	0.41466	0.00515
0.3333	0.25	0.49151	0.00592
0.3333	0.3001	0.56228	0.00662
0.3333	0.3501	0.6213	0.00721
0.3333	0.4002	0.66407	0.00764
0.3333	0.4508	0.70267	0.00803
0.3333	0.4999	0.7243	0.00824
0.3333	0.549	0.73597	0.00836
0.3333	0.6005	0.73161	0.00832
0.3333	0.6499	0.71323	0.00813
0.3333	0.7003	0.67676	0.00777
0.3333	0.7499	0.62507	0.00725
0.3333	0.7993	0.55391	0.00654
0.3333	0.8503	0.45636	0.00556
0.3333	0.9	0.33715	0.00437
0.3333	0.9499	0.18607	0.00286
0.9996	0.0502	0.08194	0.00182
0.9996	0.1002	0.1518	0.00252
0.9996	0.1502	0.22087	0.00321
0.9996	0.2001	0.27838	0.00378
0.9996	0.2504	0.33181	0.00432
0.9996	0.2998	0.37882	0.00479
0.9996	0.3538	0.41361	0.00514
0.9996	0.4006	0.44769	0.00548
0.9996	0.4499	0.47123	0.00571
0.9996	0.5001	0.48416	0.00584
0.9996	0.5504	0.48927	0.00589
0.9996	0.5997	0.4873	0.00587
0.9996	0.6499	0.47174	0.00572
0.9996	0.7002	0.44551	0.00546
0.9996	0.75	0.40991	0.0051
0.9996	0.7998	0.36032	0.0046
0.9996	0.85	0.29629	0.00396
0.9996	0.9004	0.21627	0.00316
0.9996	0.95	0.11776	0.00218
3	0.05	0.04194	0.00142
3	0.0999	0.08433	0.00185
3	0.1498	0.12582	0.00226
3	0.2001	0.15879	0.00259
3	0.2499	0.19032	0.0029
3	0.2999	0.21434	0.00314
3	0.3501	0.23606	0.00336
3	0.4003	0.25318	0.00353
3	0.4497	0.2644	0.00364
3	0.5003	0.27114	0.00371
3	0.5499	0.2725	0.00373
3	0.6002	0.26698	0.00367
3	0.65	0.25975	0.0036
3	0.7002	0.24421	0.00344
3	0.7504	0.2224	0.00323
3	0.8004	0.19323	0.00293
3	0.8503	0.15752	0.00258
3	0.9001	0.11465	0.00215
3	0.95	0.06186	0.00162

System: 2-methyltetrahydrofuran + dodecane + 2-methoxy-2-methylpropane; phases: Liquid
Fixed: Temperature, K = 298.15
Fixed: Pressure, kPa = 101.3
Property: Excess molar enthalpy (molar enthalpy of mixing), kJ/mol (Liquid); method: Flow calorimetry
Solvent: Amount ratio of component to other component of binary solvent of 2-methoxy-2-methylpropane	Mole fraction of 2-methyltetrahydrofuran	Excess molar enthalpy (molar enthalpy of mixing), kJ/mol	uncertainty
0.3333	0.0501	0.08379	0.00184
0.3333	0.1001	0.15686	0.00257
0.3333	0.1501	0.23525	0.00335
0.3333	0.2	0.30057	0.00401
0.3333	0.2501	0.35843	0.00459
0.3333	0.3004	0.40828	0.00508
0.3333	0.3501	0.44725	0.00547
0.3333	0.4	0.48229	0.00582
0.3333	0.4501	0.50556	0.00606
0.3333	0.4999	0.52037	0.0062
0.3333	0.5498	0.52718	0.00627
0.3333	0.6001	0.52152	0.00622
0.3333	0.6501	0.50552	0.00606
0.3333	0.6998	0.47686	0.00577
0.3333	0.75	0.43686	0.00537
0.3333	0.8001	0.38248	0.00483
0.3333	0.8502	0.3133	0.00413
0.3333	0.9	0.22903	0.00329
0.3333	0.95	0.12352	0.00224
0.9996	0.0501	0.05115	0.00151
0.9996	0.1001	0.10126	0.00201
0.9996	0.1503	0.14681	0.00247
0.9996	0.2001	0.18558	0.00286
0.9996	0.2501	0.21867	0.00319
0.9996	0.3008	0.24941	0.0035
0.9996	0.3501	0.27466	0.00375
0.9996	0.4008	0.29432	0.00394
0.9996	0.4496	0.30761	0.00408
0.9996	0.4999	0.31525	0.00415
0.9996	0.5502	0.31831	0.00418
0.9996	0.6	0.31326	0.00413
0.9996	0.6499	0.30318	0.00403
0.9996	0.7002	0.28496	0.00385
0.9996	0.7503	0.25871	0.00359
0.9996	0.8001	0.22653	0.00327
0.9996	0.85	0.18319	0.00283
0.9996	0.8978	0.13681	0.00237
0.9996	0.95	0.07161	0.00172
3	0.0501	0.02113	0.00121
3	0.1001	0.04945	0.0015
3	0.15	0.06839	0.00169
3	0.2002	0.08722	0.00187
3	0.2501	0.10297	0.00203
3	0.2999	0.11704	0.00217
3	0.35	0.12819	0.00228
3	0.3998	0.13666	0.00237
3	0.4498	0.14244	0.00243
3	0.5004	0.14552	0.00246
3	0.5506	0.14565	0.00246
3	0.5998	0.14312	0.00243
3	0.6497	0.13701	0.00237
3	0.6999	0.12821	0.00228
3	0.7499	0.11546	0.00216
3	0.8002	0.1003	0.002
3	0.85	0.08148	0.00182
3	0.8997	0.05775	0.00158
3	0.95	0.03139	0.00132
