Measured thermophysical data. Solid-liquid phase equilibria of quaternary system NH4(+)//C1(-) , SO4(2-), H2PO4(-)-H2O and its subsystems NH4(+)//C1(-), SO4(2-)-H2O, NH4(+)//C1(-), H2PO4 (-)-H2O at 313.15 K
Source: J. Chem. Thermodyn., 2017, 10.1016/j.jct.2017.04.010
Compound 1: ammonium chloride (NH4Cl), ClH4N, InChI=1S/ClH.H3N/h1H;1H3
Compound 2: ammonium sulfate, H8N2O4S, InChI=1S/2H3N.H2O4S/c;;1-5(2,3)4/h2*1H3;(H2,1,2,3,4)
Compound 3: ammonium dihydrogen phosphate, H6NO4P, InChI=1S/H3N.H3O4P/c;1-5(2,3)4/h1H3;(H3,1,2,3,4)
Compound 4: water, H2O, InChI=1S/H2O/h1H2, purity 99.9%

System: water + ammonium chloride (NH4Cl); phases: Liquid, Crystal
Property: Mass fraction of ammonium chloride (NH4Cl) (Liquid); method: Titration method
Pressure, kPa	Temperature, K	Mass fraction of ammonium chloride (NH4Cl)	uncertainty
88.35	313.15	0.3143	0.0314

System: water + ammonium chloride (NH4Cl); phases: Liquid
Property: Mass density, kg/m3 (Liquid); method: Pycnometric method
Mass fraction of ammonium chloride (NH4Cl)	Temperature, K	Pressure, kPa	Mass density, kg/m3	uncertainty
0.3143	313.15	88.35	1077.3	4

System: water + ammonium chloride (NH4Cl); phases: Liquid
Property: Viscosity, Pa*s (Liquid); method: Capillary tube (Ostwald; Ubbelohde) method
Mass fraction of ammonium chloride (NH4Cl)	Temperature, K	Pressure, kPa	Viscosity, Pa*s	uncertainty
0.3143	313.15	88.35	0.00077	8e-05

System: water + ammonium chloride (NH4Cl); phases: Liquid
Property: Refractive index (Na D-line) (Liquid); method: Standard Abbe refractometry
Mass fraction of ammonium chloride (NH4Cl)	Temperature, K	Pressure, kPa	Refractive index (Na D-line)	uncertainty
0.3143	313.15	88.35	1.3894	0.0006

System: water + ammonium sulfate; phases: Liquid, Crystal
Property: Mass fraction of ammonium sulfate (Liquid); method: Titration method
Pressure, kPa	Temperature, K	Mass fraction of ammonium sulfate	uncertainty
88.35	313.15	0.4477	0.0179

System: water + ammonium sulfate; phases: Liquid
Property: Mass density, kg/m3 (Liquid); method: Pycnometric method
Mass fraction of ammonium sulfate	Temperature, K	Pressure, kPa	Mass density, kg/m3	uncertainty
0.4477	313.15	88.35	1247	3.4

System: water + ammonium sulfate; phases: Liquid
Property: Viscosity, Pa*s (Liquid); method: Capillary tube (Ostwald; Ubbelohde) method
Mass fraction of ammonium sulfate	Temperature, K	Pressure, kPa	Viscosity, Pa*s	uncertainty
0.4477	313.15	88.35	0.00201	0.0002

System: water + ammonium sulfate; phases: Liquid
Property: Refractive index (Na D-line) (Liquid); method: Standard Abbe refractometry
Mass fraction of ammonium sulfate	Temperature, K	Pressure, kPa	Refractive index (Na D-line)	uncertainty
0.4477	313.15	88.35	1.3978	0.0006

System: ammonium dihydrogen phosphate + water; phases: Liquid, Crystal
Property: Mass fraction of ammonium dihydrogen phosphate (Liquid); method: gravimetric
Pressure, kPa	Temperature, K	Mass fraction of ammonium dihydrogen phosphate	uncertainty
88.35	313.15	0.3636	0.0073

System: ammonium dihydrogen phosphate + water; phases: Liquid
Property: Mass density, kg/m3 (Liquid); method: Pycnometric method
Mass fraction of ammonium dihydrogen phosphate	Temperature, K	Pressure, kPa	Mass density, kg/m3	uncertainty
0.3636	313.15	88.35	1204.4	2.6

System: ammonium dihydrogen phosphate + water; phases: Liquid
Property: Viscosity, Pa*s (Liquid); method: Capillary tube (Ostwald; Ubbelohde) method
Mass fraction of ammonium dihydrogen phosphate	Temperature, K	Pressure, kPa	Viscosity, Pa*s	uncertainty
0.3636	313.15	88.35	0.00217	0.00022

System: ammonium dihydrogen phosphate + water; phases: Liquid
Property: Refractive index (Na D-line) (Liquid); method: Standard Abbe refractometry
Mass fraction of ammonium dihydrogen phosphate	Temperature, K	Pressure, kPa	Refractive index (Na D-line)	uncertainty
0.3636	313.15	88.35	1.379	0.0006

System: ammonium dihydrogen phosphate + water + ammonium chloride (NH4Cl); phases: Liquid
Fixed: Temperature, K = 313.15
Fixed: Pressure, kPa = 88.35
Property: Mass density, kg/m3 (Liquid); method: Pycnometric method
Mass fraction of ammonium chloride (NH4Cl)	Mass fraction of ammonium dihydrogen phosphate	Mass density, kg/m3	uncertainty
0.3143	0	1077.3	4
0.307	0.0306	1093.1	4
0.2969	0.0396	1097	3.9
0.2953	0.0534	1105.1	4
0.2843	0.0743	1112.7	3.9
0.2843	0.0723	1113.1	3.9
0.2852	0.0742	1112.3	3.9
0.2351	0.0971	1108.5	3.4
0.2004	0.1166	1110.8	3.2
0.1573	0.1449	1115.8	2.9
0.1153	0.1849	1128.4	2.7
0.0827	0.2369	1145.7	2.6
0.0614	0.2628	1156.1	2.5
0.0354	0.3105	1177.4	2.5
0	0.3636	1204.4	2.6
0.2852	0.0743	1113.1	3.9

System: ammonium dihydrogen phosphate + water + ammonium chloride (NH4Cl); phases: Liquid
Fixed: Temperature, K = 313.15
Fixed: Pressure, kPa = 88.35
Property: Viscosity, Pa*s (Liquid); method: Capillary tube (Ostwald; Ubbelohde) method
Mass fraction of ammonium chloride (NH4Cl)	Mass fraction of ammonium dihydrogen phosphate	Viscosity, Pa*s	uncertainty
0.3143	0	0.00077	8e-05
0.307	0.0306	0.00082	8e-05
0.2969	0.0396	0.00084	8e-05
0.2953	0.0534	0.00088	9e-05
0.2843	0.0743	0.00094	9e-05
0.2843	0.0723	0.00094	9e-05
0.2852	0.0742	0.00094	9e-05
0.2351	0.0971	0.00095	0.0001
0.2004	0.1166	0.00097	0.0001
0.1573	0.1449	0.00106	0.00011
0.1153	0.1849	0.00118	0.00012
0.0827	0.2369	0.00138	0.00014
0.0614	0.2628	0.00149	0.00015
0.0354	0.3105	0.00174	0.00017
0	0.3636	0.00217	0.00022
0.2852	0.0743	0.00094	9e-05

System: ammonium dihydrogen phosphate + water + ammonium chloride (NH4Cl); phases: Liquid
Fixed: Temperature, K = 313.15
Fixed: Pressure, kPa = 88.35
Property: Refractive index (Na D-line) (Liquid); method: Standard Abbe refractometry
Mass fraction of ammonium chloride (NH4Cl)	Mass fraction of ammonium dihydrogen phosphate	Refractive index (Na D-line)	uncertainty
0.3143	0	1.3894	0.0006
0.307	0.0306	1.3896	0.0006
0.2969	0.0396	1.3907	0.0006
0.2953	0.0534	1.3911	0.0006
0.2843	0.0743	1.392	0.0006
0.2843	0.0723	1.3923	0.0006
0.2852	0.0742	1.392	0.0006
0.2351	0.0971	1.3868	0.0006
0.2004	0.1166	1.3827	0.0006
0.1573	0.1449	1.3795	0.0006
0.1153	0.1849	1.3772	0.0006
0.0827	0.2369	1.3766	0.0006
0.0614	0.2628	1.3758	0.0006
0.0354	0.3105	1.3769	0.0006
0	0.3636	1.379	0.0006
0.2852	0.0743	1.392	0.0006

System: ammonium dihydrogen phosphate + water + ammonium chloride (NH4Cl); phases: Liquid, Crystal
Fixed: Temperature, K = 313.15
Fixed: Pressure, kPa = 88.35
Property: Mass fraction of ammonium chloride (NH4Cl) (Liquid); method: Titration method
Mass fraction of ammonium dihydrogen phosphate	Mass fraction of ammonium chloride (NH4Cl)	uncertainty
0	0.3143	0.0314
0.0306	0.307	0.0307
0.0396	0.2969	0.0297
0.0534	0.2953	0.0295
0.0743	0.2843	0.0314
0.0723	0.2843	0.0284
0.0742	0.2852	0.0315

System: ammonium dihydrogen phosphate + water + ammonium chloride (NH4Cl); phases: Liquid, Crystal
Fixed: Temperature, K = 313.15
Fixed: Pressure, kPa = 88.35
Property: Mass fraction of ammonium dihydrogen phosphate (Liquid); method: Gravimetric method
Mass fraction of ammonium chloride (NH4Cl)	Mass fraction of ammonium dihydrogen phosphate	uncertainty
0.2843	0.0743	0.0035
0.2843	0.0723	0.06
0.2852	0.0742	0.0035
0.2351	0.0971	0.0119
0.2004	0.1166	0.0126
0.1573	0.1449	0.0129
0.1153	0.1849	0.0146
0.0827	0.2369	0.013
0.0614	0.2628	0.011
0.0354	0.3105	0.0085
0	0.3636	0.0073

System: water + ammonium sulfate + ammonium chloride (NH4Cl); phases: Liquid
Fixed: Temperature, K = 313.15
Fixed: Pressure, kPa = 88.35
Property: Mass density, kg/m3 (Liquid); method: Pycnometric method
Mass fraction of ammonium chloride (NH4Cl)	Mass fraction of ammonium sulfate	Mass density, kg/m3	uncertainty
0.3143	0	1077.3	4
0.295	0.0419	1092	3.9
0.2842	0.0712	1103.7	3.9
0.2625	0.1122	1123	3.8
0.231	0.1709	1140.4	3.6
0.195	0.253	1183.9	3.5
0.1951	0.2515	1182.9	3.5
0.194	0.2488	1189.4	3.5
0.1631	0.2762	1194.6	3.4
0.1266	0.3088	1198	3.2
0.1034	0.3381	1204.4	3.2
0.0766	0.3637	1216.3	3.2
0.0546	0.3938	1230.5	3.2
0.0256	0.4284	1238.6	3.3
0	0.4477	1247	3.4
0.1951	0.2549	1183.9	3.5

System: water + ammonium sulfate + ammonium chloride (NH4Cl); phases: Liquid
Fixed: Temperature, K = 313.15
Fixed: Pressure, kPa = 88.35
Property: Viscosity, Pa*s (Liquid); method: Capillary tube (Ostwald; Ubbelohde) method
Mass fraction of ammonium chloride (NH4Cl)	Mass fraction of ammonium sulfate	Viscosity, Pa*s	uncertainty
0.3143	0	0.00077	8e-05
0.295	0.0419	0.00082	8e-05
0.2842	0.0712	0.00088	9e-05
0.2625	0.1122	0.00094	9e-05
0.231	0.1709	0.00109	0.00011
0.195	0.253	0.00141	0.00014
0.1951	0.2515	0.00134	0.00013
0.194	0.2488	0.00141	0.00014
0.1631	0.2762	0.00144	0.00014
0.1266	0.3088	0.00149	0.00015
0.1034	0.3381	0.00158	0.00016
0.0766	0.3637	0.00167	0.00017
0.0546	0.3938	0.00181	0.00018
0.0256	0.4284	0.0019	0.00019
0	0.4477	0.00201	0.0002
0.1951	0.2549	0.00134	0.00013

System: water + ammonium sulfate + ammonium chloride (NH4Cl); phases: Liquid
Fixed: Temperature, K = 313.15
Fixed: Pressure, kPa = 88.35
Property: Refractive index (Na D-line) (Liquid); method: Standard Abbe refractometry
Mass fraction of ammonium chloride (NH4Cl)	Mass fraction of ammonium sulfate	Refractive index (Na D-line)	uncertainty
0.3143	0	1.3894	0.0006
0.295	0.0419	1.3924	0.0006
0.2842	0.0712	1.3938	0.0006
0.2625	0.1122	1.3963	0.0006
0.231	0.1709	1.3997	0.0006
0.195	0.253	1.4056	0.0006
0.1951	0.2515	1.405	0.0006
0.194	0.2488	1.405	0.0006
0.1631	0.2762	1.4021	0.0006
0.1266	0.3088	1.4012	0.0006
0.1034	0.3381	1.4	0.0006
0.0766	0.3637	1.3992	0.0006
0.0546	0.3938	1.3986	0.0006
0.0256	0.4284	1.398	0.0006
0	0.4477	1.3978	0.0006
0.1951	0.2549	1.405	0.0006

System: water + ammonium sulfate + ammonium chloride (NH4Cl); phases: Liquid, Crystal
Fixed: Temperature, K = 313.15
Fixed: Pressure, kPa = 88.35
Property: Mass fraction of ammonium chloride (NH4Cl) (Liquid); method: Titration method
Mass fraction of ammonium sulfate	Mass fraction of ammonium chloride (NH4Cl)	uncertainty
0	0.3143	0.0314
0.0419	0.295	0.0295
0.0712	0.2842	0.0285
0.1122	0.2625	0.0264
0.1709	0.231	0.0234
0.253	0.195	0.0195
0.2515	0.1951	0.0197
0.2488	0.194	0.0198

System: water + ammonium sulfate + ammonium chloride (NH4Cl); phases: Liquid, Crystal
Fixed: Temperature, K = 313.15
Fixed: Pressure, kPa = 88.35
Property: Mass fraction of ammonium sulfate (Liquid); method: Titration method
Mass fraction of ammonium chloride (NH4Cl)	Mass fraction of ammonium sulfate	uncertainty
0.195	0.253	0.0825
0.1951	0.2515	0.0489
0.194	0.2488	0.0821
0.1631	0.2762	0.0183
0.1266	0.3088	0.0179
0.1034	0.3381	0.0176
0.0766	0.3637	0.017
0.0546	0.3938	0.0172
0.0256	0.4284	0.0173
0	0.4477	0.0179

System: ammonium dihydrogen phosphate + water + ammonium sulfate; phases: Liquid, Crystal
Property: Mass fraction of ammonium sulfate (Liquid); method: Titration method
Mass fraction of ammonium dihydrogen phosphate	Temperature, K	Pressure, kPa	Mass fraction of ammonium sulfate	uncertainty
0.129	313.15	88.35	0.3571	0.0143

System: ammonium dihydrogen phosphate + water + ammonium sulfate; phases: Liquid, Crystal
Property: Mass fraction of ammonium sulfate (Liquid); method: Titration method
Mass fraction of ammonium dihydrogen phosphate	Temperature, K	Pressure, kPa	Mass fraction of ammonium sulfate	uncertainty
0.129	313.15	88.35	0.3571	0.0143

System: ammonium dihydrogen phosphate + water + ammonium sulfate; phases: Liquid
Property: Mass density, kg/m3 (Liquid); method: Pycnometric method
Mass fraction of ammonium dihydrogen phosphate	Mass fraction of ammonium sulfate	Temperature, K	Pressure, kPa	Mass density, kg/m3	uncertainty
0.129	0.3571	313.15	88.35	1288.6	3.2

System: ammonium dihydrogen phosphate + water + ammonium sulfate; phases: Liquid
Property: Viscosity, Pa*s (Liquid); method: Capillary tube (Ostwald; Ubbelohde) method
Mass fraction of ammonium dihydrogen phosphate	Mass fraction of ammonium sulfate	Temperature, K	Pressure, kPa	Viscosity, Pa*s	uncertainty
0.129	0.3571	313.15	88.35	0.00291	0.00029

System: ammonium dihydrogen phosphate + water + ammonium sulfate; phases: Liquid
Property: Refractive index (Na D-line) (Liquid); method: Standard Abbe refractometry
Mass fraction of ammonium dihydrogen phosphate	Mass fraction of ammonium sulfate	Temperature, K	Pressure, kPa	Refractive index (Na D-line)	uncertainty
0.129	0.3571	313.15	88.35	1.4041	0.0006
