Measured thermophysical data. Intermolecular/interionic interactions in L-isoleucine-, L-proline-, and L-glutamine-aqueous electrolyte systems
Source: J. Chem. Thermodyn., 2006, 10.1016/j.jct.2006.03.009
Compound 1: 2-amino-3-methylpentanoic acid, C6H13NO2, InChI=1S/C6H13NO2/c1-3-4(2)5(7)6(8)9/h4-5H,3,7H2,1-2H3,(H,8,9)/t4-,5-/m0/s1
Compound 2: L-proline, C5H9NO2, InChI=1S/C5H9NO2/c7-5(8)4-2-1-3-6-4/h4,6H,1-3H2,(H,7,8)/t4-/m0/s1
Compound 3: L-glutamine, C5H10N2O3, InChI=1S/C5H10N2O3/c6-3(5(9)10)1-2-4(7)8/h3H,1-2,6H2,(H2,7,8)(H,9,10)/t3-/m0/s1
Compound 4: potassium nitrate, KNO3, InChI=1S/K.NO3/c;2-1(3)4/q+1;-1
Compound 5: potassium chloride, ClK, InChI=1S/ClH.K/h1H;/q;+1/p-1
Compound 6: potassium sulfate, K2O4S, InChI=1S/2K.H2O4S/c;;1-5(2,3)4/h;;(H2,1,2,3,4)/q2*+1;/p-2
Compound 7: water, H2O, InChI=1S/H2O/h1H2

System: potassium chloride + water; phases: Liquid
Fixed: Pressure, kPa = 101
Fixed: Amount concentration (molarity), mol/dm3 of potassium chloride = 1.5
Property: Speed of sound, m/s (Liquid); method: LVPAI::UFactor:2
Temperature, K	Speed of sound, m/s	uncertainty
303.15	1584	3.3
308.15	1590.4	3.3
313.15	1595.8	3.4
318.15	1601.6	3.4
323.15	1606.2	3.4

System: potassium chloride + water; phases: Liquid
Fixed: Pressure, kPa = 7
Fixed: Amount concentration (molarity), mol/dm3 of potassium chloride = 1.5
Property: Mass density, kg/m3 (Liquid); method: Pycnometric method
Temperature, K	Mass density, kg/m3	uncertainty
303.15	1061.4	0.4
308.15	1059.7	0.5
313.15	1057.8	0.5
318.15	1055.6	0.5
323.15	1053.3	0.5

System: water + potassium nitrate; phases: Liquid
Fixed: Pressure, kPa = 101
Fixed: Amount concentration (molarity), mol/dm3 of potassium nitrate = 1
Property: Speed of sound, m/s (Liquid); method: LVPAI::UFactor:2
Temperature, K	Speed of sound, m/s	uncertainty
303.15	1541.8	3.3
308.15	1550.2	3.3
313.15	1557.4	3.3
318.15	1563.6	3.3
323.15	1568.4	3.3

System: water + potassium nitrate; phases: Liquid
Fixed: Pressure, kPa = 7
Fixed: Amount concentration (molarity), mol/dm3 of potassium nitrate = 1
Property: Mass density, kg/m3 (Liquid); method: Pycnometric method
Temperature, K	Mass density, kg/m3	uncertainty
303.15	1052.9	0.4
308.15	1051.1	0.4
313.15	1049	0.5
318.15	1046.7	0.5
323.15	1044.2	0.5

System: water + potassium sulfate; phases: Liquid
Fixed: Pressure, kPa = 101
Fixed: Amount concentration (molarity), mol/dm3 of potassium sulfate = 0.5
Property: Speed of sound, m/s (Liquid); method: LVPAI::UFactor:2
Temperature, K	Speed of sound, m/s	uncertainty
303.15	1571.2	3.3
308.15	1578.8	3.3
313.15	1587.6	3.3
318.15	1592.6	3.3
323.15	1597.6	3.4

System: water + potassium sulfate; phases: Liquid
Fixed: Pressure, kPa = 7
Fixed: Amount concentration (molarity), mol/dm3 of potassium sulfate = 0.5
Property: Mass density, kg/m3 (Liquid); method: Pycnometric method
Temperature, K	Mass density, kg/m3	uncertainty
303.15	1059.3	0.4
308.15	1057.9	0.5
313.15	1056.1	0.5
318.15	1054.2	0.5
323.15	1051.9	0.5

System: 2-amino-3-methylpentanoic acid + potassium chloride + water; phases: Liquid
Fixed: Pressure, kPa = 101
Fixed: Solvent: Amount concentration (molarity), mol/dm3 of potassium chloride = 1.5
Property: Speed of sound, m/s (Liquid); method: LVPAI:UFactor:2
Molality, mol/kg of 2-amino-3-methylpentanoic acid	Temperature, K	Speed of sound, m/s	uncertainty
0	303.15	1584	3.3
0	308.15	1590.4	3.3
0	313.15	1595.8	3.4
0	318.15	1601.6	3.4
0	323.15	1606.2	3.4
0.0284	303.15	1585.9	3.3
0.0284	308.15	1591.5	3.3
0.0284	313.15	1596	3.4
0.0284	318.15	1602.4	3.4
0.0284	323.15	1607	3.4
0.0474	303.15	1586.2	3.3
0.0474	308.15	1592	3.3
0.0474	313.15	1596.4	3.4
0.0474	318.15	1603	3.4
0.0474	323.15	1607.8	3.4
0.0665	303.15	1587.2	3.3
0.0665	308.15	1593.2	3.3
0.0665	313.15	1597.4	3.4
0.0665	318.15	1604.4	3.4
0.0665	323.15	1608.4	3.4
0.0856	303.15	1588.8	3.3
0.0856	308.15	1595.2	3.4
0.0856	313.15	1599.4	3.4
0.0856	318.15	1605.2	3.4
0.0856	323.15	1609.2	3.4
0.1049	303.15	1592.1	3.3
0.1049	308.15	1598.5	3.4
0.1049	313.15	1602.6	3.4
0.1049	318.15	1606	3.4
0.1049	323.15	1610.4	3.4
0.1243	303.15	1593.3	3.3
0.1243	308.15	1600	3.4
0.1243	313.15	1604.6	3.4
0.1243	318.15	1608	3.4
0.1243	323.15	1613.5	3.4
0.1437	303.15	1596	3.4
0.1437	308.15	1600.8	3.4
0.1437	313.15	1606.8	3.4
0.1437	318.15	1612	3.4
0.1437	323.15	1615.8	3.4
0.1632	303.15	1598.4	3.4
0.1632	308.15	1603.2	3.4
0.1632	313.15	1608.2	3.4
0.1632	318.15	1614	3.4
0.1632	323.15	1618	3.4

System: 2-amino-3-methylpentanoic acid + potassium chloride + water; phases: Liquid
Fixed: Pressure, kPa = 7
Fixed: Solvent: Amount concentration (molarity), mol/dm3 of potassium chloride = 1.5
Property: Mass density, kg/m3 (Liquid); method: Pycnometric method
Molality, mol/kg of 2-amino-3-methylpentanoic acid	Temperature, K	Mass density, kg/m3	uncertainty
0	303.15	1061.4	0.4
0	308.15	1059.7	0.5
0	313.15	1057.8	0.5
0	318.15	1055.6	0.5
0	323.15	1053.3	0.5
0.0284	303.15	1061.8	0.4
0.0284	308.15	1060	0.5
0.0284	313.15	1058	0.5
0.0284	318.15	1055.8	0.5
0.0284	323.15	1053.5	0.5
0.0474	303.15	1062.2	0.4
0.0474	308.15	1060.3	0.5
0.0474	313.15	1058.3	0.5
0.0474	318.15	1056	0.5
0.0474	323.15	1053.7	0.5
0.0665	303.15	1062.4	0.4
0.0665	308.15	1060.6	0.5
0.0665	313.15	1058.5	0.5
0.0665	318.15	1056.2	0.5
0.0665	323.15	1053.9	0.5
0.0856	303.15	1062.8	0.4
0.0856	308.15	1060.7	0.5
0.0856	313.15	1058.6	0.5
0.0856	318.15	1056.3	0.5
0.0856	323.15	1054	0.5
0.1049	303.15	1063.1	0.4
0.1049	308.15	1061	0.5
0.1049	313.15	1058.9	0.5
0.1049	318.15	1056.5	0.5
0.1049	323.15	1054.2	0.5
0.1243	303.15	1063.3	0.4
0.1243	308.15	1061.2	0.5
0.1243	313.15	1059	0.5
0.1243	318.15	1056.7	0.5
0.1243	323.15	1054.4	0.5
0.1437	303.15	1063.7	0.4
0.1437	308.15	1061.5	0.5
0.1437	313.15	1059.2	0.5
0.1437	318.15	1056.9	0.5
0.1437	323.15	1054.6	0.5
0.1632	303.15	1063.9	0.4
0.1632	308.15	1061.6	0.5
0.1632	313.15	1059.5	0.5
0.1632	318.15	1057.1	0.5
0.1632	323.15	1054.8	0.5

System: 2-amino-3-methylpentanoic acid + water + potassium nitrate; phases: Liquid
Fixed: Pressure, kPa = 101
Fixed: Solvent: Amount concentration (molarity), mol/dm3 of potassium nitrate = 1
Property: Speed of sound, m/s (Liquid); method: LVPAI:UFactor:2
Molality, mol/kg of 2-amino-3-methylpentanoic acid	Temperature, K	Speed of sound, m/s	uncertainty
0	303.15	1541.8	3.3
0	308.15	1550.2	3.3
0	313.15	1557.4	3.3
0	318.15	1563.6	3.3
0	323.15	1568.4	3.3
0.0285	303.15	1542.6	3.3
0.0285	308.15	1551.2	3.3
0.0285	313.15	1558.2	3.3
0.0285	318.15	1564.4	3.3
0.0285	323.15	1568.8	3.3
0.0477	303.15	1543.8	3.3
0.0477	308.15	1552.4	3.3
0.0477	313.15	1559.2	3.3
0.0477	318.15	1564.8	3.3
0.0477	323.15	1569.2	3.3
0.0669	303.15	1545.2	3.3
0.0669	308.15	1553.4	3.3
0.0669	313.15	1560	3.3
0.0669	318.15	1565.6	3.3
0.0669	323.15	1569.8	3.3
0.0862	303.15	1549.3	3.3
0.0862	308.15	1556.8	3.3
0.0862	313.15	1561	3.3
0.0862	318.15	1566	3.3
0.0862	323.15	1571	3.3
0.1056	303.15	1551.6	3.3
0.1056	308.15	1558.8	3.3
0.1056	313.15	1563.2	3.3
0.1056	318.15	1569.7	3.3
0.1056	323.15	1573.8	3.3
0.125	303.15	1553.2	3.3
0.125	308.15	1559.4	3.3
0.125	313.15	1564.8	3.3
0.125	318.15	1573.2	3.3
0.125	323.15	1576.4	3.3
0.1446	303.15	1554	3.3
0.1446	308.15	1560.2	3.3
0.1446	313.15	1567.8	3.3
0.1446	318.15	1574.4	3.3
0.1446	323.15	1578	3.3
0.1642	303.15	1556.4	3.3
0.1642	308.15	1563.4	3.3
0.1642	313.15	1568.8	3.3
0.1642	318.15	1575.8	3.3
0.1642	323.15	1579	3.3

System: 2-amino-3-methylpentanoic acid + water + potassium nitrate; phases: Liquid
Fixed: Pressure, kPa = 7
Fixed: Solvent: Amount concentration (molarity), mol/dm3 of potassium nitrate = 1
Property: Mass density, kg/m3 (Liquid); method: Pycnometric method
Molality, mol/kg of 2-amino-3-methylpentanoic acid	Temperature, K	Mass density, kg/m3	uncertainty
0	303.15	1052.9	0.4
0	308.15	1051.1	0.4
0	313.15	1049	0.5
0	318.15	1046.7	0.5
0	323.15	1044.2	0.5
0.0285	303.15	1053.4	0.4
0.0285	308.15	1051.5	0.4
0.0285	313.15	1049.3	0.5
0.0285	318.15	1047	0.5
0.0285	323.15	1044.5	0.5
0.0477	303.15	1053.6	0.4
0.0477	308.15	1051.7	0.4
0.0477	313.15	1049.6	0.5
0.0477	318.15	1047.2	0.5
0.0477	323.15	1044.7	0.5
0.0669	303.15	1054	0.4
0.0669	308.15	1052	0.4
0.0669	313.15	1049.7	0.5
0.0669	318.15	1047.4	0.5
0.0669	323.15	1044.8	0.5
0.0862	303.15	1054.2	0.4
0.0862	308.15	1052.3	0.4
0.0862	313.15	1050	0.5
0.0862	318.15	1047.6	0.5
0.0862	323.15	1045	0.5
0.1056	303.15	1054.6	0.4
0.1056	308.15	1052.4	0.4
0.1056	313.15	1050.2	0.5
0.1056	318.15	1047.7	0.5
0.1056	323.15	1045.1	0.5
0.125	303.15	1054.8	0.4
0.125	308.15	1052.7	0.4
0.125	313.15	1050.4	0.5
0.125	318.15	1047.9	0.5
0.125	323.15	1045.4	0.5
0.1446	303.15	1055.2	0.4
0.1446	308.15	1052.9	0.4
0.1446	313.15	1050.6	0.5
0.1446	318.15	1048.2	0.5
0.1446	323.15	1045.6	0.5
0.1642	303.15	1055.5	0.4
0.1642	308.15	1053.2	0.4
0.1642	313.15	1050.8	0.5
0.1642	318.15	1048.3	0.5
0.1642	323.15	1045.7	0.5

System: 2-amino-3-methylpentanoic acid + water + potassium sulfate; phases: Liquid
Fixed: Pressure, kPa = 101
Fixed: Solvent: Amount concentration (molarity), mol/dm3 of potassium sulfate = 0.5
Property: Speed of sound, m/s (Liquid); method: LVPAI:UFactor:2
Molality, mol/kg of 2-amino-3-methylpentanoic acid	Temperature, K	Speed of sound, m/s	uncertainty
0	303.15	1571.2	3.3
0	308.15	1578.8	3.3
0	313.15	1587.6	3.3
0	318.15	1592.6	3.3
0	323.15	1597.6	3.4
0.0284	303.15	1573.8	3.3
0.0284	308.15	1580.4	3.3
0.0284	313.15	1589.2	3.3
0.0284	318.15	1593.6	3.3
0.0284	323.15	1598.2	3.4
0.0474	303.15	1575.6	3.3
0.0474	308.15	1582	3.3
0.0474	313.15	1590.6	3.3
0.0474	318.15	1595.2	3.4
0.0474	323.15	1599.4	3.4
0.0665	303.15	1578	3.3
0.0665	308.15	1584.8	3.3
0.0665	313.15	1592.2	3.3
0.0665	318.15	1596.4	3.4
0.0665	323.15	1600.4	3.4
0.0857	303.15	1579.6	3.3
0.0857	308.15	1587.7	3.3
0.0857	313.15	1594.4	3.4
0.0857	318.15	1598.4	3.4
0.0857	323.15	1602.8	3.4
0.1049	303.15	1581.8	3.3
0.1049	308.15	1590.7	3.3
0.1049	313.15	1593.4	3.3
0.1049	318.15	1596.2	3.4
0.1049	323.15	1601.2	3.4
0.1243	303.15	1582.1	3.3
0.1243	308.15	1591.7	3.3
0.1243	313.15	1595.8	3.4
0.1243	318.15	1600.4	3.4
0.1243	323.15	1605	3.4
0.1437	303.15	1585	3.3
0.1437	308.15	1592	3.3
0.1437	313.15	1598.8	3.4
0.1437	318.15	1604.4	3.4
0.1437	323.15	1608.4	3.4
0.1633	303.15	1586	3.3
0.1633	308.15	1593.8	3.3
0.1633	313.15	1600.8	3.4
0.1633	318.15	1605.7	3.4
0.1633	323.15	1609.4	3.4

System: 2-amino-3-methylpentanoic acid + water + potassium sulfate; phases: Liquid
Fixed: Pressure, kPa = 7
Fixed: Solvent: Amount concentration (molarity), mol/dm3 of potassium sulfate = 0.5
Property: Mass density, kg/m3 (Liquid); method: Pycnometric method
Molality, mol/kg of 2-amino-3-methylpentanoic acid	Temperature, K	Mass density, kg/m3	uncertainty
0	303.15	1059.3	0.4
0	308.15	1057.9	0.5
0	313.15	1056.1	0.5
0	318.15	1054.2	0.5
0	323.15	1051.9	0.5
0.0284	303.15	1059.7	0.4
0.0284	308.15	1058.2	0.5
0.0284	313.15	1056.4	0.5
0.0284	318.15	1054.4	0.5
0.0284	323.15	1052.1	0.5
0.0474	303.15	1060	0.4
0.0474	308.15	1068.4	0.5
0.0474	313.15	1056.5	0.5
0.0474	318.15	1054.5	0.5
0.0474	323.15	1052.2	0.5
0.0665	303.15	1060.3	0.4
0.0665	308.15	1058.6	0.5
0.0665	313.15	1056.7	0.5
0.0665	318.15	1054.6	0.5
0.0665	323.15	1052.3	0.5
0.0857	303.15	1060.5	0.4
0.0857	308.15	1058.8	0.5
0.0857	313.15	1056.9	0.5
0.0857	318.15	1054.7	0.5
0.0857	323.15	1052.4	0.5
0.1049	303.15	1060.8	0.4
0.1049	308.15	1059	0.5
0.1049	313.15	1057	0.5
0.1049	318.15	1054.8	0.5
0.1049	323.15	1052.5	0.5
0.1243	303.15	1061.1	0.4
0.1243	308.15	1059.2	0.5
0.1243	313.15	1057.1	0.5
0.1243	318.15	1054.9	0.5
0.1243	323.15	1052.6	0.5
0.1437	303.15	1061.3	0.4
0.1437	308.15	1059.3	0.5
0.1437	313.15	1057.3	0.5
0.1437	318.15	1055.1	0.5
0.1437	323.15	1052.7	0.5
0.1633	303.15	1061.7	0.4
0.1633	308.15	1059.6	0.5
0.1633	313.15	1057.5	0.5
0.1633	318.15	1055.2	0.5
0.1633	323.15	1052.8	0.5

System: L-proline + potassium chloride + water; phases: Liquid
Fixed: Pressure, kPa = 101
Fixed: Solvent: Amount concentration (molarity), mol/dm3 of potassium chloride = 1.5
Property: Speed of sound, m/s (Liquid); method: LVPAI:UFactor:2
Molality, mol/kg of L-proline	Temperature, K	Speed of sound, m/s	uncertainty
0	303.15	1584	3.3
0	308.15	1590.4	3.3
0	313.15	1595.8	3.4
0	318.15	1601.6	3.4
0	323.15	1606.2	3.4
0.095	303.15	1586.6	3.3
0.095	308.15	1593.6	3.3
0.095	313.15	1600.8	3.4
0.095	318.15	1607	3.4
0.095	323.15	1611	3.4
0.29	303.15	1598.8	3.4
0.29	308.15	1606.8	3.4
0.29	313.15	1612.4	3.4
0.29	318.15	1617.2	3.4
0.29	323.15	1621.8	3.4
0.492	303.15	1612.6	3.4
0.492	308.15	1617.8	3.4
0.492	313.15	1624	3.4
0.492	318.15	1627.6	3.4
0.492	323.15	1631.4	3.4
0.7015	303.15	1623.6	3.4
0.7015	308.15	1630.8	3.4
0.7015	313.15	1635.2	3.4
0.7015	318.15	1638.8	3.4
0.7015	323.15	1642	3.4
0.9189	303.15	1637.4	3.4
0.9189	308.15	1641.3	3.4
0.9189	313.15	1645.4	3.4
0.9189	318.15	1649.2	3.4
0.9189	323.15	1652.2	3.4
1.1445	303.15	1649.2	3.4
1.1445	313.15	1654.4	3.4
1.1445	318.15	1660.7	3.5
1.1445	323.15	1663	3.5
1.1445	313.15	1658	3.4

System: L-proline + potassium chloride + water; phases: Liquid
Fixed: Pressure, kPa = 7
Fixed: Solvent: Amount concentration (molarity), mol/dm3 of potassium chloride = 1.5
Property: Mass density, kg/m3 (Liquid); method: Pycnometric method
Molality, mol/kg of L-proline	Temperature, K	Mass density, kg/m3	uncertainty
0	303.15	1061.4	0.4
0	308.15	1059.7	0.5
0	313.15	1057.8	0.5
0	318.15	1055.6	0.5
0	323.15	1053.3	0.5
0.095	303.15	1063	0.4
0.095	308.15	1061.4	0.5
0.095	313.15	1059.5	0.5
0.095	318.15	1057.3	0.5
0.095	323.15	1054.9	0.5
0.29	303.15	1067.7	0.4
0.29	308.15	1066	0.5
0.29	313.15	1064.1	0.5
0.29	318.15	1061.8	0.5
0.29	323.15	1059.4	0.5
0.492	303.15	1072.4	0.4
0.492	308.15	1070.6	0.5
0.492	313.15	1068.6	0.5
0.492	318.15	1066.4	0.5
0.492	323.15	1063.9	0.5
0.7015	303.15	1077	0.5
0.7015	308.15	1075.2	0.5
0.7015	313.15	1073.2	0.5
0.7015	318.15	1070.9	0.5
0.7015	323.15	1068.4	0.5
0.9189	303.15	1081.7	0.5
0.9189	308.15	1079.9	0.5
0.9189	313.15	1077.8	0.5
0.9189	318.15	1075.5	0.5
0.9189	323.15	1072.9	0.5
1.1445	303.15	1086.3	0.5
1.1445	313.15	1084.5	0.5
1.1445	318.15	1080	0.5
1.1445	323.15	1077.4	0.5
1.1445	313.15	1082.4	0.5

System: L-proline + water + potassium nitrate; phases: Liquid
Fixed: Pressure, kPa = 101
Fixed: Solvent: Amount concentration (molarity), mol/dm3 of potassium nitrate = 1
Property: Speed of sound, m/s (Liquid); method: LVPAI:UFactor:2
Molality, mol/kg of L-proline	Temperature, K	Speed of sound, m/s	uncertainty
0	303.15	1541.8	3.3
0	308.15	1550.2	3.3
0	313.15	1557.4	3.3
0	318.15	1563.6	3.3
0	323.15	1568.4	3.3
0.0958	303.15	1549	3.3
0.0958	308.15	1552.4	3.3
0.0958	313.15	1559.2	3.3
0.0958	318.15	1564.8	3.3
0.0958	323.15	1569.8	3.3
0.1932	303.15	1553.6	3.3
0.1932	308.15	1558.1	3.3
0.1932	313.15	1563.2	3.3
0.1932	318.15	1568.6	3.3
0.1932	323.15	1573.4	3.3
0.2923	303.15	1558.8	3.3
0.2923	308.15	1563.9	3.3
0.2923	313.15	1570.6	3.3
0.2923	318.15	1575.2	3.3
0.2923	323.15	1580.4	3.3
0.3922	303.15	1561.8	3.3
0.3922	308.15	1567.2	3.3
0.3922	313.15	1573.8	3.3
0.3922	318.15	1581.4	3.3
0.3922	323.15	1584.8	3.3
0.4958	303.15	1568.2	3.3
0.4958	308.15	1575.4	3.3
0.4958	313.15	1580.2	3.3
0.4958	318.15	1585.6	3.3
0.4958	323.15	1589.8	3.3
0.6002	303.15	1577.2	3.3
0.6002	308.15	1581.2	3.3
0.6002	313.15	1588	3.3
0.6002	318.15	1594.4	3.4
0.6002	323.15	1597	3.4
0.7065	303.15	1581.6	3.3
0.7065	308.15	1585.6	3.3
0.7065	313.15	1593.8	3.3
0.7065	318.15	1599	3.4
0.7065	323.15	1602.2	3.4
0.8146	303.15	1584.8	3.3
0.8146	308.15	1591.2	3.3
0.8146	313.15	1597.8	3.4
0.8146	318.15	1602.4	3.4
0.8146	323.15	1608	3.4
0.9248	303.15	1593.6	3.3
0.9248	308.15	1600.8	3.4
0.9248	313.15	1605.6	3.4
0.9248	318.15	1609.6	3.4
0.9248	323.15	1613.8	3.4
1.0371	303.15	1598.4	3.4
1.0371	308.15	1604.4	3.4
1.0371	313.15	1609	3.4
1.0371	318.15	1612	3.4
1.0371	323.15	1615.2	3.4

System: L-proline + water + potassium nitrate; phases: Liquid
Fixed: Pressure, kPa = 7
Fixed: Solvent: Amount concentration (molarity), mol/dm3 of potassium nitrate = 1
Property: Mass density, kg/m3 (Liquid); method: Pycnometric method
Molality, mol/kg of L-proline	Temperature, K	Mass density, kg/m3	uncertainty
0	303.15	1052.9	0.4
0	308.15	1051.1	0.4
0	313.15	1049	0.5
0	318.15	1046.7	0.5
0	323.15	1044.2	0.5
0.0958	303.15	1055.4	0.4
0.0958	308.15	1053.5	0.4
0.0958	313.15	1051.4	0.5
0.0958	318.15	1049.1	0.5
0.0958	323.15	1046.6	0.5
0.1932	303.15	1058	0.4
0.1932	308.15	1056.1	0.5
0.1932	313.15	1053.9	0.5
0.1932	318.15	1051.6	0.5
0.1932	323.15	1049.2	0.5
0.2923	303.15	1060.8	0.4
0.2923	308.15	1058.8	0.5
0.2923	313.15	1056.6	0.5
0.2923	318.15	1054.2	0.5
0.2923	323.15	1051.6	0.5
0.3922	303.15	1063.4	0.4
0.3922	308.15	1061.4	0.5
0.3922	313.15	1059.2	0.5
0.3922	318.15	1056.8	0.5
0.3922	323.15	1054.2	0.5
0.4958	303.15	1066.1	0.4
0.4958	308.15	1064	0.5
0.4958	313.15	1061.8	0.5
0.4958	318.15	1059.3	0.5
0.4958	323.15	1056.8	0.5
0.6002	303.15	1068.8	0.4
0.6002	308.15	1066.7	0.5
0.6002	313.15	1064.5	0.5
0.6002	318.15	1061.9	0.5
0.6002	323.15	1059.2	0.5
0.7065	303.15	1071.4	0.4
0.7065	308.15	1069.2	0.5
0.7065	313.15	1067	0.5
0.7065	318.15	1064.5	0.5
0.7065	323.15	1061.8	0.5
0.8146	303.15	1074.2	0.5
0.8146	308.15	1071.9	0.5
0.8146	313.15	1069.7	0.5
0.8146	318.15	1067	0.5
0.8146	323.15	1064.3	0.5
0.9248	303.15	1076.8	0.5
0.9248	308.15	1074.4	0.5
0.9248	313.15	1072.4	0.5
0.9248	318.15	1069.6	0.5
0.9248	323.15	1066.9	0.5
1.0371	303.15	1079.4	0.5
1.0371	308.15	1077.1	0.5
1.0371	313.15	1074.9	0.5
1.0371	318.15	1072.1	0.5
1.0371	323.15	1069.4	0.5

System: L-proline + water + potassium sulfate; phases: Liquid
Fixed: Pressure, kPa = 101
Fixed: Solvent: Amount concentration (molarity), mol/dm3 of potassium sulfate = 0.5
Property: Speed of sound, m/s (Liquid); method: LVPAI:UFactor:2
Molality, mol/kg of L-proline	Temperature, K	Speed of sound, m/s	uncertainty
0	303.15	1571.2	3.3
0	308.15	1578.8	3.3
0	313.15	1587.6	3.3
0	318.15	1592.6	3.3
0	323.15	1597.6	3.4
0.0953	303.15	1577.2	3.3
0.0953	308.15	1585.2	3.3
0.0953	313.15	1592.4	3.3
0.0953	318.15	1597.2	3.4
0.0953	323.15	1601.6	3.4
0.2909	303.15	1589.2	3.3
0.2909	308.15	1596.4	3.4
0.2909	313.15	1604.4	3.4
0.2909	318.15	1608.6	3.4
0.2909	323.15	1612.8	3.4
0.4934	303.15	1604.2	3.4
0.4934	308.15	1611.4	3.4
0.4934	313.15	1618	3.4
0.4934	318.15	1622.4	3.4
0.4934	323.15	1625.6	3.4
0.7032	303.15	1616	3.4
0.7032	308.15	1621.4	3.4
0.7032	313.15	1625.8	3.4
0.7032	318.15	1630.4	3.4
0.7032	323.15	1635.8	3.4
0.9206	303.15	1627.2	3.4
0.9206	308.15	1631.2	3.4
0.9206	313.15	1634.8	3.4
0.9206	318.15	1640.2	3.4
0.9206	323.15	1644.9	3.4
1.1462	303.15	1640.4	3.4
1.1462	308.15	1644.4	3.4
1.1462	313.15	1648.2	3.4
1.1462	318.15	1651.8	3.4
1.1462	323.15	1656.8	3.4

System: L-proline + water + potassium sulfate; phases: Liquid
Fixed: Pressure, kPa = 7
Fixed: Solvent: Amount concentration (molarity), mol/dm3 of potassium sulfate = 0.5
Property: Mass density, kg/m3 (Liquid); method: Pycnometric method
Molality, mol/kg of L-proline	Temperature, K	Mass density, kg/m3	uncertainty
0	303.15	1059.3	0.4
0	308.15	1057.9	0.5
0	313.15	1056.1	0.5
0	318.15	1054.2	0.5
0	323.15	1051.9	0.5
0.0953	303.15	1060.6	0.4
0.0953	308.15	1059.2	0.5
0.0953	313.15	1057.6	0.5
0.0953	318.15	1055.7	0.5
0.0953	323.15	1053.4	0.5
0.2909	303.15	1065.8	0.4
0.2909	308.15	1064.3	0.5
0.2909	313.15	1062.6	0.5
0.2909	318.15	1060.6	0.5
0.2909	323.15	1058.4	0.5
0.4934	303.15	1070.9	0.4
0.4934	308.15	1069.4	0.5
0.4934	313.15	1067.7	0.5
0.4934	318.15	1065.6	0.5
0.4934	323.15	1063.3	0.5
0.7032	303.15	1076	0.5
0.7032	308.15	1074.5	0.5
0.7032	313.15	1072.7	0.5
0.7032	318.15	1070.6	0.5
0.7032	323.15	1068.3	0.5
0.9206	303.15	1081.2	0.5
0.9206	308.15	1079.6	0.5
0.9206	313.15	1077.7	0.5
0.9206	318.15	1075.6	0.5
0.9206	323.15	1073.3	0.5
1.1462	303.15	1086.3	0.5
1.1462	308.15	1084.7	0.5
1.1462	313.15	1082.7	0.5
1.1462	318.15	1080.6	0.5
1.1462	323.15	1078.2	0.5

System: L-glutamine + potassium chloride + water; phases: Liquid
Fixed: Pressure, kPa = 101
Fixed: Solvent: Amount concentration (molarity), mol/dm3 of potassium chloride = 1.5
Property: Speed of sound, m/s (Liquid); method: LVPAI:UFactor:2
Molality, mol/kg of L-glutamine	Temperature, K	Speed of sound, m/s	uncertainty
0	303.15	1584	3.3
0	308.15	1590.4	3.3
0	313.15	1595.8	3.4
0	318.15	1601.6	3.4
0	323.15	1606.2	3.4
0.0379	303.15	1585.4	3.3
0.0379	308.15	1593	3.3
0.0379	313.15	1597.6	3.4
0.0379	318.15	1604.4	3.4
0.0379	323.15	1608.8	3.4
0.076	303.15	1588	3.3
0.076	308.15	1596.2	3.4
0.076	313.15	1600.6	3.4
0.076	318.15	1607.8	3.4
0.076	323.15	1610.8	3.4
0.1145	303.15	1590.6	3.3
0.1145	308.15	1597.4	3.4
0.1145	313.15	1603.4	3.4
0.1145	318.15	1608.6	3.4
0.1145	323.15	1614.4	3.4
0.1534	303.15	1593	3.3
0.1534	308.15	1599.2	3.4
0.1534	313.15	1604.8	3.4
0.1534	318.15	1610.6	3.4
0.1534	323.15	1616	3.4
0.1925	303.15	1597.2	3.4
0.1925	308.15	1603.2	3.4
0.1925	313.15	1608.6	3.4
0.1925	318.15	1613	3.4
0.1925	323.15	1617.4	3.4
0.232	303.15	1599.8	3.4
0.232	308.15	1606.6	3.4
0.232	313.15	1611	3.4
0.232	318.15	1614.6	3.4
0.232	323.15	1619.8	3.4
0.2718	303.15	1603.6	3.4
0.2718	308.15	1609.2	3.4
0.2718	313.15	1614.9	3.4
0.2718	318.15	1619.4	3.4
0.2718	323.15	1622.2	3.4

System: L-glutamine + potassium chloride + water; phases: Liquid
Fixed: Pressure, kPa = 7
Fixed: Solvent: Amount concentration (molarity), mol/dm3 of potassium chloride = 1.5
Property: Mass density, kg/m3 (Liquid); method: Pycnometric method
Molality, mol/kg of L-glutamine	Temperature, K	Mass density, kg/m3	uncertainty
0	303.15	1061.4	0.4
0	308.15	1059.7	0.5
0	313.15	1057.8	0.5
0	318.15	1055.6	0.5
0	323.15	1053.3	0.5
0.0379	303.15	1062.1	0.4
0.0379	308.15	1060.5	0.5
0.0379	313.15	1058.7	0.5
0.0379	318.15	1056.7	0.5
0.0379	323.15	1054.5	0.5
0.076	303.15	1063.7	0.4
0.076	308.15	1062.1	0.5
0.076	313.15	1060.3	0.5
0.076	318.15	1058.3	0.5
0.076	323.15	1056.1	0.5
0.1145	303.15	1065.2	0.4
0.1145	308.15	1063.6	0.5
0.1145	313.15	1061.9	0.5
0.1145	318.15	1059.9	0.5
0.1145	323.15	1057.7	0.5
0.1534	303.15	1066.7	0.4
0.1534	308.15	1065.2	0.5
0.1534	313.15	1063.4	0.5
0.1534	318.15	1061.4	0.5
0.1534	323.15	1059.3	0.5
0.1925	303.15	1068.2	0.4
0.1925	308.15	1066.7	0.5
0.1925	313.15	1065	0.5
0.1925	318.15	1063	0.5
0.1925	323.15	1060.9	0.5
0.232	303.15	1069.7	0.4
0.232	308.15	1068.3	0.5
0.232	313.15	1066.6	0.5
0.232	318.15	1064.6	0.5
0.232	323.15	1062.5	0.5
0.2718	303.15	1071.2	0.4
0.2718	308.15	1069.8	0.5
0.2718	313.15	1068.2	0.5
0.2718	318.15	1066.2	0.5
0.2718	323.15	1064.1	0.5

System: L-glutamine + water + potassium nitrate; phases: Liquid
Fixed: Pressure, kPa = 101
Fixed: Solvent: Amount concentration (molarity), mol/dm3 of potassium nitrate = 1
Property: Speed of sound, m/s (Liquid); method: LVPAI:UFactor:2
Molality, mol/kg of L-glutamine	Temperature, K	Speed of sound, m/s	uncertainty
0	303.15	1541.8	3.3
0	308.15	1550.2	3.3
0	313.15	1557.4	3.3
0	318.15	1563.6	3.3
0	323.15	1568.4	3.3
0.0381	303.15	1546.8	3.3
0.0381	308.15	1552.4	3.3
0.0381	313.15	1558	3.3
0.0381	318.15	1563.8	3.3
0.0381	323.15	1568.8	3.3
0.0766	303.15	1549.2	3.3
0.0766	308.15	1556.4	3.3
0.0766	313.15	1560.4	3.3
0.0766	318.15	1564.2	3.3
0.0766	323.15	1569.2	3.3
0.1152	303.15	1551.8	3.3
0.1152	308.15	1557.6	3.3
0.1152	313.15	1562.8	3.3
0.1152	318.15	1566.8	3.3
0.1152	323.15	1570.8	3.3
0.1542	303.15	1554.6	3.3
0.1542	308.15	1560	3.3
0.1542	313.15	1566.2	3.3
0.1542	318.15	1568.8	3.3
0.1542	323.15	1573.2	3.3
0.1934	303.15	1555.8	3.3
0.1934	308.15	1564	3.3
0.1934	313.15	1568.8	3.3
0.1934	318.15	1572.8	3.3
0.1934	323.15	1575.4	3.3
0.233	303.15	1558	3.3
0.233	308.15	1565.6	3.3
0.233	313.15	1569.8	3.3
0.233	318.15	1574	3.3
0.233	323.15	1578.4	3.3
0.2728	303.15	1562.4	3.3
0.2728	308.15	1570	3.3
0.2728	313.15	1574.4	3.3
0.2728	318.15	1579	3.3
0.2728	323.15	1583.4	3.3

System: L-glutamine + water + potassium nitrate; phases: Liquid
Fixed: Pressure, kPa = 7
Fixed: Solvent: Amount concentration (molarity), mol/dm3 of potassium nitrate = 1
Property: Mass density, kg/m3 (Liquid); method: Pycnometric method
Molality, mol/kg of L-glutamine	Temperature, K	Mass density, kg/m3	uncertainty
0	303.15	1052.9	0.4
0	308.15	1051.1	0.5
0	313.15	1049	0.5
0	318.15	1046.7	0.5
0	323.15	1044.2	0.5
0.0381	303.15	1054.5	0.4
0.0381	308.15	1053	0.5
0.0381	313.15	1050.9	0.5
0.0381	318.15	1048.7	0.5
0.0381	323.15	1046.3	0.5
0.0766	303.15	1056.7	0.4
0.0766	308.15	1055.1	0.5
0.0766	313.15	1053	0.5
0.0766	318.15	1050.7	0.5
0.0766	323.15	1048.3	0.5
0.1152	303.15	1058.8	0.4
0.1152	308.15	1057.2	0.5
0.1152	313.15	1055	0.5
0.1152	318.15	1052.8	0.5
0.1152	323.15	1050.3	0.5
0.1542	303.15	1061	0.4
0.1542	308.15	1059.3	0.5
0.1542	313.15	1057.1	0.5
0.1542	318.15	1054.9	0.5
0.1542	323.15	1052.3	0.5
0.1934	303.15	1063.1	0.4
0.1934	308.15	1061.4	0.5
0.1934	313.15	1059.2	0.5
0.1934	318.15	1057	0.5
0.1934	323.15	1054.3	0.5
0.233	303.15	1065.2	0.4
0.233	308.15	1063.6	0.5
0.233	313.15	1061.2	0.5
0.233	318.15	1059.1	0.5
0.233	323.15	1056.3	0.5
0.2728	303.15	1067.4	0.4
0.2728	308.15	1065.7	0.5
0.2728	313.15	1063.3	0.5
0.2728	318.15	1061.1	0.5
0.2728	323.15	1058.3	0.5

System: L-glutamine + water + potassium sulfate; phases: Liquid
Fixed: Pressure, kPa = 101
Fixed: Solvent: Amount concentration (molarity), mol/dm3 of potassium sulfate = 0.5
Property: Speed of sound, m/s (Liquid); method: LVPAI:UFactor:2
Molality, mol/kg of L-glutamine	Temperature, K	Speed of sound, m/s	uncertainty
0	303.15	1571.2	3.3
0	308.15	1578.8	3.3
0	313.15	1587.6	3.3
0	318.15	1592.6	3.3
0	323.15	1597.6	3.4
0.0379	303.15	1574	3.3
0.0379	308.15	1581.6	3.3
0.0379	313.15	1588.6	3.3
0.0379	318.15	1594.2	3.4
0.0379	323.15	1598.8	3.4
0.0762	303.15	1576.4	3.3
0.0762	308.15	1585.6	3.3
0.0762	313.15	1591.2	3.3
0.0762	318.15	1596.2	3.4
0.0762	323.15	1601.4	3.4
0.1147	303.15	1581	3.3
0.1147	308.15	1588.4	3.3
0.1147	313.15	1594.8	3.4
0.1147	318.15	1600.6	3.4
0.1147	323.15	1605.6	3.4
0.1535	303.15	1583.2	3.3
0.1535	308.15	1590.8	3.3
0.1535	313.15	1598.4	3.4
0.1535	318.15	1603.2	3.4
0.1535	323.15	1607.4	3.4
0.1926	303.15	1585.4	3.3
0.1926	308.15	1592.8	3.3
0.1926	313.15	1600	3.4
0.1926	318.15	1606	3.4
0.1926	323.15	1610	3.4
0.232	303.15	1588.6	3.3
0.232	308.15	1596.5	3.4
0.232	313.15	1604.4	3.4
0.232	318.15	1608.4	3.4
0.232	323.15	1613.6	3.4
0.2717	303.15	1592.2	3.3
0.2717	308.15	1598.8	3.4
0.2717	313.15	1605	3.4
0.2717	318.15	1610.4	3.4
0.2717	323.15	1614	3.4

System: L-glutamine + water + potassium sulfate; phases: Liquid
Fixed: Pressure, kPa = 7
Fixed: Solvent: Amount concentration (molarity), mol/dm3 of potassium sulfate = 0.5
Property: Mass density, kg/m3 (Liquid); method: Pycnometric method
Molality, mol/kg of L-glutamine	Temperature, K	Mass density, kg/m3	uncertainty
0	303.15	1059.3	0.4
0	308.15	1057.9	0.5
0	313.15	1056.1	0.5
0	318.15	1054.2	0.5
0	323.15	1051.9	0.5
0.0379	303.15	1060.4	0.4
0.0379	308.15	1059	0.5
0.0379	313.15	1057.3	0.5
0.0379	318.15	1055.4	0.5
0.0379	323.15	1053.2	0.5
0.0762	303.15	1062.2	0.4
0.0762	308.15	1060.7	0.5
0.0762	313.15	1059	0.5
0.0762	318.15	1057	0.5
0.0762	323.15	1054.8	0.5
0.1147	303.15	1064	0.4
0.1147	308.15	1062.5	0.5
0.1147	313.15	1060.7	0.5
0.1147	318.15	1058.7	0.5
0.1147	323.15	1056.5	0.5
0.1535	303.15	1065.9	0.4
0.1535	308.15	1064.3	0.5
0.1535	313.15	1062.4	0.5
0.1535	318.15	1060.4	0.5
0.1535	323.15	1058.1	0.5
0.1926	303.15	1067.7	0.4
0.1926	308.15	1066	0.5
0.1926	313.15	1064.1	0.5
0.1926	318.15	1062	0.5
0.1926	323.15	1059.7	0.5
0.232	303.15	1069.5	0.4
0.232	308.15	1067.8	0.5
0.232	313.15	1065.8	0.5
0.232	318.15	1063.7	0.5
0.232	323.15	1061.4	0.5
0.2717	303.15	1071.4	0.5
0.2717	308.15	1069.5	0.5
0.2717	313.15	1067.5	0.5
0.2717	318.15	1065.4	0.5
0.2717	323.15	1063	0.5
