Measured thermophysical data. Volumetric, ultrasonic and UV absorption studies on interactions of antibiotic drug chloramphenicol with glycine and its dipeptide in aqueous solutions at T = (288.15-318.15) K
Source: J. Chem. Thermodyn., 2016, 10.1016/j.jct.2016.03.040
Compound 1: water, H2O, InChI=1S/H2O/h1H2, purity 99.8%
Compound 2: 2-aminoacetic acid, C2H5NO2, InChI=1S/C2H5NO2/c3-1-2(4)5/h1,3H2,(H,4,5), purity 99%
Compound 3: glycylglycine, C4H8N2O3, InChI=1S/C4H8N2O3/c5-1-3(7)6-2-4(8)9/h1-2,5H2,(H,6,7)(H,8,9), purity 99%
Compound 4: [R-(R*,R*)]-2,2-dichloro-N-[2-hydroxy-1-(hydroxymethyl)-2-(4-nitrophenyl)ethyl]ethanamide, C11H12Cl2N2O5, InChI=1S/C11H12Cl2N2O5/c12-10(13)11(18)14-8(5-16)9(17)6-1-3-7(4-2-6)15(19)20/h1-4,8-10,16-17H,5H2,(H,14,18)/t8-,9-/m1/s1, purity 97%

System: water; phases: Liquid
Fixed: Pressure, kPa = 100
Property: Mass density, kg/m3 (Liquid); method: Vibrating tube method
Temperature, K	Mass density, kg/m3	uncertainty
288.15	999.119	0.422
298.15	997.052	0.425
308.15	994.047	0.423
318.15	990.216	0.419

System: water; phases: Liquid
Fixed: Pressure, kPa = 100
Fixed: Frequency, MHz = 3
Property: Speed of sound, m/s (Liquid); method: Sing-around technique in a fixed-path interferometer
Temperature, K	Speed of sound, m/s	uncertainty
288.15	1466.73	1.85
298.15	1495.87	1.85
308.15	1519.5	1.85
318.15	1536.12	1.85

System: 2-aminoacetic acid + [R-(R*,R*)]-2,2-dichloro-N-[2-hydroxy-1-(hydroxymethyl)-2-(4-nitrophenyl)ethyl]ethanamide + water; phases: Liquid
Fixed: Pressure, kPa = 100
Property: Mass density, kg/m3 (Liquid); method: Vibrating tube method
Temperature, K	Solvent: Molality, mol/kg of [R-(R*,R*)]-2,2-dichloro-N-[2-hydroxy-1-(hydroxymethyl)-2-(4-nitrophenyl)ethyl]ethanamide	Molality, mol/kg of 2-aminoacetic acid	Mass density, kg/m3	uncertainty
288.15	0	0	999.119	0.422
288.15	0	0.01095	999.494	0.422
288.15	0	0.02116	999.815	0.423
288.15	0	0.04014	1000.409	0.429
288.15	0	0.06033	1001.052	0.438
288.15	0	0.08023	1001.695	0.451
288.15	0	0.10056	1002.355	0.467
288.15	0	0.15005	1003.958	0.515
288.15	0	0.20029	1005.567	0.576
298.15	0	0	997.052	0.425
298.15	0	0.01095	997.428	0.421
298.15	0	0.02116	997.724	0.423
298.15	0	0.04014	998.287	0.427
298.15	0	0.06033	998.921	0.436
298.15	0	0.08023	999.548	0.447
298.15	0	0.10056	1000.172	0.467
298.15	0	0.15005	1001.726	0.508
298.15	0	0.20029	1003.277	0.525
308.15	0	0	994.047	0.423
308.15	0	0.01095	994.433	0.42
308.15	0	0.02116	994.686	0.421
308.15	0	0.04014	995.236	0.426
308.15	0	0.06033	995.832	0.434
308.15	0	0.08023	996.477	0.448
308.15	0	0.10056	997.123	0.464
308.15	0	0.15005	998.64	0.504
308.15	0	0.20029	1000.199	0.518
318.15	0	0	990.216	0.419
318.15	0	0.01095	990.57	0.418
318.15	0	0.02116	990.869	0.42
318.15	0	0.04014	991.411	0.424
318.15	0	0.06033	991.989	0.432
318.15	0	0.08023	992.6	0.445
318.15	0	0.10056	993.251	0.455
318.15	0	0.15005	994.665	0.497
318.15	0	0.20029	996.211	0.56
288.15	0.0005	0	999.273	0.422
288.15	0.0005	0.01031	999.551	0.422
288.15	0.0005	0.02216	999.919	0.424
288.15	0.0005	0.04096	1000.533	0.429
288.15	0.0005	0.05947	1001.119	0.438
288.15	0.0005	0.08209	1001.871	0.452
288.15	0.0005	0.09989	1002.42	0.465
288.15	0.0005	0.14942	1004.001	0.516
288.15	0.0005	0.20119	1005.706	0.582
298.15	0.0005	0	997.209	0.423
298.15	0.0005	0.01031	997.505	0.421
298.15	0.0005	0.02216	997.838	0.423
298.15	0.0005	0.04096	998.423	0.427
298.15	0.0005	0.05947	998.962	0.437
298.15	0.0005	0.08209	999.719	0.448
298.15	0.0005	0.09989	1000.271	0.466
298.15	0.0005	0.14942	1001.819	0.511
298.15	0.0005	0.20119	1003.484	0.544
308.15	0.0005	0	994.205	0.422
308.15	0.0005	0.01031	994.506	0.42
308.15	0.0005	0.02216	994.819	0.421
308.15	0.0005	0.04096	995.365	0.426
308.15	0.0005	0.05947	995.903	0.436
308.15	0.0005	0.08209	996.658	0.447
308.15	0.0005	0.09989	997.203	0.463
308.15	0.0005	0.14942	998.735	0.506
308.15	0.0005	0.20119	1000.376	0.541
318.15	0.0005	0	990.372	0.419
318.15	0.0005	0.01031	990.658	0.418
318.15	0.0005	0.02216	990.98	0.42
318.15	0.0005	0.04096	991.524	0.424
318.15	0.0005	0.05947	992.064	0.433
318.15	0.0005	0.08209	992.808	0.447
318.15	0.0005	0.09989	993.34	0.457
318.15	0.0005	0.14942	994.856	0.503
318.15	0.0005	0.20119	996.479	0.556
288.15	0.001	0	999.429	0.422
288.15	0.001	0.01065	999.676	0.422
288.15	0.001	0.0222	999.999	0.424
288.15	0.001	0.04008	1000.568	0.429
288.15	0.001	0.06172	1001.283	0.44
288.15	0.001	0.08061	1001.902	0.451
288.15	0.001	0.09977	1002.491	0.467
288.15	0.001	0.14994	1004.149	0.516
288.15	0.001	0.19856	1005.682	0.573
298.15	0.001	0	997.363	0.423
298.15	0.001	0.01065	997.613	0.421
298.15	0.001	0.0222	997.942	0.423
298.15	0.001	0.04008	998.511	0.428
298.15	0.001	0.06172	999.168	0.436
298.15	0.001	0.08061	999.77	0.448
298.15	0.001	0.09977	1000.355	0.467
298.15	0.001	0.14994	1001.966	0.51
298.15	0.001	0.19856	1003.463	0.539
308.15	0.001	0	994.356	0.422
308.15	0.001	0.01065	994.607	0.42
308.15	0.001	0.0222	994.922	0.422
308.15	0.001	0.04008	995.443	0.427
308.15	0.001	0.06172	996.126	0.435
308.15	0.001	0.08061	996.72	0.446
308.15	0.001	0.09977	997.287	0.464
308.15	0.001	0.14994	998.88	0.505
308.15	0.001	0.19856	1000.353	0.535
318.15	0.001	0	990.522	0.419
318.15	0.001	0.01065	990.757	0.418
318.15	0.001	0.0222	991.092	0.42
318.15	0.001	0.04008	991.596	0.425
318.15	0.001	0.06172	992.272	0.434
318.15	0.001	0.08061	992.861	0.444
318.15	0.001	0.09977	993.42	0.458
318.15	0.001	0.14994	994.996	0.502
318.15	0.001	0.19856	996.455	0.555
288.15	0.002	0	999.643	0.423
288.15	0.002	0.00987	999.871	0.422
288.15	0.002	0.02137	1000.175	0.424
288.15	0.002	0.0404	1000.793	0.43
288.15	0.002	0.06081	1001.444	0.439
288.15	0.002	0.08127	1002.076	0.453
288.15	0.002	0.10039	1002.731	0.466
288.15	0.002	0.15096	1004.295	0.517
288.15	0.002	0.2	1005.94	0.581
298.15	0.002	0	997.576	0.424
298.15	0.002	0.00987	997.803	0.421
298.15	0.002	0.02137	998.109	0.423
298.15	0.002	0.0404	998.702	0.428
298.15	0.002	0.06081	999.327	0.437
298.15	0.002	0.08127	999.954	0.449
298.15	0.002	0.10039	1000.577	0.466
298.15	0.002	0.15096	1002.113	0.511
298.15	0.002	0.2	1003.718	0.545
308.15	0.002	0	994.56	0.422
308.15	0.002	0.00987	994.786	0.42
308.15	0.002	0.02137	995.095	0.422
308.15	0.002	0.0404	995.659	0.427
308.15	0.002	0.06081	996.283	0.435
308.15	0.002	0.08127	996.892	0.446
308.15	0.002	0.10039	997.485	0.462
308.15	0.002	0.15096	999.012	0.507
308.15	0.002	0.2	1000.603	0.545
318.15	0.002	0	990.713	0.419
318.15	0.002	0.00987	990.899	0.419
318.15	0.002	0.02137	991.223	0.42
318.15	0.002	0.0404	991.805	0.425
318.15	0.002	0.06081	992.429	0.433
318.15	0.002	0.08127	993.031	0.444
318.15	0.002	0.10039	993.609	0.457
318.15	0.002	0.15096	995.138	0.506
318.15	0.002	0.2	996.705	0.563
288.15	0.004	0	999.922	0.423
288.15	0.004	0.01215	1000.173	0.423
288.15	0.004	0.02027	1000.404	0.425
288.15	0.004	0.03989	1001.039	0.431
288.15	0.004	0.06113	1001.745	0.442
288.15	0.004	0.08259	1002.454	0.454
288.15	0.004	0.10072	1002.997	0.467
288.15	0.004	0.14927	1004.542	0.515
288.15	0.004	0.20024	1006.179	0.577
298.15	0.004	0	997.847	0.423
298.15	0.004	0.01215	998.109	0.421
298.15	0.004	0.02027	998.343	0.423
298.15	0.004	0.03989	998.953	0.428
298.15	0.004	0.06113	999.642	0.437
298.15	0.004	0.08259	1000.313	0.447
298.15	0.004	0.10072	1000.845	0.467
298.15	0.004	0.14927	1002.354	0.508
298.15	0.004	0.20024	1003.929	0.525
308.15	0.004	0	994.831	0.422
308.15	0.004	0.01215	995.096	0.42
308.15	0.004	0.02027	995.325	0.422
308.15	0.004	0.03989	995.916	0.427
308.15	0.004	0.06113	996.575	0.436
308.15	0.004	0.08259	997.244	0.446
308.15	0.004	0.10072	997.779	0.464
308.15	0.004	0.14927	999.261	0.505
308.15	0.004	0.20024	1000.866	0.524
318.15	0.004	0	990.992	0.42
318.15	0.004	0.01215	991.255	0.42
318.15	0.004	0.02027	991.461	0.421
318.15	0.004	0.03989	992.063	0.426
318.15	0.004	0.06113	992.733	0.436
318.15	0.004	0.08259	993.406	0.445
318.15	0.004	0.10072	993.893	0.457
318.15	0.004	0.14927	995.375	0.502
318.15	0.004	0.20024	996.938	0.56

System: 2-aminoacetic acid + [R-(R*,R*)]-2,2-dichloro-N-[2-hydroxy-1-(hydroxymethyl)-2-(4-nitrophenyl)ethyl]ethanamide + water; phases: Liquid
Fixed: Pressure, kPa = 100
Fixed: Frequency, MHz = 3
Property: Speed of sound, m/s (Liquid); method: Sing-around technique in a fixed-path interferometer
Temperature, K	Solvent: Molality, mol/kg of [R-(R*,R*)]-2,2-dichloro-N-[2-hydroxy-1-(hydroxymethyl)-2-(4-nitrophenyl)ethyl]ethanamide	Molality, mol/kg of 2-aminoacetic acid	Speed of sound, m/s	uncertainty
288.15	0	0	1466.73	1.85
288.15	0	0.01095	1467.35	1.85
288.15	0	0.02116	1467.92	1.85
288.15	0	0.04014	1468.99	1.85
288.15	0	0.06033	1470.13	1.86
288.15	0	0.08023	1471.25	1.87
288.15	0	0.10056	1472.39	1.88
288.15	0	0.15005	1475.18	1.92
288.15	0	0.20029	1478	1.97
298.15	0	0	1495.87	1.85
298.15	0	0.01095	1496.45	1.85
298.15	0	0.02116	1496.98	1.85
298.15	0	0.04014	1497.98	1.85
298.15	0	0.06033	1499.04	1.86
298.15	0	0.08023	1500.09	1.87
298.15	0	0.10056	1501.15	1.89
298.15	0	0.15005	1503.76	1.91
298.15	0	0.20029	1506.4	1.86
308.15	0	0	1519.5	1.85
308.15	0	0.01095	1520.05	1.85
308.15	0	0.02116	1520.56	1.86
308.15	0	0.04014	1521.5	1.86
308.15	0	0.06033	1522.51	1.86
308.15	0	0.08023	1523.5	1.87
308.15	0	0.10056	1524.52	1.89
308.15	0	0.15005	1526.98	1.91
308.15	0	0.20029	1529.49	1.85
318.15	0	0	1536.12	1.85
318.15	0	0.01095	1536.64	1.85
318.15	0	0.02116	1537.13	1.86
318.15	0	0.04014	1538.04	1.86
318.15	0	0.06033	1539	1.86
318.15	0	0.08023	1539.96	1.87
318.15	0	0.10056	1540.93	1.88
318.15	0	0.15005	1543.29	1.9
318.15	0	0.20029	1545.7	1.94
288.15	0.0005	0	1466.86	1.85
288.15	0.0005	0.01031	1467.44	1.85
288.15	0.0005	0.02216	1468.11	1.85
288.15	0.0005	0.04096	1469.17	1.85
288.15	0.0005	0.05947	1470.21	1.86
288.15	0.0005	0.08209	1471.48	1.87
288.15	0.0005	0.09989	1472.48	1.88
288.15	0.0005	0.14942	1475.27	1.92
288.15	0.0005	0.20119	1478.19	1.97
298.15	0.0005	0	1496.01	1.85
298.15	0.0005	0.01031	1496.55	1.85
298.15	0.0005	0.02216	1497.17	1.85
298.15	0.0005	0.04096	1498.16	1.85
298.15	0.0005	0.05947	1499.14	1.86
298.15	0.0005	0.08209	1500.32	1.86
298.15	0.0005	0.09989	1501.26	1.89
298.15	0.0005	0.14942	1503.86	1.91
298.15	0.0005	0.20119	1506.58	1.89
308.15	0.0005	0	1519.61	1.85
308.15	0.0005	0.01031	1520.12	1.85
308.15	0.0005	0.02216	1520.72	1.85
308.15	0.0005	0.04096	1521.65	1.86
308.15	0.0005	0.05947	1522.58	1.86
308.15	0.0005	0.08209	1523.7	1.86
308.15	0.0005	0.09989	1524.59	1.89
308.15	0.0005	0.14942	1527.06	1.91
308.15	0.0005	0.20119	1529.65	1.87
318.15	0.0005	0	1536.25	1.85
318.15	0.0005	0.01031	1536.74	1.85
318.15	0.0005	0.02216	1537.31	1.86
318.15	0.0005	0.04096	1538.21	1.86
318.15	0.0005	0.05947	1539.09	1.86
318.15	0.0005	0.08209	1540.17	1.87
318.15	0.0005	0.09989	1541.03	1.88
318.15	0.0005	0.14942	1543.39	1.9
318.15	0.0005	0.20119	1545.87	1.94
288.15	0.001	0	1466.98	1.85
288.15	0.001	0.01065	1467.58	1.85
288.15	0.001	0.0222	1468.23	1.85
288.15	0.001	0.04008	1469.24	1.85
288.15	0.001	0.06172	1470.45	1.86
288.15	0.001	0.08061	1471.52	1.87
288.15	0.001	0.09977	1472.6	1.88
288.15	0.001	0.14994	1475.42	1.92
288.15	0.001	0.19856	1478.16	1.96
298.15	0.001	0	1496.13	1.85
298.15	0.001	0.01065	1496.69	1.85
298.15	0.001	0.0222	1497.3	1.85
298.15	0.001	0.04008	1498.24	1.86
298.15	0.001	0.06172	1499.37	1.86
298.15	0.001	0.08061	1500.37	1.87
298.15	0.001	0.09977	1501.37	1.89
298.15	0.001	0.14994	1504.01	1.91
298.15	0.001	0.19856	1506.56	1.89
308.15	0.001	0	1519.73	1.85
308.15	0.001	0.01065	1520.26	1.85
308.15	0.001	0.0222	1520.84	1.86
308.15	0.001	0.04008	1521.73	1.86
308.15	0.001	0.06172	1522.81	1.86
308.15	0.001	0.08061	1523.75	1.87
308.15	0.001	0.09977	1524.71	1.89
308.15	0.001	0.14994	1527.21	1.91
308.15	0.001	0.19856	1529.63	1.88
318.15	0.001	0	1536.38	1.85
318.15	0.001	0.01065	1536.89	1.86
318.15	0.001	0.0222	1537.44	1.86
318.15	0.001	0.04008	1538.3	1.86
318.15	0.001	0.06172	1539.33	1.86
318.15	0.001	0.08061	1540.23	1.87
318.15	0.001	0.09977	1541.15	1.88
318.15	0.001	0.14994	1543.55	1.9
318.15	0.001	0.19856	1545.87	1.94
288.15	0.002	0	1467.12	1.85
288.15	0.002	0.00987	1467.68	1.85
288.15	0.002	0.02137	1468.32	1.85
288.15	0.002	0.0404	1469.39	1.85
288.15	0.002	0.06081	1470.54	1.86
288.15	0.002	0.08127	1471.69	1.87
288.15	0.002	0.10039	1472.77	1.88
288.15	0.002	0.15096	1475.62	1.92
288.15	0.002	0.2	1478.38	1.97
298.15	0.002	0	1496.25	1.85
298.15	0.002	0.00987	1496.77	1.85
298.15	0.002	0.02137	1497.37	1.85
298.15	0.002	0.0404	1498.37	1.86
298.15	0.002	0.06081	1499.45	1.86
298.15	0.002	0.08127	1500.52	1.87
298.15	0.002	0.10039	1501.53	1.89
298.15	0.002	0.15096	1504.18	1.91
298.15	0.002	0.2	1506.76	1.89
308.15	0.002	0	1519.86	1.85
308.15	0.002	0.00987	1520.35	1.85
308.15	0.002	0.02137	1520.93	1.86
308.15	0.002	0.0404	1521.88	1.86
308.15	0.002	0.06081	1522.89	1.86
308.15	0.002	0.08127	1523.91	1.87
308.15	0.002	0.10039	1524.87	1.89
308.15	0.002	0.15096	1527.39	1.91
308.15	0.002	0.2	1529.84	1.87
318.15	0.002	0	1536.51	1.85
318.15	0.002	0.00987	1536.98	1.86
318.15	0.002	0.02137	1537.53	1.86
318.15	0.002	0.0404	1538.44	1.86
318.15	0.002	0.06081	1539.42	1.86
318.15	0.002	0.08127	1540.4	1.87
318.15	0.002	0.10039	1541.31	1.88
318.15	0.002	0.15096	1543.73	1.91
318.15	0.002	0.2	1546.07	1.94
288.15	0.004	0	1467.48	1.85
288.15	0.004	0.01215	1468.16	1.85
288.15	0.004	0.02027	1468.62	1.85
288.15	0.004	0.03989	1469.73	1.85
288.15	0.004	0.06113	1470.92	1.86
288.15	0.004	0.08259	1472.13	1.87
288.15	0.004	0.10072	1473.15	1.88
288.15	0.004	0.14927	1475.88	1.92
288.15	0.004	0.20024	1478.75	1.97
298.15	0.004	0	1496.66	1.86
298.15	0.004	0.01215	1497.3	1.85
298.15	0.004	0.02027	1497.73	1.86
298.15	0.004	0.03989	1498.76	1.86
298.15	0.004	0.06113	1499.87	1.86
298.15	0.004	0.08259	1501	1.87
298.15	0.004	0.10072	1501.95	1.9
298.15	0.004	0.14927	1504.5	1.91
298.15	0.004	0.20024	1507.18	1.87
308.15	0.004	0	1520.21	1.87
308.15	0.004	0.01215	1520.82	1.86
308.15	0.004	0.02027	1521.22	1.86
308.15	0.004	0.03989	1522.2	1.86
308.15	0.004	0.06113	1523.26	1.87
308.15	0.004	0.08259	1524.33	1.87
308.15	0.004	0.10072	1525.23	1.9
308.15	0.004	0.14927	1527.66	1.91
308.15	0.004	0.20024	1530.2	1.87
318.15	0.004	0	1536.82	1.86
318.15	0.004	0.01215	1537.4	1.86
318.15	0.004	0.02027	1537.79	1.86
318.15	0.004	0.03989	1538.73	1.86
318.15	0.004	0.06113	1539.74	1.86
318.15	0.004	0.08259	1540.77	1.87
318.15	0.004	0.10072	1541.64	1.88
318.15	0.004	0.14927	1543.96	1.9
318.15	0.004	0.20024	1546.39	1.94

System: [R-(R*,R*)]-2,2-dichloro-N-[2-hydroxy-1-(hydroxymethyl)-2-(4-nitrophenyl)ethyl]ethanamide + glycylglycine + water; phases: Liquid
Fixed: Pressure, kPa = 100
Property: Mass density, kg/m3 (Liquid); method: Vibrating tube method
Temperature, K	Solvent: Molality, mol/kg of [R-(R*,R*)]-2,2-dichloro-N-[2-hydroxy-1-(hydroxymethyl)-2-(4-nitrophenyl)ethyl]ethanamide	Molality, mol/kg of glycylglycine	Mass density, kg/m3	uncertainty
288.15	0	0	999.119	0.425
288.15	0	0.01033	999.704	0.423
288.15	0	0.02031	1000.231	0.427
288.15	0	0.04035	1001.396	0.445
288.15	0	0.06012	1002.497	0.473
288.15	0	0.0802	1003.695	0.507
288.15	0	0.10106	1004.843	0.543
288.15	0	0.15021	1007.567	0.653
288.15	0	0.1995	1010.201	0.773
298.15	0	0	997.052	0.429
298.15	0	0.01033	997.627	0.422
298.15	0	0.02031	998.133	0.427
298.15	0	0.04035	999.259	0.443
298.15	0	0.06012	1000.386	0.468
298.15	0	0.0802	1001.507	0.499
298.15	0	0.10106	1002.624	0.542
298.15	0	0.15021	1005.272	0.648
298.15	0	0.1995	1007.941	0.72
308.15	0	0	994.047	0.427
308.15	0	0.01033	994.594	0.421
308.15	0	0.02031	995.135	0.426
308.15	0	0.04035	996.28	0.441
308.15	0	0.06012	997.363	0.465
308.15	0	0.0802	998.463	0.494
308.15	0	0.10106	999.564	0.537
308.15	0	0.15021	1002.179	0.64
308.15	0	0.1995	1004.796	0.704
318.15	0	0	990.216	0.421
318.15	0	0.01033	990.758	0.419
318.15	0	0.02031	991.281	0.423
318.15	0	0.04035	992.375	0.438
318.15	0	0.06012	993.41	0.462
318.15	0	0.0802	994.52	0.495
318.15	0	0.10106	995.646	0.526
318.15	0	0.15021	998.186	0.626
318.15	0	0.1995	1000.715	0.745
288.15	0.0005	0	999.273	0.425
288.15	0.0005	0.01077	999.863	0.423
288.15	0.0005	0.02007	1000.368	0.428
288.15	0.0005	0.03993	1001.543	0.445
288.15	0.0005	0.05996	1002.662	0.471
288.15	0.0005	0.07998	1003.822	0.504
288.15	0.0005	0.09961	1004.894	0.539
288.15	0.0005	0.14993	1007.664	0.658
288.15	0.0005	0.19954	1010.42	0.787
298.15	0.0005	0	997.209	0.427
298.15	0.0005	0.01077	997.81	0.422
298.15	0.0005	0.02007	998.285	0.427
298.15	0.0005	0.03993	999.417	0.442
298.15	0.0005	0.05996	1000.522	0.468
298.15	0.0005	0.07998	1001.66	0.501
298.15	0.0005	0.09961	1002.731	0.54
298.15	0.0005	0.14993	1005.449	0.649
298.15	0.0005	0.19954	1008.152	0.746
308.15	0.0005	0	994.205	0.424
308.15	0.0005	0.01077	994.749	0.421
308.15	0.0005	0.02007	995.259	0.426
308.15	0.0005	0.03993	996.435	0.441
308.15	0.0005	0.05996	997.504	0.465
308.15	0.0005	0.07998	998.638	0.495
308.15	0.0005	0.09961	999.654	0.532
308.15	0.0005	0.14993	1002.324	0.641
308.15	0.0005	0.19954	1004.993	0.734
318.15	0.0005	0	990.372	0.421
318.15	0.0005	0.01077	990.91	0.419
318.15	0.0005	0.02007	991.406	0.423
318.15	0.0005	0.03993	992.504	0.439
318.15	0.0005	0.05996	993.58	0.463
318.15	0.0005	0.07998	994.695	0.493
318.15	0.0005	0.09961	995.713	0.525
318.15	0.0005	0.14993	998.369	0.63
318.15	0.0005	0.19954	1000.923	0.748
288.15	0.001	0	999.429	0.425
288.15	0.001	0.01036	999.999	0.423
288.15	0.001	0.01987	1000.503	0.428
288.15	0.001	0.04023	1001.699	0.445
288.15	0.001	0.06047	1002.825	0.474
288.15	0.001	0.07994	1003.988	0.505
288.15	0.001	0.10108	1005.114	0.546
288.15	0.001	0.15014	1007.884	0.657
288.15	0.001	0.19894	1010.504	0.773
298.15	0.001	0	997.363	0.427
298.15	0.001	0.01036	997.911	0.422
298.15	0.001	0.01987	998.445	0.427
298.15	0.001	0.04023	999.568	0.442
298.15	0.001	0.06047	1000.705	0.469
298.15	0.001	0.07994	1001.811	0.5
298.15	0.001	0.10108	1002.936	0.541
298.15	0.001	0.15014	1005.592	0.655
298.15	0.001	0.19894	1008.328	0.746
308.15	0.001	0	994.356	0.425
308.15	0.001	0.01036	994.88	0.421
308.15	0.001	0.01987	995.41	0.426
308.15	0.001	0.04023	996.559	0.441
308.15	0.001	0.06047	997.672	0.466
308.15	0.001	0.07994	998.771	0.497
308.15	0.001	0.10108	999.9	0.536
308.15	0.001	0.15014	1002.501	0.64
308.15	0.001	0.19894	1005.102	0.733
318.15	0.001	0	990.522	0.421
318.15	0.001	0.01036	991.045	0.419
318.15	0.001	0.01987	991.537	0.423
318.15	0.001	0.04023	992.654	0.439
318.15	0.001	0.06047	993.728	0.465
318.15	0.001	0.07994	994.848	0.493
318.15	0.001	0.10108	995.927	0.528
318.15	0.001	0.15014	998.525	0.637
318.15	0.001	0.19894	1001.113	0.747
288.15	0.002	0	999.643	0.425
288.15	0.002	0.01043	1000.199	0.423
288.15	0.002	0.02009	1000.74	0.428
288.15	0.002	0.0406	1001.873	0.446
288.15	0.002	0.06048	1003.047	0.474
288.15	0.002	0.08104	1004.21	0.506
288.15	0.002	0.09984	1005.253	0.544
288.15	0.002	0.1499	1008.053	0.657
288.15	0.002	0.20329	1010.953	0.785
298.15	0.002	0	997.576	0.427
298.15	0.002	0.01043	998.119	0.422
298.15	0.002	0.02009	998.627	0.427
298.15	0.002	0.0406	999.76	0.443
298.15	0.002	0.06048	1000.858	0.468
298.15	0.002	0.08104	1002	0.501
298.15	0.002	0.09984	1003.043	0.544
298.15	0.002	0.1499	1005.789	0.649
298.15	0.002	0.20329	1008.633	0.74
308.15	0.002	0	994.56	0.426
308.15	0.002	0.01043	995.089	0.421
308.15	0.002	0.02009	995.647	0.426
308.15	0.002	0.0406	996.701	0.441
308.15	0.002	0.06048	997.855	0.467
308.15	0.002	0.08104	998.939	0.492
308.15	0.002	0.09984	999.935	0.538
308.15	0.002	0.1499	1002.674	0.64
308.15	0.002	0.20329	1005.433	0.727
318.15	0.002	0	990.713	0.421
318.15	0.002	0.01043	991.219	0.42
318.15	0.002	0.02009	991.731	0.423
318.15	0.002	0.0406	992.812	0.439
318.15	0.002	0.06048	993.897	0.463
318.15	0.002	0.08104	995.004	0.496
318.15	0.002	0.09984	996.042	0.529
318.15	0.002	0.1499	998.704	0.632
318.15	0.002	0.20329	1001.457	0.759
288.15	0.004	0	999.922	0.426
288.15	0.004	0.01061	1000.466	0.425
288.15	0.004	0.01993	1000.982	0.429
288.15	0.004	0.03983	1002.102	0.446
288.15	0.004	0.06003	1003.234	0.472
288.15	0.004	0.07997	1004.368	0.507
288.15	0.004	0.1	1005.502	0.544
288.15	0.004	0.14999	1008.274	0.657
288.15	0.004	0.19852	1010.927	0.783
298.15	0.004	0	997.847	0.428
298.15	0.004	0.01061	998.388	0.422
298.15	0.004	0.01993	998.873	0.427
298.15	0.004	0.03983	999.983	0.442
298.15	0.004	0.06003	1001.093	0.467
298.15	0.004	0.07997	1002.205	0.502
298.15	0.004	0.1	1003.327	0.544
298.15	0.004	0.14999	1006.034	0.646
298.15	0.004	0.19852	1008.625	0.713
308.15	0.004	0	994.831	0.426
308.15	0.004	0.01061	995.366	0.421
308.15	0.004	0.01993	995.862	0.426
308.15	0.004	0.03983	996.965	0.44
308.15	0.004	0.06003	998.06	0.464
308.15	0.004	0.07997	999.157	0.497
308.15	0.004	0.1	1000.255	0.538
308.15	0.004	0.14999	1002.917	0.64
308.15	0.004	0.19852	1005.494	0.705
318.15	0.004	0	990.992	0.422
318.15	0.004	0.01061	991.518	0.421
318.15	0.004	0.01993	991.979	0.424
318.15	0.004	0.03983	993.026	0.439
318.15	0.004	0.06003	994.112	0.463
318.15	0.004	0.07997	995.199	0.495
318.15	0.004	0.1	996.286	0.528
318.15	0.004	0.14999	998.923	0.635
318.15	0.004	0.19852	1001.477	0.757

System: [R-(R*,R*)]-2,2-dichloro-N-[2-hydroxy-1-(hydroxymethyl)-2-(4-nitrophenyl)ethyl]ethanamide + glycylglycine + water; phases: Liquid
Fixed: Pressure, kPa = 100
Fixed: Frequency, MHz = 3
Property: Speed of sound, m/s (Liquid); method: Sing-around technique in a fixed-path interferometer
Temperature, K	Solvent: Molality, mol/kg of [R-(R*,R*)]-2,2-dichloro-N-[2-hydroxy-1-(hydroxymethyl)-2-(4-nitrophenyl)ethyl]ethanamide	Molality, mol/kg of glycylglycine	Speed of sound, m/s	uncertainty
288.15	0	0	1466.73	1.85
288.15	0	0.01033	1467.7	1.85
288.15	0	0.02031	1468.64	1.85
288.15	0	0.04035	1470.53	1.86
288.15	0	0.06012	1472.4	1.88
288.15	0	0.0802	1474.29	1.9
288.15	0	0.10106	1476.26	1.93
288.15	0	0.15021	1480.89	2.03
288.15	0	0.1995	1485.54	2.17
298.15	0	0	1495.87	1.85
298.15	0	0.01033	1496.8	1.85
298.15	0	0.02031	1497.7	1.86
298.15	0	0.04035	1499.5	1.86
298.15	0	0.06012	1501.28	1.88
298.15	0	0.0802	1503.08	1.9
298.15	0	0.10106	1504.96	1.95
298.15	0	0.15021	1509.38	2.02
298.15	0	0.1995	1513.81	1.94
308.15	0	0	1519.5	1.85
308.15	0	0.01033	1520.34	1.85
308.15	0	0.02031	1521.16	1.86
308.15	0	0.04035	1522.79	1.86
308.15	0	0.06012	1524.4	1.88
308.15	0	0.0802	1526.04	1.9
308.15	0	0.10106	1527.74	1.94
308.15	0	0.15021	1531.75	1.99
308.15	0	0.1995	1535.77	1.92
318.15	0	0	1536.12	1.85
318.15	0	0.01033	1536.93	1.86
318.15	0	0.02031	1537.71	1.86
318.15	0	0.04035	1539.28	1.86
318.15	0	0.06012	1540.83	1.88
318.15	0	0.0802	1542.41	1.89
318.15	0	0.10106	1544.05	1.92
318.15	0	0.15021	1547.9	1.99
318.15	0	0.1995	1551.77	2.08
288.15	0.0005	0	1466.86	1.85
288.15	0.0005	0.01077	1467.88	1.85
288.15	0.0005	0.02007	1468.75	1.85
288.15	0.0005	0.03993	1470.62	1.86
288.15	0.0005	0.05996	1472.51	1.88
288.15	0.0005	0.07998	1474.4	1.9
288.15	0.0005	0.09961	1476.25	1.93
288.15	0.0005	0.14993	1480.99	2.03
288.15	0.0005	0.19954	1485.67	2.17
298.15	0.0005	0	1496.01	1.85
298.15	0.0005	0.01077	1496.98	1.85
298.15	0.0005	0.02007	1497.82	1.85
298.15	0.0005	0.03993	1499.6	1.86
298.15	0.0005	0.05996	1501.4	1.88
298.15	0.0005	0.07998	1503.2	1.9
298.15	0.0005	0.09961	1504.97	1.95
298.15	0.0005	0.14993	1509.5	2.02
298.15	0.0005	0.19954	1513.96	2
308.15	0.0005	0	1519.61	1.85
308.15	0.0005	0.01077	1520.49	1.85
308.15	0.0005	0.02007	1521.25	1.86
308.15	0.0005	0.03993	1522.87	1.86
308.15	0.0005	0.05996	1524.5	1.88
308.15	0.0005	0.07998	1526.13	1.89
308.15	0.0005	0.09961	1527.73	1.93
308.15	0.0005	0.14993	1531.84	1.99
308.15	0.0005	0.19954	1535.88	1.98
318.15	0.0005	0	1536.25	1.85
318.15	0.0005	0.01077	1537.09	1.86
318.15	0.0005	0.02007	1537.82	1.86
318.15	0.0005	0.03993	1539.38	1.86
318.15	0.0005	0.05996	1540.95	1.88
318.15	0.0005	0.07998	1542.52	1.89
318.15	0.0005	0.09961	1544.06	1.91
318.15	0.0005	0.14993	1548.01	1.99
318.15	0.0005	0.19954	1551.9	2.08
288.15	0.001	0	1466.98	1.85
288.15	0.001	0.01036	1467.96	1.85
288.15	0.001	0.01987	1468.85	1.85
288.15	0.001	0.04023	1470.77	1.86
288.15	0.001	0.06047	1472.68	1.88
288.15	0.001	0.07994	1474.52	1.9
288.15	0.001	0.10108	1476.51	1.93
288.15	0.001	0.15014	1481.13	2.03
288.15	0.001	0.19894	1485.73	2.16
298.15	0.001	0	1496.13	1.85
298.15	0.001	0.01036	1497.06	1.85
298.15	0.001	0.01987	1497.92	1.85
298.15	0.001	0.04023	1499.75	1.86
298.15	0.001	0.06047	1501.57	1.88
298.15	0.001	0.07994	1503.32	1.9
298.15	0.001	0.10108	1505.22	1.94
298.15	0.001	0.15014	1509.63	2.02
298.15	0.001	0.19894	1514.02	2.01
308.15	0.001	0	1519.73	1.85
308.15	0.001	0.01036	1520.57	1.85
308.15	0.001	0.01987	1521.35	1.86
308.15	0.001	0.04023	1523.01	1.86
308.15	0.001	0.06047	1524.66	1.88
308.15	0.001	0.07994	1526.25	1.9
308.15	0.001	0.10108	1527.97	1.93
308.15	0.001	0.15014	1531.98	1.99
308.15	0.001	0.19894	1535.96	1.98
318.15	0.001	0	1536.38	1.85
318.15	0.001	0.01036	1537.19	1.86
318.15	0.001	0.01987	1537.94	1.86
318.15	0.001	0.04023	1539.53	1.86
318.15	0.001	0.06047	1541.12	1.88
318.15	0.001	0.07994	1542.65	1.89
318.15	0.001	0.10108	1544.31	1.92
318.15	0.001	0.15014	1548.15	1.99
318.15	0.001	0.19894	1551.98	2.08
288.15	0.002	0	1467.12	1.85
288.15	0.002	0.01043	1468.11	1.85
288.15	0.002	0.02009	1469.02	1.85
288.15	0.002	0.0406	1470.96	1.86
288.15	0.002	0.06048	1472.84	1.88
288.15	0.002	0.08104	1474.78	1.9
288.15	0.002	0.09984	1476.56	1.93
288.15	0.002	0.1499	1481.3	2.03
288.15	0.002	0.20329	1486.35	2.18
298.15	0.002	0	1496.25	1.85
298.15	0.002	0.01043	1497.19	1.85
298.15	0.002	0.02009	1498.06	1.86
298.15	0.002	0.0406	1499.9	1.86
298.15	0.002	0.06048	1501.69	1.88
298.15	0.002	0.08104	1503.54	1.9
298.15	0.002	0.09984	1505.23	1.95
298.15	0.002	0.1499	1509.73	2.02
298.15	0.002	0.20329	1514.54	1.99
308.15	0.002	0	1519.86	1.85
308.15	0.002	0.01043	1520.71	1.85
308.15	0.002	0.02009	1521.5	1.86
308.15	0.002	0.0406	1523.17	1.86
308.15	0.002	0.06048	1524.79	1.88
308.15	0.002	0.08104	1526.47	1.89
308.15	0.002	0.09984	1528	1.94
308.15	0.002	0.1499	1532.09	2
308.15	0.002	0.20329	1536.44	1.97
318.15	0.002	0	1536.51	1.85
318.15	0.002	0.01043	1537.33	1.86
318.15	0.002	0.02009	1538.09	1.86
318.15	0.002	0.0406	1539.69	1.86
318.15	0.002	0.06048	1541.25	1.88
318.15	0.002	0.08104	1542.87	1.89
318.15	0.002	0.09984	1544.34	1.91
318.15	0.002	0.1499	1548.27	1.99
318.15	0.002	0.20329	1552.45	2.09
288.15	0.004	0	1467.48	1.85
288.15	0.004	0.01061	1468.49	1.85
288.15	0.004	0.01993	1469.37	1.85
288.15	0.004	0.03983	1471.26	1.86
288.15	0.004	0.06003	1473.18	1.88
288.15	0.004	0.07997	1475.08	1.9
288.15	0.004	0.1	1476.98	1.93
288.15	0.004	0.14999	1481.73	2.04
288.15	0.004	0.19852	1486.33	2.17
298.15	0.004	0	1496.66	1.86
298.15	0.004	0.01061	1497.61	1.85
298.15	0.004	0.01993	1498.45	1.86
298.15	0.004	0.03983	1500.24	1.87
298.15	0.004	0.06003	1502.06	1.88
298.15	0.004	0.07997	1503.85	1.9
298.15	0.004	0.1	1505.65	1.95
298.15	0.004	0.14999	1510.15	2.02
298.15	0.004	0.19852	1514.52	1.95
308.15	0.004	0	1520.21	1.87
308.15	0.004	0.01061	1521.08	1.86
308.15	0.004	0.01993	1521.84	1.86
308.15	0.004	0.03983	1523.46	1.87
308.15	0.004	0.06003	1525.11	1.88
308.15	0.004	0.07997	1526.73	1.9
308.15	0.004	0.1	1528.37	1.94
308.15	0.004	0.14999	1532.44	2
308.15	0.004	0.19852	1536.4	1.93
318.15	0.004	0	1536.82	1.86
318.15	0.004	0.01061	1537.65	1.86
318.15	0.004	0.01993	1538.38	1.86
318.15	0.004	0.03983	1539.94	1.86
318.15	0.004	0.06003	1541.53	1.88
318.15	0.004	0.07997	1543.09	1.89
318.15	0.004	0.1	1544.66	1.91
318.15	0.004	0.14999	1548.58	1.99
318.15	0.004	0.19852	1552.39	2.08

System: 2-aminoacetic acid + water; phases: Liquid
Fixed: Pressure, kPa = 100
Property: Mass density, kg/m3 (Liquid); method: Vibrating tube method
Temperature, K	Molality, mol/kg of 2-aminoacetic acid	Mass density, kg/m3	uncertainty
288.15	0.01095	999.494	0.422
288.15	0.02116	999.815	0.423
288.15	0.04014	1000.409	0.429
288.15	0.06033	1001.052	0.438
288.15	0.08023	1001.695	0.451
288.15	0.10056	1002.355	0.467
288.15	0.15005	1003.958	0.515
288.15	0.20029	1005.567	0.576
298.15	0.01095	997.428	0.421
298.15	0.02116	997.724	0.423
298.15	0.04014	998.287	0.427
298.15	0.06033	998.921	0.436
298.15	0.08023	999.548	0.447
298.15	0.10056	1000.172	0.467
298.15	0.15005	1001.726	0.508
298.15	0.20029	1003.277	0.525
308.15	0.01095	994.433	0.42
308.15	0.02116	994.686	0.421
308.15	0.04014	995.236	0.426
308.15	0.06033	995.832	0.434
308.15	0.08023	996.477	0.448
308.15	0.10056	997.123	0.464
308.15	0.15005	998.64	0.504
308.15	0.20029	1000.199	0.518
318.15	0.01095	990.57	0.418
318.15	0.02116	990.869	0.42
318.15	0.04014	991.411	0.424
318.15	0.06033	991.989	0.432
318.15	0.08023	992.6	0.445
318.15	0.10056	993.251	0.455
318.15	0.15005	994.665	0.497
318.15	0.20029	996.211	0.56

System: 2-aminoacetic acid + water; phases: Liquid
Fixed: Pressure, kPa = 100
Fixed: Frequency, MHz = 3
Property: Speed of sound, m/s (Liquid); method: Sing-around technique in a fixed-path interferometer
Temperature, K	Molality, mol/kg of 2-aminoacetic acid	Speed of sound, m/s	uncertainty
288.15	0.01095	1467.35	1.85
288.15	0.02116	1467.92	1.85
288.15	0.04014	1468.99	1.85
288.15	0.06033	1470.13	1.86
288.15	0.08023	1471.25	1.87
288.15	0.10056	1472.39	1.88
288.15	0.15005	1475.18	1.92
288.15	0.20029	1478	1.97
298.15	0.01095	1496.45	1.85
298.15	0.02116	1496.98	1.85
298.15	0.04014	1497.98	1.85
298.15	0.06033	1499.04	1.86
298.15	0.08023	1500.09	1.87
298.15	0.10056	1501.15	1.89
298.15	0.15005	1503.76	1.91
298.15	0.20029	1506.4	1.86
308.15	0.01095	1520.05	1.85
308.15	0.02116	1520.56	1.86
308.15	0.04014	1521.5	1.86
308.15	0.06033	1522.51	1.86
308.15	0.08023	1523.5	1.87
308.15	0.10056	1524.52	1.89
308.15	0.15005	1526.98	1.91
308.15	0.20029	1529.49	1.85
318.15	0.01095	1536.64	1.85
318.15	0.02116	1537.13	1.86
318.15	0.04014	1538.04	1.86
318.15	0.06033	1539	1.86
318.15	0.08023	1539.96	1.87
318.15	0.10056	1540.93	1.88
318.15	0.15005	1543.29	1.9
318.15	0.20029	1545.7	1.94

System: [R-(R*,R*)]-2,2-dichloro-N-[2-hydroxy-1-(hydroxymethyl)-2-(4-nitrophenyl)ethyl]ethanamide + water; phases: Liquid
Fixed: Pressure, kPa = 100
Property: Mass density, kg/m3 (Liquid); method: Vibrating tube method
Temperature, K	Molality, mol/kg of [R-(R*,R*)]-2,2-dichloro-N-[2-hydroxy-1-(hydroxymethyl)-2-(4-nitrophenyl)ethyl]ethanamide	Mass density, kg/m3	uncertainty
288.15	0.0005	999.273	0.422
298.15	0.0005	997.209	0.423
308.15	0.0005	994.205	0.422
318.15	0.0005	990.372	0.419
288.15	0.001	999.429	0.422
298.15	0.001	997.363	0.423
308.15	0.001	994.356	0.422
318.15	0.001	990.522	0.419
288.15	0.002	999.643	0.423
298.15	0.002	997.576	0.424
308.15	0.002	994.56	0.422
318.15	0.002	990.713	0.419
288.15	0.004	999.922	0.423
298.15	0.004	997.847	0.423
308.15	0.004	994.831	0.422
318.15	0.004	990.992	0.42

System: [R-(R*,R*)]-2,2-dichloro-N-[2-hydroxy-1-(hydroxymethyl)-2-(4-nitrophenyl)ethyl]ethanamide + water; phases: Liquid
Fixed: Pressure, kPa = 100
Fixed: Frequency, MHz = 3
Property: Speed of sound, m/s (Liquid); method: Sing-around technique in a fixed-path interferometer
Temperature, K	Molality, mol/kg of [R-(R*,R*)]-2,2-dichloro-N-[2-hydroxy-1-(hydroxymethyl)-2-(4-nitrophenyl)ethyl]ethanamide	Speed of sound, m/s	uncertainty
288.15	0.0005	1466.86	1.85
298.15	0.0005	1496.01	1.85
308.15	0.0005	1519.61	1.85
318.15	0.0005	1536.25	1.85
288.15	0.001	1466.98	1.85
298.15	0.001	1496.13	1.85
308.15	0.001	1519.73	1.85
318.15	0.001	1536.38	1.85
288.15	0.002	1467.12	1.85
298.15	0.002	1496.25	1.85
308.15	0.002	1519.86	1.85
318.15	0.002	1536.51	1.85
288.15	0.004	1467.48	1.85
298.15	0.004	1496.66	1.86
308.15	0.004	1520.21	1.87
318.15	0.004	1536.82	1.86

System: glycylglycine + water; phases: Liquid
Fixed: Pressure, kPa = 100
Property: Mass density, kg/m3 (Liquid); method: Vibrating tube method
Temperature, K	Molality, mol/kg of glycylglycine	Mass density, kg/m3	uncertainty
288.15	0.01033	999.704	0.423
288.15	0.02031	1000.231	0.427
288.15	0.04035	1001.396	0.445
288.15	0.06012	1002.497	0.473
288.15	0.0802	1003.695	0.507
288.15	0.10106	1004.843	0.543
288.15	0.15021	1007.567	0.653
288.15	0.1995	1010.201	0.773
298.15	0.01033	997.627	0.422
298.15	0.02031	998.133	0.427
298.15	0.04035	999.259	0.443
298.15	0.06012	1000.386	0.468
298.15	0.0802	1001.507	0.499
298.15	0.10106	1002.624	0.542
298.15	0.15021	1005.272	0.648
298.15	0.1995	1007.941	0.72
308.15	0.01033	994.594	0.421
308.15	0.02031	995.135	0.426
308.15	0.04035	996.28	0.441
308.15	0.06012	997.363	0.465
308.15	0.0802	998.463	0.494
308.15	0.10106	999.564	0.537
308.15	0.15021	1002.179	0.64
308.15	0.1995	1004.796	0.704
318.15	0.01033	990.758	0.419
318.15	0.02031	991.281	0.423
318.15	0.04035	992.375	0.438
318.15	0.06012	993.41	0.462
318.15	0.0802	994.52	0.495
318.15	0.10106	995.646	0.526
318.15	0.15021	998.186	0.626
318.15	0.1995	1000.715	0.745

System: glycylglycine + water; phases: Liquid
Fixed: Pressure, kPa = 100
Fixed: Frequency, MHz = 3
Property: Speed of sound, m/s (Liquid); method: Sing-around technique in a fixed-path interferometer
Temperature, K	Molality, mol/kg of glycylglycine	Speed of sound, m/s	uncertainty
288.15	0.01033	1467.7	1.85
288.15	0.02031	1468.64	1.85
288.15	0.04035	1470.53	1.86
288.15	0.06012	1472.4	1.88
288.15	0.0802	1474.29	1.9
288.15	0.10106	1476.26	1.93
288.15	0.15021	1480.89	2.03
288.15	0.1995	1485.54	2.17
298.15	0.01033	1496.8	1.85
298.15	0.02031	1497.7	1.86
298.15	0.04035	1499.5	1.86
298.15	0.06012	1501.28	1.88
298.15	0.0802	1503.08	1.9
298.15	0.10106	1504.96	1.95
298.15	0.15021	1509.38	2.02
298.15	0.1995	1513.81	1.94
308.15	0.01033	1520.34	1.85
308.15	0.02031	1521.16	1.86
308.15	0.04035	1522.79	1.86
308.15	0.06012	1524.4	1.88
308.15	0.0802	1526.04	1.9
308.15	0.10106	1527.74	1.94
308.15	0.15021	1531.75	1.99
308.15	0.1995	1535.77	1.92
318.15	0.01033	1536.93	1.86
318.15	0.02031	1537.71	1.86
318.15	0.04035	1539.28	1.86
318.15	0.06012	1540.83	1.88
318.15	0.0802	1542.41	1.89
318.15	0.10106	1544.05	1.92
318.15	0.15021	1547.9	1.99
318.15	0.1995	1551.77	2.08
