Measured thermophysical data. Volumetric and viscometric studies of glucose in binary aqueous solutions of urea at different temperatures
Source: J. Chem. Thermodyn., 2010, 10.1016/j.jct.2010.04.012
Compound 1: D-glucose, C6H12O6, InChI=1S/C6H12O6/c7-1-3(9)5(11)6(12)4(10)2-8/h1,3-6,8-12H,2H2/t3-,4+,5+,6+/m0/s1, purity 99%
Compound 2: urea, CH4N2O, InChI=1S/CH4N2O/c2-1(3)4/h(H4,2,3,4), purity 99%
Compound 3: water, H2O, InChI=1S/H2O/h1H2, purity 99.9%

System: D-glucose + urea + water; phases: Liquid
Fixed: Pressure, kPa = 101
Property: Viscosity, Pa*s (Liquid); method: CAPTUB:UFactor:2
Temperature, K	Molality, mol/kg of D-glucose	Solvent: Mass fraction of urea	Viscosity, Pa*s	uncertainty
298.15	0	0.01	0.0008934	1.18e-05
298.15	0	0.025	0.0009077	1.2e-05
298.15	0	0.05	0.0009321	1.22e-05
298.15	0.05	0.01	0.0009171	1.2e-05
298.15	0.05	0.025	0.0009175	1.21e-05
298.15	0.0525	0.05	0.0009485	1.25e-05
298.15	0.1	0.01	0.0009328	1.22e-05
298.15	0.1	0.025	0.0009438	1.24e-05
298.15	0.1	0.05	0.0009712	1.27e-05
298.15	0.15	0.01	0.0009607	1.25e-05
298.15	0.15	0.05	0.0009935	1.3e-05
298.15	0.1503	0.025	0.0009663	1.27e-05
298.15	0.2	0.05	0.0010164	1.32e-05
298.15	0.2001	0.025	0.0010024	1.3e-05
298.15	0.2005	0.01	0.0009788	1.28e-05
298.15	0.25	0.05	0.0010381	1.35e-05
298.15	0.2501	0.01	0.0010075	1.31e-05
298.15	0.2501	0.025	0.0010159	1.32e-05
298.15	0.3	0.05	0.0010618	1.37e-05
298.15	0.3001	0.01	0.0010356	1.34e-05
298.15	0.3009	0.025	0.001039	1.34e-05
303.15	0	0.01	0.0008059	1.08e-05
303.15	0	0.025	0.0008169	1.09e-05
303.15	0	0.05	0.0008376	1.12e-05
303.15	0.05	0.01	0.0008272	1.1e-05
303.15	0.05	0.025	0.000833	1.11e-05
303.15	0.0525	0.05	0.0008564	1.14e-05
303.15	0.1	0.01	0.0008436	1.12e-05
303.15	0.1	0.025	0.0008476	1.13e-05
303.15	0.1	0.05	0.0008727	1.16e-05
303.15	0.15	0.01	0.000863	1.14e-05
303.15	0.15	0.05	0.000894	1.19e-05
303.15	0.1503	0.025	0.000864	1.15e-05
303.15	0.2	0.05	0.0009175	1.21e-05
303.15	0.2001	0.025	0.0009036	1.19e-05
303.15	0.2005	0.01	0.0008862	1.18e-05
303.15	0.25	0.05	0.0009306	1.22e-05
303.15	0.2501	0.01	0.0008991	1.19e-05
303.15	0.2501	0.025	0.0009107	1.2e-05
303.15	0.3	0.05	0.0009602	1.26e-05
303.15	0.3001	0.01	0.000919	1.21e-05
303.15	0.3009	0.025	0.0009391	1.24e-05
308.15	0	0.01	0.0007234	9.9e-06
308.15	0	0.025	0.0007333	1e-05
308.15	0	0.05	0.0007576	1.03e-05
308.15	0.05	0.01	0.0007406	1.01e-05
308.15	0.05	0.025	0.0007481	1.02e-05
308.15	0.0525	0.05	0.0007696	1.04e-05
308.15	0.1	0.01	0.0007592	1.02e-05
308.15	0.1	0.025	0.0007658	1.03e-05
308.15	0.1	0.05	0.000788	1.06e-05
308.15	0.15	0.01	0.0007754	1.04e-05
308.15	0.15	0.05	0.0008069	1.08e-05
308.15	0.1503	0.025	0.0007814	1.05e-05
308.15	0.2	0.05	0.0008254	1.1e-05
308.15	0.2001	0.025	0.0008146	1.09e-05
308.15	0.2005	0.01	0.0007928	1.07e-05
308.15	0.25	0.05	0.0008446	1.12e-05
308.15	0.2501	0.01	0.0008093	1.08e-05
308.15	0.2501	0.025	0.0008195	1.1e-05
308.15	0.3	0.05	0.0008608	1.15e-05
308.15	0.3001	0.01	0.0008296	1.11e-05
308.15	0.3009	0.025	0.0008378	1.12e-05
313.15	0	0.01	0.0006592	9.3e-06
313.15	0	0.025	0.0006659	9.3e-06
313.15	0	0.05	0.0006869	9.6e-06
313.15	0.05	0.01	0.0006729	9.4e-06
313.15	0.05	0.025	0.0006791	9.5e-06
313.15	0.0525	0.05	0.0007011	9.7e-06
313.15	0.1	0.01	0.0006851	9.5e-06
313.15	0.1	0.025	0.0006921	9.6e-06
313.15	0.1	0.05	0.0007124	9.8e-06
313.15	0.15	0.01	0.0007004	9.7e-06
313.15	0.15	0.05	0.0007291	1e-05
313.15	0.1503	0.025	0.0007105	9.8e-06
313.15	0.2	0.05	0.0007442	1.01e-05
313.15	0.2001	0.025	0.0007335	1e-05
313.15	0.2005	0.01	0.0007174	9.9e-06
313.15	0.25	0.05	0.0007645	1.03e-05
313.15	0.2501	0.01	0.0007336	1e-05
313.15	0.2501	0.025	0.0007372	1e-05
313.15	0.3	0.05	0.0007787	1.05e-05
313.15	0.3001	0.01	0.0007457	1.02e-05
313.15	0.3009	0.025	0.0007596	1.03e-05

System: D-glucose + urea + water; phases: Liquid
Fixed: Pressure, kPa = 101
Property: Mass density, kg/m3 (Liquid); method: PYCNOM:UFactor:4
Temperature, K	Molality, mol/kg of D-glucose	Solvent: Mass fraction of urea	Mass density, kg/m3	uncertainty
298.15	0	0.01	999.9	1.2
298.15	0	0.025	1005.8	1.1
298.15	0	0.05	1011	1.1
298.15	0.05	0.01	1005.7	1.1
298.15	0.05	0.025	1007.8	1.1
298.15	0.0525	0.05	1013.5	1.1
298.15	0.1	0.01	1007.9	1.1
298.15	0.1	0.025	1010.8	1.1
298.15	0.1	0.05	1016.2	1.1
298.15	0.15	0.01	1010.7	1.1
298.15	0.15	0.05	1019.2	1.1
298.15	0.1503	0.025	1013.4	1.1
298.15	0.2	0.05	1022.3	1.1
298.15	0.2001	0.025	1016.2	1.1
298.15	0.2005	0.01	1013.5	1.1
298.15	0.25	0.05	1025.4	1.1
298.15	0.2501	0.01	1016.6	1.1
298.15	0.2501	0.025	1019.2	1.1
298.15	0.3	0.05	1028.8	1.1
298.15	0.3001	0.01	1019.4	1.2
298.15	0.3009	0.025	1024.7	1.1
303.15	0	0.01	998.1	1.2
303.15	0	0.025	1003.8	1.2
303.15	0	0.05	1009.2	1.2
303.15	0.05	0.01	1004.3	1.1
303.15	0.05	0.025	1006.2	1.1
303.15	0.0525	0.05	1011	1.2
303.15	0.1	0.01	1006.3	1.1
303.15	0.1	0.025	1008.7	1.1
303.15	0.1	0.05	1013	1.2
303.15	0.15	0.01	1009	1.1
303.15	0.15	0.05	1016.4	1.2
303.15	0.1503	0.025	1011.5	1.2
303.15	0.2	0.05	1020.8	1.2
303.15	0.2001	0.025	1014.3	1.2
303.15	0.2005	0.01	1011.8	1.2
303.15	0.25	0.05	1024	1.2
303.15	0.2501	0.01	1014.7	1.2
303.15	0.2501	0.025	1017.3	1.2
303.15	0.3	0.05	1027.6	1.2
303.15	0.3001	0.01	1017.1	1.2
303.15	0.3009	0.025	1023	1.2
308.15	0	0.01	996.3	1.2
308.15	0	0.025	1002.3	1.2
308.15	0	0.05	1007.4	1.2
308.15	0.05	0.01	1002.2	1.2
308.15	0.05	0.025	1004.6	1.2
308.15	0.0525	0.05	1009.5	1.2
308.15	0.1	0.01	1004.7	1.2
308.15	0.1	0.025	1007.3	1.2
308.15	0.1	0.05	1012	1.2
308.15	0.15	0.01	1007.1	1.2
308.15	0.15	0.05	1015.3	1.2
308.15	0.1503	0.025	1009.9	1.2
308.15	0.2	0.05	1019.3	1.2
308.15	0.2001	0.025	1012.8	1.2
308.15	0.2005	0.01	1009.8	1.2
308.15	0.25	0.05	1023.1	1.2
308.15	0.2501	0.01	1012.6	1.2
308.15	0.2501	0.025	1015.5	1.2
308.15	0.3	0.05	1026	1.2
308.15	0.3001	0.01	1015.5	1.3
308.15	0.3009	0.025	1021.2	1.2
313.15	0	0.01	993.4	1.3
313.15	0	0.025	999.8	1.3
313.15	0	0.05	1004.5	1.2
313.15	0.05	0.01	999.4	1.2
313.15	0.05	0.025	1002	1.2
313.15	0.0525	0.05	1007	1.2
313.15	0.1	0.01	1001.8	1.2
313.15	0.1	0.025	1004.5	1.2
313.15	0.1	0.05	1009.7	1.2
313.15	0.15	0.01	1004.1	1.2
313.15	0.15	0.05	1012.1	1.3
313.15	0.1503	0.025	1007.1	1.2
313.15	0.2	0.05	1017	1.3
313.15	0.2001	0.025	1009.7	1.3
313.15	0.2005	0.01	1006.6	1.2
313.15	0.25	0.05	1020.4	1.3
313.15	0.2501	0.01	1009.4	1.2
313.15	0.2501	0.025	1012.3	1.3
313.15	0.3	0.05	1023.8	1.3
313.15	0.3001	0.01	1011.6	1.3
313.15	0.3009	0.025	1018.7	1.3
