Measured thermophysical data. Temperature dependence of the volumetric and acoustic behaviour of aqueous mixtures of monosaccharides and trilithium citrate
Source: J. Chem. Thermodyn., 2017, 10.1016/j.jct.2017.05.032
Compound 1: D-ribose, C5H10O5, InChI=1S/C5H10O5/c6-1-3(8)5(10)4(9)2-7/h1,3-5,7-10H,2H2/t3-,4+,5-/m0/s1, purity 99%
Compound 2: D-xylose, C5H10O5, InChI=1S/C5H10O5/c6-1-3(8)5(10)4(9)2-7/h1,3-5,7-10H,2H2/t3-,4+,5+/m0/s1, purity 99%
Compound 3: trilithium citrate, C6H5Li3O7, InChI=1S/C6H8O7.3Li/c7-3(8)1-6(13,5(11)12)2-4(9)10;;;/h13H,1-2H2,(H,7,8)(H,9,10)(H,11,12);;;/q;3*+1/p-3, purity 98.5%
Compound 4: water, H2O, InChI=1S/H2O/h1H2

System: D-ribose + trilithium citrate + water; phases: Liquid
Fixed: Pressure, kPa = 100
Fixed: Frequency, MHz = 3
Property: Speed of sound, m/s (Liquid); method: Single path-length method
Temperature, K	Solvent: Molality, mol/kg of trilithium citrate	Molality, mol/kg of D-ribose	Speed of sound, m/s	uncertainty
288.15	0.2	0	1509.41	10.11
288.15	0.2	0.09966	1515.67	10.11
288.15	0.2	0.19766	1520.07	10.11
288.15	0.2	0.29562	1526.06	10.11
288.15	0.2	0.3953	1531.62	10.11
288.15	0.2	0.49972	1536.95	10.11
288.15	0.2	0.59907	1542.71	10.12
288.15	0.2	0.70039	1547.97	10.12
288.15	0.2	0.79914	1552.82	10.13
288.15	0.2	0.901	1558.67	10.14
288.15	0.2	1.0031	1563.94	10.14
288.15	0.2	1.10151	1568.25	10.15
288.15	0.2	1.20323	1573.43	10.17
298.15	0.2	0	1536.02	10.11
298.15	0.2	0.09966	1540.96	10.11
298.15	0.2	0.19766	1545.2	10.11
298.15	0.2	0.29562	1550.44	10.11
298.15	0.2	0.3953	1555.4	10.11
298.15	0.2	0.49972	1560.09	10.12
298.15	0.2	0.59907	1565.31	10.12
298.15	0.2	0.70039	1569.97	10.13
298.15	0.2	0.79914	1574.2	10.14
298.15	0.2	0.901	1579.69	10.15
298.15	0.2	1.0031	1584.16	10.14
298.15	0.2	1.10151	1588	10.16
298.15	0.2	1.20323	1592.46	10.14
308.15	0.2	0	1556.23	10.1
308.15	0.2	0.09966	1560.82	10.1
308.15	0.2	0.19766	1564.57	10.1
308.15	0.2	0.29562	1569.09	10.11
308.15	0.2	0.3953	1573.53	10.11
308.15	0.2	0.49972	1577.75	10.11
308.15	0.2	0.59907	1582.51	10.12
308.15	0.2	0.70039	1586.64	10.12
308.15	0.2	0.79914	1590.35	10.14
308.15	0.2	0.901	1595.46	10.15
308.15	0.2	1.0031	1599.25	10.14
308.15	0.2	1.10151	1602.78	10.15
308.15	0.2	1.20323	1606.57	10.16
318.15	0.2	0	1570.5	10.09
318.15	0.2	0.09966	1575.9	10.09
318.15	0.2	0.19766	1579.78	10.09
318.15	0.2	0.29562	1584.05	10.09
318.15	0.2	0.3953	1588.72	10.1
318.15	0.2	0.49972	1592.57	10.1
318.15	0.2	0.59907	1596.81	10.11
318.15	0.2	0.70039	1600.3	10.11
318.15	0.2	0.79914	1603.81	10.13
318.15	0.2	0.901	1608.52	10.14
318.15	0.2	1.0031	1612.56	10.14
318.15	0.2	1.10151	1615.92	10.14
318.15	0.2	1.20323	1618.99	10.15
288.15	0.4	0	1548.56	10.4
288.15	0.4	0.10231	1553.65	10.31
288.15	0.4	0.19849	1558.44	10.3
288.15	0.4	0.29385	1563.18	10.29
288.15	0.4	0.39524	1568.23	10.28
288.15	0.4	0.50087	1573.49	10.28
288.15	0.4	0.60436	1578.64	10.28
288.15	0.4	0.7039	1583.59	10.27
288.15	0.4	0.79777	1588.26	10.28
288.15	0.4	0.9037	1593.53	10.27
288.15	0.4	1.00004	1598.33	10.27
288.15	0.4	1.09354	1602.98	10.28
288.15	0.4	1.2139	1608.97	10.25
298.15	0.4	0	1572.66	10.29
298.15	0.4	0.10231	1577.75	10.28
298.15	0.4	0.19849	1582.54	10.28
298.15	0.4	0.29385	1587.28	10.27
298.15	0.4	0.39524	1592.33	10.27
298.15	0.4	0.50087	1597.59	10.27
298.15	0.4	0.60436	1602.74	10.27
298.15	0.4	0.7039	1607.69	10.27
298.15	0.4	0.79777	1612.36	10.27
298.15	0.4	0.9037	1617.63	10.27
298.15	0.4	1.00004	1622.43	10.28
298.15	0.4	1.09354	1627.08	10.29
298.15	0.4	1.2139	1633.07	10.24
308.15	0.4	0	1590.42	10.26
308.15	0.4	0.10231	1595.51	10.25
308.15	0.4	0.19849	1600.3	10.25
308.15	0.4	0.29385	1605.04	10.25
308.15	0.4	0.39524	1610.09	10.25
308.15	0.4	0.50087	1615.35	10.26
308.15	0.4	0.60436	1620.5	10.26
308.15	0.4	0.7039	1625.45	10.26
308.15	0.4	0.79777	1630.12	10.27
308.15	0.4	0.9037	1635.39	10.27
308.15	0.4	1.00004	1640.19	10.28
308.15	0.4	1.09354	1644.84	10.3
308.15	0.4	1.2139	1650.83	10.24
318.15	0.4	0	1602.21	10.32
318.15	0.4	0.10231	1607.3	10.22
318.15	0.4	0.19849	1612.09	10.22
318.15	0.4	0.29385	1616.83	10.22
318.15	0.4	0.39524	1621.88	10.22
318.15	0.4	0.50087	1627.14	10.23
318.15	0.4	0.60436	1632.29	10.23
318.15	0.4	0.7039	1637.24	10.24
318.15	0.4	0.79777	1641.91	10.25
318.15	0.4	0.9037	1647.18	10.26
318.15	0.4	1.00004	1651.98	10.26
318.15	0.4	1.09354	1656.63	10.28
318.15	0.4	1.2139	1662.62	10.22
288.15	0.6	0	1589.23	10.69
288.15	0.6	0.1001	1593.15	10.65
288.15	0.6	0.19848	1597	10.63
288.15	0.6	0.30084	1601.01	10.6
288.15	0.6	0.40179	1604.97	10.57
288.15	0.6	0.50167	1608.88	10.54
288.15	0.6	0.60259	1612.83	10.51
288.15	0.6	0.70033	1616.66	10.49
288.15	0.6	0.80196	1620.64	10.47
288.15	0.6	0.90204	1624.56	10.45
288.15	0.6	1.00136	1628.45	10.43
288.15	0.6	1.09671	1632.18	10.41
288.15	0.6	1.19799	1636.15	10.39
298.15	0.6	0	1610.35	10.55
298.15	0.6	0.1001	1614.27	10.54
298.15	0.6	0.19848	1618.12	10.51
298.15	0.6	0.30084	1622.13	10.49
298.15	0.6	0.40179	1626.09	10.46
298.15	0.6	0.50167	1630	10.44
298.15	0.6	0.60259	1633.95	10.41
298.15	0.6	0.70033	1637.78	10.39
298.15	0.6	0.80196	1641.76	10.37
298.15	0.6	0.90204	1645.68	10.36
298.15	0.6	1.00136	1649.57	10.34
298.15	0.6	1.09671	1653.3	10.33
298.15	0.6	1.19799	1657.27	10.26
308.15	0.6	0	1625.97	10.49
308.15	0.6	0.1001	1629.89	10.48
308.15	0.6	0.19848	1633.74	10.46
308.15	0.6	0.30084	1637.75	10.43
308.15	0.6	0.40179	1641.71	10.41
308.15	0.6	0.50167	1645.62	10.39
308.15	0.6	0.60259	1649.57	10.36
308.15	0.6	0.70033	1653.4	10.35
308.15	0.6	0.80196	1657.38	10.33
308.15	0.6	0.90204	1661.3	10.31
308.15	0.6	1.00136	1665.19	10.3
308.15	0.6	1.09671	1668.92	10.29
308.15	0.6	1.19799	1672.89	10.22
318.15	0.6	0	1636.08	10.49
318.15	0.6	0.1001	1640	10.47
318.15	0.6	0.19848	1643.85	10.44
318.15	0.6	0.30084	1647.86	10.42
318.15	0.6	0.40179	1651.82	10.39
318.15	0.6	0.50167	1655.73	10.37
318.15	0.6	0.60259	1659.68	10.35
318.15	0.6	0.70033	1663.51	10.33
318.15	0.6	0.80196	1667.49	10.32
318.15	0.6	0.90204	1671.41	10.3
318.15	0.6	1.00136	1675.3	10.29
318.15	0.6	1.09671	1679.03	10.28
318.15	0.6	1.19799	1683	10.26

System: D-ribose + trilithium citrate + water; phases: Liquid
Fixed: Pressure, kPa = 100
Property: Mass density, kg/m3 (Liquid); method: Vibrating tube method
Temperature, K	Solvent: Molality, mol/kg of trilithium citrate	Molality, mol/kg of D-ribose	Mass density, kg/m3	uncertainty
288.15	0.2	0	1027.568	0.357
288.15	0.2	0.09966	1032.703	0.36
288.15	0.2	0.19766	1037.622	0.363
288.15	0.2	0.29562	1042.417	0.368
288.15	0.2	0.3953	1047.172	0.374
288.15	0.2	0.49972	1052.032	0.381
288.15	0.2	0.59907	1056.541	0.389
288.15	0.2	0.70039	1061.005	0.398
288.15	0.2	0.79914	1065.256	0.408
288.15	0.2	0.901	1069.525	0.42
288.15	0.2	1.0031	1073.683	0.432
288.15	0.2	1.10151	1077.59	0.445
288.15	0.2	1.20323	1081.529	0.459
298.15	0.2	0	1025.153	0.356
298.15	0.2	0.09966	1030.203	0.359
298.15	0.2	0.19766	1035.042	0.362
298.15	0.2	0.29562	1039.758	0.367
298.15	0.2	0.3953	1044.438	0.372
298.15	0.2	0.49972	1049.211	0.38
298.15	0.2	0.59907	1053.637	0.388
298.15	0.2	0.70039	1058.036	0.397
298.15	0.2	0.79914	1062.198	0.407
298.15	0.2	0.901	1066.371	0.418
298.15	0.2	1.0031	1070.461	0.431
298.15	0.2	1.10151	1074.295	0.443
298.15	0.2	1.20323	1078.172	0.457
308.15	0.2	0	1021.936	0.355
308.15	0.2	0.09966	1026.947	0.357
308.15	0.2	0.19766	1031.746	0.361
308.15	0.2	0.29562	1036.425	0.365
308.15	0.2	0.3953	1041.063	0.371
308.15	0.2	0.49972	1045.797	0.378
308.15	0.2	0.59907	1050.173	0.386
308.15	0.2	0.70039	1054.533	0.396
308.15	0.2	0.79914	1058.665	0.406
308.15	0.2	0.901	1062.82	0.417
308.15	0.2	1.0031	1066.885	0.429
308.15	0.2	1.10151	1070.699	0.442
308.15	0.2	1.20323	1074.533	0.455
318.15	0.2	0	1017.984	0.354
318.15	0.2	0.09966	1022.968	0.356
318.15	0.2	0.19766	1027.742	0.359
318.15	0.2	0.29562	1032.394	0.364
318.15	0.2	0.3953	1037.01	0.37
318.15	0.2	0.49972	1041.724	0.377
318.15	0.2	0.59907	1046.096	0.385
318.15	0.2	0.70039	1050.452	0.394
318.15	0.2	0.79914	1054.583	0.404
318.15	0.2	0.901	1058.742	0.415
318.15	0.2	1.0031	1062.786	0.427
318.15	0.2	1.10151	1066.577	0.44
318.15	0.2	1.20323	1070.41	0.453
288.15	0.4	0	1052.95	0.367
288.15	0.4	0.10231	1058.051	0.369
288.15	0.4	0.19849	1062.717	0.373
288.15	0.4	0.29385	1067.223	0.377
288.15	0.4	0.39524	1071.892	0.383
288.15	0.4	0.50087	1076.631	0.391
288.15	0.4	0.60436	1081.153	0.399
288.15	0.4	0.7039	1085.364	0.409
288.15	0.4	0.79777	1089.239	0.419
288.15	0.4	0.9037	1093.503	0.431
288.15	0.4	1.00004	1097.253	0.442
288.15	0.4	1.09354	1100.803	0.455
288.15	0.4	1.2139	1105.292	0.471
298.15	0.4	0	1050.229	0.366
298.15	0.4	0.10231	1055.245	0.368
298.15	0.4	0.19849	1059.834	0.371
298.15	0.4	0.29385	1064.268	0.376
298.15	0.4	0.39524	1068.863	0.382
298.15	0.4	0.50087	1073.517	0.39
298.15	0.4	0.60436	1077.956	0.398
298.15	0.4	0.7039	1082.107	0.407
298.15	0.4	0.79777	1085.899	0.417
298.15	0.4	0.9037	1090.067	0.429
298.15	0.4	1.00004	1093.757	0.441
298.15	0.4	1.09354	1097.24	0.453
298.15	0.4	1.2139	1101.658	0.47
308.15	0.4	0	1046.822	0.364
308.15	0.4	0.10231	1051.802	0.367
308.15	0.4	0.19849	1056.355	0.37
308.15	0.4	0.29385	1060.756	0.375
308.15	0.4	0.39524	1065.311	0.381
308.15	0.4	0.50087	1069.929	0.388
308.15	0.4	0.60436	1074.319	0.397
308.15	0.4	0.7039	1078.435	0.406
308.15	0.4	0.79777	1082.203	0.416
308.15	0.4	0.9037	1086.355	0.427
308.15	0.4	1.00004	1090.027	0.439
308.15	0.4	1.09354	1093.494	0.451
308.15	0.4	1.2139	1097.867	0.468
318.15	0.4	0	1042.766	0.363
318.15	0.4	0.10231	1047.724	0.365
318.15	0.4	0.19849	1052.259	0.369
318.15	0.4	0.29385	1056.638	0.373
318.15	0.4	0.39524	1061.177	0.379
318.15	0.4	0.50087	1065.781	0.386
318.15	0.4	0.60436	1070.173	0.395
318.15	0.4	0.7039	1074.291	0.404
318.15	0.4	0.79777	1078.065	0.414
318.15	0.4	0.9037	1082.228	0.426
318.15	0.4	1.00004	1085.884	0.437
318.15	0.4	1.09354	1089.334	0.449
318.15	0.4	1.2139	1093.71	0.466
288.15	0.6	0	1078.48	0.377
288.15	0.6	0.1001	1083.292	0.379
288.15	0.6	0.19848	1087.889	0.383
288.15	0.6	0.30084	1092.54	0.388
288.15	0.6	0.40179	1096.998	0.394
288.15	0.6	0.50167	1101.291	0.401
288.15	0.6	0.60259	1105.517	0.41
288.15	0.6	0.70033	1109.475	0.419
288.15	0.6	0.80196	1113.496	0.43
288.15	0.6	0.90204	1117.335	0.442
288.15	0.6	1.00136	1121.026	0.454
288.15	0.6	1.09671	1124.475	0.467
288.15	0.6	1.19799	1128.047	0.481
298.15	0.6	0	1075.505	0.375
298.15	0.6	0.1001	1080.238	0.378
298.15	0.6	0.19848	1084.761	0.381
298.15	0.6	0.30084	1089.339	0.386
298.15	0.6	0.40179	1093.727	0.393
298.15	0.6	0.50167	1097.944	0.4
298.15	0.6	0.60259	1102.093	0.408
298.15	0.6	0.70033	1105.997	0.418
298.15	0.6	0.80196	1109.932	0.428
298.15	0.6	0.90204	1113.684	0.44
298.15	0.6	1.00136	1117.318	0.452
298.15	0.6	1.09671	1120.703	0.465
298.15	0.6	1.19799	1124.222	0.479
308.15	0.6	0	1071.938	0.374
308.15	0.6	0.1001	1076.639	0.376
308.15	0.6	0.19848	1081.129	0.38
308.15	0.6	0.30084	1085.674	0.385
308.15	0.6	0.40179	1090.027	0.391
308.15	0.6	0.50167	1094.213	0.398
308.15	0.6	0.60259	1098.317	0.407
308.15	0.6	0.70033	1102.19	0.416
308.15	0.6	0.80196	1106.103	0.427
308.15	0.6	0.90204	1109.844	0.438
308.15	0.6	1.00136	1113.462	0.45
308.15	0.6	1.09671	1116.835	0.463
308.15	0.6	1.19799	1120.318	0.477
318.15	0.6	0	1067.779	0.372
318.15	0.6	0.1001	1072.459	0.375
318.15	0.6	0.19848	1076.931	0.378
318.15	0.6	0.30084	1081.454	0.383
318.15	0.6	0.40179	1085.792	0.389
318.15	0.6	0.50167	1089.966	0.397
318.15	0.6	0.60259	1094.074	0.405
318.15	0.6	0.70033	1097.951	0.414
318.15	0.6	0.80196	1101.871	0.425
318.15	0.6	0.90204	1105.625	0.436
318.15	0.6	1.00136	1109.228	0.448
318.15	0.6	1.09671	1112.584	0.461
318.15	0.6	1.19799	1116.073	0.475

System: D-xylose + trilithium citrate + water; phases: Liquid
Fixed: Pressure, kPa = 100
Fixed: Frequency, MHz = 3
Property: Speed of sound, m/s (Liquid); method: Single path-length method
Temperature, K	Solvent: Molality, mol/kg of trilithium citrate	Molality, mol/kg of D-xylose	Speed of sound, m/s	uncertainty
288.15	0.2	0	1509.41	10.11
288.15	0.2	0.09862	1516.3	10.1
288.15	0.2	0.2014	1521.8	10.1
288.15	0.2	0.29937	1526.94	10.1
288.15	0.2	0.39983	1532.64	10.1
288.15	0.2	0.50692	1538.42	10.11
288.15	0.2	0.60316	1543.43	10.11
288.15	0.2	0.69524	1548.74	10.11
288.15	0.2	0.79741	1553.64	10.12
288.15	0.2	0.89499	1559.48	10.12
288.15	0.2	0.99619	1563.47	10.13
288.15	0.2	1.10233	1569.89	10.16
288.15	0.2	1.2018	1575.27	10.16
298.15	0.2	0	1536.02	10.11
298.15	0.2	0.09862	1542.53	10.1
298.15	0.2	0.2014	1547.38	10.1
298.15	0.2	0.29937	1551.91	10.1
298.15	0.2	0.39983	1557.09	10.11
298.15	0.2	0.50692	1562.41	10.11
298.15	0.2	0.60316	1566.72	10.11
298.15	0.2	0.69524	1571.53	10.12
298.15	0.2	0.79741	1575.84	10.12
298.15	0.2	0.89499	1581.22	10.13
298.15	0.2	0.99619	1585.36	10.14
298.15	0.2	1.10233	1590.53	10.15
298.15	0.2	1.2018	1595.42	10.12
308.15	0.2	0	1556.23	10.1
308.15	0.2	0.09862	1562.1	10.09
308.15	0.2	0.2014	1566.86	10.09
308.15	0.2	0.29937	1570.92	10.1
308.15	0.2	0.39983	1575.67	10.1
308.15	0.2	0.50692	1580.5	10.1
308.15	0.2	0.60316	1584.31	10.11
308.15	0.2	0.69524	1588.7	10.11
308.15	0.2	0.79741	1592.6	10.12
308.15	0.2	0.89499	1597.49	10.12
308.15	0.2	0.99619	1600.52	10.13
308.15	0.2	1.10233	1605.89	10.16
308.15	0.2	1.2018	1610.39	10.15
318.15	0.2	0	1570.5	10.09
318.15	0.2	0.09862	1576.41	10.08
318.15	0.2	0.2014	1581.13	10.08
318.15	0.2	0.29937	1585.7	10.09
318.15	0.2	0.39983	1590.33	10.09
318.15	0.2	0.50692	1594.89	10.09
318.15	0.2	0.60316	1598.83	10.1
318.15	0.2	0.69524	1602.19	10.1
318.15	0.2	0.79741	1606.93	10.11
318.15	0.2	0.89499	1610.83	10.12
318.15	0.2	0.99619	1615.11	10.13
318.15	0.2	1.10233	1619.83	10.14
318.15	0.2	1.2018	1623.78	10.14
288.15	0.4	0	1548.56	10.36
288.15	0.4	0.10001	1553.24	10.31
288.15	0.4	0.19978	1557.9	10.31
288.15	0.4	0.3001	1562.59	10.32
288.15	0.4	0.40477	1567.49	10.32
288.15	0.4	0.50288	1572.08	10.32
288.15	0.4	0.59963	1576.6	10.33
288.15	0.4	0.69676	1581.14	10.33
288.15	0.4	0.80235	1586.08	10.34
288.15	0.4	0.9051	1590.89	10.34
288.15	0.4	1.00035	1595.34	10.36
288.15	0.4	1.10073	1600.04	10.36
288.15	0.4	1.19728	1604.55	10.67
298.15	0.4	0	1572.66	10.29
298.15	0.4	0.10001	1577.34	10.28
298.15	0.4	0.19978	1582	10.28
298.15	0.4	0.3001	1586.69	10.29
298.15	0.4	0.40477	1591.59	10.29
298.15	0.4	0.50288	1596.18	10.3
298.15	0.4	0.59963	1600.7	10.31
298.15	0.4	0.69676	1605.24	10.32
298.15	0.4	0.80235	1610.18	10.33
298.15	0.4	0.9051	1614.99	10.33
298.15	0.4	1.00035	1619.44	10.35
298.15	0.4	1.10073	1624.14	10.36
298.15	0.4	1.19728	1628.65	10.42
308.15	0.4	0	1590.42	10.26
308.15	0.4	0.10001	1595.1	10.25
308.15	0.4	0.19978	1599.76	10.26
308.15	0.4	0.3001	1604.45	10.27
308.15	0.4	0.40477	1609.35	10.28
308.15	0.4	0.50288	1613.94	10.28
308.15	0.4	0.59963	1618.46	10.3
308.15	0.4	0.69676	1623	10.31
308.15	0.4	0.80235	1627.94	10.32
308.15	0.4	0.9051	1632.75	10.33
308.15	0.4	1.00035	1637.2	10.36
308.15	0.4	1.10073	1641.9	10.37
308.15	0.4	1.19728	1646.41	10.4
318.15	0.4	0	1602.21	10.19
318.15	0.4	0.10001	1606.89	10.23
318.15	0.4	0.19978	1611.55	10.23
318.15	0.4	0.3001	1616.24	10.24
318.15	0.4	0.40477	1621.14	10.25
318.15	0.4	0.50288	1625.73	10.26
318.15	0.4	0.59963	1630.25	10.27
318.15	0.4	0.69676	1634.79	10.28
318.15	0.4	0.80235	1639.73	10.3
318.15	0.4	0.9051	1644.54	10.31
318.15	0.4	1.00035	1648.99	10.33
318.15	0.4	1.10073	1653.69	10.34
318.15	0.4	1.19728	1658.2	10.44
288.15	0.6	0	1589.23	10.69
288.15	0.6	0.10178	1594.66	10.71
288.15	0.6	0.19989	1599.9	10.73
288.15	0.6	0.30041	1605.26	10.75
288.15	0.6	0.40233	1610.7	10.78
288.15	0.6	0.49866	1615.84	10.81
288.15	0.6	0.60072	1621.29	10.83
288.15	0.6	0.69989	1626.58	10.86
288.15	0.6	0.80119	1631.99	10.89
288.15	0.6	0.90332	1637.44	10.93
288.15	0.6	0.99993	1642.6	10.96
288.15	0.6	1.09657	1647.75	10.99
288.15	0.6	1.19851	1653.19	11.03
298.15	0.6	0	1610.35	10.55
298.15	0.6	0.10178	1615.78	10.59
298.15	0.6	0.19989	1621.02	10.61
298.15	0.6	0.30041	1626.38	10.63
298.15	0.6	0.40233	1631.82	10.65
298.15	0.6	0.49866	1636.96	10.68
298.15	0.6	0.60072	1642.41	10.7
298.15	0.6	0.69989	1647.7	10.73
298.15	0.6	0.80119	1653.11	10.76
298.15	0.6	0.90332	1658.56	10.79
298.15	0.6	0.99993	1663.72	10.82
298.15	0.6	1.09657	1668.87	10.85
298.15	0.6	1.19851	1674.31	10.82
308.15	0.6	0	1625.97	10.49
308.15	0.6	0.10178	1631.4	10.53
308.15	0.6	0.19989	1636.64	10.55
308.15	0.6	0.30041	1642	10.57
308.15	0.6	0.40233	1647.44	10.59
308.15	0.6	0.49866	1652.58	10.61
308.15	0.6	0.60072	1658.03	10.64
308.15	0.6	0.69989	1663.32	10.66
308.15	0.6	0.80119	1668.73	10.69
308.15	0.6	0.90332	1674.18	10.72
308.15	0.6	0.99993	1679.34	10.75
308.15	0.6	1.09657	1684.49	10.78
308.15	0.6	1.19851	1689.93	10.75
318.15	0.6	0	1636.08	10.49
318.15	0.6	0.10178	1641.51	10.51
318.15	0.6	0.19989	1646.75	10.53
318.15	0.6	0.30041	1652.11	10.55
318.15	0.6	0.40233	1657.55	10.57
318.15	0.6	0.49866	1662.69	10.6
318.15	0.6	0.60072	1668.14	10.62
318.15	0.6	0.69989	1673.43	10.65
318.15	0.6	0.80119	1678.84	10.68
318.15	0.6	0.90332	1684.29	10.71
318.15	0.6	0.99993	1689.45	10.73
318.15	0.6	1.09657	1694.6	10.77
318.15	0.6	1.19851	1700.04	10.8

System: D-xylose + trilithium citrate + water; phases: Liquid
Fixed: Pressure, kPa = 100
Property: Mass density, kg/m3 (Liquid); method: Vibrating tube method
Temperature, K	Solvent: Molality, mol/kg of trilithium citrate	Molality, mol/kg of D-xylose	Mass density, kg/m3	uncertainty
288.15	0.2	0	1027.568	0.357
288.15	0.2	0.09862	1032.689	0.359
288.15	0.2	0.2014	1037.889	0.363
288.15	0.2	0.29937	1042.721	0.368
288.15	0.2	0.39983	1047.554	0.374
288.15	0.2	0.50692	1052.571	0.381
288.15	0.2	0.60316	1056.962	0.389
288.15	0.2	0.69524	1061.052	0.398
288.15	0.2	0.79741	1065.496	0.408
288.15	0.2	0.89499	1069.62	0.419
288.15	0.2	0.99619	1073.804	0.431
288.15	0.2	1.10233	1078.063	0.445
288.15	0.2	1.2018	1081.937	0.459
298.15	0.2	0	1025.153	0.356
298.15	0.2	0.09862	1030.192	0.359
298.15	0.2	0.2014	1035.309	0.362
298.15	0.2	0.29937	1040.059	0.367
298.15	0.2	0.39983	1044.803	0.373
298.15	0.2	0.50692	1049.733	0.38
298.15	0.2	0.60316	1054.041	0.388
298.15	0.2	0.69524	1058.057	0.397
298.15	0.2	0.79741	1062.421	0.407
298.15	0.2	0.89499	1066.469	0.418
298.15	0.2	0.99619	1070.555	0.43
298.15	0.2	1.10233	1074.754	0.444
298.15	0.2	1.2018	1078.577	0.457
308.15	0.2	0	1021.936	0.355
308.15	0.2	0.09862	1026.919	0.357
308.15	0.2	0.2014	1031.978	0.361
308.15	0.2	0.29937	1036.675	0.366
308.15	0.2	0.39983	1041.364	0.372
308.15	0.2	0.50692	1046.237	0.379
308.15	0.2	0.60316	1050.489	0.387
308.15	0.2	0.69524	1054.463	0.395
308.15	0.2	0.79741	1058.783	0.405
308.15	0.2	0.89499	1062.801	0.416
308.15	0.2	0.99619	1066.88	0.428
308.15	0.2	1.10233	1071.067	0.442
308.15	0.2	1.2018	1074.877	0.455
318.15	0.2	0	1017.984	0.354
318.15	0.2	0.09862	1022.931	0.356
318.15	0.2	0.2014	1027.955	0.36
318.15	0.2	0.29937	1032.623	0.364
318.15	0.2	0.39983	1037.301	0.37
318.15	0.2	0.50692	1042.162	0.377
318.15	0.2	0.60316	1046.416	0.385
318.15	0.2	0.69524	1050.382	0.394
318.15	0.2	0.79741	1054.7	0.404
318.15	0.2	0.89499	1058.705	0.414
318.15	0.2	0.99619	1062.76	0.426
318.15	0.2	1.10233	1066.9	0.44
318.15	0.2	1.2018	1070.681	0.453
288.15	0.4	0	1052.95	0.367
288.15	0.4	0.10001	1057.978	0.369
288.15	0.4	0.19978	1062.86	0.373
288.15	0.4	0.3001	1067.642	0.378
288.15	0.4	0.40477	1072.501	0.384
288.15	0.4	0.50288	1076.927	0.391
288.15	0.4	0.59963	1081.183	0.399
288.15	0.4	0.69676	1085.339	0.408
288.15	0.4	0.80235	1089.755	0.419
288.15	0.4	0.9051	1093.923	0.431
288.15	0.4	1.00035	1097.685	0.443
288.15	0.4	1.10073	1101.532	0.456
288.15	0.4	1.19728	1105.126	0.469
298.15	0.4	0	1050.229	0.366
298.15	0.4	0.10001	1055.179	0.368
298.15	0.4	0.19978	1059.985	0.372
298.15	0.4	0.3001	1064.688	0.376
298.15	0.4	0.40477	1069.46	0.383
298.15	0.4	0.50288	1073.811	0.39
298.15	0.4	0.59963	1077.988	0.398
298.15	0.4	0.69676	1082.071	0.407
298.15	0.4	0.80235	1086.409	0.418
298.15	0.4	0.9051	1090.503	0.429
298.15	0.4	1.00035	1094.175	0.441
298.15	0.4	1.10073	1097.973	0.454
298.15	0.4	1.19728	1101.524	0.468
308.15	0.4	0	1046.822	0.364
308.15	0.4	0.10001	1051.705	0.367
308.15	0.4	0.19978	1056.446	0.37
308.15	0.4	0.3001	1061.085	0.375
308.15	0.4	0.40477	1065.791	0.381
308.15	0.4	0.50288	1070.081	0.388
308.15	0.4	0.59963	1074.193	0.396
308.15	0.4	0.69676	1078.224	0.405
308.15	0.4	0.80235	1082.508	0.416
308.15	0.4	0.9051	1086.562	0.428
308.15	0.4	1.00035	1090.225	0.439
308.15	0.4	1.10073	1094.007	0.452
308.15	0.4	1.19728	1097.539	0.466
318.15	0.4	0	1042.766	0.363
318.15	0.4	0.10001	1047.602	0.365
318.15	0.4	0.19978	1052.298	0.369
318.15	0.4	0.3001	1056.898	0.373
318.15	0.4	0.40477	1061.582	0.38
318.15	0.4	0.50288	1065.852	0.387
318.15	0.4	0.59963	1069.959	0.394
318.15	0.4	0.69676	1073.971	0.403
318.15	0.4	0.80235	1078.244	0.414
318.15	0.4	0.9051	1082.275	0.426
318.15	0.4	1.00035	1085.906	0.437
318.15	0.4	1.10073	1089.632	0.45
318.15	0.4	1.19728	1093.127	0.463
288.15	0.6	0	1078.48	0.377
288.15	0.6	0.10178	1083.422	0.379
288.15	0.6	0.19989	1088.055	0.383
288.15	0.6	0.30041	1092.675	0.388
288.15	0.6	0.40233	1097.232	0.394
288.15	0.6	0.49866	1101.414	0.401
288.15	0.6	0.60072	1105.734	0.41
288.15	0.6	0.69989	1109.808	0.419
288.15	0.6	0.80119	1113.864	0.43
288.15	0.6	0.90332	1117.832	0.442
288.15	0.6	0.99993	1121.485	0.454
288.15	0.6	1.09657	1125.017	0.467
288.15	0.6	1.19851	1128.648	0.481
298.15	0.6	0	1075.505	0.375
298.15	0.6	0.10178	1080.362	0.378
298.15	0.6	0.19989	1084.914	0.382
298.15	0.6	0.30041	1089.449	0.387
298.15	0.6	0.40233	1093.915	0.393
298.15	0.6	0.49866	1098.017	0.4
298.15	0.6	0.60072	1102.249	0.408
298.15	0.6	0.69989	1106.243	0.418
298.15	0.6	0.80119	1110.219	0.428
298.15	0.6	0.90332	1114.108	0.44
298.15	0.6	0.99993	1117.665	0.452
298.15	0.6	1.09657	1121.147	0.465
298.15	0.6	1.19851	1124.728	0.479
308.15	0.6	0	1071.938	0.374
308.15	0.6	0.10178	1076.729	0.376
308.15	0.6	0.19989	1081.217	0.38
308.15	0.6	0.30041	1085.689	0.385
308.15	0.6	0.40233	1090.091	0.391
308.15	0.6	0.49866	1094.136	0.398
308.15	0.6	0.60072	1098.3	0.407
308.15	0.6	0.69989	1102.242	0.416
308.15	0.6	0.80119	1106.169	0.427
308.15	0.6	0.90332	1110.021	0.438
308.15	0.6	0.99993	1113.571	0.45
308.15	0.6	1.09657	1117.042	0.463
308.15	0.6	1.19851	1120.604	0.477
318.15	0.6	0	1067.779	0.372
318.15	0.6	0.10178	1072.524	0.375
318.15	0.6	0.19989	1076.972	0.378
318.15	0.6	0.30041	1081.408	0.383
318.15	0.6	0.40233	1085.793	0.389
318.15	0.6	0.49866	1089.823	0.396
318.15	0.6	0.60072	1093.984	0.405
318.15	0.6	0.69989	1097.91	0.414
318.15	0.6	0.80119	1101.832	0.425
318.15	0.6	0.90332	1105.664	0.436
318.15	0.6	0.99993	1109.185	0.448
318.15	0.6	1.09657	1112.602	0.461
318.15	0.6	1.19851	1116.13	0.475
