Measured thermophysical data. Physicochemical properties of an anticonvulsant drug sodium valproate in aqueous and in mixed aqueous solutions at different temperatures
Source: J. Chem. Thermodyn., 2015, 10.1016/j.jct.2015.06.025
Compound 1: sodium valproate, C8H15NaO2, InChI=1S/C8H16O2.Na/c1-3-5-7(6-4-2)8(9)10;/h7H,3-6H2,1-2H3,(H,9,10);/q;+1/p-1, purity 99%
Compound 2: D-glucose, C6H12O6, InChI=1S/C6H12O6/c7-1-3(9)5(11)6(12)4(10)2-8/h1,3-6,8-12H,2H2/t3-,4+,5+,6+/m0/s1, purity 99%
Compound 3: sodium chloride, ClNa, InChI=1S/ClH.Na/h1H;/q;+1/p-1, purity 99%
Compound 4: water, H2O, InChI=1S/H2O/h1H2

System: water; phases: Liquid
Fixed: Pressure, kPa = 101.3
Property: Mass density, kg/m3 (Liquid); method: Pycnometric method
Temperature, K	Mass density, kg/m3	uncertainty
288.15	999.1	0.32
298.15	997.05	0.32
308.15	994.04	0.35

System: water; phases: Liquid
Fixed: Pressure, kPa = 101.3
Property: Viscosity, Pa*s (Liquid); method: Capillary tube (Ostwald; Ubbelohde) method
Temperature, K	Viscosity, Pa*s	uncertainty
288.15	0.0011382	2.37e-05
298.15	0.0008903	1.85e-05
308.15	0.0007195	1.5e-05

System: sodium valproate + water; phases: Liquid
Fixed: Pressure, kPa = 101.3
Property: Mass density, kg/m3 (Liquid); method: Pycnometric method
Molality, mol/kg of sodium valproate	Temperature, K	Mass density, kg/m3	uncertainty
0	288.15	999.1	0.32
0.0102	288.15	999.51	0.32
0.0191	288.15	999.84	0.32
0.0245	288.15	1000.06	0.33
0.0305	288.15	1000.3	0.33
0.0401	288.15	1000.66	0.33
0.0453	288.15	1000.87	0.33
0.0501	288.15	1001.04	0.33
0.0608	288.15	1001.43	0.33
0.0706	288.15	1001.79	0.33
0.08	288.15	1002.15	0.33
0.0924	288.15	1002.59	0.33
0.1021	288.15	1002.93	0.33
0	298.15	997.05	0.32
0.01	298.15	997.43	0.32
0.0191	298.15	997.79	0.32
0.0245	298.15	997.98	0.33
0.0305	298.15	998.22	0.33
0.0401	298.15	998.56	0.33
0.0453	298.15	998.75	0.33
0.0501	298.15	998.91	0.33
0.0608	298.15	999.3	0.33
0.0706	298.15	999.64	0.33
0.08	298.15	999.96	0.33
0.0924	298.15	1000.39	0.33
0.1021	298.15	1000.72	0.33
0	308.15	994.04	0.35
0.01	308.15	994.42	0.35
0.02	308.15	994.78	0.35
0.0303	308.15	995.13	0.35
0.0405	308.15	995.53	0.35
0.0497	308.15	995.89	0.35
0.0605	308.15	996.24	0.35
0.0708	308.15	996.63	0.36
0.0844	308.15	997.07	0.36
0.0902	308.15	997.29	0.36
0.0959	308.15	997.48	0.36
0.101	308.15	997.66	0.36
0.1154	308.15	998.16	0.36

System: sodium valproate + water; phases: Liquid
Fixed: Pressure, kPa = 101.3
Property: Viscosity, Pa*s (Liquid); method: Capillary tube (Ostwald; Ubbelohde) method
Molality, mol/kg of sodium valproate	Temperature, K	Viscosity, Pa*s	uncertainty
0	288.15	0.0011382	2.37e-05
0.0102	288.15	0.0011528	2.4e-05
0.0191	288.15	0.0011621	2.41e-05
0.0245	288.15	0.0011688	2.43e-05
0.0305	288.15	0.0011771	2.45e-05
0.0401	288.15	0.0011869	2.47e-05
0.0453	288.15	0.0011949	2.48e-05
0.0501	288.15	0.001201	2.5e-05
0.0608	288.15	0.0012134	2.52e-05
0.0706	288.15	0.0012249	2.54e-05
0.08	288.15	0.0012382	2.57e-05
0.0924	288.15	0.0012522	2.6e-05
0.1021	288.15	0.0012623	2.62e-05
0	298.15	0.0008903	1.85e-05
0.01	298.15	0.0008988	1.87e-05
0.0191	298.15	0.0009064	1.89e-05
0.0245	298.15	0.0009122	1.9e-05
0.0305	298.15	0.0009166	1.91e-05
0.0401	298.15	0.0009238	1.92e-05
0.0453	298.15	0.0009268	1.93e-05
0.0501	298.15	0.0009318	1.94e-05
0.0608	298.15	0.0009391	1.96e-05
0.0706	298.15	0.0009476	1.97e-05
0.08	298.15	0.0009558	1.99e-05
0.0924	298.15	0.0009653	2.01e-05
0.1021	298.15	0.0009733	2.03e-05
0	308.15	0.0007195	1.5e-05
0.01	308.15	0.0007252	1.51e-05
0.02	308.15	0.0007296	1.52e-05
0.0303	308.15	0.0007345	1.53e-05
0.0405	308.15	0.0007397	1.54e-05
0.0497	308.15	0.0007444	1.55e-05
0.0605	308.15	0.0007499	1.57e-05
0.0708	308.15	0.0007552	1.58e-05
0.0844	308.15	0.0007617	1.59e-05
0.0902	308.15	0.0007645	1.6e-05
0.0959	308.15	0.0007686	1.6e-05
0.101	308.15	0.0007716	1.61e-05
0.1154	308.15	0.0007769	1.62e-05

System: sodium valproate + sodium chloride + water; phases: Liquid
Fixed: Solvent: Molality, mol/kg of sodium chloride = 0.06
Fixed: Pressure, kPa = 101.3
Property: Mass density, kg/m3 (Liquid); method: Pycnometric method
Molality, mol/kg of sodium valproate	Temperature, K	Mass density, kg/m3	uncertainty
0	288.15	1001.64	0.45
0.0101	288.15	1002.02	0.45
0.0204	288.15	1002.43	0.45
0.0271	288.15	1002.68	0.45
0.0404	288.15	1003.17	0.45
0.0525	288.15	1003.61	0.45
0.0611	288.15	1003.95	0.45
0.0703	288.15	1004.25	0.45
0.0817	288.15	1004.67	0.45
0.0925	288.15	1005.04	0.45
0.0942	288.15	1005.09	0.45
0.1009	288.15	1005.33	0.45
0.1158	288.15	1005.85	0.46
0	298.15	999.52	0.45
0.0101	298.15	999.9	0.45
0.0204	298.15	1000.29	0.45
0.0271	298.15	1000.52	0.45
0.0404	298.15	1001.02	0.45
0.0525	298.15	1001.45	0.45
0.0611	298.15	1001.74	0.45
0.0703	298.15	1002.07	0.45
0.0817	298.15	1002.45	0.45
0.0872	298.15	1002.66	0.45
0.0925	298.15	1002.82	0.45
0.1009	298.15	1003.12	0.45
0.1124	298.15	1003.51	0.45
0	308.15	996.46	0.48
0.01	308.15	996.84	0.48
0.0199	308.15	997.18	0.48
0.0299	308.15	997.56	0.48
0.04	308.15	997.92	0.48
0.0493	308.15	998.27	0.48
0.0607	308.15	998.67	0.48
0.0711	308.15	999.01	0.48
0.0809	308.15	999.35	0.48
0.0915	308.15	999.72	0.48
0.0962	308.15	999.87	0.48
0.1005	308.15	1000.01	0.48
0.1124	308.15	1000.42	0.48

System: sodium valproate + sodium chloride + water; phases: Liquid
Fixed: Solvent: Molality, mol/kg of sodium chloride = 0.06
Fixed: Pressure, kPa = 101.3
Property: Viscosity, Pa*s (Liquid); method: Capillary tube (Ostwald; Ubbelohde) method
Molality, mol/kg of sodium valproate	Temperature, K	Viscosity, Pa*s	uncertainty
0	288.15	0.0011462	2.42e-05
0.0101	288.15	0.0011589	2.44e-05
0.0204	288.15	0.0011692	2.46e-05
0.0271	288.15	0.0011777	2.48e-05
0.0404	288.15	0.0011914	2.51e-05
0.0525	288.15	0.0012052	2.54e-05
0.0611	288.15	0.0012136	2.56e-05
0.0703	288.15	0.0012264	2.58e-05
0.0817	288.15	0.0012387	2.61e-05
0.0925	288.15	0.001252	2.64e-05
0.0942	288.15	0.0012547	2.64e-05
0.1009	288.15	0.0012612	2.66e-05
0.1158	288.15	0.0012769	2.69e-05
0	298.15	0.000896	1.89e-05
0.0101	298.15	0.0009055	1.91e-05
0.0204	298.15	0.0009131	1.93e-05
0.0271	298.15	0.0009189	1.94e-05
0.0404	298.15	0.0009303	1.96e-05
0.0525	298.15	0.00094	1.98e-05
0.0611	298.15	0.0009484	2e-05
0.0703	298.15	0.0009573	2.02e-05
0.0817	298.15	0.0009664	2.04e-05
0.0872	298.15	0.0009713	2.05e-05
0.0925	298.15	0.0009754	2.06e-05
0.1009	298.15	0.0009823	2.07e-05
0.1124	298.15	0.0009915	2.09e-05
0	308.15	0.0007233	1.53e-05
0.01	308.15	0.0007279	1.54e-05
0.0199	308.15	0.0007349	1.56e-05
0.0299	308.15	0.0007401	1.57e-05
0.04	308.15	0.0007453	1.58e-05
0.0493	308.15	0.0007491	1.59e-05
0.0607	308.15	0.0007542	1.6e-05
0.0711	308.15	0.0007601	1.61e-05
0.0809	308.15	0.000766	1.62e-05
0.0915	308.15	0.0007706	1.63e-05
0.0962	308.15	0.0007729	1.64e-05
0.1005	308.15	0.0007765	1.64e-05
0.1124	308.15	0.000783	1.66e-05

System: D-glucose + sodium valproate + water; phases: Liquid
Fixed: Solvent: Molality, mol/kg of D-glucose = 0.06
Fixed: Pressure, kPa = 101.3
Property: Mass density, kg/m3 (Liquid); method: Pycnometric method
Molality, mol/kg of sodium valproate	Temperature, K	Mass density, kg/m3	uncertainty
0	288.15	1003.25	0.45
0.0104	288.15	1003.68	0.45
0.0214	288.15	1004.11	0.45
0.0304	288.15	1004.43	0.45
0.0436	288.15	1004.93	0.45
0.0567	288.15	1005.4	0.45
0.06	288.15	1005.49	0.45
0.0701	288.15	1005.85	0.46
0.0814	288.15	1006.23	0.46
0.0904	288.15	1006.57	0.46
0.0956	288.15	1006.73	0.46
0.1096	288.15	1007.2	0.46
0.1235	288.15	1007.67	0.46
0	298.15	1001.17	0.45
0.0104	298.15	1001.59	0.45
0.0268	298.15	1002.18	0.45
0.0304	298.15	1002.3	0.45
0.0436	298.15	1002.78	0.45
0.0567	298.15	1003.23	0.45
0.06	298.15	1003.37	0.45
0.0701	298.15	1003.69	0.45
0.0814	298.15	1004.11	0.45
0.0898	298.15	1004.38	0.45
0.0956	298.15	1004.56	0.46
0.1096	298.15	1005.05	0.46
0.1245	298.15	1005.54	0.46
0	308.15	998.15	0.48
0.0113	308.15	998.55	0.48
0.02	308.15	998.88	0.48
0.0302	308.15	999.22	0.48
0.0401	308.15	999.57	0.48
0.05	308.15	999.94	0.48
0.0605	308.15	1000.28	0.48
0.0709	308.15	1000.65	0.48
0.0809	308.15	1000.98	0.48
0.09	308.15	1001.29	0.48
0.0952	308.15	1001.45	0.48
0.1004	308.15	1001.62	0.48
0.1124	308.15	1002.02	0.48

System: D-glucose + sodium valproate + water; phases: Liquid
Fixed: Solvent: Molality, mol/kg of D-glucose = 0.06
Fixed: Pressure, kPa = 101.3
Property: Viscosity, Pa*s (Liquid); method: Capillary tube (Ostwald; Ubbelohde) method
Molality, mol/kg of sodium valproate	Temperature, K	Viscosity, Pa*s	uncertainty
0	288.15	0.0011737	2.47e-05
0.0104	288.15	0.0011891	2.51e-05
0.0214	288.15	0.0012013	2.53e-05
0.0304	288.15	0.0012154	2.56e-05
0.0436	288.15	0.0012308	2.59e-05
0.0567	288.15	0.0012494	2.63e-05
0.06	288.15	0.0012521	2.64e-05
0.0701	288.15	0.001266	2.67e-05
0.0814	288.15	0.0012805	2.7e-05
0.0904	288.15	0.0012896	2.72e-05
0.0956	288.15	0.0012991	2.74e-05
0.1096	288.15	0.0013176	2.77e-05
0.1235	288.15	0.001331	2.8e-05
0	298.15	0.0009111	1.92e-05
0.0104	298.15	0.0009215	1.95e-05
0.0268	298.15	0.0009356	1.98e-05
0.0304	298.15	0.0009404	1.99e-05
0.0436	298.15	0.0009514	2.01e-05
0.0567	298.15	0.0009627	2.03e-05
0.06	298.15	0.0009651	2.04e-05
0.0701	298.15	0.0009746	2.06e-05
0.0814	298.15	0.0009837	2.08e-05
0.0898	298.15	0.0009927	2.1e-05
0.0956	298.15	0.0009985	2.11e-05
0.1096	298.15	0.0010109	2.13e-05
0.1245	298.15	0.0010233	2.16e-05
0	308.15	0.0007299	1.55e-05
0.0113	308.15	0.0007365	1.56e-05
0.02	308.15	0.000743	1.57e-05
0.0302	308.15	0.0007486	1.58e-05
0.0401	308.15	0.0007542	1.6e-05
0.05	308.15	0.0007593	1.61e-05
0.0605	308.15	0.0007646	1.62e-05
0.0709	308.15	0.000771	1.63e-05
0.0809	308.15	0.0007774	1.65e-05
0.09	308.15	0.0007817	1.65e-05
0.0952	308.15	0.0007844	1.66e-05
0.1004	308.15	0.0007879	1.67e-05
0.1124	308.15	0.0007943	1.68e-05

System: sodium chloride + water; phases: Liquid
Fixed: Molality, mol/kg of sodium chloride = 0.06
Fixed: Pressure, kPa = 101.3
Property: Mass density, kg/m3 (Liquid); method: Pycnometric method
Temperature, K	Mass density, kg/m3	uncertainty
288.15	1001.64	0.45
298.15	999.52	0.45
308.15	996.46	0.48

System: sodium chloride + water; phases: Liquid
Fixed: Molality, mol/kg of sodium chloride = 0.06
Fixed: Pressure, kPa = 101.3
Property: Viscosity, Pa*s (Liquid); method: Capillary tube (Ostwald; Ubbelohde) method
Temperature, K	Viscosity, Pa*s	uncertainty
288.15	0.0011462	2.42e-05
298.15	0.000896	1.89e-05
308.15	0.0007233	1.53e-05

System: D-glucose + water; phases: Liquid
Fixed: Molality, mol/kg of D-glucose = 0.06
Fixed: Pressure, kPa = 101.3
Property: Mass density, kg/m3 (Liquid); method: Pycnometric method
Temperature, K	Mass density, kg/m3	uncertainty
288.15	1003.25	0.45
298.15	1001.17	0.45
308.15	998.15	0.48

System: D-glucose + water; phases: Liquid
Fixed: Molality, mol/kg of D-glucose = 0.06
Fixed: Pressure, kPa = 101.3
Property: Viscosity, Pa*s (Liquid); method: Capillary tube (Ostwald; Ubbelohde) method
Temperature, K	Viscosity, Pa*s	uncertainty
288.15	0.0011737	2.47e-05
298.15	0.0009111	1.92e-05
308.15	0.0007299	1.55e-05
