Measured thermophysical data. Calorimetric study and thermal analysis of crystalline 2,4-dinitrobenzaldehyde (C7H4N2O5)
Source: J. Chem. Thermodyn., 2005, 10.1016/j.jct.2004.09.018
Compound 1: 2,4-dinitrobenzaldehyde, C7H4N2O5, InChI=1S/C7H4N2O5/c10-4-5-1-2-6(8(11)12)3-7(5)9(13)14/h1-4H, purity 98%

System: 2,4-dinitrobenzaldehyde; phases: Crystal, Liquid, Air at 1 atmosphere
Property: Molar enthalpy of transition or fusion, kJ/mol (Crystal); method: ADIACA:UFactor:16:FP
Molar enthalpy of transition or fusion, kJ/mol	uncertainty
21.177	0.276

System: 2,4-dinitrobenzaldehyde; phases: Crystal, Liquid, Air at 1 atmosphere
Property: Triple point temperature, K (Crystal); method: ADIACA:UFactor:16:FP
Triple point temperature, K	uncertainty
344.91	0.64

System: 2,4-dinitrobenzaldehyde; phases: Crystal
Fixed: Pressure, kPa = 101.325
Property: Molar heat capacity at constant pressure, J/K/mol (Crystal); method: VADIAC:UFactor:16
Temperature, K	Molar heat capacity at constant pressure, J/K/mol	uncertainty
78.064	18.669	0.95866
79.997	19.773	0.9861
80.91	20.324	0.9994
82.539	21.075	1.01852
85.261	22.236	1.04679
87.462	22.9	1.06342
89.503	23.635	1.08171
91.383	24.463	2.78202
93.209	24.83	2.78618
94.981	25.29	2.792
96.7	25.842	2.79865
98.418	26.883	2.81195
100.083	26.98	2.81279
101.76	28.105	2.82692
103.393	28.436	2.83108
105.003	28.621	2.83357
106.582	28.901	2.8369
108.145	29.073	2.83939
109.681	30.373	2.85519
111.196	30.486	2.85685
112.686	30.465	2.85602
114.18	31.077	2.8635
115.64	31.433	2.86849
117.09	32.013	2.87514
118.486	32.498	2.8818
119.865	32.885	2.88595
121.243	33.368	2.8926
122.586	33.466	2.89344
123.929	34.531	2.90674
125.271	34.531	2.90674
126.614	35.111	2.91422
127.956	35.789	2.92254
129.299	36.37	2.92919
130.695	36.176	2.92669
132.092	36.273	2.92836
133.434	37.338	2.94166
134.813	37.628	2.94499
136.173	37.144	2.93917
137.588	37.919	2.94831
138.968	37.366	2.94166
140.338	37.474	2.94332
141.695	37.078	2.93833
143.044	37.044	2.9375
144.37	37.537	2.94415
145.679	37.822	2.94748
146.968	37.822	2.94748
148.251	38.918	2.96078
149.521	39.159	2.96411
150.78	38.257	2.95247
152.026	39.816	2.97242
153.252	40.532	2.98074
154.487	40.726	2.98323
155.722	40.92	2.98573
156.958	41.597	2.99404
158.193	41.597	2.99404
159.409	42.392	3.00402
160.672	43.199	3.014
161.895	43.202	3.014
163.148	43.805	3.02148
164.369	44.114	3.02564
165.604	44.695	3.03229
166.786	45.276	3.03977
167.967	45.567	3.0431
169.198	45.946	3.04809
171.644	46.171	3.05058
175.318	46.704	3.05723
178.526	47.502	3.06721
181.573	47.764	3.07053
184.509	49.492	3.09215
187.409	49.492	3.09215
190.273	51.22	3.11377
193.044	52.125	3.12458
195.572	52.73	3.13206
198.418	54.376	3.15285
201.086	55.416	3.16532
202.704	55.048	3.16116
206.17	56.404	3.17779
208.819	57.145	3.18694
211.469	56.898	3.18361
214.011	58.625	3.20523
216.517	60.847	3.23267
219.023	60.106	3.22352
221.601	60.6	3.23017
224.287	61.835	3.24514
226.793	62.822	3.25761
229.299	62.822	3.25761
231.805	64.056	3.27258
234.365	65.175	3.28671
236.8	66.36	3.30085
239.163	67.376	3.31415
241.634	68.901	3.33244
243.961	70.596	3.35406
246.145	72.459	3.37651
248.508	72.629	3.379
250.871	73.645	3.39147
253.127	75.847	3.41891
255.454	78.05	3.44635
257.745	79.405	3.46298
260.001	80.421	3.47545
262.292	81.099	3.48376
265.371	83.469	3.517
266.839	84.658	3.5253
269.059	86.52	3.5503
271.279	88.549	3.5752
273.499	90.927	3.6085
275.719	93.297	3.6334
277.903	94.993	3.6584
280.123	96.348	3.675
282.235	98.884	3.7083
284.455	100.75	3.7249
286.532	101.94	3.7415
288.751	103.12	3.7581
290.864	105.15	3.7831
293.048	105.66	3.7914
295.089	108.2	3.8163
297.165	110.92	3.8496
299.242	112.78	3.8745
301.247	116	3.9161
303.252	118.56	3.9494
305.328	120.3	3.966
307.301	122.62	3.9993
309.274	124.17	4.0159
311.247	125.72	4.0408
313.22	128.04	4.0658
315.244	130.3	4.0907
317.165	132.69	4.124
319.117	135.33	4.1572
321.071	136.59	4.1739
322.98	138.88	4.1988
324.906	141.63	4.2321
326.822	144.41	4.2653
328.665	147.92	4.3152
330.545	151.7	4.3568
332.428	154.77	4.3984
334.194	158.54	4.4399
335.921	161.76	4.4815
337.65	165.54	4.5314
339.38	169.32	4.5813
341.034	173.09	4.6228

System: 2,4-dinitrobenzaldehyde; phases: Liquid
Fixed: Pressure, kPa = 101.325
Property: Molar heat capacity at constant pressure, J/K/mol (Liquid); method: VADIAC:UFactor:16
Temperature, K	Molar heat capacity at constant pressure, J/K/mol	uncertainty
348.1	300.29	6.2026
349.694	307.08	6.2857
351.288	313.48	6.3606
352.838	317.48	6.4105
354.367	327.47	6.5352
355.873	334.28	6.6183
357.336	342.27	6.7181
358.755	344.27	6.743
360.218	349.07	6.8012
361.507	354.26	6.8678
362.751	357.86	6.9176
363.93	367.87	7.0424
365.066	373.86	7.1172
366.135	381.06	7.2003
367.118	389.86	7.3167
