Measured thermophysical data. Standard molar enthalpies of formation of three N-benzoylthiocarbamic-O-alkylesters
Source: J. Chem. Thermodyn., 2004, 10.1016/j.jct.2004.03.004
Compound 1: sulfuric acid, H2O4S, InChI=1S/H2O4S/c1-5(2,3)4/h(H2,1,2,3,4)
Compound 2: carbon dioxide, CO2, InChI=1S/CO2/c2-1-3
Compound 3: nitrogen, N2, InChI=1S/N2/c1-2
Compound 4: water, H2O, InChI=1S/H2O/h1H2
Compound 5: oxygen, O2, InChI=1S/O2/c1-2
Compound 6: N-benzoylthiocarbamic-o-hexyl ester, C14H19NO2S, InChI=1S/C14H19NO2S/c1-2-3-4-8-11-17-14(18)15-13(16)12-9-6-5-7-10-12/h5-7,9-10H,2-4,8,11H2,1H3,(H,15,16,18)
Compound 7: N-benzoylthiocarbamic-o-butylester, C12H15NO2S, InChI=1S/C12H15NO2S/c1-2-3-9-15-12(16)13-11(14)10-7-5-4-6-8-10/h4-8H,2-3,9H2,1H3,(H,13,14,16)
Compound 8: N-benzoylthiocarbamic-o-ethyl ester, C10H11NO2S, InChI=1S/C10H11NO2S/c1-2-13-10(14)11-9(12)8-6-4-3-5-7-8/h3-7H,2H2,1H3,(H,11,12,14)

System: N-benzoylthiocarbamic-o-hexyl ester; phases: Gas
Property: Molar enthalpy, kJ/mol (Gas); method: Drop calorimetry
Temperature, K	Pressure, kPa	Molar enthalpy, kJ/mol	uncertainty
375	100	164.4	3.8

System: N-benzoylthiocarbamic-o-butylester; phases: Gas
Property: Molar enthalpy, kJ/mol (Gas); method: Drop calorimetry
Temperature, K	Pressure, kPa	Molar enthalpy, kJ/mol	uncertainty
375	100	141.5	3.3

System: N-benzoylthiocarbamic-o-ethyl ester; phases: Gas
Property: Molar enthalpy, kJ/mol (Gas); method: Drop calorimetry
Temperature, K	Pressure, kPa	Molar enthalpy, kJ/mol	uncertainty
375	100	129.2	3

Reaction: 1 sulfuric acid + -1 N-benzoylthiocarbamic-o-hexyl ester + 14 carbon dioxide + .5 nitrogen + 8.5 water + -19.25 oxygen
Property: Specific internal energy of reaction at constant volume, J/g
-31667.4

Reaction: 1 sulfuric acid + -1 N-benzoylthiocarbamic-o-butylester + 12 carbon dioxide + .5 nitrogen + 6.5 water + -16.25 oxygen
Property: Specific internal energy of reaction at constant volume, J/g
-29894.6

Reaction: 1 sulfuric acid + -1 N-benzoylthiocarbamic-o-ethyl ester + 10 carbon dioxide + .5 nitrogen + 4.5 water + -13.25 oxygen
Property: Specific internal energy of reaction at constant volume, J/g
-27610.5
