Measured thermophysical data. Vaporization in the Ga2O3-ZnO system by high temperature mass spectrometry
Source: J. Chem. Thermodyn., 2017, 10.1016/j.jct.2017.07.009
Compound 1: gallium, Ga, InChI=1S/Ga
Compound 2: zinc, Zn, InChI=1S/Zn
Compound 3: oxygen, O2, InChI=1S/O2/c1-2
Compound 4: zinc(II) oxide, OZn, InChI=1S/O.Zn/q-2;+2, purity 99.99%
Compound 5: gallium zinc oxide (ZnGa2O4), Ga2O4Zn, InChI=1S/2Ga.4O.Zn/q2*+3;4*-2;+2

System: zinc(II) oxide; phases: Crystal, Gas
Property: Vapor or sublimation pressure, kPa (Crystal); method: Calculated from knudsen effusion weight loss
Temperature, K	Vapor or sublimation pressure, kPa	uncertainty
1410	0.00842	0.00499

Reaction: -2 gallium + -1 zinc + 1 gallium zinc oxide (ZnGa2O4) + -2 oxygen
Property: Molar enthalpy of reaction, kJ/mol
-1472.8
