Measured thermophysical data. Thermodynamic models for determination of the solid-liquid equilibrium of istradefylline in ethyl acetate plus (isopropanol, tetrahydrofuran, acetone) binary solvent mixtures
Source: J. Chem. Thermodyn., 2017, 10.1016/j.jct.2017.03.015
Compound 1: Istradefylline, C20H24N4O4, InChI=1S/C20H24N4O4/c1-6-23-18-17(19(25)24(7-2)20(23)26)22(3)16(21-18)11-9-13-8-10-14(27-4)15(12-13)28-5/h8-12H,6-7H2,1-5H3/b11-9+, purity 99%
Compound 2: ethyl acetate, C4H8O2, InChI=1S/C4H8O2/c1-3-6-4(2)5/h3H2,1-2H3, purity 99.5%
Compound 3: propan-2-ol, C3H8O, InChI=1S/C3H8O/c1-3(2)4/h3-4H,1-2H3, purity 99.7%
Compound 4: tetrahydrofuran, C4H8O, InChI=1S/C4H8O/c1-2-4-5-3-1/h1-4H2, purity 99.5%
Compound 5: acetone, C3H6O, InChI=1S/C3H6O/c1-3(2)4/h1-2H3, purity 99.7%

System: propan-2-ol + ethyl acetate + Istradefylline; phases: Liquid, Crystal
Fixed: Pressure, kPa = 101.3
Property: Mole fraction of Istradefylline (Liquid); method: Gravimetric method
Temperature, K	Solvent: Mole fraction of ethyl acetate	Mole fraction of Istradefylline	uncertainty
278.15	0	0.0959	0.0096
278.15	0.065	0.0807	0.0081
278.15	0.181	0.0699	0.0071
278.15	0.336	0.0522	0.0057
278.15	0.469	0.0391	0.0045
278.15	0.631	0.0286	0.0031
278.15	0.85	0.0201	0.0021
278.15	1	0.0116	0.0012
283.15	0	0.1125	0.0113
283.15	0.065	0.0931	0.0094
283.15	0.181	0.0802	0.0081
283.15	0.336	0.0604	0.0065
283.15	0.469	0.0464	0.0053
283.15	0.631	0.0334	0.0036
283.15	0.85	0.023	0.0024
283.15	1	0.0132	0.0013
288.15	0	0.1297	0.013
288.15	0.065	0.1078	0.0108
288.15	0.181	0.0932	0.0095
288.15	0.336	0.0706	0.0076
288.15	0.469	0.0527	0.0061
288.15	0.631	0.0378	0.0041
288.15	0.85	0.0271	0.0028
288.15	1	0.0153	0.0015
293.15	0	0.1486	0.0149
293.15	0.065	0.1232	0.0124
293.15	0.181	0.1063	0.0108
293.15	0.336	0.0803	0.0087
293.15	0.469	0.0608	0.007
293.15	0.631	0.0441	0.0047
293.15	0.85	0.0313	0.0032
293.15	1	0.0177	0.0018
298.15	0	0.1719	0.0172
298.15	0.065	0.1405	0.0141
298.15	0.181	0.1196	0.0121
298.15	0.336	0.0913	0.0098
298.15	0.469	0.0687	0.008
298.15	0.631	0.049	0.0052
298.15	0.85	0.0368	0.0037
298.15	1	0.0203	0.002
303.15	0	0.1969	0.0197
303.15	0.065	0.1603	0.0161
303.15	0.181	0.1359	0.0138
303.15	0.336	0.1038	0.0111
303.15	0.469	0.0789	0.009
303.15	0.631	0.0574	0.0061
303.15	0.85	0.0409	0.0042
303.15	1	0.0233	0.0023
308.15	0	0.2258	0.0226
308.15	0.065	0.1824	0.0183
308.15	0.181	0.1535	0.0156
308.15	0.336	0.1178	0.0127
308.15	0.469	0.0876	0.01
308.15	0.631	0.0658	0.007
308.15	0.85	0.0472	0.0048
308.15	1	0.0265	0.0027
313.15	0	0.2562	0.0257
313.15	0.065	0.2076	0.0209
313.15	0.181	0.1752	0.0178
313.15	0.336	0.1342	0.0144
313.15	0.469	0.1001	0.0115
313.15	0.631	0.0748	0.0079
313.15	0.85	0.0539	0.0055
313.15	1	0.0301	0.003
318.15	0	0.2874	0.0288
318.15	0.065	0.2335	0.0235
318.15	0.181	0.1976	0.0201
318.15	0.336	0.1528	0.0164
318.15	0.469	0.1118	0.0129
318.15	0.631	0.0845	0.0089
318.15	0.85	0.0621	0.0063
318.15	1	0.034	0.0034
323.15	0	0.3327	0.0333
323.15	0.065	0.2674	0.0269
323.15	0.181	0.2239	0.0227
323.15	0.336	0.1743	0.0187
323.15	0.469	0.1263	0.0147
323.15	0.631	0.0942	0.01
323.15	0.85	0.0704	0.0072
323.15	1	0.0383	0.0038
328.15	0	0.3671	0.0368
328.15	0.065	0.3019	0.0303
328.15	0.181	0.2438	0.0247
328.15	0.336	0.1981	0.0211
328.15	0.469	0.1414	0.0166
328.15	0.631	0.1058	0.0111
328.15	0.85	0.0802	0.0082
328.15	1	0.043	0.0043
333.15	0	0.4233	0.0424
333.15	0.065	0.3429	0.0345
333.15	0.181	0.268	0.0273
333.15	0.336	0.2141	0.0227
333.15	0.469	0.1611	0.0184
333.15	0.631	0.1209	0.0128
333.15	0.85	0.0919	0.0094
333.15	1	0.0481	0.0048

System: tetrahydrofuran + ethyl acetate + Istradefylline; phases: Liquid, Crystal
Fixed: Pressure, kPa = 101.3
Property: Mole fraction of Istradefylline (Liquid); method: Gravimetric method
Temperature, K	Solvent: Mole fraction of ethyl acetate	Mole fraction of Istradefylline	uncertainty
278.15	0	0.0978	0.0098
278.15	0.078	0.0871	0.0087
278.15	0.194	0.0764	0.0078
278.15	0.351	0.0579	0.0063
278.15	0.484	0.0433	0.0049
278.15	0.648	0.0338	0.0036
278.15	0.861	0.0208	0.0022
278.15	1	0.0116	0.0012
283.15	0	0.1141	0.0114
283.15	0.078	0.1014	0.0102
283.15	0.194	0.0867	0.0088
283.15	0.351	0.0658	0.0071
283.15	0.484	0.0501	0.0056
283.15	0.648	0.0394	0.0042
283.15	0.861	0.0251	0.0026
283.15	1	0.0132	0.0013
288.15	0	0.1316	0.0132
288.15	0.078	0.116	0.0116
288.15	0.194	0.1004	0.0102
288.15	0.351	0.0764	0.0083
288.15	0.484	0.0569	0.0065
288.15	0.648	0.0448	0.0048
288.15	0.861	0.0289	0.003
288.15	1	0.0153	0.0015
293.15	0	0.1502	0.015
293.15	0.078	0.1305	0.0131
293.15	0.194	0.1138	0.0115
293.15	0.351	0.0874	0.0094
293.15	0.484	0.0658	0.0075
293.15	0.648	0.0508	0.0054
293.15	0.861	0.0346	0.0036
293.15	1	0.0177	0.0018
298.15	0	0.1696	0.017
298.15	0.078	0.1482	0.0149
298.15	0.194	0.1288	0.0131
298.15	0.351	0.0985	0.0106
298.15	0.484	0.0743	0.0084
298.15	0.648	0.0582	0.0061
298.15	0.861	0.0397	0.0041
298.15	1	0.0203	0.002
303.15	0	0.1949	0.0195
303.15	0.078	0.1697	0.017
303.15	0.194	0.1445	0.0147
303.15	0.351	0.1119	0.012
303.15	0.484	0.0844	0.0096
303.15	0.648	0.0651	0.0068
303.15	0.861	0.0468	0.0048
303.15	1	0.0233	0.0023
308.15	0	0.2199	0.022
308.15	0.078	0.1937	0.0194
308.15	0.194	0.1625	0.0165
308.15	0.351	0.1245	0.0133
308.15	0.484	0.0981	0.0109
308.15	0.648	0.0753	0.0079
308.15	0.861	0.0532	0.0054
308.15	1	0.0265	0.0027
313.15	0	0.2482	0.0249
313.15	0.078	0.2158	0.0217
313.15	0.194	0.1834	0.0186
313.15	0.351	0.1412	0.0151
313.15	0.484	0.1099	0.0124
313.15	0.648	0.0812	0.0086
313.15	0.861	0.0607	0.0062
313.15	1	0.0301	0.003
318.15	0	0.2776	0.0278
318.15	0.078	0.2417	0.0243
318.15	0.194	0.2058	0.0209
318.15	0.351	0.1598	0.0171
318.15	0.484	0.1224	0.0138
318.15	0.648	0.0932	0.0098
318.15	0.861	0.0708	0.0072
318.15	1	0.034	0.0034
323.15	0	0.3156	0.0316
323.15	0.078	0.2735	0.0275
323.15	0.194	0.2314	0.0235
323.15	0.351	0.1812	0.0194
323.15	0.484	0.1363	0.0156
323.15	0.648	0.1039	0.0108
323.15	0.861	0.0805	0.0082
323.15	1	0.0383	0.0038
328.15	0	0.347	0.0347
328.15	0.078	0.3034	0.0305
328.15	0.194	0.2598	0.0264
328.15	0.351	0.2032	0.0217
328.15	0.484	0.1557	0.0178
328.15	0.648	0.1153	0.0121
328.15	0.861	0.0916	0.0093
328.15	1	0.043	0.0043
333.15	0	0.4004	0.0401
333.15	0.078	0.3466	0.0348
333.15	0.194	0.2828	0.0287
333.15	0.351	0.2287	0.0242
333.15	0.484	0.1757	0.02
333.15	0.648	0.1306	0.0137
333.15	0.861	0.1046	0.0106
333.15	1	0.0481	0.0048

System: acetone + ethyl acetate + Istradefylline; phases: Liquid, Crystal
Fixed: Pressure, kPa = 101.3
Property: Mole fraction of Istradefylline (Liquid); method: Gravimetric method
Temperature, K	Solvent: Mole fraction of ethyl acetate	Mole fraction of Istradefylline	uncertainty
278.15	0	0.0946	0.0095
278.15	0.089	0.0795	0.008
278.15	0.206	0.0679	0.0069
278.15	0.363	0.0552	0.0059
278.15	0.496	0.0424	0.005
278.15	0.655	0.0289	0.0031
278.15	0.874	0.0195	0.002
278.15	1	0.0116	0.0012
283.15	0	0.1111	0.0111
283.15	0.089	0.0925	0.0093
283.15	0.206	0.0775	0.0079
283.15	0.363	0.0618	0.0066
283.15	0.496	0.0475	0.0056
283.15	0.655	0.0328	0.0035
283.15	0.874	0.023	0.0023
283.15	1	0.0132	0.0013
288.15	0	0.1271	0.0127
288.15	0.089	0.1054	0.0106
288.15	0.206	0.0887	0.009
288.15	0.363	0.0715	0.0076
288.15	0.496	0.0546	0.0065
288.15	0.655	0.0371	0.004
288.15	0.874	0.0268	0.0027
288.15	1	0.0153	0.0015
293.15	0	0.1458	0.0146
293.15	0.089	0.1193	0.012
293.15	0.206	0.0989	0.0101
293.15	0.363	0.0797	0.0085
293.15	0.496	0.0605	0.0072
293.15	0.655	0.0418	0.0045
293.15	0.874	0.0304	0.0031
293.15	1	0.0177	0.0018
298.15	0	0.1674	0.0168
298.15	0.089	0.1352	0.0136
298.15	0.206	0.1104	0.0112
298.15	0.363	0.0892	0.0095
298.15	0.496	0.0672	0.008
298.15	0.655	0.0468	0.005
298.15	0.874	0.0343	0.0035
298.15	1	0.0203	0.002
303.15	0	0.1911	0.0191
303.15	0.089	0.1531	0.0154
303.15	0.206	0.1239	0.0126
303.15	0.363	0.1002	0.0106
303.15	0.496	0.0765	0.0091
303.15	0.655	0.0523	0.0056
303.15	0.874	0.0386	0.0039
303.15	1	0.0233	0.0023
308.15	0	0.2186	0.0219
308.15	0.089	0.1734	0.0175
308.15	0.206	0.1386	0.0141
308.15	0.363	0.1117	0.0119
308.15	0.496	0.0849	0.0101
308.15	0.655	0.0582	0.0062
308.15	0.874	0.0433	0.0044
308.15	1	0.0265	0.0027
313.15	0	0.2484	0.0249
313.15	0.089	0.1955	0.0197
313.15	0.206	0.1548	0.0158
313.15	0.363	0.1252	0.0133
313.15	0.496	0.0954	0.0114
313.15	0.655	0.0646	0.0069
313.15	0.874	0.0483	0.0049
313.15	1	0.0301	0.003
318.15	0	0.2847	0.0285
318.15	0.089	0.2213	0.0223
318.15	0.206	0.1725	0.0176
318.15	0.363	0.1397	0.0149
318.15	0.496	0.1051	0.0126
318.15	0.655	0.0714	0.0076
318.15	0.874	0.0538	0.0054
318.15	1	0.034	0.0034
323.15	0	0.3224	0.0323
323.15	0.089	0.2491	0.0252
323.15	0.206	0.1927	0.0197
323.15	0.363	0.1564	0.0167
323.15	0.496	0.1155	0.014
323.15	0.655	0.0787	0.0084
323.15	0.874	0.0597	0.006
323.15	1	0.0383	0.0038
328.15	0	0.3647	0.0365
328.15	0.089	0.2805	0.0283
328.15	0.206	0.2134	0.0218
328.15	0.363	0.1753	0.0187
328.15	0.496	0.1282	0.0157
328.15	0.655	0.0865	0.0093
328.15	0.874	0.066	0.0067
328.15	1	0.043	0.0043
333.15	0	0.403	0.0403
333.15	0.089	0.3148	0.0318
333.15	0.206	0.2316	0.0238
333.15	0.363	0.1935	0.0205
333.15	0.496	0.1415	0.0172
333.15	0.655	0.0967	0.0104
333.15	0.874	0.0718	0.0073
333.15	1	0.0481	0.0048

System: ethyl acetate + Istradefylline; phases: Liquid, Crystal
Fixed: Pressure, kPa = 101.3
Property: Mole fraction of Istradefylline (Liquid); method: Gravimetric method
Temperature, K	Mole fraction of Istradefylline	uncertainty
278.15	0.0116	0.0012
283.15	0.0132	0.0013
288.15	0.0153	0.0015
293.15	0.0177	0.0018
298.15	0.0203	0.002
303.15	0.0233	0.0023
308.15	0.0265	0.0027
313.15	0.0301	0.003
318.15	0.034	0.0034
323.15	0.0383	0.0038
328.15	0.043	0.0043
333.15	0.0481	0.0048

System: propan-2-ol + Istradefylline; phases: Liquid, Crystal
Fixed: Pressure, kPa = 101.3
Property: Mole fraction of Istradefylline (Liquid); method: Gravimetric method
Temperature, K	Mole fraction of Istradefylline	uncertainty
278.15	0.0959	0.0096
283.15	0.1125	0.0113
288.15	0.1297	0.013
293.15	0.1486	0.0149
298.15	0.1719	0.0172
303.15	0.1969	0.0197
308.15	0.2258	0.0226
313.15	0.2562	0.0257
318.15	0.2874	0.0288
323.15	0.3327	0.0333
328.15	0.3671	0.0368
333.15	0.4233	0.0424

System: tetrahydrofuran + Istradefylline; phases: Liquid, Crystal
Fixed: Pressure, kPa = 101.3
Property: Mole fraction of Istradefylline (Liquid); method: Gravimetric method
Temperature, K	Mole fraction of Istradefylline	uncertainty
278.15	0.0978	0.0098
283.15	0.1141	0.0114
288.15	0.1316	0.0132
293.15	0.1502	0.015
298.15	0.1696	0.017
303.15	0.1949	0.0195
308.15	0.2199	0.022
313.15	0.2482	0.0249
318.15	0.2776	0.0278
323.15	0.3156	0.0316
328.15	0.347	0.0347
333.15	0.4004	0.0401

System: acetone + Istradefylline; phases: Liquid, Crystal
Fixed: Pressure, kPa = 101.3
Property: Mole fraction of Istradefylline (Liquid); method: Gravimetric method
Temperature, K	Mole fraction of Istradefylline	uncertainty
278.15	0.0946	0.0095
283.15	0.1111	0.0111
288.15	0.1271	0.0127
293.15	0.1458	0.0146
298.15	0.1674	0.0168
303.15	0.1911	0.0191
308.15	0.2186	0.0219
313.15	0.2484	0.0249
318.15	0.2847	0.0285
323.15	0.3224	0.0323
328.15	0.3647	0.0365
333.15	0.403	0.0403
