Measured thermophysical data. Densities and viscosities of binary mixtures of 2,2-diethyl-1,1,3,3-tetramethylguanidinium bis(trifluoromethylsulfonyl)imide with methanol and ethanol
Source: J. Chem. Thermodyn., 2019, 10.1016/j.jct.2019.04.023
Compound 1: N-(bis(dimethylamino)methylene)-N-ethylethanaminium bis((trifluoromethyl)sulfonyl)amide, C11H22F6N4O4S2, InChI=1S/C9H22N3.C2F6NO4S2/c1-7-12(8-2)9(10(3)4)11(5)6;3-1(4,5)14(10,11)9-15(12,13)2(6,7)8/h7-8H2,1-6H3;/q+1;-1
Compound 2: methanol, CH4O, InChI=1S/CH4O/c1-2/h2H,1H3, purity 99.9%
Compound 3: ethanol, C2H6O, InChI=1S/C2H6O/c1-2-3/h3H,2H2,1H3, purity 99.8%

System: N-(bis(dimethylamino)methylene)-N-ethylethanaminium bis((trifluoromethyl)sulfonyl)amide; phases: Liquid
Fixed: Pressure, kPa = 101
Property: Viscosity, Pa*s (Liquid); method: Falling or rolling sphere viscometry
Temperature, K	Viscosity, Pa*s	uncertainty
293.15	0.08102	0.00348
298.15	0.06501	0.00267
303.15	0.05296	0.00214
308.15	0.04384	0.00179
313.15	0.03679	0.00151
318.15	0.03125	0.00128
323.15	0.02679	0.0011

System: N-(bis(dimethylamino)methylene)-N-ethylethanaminium bis((trifluoromethyl)sulfonyl)amide; phases: Liquid
Fixed: Pressure, kPa = 101
Property: Mass density, kg/m3 (Liquid); method: Vibrating tube method
Temperature, K	Mass density, kg/m3	uncertainty
293.15	1377.86	2.8
298.15	1373.16	2.79
303.15	1368.51	2.78
308.15	1363.9	2.77
313.15	1359.32	2.76
318.15	1354.76	2.75
323.15	1350.21	2.74

System: methanol; phases: Liquid
Fixed: Pressure, kPa = 101
Property: Viscosity, Pa*s (Liquid); method: Falling or rolling sphere viscometry
Temperature, K	Viscosity, Pa*s	uncertainty
293.15	0.000584	2.4e-05
298.15	0.000552	2.2e-05
303.15	0.000524	2.1e-05
308.15	0.00049	2e-05
313.15	0.000459	1.9e-05
318.15	0.000439	1.8e-05
323.15	0.000417	1.7e-05

System: methanol; phases: Liquid
Fixed: Pressure, kPa = 101
Property: Mass density, kg/m3 (Liquid); method: Vibrating tube method
Temperature, K	Mass density, kg/m3	uncertainty
293.15	791.3	1.59
298.15	786.6	1.58
303.15	781.87	1.57
308.15	777.12	1.56
313.15	772.34	1.55
318.15	767.52	1.54
323.15	762.67	1.53

System: ethanol; phases: Liquid
Fixed: Pressure, kPa = 101
Property: Viscosity, Pa*s (Liquid); method: Falling or rolling sphere viscometry
Temperature, K	Viscosity, Pa*s	uncertainty
293.15	0.001177	4.8e-05
298.15	0.001074	4.4e-05
303.15	0.000977	4e-05
308.15	0.000888	3.6e-05
313.15	0.000819	3.3e-05
318.15	0.000753	3.1e-05
323.15	0.000697	2.8e-05

System: ethanol; phases: Liquid
Fixed: Pressure, kPa = 101
Property: Mass density, kg/m3 (Liquid); method: Vibrating tube method
Temperature, K	Mass density, kg/m3	uncertainty
293.15	789.53	1.58
298.15	785.25	1.57
303.15	780.93	1.57
308.15	776.58	1.56
313.15	772.19	1.55
318.15	767.75	1.54
323.15	763.27	1.53

System: N-(bis(dimethylamino)methylene)-N-ethylethanaminium bis((trifluoromethyl)sulfonyl)amide + methanol; phases: Liquid
Fixed: Pressure, kPa = 101
Property: Viscosity, Pa*s (Liquid); method: Falling or rolling sphere viscometry
Temperature, K	Mole fraction of N-(bis(dimethylamino)methylene)-N-ethylethanaminium bis((trifluoromethyl)sulfonyl)amide	Viscosity, Pa*s	uncertainty
293.15	0	0.000584	2.4e-05
293.15	0.0999	0.001848	7.8e-05
293.15	0.1984	0.004046	0.00018
293.15	0.3011	0.007913	0.00036
293.15	0.4008	0.01315	0.0006
293.15	0.5055	0.01975	0.0009
293.15	0.5916	0.02614	0.00115
293.15	0.712	0.03744	0.00157
293.15	0.7994	0.04694	0.00194
293.15	0.8995	0.06178	0.00253
293.15	1	0.08102	0.00348
298.15	0	0.000552	2.2e-05
298.15	0.0999	0.001685	7.1e-05
298.15	0.1984	0.003569	0.000158
298.15	0.3011	0.006875	0.000312
298.15	0.4008	0.01136	0.00052
298.15	0.5055	0.01681	0.00076
298.15	0.5916	0.02203	0.00096
298.15	0.712	0.03094	0.00129
298.15	0.7994	0.03851	0.00159
298.15	0.8995	0.04975	0.00204
298.15	1	0.06501	0.00267
303.15	0	0.000524	2.1e-05
303.15	0.0999	0.001538	6.5e-05
303.15	0.1984	0.003198	0.000141
303.15	0.3011	0.00603	0.000272
303.15	0.4008	0.009842	0.000447
303.15	0.5055	0.01447	0.00065
303.15	0.5916	0.01878	0.00081
303.15	0.712	0.02603	0.00109
303.15	0.7994	0.03226	0.00133
303.15	0.8995	0.04113	0.00169
303.15	1	0.05296	0.00214
308.15	0	0.00049	2e-05
308.15	0.0999	0.001413	5.9e-05
308.15	0.1984	0.002949	0.000129
308.15	0.3011	0.005332	0.000239
308.15	0.4008	0.008651	0.000391
308.15	0.5055	0.01259	0.00056
308.15	0.5916	0.01622	0.0007
308.15	0.712	0.0222	0.00092
308.15	0.7994	0.02719	0.00112
308.15	0.8995	0.03431	0.00141
308.15	1	0.04384	0.00179
313.15	0	0.000459	1.9e-05
313.15	0.0999	0.001296	5.4e-05
313.15	0.1984	0.002613	0.000114
313.15	0.3011	0.004749	0.000213
313.15	0.4008	0.007645	0.000345
313.15	0.5055	0.01105	0.00049
313.15	0.5916	0.01412	0.00061
313.15	0.712	0.01915	0.0008
313.15	0.7994	0.02325	0.00096
313.15	0.8995	0.02905	0.00119
313.15	1	0.03679	0.00151
318.15	0	0.000439	1.8e-05
318.15	0.0999	0.0012	5e-05
318.15	0.1984	0.002362	0.000103
318.15	0.3011	0.004261	0.000191
318.15	0.4008	0.006815	0.000306
318.15	0.5055	0.009775	0.000435
318.15	0.5916	0.01243	0.00053
318.15	0.712	0.01669	0.00069
318.15	0.7994	0.02012	0.00083
318.15	0.8995	0.02489	0.00102
318.15	1	0.03125	0.00128
323.15	0	0.000417	1.7e-05
323.15	0.0999	0.001114	4.6e-05
323.15	0.1984	0.002157	9.4e-05
323.15	0.3011	0.003854	0.000172
323.15	0.4008	0.006126	0.000274
323.15	0.5055	0.008704	0.000385
323.15	0.5916	0.01098	0.00047
323.15	0.712	0.01466	0.00061
323.15	0.7994	0.01756	0.00072
323.15	0.8995	0.02156	0.00088
323.15	1	0.02679	0.0011

System: N-(bis(dimethylamino)methylene)-N-ethylethanaminium bis((trifluoromethyl)sulfonyl)amide + methanol; phases: Liquid
Fixed: Pressure, kPa = 101
Property: Mass density, kg/m3 (Liquid); method: Vibrating tube method
Temperature, K	Mole fraction of N-(bis(dimethylamino)methylene)-N-ethylethanaminium bis((trifluoromethyl)sulfonyl)amide	Mass density, kg/m3	uncertainty
293.15	0	791.3	1.59
293.15	0.0999	1073.55	3.22
293.15	0.1984	1186.61	3.16
293.15	0.3011	1249.9	3.09
293.15	0.4008	1288.15	3.01
293.15	0.5055	1315.68	2.98
293.15	0.5916	1332.42	2.8
293.15	0.712	1350.19	2.76
293.15	0.7994	1360.11	2.76
293.15	0.8995	1369.61	2.78
293.15	1	1377.86	2.8
298.15	0	786.6	1.58
298.15	0.0999	1068.63	3.21
298.15	0.1984	1181.69	3.15
298.15	0.3011	1245.05	3.09
298.15	0.4008	1283.31	3
298.15	0.5055	1310.86	2.98
298.15	0.5916	1327.63	2.79
298.15	0.712	1345.44	2.75
298.15	0.7994	1355.37	2.75
298.15	0.8995	1364.9	2.77
298.15	1	1373.16	2.79
303.15	0	781.87	1.57
303.15	0.0999	1063.71	3.2
303.15	0.1984	1176.79	3.14
303.15	0.3011	1240.23	3.08
303.15	0.4008	1278.51	2.99
303.15	0.5055	1306.08	2.97
303.15	0.5916	1322.88	2.78
303.15	0.712	1340.73	2.74
303.15	0.7994	1350.68	2.74
303.15	0.8995	1360.23	2.76
303.15	1	1368.51	2.78
308.15	0	777.12	1.56
308.15	0.0999	1058.79	3.19
308.15	0.1984	1171.9	3.14
308.15	0.3011	1235.43	3.07
308.15	0.4008	1273.73	2.99
308.15	0.5055	1301.33	2.96
308.15	0.5916	1318.16	2.77
308.15	0.712	1336.05	2.73
308.15	0.7994	1346.03	2.73
308.15	0.8995	1355.6	2.75
308.15	1	1363.9	2.77
313.15	0	772.34	1.55
313.15	0.0999	1053.86	3.19
313.15	0.1984	1167.01	3.13
313.15	0.3011	1230.63	3.07
313.15	0.4008	1268.96	2.98
313.15	0.5055	1296.6	2.95
313.15	0.5916	1313.46	2.76
313.15	0.712	1331.4	2.72
313.15	0.7994	1341.4	2.72
313.15	0.8995	1351	2.74
313.15	1	1359.32	2.76
318.15	0	767.52	1.54
318.15	0.0999	1048.89	3.18
318.15	0.1984	1162.1	3.12
318.15	0.3011	1225.81	3.06
318.15	0.4008	1264.19	2.97
318.15	0.5055	1291.87	2.95
318.15	0.5916	1308.77	2.75
318.15	0.712	1326.77	2.71
318.15	0.7994	1336.79	2.71
318.15	0.8995	1346.42	2.73
318.15	1	1354.76	2.75
323.15	0	762.67	1.53
323.15	0.0999	1043.89	3.18
323.15	0.1984	1157.19	3.12
323.15	0.3011	1221	3.05
323.15	0.4008	1259.42	2.97
323.15	0.5055	1287.15	2.94
323.15	0.5916	1304.09	2.75
323.15	0.712	1322.14	2.7
323.15	0.7994	1332.18	2.7
323.15	0.8995	1341.85	2.72
323.15	1	1350.21	2.74

System: N-(bis(dimethylamino)methylene)-N-ethylethanaminium bis((trifluoromethyl)sulfonyl)amide + ethanol; phases: Liquid
Fixed: Pressure, kPa = 101
Property: Viscosity, Pa*s (Liquid); method: Falling or rolling sphere viscometry
Temperature, K	Mole fraction of N-(bis(dimethylamino)methylene)-N-ethylethanaminium bis((trifluoromethyl)sulfonyl)amide	Viscosity, Pa*s	uncertainty
293.15	0	0.001177	4.8e-05
293.15	0.0995	0.002764	0.000115
293.15	0.1987	0.005261	0.000228
293.15	0.299	0.009359	0.00041
293.15	0.3991	0.01381	0.00061
293.15	0.5075	0.02003	0.0009
293.15	0.5956	0.02634	0.00115
293.15	0.7065	0.03642	0.00153
293.15	0.7983	0.04701	0.00194
293.15	0.9106	0.06204	0.00254
293.15	0.951	0.07047	0.00294
293.15	1	0.08102	0.00348
298.15	0	0.001074	4.4e-05
298.15	0.0995	0.002453	0.000102
298.15	0.1987	0.004596	0.000199
298.15	0.299	0.008052	0.000352
298.15	0.3991	0.01182	0.00052
298.15	0.5075	0.01696	0.00076
298.15	0.5956	0.02212	0.00096
298.15	0.7065	0.03022	0.00127
298.15	0.7983	0.03869	0.0016
298.15	0.9106	0.05044	0.00204
298.15	0.951	0.05694	0.00231
298.15	1	0.06501	0.00267
303.15	0	0.000977	4e-05
303.15	0.0995	0.00219	9.1e-05
303.15	0.1987	0.004044	0.000174
303.15	0.299	0.00699	0.000305
303.15	0.3991	0.01023	0.00045
303.15	0.5075	0.01453	0.00065
303.15	0.5956	0.01883	0.00081
303.15	0.7065	0.02547	0.00107
303.15	0.7983	0.03225	0.00133
303.15	0.9106	0.04152	0.0017
303.15	0.951	0.04662	0.00191
303.15	1	0.05296	0.00214
308.15	0	0.000888	3.6e-05
308.15	0.0995	0.001964	8.1e-05
308.15	0.1987	0.003583	0.000154
308.15	0.299	0.006102	0.000266
308.15	0.3991	0.008914	0.000392
308.15	0.5075	0.01257	0.00056
308.15	0.5956	0.01619	0.0007
308.15	0.7065	0.02169	0.00091
308.15	0.7983	0.02729	0.00113
308.15	0.9106	0.03483	0.00143
308.15	0.951	0.03887	0.00159
308.15	1	0.04384	0.00179
313.15	0	0.000819	3.3e-05
313.15	0.0995	0.001773	7.3e-05
313.15	0.1987	0.003195	0.000137
313.15	0.299	0.005364	0.000234
313.15	0.3991	0.007841	0.000344
313.15	0.5075	0.01098	0.00048
313.15	0.5956	0.01408	0.0006
313.15	0.7065	0.01873	0.00078
313.15	0.7983	0.02334	0.00096
313.15	0.9106	0.02946	0.00121
313.15	0.951	0.03273	0.00134
313.15	1	0.03679	0.00151
318.15	0	0.000753	3.1e-05
318.15	0.0995	0.001606	6.7e-05
318.15	0.1987	0.002864	0.000122
318.15	0.299	0.004758	0.000207
318.15	0.3991	0.006927	0.000304
318.15	0.5075	0.009662	0.000426
318.15	0.5956	0.01236	0.00053
318.15	0.7065	0.0163	0.00068
318.15	0.7983	0.02016	0.00083
318.15	0.9106	0.02522	0.00103
318.15	0.951	0.0279	0.00114
318.15	1	0.03125	0.00128
323.15	0	0.000697	2.8e-05
323.15	0.0995	0.001463	6.1e-05
323.15	0.1987	0.002585	0.00011
323.15	0.299	0.004253	0.000184
323.15	0.3991	0.006158	0.000269
323.15	0.5075	0.008555	0.000376
323.15	0.5956	0.01091	0.00047
323.15	0.7065	0.01431	0.0006
323.15	0.7983	0.01759	0.00072
323.15	0.9106	0.02182	0.00089
323.15	0.951	0.02403	0.00098
323.15	1	0.02679	0.0011

System: N-(bis(dimethylamino)methylene)-N-ethylethanaminium bis((trifluoromethyl)sulfonyl)amide + ethanol; phases: Liquid
Fixed: Pressure, kPa = 101
Property: Mass density, kg/m3 (Liquid); method: Vibrating tube method
Temperature, K	Mole fraction of N-(bis(dimethylamino)methylene)-N-ethylethanaminium bis((trifluoromethyl)sulfonyl)amide	Mass density, kg/m3	uncertainty
293.15	0	789.53	1.58
293.15	0.0995	1018.97	2.92
293.15	0.1987	1136.2	3.2
293.15	0.299	1207.9	3.24
293.15	0.3991	1256.11	3.2
293.15	0.5075	1293.66	3.18
293.15	0.5956	1316.86	2.87
293.15	0.7065	1339.41	2.78
293.15	0.7983	1353.71	2.76
293.15	0.9106	1367.67	2.78
293.15	0.951	1372.2	2.79
293.15	1	1377.86	2.8
298.15	0	785.25	1.57
298.15	0.0995	1014.27	2.91
298.15	0.1987	1131.43	3.2
298.15	0.299	1203.13	3.23
298.15	0.3991	1251.35	3.19
298.15	0.5075	1288.9	3.18
298.15	0.5956	1312.11	2.86
298.15	0.7065	1334.68	2.77
298.15	0.7983	1348.98	2.75
298.15	0.9106	1362.96	2.77
298.15	0.951	1367.5	2.78
298.15	1	1373.16	2.79
303.15	0	780.93	1.57
303.15	0.0995	1009.56	2.9
303.15	0.1987	1126.67	3.19
303.15	0.299	1198.38	3.22
303.15	0.3991	1246.63	3.18
303.15	0.5075	1284.19	3.17
303.15	0.5956	1307.39	2.85
303.15	0.7065	1329.99	2.76
303.15	0.7983	1344.3	2.74
303.15	0.9106	1358.3	2.76
303.15	0.951	1362.85	2.77
303.15	1	1368.51	2.78
308.15	0	776.58	1.56
308.15	0.0995	1004.84	2.89
308.15	0.1987	1121.91	3.18
308.15	0.299	1193.62	3.22
308.15	0.3991	1241.9	3.17
308.15	0.5075	1279.48	3.16
308.15	0.5956	1302.7	2.84
308.15	0.7065	1325.33	2.75
308.15	0.7983	1339.66	2.73
308.15	0.9106	1353.68	2.75
308.15	0.951	1358.24	2.76
308.15	1	1363.9	2.77
313.15	0	772.19	1.55
313.15	0.0995	1000.1	2.88
313.15	0.1987	1117.13	3.18
313.15	0.299	1188.87	3.21
313.15	0.3991	1237.18	3.17
313.15	0.5075	1274.79	3.16
313.15	0.5956	1298.03	2.84
313.15	0.7065	1320.7	2.74
313.15	0.7983	1335.04	2.72
313.15	0.9106	1349.09	2.74
313.15	0.951	1353.66	2.75
313.15	1	1359.32	2.76
318.15	0	767.75	1.54
318.15	0.0995	995.32	2.87
318.15	0.1987	1112.33	3.17
318.15	0.299	1184.11	3.2
318.15	0.3991	1232.46	3.16
318.15	0.5075	1270.1	3.15
318.15	0.5956	1293.36	2.83
318.15	0.7065	1316.07	2.73
318.15	0.7983	1330.44	2.71
318.15	0.9106	1344.52	2.73
318.15	0.951	1349.1	2.74
318.15	1	1354.76	2.75
323.15	0	763.27	1.53
323.15	0.0995	990.51	2.87
323.15	0.1987	1107.51	3.16
323.15	0.299	1179.33	3.2
323.15	0.3991	1227.73	3.16
323.15	0.5075	1265.41	3.14
323.15	0.5956	1288.7	2.82
323.15	0.7065	1311.45	2.72
323.15	0.7983	1325.84	2.7
323.15	0.9106	1339.96	2.72
323.15	0.951	1344.55	2.73
323.15	1	1350.21	2.74
