Measured thermophysical data. Acoustic and thermodynamic study of D-Panthenol in aqueous solutions of glycol at different temperatures
Source: J. Chem. Thermodyn., 2018, 10.1016/j.jct.2018.07.006
Compound 1: 1,2-ethanediol, C2H6O2, InChI=1S/C2H6O2/c3-1-2-4/h3-4H,1-2H2, purity 99%
Compound 2: diethylene glycol, C4H10O3, InChI=1S/C4H10O3/c5-1-3-7-4-2-6/h5-6H,1-4H2, purity 99%
Compound 3: triethylene glycol, C6H14O4, InChI=1S/C6H14O4/c7-1-3-9-5-6-10-4-2-8/h7-8H,1-6H2, purity 99%
Compound 4: d-Panthenol, C9H19NO4, InChI=1S/C9H19NO4/c1-9(2,6-12)7(13)8(14)10-4-3-5-11/h7,11-13H,3-6H2,1-2H3,(H,10,14)/t7-/m0/s1, purity 99%
Compound 5: water, H2O, InChI=1S/H2O/h1H2

System: 1,2-ethanediol + d-Panthenol + water; phases: Liquid
Fixed: Pressure, kPa = 100
Property: Mass density, kg/m3 (Liquid); method: Vibrating tube method
Solvent: Molality, mol/kg of d-Panthenol	Temperature, K	Molality, mol/kg of 1,2-ethanediol	Mass density, kg/m3	uncertainty
0.05	293.15	0	999.509	0.328
0.05	293.15	0.09927	1000.36	0.328
0.05	293.15	0.20001	1001.19	0.329
0.05	293.15	0.29453	1001.91	0.33
0.05	293.15	0.3997	1002.71	0.333
0.05	293.15	0.49986	1003.49	0.337
0.05	298.15	0	998.191	0.328
0.05	298.15	0.09927	999.079	0.328
0.05	298.15	0.20001	999.849	0.329
0.05	298.15	0.29453	1000.62	0.331
0.05	298.15	0.3997	1001.495	0.333
0.05	298.15	0.49986	1002.199	0.334
0.05	303.15	0	996.926	0.328
0.05	303.15	0.09927	997.693	0.328
0.05	303.15	0.20001	998.511	0.329
0.05	303.15	0.29453	999.252	0.33
0.05	303.15	0.3997	1000.058	0.333
0.05	303.15	0.49986	1000.808	0.334
0.05	308.15	0	995.295	0.328
0.05	308.15	0.09927	996.072	0.328
0.05	308.15	0.20001	996.857	0.329
0.05	308.15	0.29453	997.595	0.33
0.05	308.15	0.3997	998.393	0.333
0.05	308.15	0.49986	999.2	0.337
0.1	293.15	0	1001.621	0.334
0.1	293.15	0.09994	1002.379	0.334
0.1	293.15	0.19887	1003.085	0.335
0.1	293.15	0.30277	1003.79	0.336
0.1	293.15	0.38547	1004.41	0.338
0.1	293.15	0.51235	1005.29	0.341
0.1	298.15	0	1000.221	0.334
0.1	298.15	0.09994	1001.055	0.334
0.1	298.15	0.19887	1001.79	0.335
0.1	298.15	0.30277	1002.51	0.336
0.1	298.15	0.38547	1003.11	0.338
0.1	298.15	0.51235	1004.069	0.341
0.1	303.15	0	998.987	0.333
0.1	303.15	0.09994	999.706	0.333
0.1	303.15	0.19887	1000.4	0.334
0.1	303.15	0.30277	1001.168	0.335
0.1	303.15	0.38547	1001.821	0.337
0.1	303.15	0.51235	1002.73	0.338
0.1	308.15	0	997.338	0.334
0.1	308.15	0.09994	998.038	0.334
0.1	308.15	0.19887	998.757	0.334
0.1	308.15	0.30277	999.521	0.336
0.1	308.15	0.38547	1000.199	0.338
0.1	308.15	0.51235	1001.178	0.34
0.15	293.15	0	1003.341	0.342
0.15	293.15	0.0994	1004.06	0.342
0.15	293.15	0.1993	1004.837	0.343
0.15	293.15	0.30448	1005.571	0.346
0.15	293.15	0.396	1006.218	0.347
0.15	293.15	0.50151	1006.939	0.349
0.15	298.15	0	1002.09	0.343
0.15	298.15	0.0994	1002.83	0.342
0.15	298.15	0.1993	1003.537	0.342
0.15	298.15	0.30448	1004.273	0.344
0.15	298.15	0.396	1004.917	0.346
0.15	298.15	0.50151	1005.62	0.344
0.15	303.15	0	1000.58	0.338
0.15	303.15	0.0994	1001.284	0.339
0.15	303.15	0.1993	1002.021	0.34
0.15	303.15	0.30448	1002.757	0.342
0.15	303.15	0.396	1003.418	0.342
0.15	303.15	0.50151	1004.076	0.343
0.15	308.15	0	998.985	0.34
0.15	308.15	0.0994	999.746	0.341
0.15	308.15	0.1993	1000.454	0.341
0.15	308.15	0.30448	1001.16	0.343
0.15	308.15	0.396	1001.887	0.344
0.15	308.15	0.50151	1002.612	0.345

System: 1,2-ethanediol + d-Panthenol + water; phases: Liquid
Fixed: Pressure, kPa = 100
Fixed: Frequency, MHz = 3
Property: Speed of sound, m/s (Liquid); method: Single path-length method
Solvent: Molality, mol/kg of d-Panthenol	Temperature, K	Molality, mol/kg of 1,2-ethanediol	Speed of sound, m/s	uncertainty
0.05	293.15	0	1489.41	2.14
0.05	293.15	0.09927	1492.4	2.14
0.05	293.15	0.20001	1495.75	2.14
0.05	293.15	0.29453	1498.66	2.14
0.05	293.15	0.3997	1502.1	2.15
0.05	293.15	0.49986	1505.32	2.16
0.05	298.15	0	1503.02	2.14
0.05	298.15	0.09927	1505.57	2.14
0.05	298.15	0.20001	1508.13	2.14
0.05	298.15	0.29453	1510.69	2.14
0.05	298.15	0.3997	1513.95	2.15
0.05	298.15	0.49986	1516.79	2.15
0.05	303.15	0	1515.97	2.13
0.05	303.15	0.09927	1518.19	2.13
0.05	303.15	0.20001	1520.46	2.14
0.05	303.15	0.29453	1522.73	2.14
0.05	303.15	0.3997	1525.64	2.14
0.05	303.15	0.49986	1528.19	2.14
0.05	308.15	0	1525.19	2.13
0.05	308.15	0.09927	1527.21	2.13
0.05	308.15	0.20001	1529.49	2.14
0.05	308.15	0.29453	1531.6	2.14
0.05	308.15	0.3997	1534	2.14
0.05	308.15	0.49986	1536.2	2.15
0.1	293.15	0	1494.13	2.14
0.1	293.15	0.09994	1497.01	2.14
0.1	293.15	0.19887	1499.88	2.14
0.1	293.15	0.30277	1502.98	2.15
0.1	293.15	0.38547	1505.57	2.15
0.1	293.15	0.51235	1509.12	2.16
0.1	298.15	0	1507.57	2.14
0.1	298.15	0.09994	1509.93	2.14
0.1	298.15	0.19887	1512.58	2.14
0.1	298.15	0.30277	1515.24	2.15
0.1	298.15	0.38547	1517.78	2.15
0.1	298.15	0.51235	1521.39	2.15
0.1	303.15	0	1517.93	2.14
0.1	303.15	0.09994	1519.98	2.14
0.1	303.15	0.19887	1522.14	2.14
0.1	303.15	0.30277	1524.63	2.14
0.1	303.15	0.38547	1527.05	2.15
0.1	303.15	0.51235	1530.62	2.16
0.1	308.15	0	1529.07	2.14
0.1	308.15	0.09994	1531.31	2.14
0.1	308.15	0.19887	1533.54	2.14
0.1	308.15	0.30277	1535.7	2.14
0.1	308.15	0.38547	1537.8	2.15
0.1	308.15	0.51235	1540.74	2.15
0.15	293.15	0	1498.55	2.15
0.15	293.15	0.0994	1501.43	2.15
0.15	293.15	0.1993	1504.08	2.15
0.15	293.15	0.30448	1507.01	2.15
0.15	293.15	0.396	1509.56	2.15
0.15	293.15	0.50151	1512.28	2.16
0.15	298.15	0	1511.64	2.14
0.15	298.15	0.0994	1514.38	2.15
0.15	298.15	0.1993	1516.7	2.15
0.15	298.15	0.30448	1519.41	2.15
0.15	298.15	0.396	1521.98	2.15
0.15	298.15	0.50151	1524.67	2.15
0.15	303.15	0	1522.94	2.15
0.15	303.15	0.0994	1525.28	2.15
0.15	303.15	0.1993	1527.44	2.16
0.15	303.15	0.30448	1530.1	2.16
0.15	303.15	0.396	1532.67	2.16
0.15	303.15	0.50151	1535.57	2.15
0.15	308.15	0	1532.45	2.14
0.15	308.15	0.0994	1534.8	2.14
0.15	308.15	0.1993	1537.1	2.14
0.15	308.15	0.30448	1539.2	2.15
0.15	308.15	0.396	1541.31	2.15
0.15	308.15	0.50151	1543.48	2.15

System: diethylene glycol + d-Panthenol + water; phases: Liquid
Fixed: Pressure, kPa = 100
Property: Mass density, kg/m3 (Liquid); method: Vibrating tube method
Solvent: Molality, mol/kg of d-Panthenol	Temperature, K	Molality, mol/kg of diethylene glycol	Mass density, kg/m3	uncertainty
0.05	293.15	0	999.509	0.328
0.05	293.15	0.09797	1000.883	0.329
0.05	293.15	0.1987	1002.371	0.332
0.05	293.15	0.29915	1003.7	0.337
0.05	293.15	0.40094	1005.09	0.345
0.05	293.15	0.49695	1006.3	0.352
0.05	298.15	0	998.191	0.328
0.05	298.15	0.09797	999.604	0.329
0.05	298.15	0.1987	1000.992	0.332
0.05	298.15	0.29915	1002.35	0.337
0.05	298.15	0.40094	1003.705	0.344
0.05	298.15	0.49695	1004.932	0.351
0.05	303.15	0	996.926	0.328
0.05	303.15	0.09797	998.259	0.329
0.05	303.15	0.1987	999.7	0.332
0.05	303.15	0.29915	1000.99	0.337
0.05	303.15	0.40094	1002.341	0.343
0.05	303.15	0.49695	1003.507	0.346
0.05	308.15	0	995.295	0.328
0.05	308.15	0.09797	996.609	0.329
0.05	308.15	0.1987	998	0.332
0.05	308.15	0.29915	999.3	0.336
0.05	308.15	0.40094	1000.628	0.343
0.05	308.15	0.49695	1001.774	0.349
0.1	293.15	0	1001.621	0.335
0.1	293.15	0.09947	1002.914	0.335
0.1	293.15	0.20205	1004.283	0.338
0.1	293.15	0.30629	1005.596	0.344
0.1	293.15	0.39789	1006.838	0.352
0.1	293.15	0.50044	1008.224	0.361
0.1	298.15	0	1000.221	0.335
0.1	298.15	0.09947	1001.643	0.335
0.1	298.15	0.20205	1002.986	0.338
0.1	298.15	0.30629	1004.344	0.344
0.1	298.15	0.39789	1005.603	0.35
0.1	298.15	0.50044	1006.862	0.358
0.1	303.15	0	998.987	0.333
0.1	303.15	0.09947	1000.328	0.333
0.1	303.15	0.20205	1001.642	0.336
0.1	303.15	0.30629	1002.997	0.342
0.1	303.15	0.39789	1004.189	0.349
0.1	303.15	0.50044	1005.536	0.354
0.1	308.15	0	997.338	0.334
0.1	308.15	0.09947	998.676	0.333
0.1	308.15	0.20205	999.99	0.336
0.1	308.15	0.30629	1001.3	0.342
0.1	308.15	0.39789	1002.565	0.349
0.1	308.15	0.50044	1003.849	0.352
0.15	293.15	0	1003.341	0.342
0.15	293.15	0.1047	1004.667	0.343
0.15	293.15	0.19784	1005.991	0.347
0.15	293.15	0.29933	1007.372	0.356
0.15	293.15	0.3962	1008.754	0.361
0.15	293.15	0.499	1010.031	0.367
0.15	298.15	0	1002.12	0.343
0.15	298.15	0.1047	1003.379	0.341
0.15	298.15	0.19784	1004.647	0.345
0.15	298.15	0.29933	1006.057	0.353
0.15	298.15	0.3962	1007.448	0.36
0.15	298.15	0.499	1008.772	0.363
0.15	303.15	0	1000.58	0.339
0.15	303.15	0.1047	1001.779	0.337
0.15	303.15	0.19784	1003.041	0.341
0.15	303.15	0.29933	1004.416	0.348
0.15	303.15	0.3962	1005.714	0.356
0.15	303.15	0.499	1007.14	0.366
0.15	308.15	0	998.985	0.34
0.15	308.15	0.1047	1000.153	0.338
0.15	308.15	0.19784	1001.459	0.341
0.15	308.15	0.29933	1002.756	0.348
0.15	308.15	0.3962	1004.047	0.354
0.15	308.15	0.499	1005.43	0.366

System: diethylene glycol + d-Panthenol + water; phases: Liquid
Fixed: Pressure, kPa = 100
Fixed: Frequency, MHz = 3
Property: Speed of sound, m/s (Liquid); method: Single path-length method
Solvent: Molality, mol/kg of d-Panthenol	Temperature, K	Molality, mol/kg of diethylene glycol	Speed of sound, m/s	uncertainty
0.05	293.15	0	1489.41	2.14
0.05	293.15	0.09797	1494.71	2.14
0.05	293.15	0.1987	1500.04	2.15
0.05	293.15	0.29915	1505.77	2.16
0.05	293.15	0.40094	1511.01	2.18
0.05	293.15	0.49695	1516.02	2.2
0.05	298.15	0	1503.02	2.14
0.05	298.15	0.09797	1508.32	2.14
0.05	298.15	0.1987	1513.41	2.15
0.05	298.15	0.29915	1518.68	2.16
0.05	298.15	0.40094	1523.81	2.17
0.05	298.15	0.49695	1528.63	2.17
0.05	303.15	0	1515.47	2.14
0.05	303.15	0.09797	1519.57	2.14
0.05	303.15	0.1987	1524.16	2.14
0.05	303.15	0.29915	1528.73	2.15
0.05	303.15	0.40094	1533.56	2.17
0.05	303.15	0.49695	1537.98	2.18
0.05	308.15	0	1525.19	2.13
0.05	308.15	0.09797	1529.39	2.14
0.05	308.15	0.1987	1533.78	2.14
0.05	308.15	0.29915	1538.06	2.15
0.05	308.15	0.40094	1542.71	2.16
0.05	308.15	0.49695	1546.71	2.17
0.1	293.15	0	1494.13	2.14
0.1	293.15	0.09947	1499.73	2.14
0.1	293.15	0.20205	1505.41	2.15
0.1	293.15	0.30629	1511.17	2.17
0.1	293.15	0.39789	1515.98	2.18
0.1	293.15	0.50044	1521.36	2.2
0.1	298.15	0	1507.57	2.14
0.1	298.15	0.09947	1512.67	2.14
0.1	298.15	0.20205	1517.85	2.15
0.1	298.15	0.30629	1523.21	2.16
0.1	298.15	0.39789	1528.12	2.18
0.1	298.15	0.50044	1533.37	2.19
0.1	303.15	0	1519.53	2.14
0.1	303.15	0.09947	1524.03	2.14
0.1	303.15	0.20205	1528.81	2.15
0.1	303.15	0.30629	1533.77	2.16
0.1	303.15	0.39789	1538.08	2.17
0.1	303.15	0.50044	1543.06	2.18
0.1	308.15	0	1529.07	2.14
0.1	308.15	0.09947	1533.47	2.14
0.1	308.15	0.20205	1537.95	2.15
0.1	308.15	0.30629	1542.71	2.16
0.1	308.15	0.39789	1546.92	2.17
0.1	308.15	0.50044	1551.43	2.18
0.15	293.15	0	1498.55	2.15
0.15	293.15	0.1047	1504.25	2.15
0.15	293.15	0.19784	1509.84	2.16
0.15	293.15	0.29933	1515.47	2.17
0.15	293.15	0.3962	1520.54	2.19
0.15	293.15	0.499	1525.89	2.21
0.15	298.15	0	1511.64	2.14
0.15	298.15	0.1047	1516.84	2.15
0.15	298.15	0.19784	1521.73	2.16
0.15	298.15	0.29933	1527.16	2.17
0.15	298.15	0.3962	1532.03	2.18
0.15	298.15	0.499	1537.29	2.19
0.15	303.15	0	1522.94	2.14
0.15	303.15	0.1047	1527.64	2.14
0.15	303.15	0.19784	1532.23	2.15
0.15	303.15	0.29933	1536.86	2.16
0.15	303.15	0.3962	1541.33	2.18
0.15	303.15	0.499	1546.59	2.2
0.15	308.15	0	1532.45	2.14
0.15	308.15	0.1047	1537.05	2.15
0.15	308.15	0.19784	1541.44	2.15
0.15	308.15	0.29933	1546.07	2.16
0.15	308.15	0.3962	1550.42	2.17
0.15	308.15	0.499	1554.96	2.19

System: triethylene glycol + d-Panthenol + water; phases: Liquid
Fixed: Pressure, kPa = 100
Property: Mass density, kg/m3 (Liquid); method: Vibrating tube method
Solvent: Molality, mol/kg of d-Panthenol	Temperature, K	Molality, mol/kg of triethylene glycol	Mass density, kg/m3	uncertainty
0.05	293.15	0	999.509	0.328
0.05	293.15	0.10106	1001.71	0.331
0.05	293.15	0.19881	1003.768	0.338
0.05	293.15	0.30095	1005.808	0.35
0.05	293.15	0.41255	1008.058	0.368
0.05	293.15	0.49633	1009.694	0.383
0.05	298.15	0	998.191	0.328
0.05	298.15	0.10106	1000.402	0.33
0.05	298.15	0.19881	1002.419	0.337
0.05	298.15	0.30095	1004.516	0.35
0.05	298.15	0.41255	1006.818	0.367
0.05	298.15	0.49633	1008.422	0.373
0.05	303.15	0	996.926	0.329
0.05	303.15	0.10106	999.053	0.33
0.05	303.15	0.19881	1001.034	0.337
0.05	303.15	0.30095	1003.094	0.349
0.05	303.15	0.41255	1005.252	0.364
0.05	303.15	0.49633	1006.825	0.372
0.05	308.15	0	995.295	0.328
0.05	308.15	0.10106	997.387	0.33
0.05	308.15	0.19881	999.337	0.336
0.05	308.15	0.30095	1001.263	0.347
0.05	308.15	0.41255	1003.482	0.362
0.05	308.15	0.49633	1004.928	0.37
0.1	293.15	0	1001.621	0.335
0.1	293.15	0.10454	1003.797	0.337
0.1	293.15	0.20136	1005.781	0.345
0.1	293.15	0.30052	1007.841	0.357
0.1	293.15	0.39983	1009.888	0.374
0.1	293.15	0.50238	1012.05	0.389
0.1	298.15	0	1000.221	0.335
0.1	298.15	0.10454	1002.153	0.336
0.1	298.15	0.20136	1004.16	0.344
0.1	298.15	0.30052	1006.228	0.356
0.1	298.15	0.39983	1008.24	0.37
0.1	298.15	0.50238	1010.229	0.393
0.1	303.15	0	998.987	0.334
0.1	303.15	0.10454	1000.817	0.335
0.1	303.15	0.20136	1002.8	0.343
0.1	303.15	0.30052	1004.851	0.354
0.1	303.15	0.39983	1006.762	0.371
0.1	303.15	0.50238	1008.89	0.382
0.1	308.15	0	997.338	0.334
0.1	308.15	0.10454	999.247	0.335
0.1	308.15	0.20136	1001.053	0.341
0.1	308.15	0.30052	1002.846	0.352
0.1	308.15	0.39983	1004.8	0.366
0.1	308.15	0.50238	1006.684	0.387
0.15	293.15	0	1003.341	0.342
0.15	293.15	0.09973	1005.351	0.344
0.15	293.15	0.19904	1007.456	0.351
0.15	293.15	0.30436	1009.537	0.363
0.15	293.15	0.40056	1011.551	0.382
0.15	293.15	0.4937	1013.536	0.402
0.15	298.15	0	1002.12	0.343
0.15	298.15	0.09973	1004.109	0.35
0.15	298.15	0.19904	1006.135	0.355
0.15	298.15	0.30436	1008.136	0.366
0.15	298.15	0.40056	1010.167	0.378
0.15	298.15	0.4937	1011.813	0.391
0.15	303.15	0	1000.58	0.339
0.15	303.15	0.09973	1002.58	0.346
0.15	303.15	0.19904	1004.579	0.351
0.15	303.15	0.30436	1006.557	0.361
0.15	303.15	0.40056	1008.569	0.378
0.15	303.15	0.4937	1010.335	0.381
0.15	308.15	0	998.985	0.34
0.15	308.15	0.09973	1001.034	0.345
0.15	308.15	0.19904	1002.86	0.352
0.15	308.15	0.30436	1004.811	0.364
0.15	308.15	0.40056	1006.641	0.378
0.15	308.15	0.4937	1008.489	0.399

System: triethylene glycol + d-Panthenol + water; phases: Liquid
Fixed: Pressure, kPa = 100
Fixed: Frequency, MHz = 3
Property: Speed of sound, m/s (Liquid); method: Single path-length method
Solvent: Molality, mol/kg of d-Panthenol	Temperature, K	Molality, mol/kg of triethylene glycol	Speed of sound, m/s	uncertainty
0.05	293.15	0	1489.41	2.14
0.05	293.15	0.10106	1497.66	2.14
0.05	293.15	0.19881	1505.66	2.16
0.05	293.15	0.30095	1513.34	2.18
0.05	293.15	0.41255	1521.92	2.23
0.05	293.15	0.49633	1528.75	2.28
0.05	298.15	0	1503.02	2.14
0.05	298.15	0.10106	1510.95	2.14
0.05	298.15	0.19881	1518.52	2.16
0.05	298.15	0.30095	1525.88	2.18
0.05	298.15	0.41255	1534.29	2.22
0.05	298.15	0.49633	1540.13	2.23
0.05	303.15	0	1515.47	2.14
0.05	303.15	0.10106	1522.11	2.14
0.05	303.15	0.19881	1529.21	2.15
0.05	303.15	0.30095	1536.38	2.17
0.05	303.15	0.41255	1543.86	2.21
0.05	303.15	0.49633	1550	2.22
0.05	308.15	0	1525.19	2.13
0.05	308.15	0.10106	1531.58	2.14
0.05	308.15	0.19881	1537.73	2.15
0.05	308.15	0.30095	1543.98	2.17
0.05	308.15	0.41255	1551.05	2.2
0.05	308.15	0.49633	1556.57	2.23
0.1	293.15	0	1494.13	2.14
0.1	293.15	0.10454	1502.37	2.15
0.1	293.15	0.20136	1510.41	2.16
0.1	293.15	0.30052	1517.8	2.19
0.1	293.15	0.39983	1525.3	2.23
0.1	293.15	0.50238	1533.29	2.29
0.1	298.15	0	1507.57	2.14
0.1	298.15	0.10454	1515.48	2.15
0.1	298.15	0.20136	1523.22	2.16
0.1	298.15	0.30052	1530.56	2.19
0.1	298.15	0.39983	1538.21	2.22
0.1	298.15	0.50238	1545.21	2.23
0.1	303.15	0	1519.53	2.14
0.1	303.15	0.10454	1526.38	2.14
0.1	303.15	0.20136	1533.37	2.16
0.1	303.15	0.30052	1540.25	2.18
0.1	303.15	0.39983	1547.58	2.22
0.1	303.15	0.50238	1554.83	2.23
0.1	308.15	0	1529.07	2.14
0.1	308.15	0.10454	1535.23	2.14
0.1	308.15	0.20136	1541.48	2.15
0.1	308.15	0.30052	1547.67	2.17
0.1	308.15	0.39983	1554.06	2.2
0.1	308.15	0.50238	1560.71	2.24
0.15	293.15	0	1498.55	2.15
0.15	293.15	0.09973	1507.06	2.16
0.15	293.15	0.19904	1515.15	2.17
0.15	293.15	0.30436	1522.69	2.2
0.15	293.15	0.40056	1530.18	2.24
0.15	293.15	0.4937	1537.45	2.29
0.15	298.15	0	1511.64	2.14
0.15	298.15	0.09973	1520.09	2.15
0.15	298.15	0.19904	1528.07	2.17
0.15	298.15	0.30436	1535.48	2.19
0.15	298.15	0.40056	1542.95	2.23
0.15	298.15	0.4937	1549.61	2.22
0.15	303.15	0	1522.94	2.14
0.15	303.15	0.09973	1529.94	2.15
0.15	303.15	0.19904	1537.21	2.16
0.15	303.15	0.30436	1544.03	2.19
0.15	303.15	0.40056	1551.51	2.23
0.15	303.15	0.4937	1558.29	2.23
0.15	308.15	0	1532.45	2.14
0.15	308.15	0.09973	1538.73	2.15
0.15	308.15	0.19904	1545.35	2.16
0.15	308.15	0.30436	1551.79	2.18
0.15	308.15	0.40056	1558.06	2.21
0.15	308.15	0.4937	1564.02	2.24

System: d-Panthenol + water; phases: Liquid
Fixed: Pressure, kPa = 100
Property: Mass density, kg/m3 (Liquid); method: Vibrating tube method
Molality, mol/kg of d-Panthenol	Temperature, K	Mass density, kg/m3	uncertainty
0.05	293.15	999.509	0.305
0.05	298.15	998.191	0.305
0.05	303.15	996.926	0.305
0.05	308.15	995.295	0.305
0.1	293.15	1001.621	0.315
0.1	298.15	1000.221	0.312
0.1	303.15	998.987	0.311
0.1	308.15	997.338	0.306
0.15	293.15	1003.341	0.32
0.15	298.15	1002.09	0.321
0.15	303.15	1000.58	0.317
0.15	308.15	998.985	0.318
0.15	298.15	1002.12	0.321

System: d-Panthenol + water; phases: Liquid
Fixed: Pressure, kPa = 100
Fixed: Frequency, MHz = 3
Property: Speed of sound, m/s (Liquid); method: Single path-length method
Molality, mol/kg of d-Panthenol	Temperature, K	Speed of sound, m/s	uncertainty
0.05	293.15	1489.41	2.02
0.05	298.15	1503.02	2.02
0.05	303.15	1515.97	2.01
0.05	308.15	1525.19	2.02
0.1	293.15	1494.13	2.03
0.1	298.15	1507.57	2.02
0.1	303.15	1517.93	2.02
0.1	308.15	1529.07	2.18
0.15	293.15	1498.55	2.03
0.15	298.15	1511.64	2.03
0.15	303.15	1522.94	2.03
0.15	308.15	1532.45	2.03
0.05	303.15	1515.47	2.01
0.1	303.15	1519.53	2.02
