Measured thermophysical data. Thermodynamic properties of 1-bromoadamantane in the condensed state and molecular disorder in its crystals
Source: J. Chem. Thermodyn., 2005, 10.1016/j.jct.2004.10.005
Compound 1: 1-bromotricyclo[3.3.1.1(3,7)]decane, C10H15Br, InChI=1S/C10H15Br/c11-10-4-7-1-8(5-10)3-9(2-7)6-10/h7-9H,1-6H2, purity 99%

System: 1-bromotricyclo[3.3.1.1(3,7)]decane; phases: Crystal 4, Crystal 3, Gas
Property: Molar enthalpy of transition or fusion, kJ/mol (Crystal 4); method: Adiabatic calorimetry
Molar enthalpy of transition or fusion, kJ/mol	uncertainty
0.00144	0.00262

System: 1-bromotricyclo[3.3.1.1(3,7)]decane; phases: Crystal 3, Crystal 2, Gas
Property: Molar enthalpy of transition or fusion, kJ/mol (Crystal 3); method: Adiabatic calorimetry
Molar enthalpy of transition or fusion, kJ/mol	uncertainty
1.387	0.01

System: 1-bromotricyclo[3.3.1.1(3,7)]decane; phases: Crystal 2, Crystal 1, Gas
Property: Molar enthalpy of transition or fusion, kJ/mol (Crystal 2); method: Adiabatic calorimetry
Molar enthalpy of transition or fusion, kJ/mol	uncertainty
7.416	0.253

System: 1-bromotricyclo[3.3.1.1(3,7)]decane; phases: Crystal 2, Crystal 1, Gas
Property: Molar enthalpy of transition or fusion, kJ/mol (Crystal 2); method: DSC
Molar enthalpy of transition or fusion, kJ/mol	uncertainty
7.51	0.29

System: 1-bromotricyclo[3.3.1.1(3,7)]decane; phases: Crystal 1, Liquid, Gas
Property: Molar enthalpy of transition or fusion, kJ/mol (Crystal 1); method: DSC
Molar enthalpy of transition or fusion, kJ/mol	uncertainty
3.97	0.21

System: 1-bromotricyclo[3.3.1.1(3,7)]decane; phases: Crystal 1, Liquid, Gas
Property: Triple point temperature, K (Crystal 1); method: DTA:corrimp
Triple point temperature, K	uncertainty
391.8	0.4

System: 1-bromotricyclo[3.3.1.1(3,7)]decane; phases: Crystal 3, Crystal 2, Gas
Property: Triple point temperature, K (Crystal 3); method: Adiabatic calorimetry
Triple point temperature, K	uncertainty
282.2	0.1

System: 1-bromotricyclo[3.3.1.1(3,7)]decane; phases: Crystal 2, Crystal 1, Gas
Property: Triple point temperature, K (Crystal 2); method: Adiabatic calorimetry
Triple point temperature, K	uncertainty
309.9	0.1

System: 1-bromotricyclo[3.3.1.1(3,7)]decane; phases: Crystal 2, Crystal 1, Gas
Property: Triple point temperature, K (Crystal 2); method: DTA
Triple point temperature, K	uncertainty
309.8	0.4

System: 1-bromotricyclo[3.3.1.1(3,7)]decane; phases: Crystal 4, Crystal 3, Gas
Property: Triple point temperature, K (Crystal 4); method: Adiabatic calorimetry
Triple point temperature, K	uncertainty
31	0.1

System: 1-bromotricyclo[3.3.1.1(3,7)]decane; phases: Crystal 4
Fixed: Pressure, kPa = 101.325
Property: Molar heat capacity at constant pressure, J/K/mol (Crystal 4); method: Vacuum adiabatic calorimetry
Temperature, K	Molar heat capacity at constant pressure, J/K/mol	uncertainty
5	0.6485	0.0237
10	4.755	0.093
15	11.51	0.19
20	18.36	0.25
25	24.35	0.27
30	29.52	0.26
31	30.48	0.26

System: 1-bromotricyclo[3.3.1.1(3,7)]decane; phases: Crystal 3
Fixed: Pressure, kPa = 101.325
Property: Molar heat capacity at constant pressure, J/K/mol (Crystal 3); method: Vacuum adiabatic calorimetry
Temperature, K	Molar heat capacity at constant pressure, J/K/mol	uncertainty
31	30.48	0.26
35	33.96	0.22
40	37.77	0.17
45	41.08	0.18
50	44.09	0.2
60	49.73	0.22
70	55.13	0.24
80	60.5	0.27
90	65.87	0.32
100	71.25	0.34
110	76.65	0.37
120	82.11	0.39
130	87.63	0.4
140	93.24	0.42
150	99.03	0.45
160	105	0.5
170	111.2	0.5
180	117.7	0.6
190	124.4	0.6
200	131.5	0.6
210	138.9	0.6
220	146.5	0.7
230	154.9	0.7
240	164.8	0.7
250	175.5	0.8
260	185.9	0.8
270	195.4	0.8
273.15	198.1	0.9
280	203.6	0.9
282.2	205.2	0.9

System: 1-bromotricyclo[3.3.1.1(3,7)]decane; phases: Crystal 2
Fixed: Pressure, kPa = 101.325
Property: Molar heat capacity at constant pressure, J/K/mol (Crystal 2); method: Vacuum adiabatic calorimetry
Temperature, K	Molar heat capacity at constant pressure, J/K/mol	uncertainty
282.2	205.2	0.9
290	210.6	0.9
298.15	215.4	0.9
300	216.5	0.9
309.9	221.9	0.9

System: 1-bromotricyclo[3.3.1.1(3,7)]decane; phases: Crystal 1
Fixed: Pressure, kPa = 101.325
Property: Molar heat capacity at constant pressure, J/K/mol (Crystal 1); method: Vacuum adiabatic calorimetry
Temperature, K	Molar heat capacity at constant pressure, J/K/mol	uncertainty
309.9	246.3	1.1
310	246.5	1.1
320	257.5	1.1

System: 1-bromotricyclo[3.3.1.1(3,7)]decane; phases: Crystal 1
Fixed: Pressure, kPa = 101.325
Property: Molar heat capacity at constant pressure, J/K/mol (Crystal 1); method: Large sample (1 g) DSC
Temperature, K	Molar heat capacity at constant pressure, J/K/mol	uncertainty
330	279.7	6.9
340	297	7.2
350	302.1	7.4
360	305.2	7.5
370	305.7	7.5
380	305.9	7.5
390	306.1	7.5
391.8	306.1	7.5

System: 1-bromotricyclo[3.3.1.1(3,7)]decane; phases: Liquid
Fixed: Pressure, kPa = 101.325
Property: Molar heat capacity at constant pressure, J/K/mol (Liquid); method: Large sample (1 g) DSC
Temperature, K	Molar heat capacity at constant pressure, J/K/mol	uncertainty
391.8	311.4	7.6
400	311.6	7.6
410	312	7.6
420	312.3	7.6
430	312.7	7.7

System: 1-bromotricyclo[3.3.1.1(3,7)]decane; phases: Crystal 4, Gas
Property: Molar heat capacity at saturation pressure, J/K/mol (Crystal 4); method: Vacuum adiabatic calorimetry
Temperature, K	Molar heat capacity at saturation pressure, J/K/mol	uncertainty
5.98	1.102	0.028
6.34	1.301	0.032
6.73	1.56	0.037
7.05	1.776	0.041
7.4	2.048	0.047
7.78	2.391	0.053
8.34	2.94	0.062
8.96	3.558	0.073
9.37	4.013	0.081
9.8	4.489	0.09
10.27	5.11	0.1
10.71	5.643	0.108
11.11	6.154	0.116
11.51	6.677	0.125
11.92	7.254	0.133
12.35	7.849	0.142
12.82	8.366	0.148
13.25	9.058	0.159
14.09	10.21	0.17
14.56	10.84	0.18
15	11.48	0.19
15.42	12.01	0.19
15.87	12.79	0.2
16.34	13.48	0.21
16.79	14.11	0.22
17.32	14.74	0.22
17.91	15.58	0.23
18.48	16.3	0.24
19.01	17.14	0.24
19.61	17.85	0.25
20.29	18.72	0.25
20.93	19.58	0.26
21.63	20.43	0.26
22.39	21.39	0.27
23.1	22.23	0.27
23.9	23.12	0.27
24.76	24.04	0.27
25.69	25.07	0.27
26.66	26.14	0.27
27.58	27.16	0.27
28.56	28.01	0.27
29.52	28.99	0.29
29.57	29.29	0.3
30.13	29.69	0.26
30.42	30.4	0.27
30.62	30.95	0.28
30.71	31.25	0.3
31.02	33.37	0.31

System: 1-bromotricyclo[3.3.1.1(3,7)]decane; phases: Crystal 3, Gas
Property: Molar heat capacity at saturation pressure, J/K/mol (Crystal 3); method: Vacuum adiabatic calorimetry
Temperature, K	Molar heat capacity at saturation pressure, J/K/mol	uncertainty
31.27	31.25	0.26
31.56	31.24	0.26
31.81	31.34	0.25
32.25	31.61	0.25
33.06	32.35	0.24
33.28	32.47	0.24
34.66	33.75	0.23
36.35	35.07	0.22
38.12	36.42	0.2
39.98	37.78	0.17
41.9	39.06	0.18
43.96	40.39	0.18
46.12	41.85	0.19
48.32	43.17	0.19
50.74	44.52	0.2
53.31	45.98	0.2
55.82	47.36	0.21
58.21	48.67	0.21
60.62	50.13	0.22
63.03	51.45	0.23
65.43	52.6	0.23
67.86	54.08	0.24
70.3	55.24	0.24
72.8	56.68	0.25
75.3	57.96	0.26
77.74	59.21	0.27
80.19	60.74	0.27
82.69	61.79	0.28
85.17	63.27	0.28
87.66	64.58	0.29
90.17	65.86	0.32
92.68	67.39	0.33
95.2	68.53	0.33
97.74	70.12	0.34
100.3	71.52	0.35
100.96	71.76	0.35
102.83	72.73	0.35
104.15	73.63	0.35
105.3	74.09	0.36
107.32	75.22	0.36
110.3	76.73	0.37
113.21	78.44	0.37
116.14	79.82	0.38
119.1	81.75	0.39
122.01	83.28	0.39
124.86	84.61	0.4
127.91	86.56	0.4
131.28	88.26	0.41
134.63	90.38	0.41
137.93	91.96	0.42
141.17	93.89	0.43
144.35	95.86	0.43
147.49	97.33	0.44
150.64	99.37	0.45
153.81	101.4	0.5
156.99	103	0.5
160.16	104.9	0.5
160.53	105.5	0.5
163.7	107.4	0.5
166.86	109.4	0.5
169.99	111.2	0.5
173.09	113.3	0.5
176.19	115.1	0.6
179.34	117.2	0.6
182.56	119.4	0.6
185.78	121.5	0.6
189.07	123.6	0.6
192.43	126.2	0.6
195.86	128.7	0.6
199.38	130.9	0.6
202.85	133.7	0.6
206.29	135.9	0.6
209.76	138.8	0.6
213.19	141.4	0.6
216.58	143.7	0.6
220.01	146.7	0.7
223.4	149.2	0.7
226.82	152.2	0.7
230.32	155.2	0.7
230.97	155.8	0.7
234.32	158.8	0.7
237.7	162.3	0.7
241	166.2	0.7
241.09	165.9	0.7
244.38	169.3	0.7
244.57	169.7	0.7
247.65	173	0.8
248.16	173.6	0.8
251.11	177.1	0.8
251.71	177.8	0.8
254.61	181.5	0.8
255.15	182.1	0.8
257.99	186.2	0.8
258.5	187.1	0.8
261.32	192.1	0.8
261.93	193.3	0.8
264.6	198.2	0.9
265.32	200.1	0.9
267.83	205.5	0.9
268.59	207.2	0.9
271.04	214.7	1
271.85	217.2	1
274.2	227.6	1
275.09	231.6	1
277.23	248.5	1.1
278.12	258.4	1.1
279.76	284.9	1.3
280.08	308.9	1.5
280.17	297.9	1.5
280.56	309.4	1.7
280.94	336.3	2.2
281.3	377.6	4.5
281.63	422.2	5.2
281.93	523.4	5.1
282.18	643.2	6.6

System: 1-bromotricyclo[3.3.1.1(3,7)]decane; phases: Crystal 2, Gas
Property: Molar heat capacity at saturation pressure, J/K/mol (Crystal 2); method: Vacuum adiabatic calorimetry
Temperature, K	Molar heat capacity at saturation pressure, J/K/mol	uncertainty
282.41	586.3	21.2
282.52	470.3	14.2
282.69	384.2	7.3
283.04	278.4	3.5
283.48	248.5	1.6
283.93	226.3	1.1
284.68	219.3	1
285.09	222.5	1
286.24	214.2	1
288.26	209.5	0.9
290.59	211.1	0.9
291.43	211.7	0.9
293.15	212.4	0.9
294.62	213.4	0.9
295.8	213.7	0.9
298.44	215.6	0.9
298.96	215.9	0.9
301.06	217.3	0.9
303.6	220.7	1
306.07	236.7	1.3
308.13	437.7	2.7

System: 1-bromotricyclo[3.3.1.1(3,7)]decane; phases: Crystal 1, Gas
Property: Molar heat capacity at saturation pressure, J/K/mol (Crystal 1); method: Vacuum adiabatic calorimetry
Temperature, K	Molar heat capacity at saturation pressure, J/K/mol	uncertainty
312.39	249	1
314.9	250.6	1.1
314.98	251.1	1.1
317.39	253.5	1.1
317.63	254	1

System: 1-bromotricyclo[3.3.1.1(3,7)]decane; phases: Crystal 4
Fixed: Pressure, kPa = 101.325
Property: Molar enthalpy function {Hm(T)-Hm(0)}/T, J/K/mol (Crystal 4); method: Vacuum adiabatic calorimetry
Temperature, K	Molar enthalpy function {Hm(T)-Hm(0)}/T, J/K/mol	uncertainty
5	0.1623	0.0099
10	1.25	0.029
15	3.518	0.067
20	6.387	0.105
25	9.395	0.136
30	12.33	0.16
31	12.91	0.17

System: 1-bromotricyclo[3.3.1.1(3,7)]decane; phases: Crystal 3
Fixed: Pressure, kPa = 101.325
Property: Molar enthalpy function {Hm(T)-Hm(0)}/T, J/K/mol (Crystal 3); method: Vacuum adiabatic calorimetry
Temperature, K	Molar enthalpy function {Hm(T)-Hm(0)}/T, J/K/mol	uncertainty
31	12.96	0.18
35	15.15	0.18
40	17.75	0.18
45	20.16	0.18
50	22.4	0.18
60	26.49	0.19
70	30.2	0.19
80	33.65	0.2
90	36.93	0.25
100	40.1	0.26
110	43.17	0.27
120	46.19	0.28
130	49.17	0.29
140	52.11	0.3
150	55.05	0.31
160	57.98	0.32
170	60.93	0.33
180	63.9	0.34
190	66.9	0.35
200	69.96	0.36
210	73.06	0.37
220	76.23	0.37
230	79.46	0.39
240	82.81	0.4
250	86.3	0.41
260	89.93	0.43
270	93.67	0.44
273.15	94.86	0.44
280	97.45	0.45
282.2	98.28	0.46

System: 1-bromotricyclo[3.3.1.1(3,7)]decane; phases: Crystal 2
Fixed: Pressure, kPa = 101.325
Property: Molar enthalpy function {Hm(T)-Hm(0)}/T, J/K/mol (Crystal 2); method: Vacuum adiabatic calorimetry
Temperature, K	Molar enthalpy function {Hm(T)-Hm(0)}/T, J/K/mol	uncertainty
282.2	103.2	0.5
290	106	0.5
298.15	108.9	0.5
300	109.6	0.5
309.9	113.1	0.5

System: 1-bromotricyclo[3.3.1.1(3,7)]decane; phases: Crystal 1
Fixed: Pressure, kPa = 101.325
Property: Molar enthalpy function {Hm(T)-Hm(0)}/T, J/K/mol (Crystal 1); method: Vacuum adiabatic calorimetry
Temperature, K	Molar enthalpy function {Hm(T)-Hm(0)}/T, J/K/mol	uncertainty
309.9	137	0.6
310	137.1	0.6
320	140.6	0.6

System: 1-bromotricyclo[3.3.1.1(3,7)]decane; phases: Crystal 1
Fixed: Pressure, kPa = 101.325
Property: Molar enthalpy function {Hm(T)-Hm(0)}/T, J/K/mol (Crystal 1); method: Large sample (1 g) DSC
Temperature, K	Molar enthalpy function {Hm(T)-Hm(0)}/T, J/K/mol	uncertainty
330	144.5	2.2
340	148.8	2.3
350	153.1	2.4
360	157.3	2.5
370	161.3	2.6
380	165.1	2.7
390	168.7	2.9
391.8	169.3	2.9

System: 1-bromotricyclo[3.3.1.1(3,7)]decane; phases: Liquid
Fixed: Pressure, kPa = 101.325
Property: Molar enthalpy function {Hm(T)-Hm(0)}/T, J/K/mol (Liquid); method: Large sample (1 g) DSC
Temperature, K	Molar enthalpy function {Hm(T)-Hm(0)}/T, J/K/mol	uncertainty
391.8	179.5	3.1
400	182.2	3.2
410	185.3	3.3
420	188.4	3.4
430	191.2	3.5

System: 1-bromotricyclo[3.3.1.1(3,7)]decane; phases: Crystal 4
Fixed: Pressure, kPa = 101.325
Property: Molar entropy, J/K/mol (Crystal 4); method: Vacuum adiabatic calorimetry
Temperature, K	Molar entropy, J/K/mol	uncertainty
5	0.2164	0.0154
10	1.677	0.055
15	4.849	0.137
20	9.115	0.229
25	13.87	0.31
30	18.78	0.38
31	19.78	0.4

System: 1-bromotricyclo[3.3.1.1(3,7)]decane; phases: Crystal 3
Fixed: Pressure, kPa = 101.325
Property: Molar entropy, J/K/mol (Crystal 3); method: Vacuum adiabatic calorimetry
Temperature, K	Molar entropy, J/K/mol	uncertainty
31	19.83	0.41
35	23.72	0.46
40	28.51	0.49
45	33.15	0.52
50	37.64	0.55
60	46.18	0.6
70	54.26	0.66
80	61.97	0.71
90	69.4	0.79
100	76.62	0.82
110	83.67	0.86
120	90.57	0.91
130	97.36	0.95
140	104.1	1
150	110.7	1.1
160	117.3	1.1
170	123.8	1.1
180	130.4	1.1
190	136.9	1.3
200	143.5	1.3
210	150.1	1.3
220	156.7	1.3
230	163.4	1.4
240	170.2	1.4
250	177.1	1.4
260	184.2	1.4
270	191.4	1.6
273.15	193.7	1.6
280	198.7	1.6
282.2	200.3	1.6

System: 1-bromotricyclo[3.3.1.1(3,7)]decane; phases: Crystal 2
Fixed: Pressure, kPa = 101.325
Property: Molar entropy, J/K/mol (Crystal 2); method: Vacuum adiabatic calorimetry
Temperature, K	Molar entropy, J/K/mol	uncertainty
282.2	205.2	1.7
290	210.9	1.7
298.15	216.8	1.7
300	218.1	1.7
309.9	225.2	1.7

System: 1-bromotricyclo[3.3.1.1(3,7)]decane; phases: Crystal 1
Fixed: Pressure, kPa = 101.325
Property: Molar entropy, J/K/mol (Crystal 1); method: Vacuum adiabatic calorimetry
Temperature, K	Molar entropy, J/K/mol	uncertainty
309.9	249.1	1.9
310	249.2	1.9
320	257.2	2

System: 1-bromotricyclo[3.3.1.1(3,7)]decane; phases: Crystal 1
Fixed: Pressure, kPa = 101.325
Property: Molar entropy, J/K/mol (Crystal 1); method: Large sample (1 g) DSC
Temperature, K	Molar entropy, J/K/mol	uncertainty
330	265.4	6.2
340	274.1	6.4
350	282.8	6.6
360	291.3	6.8
370	299.7	7.1
380	307.9	7.4
390	315.8	7.6
391.8	317.2	7.7

System: 1-bromotricyclo[3.3.1.1(3,7)]decane; phases: Liquid
Fixed: Pressure, kPa = 101.325
Property: Molar entropy, J/K/mol (Liquid); method: Large sample (1 g) DSC
Temperature, K	Molar entropy, J/K/mol	uncertainty
391.8	327.4	8
400	333.8	8.2
410	341.5	8.5
420	349	8.7
430	356.4	9
