Measured thermophysical data. Mean activity coefficient measurement and thermodynamic modelling of the ternary mixed electrolyte (MgCl2 + glucose + water) system at T = 298.15 K
Source: J. Chem. Thermodyn., 2015, 10.1016/j.jct.2015.07.049
Compound 1: D-glucose, C6H12O6, InChI=1S/C6H12O6/c7-1-3(9)5(11)6(12)4(10)2-8/h1,3-6,8-12H,2H2/t3-,4+,5+,6+/m0/s1, purity 99%
Compound 2: water, H2O, InChI=1S/H2O/h1H2
Compound 3: magnesium chloride, Cl2Mg, InChI=1S/2ClH.Mg/h2*1H;/q;;+2/p-2, purity 97%

System: D-glucose + water + magnesium chloride; phases: Liquid
Fixed: Temperature, K = 298.15
Fixed: Pressure, kPa = 101.325
Property: Mean ionic activity coefficient of magnesium chloride (Liquid); method: Calculated from EMF cell potential
Molality, mol/kg of magnesium chloride	Solvent: Mass fraction of D-glucose	Mean ionic activity coefficient of magnesium chloride	uncertainty
0.0003	0	0.9266	0.0262
0.0008	0	0.9001	0.0264
0.0017	0	0.8625	0.0267
0.0033	0	0.8198	0.0273
0.0083	0	0.748	0.0282
0.0167	0	0.6881	0.0284
0.0333	0	0.6262	0.0288
0.0833	0	0.5485	0.0295
0.1667	0	0.5018	0.0297
0.3333	0	0.4796	0.0297
0.6667	0	0.5055	0.0301
1	0	0.5776	0.0333
1.3333	0	0.6881	0.0427
1.6667	0	0.8463	0.0632
2	0	1.0695	0.0851
0.0003	0.1	0.9168	0.0263
0.0008	0.1	0.8116	0.0272
0.0017	0.1	0.6552	0.0285
0.0033	0.1	0.577	0.0303
0.0083	0.1	0.5308	0.0299
0.0167	0.1	0.4969	0.03
0.0333	0.1	0.4376	0.0303
0.0833	0.1	0.4026	0.0305
0.1667	0.1	0.3929	0.0306
0.3333	0.1	0.386	0.0306
0.6667	0.1	0.3792	0.0307
1	0.1	0.3965	0.0308
1.3333	0.1	0.4102	0.031
1.6667	0.1	0.4383	0.032
2	0.1	0.4725	0.0717
0.0003	0.2	0.909	0.0264
0.0008	0.2	0.7089	0.0279
0.0017	0.2	0.6113	0.0287
0.0033	0.2	0.5472	0.0305
0.0083	0.2	0.4941	0.0302
0.0167	0.2	0.4333	0.0306
0.0333	0.2	0.3612	0.031
0.0833	0.2	0.2855	0.0317
0.1667	0.2	0.2462	0.0319
0.3333	0.2	0.2196	0.032
0.6667	0.2	0.217	0.032
1	0.2	0.2253	0.0321
1.3333	0.2	0.2458	0.0324
1.6667	0.2	0.2764	0.0331
2	0.2	0.313	0.036
0.0003	0.3	0.9034	0.0264
0.0008	0.3	0.6853	0.0281
0.0017	0.3	0.5831	0.029
0.0033	0.3	0.5184	0.0312
0.0083	0.3	0.4152	0.0312
0.0167	0.3	0.3473	0.0312
0.0333	0.3	0.2985	0.0314
0.0833	0.3	0.2351	0.032
0.1667	0.3	0.1953	0.0322
0.3333	0.3	0.1679	0.0324
0.6667	0.3	0.1597	0.0325
1	0.3	0.1599	0.0325
1.3333	0.3	0.1626	0.0326
1.6667	0.3	0.1825	0.0326
2	0.3	0.1928	0.0352
0.0003	0.4	0.9006	0.0264
0.0008	0.4	0.6774	0.0282
0.0017	0.4	0.5239	0.0296
0.0033	0.4	0.4079	0.0331
0.0083	0.4	0.3211	0.032
0.0167	0.4	0.2805	0.0316
0.0333	0.4	0.2286	0.032
0.0833	0.4	0.1774	0.0325
0.1667	0.4	0.1446	0.0326
0.3333	0.4	0.1308	0.0327
0.6667	0.4	0.1226	0.0328
1	0.4	0.1242	0.0328
1.3333	0.4	0.132	0.0328
1.6667	0.4	0.1446	0.0328
2	0.4	0.1593	0.0329

System: water + magnesium chloride; phases: Liquid
Fixed: Temperature, K = 298.15
Fixed: Pressure, kPa = 101.325
Property: Mean ionic activity coefficient of magnesium chloride (Liquid); method: Calculated from EMF cell potential
Molality, mol/kg of magnesium chloride	Mean ionic activity coefficient of magnesium chloride	uncertainty
0.0003	0.9266	0.0262
0.0008	0.9001	0.0264
0.0017	0.8625	0.0267
0.0033	0.8198	0.0273
0.0083	0.748	0.0282
0.0167	0.6881	0.0284
0.0333	0.6262	0.0288
0.0833	0.5485	0.0295
0.1667	0.5018	0.0297
0.3333	0.4796	0.0297
0.6667	0.5055	0.0301
1	0.5776	0.0333
1.3333	0.6881	0.0427
1.6667	0.8463	0.0632
2	1.0695	0.0851
