Measured thermophysical data. Physicochemical properties of [cnmim][thr] (n = 3, 5, 6) amino acid ionic liquids
Source: J. Chem. Thermodyn., 2017, 10.1016/j.jct.2017.07.024
Compound 1: water, H2O, InChI=1S/H2O/h1H2
Compound 2: 1-propyl-3-methylimidazolium DL-threoninate, C11H21N3O3, InChI=1S/C7H13N2.C4H9NO3/c1-3-4-9-6-5-8(2)7-9;1-2(6)3(5)4(7)8/h5-7H,3-4H2,1-2H3;2-3,6H,5H2,1H3,(H,7,8)/q+1;/p-1/t;2-,3+/m.1/s1
Compound 3: 1-pentyl-3-methylimidazolium DL-threoninate, C13H25N3O3, InChI=1S/C9H17N2.C4H9NO3/c1-3-4-5-6-11-8-7-10(2)9-11;1-2(6)3(5)4(7)8/h7-9H,3-6H2,1-2H3;2-3,6H,5H2,1H3,(H,7,8)/q+1;/p-1/t;2-,3+/m.1/s1
Compound 4: 1-hexyl-3-methylimidazolium DL-threoninate, C14H27N3O3, InChI=1S/C10H19N2.C4H9NO3/c1-3-4-5-6-7-12-9-8-11(2)10-12;1-2(6)3(5)4(7)8/h8-10H,3-7H2,1-2H3;2-3,6H,5H2,1H3,(H,7,8)/q+1;/p-1/t;2-,3+/m.1/s1

System: 1-propyl-3-methylimidazolium DL-threoninate; phases: Liquid
Fixed: Pressure, kPa = 100
Property: Mass density, kg/m3 (Liquid); method: Vibrating tube method
Temperature, K	Mass density, kg/m3	uncertainty
288.15	1151.33	0.7
293.15	1148.8	0.7
298.15	1144.52	0.7
303.15	1141.13	0.7
308.15	1137.76	0.69
313.15	1134.38	0.69
318.15	1130.9	0.69
323.15	1127.5	0.69
328.15	1124.07	0.69

System: 1-propyl-3-methylimidazolium DL-threoninate; phases: Liquid
Fixed: Pressure, kPa = 100
Property: Refractive index (Na D-line) (Liquid); method: Standard Abbe refractometry
Temperature, K	Refractive index (Na D-line)	uncertainty
288.15	1.5147	0.0013
293.15	1.5131	0.0013
298.15	1.5116	0.0013
303.15	1.5101	0.0013
308.15	1.5086	0.0013
313.15	1.5071	0.0013
318.15	1.5055	0.0013
323.15	1.5039	0.0013
328.15	1.5026	0.0013

System: 1-propyl-3-methylimidazolium DL-threoninate; phases: Liquid, Air at 1 atmosphere
Property: Surface tension liquid-gas, N/m (Liquid); method: Maximal bubble pressure
Temperature, K	Surface tension liquid-gas, N/m	uncertainty
288.15	0.0414	0.0005
293.15	0.0411	0.0005
298.15	0.0407	0.0005
303.15	0.0404	0.0005
308.15	0.0401	0.0005
313.15	0.0398	0.0005
318.15	0.0394	0.0005
323.15	0.0391	0.0005
328.15	0.0387	0.0005

System: 1-pentyl-3-methylimidazolium DL-threoninate; phases: Liquid
Fixed: Pressure, kPa = 100
Property: Mass density, kg/m3 (Liquid); method: Vibrating tube method
Temperature, K	Mass density, kg/m3	uncertainty
288.15	1107.7	0.68
293.15	1104.39	0.68
298.15	1101.08	0.68
303.15	1097.75	0.68
308.15	1094.43	0.68
313.15	1091.16	0.68
318.15	1087.7	0.68
323.15	1084.55	0.68
328.15	1081.25	0.68

System: 1-pentyl-3-methylimidazolium DL-threoninate; phases: Liquid, Air at 1 atmosphere
Property: Surface tension liquid-gas, N/m (Liquid); method: Maximal bubble pressure
Temperature, K	Surface tension liquid-gas, N/m	uncertainty
288.15	0.0382	0.0005
293.15	0.0378	0.0005
298.15	0.0376	0.0005
303.15	0.0372	0.0005
308.15	0.0369	0.0005
313.15	0.0366	0.0005
318.15	0.0362	0.0005
323.15	0.0359	0.0005
328.15	0.0356	0.0005

System: 1-pentyl-3-methylimidazolium DL-threoninate; phases: Liquid
Fixed: Pressure, kPa = 100
Property: Refractive index (Na D-line) (Liquid); method: Standard Abbe refractometry
Temperature, K	Refractive index (Na D-line)	uncertainty
288.15	1.508	0.0013
293.15	1.5065	0.0013
298.15	1.5048	0.0013
303.15	1.5032	0.0013
308.15	1.5018	0.0013
313.15	1.5001	0.0013
318.15	1.4987	0.0013
323.15	1.497	0.0013
328.15	1.4955	0.0013

System: 1-hexyl-3-methylimidazolium DL-threoninate; phases: Liquid
Fixed: Pressure, kPa = 100
Property: Mass density, kg/m3 (Liquid); method: Vibrating tube method
Temperature, K	Mass density, kg/m3	uncertainty
288.15	1089.98	0.68
293.15	1086.67	0.68
298.15	1083.36	0.68
303.15	1080.02	0.68
308.15	1076.7	0.68
313.15	1073.42	0.67
318.15	1069.96	0.67
323.15	1066.82	0.67
328.15	1063.52	0.67

System: 1-hexyl-3-methylimidazolium DL-threoninate; phases: Liquid, Air at 1 atmosphere
Property: Surface tension liquid-gas, N/m (Liquid); method: Maximal bubble pressure
Temperature, K	Surface tension liquid-gas, N/m	uncertainty
288.15	0.037	0.0005
293.15	0.0366	0.0005
298.15	0.0363	0.0005
303.15	0.036	0.0005
308.15	0.0357	0.0005
313.15	0.0354	0.0005
318.15	0.035	0.0005
323.15	0.0347	0.0005
328.15	0.0344	0.0005

System: 1-hexyl-3-methylimidazolium DL-threoninate; phases: Liquid
Fixed: Pressure, kPa = 100
Property: Refractive index (Na D-line) (Liquid); method: Standard Abbe refractometry
Temperature, K	Refractive index (Na D-line)	uncertainty
288.15	1.5049	0.0013
293.15	1.5033	0.0013
298.15	1.5019	0.0013
303.15	1.5001	0.0013
308.15	1.4988	0.0013
313.15	1.4971	0.0013
318.15	1.4957	0.0013
323.15	1.494	0.0013
328.15	1.4925	0.0013

System: water + 1-propyl-3-methylimidazolium DL-threoninate; phases: Liquid
Fixed: Pressure, kPa = 100
Property: Mass density, kg/m3 (Liquid); method: Vibrating tube method
Temperature, K	Mass fraction of water	Mass density, kg/m3	uncertainty
288.15	0.0065	1150.46	0.7
293.15	0.0065	1147.75	0.7
298.15	0.0065	1143.37	0.7
303.15	0.0065	1139.97	0.7
308.15	0.0065	1136.59	0.69
313.15	0.0065	1133.16	0.69
318.15	0.0065	1129.72	0.69
323.15	0.0065	1126.27	0.69
328.15	0.0065	1122.82	0.69
288.15	0.0092	1150.15	0.7
293.15	0.0092	1147.33	0.7
298.15	0.0092	1142.89	0.7
303.15	0.0092	1139.49	0.69
308.15	0.0092	1136.11	0.69
313.15	0.0092	1132.71	0.69
318.15	0.0092	1129.19	0.69
323.15	0.0092	1125.8	0.69
328.15	0.0092	1122.34	0.69
288.15	0.0116	1149.81	0.7
293.15	0.0116	1146.94	0.7
298.15	0.0116	1142.43	0.7
303.15	0.0116	1139.07	0.69
308.15	0.0116	1135.68	0.69
313.15	0.0116	1132.22	0.69
318.15	0.0116	1128.78	0.69
323.15	0.0116	1125.32	0.69
328.15	0.0116	1121.86	0.69
288.15	0.0135	1149.56	0.7
293.15	0.0135	1146.61	0.7
298.15	0.0135	1142.12	0.7
303.15	0.0135	1138.7	0.69
308.15	0.0135	1135.31	0.69
313.15	0.0135	1131.88	0.69
318.15	0.0135	1128.43	0.69
323.15	0.0135	1124.96	0.69
328.15	0.0135	1121.5	0.69
288.15	0.0161	1149.22	0.7
293.15	0.0161	1146.22	0.7
298.15	0.0161	1141.66	0.69
303.15	0.0161	1138.27	0.69
308.15	0.0161	1134.87	0.69
313.15	0.0161	1131.4	0.69
318.15	0.0161	1127.95	0.69
323.15	0.0161	1124.48	0.69
328.15	0.0161	1121	0.69

System: water + 1-propyl-3-methylimidazolium DL-threoninate; phases: Liquid, Air at 1 atmosphere
Property: Surface tension liquid-gas, N/m (Liquid); method: Maximal bubble pressure
Temperature, K	Mass fraction of water	Surface tension liquid-gas, N/m	uncertainty
288.15	0.0065	0.042	0.0005
293.15	0.0065	0.0417	0.0005
298.15	0.0065	0.0413	0.0005
303.15	0.0065	0.041	0.0005
308.15	0.0065	0.0407	0.0005
313.15	0.0065	0.0404	0.0005
318.15	0.0065	0.0401	0.0005
323.15	0.0065	0.0398	0.0005
328.15	0.0065	0.0395	0.0005
288.15	0.0092	0.0422	0.0005
293.15	0.0092	0.0419	0.0005
298.15	0.0092	0.0416	0.0005
303.15	0.0092	0.0413	0.0005
308.15	0.0092	0.041	0.0005
313.15	0.0092	0.0407	0.0005
318.15	0.0092	0.0404	0.0005
323.15	0.0092	0.0401	0.0005
328.15	0.0092	0.0398	0.0005
288.15	0.0116	0.0424	0.0005
293.15	0.0116	0.0421	0.0005
298.15	0.0116	0.0418	0.0005
303.15	0.0116	0.0415	0.0005
308.15	0.0116	0.0412	0.0005
313.15	0.0116	0.0409	0.0005
318.15	0.0116	0.0406	0.0005
323.15	0.0116	0.0404	0.0005
328.15	0.0116	0.0401	0.0005
288.15	0.0135	0.0426	0.0005
293.15	0.0135	0.0423	0.0005
298.15	0.0135	0.042	0.0005
303.15	0.0135	0.0417	0.0005
308.15	0.0135	0.0414	0.0005
313.15	0.0135	0.0411	0.0005
318.15	0.0135	0.0408	0.0005
323.15	0.0135	0.0406	0.0005
328.15	0.0135	0.0404	0.0005
288.15	0.0161	0.0428	0.0005
293.15	0.0161	0.0425	0.0005
298.15	0.0161	0.0422	0.0005
303.15	0.0161	0.0419	0.0005
308.15	0.0161	0.0416	0.0005
313.15	0.0161	0.0413	0.0005
318.15	0.0161	0.0411	0.0005
323.15	0.0161	0.0409	0.0005
328.15	0.0161	0.0407	0.0005

System: water + 1-propyl-3-methylimidazolium DL-threoninate; phases: Liquid
Fixed: Pressure, kPa = 100
Property: Refractive index (Na D-line) (Liquid); method: Standard Abbe refractometry
Temperature, K	Mass fraction of water	Refractive index (Na D-line)	uncertainty
288.15	0.0065	1.5132	0.0013
293.15	0.0065	1.5116	0.0013
298.15	0.0065	1.5101	0.0013
303.15	0.0065	1.5088	0.0013
308.15	0.0065	1.5074	0.0013
313.15	0.0065	1.506	0.0013
318.15	0.0065	1.5044	0.0013
323.15	0.0065	1.5029	0.0013
328.15	0.0065	1.5015	0.0013
288.15	0.0092	1.5127	0.0013
293.15	0.0092	1.5111	0.0013
298.15	0.0092	1.5096	0.0013
303.15	0.0092	1.5082	0.0013
308.15	0.0092	1.5069	0.0013
313.15	0.0092	1.5055	0.0013
318.15	0.0092	1.504	0.0013
323.15	0.0092	1.5024	0.0013
328.15	0.0092	1.5011	0.0013
288.15	0.0116	1.5121	0.0013
293.15	0.0116	1.5105	0.0013
298.15	0.0116	1.509	0.0013
303.15	0.0116	1.5077	0.0013
308.15	0.0116	1.5064	0.0013
313.15	0.0116	1.5052	0.0013
318.15	0.0116	1.5036	0.0013
323.15	0.0116	1.5021	0.0013
328.15	0.0116	1.5007	0.0013
288.15	0.0135	1.5117	0.0013
293.15	0.0135	1.5101	0.0013
298.15	0.0135	1.5086	0.0013
303.15	0.0135	1.5073	0.0013
308.15	0.0135	1.5061	0.0013
313.15	0.0135	1.5048	0.0013
318.15	0.0135	1.5033	0.0013
323.15	0.0135	1.5018	0.0013
328.15	0.0135	1.5004	0.0013
288.15	0.0161	1.5111	0.0013
293.15	0.0161	1.5095	0.0013
298.15	0.0161	1.508	0.0013
303.15	0.0161	1.5068	0.0013
308.15	0.0161	1.5056	0.0013
313.15	0.0161	1.5044	0.0013
318.15	0.0161	1.5028	0.0013
323.15	0.0161	1.5013	0.0013
328.15	0.0161	1.4999	0.0013

System: 1-pentyl-3-methylimidazolium DL-threoninate + water; phases: Liquid
Fixed: Pressure, kPa = 100
Property: Mass density, kg/m3 (Liquid); method: Vibrating tube method
Temperature, K	Mass fraction of water	Mass density, kg/m3	uncertainty
288.15	0.0066	1107.18	0.68
293.15	0.0066	1103.87	0.68
298.15	0.0066	1100.56	0.68
303.15	0.0066	1097.21	0.68
308.15	0.0066	1093.89	0.68
313.15	0.0066	1090.6	0.68
318.15	0.0066	1087.14	0.68
323.15	0.0066	1083.97	0.68
328.15	0.0066	1080.67	0.68
288.15	0.0097	1106.95	0.68
293.15	0.0097	1103.64	0.68
298.15	0.0097	1100.33	0.68
303.15	0.0097	1096.98	0.68
308.15	0.0097	1093.66	0.68
313.15	0.0097	1090.36	0.68
318.15	0.0097	1086.89	0.68
323.15	0.0097	1083.72	0.68
328.15	0.0097	1080.42	0.68
288.15	0.0119	1106.76	0.68
293.15	0.0119	1103.45	0.68
298.15	0.0119	1100.14	0.68
303.15	0.0119	1096.79	0.68
308.15	0.0119	1093.46	0.68
313.15	0.0119	1090.16	0.68
318.15	0.0119	1086.69	0.68
323.15	0.0119	1083.51	0.68
328.15	0.0119	1080.21	0.68
288.15	0.0141	1106.59	0.68
293.15	0.0141	1103.28	0.68
298.15	0.0141	1099.97	0.68
303.15	0.0141	1096.61	0.68
308.15	0.0141	1093.29	0.68
313.15	0.0141	1089.98	0.68
318.15	0.0141	1086.51	0.68
323.15	0.0141	1083.32	0.68
328.15	0.0141	1080.02	0.67
288.15	0.0165	1106.41	0.68
293.15	0.0165	1103.1	0.68
298.15	0.0165	1099.79	0.68
303.15	0.0165	1096.42	0.68
308.15	0.0165	1093.09	0.68
313.15	0.0165	1089.78	0.68
318.15	0.0165	1086.31	0.68
323.15	0.0165	1083.11	0.68
328.15	0.0165	1079.81	0.67

System: 1-pentyl-3-methylimidazolium DL-threoninate + water; phases: Liquid, Air at 1 atmosphere
Property: Surface tension liquid-gas, N/m (Liquid); method: Maximal bubble pressure
Temperature, K	Mass fraction of water	Surface tension liquid-gas, N/m	uncertainty
288.15	0.0066	0.0388	0.0005
293.15	0.0066	0.0384	0.0005
298.15	0.0066	0.0382	0.0005
303.15	0.0066	0.0378	0.0005
308.15	0.0066	0.0375	0.0005
313.15	0.0066	0.0372	0.0005
318.15	0.0066	0.0369	0.0005
323.15	0.0066	0.0366	0.0005
328.15	0.0066	0.0363	0.0005
288.15	0.0097	0.039	0.0005
293.15	0.0097	0.0386	0.0005
298.15	0.0097	0.0384	0.0005
303.15	0.0097	0.0381	0.0005
308.15	0.0097	0.0378	0.0005
313.15	0.0097	0.0375	0.0005
318.15	0.0097	0.0372	0.0005
323.15	0.0097	0.0369	0.0005
328.15	0.0097	0.0366	0.0005
288.15	0.0119	0.0392	0.0005
293.15	0.0119	0.0388	0.0005
298.15	0.0119	0.0386	0.0005
303.15	0.0119	0.0383	0.0005
308.15	0.0119	0.038	0.0005
313.15	0.0119	0.0377	0.0005
318.15	0.0119	0.0374	0.0005
323.15	0.0119	0.0371	0.0005
328.15	0.0119	0.0368	0.0005
288.15	0.0141	0.0394	0.0005
293.15	0.0141	0.039	0.0005
298.15	0.0141	0.0388	0.0005
303.15	0.0141	0.0385	0.0005
308.15	0.0141	0.0382	0.0005
313.15	0.0141	0.0379	0.0005
318.15	0.0141	0.0376	0.0005
323.15	0.0141	0.0373	0.0005
328.15	0.0141	0.037	0.0005
288.15	0.0165	0.0396	0.0005
293.15	0.0165	0.0392	0.0005
298.15	0.0165	0.039	0.0005
303.15	0.0165	0.0387	0.0005
308.15	0.0165	0.0384	0.0005
313.15	0.0165	0.0381	0.0005
318.15	0.0165	0.0379	0.0005
323.15	0.0165	0.0376	0.0005
328.15	0.0165	0.0373	0.0005

System: 1-pentyl-3-methylimidazolium DL-threoninate + water; phases: Liquid
Fixed: Pressure, kPa = 100
Property: Refractive index (Na D-line) (Liquid); method: Standard Abbe refractometry
Temperature, K	Mass fraction of water	Refractive index (Na D-line)	uncertainty
288.15	0.0066	1.5071	0.0013
293.15	0.0066	1.5056	0.0013
298.15	0.0066	1.504	0.0013
303.15	0.0066	1.5024	0.0013
308.15	0.0066	1.5009	0.0013
313.15	0.0066	1.4992	0.0013
318.15	0.0066	1.4977	0.0013
323.15	0.0066	1.4961	0.0013
328.15	0.0066	1.4945	0.0013
288.15	0.0097	1.5067	0.0013
293.15	0.0097	1.5053	0.0013
298.15	0.0097	1.5037	0.0013
303.15	0.0097	1.5021	0.0013
308.15	0.0097	1.5006	0.0013
313.15	0.0097	1.4988	0.0013
318.15	0.0097	1.4974	0.0013
323.15	0.0097	1.4957	0.0013
328.15	0.0097	1.4941	0.0013
288.15	0.0119	1.5064	0.0013
293.15	0.0119	1.505	0.0013
298.15	0.0119	1.5034	0.0013
303.15	0.0119	1.5017	0.0013
308.15	0.0119	1.5003	0.0013
313.15	0.0119	1.4984	0.0013
318.15	0.0119	1.497	0.0013
323.15	0.0119	1.4954	0.0013
328.15	0.0119	1.4937	0.0013
288.15	0.0141	1.5061	0.0013
293.15	0.0141	1.5047	0.0013
298.15	0.0141	1.5032	0.0013
303.15	0.0141	1.5015	0.0013
308.15	0.0141	1.5	0.0013
313.15	0.0141	1.4982	0.0013
318.15	0.0141	1.4967	0.0013
323.15	0.0141	1.4951	0.0013
328.15	0.0141	1.4934	0.0013
288.15	0.0165	1.5058	0.0013
293.15	0.0165	1.5044	0.0013
298.15	0.0165	1.5028	0.0013
303.15	0.0165	1.5012	0.0013
308.15	0.0165	1.4997	0.0013
313.15	0.0165	1.4978	0.0013
318.15	0.0165	1.4963	0.0013
323.15	0.0165	1.4947	0.0013
328.15	0.0165	1.4931	0.0013

System: 1-hexyl-3-methylimidazolium DL-threoninate + water; phases: Liquid
Fixed: Pressure, kPa = 100
Property: Mass density, kg/m3 (Liquid); method: Vibrating tube method
Temperature, K	Mass fraction of water	Mass density, kg/m3	uncertainty
288.15	0.006	1089.58	0.68
293.15	0.006	1086.27	0.68
298.15	0.006	1082.96	0.68
303.15	0.006	1079.61	0.68
308.15	0.006	1076.29	0.67
313.15	0.006	1073	0.67
318.15	0.006	1069.54	0.67
323.15	0.006	1066.37	0.67
328.15	0.006	1063.07	0.67
288.15	0.0091	1089.35	0.68
293.15	0.0091	1086.04	0.68
298.15	0.0091	1082.73	0.68
303.15	0.0091	1079.38	0.68
308.15	0.0091	1076.06	0.67
313.15	0.0091	1072.76	0.67
318.15	0.0091	1069.29	0.67
323.15	0.0091	1066.12	0.67
328.15	0.0091	1062.82	0.67
288.15	0.012	1089.16	0.68
293.15	0.012	1085.85	0.68
298.15	0.012	1082.54	0.68
303.15	0.012	1079.19	0.67
308.15	0.012	1075.86	0.67
313.15	0.012	1072.56	0.67
318.15	0.012	1069.09	0.67
323.15	0.012	1065.91	0.67
328.15	0.012	1062.61	0.67
288.15	0.0149	1088.99	0.68
293.15	0.0149	1085.68	0.68
298.15	0.0149	1082.37	0.68
303.15	0.0149	1079.01	0.67
308.15	0.0149	1075.69	0.67
313.15	0.0149	1072.38	0.67
318.15	0.0149	1068.91	0.67
323.15	0.0149	1065.72	0.67
328.15	0.0149	1062.42	0.67
288.15	0.0172	1088.81	0.68
293.15	0.0172	1085.5	0.68
298.15	0.0172	1082.19	0.67
303.15	0.0172	1078.82	0.67
308.15	0.0172	1075.49	0.67
313.15	0.0172	1072.18	0.67
318.15	0.0172	1068.71	0.67
323.15	0.0172	1065.51	0.67
328.15	0.0172	1062.21	0.67

System: 1-hexyl-3-methylimidazolium DL-threoninate + water; phases: Liquid, Air at 1 atmosphere
Property: Surface tension liquid-gas, N/m (Liquid); method: Maximal bubble pressure
Temperature, K	Mass fraction of water	Surface tension liquid-gas, N/m	uncertainty
288.15	0.006	0.0374	0.0005
293.15	0.006	0.037	0.0005
298.15	0.006	0.0367	0.0005
303.15	0.006	0.0364	0.0005
308.15	0.006	0.0361	0.0005
313.15	0.006	0.0358	0.0005
318.15	0.006	0.0355	0.0005
323.15	0.006	0.0352	0.0005
328.15	0.006	0.0349	0.0005
288.15	0.0091	0.0376	0.0005
293.15	0.0091	0.0372	0.0005
298.15	0.0091	0.0369	0.0005
303.15	0.0091	0.0367	0.0005
308.15	0.0091	0.0364	0.0005
313.15	0.0091	0.0361	0.0005
318.15	0.0091	0.0358	0.0005
323.15	0.0091	0.0355	0.0005
328.15	0.0091	0.0352	0.0005
288.15	0.012	0.0378	0.0005
293.15	0.012	0.0374	0.0005
298.15	0.012	0.0371	0.0005
303.15	0.012	0.0369	0.0005
308.15	0.012	0.0366	0.0005
313.15	0.012	0.0363	0.0005
318.15	0.012	0.036	0.0005
323.15	0.012	0.0357	0.0005
328.15	0.012	0.0354	0.0005
288.15	0.0149	0.038	0.0005
293.15	0.0149	0.0376	0.0005
298.15	0.0149	0.0373	0.0005
303.15	0.0149	0.0371	0.0005
308.15	0.0149	0.0368	0.0005
313.15	0.0149	0.0365	0.0005
318.15	0.0149	0.0363	0.0005
323.15	0.0149	0.036	0.0005
328.15	0.0149	0.0357	0.0005
288.15	0.0172	0.0382	0.0005
293.15	0.0172	0.0378	0.0005
298.15	0.0172	0.0375	0.0005
303.15	0.0172	0.0373	0.0005
308.15	0.0172	0.037	0.0005
313.15	0.0172	0.0367	0.0005
318.15	0.0172	0.0365	0.0005
323.15	0.0172	0.0362	0.0005
328.15	0.0172	0.0359	0.0005

System: 1-hexyl-3-methylimidazolium DL-threoninate + water; phases: Liquid
Fixed: Pressure, kPa = 100
Property: Refractive index (Na D-line) (Liquid); method: Standard Abbe refractometry
Temperature, K	Mass fraction of water	Refractive index (Na D-line)	uncertainty
288.15	0.006	1.5042	0.0013
293.15	0.006	1.5026	0.0013
298.15	0.006	1.5012	0.0013
303.15	0.006	1.4994	0.0013
308.15	0.006	1.4981	0.0013
313.15	0.006	1.4964	0.0013
318.15	0.006	1.495	0.0013
323.15	0.006	1.4933	0.0013
328.15	0.006	1.4918	0.0013
288.15	0.0091	1.5038	0.0013
293.15	0.0091	1.5023	0.0013
298.15	0.0091	1.5009	0.0013
303.15	0.0091	1.4991	0.0013
308.15	0.0091	1.4978	0.0013
313.15	0.0091	1.4961	0.0013
318.15	0.0091	1.4947	0.0013
323.15	0.0091	1.4929	0.0013
328.15	0.0091	1.4914	0.0013
288.15	0.012	1.5034	0.0013
293.15	0.012	1.502	0.0013
298.15	0.012	1.5006	0.0013
303.15	0.012	1.4988	0.0013
308.15	0.012	1.4974	0.0013
313.15	0.012	1.4958	0.0013
318.15	0.012	1.4944	0.0013
323.15	0.012	1.4926	0.0013
328.15	0.012	1.4911	0.0013
288.15	0.0149	1.5031	0.0013
293.15	0.0149	1.5017	0.0013
298.15	0.0149	1.5003	0.0013
303.15	0.0149	1.4985	0.0013
308.15	0.0149	1.4971	0.0013
313.15	0.0149	1.4955	0.0013
318.15	0.0149	1.4941	0.0013
323.15	0.0149	1.4922	0.0013
328.15	0.0149	1.4907	0.0013
288.15	0.0172	1.5028	0.0013
293.15	0.0172	1.5014	0.0013
298.15	0.0172	1.5	0.0013
303.15	0.0172	1.4982	0.0012
308.15	0.0172	1.4968	0.0013
313.15	0.0172	1.4952	0.0012
318.15	0.0172	1.4938	0.0013
323.15	0.0172	1.4919	0.0012
328.15	0.0172	1.4904	0.0013
