Measured thermophysical data. Effect of placement of hydroxyl groups in isomeric butanediol on the behaviour of thermophysical and spectroscopic properties of pyrrolidin-2-one
Source: J. Chem. Thermodyn., 2005, 10.1016/j.jct.2004.11.020
Compound 1: 2-pyrrolidinone, C4H7NO, InChI=1S/C4H7NO/c6-4-2-1-3-5-4/h1-3H2,(H,5,6)
Compound 2: 1,2-butanediol, C4H10O2, InChI=1S/C4H10O2/c1-2-4(6)3-5/h4-6H,2-3H2,1H3
Compound 3: 1,3-butanediol, C4H10O2, InChI=1S/C4H10O2/c1-4(6)2-3-5/h4-6H,2-3H2,1H3
Compound 4: 1,4-butanediol, C4H10O2, InChI=1S/C4H10O2/c5-3-1-2-4-6/h5-6H,1-4H2
Compound 5: 2,3-butanediol, C4H10O2, InChI=1S/C4H10O2/c1-3(5)4(2)6/h3-6H,1-2H3

System: 2-pyrrolidinone; phases: Liquid
Property: Mass density, kg/m3 (Liquid); method: VIBTUB:UFactor:4
Temperature, K	Pressure, kPa	Mass density, kg/m3	uncertainty
308.15	101.325	1097.14	0.66

System: 2-pyrrolidinone; phases: Liquid
Property: Viscosity, Pa*s (Liquid); method: CAPTUB:UFactor:4
Temperature, K	Pressure, kPa	Viscosity, Pa*s	uncertainty
308.15	101.325	0.008922	0.000235

System: 2-pyrrolidinone; phases: Liquid
Property: Speed of sound, m/s (Liquid); method: Pulse-echo method
Temperature, K	Pressure, kPa	Speed of sound, m/s	uncertainty
308.15	101.325	1599.97	1.5

System: 1,2-butanediol; phases: Liquid
Property: Mass density, kg/m3 (Liquid); method: VIBTUB:UFactor:4
Temperature, K	Pressure, kPa	Mass density, kg/m3	uncertainty
308.15	101.325	988.25	1.03

System: 1,2-butanediol; phases: Liquid
Property: Viscosity, Pa*s (Liquid); method: CAPTUB:UFactor:4
Temperature, K	Pressure, kPa	Viscosity, Pa*s	uncertainty
308.15	101.325	0.030294	0.000846

System: 1,2-butanediol; phases: Liquid
Property: Speed of sound, m/s (Liquid); method: Pulse-echo method
Temperature, K	Pressure, kPa	Speed of sound, m/s	uncertainty
308.15	101.325	1422.61	2.25

System: 1,3-butanediol; phases: Liquid
Property: Mass density, kg/m3 (Liquid); method: VIBTUB:UFactor:4
Temperature, K	Pressure, kPa	Mass density, kg/m3	uncertainty
308.15	101.325	991.28	0.53

System: 1,3-butanediol; phases: Liquid
Property: Viscosity, Pa*s (Liquid); method: CAPTUB:UFactor:4
Temperature, K	Pressure, kPa	Viscosity, Pa*s	uncertainty
308.15	101.325	0.054236	0.001192

System: 1,3-butanediol; phases: Liquid
Property: Speed of sound, m/s (Liquid); method: Pulse-echo method
Temperature, K	Pressure, kPa	Speed of sound, m/s	uncertainty
308.15	101.325	1496.03	1.47

System: 1,4-butanediol; phases: Liquid
Property: Mass density, kg/m3 (Liquid); method: VIBTUB:UFactor:4
Temperature, K	Pressure, kPa	Mass density, kg/m3	uncertainty
308.15	101.325	1003.95	0.54

System: 1,4-butanediol; phases: Liquid
Property: Viscosity, Pa*s (Liquid); method: CAPTUB:UFactor:4
Temperature, K	Pressure, kPa	Viscosity, Pa*s	uncertainty
308.15	101.325	0.047378	0.001351

System: 1,4-butanediol; phases: Liquid
Property: Speed of sound, m/s (Liquid); method: Pulse-echo method
Temperature, K	Pressure, kPa	Speed of sound, m/s	uncertainty
308.15	101.325	1577.76	1.49

System: 2,3-butanediol; phases: Liquid
Property: Mass density, kg/m3 (Liquid); method: VIBTUB:UFactor:4
Temperature, K	Pressure, kPa	Mass density, kg/m3	uncertainty
308.15	101.325	990.72	1.03

System: 2,3-butanediol; phases: Liquid
Property: Viscosity, Pa*s (Liquid); method: CAPTUB:UFactor:4
Temperature, K	Pressure, kPa	Viscosity, Pa*s	uncertainty
308.15	101.325	0.05138	0.001136

System: 2,3-butanediol; phases: Liquid
Property: Speed of sound, m/s (Liquid); method: Pulse-echo method
Temperature, K	Pressure, kPa	Speed of sound, m/s	uncertainty
308.15	101.325	1456.6	2.26

System: 1,2-butanediol + 2-pyrrolidinone; phases: Liquid
Fixed: Pressure, kPa = 101
Fixed: Temperature, K = 308.15
Property: Viscosity, Pa*s (Liquid); method: CAPTUB:UFactor:4
Mole fraction of 2-pyrrolidinone	Viscosity, Pa*s	uncertainty
0.027	0.028334	0.000785
0.0512	0.027116	0.000747
0.0797	0.025572	0.000699
0.0977	0.024376	0.000663
0.1464	0.022315	0.000602
0.1937	0.020822	0.000558
0.3017	0.017814	0.000471
0.4061	0.015685	0.000412
0.5017	0.01409	0.000368
0.5983	0.012682	0.000331
0.7038	0.01152	0.0003
0.798	0.010784	0.000281
0.8484	0.010259	0.000268
0.9038	0.009435	0.000247
0.9319	0.009291	0.000244
0.9512	0.009015	0.000237
0.9738	0.008969	0.000236

System: 1,2-butanediol + 2-pyrrolidinone; phases: Liquid
Fixed: Pressure, kPa = 101
Fixed: Temperature, K = 308.15
Property: Speed of sound, m/s (Liquid); method: Pulse-echo method
Mole fraction of 2-pyrrolidinone	Speed of sound, m/s	uncertainty
0.027	1426.69	2.23
0.0512	1430.54	2.21
0.0797	1435.18	2.19
0.0977	1438.17	2.17
0.1464	1446.27	2.13
0.1937	1454.33	2.09
0.3017	1472.5	2
0.4061	1490.29	1.92
0.5017	1507.51	1.85
0.5983	1524.7	1.77
0.7038	1543.63	1.7
0.798	1561.05	1.63
0.8484	1570.6	1.6
0.9038	1580.58	1.56
0.9319	1586.57	1.54
0.9512	1590.06	1.53
0.9738	1594.68	1.52

System: 1,2-butanediol + 2-pyrrolidinone; phases: Liquid
Fixed: Pressure, kPa = 101
Fixed: Temperature, K = 308.15
Property: Excess molar volume, m3/mol (Liquid); method: DIRDIL:UFactor:4
Mole fraction of 2-pyrrolidinone	Excess molar volume, m3/mol	uncertainty
0.0473	1.3e-08	9e-09
0.0621	1.8e-08	9e-09
0.0786	2.4e-08	9e-09
0.0991	2.8e-08	9e-09
0.113	3.2e-08	9e-09
0.1263	3.6e-08	9e-09
0.142	4e-08	9e-09
0.162	4.4e-08	1e-08
0.1973	4.7e-08	1e-08
0.2456	5e-08	1e-08
0.2794	5.2e-08	1e-08
0.3213	5.3e-08	1e-08
0.3797	5.2e-08	1e-08
0.4034	5.1e-08	1e-08
0.4544	5e-08	1e-08
0.4753	4.9e-08	1e-08
0.5014	4.7e-08	1e-08
0.5226	4.4e-08	1e-08
0.5643	4.1e-08	1e-08
0.5966	3.8e-08	9e-09
0.6244	3.6e-08	9e-09
0.6571	3.3e-08	9e-09
0.688	2.9e-08	9e-09
0.71	2.6e-08	9e-09
0.7348	2.4e-08	9e-09
0.7619	2e-08	9e-09
0.7843	1.7e-08	9e-09
0.8061	1.4e-08	9e-09
0.8374	1.2e-08	9e-09
0.8607	1.1e-08	9e-09
0.8753	1e-08	9e-09
0.8878	9e-09	9e-09
0.9039	8e-09	9e-09
0.924	7e-09	9e-09
0.9469	6e-09	9e-09
0.9599	5e-09	9e-09
0.9885	3e-09	9e-09
0.9955	2e-09	9e-09

System: 1,3-butanediol + 2-pyrrolidinone; phases: Liquid
Fixed: Pressure, kPa = 101
Fixed: Temperature, K = 308.15
Property: Viscosity, Pa*s (Liquid); method: CAPTUB:UFactor:4
Mole fraction of 2-pyrrolidinone	Viscosity, Pa*s	uncertainty
0.0261	0.051567	0.001053
0.0526	0.046608	0.001325
0.0755	0.04487	0.001266
0.1	0.040884	0.001135
0.1543	0.036151	0.000984
0.2041	0.031476	0.00084
0.3003	0.026188	0.000685
0.3932	0.021535	0.000555
0.4985	0.017825	0.000456
0.603	0.015455	0.000394
0.6985	0.01317	0.000337
0.7935	0.011851	0.000304
0.839	0.010811	0.000279
0.8994	0.009984	0.00026
0.9271	0.009739	0.000254
0.947	0.00944	0.000247
0.9774	0.00915	0.00024

System: 1,3-butanediol + 2-pyrrolidinone; phases: Liquid
Fixed: Pressure, kPa = 101
Fixed: Temperature, K = 308.15
Property: Speed of sound, m/s (Liquid); method: Pulse-echo method
Mole fraction of 2-pyrrolidinone	Speed of sound, m/s	uncertainty
0.0261	1498	1.47
0.0526	1500.55	1.47
0.0755	1502.81	1.47
0.1	1504.8	1.47
0.1543	1509.21	1.47
0.2041	1513.18	1.47
0.3003	1521.12	1.47
0.3932	1529.1	1.48
0.4985	1539	1.48
0.603	1549.04	1.48
0.6985	1559.36	1.49
0.7935	1570.89	1.49
0.839	1576.85	1.49
0.8994	1585.08	1.5
0.9271	1588.98	1.5
0.947	1592.26	1.5
0.9774	1596.27	1.5

System: 1,3-butanediol + 2-pyrrolidinone; phases: Liquid
Fixed: Pressure, kPa = 101
Fixed: Temperature, K = 308.15
Property: Excess molar volume, m3/mol (Liquid); method: DIRDIL:UFactor:4
Mole fraction of 2-pyrrolidinone	Excess molar volume, m3/mol	uncertainty
0.0122	2e-09	9e-09
0.0368	8e-09	9e-09
0.055	2.3e-08	9e-09
0.0812	3.4e-08	9e-09
0.0939	4.6e-08	1e-08
0.1079	5.5e-08	1e-08
0.1227	5.9e-08	1e-08
0.1447	6.3e-08	1e-08
0.1594	6.7e-08	1e-08
0.1843	8.2e-08	1e-08
0.2174	9.5e-08	1e-08
0.2396	1.02e-07	1e-08
0.2586	1.16e-07	1e-08
0.2859	1.25e-07	1e-08
0.3054	1.31e-07	1e-08
0.3436	1.38e-07	1e-08
0.3606	1.42e-07	1e-08
0.3817	1.46e-07	1e-08
0.4337	1.48e-07	1e-08
0.4571	1.49e-07	1e-08
0.4815	1.49e-07	1e-08
0.519	1.48e-07	1e-08
0.5798	1.45e-07	1e-08
0.5931	1.41e-07	1e-08
0.5936	1.39e-07	1e-08
0.6015	1.38e-07	1e-08
0.6087	1.37e-07	1e-08
0.6204	1.33e-07	1e-08
0.6319	1.32e-07	1e-08
0.6419	1.32e-07	1e-08
0.6744	1.28e-07	1e-08
0.6903	1.22e-07	1e-08
0.705	1.2e-07	1e-08
0.7245	1.15e-07	1e-08
0.7372	1.15e-07	1e-08
0.7679	1.07e-07	1e-08
0.7781	9.8e-08	1e-08
0.7976	9.2e-08	1e-08
0.8132	8.3e-08	1e-08
0.8358	7.3e-08	1e-08

System: 1,4-butanediol + 2-pyrrolidinone; phases: Liquid
Fixed: Pressure, kPa = 101
Fixed: Temperature, K = 308.15
Property: Viscosity, Pa*s (Liquid); method: CAPTUB:UFactor:4
Mole fraction of 2-pyrrolidinone	Viscosity, Pa*s	uncertainty
0.0265	0.044469	0.001253
0.0524	0.042365	0.001183
0.0746	0.040734	0.00113
0.099	0.03916	0.001079
0.1515	0.035627	0.000967
0.197	0.032869	0.000882
0.2914	0.027932	0.000735
0.3911	0.023574	0.000611
0.5237	0.019224	0.000493
0.5997	0.017099	0.000437
0.6904	0.01481	0.000378
0.7878	0.012916	0.000331
0.8877	0.010745	0.000278
0.9305	0.010145	0.000263
0.9481	0.009772	0.000255
0.9741	0.009275	0.000243

System: 1,4-butanediol + 2-pyrrolidinone; phases: Liquid
Fixed: Pressure, kPa = 101
Fixed: Temperature, K = 308.15
Property: Speed of sound, m/s (Liquid); method: Pulse-echo method
Mole fraction of 2-pyrrolidinone	Speed of sound, m/s	uncertainty
0.0265	1579.31	1.49
0.0524	1580.58	1.49
0.0746	1581.52	1.49
0.099	1582.31	1.49
0.1515	1583.73	1.49
0.197	1585.15	1.5
0.2914	1587.84	1.5
0.3911	1589.58	1.5
0.4533	1590.34	1.5
0.5237	1591.33	1.5
0.5997	1592.6	1.5
0.6904	1593.72	1.5
0.7878	1595	1.5
0.8877	1596.76	1.5
0.9305	1598.04	1.5
0.9481	1598.52	1.5
0.9741	1599.17	1.5

System: 1,4-butanediol + 2-pyrrolidinone; phases: Liquid
Fixed: Pressure, kPa = 101
Fixed: Temperature, K = 308.15
Property: Excess molar volume, m3/mol (Liquid); method: DIRDIL:UFactor:4
Mole fraction of 2-pyrrolidinone	Excess molar volume, m3/mol	uncertainty
0.0144	-1e-09	9e-09
0.0335	-2e-09	9e-09
0.0631	-5e-09	9e-09
0.0859	-7e-09	9e-09
0.1034	-1.2e-08	9e-09
0.1244	-1.6e-08	9e-09
0.133	-1.8e-08	9e-09
0.1495	-2.2e-08	9e-09
0.1707	-2.4e-08	9e-09
0.1835	-2.6e-08	9e-09
0.1968	-2.7e-08	9e-09
0.2205	-2.8e-08	9e-09
0.2428	-2.9e-08	9e-09
0.2649	-2.7e-08	9e-09
0.2863	-2.6e-08	9e-09
0.3121	-2.6e-08	9e-09
0.3339	-2.2e-08	9e-09
0.3582	-2e-08	9e-09
0.384	-1.5e-08	9e-09
0.4202	-1.1e-08	9e-09
0.4438	-9e-09	9e-09
0.4656	-7e-09	9e-09
0.4771	-4e-09	9e-09
0.4954	-2e-09	9e-09
0.5159	-2e-09	9e-09
0.527	0	9e-09
0.5409	1e-09	9e-09
0.5644	4e-09	9e-09
0.5753	6e-09	9e-09
0.5886	7e-09	9e-09
0.6032	8e-09	9e-09
0.6155	1e-08	9e-09
0.6273	1.3e-08	9e-09
0.6452	2e-08	9e-09
0.6685	2.2e-08	9e-09
0.6788	2.3e-08	9e-09
0.6925	2.4e-08	9e-09
0.7159	2.5e-08	9e-09
0.7338	2.6e-08	9e-09
0.7494	2.7e-08	9e-09

System: 2,3-butanediol + 2-pyrrolidinone; phases: Liquid
Fixed: Pressure, kPa = 101
Fixed: Temperature, K = 308.15
Property: Viscosity, Pa*s (Liquid); method: CAPTUB:UFactor:4
Mole fraction of 2-pyrrolidinone	Viscosity, Pa*s	uncertainty
0.0255	0.046853	0.001391
0.0507	0.04126	0.001198
0.0765	0.039426	0.001135
0.1001	0.037316	0.001064
0.1489	0.032261	0.0009
0.1941	0.028871	0.000793
0.2955	0.023788	0.000638
0.3899	0.019822	0.000524
0.5294	0.016061	0.000419
0.5898	0.014655	0.000381
0.6978	0.012535	0.000325
0.8089	0.011224	0.000291
0.8587	0.010525	0.000274
0.9067	0.009623	0.000252
0.9497	0.009337	0.000245
0.9702	0.009114	0.000239

System: 2,3-butanediol + 2-pyrrolidinone; phases: Liquid
Fixed: Pressure, kPa = 101
Fixed: Temperature, K = 308.15
Property: Speed of sound, m/s (Liquid); method: Pulse-echo method
Mole fraction of 2-pyrrolidinone	Speed of sound, m/s	uncertainty
0.0255	1458.73	2.24
0.0507	1460.74	2.22
0.0765	1463.02	2.19
0.1001	1466.26	2.17
0.1489	1470.55	2.13
0.1941	1475.23	2.1
0.2955	1488.2	2.01
0.3899	1500.69	1.94
0.5294	1520.33	1.83
0.5898	1529.24	1.78
0.6978	1546.93	1.7
0.8089	1565.12	1.62
0.8587	1573.71	1.59
0.9067	1582	1.56
0.9497	1590.38	1.53
0.9702	1594.2	1.52

System: 2,3-butanediol + 2-pyrrolidinone; phases: Liquid
Fixed: Pressure, kPa = 101
Fixed: Temperature, K = 308.15
Property: Excess molar volume, m3/mol (Liquid); method: DIRDIL:UFactor:4
Mole fraction of 2-pyrrolidinone	Excess molar volume, m3/mol	uncertainty
0.0199	1.9e-08	9e-09
0.0339	3.3e-08	9e-09
0.0483	4.5e-08	1e-08
0.0634	5.4e-08	1e-08
0.0737	6e-08	1e-08
0.0885	7.5e-08	1e-08
0.1008	8.2e-08	1e-08
0.1118	8.7e-08	1e-08
0.118	9.3e-08	1e-08
0.1313	9.9e-08	1e-08
0.1447	1.06e-07	1e-08
0.1571	1.12e-07	1e-08
0.1702	1.17e-07	1e-08
0.185	1.29e-07	1e-08
0.2191	1.39e-07	1e-08
0.2418	1.48e-07	1e-08
0.2675	1.54e-07	1e-08
0.2854	1.59e-07	1e-08
0.3058	1.63e-07	1e-08
0.3226	1.67e-07	1e-08
0.3312	1.68e-07	1e-08
0.3459	1.71e-07	1e-08
0.3589	1.72e-07	1e-08
0.383	1.72e-07	1e-08
0.3973	1.72e-07	1e-08
0.4043	1.73e-07	1e-08
0.4156	1.72e-07	1e-08
0.4506	1.71e-07	1e-08
0.4667	1.7e-07	1e-08
0.4926	1.69e-07	1e-08
0.5097	1.7e-07	1e-08
0.5261	1.7e-07	1e-08
0.5431	1.67e-07	1e-08
0.5651	1.68e-07	1e-08
0.5844	1.65e-07	1e-08
0.6052	1.6e-07	1e-08
0.6266	1.58e-07	1e-08
0.6501	1.52e-07	1e-08
0.6693	1.51e-07	1e-08
0.6894	1.45e-07	1e-08
