Measured thermophysical data. Investigation of SO2 solubilities in some biobased solvents and their thermodynamic properties
Source: J. Chem. Thermodyn., 2018, 10.1016/j.jct.2017.12.021
Compound 1: sulfur dioxide, O2S, InChI=1S/O2S/c1-3-2, purity 99.9%
Compound 2: butyl 2-hydroxypropanoate, C7H14O3, InChI=1S/C7H14O3/c1-3-4-5-10-7(9)6(2)8/h6,8H,3-5H2,1-2H3, purity 98%
Compound 3: glyceryl triethanoate, C9H14O6, InChI=1S/C9H14O6/c1-6(10)13-4-9(15-8(3)12)5-14-7(2)11/h9H,4-5H2,1-3H3, purity 98.5%
Compound 4: triethyl citrate, C12H20O7, InChI=1S/C12H20O7/c1-4-17-9(13)7-12(16,11(15)19-6-3)8-10(14)18-5-2/h16H,4-8H2,1-3H3, purity 98%
Compound 5: triethyl acetyl citrate, C14H22O8, InChI=1S/C14H22O8/c1-5-19-11(16)8-14(22-10(4)15,13(18)21-7-3)9-12(17)20-6-2/h5-9H2,1-4H3, purity 97%

System: butyl 2-hydroxypropanoate; phases: Liquid
Fixed: Pressure, kPa = 101.325
Property: Mass density, kg/m3 (Liquid); method: Pycnometric method
Temperature, K	Mass density, kg/m3	uncertainty
293.15	981.5	4
298.15	977	4
303.15	973.1	4
308.15	968.4	4
313.15	963.5	4
318.15	958.5	3.9
323.15	953.9	3.9
328.15	948.9	3.9
333.15	944.1	3.9
338.15	940.1	3.9

System: butyl 2-hydroxypropanoate; phases: Liquid
Fixed: Pressure, kPa = 101.325
Property: Viscosity, Pa*s (Liquid); method: Capillary tube (Ostwald; Ubbelohde) method
Temperature, K	Viscosity, Pa*s	uncertainty
293.15	0.00387	0.00039
298.15	0.00326	0.00033
303.15	0.00281	0.00028
308.15	0.00242	0.00024
313.15	0.00215	0.00022
318.15	0.0019	0.00019
323.15	0.00169	0.00017
328.15	0.00155	0.00016
333.15	0.00143	0.00014
338.15	0.0013	0.00013

System: glyceryl triethanoate; phases: Liquid
Fixed: Pressure, kPa = 101.325
Property: Mass density, kg/m3 (Liquid); method: Pycnometric method
Temperature, K	Mass density, kg/m3	uncertainty
293.15	1158.3	4.7
298.15	1152.9	4.7
303.15	1147.4	4.7
308.15	1142	4.6
313.15	1136.6	4.6
318.15	1131.1	4.6
323.15	1125.7	4.6
328.15	1120.2	4.6
333.15	1114.8	4.5
338.15	1109.4	4.5

System: glyceryl triethanoate; phases: Liquid
Fixed: Pressure, kPa = 101.325
Property: Viscosity, Pa*s (Liquid); method: Capillary tube (Ostwald; Ubbelohde) method
Temperature, K	Viscosity, Pa*s	uncertainty
293.15	0.02148	0.00216
298.15	0.01636	0.00164
303.15	0.0125	0.0013
308.15	0.00995	0.001
313.15	0.00821	0.00082
318.15	0.00675	0.00068
323.15	0.00566	0.00057
328.15	0.00482	0.00048
333.15	0.00418	0.00042
338.15	0.00367	0.00037

System: triethyl citrate; phases: Liquid
Fixed: Pressure, kPa = 101.325
Property: Mass density, kg/m3 (Liquid); method: Pycnometric method
Temperature, K	Mass density, kg/m3	uncertainty
293.15	1138.4	4.7
298.15	1134.5	4.7
303.15	1131.1	4.7
308.15	1126.2	4.7
313.15	1122.4	4.7
318.15	1116.5	4.6
323.15	1112.1	4.6
328.15	1106.6	4.6
333.15	1102.8	4.6
338.15	1097.3	4.6

System: triethyl citrate; phases: Liquid
Fixed: Pressure, kPa = 101.325
Property: Viscosity, Pa*s (Liquid); method: Capillary tube (Ostwald; Ubbelohde) method
Temperature, K	Viscosity, Pa*s	uncertainty
293.15	0.04412	0.00444
298.15	0.0321	0.00324
303.15	0.02079	0.0021
308.15	0.01655	0.00167
313.15	0.01318	0.00133
318.15	0.01024	0.00103
323.15	0.00862	0.00087
328.15	0.00723	0.00073
333.15	0.00641	0.00065
338.15	0.00571	0.00057

System: triethyl acetyl citrate; phases: Liquid
Fixed: Pressure, kPa = 101.325
Property: Mass density, kg/m3 (Liquid); method: Pycnometric method
Temperature, K	Mass density, kg/m3	uncertainty
293.15	1142.1	5.2
298.15	1137.5	5.2
303.15	1133.1	5.2
308.15	1127.6	5.1
313.15	1124.1	5.1
318.15	1118.5	5.1
323.15	1115.1	5.1
328.15	1110.1	5.1
333.15	1105.4	5
338.15	1100.5	5

System: triethyl acetyl citrate; phases: Liquid
Fixed: Pressure, kPa = 101.325
Property: Viscosity, Pa*s (Liquid); method: Capillary tube (Ostwald; Ubbelohde) method
Temperature, K	Viscosity, Pa*s	uncertainty
298.15	0.04655	0.00472
303.15	0.03456	0.0035
308.15	0.0251	0.00255
313.15	0.01752	0.00178
318.15	0.01381	0.0014
323.15	0.01095	0.00111
328.15	0.00886	0.0009
333.15	0.00798	0.00081
338.15	0.00702	0.00071

System: sulfur dioxide + butyl 2-hydroxypropanoate; phases: Liquid, Gas
Property: Molality, mol/kg of sulfur dioxide (Liquid); method: Volumetric method
Temperature, K	Pressure, kPa	Molality, mol/kg of sulfur dioxide	uncertainty
293.15	3.8	0.24	0.07
293.15	7.5	0.46	0.07
293.15	10.8	0.65	0.07
293.15	15.3	0.9	0.07
293.15	20.3	1.16	0.07
293.15	30.3	1.69	0.08
293.15	40.9	2.23	0.07
293.15	50	2.68	0.08
293.15	63.5	3.36	0.09
293.15	70	3.7	0.09
293.15	80.6	4.24	0.11
293.15	90.9	4.79	0.11
293.15	100.3	5.31	0.13
293.15	109.5	5.84	0.13
293.15	119.7	6.45	0.15
303.15	3.9	0.16	0.05
303.15	7.7	0.32	0.05
303.15	11.2	0.46	0.05
303.15	15.7	0.63	0.05
303.15	20.9	0.83	0.05
303.15	31.4	1.22	0.06
303.15	42.2	1.62	0.06
303.15	52.3	1.98	0.06
303.15	61.9	2.33	0.08
303.15	72.6	2.7	0.08
303.15	81.2	3.02	0.08
303.15	91.3	3.38	0.1
303.15	100.7	3.73	0.1
303.15	110.8	4.11	0.1
303.15	120.6	4.48	0.11
313.15	3.4	0.1	0.04
313.15	7	0.21	0.04
313.15	10.5	0.31	0.04
313.15	15.9	0.46	0.04
313.15	20.5	0.58	0.04
313.15	34.1	0.95	0.04
313.15	40.4	1.11	0.04
313.15	51	1.39	0.05
313.15	61.7	1.67	0.05
313.15	71.6	1.92	0.05
313.15	80.5	2.15	0.07
313.15	90.9	2.42	0.07
313.15	100.6	2.68	0.07
313.15	110.3	2.93	0.07
313.15	120.1	3.19	0.1
323.15	3.3	0.07	0.03
323.15	7.2	0.15	0.03
323.15	10.4	0.21	0.03
323.15	15	0.31	0.03
323.15	21.3	0.43	0.03
323.15	33	0.66	0.03
323.15	41.4	0.82	0.05
323.15	50.9	1.01	0.05
323.15	61	1.2	0.05
323.15	72.1	1.41	0.05
323.15	79.6	1.56	0.05
323.15	90.3	1.76	0.07
323.15	100.8	1.96	0.07
323.15	110.5	2.15	0.09
323.15	120.2	2.34	0.09

System: sulfur dioxide + glyceryl triethanoate; phases: Liquid, Gas
Property: Molality, mol/kg of sulfur dioxide (Liquid); method: Volumetric method
Temperature, K	Pressure, kPa	Molality, mol/kg of sulfur dioxide	uncertainty
293.15	3.2	0.24	0.09
293.15	6.2	0.45	0.09
293.15	9.7	0.7	0.09
293.15	14.7	1.04	0.09
293.15	19.9	1.4	0.08
293.15	30	2.08	0.09
293.15	40.5	2.77	0.09
293.15	50.1	3.42	0.09
293.15	60.4	4.13	0.11
293.15	70.4	4.8	0.12
293.15	80.2	5.48	0.12
293.15	89.8	6.18	0.13
293.15	100	6.94	0.14
293.15	110.3	7.73	0.15
293.15	120.1	8.52	0.18
303.15	3.3	0.16	0.06
303.15	6.2	0.3	0.06
303.15	9.6	0.46	0.06
303.15	15.3	0.73	0.06
303.15	21	0.99	0.06
303.15	31.4	1.48	0.07
303.15	40.8	1.91	0.07
303.15	50.3	2.35	0.07
303.15	59.3	2.76	0.08
303.15	69.8	3.25	0.09
303.15	79.3	3.69	0.1
303.15	89.9	4.18	0.1
303.15	99.7	4.66	0.11
303.15	109.2	5.12	0.12
303.15	119	5.62	0.15
313.15	3.3	0.1	0.04
313.15	6.8	0.22	0.04
313.15	10.3	0.33	0.04
313.15	15.4	0.49	0.04
313.15	20.1	0.64	0.04
313.15	30.6	0.97	0.04
313.15	41	1.29	0.06
313.15	51.1	1.61	0.06
313.15	60.6	1.91	0.07
313.15	70.5	2.23	0.07
313.15	80.5	2.55	0.07
313.15	89.9	2.86	0.07
313.15	99.9	3.18	0.09
313.15	109.9	3.51	0.09
313.15	120	3.85	0.12
323.15	3.7	0.09	0.04
323.15	7.1	0.17	0.04
323.15	10.7	0.26	0.03
323.15	15.3	0.36	0.03
323.15	20.9	0.49	0.04
323.15	31	0.73	0.03
323.15	40.7	0.95	0.05
323.15	50.2	1.17	0.05
323.15	60	1.4	0.05
323.15	70.2	1.63	0.05
323.15	80.1	1.86	0.05
323.15	90.2	2.1	0.05
323.15	101	2.35	0.07
323.15	111.6	2.6	0.07
323.15	120.3	2.81	0.09

System: sulfur dioxide + triethyl citrate; phases: Liquid, Gas
Property: Molality, mol/kg of sulfur dioxide (Liquid); method: Volumetric method
Temperature, K	Pressure, kPa	Molality, mol/kg of sulfur dioxide	uncertainty
293.15	8.5	0.4	0.07
293.15	16.6	0.85	0.08
293.15	20.2	1.01	0.07
293.15	30.3	1.47	0.07
293.15	41.6	1.98	0.07
293.15	49.9	2.35	0.08
293.15	60	2.82	0.09
293.15	70.2	3.3	0.09
293.15	80.5	3.8	0.1
293.15	90	4.29	0.12
293.15	99.9	4.81	0.12
293.15	110.5	5.39	0.12
293.15	119.3	5.72	0.14
303.15	3.2	0.11	0.05
303.15	8	0.3	0.04
303.15	10	0.34	0.04
303.15	15	0.51	0.05
303.15	20	0.67	0.04
303.15	29.9	1	0.04
303.15	41.2	1.37	0.06
303.15	50	1.65	0.06
303.15	59.8	1.97	0.06
303.15	69.9	2.3	0.06
303.15	80	2.64	0.06
303.15	90.6	2.98	0.08
303.15	100.3	3.32	0.08
303.15	110.4	3.66	0.08
303.15	120.2	4.01	0.1
313.15	3.3	0.09	0.04
313.15	15	0.38	0.04
313.15	20.1	0.51	0.04
313.15	31.5	0.79	0.04
313.15	39.8	0.99	0.03
313.15	49.9	1.24	0.07
313.15	60.2	1.49	0.04
313.15	69.9	1.73	0.05
313.15	80.1	1.98	0.05
313.15	91.3	2.22	0.05
313.15	100.5	2.49	0.07
313.15	112.1	2.72	0.07
313.15	122.5	3	0.09
323.15	6.4	0.12	0.03
323.15	15.4	0.28	0.03
323.15	20.9	0.38	0.03
323.15	30.1	0.54	0.03
323.15	40.7	0.73	0.03
323.15	54.8	0.99	0.02
323.15	60.1	1.08	0.05
323.15	70.6	1.27	0.05
323.15	80.7	1.46	0.05
323.15	89.8	1.62	0.07
323.15	100.1	1.81	0.07
323.15	110.2	1.99	0.08
323.15	120	2.17	0.08

System: sulfur dioxide + triethyl acetyl citrate; phases: Liquid, Gas
Property: Molality, mol/kg of sulfur dioxide (Liquid); method: Volumetric method
Temperature, K	Pressure, kPa	Molality, mol/kg of sulfur dioxide	uncertainty
293.15	9.3	0.42	0.06
293.15	21.2	0.94	0.07
293.15	30	1.36	0.07
293.15	39.9	1.8	0.07
293.15	50.8	2.25	0.07
293.15	60.3	2.68	0.09
293.15	69.9	3.13	0.09
293.15	80.1	3.63	0.11
293.15	90	4.12	0.11
293.15	100.5	4.65	0.11
293.15	110.2	5.16	0.13
293.15	120.3	5.72	0.13
303.15	11.4	0.41	0.05
303.15	20.1	0.72	0.05
303.15	32.5	1.15	0.06
303.15	39.9	1.41	0.06
303.15	49.8	1.76	0.06
303.15	59.9	2.11	0.06
303.15	70.4	2.46	0.06
303.15	80.1	2.8	0.08
303.15	90.2	3.15	0.08
303.15	100.2	3.51	0.08
303.15	109.9	3.87	0.1
303.15	122	4.31	0.1
313.15	9.5	0.24	0.03
313.15	20	0.5	0.04
313.15	30.6	0.77	0.04
313.15	40.7	1.02	0.04
313.15	49.8	1.24	0.05
313.15	59.8	1.5	0.05
313.15	69.9	1.75	0.05
313.15	79.9	1.99	0.07
313.15	91.1	2.27	0.07
313.15	100.4	2.5	0.07
313.15	109.9	2.74	0.07
313.15	120.8	3.02	0.1
323.15	9.5	0.18	0.03
323.15	20	0.36	0.03
323.15	30.1	0.54	0.03
323.15	45.7	0.82	0.03
323.15	51.7	0.92	0.03
323.15	60	1.07	0.05
323.15	70	1.25	0.05
323.15	80.4	1.44	0.05
323.15	89.9	1.61	0.07
323.15	100.6	1.8	0.07
323.15	110.9	1.98	0.07
323.15	120	2.15	0.09
