Measured thermophysical data. Solubility of hydrogen in bio-oil compounds
Source: J. Chem. Thermodyn., 2016, 10.1016/j.jct.2016.07.010
Compound 1: furan, C4H4O, InChI=1S/C4H4O/c1-2-4-5-3-1/h1-4H, purity 99%
Compound 2: 2-propenol, C3H6O, InChI=1S/C3H6O/c1-2-3-4/h2,4H,1,3H2, purity 99%
Compound 3: 2-hydroxy-5-allylanisole, C10H12O2, InChI=1S/C10H12O2/c1-3-4-8-5-6-9(11)10(7-8)12-2/h3,5-7,11H,1,4H2,2H3, purity 99%
Compound 4: hydrogen, H2, InChI=1S/H2/h1H

System: furan; phases: Liquid
Property: Refractive index (Na D-line) (Liquid); method: Standard Abbe refractometry
Temperature, K	Pressure, kPa	Refractive index (Na D-line)	uncertainty
293.15	101.325	1.421	0.0004

System: furan; phases: Liquid
Property: Mass density, kg/m3 (Liquid); method: Vibrating tube method
Temperature, K	Pressure, kPa	Mass density, kg/m3	uncertainty
293.15	101.325	937.505	5.625

System: 2-propenol; phases: Liquid
Property: Refractive index (Na D-line) (Liquid); method: Standard Abbe refractometry
Temperature, K	Pressure, kPa	Refractive index (Na D-line)	uncertainty
293.15	101.325	1.4128	0.0004

System: 2-propenol; phases: Liquid
Property: Mass density, kg/m3 (Liquid); method: Vibrating tube method
Temperature, K	Pressure, kPa	Mass density, kg/m3	uncertainty
293.15	101.325	851.74	5.112

System: 2-hydroxy-5-allylanisole; phases: Liquid
Property: Refractive index (Na D-line) (Liquid); method: Standard Abbe refractometry
Temperature, K	Pressure, kPa	Refractive index (Na D-line)	uncertainty
293.15	101.325	1.5407	0.0005

System: 2-hydroxy-5-allylanisole; phases: Liquid
Fixed: Pressure, kPa = 101.325
Property: Mass density, kg/m3 (Liquid); method: Vibrating tube method
Temperature, K	Mass density, kg/m3	uncertainty
293.15	1065.337	6.403
298.14	1060.937	6.376
353.15	1012.161	6.082
393.15	976.079	5.865
433.15	939.216	5.644
453.15	920.375	5.531
473.15	901.257	5.417

System: 2-propenol + hydrogen; phases: Liquid, Gas
Property: Vapor or sublimation pressure, kPa (Liquid); method: Closed cell (Static) method
Temperature, K	Mole fraction of hydrogen	Vapor or sublimation pressure, kPa	uncertainty
341.5	0.0143	6930	450
341.5	0.0172	8020	740
341.5	0.023	10900	1480
341.5	0.0273	12670	1140
341.5	0.0315	14620	1950
401.9	0.0266	8550	630
401.9	0.0322	10570	760
401.9	0.0359	11600	710
401.9	0.0423	13560	1090
402	0.0472	15010	660
443	0.0223	6220	1180
443	0.0302	8010	600
443	0.0415	10580	790
443	0.0487	12320	1450
443	0.053	13340	1090
443	0.0616	15250	760
473	0.0144	4400	570
473	0.0259	6310	580
473	0.0315	7340	520
473	0.0388	8700	460
473	0.0488	10390	750

System: furan + hydrogen; phases: Liquid, Gas
Property: Vapor or sublimation pressure, kPa (Liquid); method: Closed cell (Static) method
Temperature, K	Mole fraction of hydrogen	Vapor or sublimation pressure, kPa	uncertainty
342.5	0.0174	5210	510
342.5	0.0332	8850	1230
342.5	0.036	10080	720
342.5	0.0439	11940	800
342.5	0.0554	14930	940
371.5	0.0317	7300	490
371.5	0.0433	9680	610
371.5	0.0569	12160	680
371.5	0.062	13220	880
402	0.0144	3890	300
402	0.0426	8030	490
402	0.059	10650	530
402	0.0727	12730	710
402	0.0805	13950	750

System: 2-hydroxy-5-allylanisole + hydrogen; phases: Liquid, Gas
Property: Vapor or sublimation pressure, kPa (Liquid); method: Closed cell (Static) method
Temperature, K	Mole fraction of hydrogen	Vapor or sublimation pressure, kPa	uncertainty
401.9	0.0379	10020	830
401.9	0.0456	12010	1360
401.9	0.0493	13010	1210
401.9	0.0534	13980	1640
401.9	0.0556	14980	3090
472.9	0.0557	10000	750
472.9	0.0718	12990	1050
472.9	0.0759	13990	1030
472.9	0.0807	14980	1160
543	0.1131	14980	740
543	0.1042	13990	1020
543	0.0981	13000	1040
543	0.0915	12000	660
543	0.0757	10010	1060
