Measured thermophysical data. Thermodynamic properties of caesium-cobalt phosphate CsCoPO4
Source: J. Chem. Thermodyn., 2016, 10.1016/j.jct.2015.12.017
Compound 1: cesium cobalt(II) phosphate, CoCsO4P, InChI=1S/Co.Cs.H3O4P/c;;1-5(2,3)4/h;;(H3,1,2,3,4)/q+2;+1;/p-3

System: cesium cobalt(II) phosphate; phases: Crystal 4, Crystal 3, Gas
Property: Triple point temperature, K (Crystal 4); method: Adiabatic calorimetry
Triple point temperature, K	uncertainty
313.4	0.04

System: cesium cobalt(II) phosphate; phases: Crystal 4, Crystal 3, Gas
Property: Molar enthalpy of transition or fusion, kJ/mol (Crystal 4); method: Adiabatic calorimetry
Molar enthalpy of transition or fusion, kJ/mol	uncertainty
0.03047	0.00057

System: cesium cobalt(II) phosphate; phases: Crystal 3, Crystal 2, Air at 1 atmosphere
Property: Triple point temperature, K (Crystal 3); method: DSC
Triple point temperature, K	uncertainty
486.9	0.8

System: cesium cobalt(II) phosphate; phases: Crystal 3, Crystal 2, Air at 1 atmosphere
Property: Molar enthalpy of transition or fusion, kJ/mol (Crystal 3); method: DSC
Molar enthalpy of transition or fusion, kJ/mol	uncertainty
0.3447	0.0069

System: cesium cobalt(II) phosphate; phases: Crystal 2, Crystal 1, Air at 1 atmosphere
Property: Triple point temperature, K (Crystal 2); method: DSC
Triple point temperature, K	uncertainty
514.4	0.8

System: cesium cobalt(II) phosphate; phases: Crystal 2, Crystal 1, Air at 1 atmosphere
Property: Molar enthalpy of transition or fusion, kJ/mol (Crystal 2); method: DSC
Molar enthalpy of transition or fusion, kJ/mol	uncertainty
0.4745	0.0095

System: cesium cobalt(II) phosphate; phases: Crystal 4
Fixed: Pressure, kPa = 101.325
Property: Molar heat capacity at constant pressure, J/K/mol (Crystal 4); method: Vacuum adiabatic calorimetry
Temperature, K	Molar heat capacity at constant pressure, J/K/mol	uncertainty
6.05	2.228278496	0.049886832
6.49	2.594115264	0.058201304
6.93	2.959952032	0.066515776
7.36	3.109612528	0.066515776
7.78	3.317474328	0.074830248
8.19	3.633424264	0.08314472
8.62	4.040833392	0.091459192
9.08	4.232066248	0.091459192
9.58	4.456556992	0.091459192
10.1	4.82239376	0.099773664
10.63	5.130029224	0.108088136
11.16	5.470922576	0.116402608
11.67	5.73698568	0.12471708
12.16	5.969790896	0.12471708
13	6.634948656	0.141346024
14.27	7.807289208	0.16628944
15.59	8.921428456	0.066515776
16.94	10.368146584	0.074830248
18.33	11.789921296	0.08314472
19.77	13.045406568	0.091459192
20.92	14.275948424	0.099773664
22.76	16.17164804	0.108088136
24.48	17.926001632	0.116402608
26.27	19.854959136	0.12471708
28.12	21.6176272	0.12471708
30.03	23.546584704	0.133031552
32	25.542057984	0.141346024
34.02	27.662248344	0.157974968
36.12	29.26694144	0.16628944
37.97	30.988037144	0.174603912
40.47	33.457435328	0.12471708
42.73	35.361449416	0.133031552
45.02	37.406809528	0.141346024
47.34	39.601830136	0.149660496
49.71	41.1566364	0.149660496
52.12	42.90267552	0.157974968
54.56	44.798375136	0.16628944
57.05	46.502841896	0.16628944
59.55	47.999446856	0.174603912
62.07	49.703913616	0.182918384
64.59	51.30029224	0.182918384
67.13	52.996444528	0.191232856
69.7	54.401590296	0.191232856
72.02	56.097742584	0.199547328
74.09	57.403114688	0.2078618
76.18	58.592084184	0.2078618
78.27	59.598135296	0.2078618
80.36	60.712274544	0.216176272
82.45	61.909558512	0.216176272
84.54	62.832464904	0.224490744
86.65	64.171094896	0.224490744
89.36	65.576240664	0.232805216
80.84	60.803733736	0.216176272
82.83	62.059219008	0.216176272
85.25	63.181672728	0.224490744
87.47	64.52030272	0.224490744
89.69	65.700957744	0.232805216
91.92	66.673750968	0.274377576
94.14	67.779575744	0.274377576
96.37	69.09326232	0.282692048
98.6	70.165829208	0.282692048
100.83	71.2965974	0.29100652
103.07	72.369164288	0.29100652
105.3	73.450045648	0.29100652
107.54	74.66395856	0.299320992
109.78	75.437204456	0.299320992
111.8	76.310224016	0.299320992
114.54	77.640539536	0.307635464
116.74	78.505244624	0.307635464
118.98	79.461408904	0.307635464
121.23	80.27622716	0.315949936
123.47	81.365422992	0.315949936
125.71	82.23012808	0.315949936
127.95	83.094833168	0.315949936
130.19	83.89302248	0.33257888
132.43	84.89075912	0.33257888
134.67	85.72220632	0.33257888
136.91	86.55365352	0.33257888
139.14	87.38510072	0.33257888
141.38	88.29969264	0.33257888
143.49	89.29742928	0.33257888
145.85	90.2120212	0.33257888
148.08	91.20975784	0.33257888
150.3	91.79177088	0.33257888
151.78	92.54007336	0.33257888
152.91	93.03894168	0.33257888
153.96	93.62095472	0.33257888
155.41	94.11982304	0.33257888
157.59	94.86812552	0.33257888
159.03	95.36699384	0.33257888
161.93	96.28158576	0.33257888
163.35	96.94674352	0.33257888
164.07	97.2793224	0.33257888
165.61	97.86133544	0.33257888
166.94	98.5264932	0.33257888
167.88	98.77592736	0.33257888
170.03	99.60737456	0.33257888
172.23	100.1893876	0.33257888
174.44	100.85454536	0.33257888
176.64	101.60284784	0.4157236
178.83	102.35115032	0.4157236
181.02	103.0994528	0.4157236
183.21	103.9309	0.4157236
185.4	104.51291304	0.4157236
187.59	105.09492608	0.4157236
189.78	105.5937944	0.4157236
191.97	106.17580744	0.4157236
194.89	106.8409652	0.4157236
196.33	107.2566888	0.4157236
198.51	107.92184656	0.4157236
200.68	108.67014904	0.4157236
202.82	109.3353068	0.4157236
204.99	109.91731984	0.4157236
207.16	110.49933288	0.4157236
209.32	111.16449064	0.4157236
211.49	111.66335896	0.4157236
213.66	112.245372	0.4157236
215.82	112.82738504	0.4157236
217.98	113.4925428	0.4157236
220.14	114.07455584	0.4157236
222.3	114.65656888	0.4157236
224.46	115.07229248	0.4157236
226.62	115.82059496	0.4157236
228.77	116.15317384	0.4157236
230.93	116.65204216	0.4157236
233.08	117.31719992	0.4157236
235.23	117.73292352	0.4157236
237.35	118.39808128	0.4157236
239.5	118.98009432	0.4157236
241.65	119.56210736	0.4157236
243.79	120.22726512	0.4157236
245.94	120.80927816	0.4157236
248.09	121.3912912	0.4157236
250.23	121.97330424	0.4157236
252.37	122.72160672	0.4157236
254.5	123.30361976	0.4157236
256.64	123.80248808	0.4157236
258.77	124.3013564	0.4157236
260.91	124.88336944	0.4157236
263.04	125.38223776	0.4157236
265.17	126.04739552	0.4157236
267.3	126.71255328	0.4157236
269.42	127.29456632	0.4157236
271.51	127.71028992	0.4157236
273.63	128.12601352	0.4157236
276.36	128.79117128	0.4157236
278.4	129.20689488	0.4157236
280.51	129.78890792	0.4157236
282.62	130.28777624	0.49886832
284.72	130.62035512	0.49886832
286.82	131.11922344	0.49886832
288.92	131.61809176	0.49886832
291.02	132.2001048	0.49886832
293.09	132.6158284	0.49886832
295.18	133.031552	0.49886832
297.25	133.53042032	0.49886832
299.32	134.02928864	0.49886832
301.38	134.6944464	0.49886832
303.43	135.35960416	0.49886832
305.47	136.19105136	0.49886832
307.51	137.6045116	0.49886832
309.32	139.10111656	0.49886832
311.46	142.34376064	0.49886832
301	134.6944464	0.49886832
302.98	135.35960416	0.49886832
304.98	136.10790664	0.49886832
306.97	137.43822216	0.49886832
308.95	138.68539296	0.49886832
310.91	142.42690536	0.49886832
312.84	144.42237864	0.49886832

System: cesium cobalt(II) phosphate; phases: Crystal 3
Fixed: Pressure, kPa = 101.325
Property: Molar heat capacity at constant pressure, J/K/mol (Crystal 3); method: Vacuum adiabatic calorimetry
Temperature, K	Molar heat capacity at constant pressure, J/K/mol	uncertainty
313.44	144.33923392	0.49886832
315.42	144.08979976	0.49886832
317.39	143.17520784	0.49886832
319.35	142.51005008	0.49886832
321.31	142.84262896	0.49886832
323.26	143.424642	0.49886832
325.2	144.08979976	0.49886832
327.14	144.58866808	0.49886832
329.07	145.0875364	0.49886832
330.98	145.58640472	0.49886832
332.87	146.00212832	0.49886832
334.77	146.58414136	0.49886832
336.65	147.08300968	0.49886832
338.52	147.49873328	0.49886832
340.21	147.9976016	0.49886832
341.82	148.4133252	0.49886832
343.88	149.07848296	0.49886832
345.68	149.57735128	0.49886832
347.49	150.0762196	0.49886832
349.26	150.4919432	0.49886832
314.77	143.8403656	0.49886832
316.69	142.51005008	0.49886832
318.6	141.67860288	0.49886832
320.51	142.01118176	0.49886832
322.4	142.75948424	0.49886832
324.27	143.424642	0.49886832
326.14	144.08979976	0.49886832
327.98	144.75495752	0.49886832

System: cesium cobalt(II) phosphate; phases: Crystal 3
Fixed: Pressure, kPa = 101.325
Property: Molar heat capacity at constant pressure, J/K/mol (Crystal 3); method: Small sample (50 mg) DSC
Temperature, K	Molar heat capacity at constant pressure, J/K/mol	uncertainty
334.4	146.3347072	4.157236
336.9	147.1661544	4.157236
339.4	147.9976016	4.157236
341.9	147.9976016	4.157236
344.4	148.8290488	4.157236
346.9	149.660496	4.157236
349.4	150.4919432	4.157236
351.9	151.3233904	4.157236
354.4	151.3233904	4.157236
356.9	152.1548376	4.157236
359.4	152.9862848	4.157236
361.9	152.9862848	4.157236
364.4	152.9862848	4.157236
366.9	153.817732	4.157236
369.4	154.6491792	4.157236
371.9	155.4806264	4.157236
374.4	155.4806264	4.157236
376.9	156.3120736	4.157236
379.4	156.3120736	4.157236
381.9	157.1435208	4.157236
384.4	157.1435208	4.157236
386.9	157.974968	4.157236
389.4	157.974968	4.157236
391.9	158.8064152	4.9886832
394.4	159.6378624	4.9886832
396.9	159.6378624	4.9886832
399.4	160.4693096	4.9886832
401.9	160.4693096	4.9886832
404.4	161.3007568	4.9886832
406.9	161.3007568	4.9886832
409.4	161.3007568	4.9886832
411.9	162.132204	4.9886832
414.4	162.132204	4.9886832
416.9	162.9636512	4.9886832
419.4	162.9636512	4.9886832
421.9	162.9636512	4.9886832
424.4	163.7950984	4.9886832
426.9	163.7950984	4.9886832
429.4	164.6265456	4.9886832
431.9	164.6265456	4.9886832
434.4	165.4579928	4.9886832
436.9	165.4579928	4.9886832
439.4	166.28944	4.9886832
441.9	166.28944	4.9886832
444.4	167.1208872	4.9886832
446.9	167.1208872	4.9886832
449.4	167.1208872	4.9886832
451.9	167.9523344	4.9886832
454.4	167.9523344	4.9886832
456.9	168.7837816	4.9886832
459.4	169.6152288	4.9886832
461.9	170.446676	4.9886832
464.4	170.446676	4.9886832
466.9	171.2781232	4.9886832
469.4	172.1095704	4.9886832
471.9	172.9410176	4.9886832
474.4	173.7724648	4.9886832
476.9	174.603912	4.9886832
479.4	176.2668064	4.9886832
481.9	182.918384	5.8201304
484.4	205.3674584	7.4830248
486.9	241.119688	9.1459192

System: cesium cobalt(II) phosphate; phases: Crystal 2
Fixed: Pressure, kPa = 101.325
Property: Molar heat capacity at constant pressure, J/K/mol (Crystal 2); method: Small sample (50 mg) DSC
Temperature, K	Molar heat capacity at constant pressure, J/K/mol	uncertainty
486.9	241.119688	9.1459192
489.8	196.2215392	7.4830248
491.9	182.0869368	5.8201304
494.4	177.9297008	4.9886832
496.9	177.0982536	4.9886832
499.4	177.9297008	4.9886832
501.9	178.761148	4.9886832
504.4	181.2554896	4.9886832
506.9	185.4127256	5.8201304
509.4	192.0643032	5.8201304
511.6	215.3448248	8.314472
514.4	253.591396	9.1459192

System: cesium cobalt(II) phosphate; phases: Crystal 1
Fixed: Pressure, kPa = 101.325
Property: Molar heat capacity at constant pressure, J/K/mol (Crystal 1); method: Small sample (50 mg) DSC
Temperature, K	Molar heat capacity at constant pressure, J/K/mol	uncertainty
514.4	253.591396	10.8088136
517.3	198.7158808	8.314472
518.6	188.7385144	5.8201304
520.2	184.5812784	4.9886832
523.1	181.2554896	4.9886832
526.9	178.761148	4.9886832
529.4	177.9297008	4.9886832
531.9	177.0982536	4.9886832
534.4	177.0982536	4.9886832
536.9	177.0982536	4.9886832
539.4	177.0982536	4.9886832
541.9	177.0982536	4.9886832
544.4	177.0982536	4.9886832
546.9	177.0982536	4.9886832
549.4	177.0982536	4.9886832
551.9	177.0982536	4.9886832
554.4	177.0982536	4.9886832
556.9	177.0982536	4.9886832
559.4	177.0982536	4.9886832
561.9	177.0982536	4.9886832
564.4	177.0982536	4.9886832
566.9	177.0982536	4.9886832
569.4	177.0982536	4.9886832
571.9	177.0982536	4.9886832
574.4	177.0982536	4.9886832
576.9	177.0982536	4.9886832
579.4	177.0982536	4.9886832
581.9	177.0982536	4.9886832
584.4	177.0982536	4.9886832
586.9	177.0982536	4.9886832
589.4	177.0982536	4.9886832
591.9	177.0982536	4.9886832
594.4	177.0982536	4.9886832
596.9	177.0982536	4.9886832
599.4	177.0982536	4.9886832
601.9	177.0982536	4.9886832
604.4	177.0982536	4.9886832
606.9	177.0982536	4.9886832
609.4	177.0982536	4.9886832
611.9	177.9297008	4.9886832
614.4	177.9297008	4.9886832
616.9	177.9297008	4.9886832
619.4	177.9297008	4.9886832
621.9	177.9297008	4.9886832
624.4	177.9297008	4.9886832
626.9	177.9297008	4.9886832
629.4	177.9297008	4.9886832
631.9	177.9297008	4.9886832
634.4	177.9297008	4.9886832
636.9	177.9297008	4.9886832
639.4	177.9297008	4.9886832
641.9	177.9297008	4.9886832
644.4	177.9297008	4.9886832
646.9	177.9297008	4.9886832
649.4	177.9297008	4.9886832

System: cesium cobalt(II) phosphate; phases: Crystal 4
Fixed: Pressure, kPa = 101.325
Property: Molar heat capacity at constant pressure, J/K/mol (Crystal 4); method: Vacuum adiabatic calorimetry
Temperature, K	Molar heat capacity at constant pressure, J/K/mol	uncertainty
5	1.355258936	0.033257888
6	2.32805216	0.049886832
7	2.893436256	0.066515776
8	3.49207824	0.074830248
9	4.090720224	0.091459192
10	4.689362208	0.099773664
15	8.289528584	0.174603912
20	13.444501224	0.091459192
25	18.566215976	0.116402608
30	23.4883834	0.133031552
35	28.294148216	0.157974968
40	33.00845384	0.182918384
45	37.415124	0.141346024
50	41.414385032	0.149660496
60	48.39022704	0.174603912
70	54.75079812	0.199547328
80	60.562614048	0.216176272
90	65.750844576	0.274377576
100	70.96401852	0.282692048
110	75.586864952	0.299320992
120	79.793987784	0.307635464
130	83.89302248	0.33257888
140	87.96711376	0.33257888
150	91.95806032	0.33257888
160	95.78271744	0.33257888
170	99.3579404	0.33257888
180	102.6837292	0.4157236
190	105.76008384	0.4157236
200	108.58700432	0.4157236
210	111.24763536	0.4157236
220	113.82512168	0.4157236
230	116.48575272	0.4157236
240	119.22952848	0.4157236
250	121.97330424	0.4157236
260	124.71708	0.4157236
270	127.29456632	0.4157236
273.15	128.0428688	0.4157236
280	129.62261848	0.4157236
290	131.7843812	0.49886832
298.15	133.69670976	0.49886832
300	134.11243336	0.49886832
310	136.93935384	0.49886832
313.4	137.85394576	0.49886832

System: cesium cobalt(II) phosphate; phases: Crystal 3
Fixed: Pressure, kPa = 101.325
Property: Molar heat capacity at constant pressure, J/K/mol (Crystal 3); method: Vacuum adiabatic calorimetry
Temperature, K	Molar heat capacity at constant pressure, J/K/mol	uncertainty
313.4	139.93256376	0.49886832
320	142.34376064	0.49886832
330	145.33697056	0.49886832
340	147.91445688	0.49886832

System: cesium cobalt(II) phosphate; phases: Crystal 3
Fixed: Pressure, kPa = 101.325
Property: Molar heat capacity at constant pressure, J/K/mol (Crystal 3); method: Small sample (50 mg) DSC
Temperature, K	Molar heat capacity at constant pressure, J/K/mol	uncertainty
350	150.40879848	4.32352544
360	152.73685064	4.40667016
370	154.81546864	4.40667016
380	156.7277972	4.48981488
390	158.47383632	4.5729596
400	160.13673072	4.5729596
410	161.7164804	4.65610432
420	163.12994064	4.65610432
430	164.54340088	4.73924904
440	165.95686112	4.73924904
450	167.45346608	4.82239376
460	169.44893936	4.90553848
470	172.44214928	4.9886832
480	175.0196356	4.9886832
486.9	177.0982536	5.07182792

System: cesium cobalt(II) phosphate; phases: Crystal 2
Fixed: Pressure, kPa = 101.325
Property: Molar heat capacity at constant pressure, J/K/mol (Crystal 2); method: Small sample (50 mg) DSC
Temperature, K	Molar heat capacity at constant pressure, J/K/mol	uncertainty
486.9	177.0982536	5.07182792
490	176.68253	5.07182792
500	177.5139772	5.07182792
510	177.5139772	5.07182792
514.4	177.76341136	5.07182792

System: cesium cobalt(II) phosphate; phases: Crystal 1
Fixed: Pressure, kPa = 101.325
Property: Molar heat capacity at constant pressure, J/K/mol (Crystal 1); method: Small sample (50 mg) DSC
Temperature, K	Molar heat capacity at constant pressure, J/K/mol	uncertainty
514.4	177.01510888	5.07182792
520	177.01510888	5.07182792
530	177.01510888	5.07182792
540	177.01510888	5.07182792
550	177.01510888	5.07182792
560	177.01510888	5.07182792
570	177.01510888	5.07182792
580	177.01510888	5.07182792
590	177.01510888	5.07182792
600	177.01510888	5.07182792
610	177.01510888	5.07182792
620	177.01510888	5.07182792
630	177.01510888	5.07182792
640	177.01510888	5.07182792
650	177.01510888	5.07182792

System: cesium cobalt(II) phosphate; phases: Crystal 4
Fixed: Pressure, kPa = 101.325
Property: Molar enthalpy function {Hm(T)-Hm(0)}/T, J/K/mol (Crystal 4); method: Vacuum adiabatic calorimetry
Temperature, K	Molar enthalpy function {Hm(T)-Hm(0)}/T, J/K/mol	uncertainty
5	0.3600166376	0.0133031552
6	0.5836759344	0.0174603912
7	0.87301956	0.024943416
8	1.16402608	0.033257888
9	1.4550326	0.033257888
10	1.74603912	0.04157236
15	3.275901968	0.074830248
20	5.1649500064	0.045729596
25	7.287634708	0.0598641984
30	9.586586216	0.08314472
35	11.914638376	0.091459192
40	14.25931948	0.108088136
45	16.58737164	0.099773664
50	18.87385144	0.108088136
60	23.230634768	0.133031552
70	27.279782632	0.149660496
80	31.087810808	0.174603912
90	34.654719296	0.241119688
100	38.022080456	0.257748632
110	41.231466648	0.266063104
120	44.2745634	0.282692048
130	47.159685184	0.29100652
140	49.92840436	0.307635464
150	52.597349872	0.315949936
160	55.174836192	0.33257888
170	57.677492264	0.340893352
180	60.080374672	0.349207824
190	62.408426832	0.365836768
200	64.6450198	0.37415124
210	66.80678252	0.382465712
220	68.88540052	0.390780184
230	70.897502744	0.399094656
240	72.851403664	0.4157236
250	74.763732224	0.424038072
260	76.626173952	0.432352544
270	78.455357792	0.440667016
273.15	79.02905636	0.440667016
280	80.242969272	0.448981488
290	81.989008392	0.45729596
298.15	83.39415416	0.49886832
300	83.64358832	0.49886832
310	85.38962744	0.49886832
313.4	85.88849576	0.49886832

System: cesium cobalt(II) phosphate; phases: Crystal 3
Fixed: Pressure, kPa = 101.325
Property: Molar enthalpy function {Hm(T)-Hm(0)}/T, J/K/mol (Crystal 3); method: Vacuum adiabatic calorimetry
Temperature, K	Molar enthalpy function {Hm(T)-Hm(0)}/T, J/K/mol	uncertainty
313.4	85.97164048	0.49886832
320	87.13566656	0.49886832
330	88.88170568	0.49886832
340	90.54460008	0.49886832

System: cesium cobalt(II) phosphate; phases: Crystal 3
Fixed: Pressure, kPa = 101.325
Property: Molar enthalpy function {Hm(T)-Hm(0)}/T, J/K/mol (Crystal 3); method: Small sample (50 mg) DSC
Temperature, K	Molar enthalpy function {Hm(T)-Hm(0)}/T, J/K/mol	uncertainty
350	92.2906392	2.82692048
360	93.87038888	2.82692048
370	95.53328328	2.9100652
380	97.11303296	2.99320992
390	98.69278264	2.99320992
400	100.1893876	3.07635464
410	101.68599256	3.07635464
420	103.0994528	3.15949936
430	104.51291304	3.15949936
440	105.92637328	3.24264408
450	107.2566888	3.24264408
460	108.58700432	3.3257888
470	109.91731984	3.3257888
480	111.24763536	3.40893352
486.9	112.16222728	3.40893352

System: cesium cobalt(II) phosphate; phases: Crystal 2
Fixed: Pressure, kPa = 101.325
Property: Molar enthalpy function {Hm(T)-Hm(0)}/T, J/K/mol (Crystal 2); method: Small sample (50 mg) DSC
Temperature, K	Molar enthalpy function {Hm(T)-Hm(0)}/T, J/K/mol	uncertainty
486.9	112.91052976	3.40893352
490	113.24310864	3.49207824
500	114.57342416	3.49207824
510	115.73745024	3.49207824
514.4	116.23631856	3.57522296

System: cesium cobalt(II) phosphate; phases: Crystal 1
Fixed: Pressure, kPa = 101.325
Property: Molar enthalpy function {Hm(T)-Hm(0)}/T, J/K/mol (Crystal 1); method: Small sample (50 mg) DSC
Temperature, K	Molar enthalpy function {Hm(T)-Hm(0)}/T, J/K/mol	uncertainty
514.4	117.15091048	3.57522296
520	117.89921296	3.57522296
530	118.98009432	3.65836768
540	120.06097568	3.65836768
550	121.05871232	3.65836768
560	122.05644896	3.7415124
570	123.0541856	3.7415124
580	123.96877752	3.7415124
590	124.88336944	3.82465712
600	125.71481664	3.82465712
610	126.62940856	3.82465712
620	127.37771104	3.90780184
630	128.20915824	3.90780184
640	128.95746072	3.90780184
650	129.7057632	3.99094656

System: cesium cobalt(II) phosphate; phases: Crystal 4
Fixed: Pressure, kPa = 101.325
Property: Molar entropy, J/K/mol (Crystal 4); method: Vacuum adiabatic calorimetry
Temperature, K	Molar entropy, J/K/mol	uncertainty
5	0.486396612	0.0232805216
6	0.7965264176	0.033257888
7	1.172340552	0.049886832
8	1.62132204	0.058201304
9	2.061989056	0.074830248
10	2.527599488	0.091459192
15	5.046884504	0.182918384
20	8.1165875664	0.1147397136
25	11.623631856	0.157974968
30	15.456603448	0.199547328
35	19.439235536	0.24943416
40	23.52995576	0.299320992
45	27.670562816	0.266063104
50	31.827798816	0.307635464
60	40.009239264	0.382465712
70	47.949560024	0.45729596
80	55.648761096	0.523811736
90	63.081899064	0.631899872
100	70.282231816	0.698415648
110	77.266388296	0.756616952
120	84.05931192	0.8314472
130	90.54460008	0.8314472
140	96.94674352	0.91459192
150	103.18259752	0.99773664
160	109.16901736	0.99773664
170	115.1554372	1.08088136
180	120.89242288	1.16402608
190	126.54626384	1.16402608
200	132.03381536	1.2471708
210	137.35507744	1.2471708
220	142.5931948	1.33031552
230	147.74816744	1.41346024
240	152.73685064	1.41346024
250	157.64238912	1.49660496
260	162.5479276	1.49660496
270	167.28717664	1.57974968
273.15	168.7837816	1.57974968
280	171.94328096	1.57974968
290	176.51624056	1.6628944
298.15	180.17460824	1.6628944
300	181.00605544	1.6628944
310	185.49587032	1.74603912
313.4	186.82618584	1.74603912

System: cesium cobalt(II) phosphate; phases: Crystal 3
Fixed: Pressure, kPa = 101.325
Property: Molar entropy, J/K/mol (Crystal 3); method: Vacuum adiabatic calorimetry
Temperature, K	Molar entropy, J/K/mol	uncertainty
313.4	186.90933056	1.74603912
320	190.06882992	1.74603912
330	194.47550008	1.82918384
340	198.79902552	1.82918384

System: cesium cobalt(II) phosphate; phases: Crystal 3
Fixed: Pressure, kPa = 101.325
Property: Molar entropy, J/K/mol (Crystal 3); method: Small sample (50 mg) DSC
Temperature, K	Molar entropy, J/K/mol	uncertainty
350	203.12255096	10.14365584
360	207.4460764	10.30994528
370	211.68645712	10.55937944
380	215.7605484	10.72566888
390	219.9177844	10.97510304
400	223.90873096	11.14139248
410	227.89967752	11.30768192
420	231.80747936	11.55711608
430	235.63213648	11.72340552
440	239.4567936	11.88969496
450	243.198306	12.13912912
460	246.9398184	12.30541856
470	250.59818608	12.471708
480	254.25655376	12.63799744
486.9	256.83404008	12.80428688

System: cesium cobalt(II) phosphate; phases: Crystal 2
Fixed: Pressure, kPa = 101.325
Property: Molar entropy, J/K/mol (Crystal 2); method: Small sample (50 mg) DSC
Temperature, K	Molar entropy, J/K/mol	uncertainty
486.9	257.49919784	12.80428688
490	258.5800792	12.8874316
500	262.15530216	13.05372104
510	265.6473804	13.22001048
514.4	267.06084064	13.3031552

System: cesium cobalt(II) phosphate; phases: Crystal 1
Fixed: Pressure, kPa = 101.325
Property: Molar entropy, J/K/mol (Crystal 1); method: Small sample (50 mg) DSC
Temperature, K	Molar entropy, J/K/mol	uncertainty
514.4	267.97543256	13.3031552
520	270.05405056	13.46944464
530	273.37983936	13.63573408
540	276.70562816	13.80202352
550	279.94827224	13.96831296
560	283.19091632	14.05145768
570	286.26727096	14.21774712
580	289.3436256	14.38403656
590	292.41998024	14.550326
600	295.41319016	14.71661544
610	298.32325536	14.88290488
620	301.15017584	14.9660496
630	303.97709632	15.13233904
640	306.8040168	15.29862848
650	309.54779256	15.3817732
