Measured thermophysical data. Excess molar enthalpies of {diethyl oxalate + (methanol, + ethanol, + 1-propanol, and + 2-propanol)} at T = (288.2, 298.2, 313.2, and 328.2) K and p = 101.3 kPa
Source: J. Chem. Thermodyn., 2013, 10.1016/j.jct.2013.05.024
Compound 1: diethyl ethanedioate, C6H10O4, InChI=1S/C6H10O4/c1-3-9-5(7)6(8)10-4-2/h3-4H2,1-2H3, purity 99%
Compound 2: methanol, CH4O, InChI=1S/CH4O/c1-2/h2H,1H3, purity 99.8%
Compound 3: propan-2-ol, C3H8O, InChI=1S/C3H8O/c1-3(2)4/h3-4H,1-2H3, purity 99.5%
Compound 4: ethanol, C2H6O, InChI=1S/C2H6O/c1-2-3/h3H,2H2,1H3, purity 99.7%
Compound 5: propan-1-ol, C3H8O, InChI=1S/C3H8O/c1-2-3-4/h4H,2-3H2,1H3, purity 99.5%

System: diethyl ethanedioate; phases: Liquid
Fixed: Pressure, kPa = 101.3
Property: Mass density, kg/m3 (Liquid); method: Vibrating tube method
Temperature, K	Mass density, kg/m3	uncertainty
278.15	1095.94	0.31
288.14	1084.24	0.3
298.15	1072.53	0.29
313.15	1054.92	0.27
328.15	1037.26	0.26
338.15	1025.42	0.25
348.15	1013.53	0.24
358.15	1001.6	0.23

System: methanol + diethyl ethanedioate; phases: Liquid
Fixed: Pressure, kPa = 101.3
Property: Excess molar enthalpy (molar enthalpy of mixing), kJ/mol (Liquid); method: Isoperibol calorimetry
Temperature, K	Mole fraction of diethyl ethanedioate	Excess molar enthalpy (molar enthalpy of mixing), kJ/mol	uncertainty
288.2	0.0494	0.194	0.004
288.2	0.1005	0.371	0.005
288.2	0.2004	0.651	0.007
288.2	0.2507	0.772	0.007
288.2	0.2991	0.867	0.008
288.2	0.3511	0.945	0.009
288.2	0.4019	1.012	0.009
288.2	0.4496	1.055	0.009
288.2	0.4975	1.092	0.01
288.2	0.5509	1.112	0.01
288.2	0.5969	1.109	0.01
288.2	0.6475	1.09	0.01
288.2	0.7033	1.032	0.009
288.2	0.7469	0.976	0.009
288.2	0.8039	0.867	0.008
288.2	0.845	0.754	0.008
288.2	0.9005	0.531	0.007
288.2	0.9484	0.283	0.006
298.2	0.0493	0.219	0.005
298.2	0.1004	0.424	0.006
298.2	0.1593	0.626	0.007
298.2	0.2003	0.741	0.007
298.2	0.2505	0.866	0.008
298.2	0.299	0.972	0.009
298.2	0.3509	1.065	0.009
298.2	0.4017	1.132	0.01
298.2	0.4494	1.181	0.01
298.2	0.4973	1.217	0.011
298.2	0.5507	1.231	0.011
298.2	0.5967	1.228	0.011
298.2	0.6473	1.195	0.01
298.2	0.7032	1.127	0.01
298.2	0.7468	1.083	0.009
298.2	0.8037	0.996	0.009
298.2	0.8449	0.873	0.009
298.2	0.9004	0.638	0.008
298.2	0.9484	0.371	0.007
313.2	0.0493	0.251	0.006
313.2	0.1004	0.502	0.007
313.2	0.1593	0.738	0.008
313.2	0.2003	0.877	0.008
313.2	0.2505	1.012	0.009
313.2	0.299	1.14	0.01
313.2	0.3509	1.246	0.011
313.2	0.4017	1.322	0.011
313.2	0.4494	1.374	0.012
313.2	0.4973	1.417	0.012
313.2	0.5507	1.422	0.012
313.2	0.5967	1.413	0.012
313.2	0.6473	1.37	0.012
313.2	0.7032	1.302	0.011
313.2	0.7468	1.218	0.011
313.2	0.8037	1.085	0.01
313.2	0.8449	0.956	0.009
313.2	0.9004	0.651	0.008
313.2	0.9484	0.395	0.007
328.2	0.0493	0.282	0.007
328.2	0.1004	0.58	0.007
328.2	0.1593	0.854	0.009
328.2	0.2003	1.007	0.009
328.2	0.2505	1.167	0.01
328.2	0.299	1.308	0.011
328.2	0.3509	1.425	0.012
328.2	0.4017	1.513	0.013
328.2	0.4494	1.561	0.013
328.2	0.4973	1.608	0.013
328.2	0.5507	1.608	0.013
328.2	0.5967	1.589	0.013
328.2	0.6473	1.52	0.013
328.2	0.7032	1.418	0.012
328.2	0.7468	1.299	0.011
328.2	0.8037	1.105	0.01
328.2	0.8449	0.927	0.009
328.2	0.9004	0.617	0.008
328.2	0.9484	0.353	0.007

System: ethanol + diethyl ethanedioate; phases: Liquid
Fixed: Pressure, kPa = 101.3
Property: Excess molar enthalpy (molar enthalpy of mixing), kJ/mol (Liquid); method: Isoperibol calorimetry
Temperature, K	Mole fraction of diethyl ethanedioate	Excess molar enthalpy (molar enthalpy of mixing), kJ/mol	uncertainty
288.2	0.0495	0.292	0.006
288.2	0.0994	0.564	0.008
288.2	0.1508	0.812	0.009
288.2	0.2004	0.993	0.01
288.2	0.2497	1.156	0.011
288.2	0.3009	1.274	0.011
288.2	0.3502	1.369	0.012
288.2	0.4003	1.45	0.013
288.2	0.4508	1.492	0.013
288.2	0.5011	1.524	0.013
288.2	0.5506	1.527	0.013
288.2	0.5986	1.511	0.013
288.2	0.6502	1.469	0.013
288.2	0.6996	1.391	0.012
288.2	0.7525	1.279	0.011
288.2	0.8021	1.135	0.01
288.2	0.8473	0.949	0.009
288.2	0.9034	0.686	0.008
288.2	0.946	0.417	0.007
298.2	0.0495	0.35	0.008
298.2	0.0994	0.672	0.008
298.2	0.1508	0.929	0.009
298.2	0.2004	1.121	0.01
298.2	0.2497	1.29	0.012
298.2	0.3009	1.427	0.012
298.2	0.3502	1.529	0.013
298.2	0.4003	1.609	0.014
298.2	0.4508	1.669	0.014
298.2	0.5011	1.695	0.014
298.2	0.5506	1.695	0.014
298.2	0.5986	1.674	0.014
298.2	0.6502	1.611	0.014
298.2	0.6996	1.522	0.013
298.2	0.7525	1.389	0.012
298.2	0.8021	1.228	0.011
298.2	0.8473	1.038	0.01
298.2	0.9034	0.719	0.009
298.2	0.946	0.421	0.008
313.2	0.0495	0.397	0.009
313.2	0.0994	0.775	0.01
313.2	0.1508	1.075	0.011
313.2	0.2004	1.294	0.012
313.2	0.2497	1.491	0.013
313.2	0.3009	1.644	0.014
313.2	0.3502	1.761	0.015
313.2	0.4003	1.849	0.015
313.2	0.4508	1.917	0.016
313.2	0.5011	1.937	0.016
313.2	0.5506	1.93	0.016
313.2	0.5986	1.9	0.016
313.2	0.6502	1.825	0.015
313.2	0.6996	1.716	0.015
313.2	0.7525	1.561	0.013
313.2	0.8021	1.36	0.012
313.2	0.8473	1.126	0.011
313.2	0.9034	0.795	0.01
313.2	0.946	0.487	0.009
328.2	0.0495	0.437	0.009
328.2	0.0994	0.859	0.011
328.2	0.1508	1.203	0.012
328.2	0.2004	1.451	0.013
328.2	0.2497	1.676	0.014
328.2	0.3009	1.832	0.015
328.2	0.3502	1.969	0.016
328.2	0.4003	2.064	0.017
328.2	0.4508	2.126	0.017
328.2	0.5011	2.145	0.018
328.2	0.5506	2.139	0.018
328.2	0.5986	2.088	0.017
328.2	0.6502	1.998	0.017
328.2	0.6996	1.872	0.016
328.2	0.7525	1.674	0.014
328.2	0.8021	1.446	0.013
328.2	0.8473	1.204	0.012
328.2	0.9034	0.812	0.01
328.2	0.946	0.486	0.009

System: propan-1-ol + diethyl ethanedioate; phases: Liquid
Fixed: Pressure, kPa = 101.3
Property: Excess molar enthalpy (molar enthalpy of mixing), kJ/mol (Liquid); method: Isoperibol calorimetry
Temperature, K	Mole fraction of diethyl ethanedioate	Excess molar enthalpy (molar enthalpy of mixing), kJ/mol	uncertainty
288.2	0.0505	0.445	0.008
288.2	0.1001	0.781	0.009
288.2	0.1509	1.056	0.01
288.2	0.1998	1.269	0.012
288.2	0.2491	1.429	0.013
288.2	0.2986	1.571	0.014
288.2	0.3478	1.672	0.014
288.2	0.4003	1.754	0.015
288.2	0.4482	1.8	0.015
288.2	0.499	1.839	0.016
288.2	0.5484	1.829	0.015
288.2	0.6007	1.8	0.015
288.2	0.6509	1.736	0.015
288.2	0.6986	1.642	0.014
288.2	0.7487	1.51	0.013
288.2	0.8015	1.325	0.012
288.2	0.8509	1.101	0.011
288.2	0.9028	0.804	0.01
288.2	0.9503	0.424	0.009
298.2	0.0505	0.471	0.009
298.2	0.1001	0.845	0.01
298.2	0.1509	1.154	0.011
298.2	0.1998	1.387	0.013
298.2	0.2491	1.588	0.014
298.2	0.2986	1.723	0.015
298.2	0.3478	1.858	0.016
298.2	0.4003	1.948	0.016
298.2	0.4482	1.987	0.017
298.2	0.499	2.025	0.017
298.2	0.5484	2.009	0.017
298.2	0.6007	1.98	0.016
298.2	0.6509	1.894	0.016
298.2	0.6986	1.777	0.015
298.2	0.7487	1.622	0.014
298.2	0.8015	1.424	0.013
298.2	0.8509	1.177	0.012
298.2	0.9028	0.822	0.01
298.2	0.9503	0.45	0.009
313.2	0.0505	0.514	0.01
313.2	0.1001	0.971	0.012
313.2	0.1509	1.319	0.013
313.2	0.1998	1.58	0.014
313.2	0.2491	1.811	0.016
313.2	0.2986	1.965	0.017
313.2	0.3478	2.11	0.018
313.2	0.4003	2.211	0.018
313.2	0.4482	2.252	0.019
313.2	0.499	2.279	0.019
313.2	0.5484	2.256	0.019
313.2	0.6007	2.196	0.018
313.2	0.6509	2.109	0.017
313.2	0.6986	1.97	0.017
313.2	0.7487	1.797	0.015
313.2	0.8015	1.536	0.014
313.2	0.8509	1.25	0.012
313.2	0.9028	0.879	0.011
313.2	0.9503	0.454	0.01
328.2	0.0505	0.563	0.011
328.2	0.1001	1.041	0.012
328.2	0.1509	1.429	0.014
328.2	0.1998	1.723	0.015
328.2	0.2491	1.956	0.017
328.2	0.2986	2.153	0.018
328.2	0.3478	2.308	0.019
328.2	0.4003	2.392	0.02
328.2	0.4482	2.451	0.02
328.2	0.499	2.471	0.02
328.2	0.5484	2.452	0.02
328.2	0.6007	2.363	0.019
328.2	0.6509	2.246	0.018
328.2	0.6986	2.108	0.018
328.2	0.7487	1.89	0.016
328.2	0.8015	1.612	0.014
328.2	0.8509	1.302	0.013
328.2	0.9028	0.909	0.012
328.2	0.9503	0.453	0.011

System: propan-2-ol + diethyl ethanedioate; phases: Liquid
Fixed: Pressure, kPa = 101.3
Property: Excess molar enthalpy (molar enthalpy of mixing), kJ/mol (Liquid); method: Isoperibol calorimetry
Temperature, K	Mole fraction of diethyl ethanedioate	Excess molar enthalpy (molar enthalpy of mixing), kJ/mol	uncertainty
288.2	0.0492	0.519	0.01
288.2	0.0997	0.943	0.011
288.2	0.1514	1.265	0.012
288.2	0.2009	1.492	0.014
288.2	0.2507	1.712	0.015
288.2	0.3005	1.832	0.016
288.2	0.3499	1.959	0.017
288.2	0.3987	2.024	0.017
288.2	0.4504	2.076	0.017
288.2	0.501	2.082	0.017
288.2	0.55	2.09	0.017
288.2	0.6018	2.04	0.017
288.2	0.6515	1.965	0.016
288.2	0.6985	1.849	0.016
288.2	0.7478	1.693	0.015
288.2	0.7996	1.481	0.013
288.2	0.8479	1.228	0.012
288.2	0.8985	0.908	0.011
288.2	0.9515	0.493	0.009
298.2	0.0492	0.548	0.011
298.2	0.0997	1.035	0.012
298.2	0.1514	1.389	0.013
298.2	0.2009	1.647	0.015
298.2	0.2507	1.9	0.016
298.2	0.3005	2.03	0.017
298.2	0.3499	2.163	0.018
298.2	0.3987	2.236	0.018
298.2	0.4504	2.285	0.019
298.2	0.501	2.279	0.019
298.2	0.55	2.277	0.019
298.2	0.6018	2.211	0.018
298.2	0.6515	2.122	0.018
298.2	0.6985	1.993	0.017
298.2	0.7478	1.807	0.015
298.2	0.7996	1.574	0.014
298.2	0.8479	1.287	0.013
298.2	0.8985	0.932	0.011
298.2	0.9515	0.468	0.01
313.2	0.0492	0.585	0.012
313.2	0.0997	1.124	0.013
313.2	0.1514	1.526	0.015
313.2	0.2009	1.831	0.016
313.2	0.2507	2.094	0.018
313.2	0.3005	2.257	0.019
313.2	0.3499	2.392	0.02
313.2	0.3987	2.467	0.02
313.2	0.4504	2.532	0.021
313.2	0.501	2.524	0.021
313.2	0.55	2.486	0.02
313.2	0.6018	2.415	0.02
313.2	0.6515	2.295	0.019
313.2	0.6985	2.152	0.018
313.2	0.7478	1.955	0.017
313.2	0.7996	1.667	0.015
313.2	0.8479	1.372	0.013
313.2	0.8985	0.995	0.012
313.2	0.9515	0.479	0.011
328.2	0.0492	0.605	0.013
328.2	0.0997	1.202	0.014
328.2	0.1514	1.633	0.015
328.2	0.2009	1.949	0.017
328.2	0.2507	2.246	0.019
328.2	0.3005	2.402	0.02
328.2	0.3499	2.549	0.021
328.2	0.3987	2.657	0.022
328.2	0.4504	2.685	0.022
328.2	0.501	2.68	0.022
328.2	0.55	2.643	0.021
328.2	0.6018	2.563	0.021
328.2	0.6515	2.416	0.02
328.2	0.6985	2.253	0.019
328.2	0.7478	2.028	0.017
328.2	0.7996	1.743	0.016
328.2	0.8479	1.404	0.014
328.2	0.8985	0.982	0.012
328.2	0.9515	0.505	0.01
