Measured thermophysical data. Ionic liquids based aqueous biphasic systems: Effect of the alkyl chains in the cation versus in the anion
Source: J. Chem. Thermodyn., 2013, 10.1016/j.jct.2013.05.043
Compound 1: water, H2O, InChI=1S/H2O/h1H2
Compound 2: tripotassium phosphate, K3O4P, InChI=1S/3K.H3O4P/c;;;1-5(2,3)4/h;;;(H3,1,2,3,4)/q3*+1;/p-3
Compound 3: 1,3-dimethyl-1H-imidazolium methanesulfonate, C6H12N2O3S, InChI=1S/C5H9N2.CH4O3S/c1-6-3-4-7(2)5-6;1-5(2,3)4/h3-5H,1-2H3;1H3,(H,2,3,4)/q+1;/p-1
Compound 4: 1-ethyl-3-methylimidazolium hexylsulfonate, C12H24N2O3S, InChI=1S/C6H11N2.C6H14O3S/c1-3-8-5-4-7(2)6-8;1-2-3-4-5-6-10(7,8)9/h4-6H,3H2,1-2H3;2-6H2,1H3,(H,7,8,9)/q+1;/p-1
Compound 5: 1-ethyl-3-methylimidazolium butylsulfonate, C10H20N2O3S, InChI=1S/C6H11N2.C4H10O3S/c1-3-8-5-4-7(2)6-8;1-2-3-4-8(5,6)7/h4-6H,3H2,1-2H3;2-4H2,1H3,(H,5,6,7)/q+1;/p-1
Compound 6: 1-butyl-3-methylimidazolium methanesulfonate, C9H18N2O3S, InChI=1S/C8H15N2.CH4O3S/c1-3-4-5-10-7-6-9(2)8-10;1-5(2,3)4/h6-8H,3-5H2,1-2H3;1H3,(H,2,3,4)/q+1;/p-1
Compound 7: 1-butyl-3-methylimidazolium ethylsulfonate, C10H20N2O3S, InChI=1S/C8H15N2.C2H6O3S/c1-3-4-5-10-7-6-9(2)8-10;1-2-6(3,4)5/h6-8H,3-5H2,1-2H3;2H2,1H3,(H,3,4,5)/q+1;/p-1
Compound 8: 1-pentyl-3-methylimidazolium methylsulfonate, C10H20N2O3S, InChI=1S/C9H17N2.CH4O3S/c1-3-4-5-6-11-8-7-10(2)9-11;1-5(2,3)4/h7-9H,3-6H2,1-2H3;1H3,(H,2,3,4)/q+1;/p-1
Compound 9: 1-hexyl-3-methylimidazolium methylsulfonate, C11H22N2O3S, InChI=1S/C10H19N2.CH4O3S/c1-3-4-5-6-7-12-9-8-11(2)10-12;1-5(2,3)4/h8-10H,3-7H2,1-2H3;1H3,(H,2,3,4)/q+1;/p-1
Compound 10: 1-hexyl-3-methylimidazolium ethylsulfonate, C12H24N2O3S, InChI=1S/C10H19N2.C2H6O3S/c1-3-4-5-6-7-12-9-8-11(2)10-12;1-2-6(3,4)5/h8-10H,3-7H2,1-2H3;2H2,1H3,(H,3,4,5)/q+1;/p-1

System: water + tripotassium phosphate + 1,3-dimethyl-1H-imidazolium methanesulfonate; phases: Liquid mixture 1, Liquid mixture 2
Fixed: Pressure, kPa = 101
Fixed: Temperature, K = 298.15
Property: Mass fraction of 1,3-dimethyl-1H-imidazolium methanesulfonate (Liquid mixture 1); method: Titration method
Mass fraction of tripotassium phosphate	Mass fraction of 1,3-dimethyl-1H-imidazolium methanesulfonate	uncertainty
0.0337	0.523	0.0329
0.0495	0.4809	0.0329
0.0771	0.4095	0.0322
0.1078	0.3563	0.0316
0.13	0.34	0.0315
0.172	0.29	0.0311
0.186	0.274	0.031
0.2	0.26	0.0309
0.22	0.24	0.0308
0.237	0.225	0.0307
0.2462	0.2378	0.0307
0.2697	0.2074	0.0306
0.2895	0.1833	0.0304
0.3055	0.1637	0.0304
0.3209	0.1458	0.0303
0.3331	0.1314	0.0302
0.3453	0.118	0.0302
0.3568	0.1059	0.0301

System: water + tripotassium phosphate + 1-ethyl-3-methylimidazolium hexylsulfonate; phases: Liquid mixture 1, Liquid mixture 2
Fixed: Pressure, kPa = 101
Fixed: Temperature, K = 298.15
Property: Mass fraction of 1-ethyl-3-methylimidazolium hexylsulfonate (Liquid mixture 1); method: Titration method
Mass fraction of tripotassium phosphate	Mass fraction of 1-ethyl-3-methylimidazolium hexylsulfonate	uncertainty
0.0423	0.4772	0.0148
0.0524	0.4307	0.0136
0.0742	0.3655	0.012
0.0834	0.3391	0.0113
0.093	0.3147	0.0107
0.1029	0.2914	0.0102
0.1117	0.272	0.0098
0.1189	0.2549	0.0094
0.134	0.2315	0.0089
0.1374	0.22	0.0086
0.1483	0.2028	0.0083
0.1516	0.1932	0.0081
0.1607	0.1798	0.0079
0.1705	0.1617	0.0075
0.179	0.1468	0.0073
0.187	0.1338	0.0071
0.1903	0.122	0.0069
0.2036	0.1088	0.0067
0.2127	0.0967	0.0066
0.2193	0.0854	0.0065
0.2261	0.0772	0.0064
0.2307	0.071	0.0063
0.236	0.0641	0.0063
0.2428	0.0585	0.0062
0.2504	0.0507	0.0062
0.2603	0.0422	0.0061
0.2735	0.0316	0.0061
0.2847	0.0257	0.006
0.288	0.0223	0.006
0.3141	0.0132	0.006

System: water + tripotassium phosphate + 1-ethyl-3-methylimidazolium butylsulfonate; phases: Liquid mixture 1, Liquid mixture 2
Fixed: Pressure, kPa = 101
Fixed: Temperature, K = 298.15
Property: Mass fraction of 1-ethyl-3-methylimidazolium butylsulfonate (Liquid mixture 1); method: Titration method
Mass fraction of tripotassium phosphate	Mass fraction of 1-ethyl-3-methylimidazolium butylsulfonate	uncertainty
0.0209	0.5077	0.0331
0.0438	0.4698	0.0328
0.0607	0.395	0.032
0.0766	0.3727	0.0318
0.091	0.3516	0.0316
0.1042	0.3235	0.0314
0.1217	0.2859	0.0311
0.1378	0.2876	0.0311
0.1528	0.2753	0.031
0.1692	0.2572	0.0309
0.182	0.2365	0.0307
0.193	0.2329	0.0307
0.2039	0.2122	0.0306
0.2145	0.1958	0.0305
0.2221	0.1741	0.0304
0.2306	0.1613	0.0303
0.2377	0.1462	0.0303
0.2449	0.1339	0.0302
0.2551	0.1202	0.0302
0.2642	0.1094	0.0302
0.2715	0.0986	0.0301
0.2814	0.0869	0.0301
0.2891	0.0775	0.0301
0.296	0.0665	0.0301
0.3026	0.0584	0.03
0.3109	0.0517	0.03
0.3354	0.0457	0.03

System: water + tripotassium phosphate + 1-butyl-3-methylimidazolium methanesulfonate; phases: Liquid mixture 1, Liquid mixture 2
Fixed: Pressure, kPa = 101
Fixed: Temperature, K = 298.15
Property: Mass fraction of 1-butyl-3-methylimidazolium methanesulfonate (Liquid mixture 1); method: Titration method
Mass fraction of tripotassium phosphate	Mass fraction of 1-butyl-3-methylimidazolium methanesulfonate	uncertainty
0.0605	0.4021	0.0129
0.0692	0.382	0.0124
0.077	0.3647	0.0119
0.0938	0.3341	0.0112
0.1025	0.3172	0.0108
0.1213	0.2876	0.0101
0.1346	0.268	0.0097
0.1494	0.2481	0.0092
0.1638	0.229	0.0088
0.1881	0.1995	0.0082
0.2096	0.1744	0.0078
0.2238	0.1582	0.0075
0.2376	0.1431	0.0072
0.2488	0.1309	0.0071
0.2646	0.1143	0.0068
0.2759	0.103	0.0067
0.2958	0.0843	0.0065

System: water + tripotassium phosphate + 1-butyl-3-methylimidazolium ethylsulfonate; phases: Liquid mixture 1, Liquid mixture 2
Fixed: Pressure, kPa = 101
Fixed: Temperature, K = 298.15
Property: Mass fraction of 1-butyl-3-methylimidazolium ethylsulfonate (Liquid mixture 1); method: Titration method
Mass fraction of tripotassium phosphate	Mass fraction of 1-butyl-3-methylimidazolium ethylsulfonate	uncertainty
0.0537	0.3902	0.0126
0.0753	0.342	0.0114
0.0906	0.3119	0.0107
0.1091	0.2807	0.01
0.1409	0.2353	0.009
0.1525	0.2201	0.0086
0.1738	0.1937	0.0081
0.1831	0.1827	0.0079
0.2015	0.1614	0.0075
0.2065	0.1552	0.0074
0.2218	0.1382	0.0072
0.227	0.1323	0.0071
0.2392	0.1192	0.0069
0.2507	0.107	0.0067
0.261	0.0967	0.0066
0.2704	0.0875	0.0065
0.2855	0.0739	0.0064
0.298	0.0666	0.0063
0.3144	0.0536	0.0062
0.329	0.0434	0.0061

System: water + tripotassium phosphate + 1-pentyl-3-methylimidazolium methylsulfonate; phases: Liquid mixture 1, Liquid mixture 2
Fixed: Pressure, kPa = 101
Fixed: Temperature, K = 298.15
Property: Mass fraction of 1-pentyl-3-methylimidazolium methylsulfonate (Liquid mixture 1); method: Titration method
Mass fraction of tripotassium phosphate	Mass fraction of 1-pentyl-3-methylimidazolium methylsulfonate	uncertainty
0.0803	0.3593	0.0118
0.0907	0.335	0.0112
0.0967	0.3226	0.0109
0.101	0.315	0.0107
0.1082	0.3021	0.0104
0.1157	0.2896	0.0102
0.1233	0.2777	0.0099
0.1298	0.2671	0.0096
0.1375	0.2556	0.0094
0.1454	0.2444	0.0092
0.1532	0.2334	0.0089
0.1607	0.223	0.0087
0.1689	0.2122	0.0085
0.1761	0.2027	0.0083
0.1845	0.1923	0.0081
0.1911	0.184	0.0079
0.2039	0.1685	0.0077
0.2095	0.1616	0.0075
0.2154	0.1547	0.0074
0.2206	0.1484	0.0073
0.2261	0.1419	0.0072
0.2312	0.1361	0.0071
0.2365	0.1302	0.007
0.2415	0.1244	0.007
0.2457	0.1197	0.0069
0.2496	0.1154	0.0068
0.254	0.1108	0.0068
0.2578	0.1067	0.0067
0.2619	0.1025	0.0067
0.2675	0.0967	0.0066
0.2697	0.094	0.0066
0.2742	0.0897	0.0065
0.2775	0.0865	0.0065
0.2816	0.0827	0.0064
0.2857	0.079	0.0064
0.2891	0.0758	0.0064
0.2926	0.0727	0.0063
0.3004	0.0661	0.0063
0.3128	0.0562	0.0062
0.3288	0.0451	0.0061

System: water + tripotassium phosphate + 1-hexyl-3-methylimidazolium methylsulfonate; phases: Liquid mixture 1, Liquid mixture 2
Fixed: Pressure, kPa = 101
Fixed: Temperature, K = 298.15
Property: Mass fraction of 1-hexyl-3-methylimidazolium methylsulfonate (Liquid mixture 1); method: Titration method
Mass fraction of tripotassium phosphate	Mass fraction of 1-hexyl-3-methylimidazolium methylsulfonate	uncertainty
0.0545	0.4357	0.0137
0.0666	0.4013	0.0128
0.0773	0.3724	0.0121
0.091	0.3423	0.0114
0.106	0.3143	0.0107
0.1238	0.2825	0.01
0.1476	0.2446	0.0092
0.169	0.2131	0.0085
0.1928	0.1803	0.0079
0.215	0.1517	0.0074
0.2312	0.1317	0.0071
0.2432	0.1175	0.0069
0.2521	0.1075	0.0067
0.2615	0.0973	0.0066
0.2705	0.0879	0.0065
0.2803	0.0786	0.0064
0.2896	0.0701	0.0063

System: water + tripotassium phosphate + 1-hexyl-3-methylimidazolium ethylsulfonate; phases: Liquid mixture 1, Liquid mixture 2
Fixed: Pressure, kPa = 101
Fixed: Temperature, K = 298.15
Property: Mass fraction of 1-hexyl-3-methylimidazolium ethylsulfonate (Liquid mixture 1); method: Titration method
Mass fraction of tripotassium phosphate	Mass fraction of 1-hexyl-3-methylimidazolium ethylsulfonate	uncertainty
0.0596	0.4127	0.0131
0.0718	0.3749	0.0122
0.0858	0.3414	0.0114
0.1017	0.3099	0.0106
0.1221	0.276	0.0098
0.1368	0.2475	0.0092
0.1499	0.2262	0.0088
0.1638	0.2053	0.0083
0.1771	0.1851	0.008
0.1909	0.1659	0.0076
0.2008	0.1514	0.0074
0.2115	0.1374	0.0071
0.2199	0.126	0.007
0.2294	0.1138	0.0068
0.2415	0.099	0.0066
0.2525	0.0866	0.0065
0.2632	0.0751	0.0064
0.2736	0.0651	0.0063
0.2877	0.0527	0.0062
0.2993	0.0429	0.0061
