Measured thermophysical data. Osmotic coefficients and activity coefficients in binary water/5-(hydroxymethyl)furfural and in ternary water/5-(hydroxymethyl)furfural/salt solutions at 298.15 K
Source: J. Chem. Thermodyn., 2019, 10.1016/j.jct.2019.105878
Compound 1: water, H2O, InChI=1S/H2O/h1H2, purity 99.9%
Compound 2: 5-(hydroxymethyl)furan-2-carbaldehyde, C6H6O3, InChI=1S/C6H6O3/c7-3-5-1-2-6(4-8)9-5/h1-3,8H,4H2, purity 99.1%
Compound 3: sodium chloride, ClNa, InChI=1S/ClH.Na/h1H;/q;+1/p-1, purity 99.5%
Compound 4: lithium chloride, ClLi, InChI=1S/ClH.Li/h1H;/q;+1/p-1, purity 99%

System: water + 5-(hydroxymethyl)furan-2-carbaldehyde; phases: Liquid
Fixed: Temperature, K = 298.15
Fixed: Pressure, kPa = 97.5
Property: Osmotic coefficient (Liquid); method: vapour pressure osmometry
Molality, mol/kg of 5-(hydroxymethyl)furan-2-carbaldehyde	Osmotic coefficient	uncertainty
0.496	0.8498	0.0236
0.991	0.7295	0.022
1.483	0.6354	0.0215
1.98	0.5722	0.0217
2.473	0.5215	0.0221
2.967	0.4621	0.0228
3.459	0.4424	0.0231
3.95	0.3961	0.0239
4.444	0.378	0.0242
4.935	0.3702	0.0244

System: water + 5-(hydroxymethyl)furan-2-carbaldehyde + sodium chloride; phases: Liquid
Fixed: Temperature, K = 298.15
Fixed: Pressure, kPa = 97.5
Property: Osmotic coefficient (Liquid); method: vapour pressure osmometry
Molality, mol/kg of 5-(hydroxymethyl)furan-2-carbaldehyde	Molality, mol/kg of sodium chloride	Osmotic coefficient	uncertainty
0.99	0.9985	0.8378	0.017
1.98	0.9983	0.7367	0.017
2.967	0.9975	0.6735	0.0174
3.95	0.9955	0.6275	0.0178
4.933	0.9946	0.5622	0.0189
0.992	2.997	0.9239	0.018
1.98	2.9929	0.8914	0.0174
2.967	2.9909	0.8313	0.0171
3.951	2.9864	0.8254	0.017
4.935	2.9848	0.7683	0.0169
0.496	0	0.8498	0.0236
0.991	0	0.7295	0.022
1.483	0	0.6354	0.0215
1.98	0	0.5722	0.0217
2.473	0	0.5215	0.0221
2.967	0	0.4621	0.0228
3.459	0	0.4424	0.0231
3.95	0	0.3961	0.0239
4.444	0	0.378	0.0242
4.935	0	0.3702	0.0244

System: water + 5-(hydroxymethyl)furan-2-carbaldehyde + lithium chloride; phases: Liquid
Fixed: Temperature, K = 298.15
Fixed: Pressure, kPa = 97.5
Property: Osmotic coefficient (Liquid); method: vapour pressure osmometry
Molality, mol/kg of 5-(hydroxymethyl)furan-2-carbaldehyde	Molality, mol/kg of lithium chloride	Osmotic coefficient	uncertainty
0.991	0.9989	0.9196	0.0178
1.979	0.9979	0.8402	0.017
2.966	0.9974	0.7497	0.0169
3.95	0.9958	0.6512	0.0175
4.929	0.994	0.5843	0.0185
0.991	2.9965	1.2031	0.0241
1.979	2.993	1.1083	0.0215
2.967	2.991	1.0379	0.0198
3.95	2.9864	0.9328	0.018
4.927	2.9799	0.8644	0.0173
0.496	0	0.8498	0.0236
0.991	0	0.7295	0.022
1.483	0	0.6354	0.0215
1.98	0	0.5722	0.0217
2.473	0	0.5215	0.0221
2.967	0	0.4621	0.0228
3.459	0	0.4424	0.0231
3.95	0	0.3961	0.0239
4.444	0	0.378	0.0242
4.935	0	0.3702	0.0244
