Measured thermophysical data. Osmotic coefficients and apparent molar volumes of 1-hexyl-3-methylimidazolium trifluoromethanesulfonate ionic liquid in alcohols
Source: J. Chem. Thermodyn., 2014, 10.1016/j.jct.2013.09.041
Compound 1: propan-1-ol, C3H8O, InChI=1S/C3H8O/c1-2-3-4/h4H,2-3H2,1H3, purity 99.9%
Compound 2: propan-2-ol, C3H8O, InChI=1S/C3H8O/c1-3(2)4/h3-4H,1-2H3, purity 99.9%
Compound 3: butan-1-ol, C4H10O, InChI=1S/C4H10O/c1-2-3-4-5/h5H,2-4H2,1H3, purity 99.9%
Compound 4: butan-2-ol, C4H10O, InChI=1S/C4H10O/c1-3-4(2)5/h4-5H,3H2,1-2H3, purity 99.5%
Compound 5: pentan-1-ol, C5H12O, InChI=1S/C5H12O/c1-2-3-4-5-6/h6H,2-5H2,1H3, purity 99%
Compound 6: 1-hexyl-3-methylimidazolium trifluoromethanesulfonate, C11H19F3N2O3S, InChI=1S/C10H19N2.CHF3O3S/c1-3-4-5-6-7-12-9-8-11(2)10-12;2-1(3,4)8(5,6)7/h8-10H,3-7H2,1-2H3;(H,5,6,7)/q+1;/p-1, purity 99%

System: propan-1-ol; phases: Liquid
Property: Mass density, kg/m3 (Liquid); method: Vibrating tube method
Temperature, K	Pressure, kPa	Mass density, kg/m3	uncertainty
323.15	101.325	779.09	0.13

System: propan-1-ol; phases: Liquid
Property: Speed of sound, m/s (Liquid); method: Sing-around technique in a fixed-path interferometer
Temperature, K	Pressure, kPa	Speed of sound, m/s	uncertainty
323.15	101.325	1121.8	0.8

System: propan-2-ol; phases: Liquid
Property: Mass density, kg/m3 (Liquid); method: Vibrating tube method
Temperature, K	Pressure, kPa	Mass density, kg/m3	uncertainty
323.15	101.325	758.63	0.13

System: propan-2-ol; phases: Liquid
Property: Speed of sound, m/s (Liquid); method: Sing-around technique in a fixed-path interferometer
Temperature, K	Pressure, kPa	Speed of sound, m/s	uncertainty
323.15	101.325	1050.9	0.8

System: butan-1-ol; phases: Liquid
Property: Mass density, kg/m3 (Liquid); method: Vibrating tube method
Temperature, K	Pressure, kPa	Mass density, kg/m3	uncertainty
323.15	101.325	786.32	0.12

System: butan-1-ol; phases: Liquid
Property: Speed of sound, m/s (Liquid); method: Sing-around technique in a fixed-path interferometer
Temperature, K	Pressure, kPa	Speed of sound, m/s	uncertainty
323.15	101.325	1157.3	0.8

System: butan-2-ol; phases: Liquid
Property: Mass density, kg/m3 (Liquid); method: Vibrating tube method
Temperature, K	Pressure, kPa	Mass density, kg/m3	uncertainty
323.15	101.325	780.4	0.15

System: butan-2-ol; phases: Liquid
Property: Speed of sound, m/s (Liquid); method: Sing-around technique in a fixed-path interferometer
Temperature, K	Pressure, kPa	Speed of sound, m/s	uncertainty
323.15	101.325	1120.2	1

System: pentan-1-ol; phases: Liquid
Property: Mass density, kg/m3 (Liquid); method: Vibrating tube method
Temperature, K	Pressure, kPa	Mass density, kg/m3	uncertainty
323.15	101.325	792.14	0.24

System: pentan-1-ol; phases: Liquid
Property: Speed of sound, m/s (Liquid); method: Sing-around technique in a fixed-path interferometer
Temperature, K	Pressure, kPa	Speed of sound, m/s	uncertainty
323.15	101.325	1192.9	1.3

System: 1-hexyl-3-methylimidazolium trifluoromethanesulfonate; phases: Liquid
Property: Mass density, kg/m3 (Liquid); method: Vibrating tube method
Temperature, K	Pressure, kPa	Mass density, kg/m3	uncertainty
323.15	101.325	1217.24	0.41

System: 1-hexyl-3-methylimidazolium trifluoromethanesulfonate; phases: Liquid
Property: Speed of sound, m/s (Liquid); method: Sing-around technique in a fixed-path interferometer
Temperature, K	Pressure, kPa	Speed of sound, m/s	uncertainty
323.15	101.325	1327.2	1.3

System: propan-1-ol + 1-hexyl-3-methylimidazolium trifluoromethanesulfonate; phases: Liquid
Fixed: Pressure, kPa = 101
Fixed: Temperature, K = 323.15
Property: Mass density, kg/m3 (Liquid); method: Vibrating tube method
Molality, mol/kg of 1-hexyl-3-methylimidazolium trifluoromethanesulfonate	Mass density, kg/m3	uncertainty
0.051	783.95	0.22
0.102	788.64	0.22
0.153	793.14	0.21
0.234	800.17	0.21
0.296	805.3	0.2
0.306	806.08	0.2
0.355	810.02	0.2
0.401	813.72	0.2
0.448	817.38	0.19
0.518	822.69	0.19
0.62	830.19	0.18
0.707	836.34	0.18
0.804	843.03	0.18
0.905	849.7	0.17
1.012	856.34	0.17

System: propan-1-ol + 1-hexyl-3-methylimidazolium trifluoromethanesulfonate; phases: Liquid
Fixed: Pressure, kPa = 101
Fixed: Temperature, K = 323.15
Property: Osmotic coefficient (Liquid); method: A Knauer K-7000 vapor pressure osmometer
Molality, mol/kg of 1-hexyl-3-methylimidazolium trifluoromethanesulfonate	Osmotic coefficient	uncertainty
0.025	0.964	0.014
0.051	0.866	0.014
0.087	0.796	0.014
0.214	0.685	0.016
0.308	0.645	0.017
0.411	0.585	0.019
0.518	0.547	0.02
0.815	0.494	0.022
1.223	0.462	0.022
1.614	0.427	0.024
2.029	0.408	0.024
2.416	0.392	0.025
2.82	0.373	0.025
3.493	0.361	0.026

System: propan-2-ol + 1-hexyl-3-methylimidazolium trifluoromethanesulfonate; phases: Liquid
Fixed: Pressure, kPa = 101
Fixed: Temperature, K = 323.15
Property: Mass density, kg/m3 (Liquid); method: Vibrating tube method
Molality, mol/kg of 1-hexyl-3-methylimidazolium trifluoromethanesulfonate	Mass density, kg/m3	uncertainty
0.051	763.8	0.23
0.102	768.55	0.23
0.152	773.15	0.22
0.204	777.8	0.22
0.252	782.08	0.21
0.301	786.21	0.21
0.355	790.72	0.21
0.404	794.75	0.2
0.455	798.81	0.2
0.504	802.65	0.2
0.606	810.57	0.19
0.709	818.13	0.19
0.802	824.81	0.18
0.908	831.9	0.18
1.012	838.62	0.17

System: propan-2-ol + 1-hexyl-3-methylimidazolium trifluoromethanesulfonate; phases: Liquid
Fixed: Pressure, kPa = 101
Fixed: Temperature, K = 323.15
Property: Osmotic coefficient (Liquid); method: A Knauer K-7000 vapor pressure osmometer
Molality, mol/kg of 1-hexyl-3-methylimidazolium trifluoromethanesulfonate	Osmotic coefficient	uncertainty
0.026	0.991	0.013
0.043	0.954	0.012
0.1	0.886	0.013
0.2	0.758	0.015
0.305	0.659	0.017
0.412	0.616	0.018
0.526	0.585	0.019
0.819	0.538	0.02
1.221	0.476	0.022
1.62	0.444	0.023
2.033	0.42	0.024
2.449	0.387	0.025
2.822	0.378	0.025
3.344	0.364	0.025
3.646	0.359	0.026

System: butan-1-ol + 1-hexyl-3-methylimidazolium trifluoromethanesulfonate; phases: Liquid
Fixed: Pressure, kPa = 101
Fixed: Temperature, K = 323.15
Property: Mass density, kg/m3 (Liquid); method: Vibrating tube method
Molality, mol/kg of 1-hexyl-3-methylimidazolium trifluoromethanesulfonate	Mass density, kg/m3	uncertainty
0.052	791.18	0.22
0.103	795.76	0.21
0.152	799.99	0.21
0.202	804.23	0.2
0.254	808.45	0.2
0.303	812.46	0.2
0.353	816.43	0.2
0.405	820.46	0.19
0.448	823.73	0.19
0.504	827.88	0.19
0.598	834.75	0.18
0.701	841.92	0.18
0.792	848.08	0.17
0.906	855.49	0.17
1.01	861.88	0.17

System: butan-1-ol + 1-hexyl-3-methylimidazolium trifluoromethanesulfonate; phases: Liquid
Fixed: Pressure, kPa = 101
Fixed: Temperature, K = 323.15
Property: Osmotic coefficient (Liquid); method: A Knauer K-7000 vapor pressure osmometer
Molality, mol/kg of 1-hexyl-3-methylimidazolium trifluoromethanesulfonate	Osmotic coefficient	uncertainty
0.028	0.828	0.018
0.045	0.721	0.02
0.114	0.599	0.019
0.198	0.543	0.02
0.302	0.482	0.022
0.427	0.453	0.023
0.526	0.434	0.023
0.81	0.399	0.024
1.224	0.356	0.026
1.64	0.339	0.026
2.045	0.329	0.027
2.417	0.313	0.027
2.827	0.298	0.028
3.312	0.282	0.028

System: butan-2-ol + 1-hexyl-3-methylimidazolium trifluoromethanesulfonate; phases: Liquid
Fixed: Pressure, kPa = 101
Fixed: Temperature, K = 323.15
Property: Mass density, kg/m3 (Liquid); method: Vibrating tube method
Molality, mol/kg of 1-hexyl-3-methylimidazolium trifluoromethanesulfonate	Mass density, kg/m3	uncertainty
0.052	785.45	0.23
0.102	789.95	0.23
0.153	794.44	0.23
0.203	798.75	0.22
0.302	806.95	0.22
0.352	810.99	0.22
0.403	815.07	0.21
0.45	818.65	0.21
0.5029	822.68	0.21
0.597	829.6	0.2
0.7	836.92	0.2
0.797	843.69	0.2
0.907	850.73	0.19
1.002	856.64	0.19

System: butan-2-ol + 1-hexyl-3-methylimidazolium trifluoromethanesulfonate; phases: Liquid
Fixed: Pressure, kPa = 101
Fixed: Temperature, K = 323.15
Property: Osmotic coefficient (Liquid); method: A Knauer K-7000 vapor pressure osmometer
Molality, mol/kg of 1-hexyl-3-methylimidazolium trifluoromethanesulfonate	Osmotic coefficient	uncertainty
0.056	0.823	0.014
0.079	0.797	0.014
0.107	0.76	0.015
0.215	0.626	0.018
0.296	0.576	0.019
0.401	0.513	0.021
0.513	0.487	0.022
0.809	0.426	0.024
1.206	0.393	0.025
1.608	0.38	0.025
2.032	0.362	0.026
2.426	0.351	0.026
2.776	0.342	0.026
3.311	0.337	0.026
3.703	0.332	0.026

System: pentan-1-ol + 1-hexyl-3-methylimidazolium trifluoromethanesulfonate; phases: Liquid
Fixed: Pressure, kPa = 101
Fixed: Temperature, K = 323.15
Property: Mass density, kg/m3 (Liquid); method: Vibrating tube method
Molality, mol/kg of 1-hexyl-3-methylimidazolium trifluoromethanesulfonate	Mass density, kg/m3	uncertainty
0.05	796.7	0.29
0.1	801.05	0.29
0.151	805.37	0.29
0.202	809.6	0.29
0.254	813.84	0.29
0.3	817.52	0.28
0.401	825.41	0.28
0.498	832.62	0.28
0.61	840.59	0.27
0.705	847.05	0.27
0.803	853.55	0.27
0.849	856.48	0.26
1	865.7	0.26

System: pentan-1-ol + 1-hexyl-3-methylimidazolium trifluoromethanesulfonate; phases: Liquid
Fixed: Pressure, kPa = 101
Fixed: Temperature, K = 323.15
Property: Osmotic coefficient (Liquid); method: A Knauer K-7000 vapor pressure osmometer
Molality, mol/kg of 1-hexyl-3-methylimidazolium trifluoromethanesulfonate	Osmotic coefficient	uncertainty
0.053	0.784	0.019
0.084	0.599	0.021
0.108	0.51	0.021
0.194	0.44	0.023
0.313	0.392	0.025
0.415	0.345	0.026
0.512	0.331	0.027
0.829	0.299	0.028
1.216	0.293	0.028
1.64	0.276	0.028
2.047	0.27	0.028
2.461	0.255	0.029
2.845	0.244	0.029
3.322	0.226	0.03
