Measured thermophysical data. The effect of halogen hetero-atoms on the vapor pressures and thermodynamics of polycyclic aromatic compounds measured via the Knudsen effusion technique
Source: J. Chem. Thermodyn., 2008, 10.1016/j.jct.2007.09.006
Compound 1: 1,4-dibromonaphthalene, C10H6Br2, InChI=1S/C10H6Br2/c11-9-5-6-10(12)8-4-2-1-3-7(8)9/h1-6H
Compound 2: 5-bromoacenaphthene, C12H9Br, InChI=1S/C12H9Br/c13-11-7-6-9-5-4-8-2-1-3-10(11)12(8)9/h1-3,6-7H,4-5H2
Compound 3: 9-bromoanthracene, C14H9Br, InChI=1S/C14H9Br/c15-14-12-7-3-1-5-10(12)9-11-6-2-4-8-13(11)14/h1-9H
Compound 4: 9,10-dibromoanthracene, C14H8Br2, InChI=1S/C14H8Br2/c15-13-9-5-1-2-6-10(9)14(16)12-8-4-3-7-11(12)13/h1-8H
Compound 5: 2-chloroanthracene, C14H9Cl, InChI=1S/C14H9Cl/c15-14-6-5-12-7-10-3-1-2-4-11(10)8-13(12)9-14/h1-9H
Compound 6: 9,10-dichloroanthracene, C14H8Cl2, InChI=1S/C14H8Cl2/c15-13-9-5-1-2-6-10(9)14(16)12-8-4-3-7-11(12)13/h1-8H
Compound 7: 1-bromopyrene, C16H9Br, InChI=1S/C16H9Br/c17-14-9-7-12-5-4-10-2-1-3-11-6-8-13(14)16(12)15(10)11/h1-9H
Compound 8: 1,5-dibromoanthracene, C14H8Br2, InChI=1S/C14H8Br2/c15-13-5-1-3-9-7-12-10(8-11(9)13)4-2-6-14(12)16/h1-8H

System: 1,4-dibromonaphthalene; phases: Crystal, Gas
Property: Vapor or sublimation pressure, kPa (Crystal); method: KNUDSEN:UFactor:2
Temperature, K	Vapor or sublimation pressure, kPa	uncertainty
297.4	1.93e-05	2e-06
297.8	1.95e-05	2e-06
301.2	2.88e-05	3e-06
303.4	3.84e-05	4e-06
304.6	4.45e-05	4.6e-06
306.9	5.99e-05	6.2e-06
307.9	6.88e-05	7.1e-06
313.5	0.000127	1.3e-05
318.8	0.000225	2.3e-05
320.6	0.000269	2.7e-05
322.7	0.000325	3.3e-05

System: 5-bromoacenaphthene; phases: Crystal, Gas
Property: Vapor or sublimation pressure, kPa (Crystal); method: KNUDSEN:UFactor:2
Temperature, K	Vapor or sublimation pressure, kPa	uncertainty
295.5	3.92e-05	4.1e-06
298.5	5.63e-05	5.9e-06
303.6	0.000107	1.1e-05
305.7	0.000144	1.5e-05
308	0.000184	1.9e-05
311.9	0.000277	2.8e-05
314.4	0.000344	3.5e-05
316.6	0.000435	4.5e-05
318.9	0.00056	5.6e-05
319.2	0.000553	5.6e-05
321.2	0.000725	7.5e-05
321.4	0.000679	6.9e-05

System: 9-bromoanthracene; phases: Crystal, Gas
Property: Vapor or sublimation pressure, kPa (Crystal); method: KNUDSEN:UFactor:3
Temperature, K	Vapor or sublimation pressure, kPa	uncertainty
315.6	6e-06	1e-06
319	9.7e-06	1.5e-06
321.8	1.16e-05	1.8e-06
322.9	1.57e-05	2.4e-06
325.5	1.87e-05	2.9e-06
329.2	2.95e-05	4.5e-06
330.8	3.4e-05	5.2e-06
333.1	4.79e-05	7.3e-06
336.2	6.28e-05	9.6e-06
339.2	9.05e-05	1.36e-05
339.9	9.04e-05	1.36e-05
340	9.19e-05	1.39e-05
342.1	0.000102	1.6e-05
342.3	0.000116	1.8e-05
344.1	0.000136	2.1e-05
344.3	0.000141	2.2e-05
347.1	0.000208	3.2e-05
348.2	0.000229	3.5e-05
352.1	0.000353	5.3e-05
355.7	0.00045	6.8e-05
362.8	0.00083	0.000127
364	0.000966	0.000147
367.8	0.00148	0.00048

System: 9,10-dibromoanthracene; phases: Crystal, Gas
Property: Vapor or sublimation pressure, kPa (Crystal); method: KNUDSEN:UFactor:3
Temperature, K	Vapor or sublimation pressure, kPa	uncertainty
359.1	9e-06	1.4e-06
360.4	1.03e-05	1.6e-06
361.4	1.26e-05	1.9e-06
364.9	1.71e-05	2.6e-06
365.5	1.67e-05	2.5e-06
368.7	2.55e-05	3.9e-06
369.7	2.97e-05	4.5e-06
372.8	3.94e-05	6e-06
373.8	4.45e-05	6.7e-06
377.2	5.46e-05	8.3e-06
377.4	6.3e-05	9.5e-06
378.3	6.55e-05	1e-05
381.3	9.05e-05	1.36e-05
381.7	9.23e-05	1.39e-05
381.9	9.64e-05	1.46e-05
386.1	0.000133	2.1e-05
386.4	0.000142	2.2e-05
391.7	0.000208	3.1e-05

System: 2-chloroanthracene; phases: Crystal, Gas
Property: Vapor or sublimation pressure, kPa (Crystal); method: KNUDSEN:UFactor:3
Temperature, K	Vapor or sublimation pressure, kPa	uncertainty
331.4	8.3e-06	1.3e-06
333.6	9.7e-06	1.5e-06
338.9	2.08e-05	3.2e-06
341.2	2.4e-05	3.6e-06
343	2.7e-05	4.2e-06
349.4	5.71e-05	8.7e-06
351.6	7.29e-05	1.11e-05
352.6	8.76e-05	1.33e-05
355.4	0.000103	1.6e-05
355.6	0.0001	1.5e-05
358.2	0.000124	1.9e-05
358.9	0.000135	2.1e-05
361.4	0.000179	2.7e-05
363	0.000195	2.9e-05
363.9	0.000217	3.3e-05
367.2	0.000284	4.3e-05
368.1	0.000314	4.7e-05
370.4	0.000355	5.4e-05
371.8	0.0004	6e-05

System: 9,10-dichloroanthracene; phases: Crystal, Gas
Property: Vapor or sublimation pressure, kPa (Crystal); method: KNUDSEN:UFactor:4
Temperature, K	Vapor or sublimation pressure, kPa	uncertainty
316	2.7e-07	1e-07
330.8	2e-06	4e-07
330.9	2.2e-06	5e-07
337.7	4.7e-06	1e-06
339.1	5.7e-06	1.2e-06
341.7	7.1e-06	1.5e-06
344.3	8.7e-06	1.8e-06
345.6	1.27e-05	2.6e-06
347.3	1.44e-05	2.9e-06
348.3	1.67e-05	3.4e-06
348.9	1.72e-05	3.5e-06
353.4	3.7e-05	7.5e-06
353.6	3.94e-05	7.9e-06
355.8	3.74e-05	7.6e-06
357.9	5.46e-05	1.1e-05
363.5	8.47e-05	1.71e-05
364.4	7.79e-05	1.58e-05
367.5	0.000121	2.5e-05
368.5	0.000164	3.4e-05
376	0.000236	4.7e-05

System: 1-bromopyrene; phases: Crystal, Gas
Property: Vapor or sublimation pressure, kPa (Crystal); method: KNUDSEN:UFactor:3
Temperature, K	Vapor or sublimation pressure, kPa	uncertainty
320.8	1.8e-06	3e-07
339.4	1.52e-05	2.3e-06
339.5	1.37e-05	2.1e-06
347.1	3.08e-05	4.7e-06
347.3	2.82e-05	4.3e-06
351.4	5.08e-05	7.7e-06
353.8	5.08e-05	7.7e-06
353.8	4.97e-05	7.5e-06
355.3	5.94e-05	9e-06
355.4	6.06e-05	9.2e-06
358.3	7.83e-05	1.42e-05
358.6	9.01e-05	1.57e-05
362.3	0.000112	1.7e-05
363.4	0.000155	2.4e-05
363.4	0.000128	2e-05
363.4	0.00016	2.4e-05
365.9	0.00018	2.7e-05
367.9	0.000233	3.5e-05

System: 1,5-dibromoanthracene; phases: Crystal, Gas
Property: Vapor or sublimation pressure, kPa (Crystal); method: KNUDSEN:UFactor:3
Temperature, K	Vapor or sublimation pressure, kPa	uncertainty
358	6.8e-06	1.1e-06
358.2	7.2e-06	1.1e-06
360.6	8.5e-06	1.3e-06
362.3	1.12e-05	1.7e-06
363.3	1.33e-05	2e-06
365.1	1.5e-05	2.3e-06
366.7	1.8e-05	2.8e-06
368.5	2.23e-05	3.4e-06
370.8	2.83e-05	4.3e-06
372.5	3.3e-05	5e-06
373.1	3.76e-05	5.9e-06
375.6	4.12e-05	6.2e-06
377.8	4.8e-05	7.3e-06
377.9	6.31e-05	1.15e-05
378	6.68e-05	1.51e-05
378.3	5e-05	1.35e-05
379.8	7.46e-05	1.13e-05
381.8	7.18e-05	1.09e-05
383.2	0.000104	1.6e-05
385.4	0.000126	1.9e-05
386.5	0.000116	1.8e-05
388	0.000159	2.4e-05
391.2	0.000212	3.2e-05
392.7	0.000242	3.7e-05
395	0.000297	4.5e-05
398.5	0.000397	6e-05
402.8	0.00055	8.3e-05
407.2	0.000787	0.000121
407.8	0.00071	0.00011
