Measured thermophysical data. Thermodynamic study of 2-aminothiazole and 2-aminobenzothiazole: Experimental and computational approaches
Source: J. Chem. Thermodyn., 2014, 10.1016/j.jct.2014.04.001
Compound 1: sulfuric acid, H2O4S, InChI=1S/H2O4S/c1-5(2,3)4/h(H2,1,2,3,4)
Compound 2: carbon dioxide, CO2, InChI=1S/CO2/c2-1-3
Compound 3: nitrogen, N2, InChI=1S/N2/c1-2
Compound 4: water, H2O, InChI=1S/H2O/h1H2
Compound 5: oxygen, O2, InChI=1S/O2/c1-2
Compound 6: 2-aminothiazole, C3H4N2S, InChI=1S/C3H4N2S/c4-3-5-1-2-6-3/h1-2H,(H2,4,5), purity 99.8%
Compound 7: 2-benzothiazolamine, C7H6N2S, InChI=1S/C7H6N2S/c8-7-9-5-3-1-2-4-6(5)10-7/h1-4H,(H2,8,9), purity 98.4%

System: 2-aminothiazole; phases: Crystal, Gas
Property: Molar enthalpy of vaporization or sublimation, kJ/mol (Crystal); method: Static calorimetry
Temperature, K	Molar enthalpy of vaporization or sublimation, kJ/mol	uncertainty
298.15	85.9	1.1

System: 2-aminothiazole; phases: Crystal, Gas
Property: Vapor or sublimation pressure, kPa (Crystal); method: Calculated from knudsen effusion weight loss
Temperature, K	Vapor or sublimation pressure, kPa	uncertainty
295.35	0.000595	0.000102
296.27	0.00065	0.000103
296.75	0.000689	0.000103
297.13	0.000693	0.000103
297.63	0.000734	0.000103
298.2	0.000813	0.000104
299.7	0.00097	0.000106
300.6	0.00105	0.00013
301.24	0.00117	0.00013
301.69	0.00124	0.00014
302.11	0.00126	0.00014
302.7	0.00138	0.00014
303.12	0.00138	0.00014
303.6	0.00146	0.00015

System: 2-benzothiazolamine; phases: Crystal, Gas
Property: Molar enthalpy of vaporization or sublimation, kJ/mol (Crystal); method: Static calorimetry
Temperature, K	Molar enthalpy of vaporization or sublimation, kJ/mol	uncertainty
298.15	102.1	1.8

System: 2-benzothiazolamine; phases: Crystal, Gas
Property: Vapor or sublimation pressure, kPa (Crystal); method: Calculated from knudsen effusion weight loss
Temperature, K	Vapor or sublimation pressure, kPa	uncertainty
333.16	0.00012	2e-05
334.27	0.000139	2.1e-05
335.16	0.000153	2.1e-05
336.16	0.000165	2.1e-05
337.27	0.000191	2.1e-05
339.16	0.000234	2.2e-05
341.16	0.000286	2.2e-05
343.24	0.000365	2.4e-05
345.15	0.000442	2.5e-05
347.15	0.000543	2.8e-05
349.27	0.000687	3.2e-05
351.17	0.000828	3.5e-05
352.16	0.000888	3.7e-05
353.26	0.00102	8e-05
354.16	0.00111	9e-05

Reaction: -1 2-aminothiazole + 1 sulfuric acid + 3 carbon dioxide + 1 nitrogen + 1 water + -5.5 oxygen
Property: Specific internal energy of reaction at constant volume, J/g
-24066.66

Reaction: -1 2-benzothiazolamine + 1 sulfuric acid + 7 carbon dioxide + 1 nitrogen + 2 water + -10 oxygen
Property: Specific internal energy of reaction at constant volume, J/g
-28522.5
