Measured thermophysical data. Henry's law constants and infinite dilution activity coefficients of cis-2-butene, dimethylether, chloroethane, and 1,1-difluoroethane in methanol, 1-propanol, 2-propanol, 1-butanol, 2-butanol, isobutanol, tert-butanol, 1-pentanol, 2-pentanol, 3-pentanol, 2-methyl-1-butanol, 3-methyl-1-butanol, and 2-methyl-2-butanol
Source: J. Chem. Thermodyn., 2006, 10.1016/j.jct.2005.08.004
Compound 1: methanol, CH4O, InChI=1S/CH4O/c1-2/h2H,1H3, purity 99.9%
Compound 2: propan-1-ol, C3H8O, InChI=1S/C3H8O/c1-2-3-4/h4H,2-3H2,1H3, purity 99.8%
Compound 3: propan-2-ol, C3H8O, InChI=1S/C3H8O/c1-3(2)4/h3-4H,1-2H3, purity 99.8%
Compound 4: butan-1-ol, C4H10O, InChI=1S/C4H10O/c1-2-3-4-5/h5H,2-4H2,1H3, purity 99.5%
Compound 5: butan-2-ol, C4H10O, InChI=1S/C4H10O/c1-3-4(2)5/h4-5H,3H2,1-2H3, purity 99.5%
Compound 6: 2-methyl-1-propanol, C4H10O, InChI=1S/C4H10O/c1-4(2)3-5/h4-5H,3H2,1-2H3, purity 99.5%
Compound 7: 2-methylpropan-2-ol, C4H10O, InChI=1S/C4H10O/c1-4(2,3)5/h5H,1-3H3, purity 99%
Compound 8: pentan-1-ol, C5H12O, InChI=1S/C5H12O/c1-2-3-4-5-6/h6H,2-5H2,1H3, purity 98%
Compound 9: 3-methylbutan-1-ol, C5H12O, InChI=1S/C5H12O/c1-5(2)3-4-6/h5-6H,3-4H2,1-2H3, purity 98%
Compound 10: dimethyl ether, C2H6O, InChI=1S/C2H6O/c1-3-2/h1-2H3, purity 99%
Compound 11: pentan-2-ol, C5H12O, InChI=1S/C5H12O/c1-3-4-5(2)6/h5-6H,3-4H2,1-2H3, purity 98%
Compound 12: 3-pentanol, C5H12O, InChI=1S/C5H12O/c1-3-5(6)4-2/h5-6H,3-4H2,1-2H3, purity 98%
Compound 13: 2-methylbutan-2-ol, C5H12O, InChI=1S/C5H12O/c1-4-5(2,3)6/h6H,4H2,1-3H3, purity 98%
Compound 14: (Z)-2-butene, C4H8, InChI=1S/C4H8/c1-3-4-2/h3-4H,1-2H3/b4-3-, purity 99%
Compound 15: chloroethane, C2H5Cl, InChI=1S/C2H5Cl/c1-2-3/h2H2,1H3, purity 99.7%
Compound 16: 1,1-difluoroethane, C2H4F2, InChI=1S/C2H4F2/c1-2(3)4/h2H,1H3, purity 98%
Compound 17: 2-methyl-1-butanol, C5H12O, InChI=1S/C5H12O/c1-3-5(2)4-6/h5-6H,3-4H2,1-2H3, purity 99%

System: methanol + (Z)-2-butene; phases: Liquid, Gas
Fixed: Mole fraction of (Z)-2-butene = 0
Property: Activity coefficient of (Z)-2-butene (Liquid); method: Chromatography
Temperature, K	Activity coefficient of (Z)-2-butene	uncertainty
249.98	10.1	0.7
269.98	9.7	0.66
289.99	9.44	0.64
300	9.33	0.64
310	9.15	0.62
320	8.96	0.61
330	8.73	0.6

System: methanol + (Z)-2-butene; phases: Liquid, Gas
Fixed: Mole fraction of (Z)-2-butene = 0
Property: Henry's Law constant (mole fraction scale), kPa of (Z)-2-butene (Liquid); method: Chromatography
Temperature, K	Henry's Law constant (mole fraction scale), kPa of (Z)-2-butene	uncertainty
249.98	319	13
269.98	730	29
289.99	1460	59
300	1980	80
310	2590	104
320	3310	133
330	4130	166

System: methanol + dimethyl ether; phases: Liquid, Gas
Fixed: Mole fraction of dimethyl ether = 0
Property: Activity coefficient of dimethyl ether (Liquid); method: Chromatography
Temperature, K	Activity coefficient of dimethyl ether	uncertainty
249.99	2.43	0.17
269.97	2.41	0.16
289.99	2.37	0.16
309.99	2.34	0.16
330	2.27	0.15

System: methanol + dimethyl ether; phases: Liquid, Gas
Fixed: Mole fraction of dimethyl ether = 0
Property: Henry's Law constant (mole fraction scale), kPa of dimethyl ether (Liquid); method: Chromatography
Temperature, K	Henry's Law constant (mole fraction scale), kPa of dimethyl ether	uncertainty
249.99	255	10
269.97	540	22
289.99	990	40
309.99	1660	67
330	2500	100

System: methanol + chloroethane; phases: Liquid, Gas
Fixed: Mole fraction of chloroethane = 0
Property: Activity coefficient of chloroethane (Liquid); method: Chromatography
Temperature, K	Activity coefficient of chloroethane	uncertainty
250.06	5.08	0.35
269.96	4.93	0.34
289.99	4.76	0.32
309.99	4.69	0.32
330	4.51	0.31

System: methanol + chloroethane; phases: Liquid, Gas
Fixed: Mole fraction of chloroethane = 0
Property: Henry's Law constant (mole fraction scale), kPa of chloroethane (Liquid); method: Chromatography
Temperature, K	Henry's Law constant (mole fraction scale), kPa of chloroethane	uncertainty
250.06	108	4
269.96	263	11
289.99	550	22
309.99	1040	42
330	1740	70

System: methanol + 1,1-difluoroethane; phases: Liquid, Gas
Fixed: Mole fraction of 1,1-difluoroethane = 0
Property: Activity coefficient of 1,1-difluoroethane (Liquid); method: Chromatography
Temperature, K	Activity coefficient of 1,1-difluoroethane	uncertainty
249.98	4.27	0.29
269.97	4.43	0.3
289.99	4.53	0.31
300	4.56	0.31
310	4.55	0.31
320	4.51	0.31
330	4.42	0.3

System: methanol + 1,1-difluoroethane; phases: Liquid, Gas
Fixed: Mole fraction of 1,1-difluoroethane = 0
Property: Henry's Law constant (mole fraction scale), kPa of 1,1-difluoroethane (Liquid); method: Chromatography
Temperature, K	Henry's Law constant (mole fraction scale), kPa of 1,1-difluoroethane	uncertainty
249.98	451	18
269.97	1010	41
289.99	1940	78
300	2580	104
310	3310	133
320	4140	166
330	5020	202

System: propan-1-ol + (Z)-2-butene; phases: Liquid, Gas
Fixed: Mole fraction of (Z)-2-butene = 0
Property: Activity coefficient of (Z)-2-butene (Liquid); method: Chromatography
Temperature, K	Activity coefficient of (Z)-2-butene	uncertainty
249.92	3.95	0.27
270	3.98	0.27
289.99	3.93	0.27
309.99	3.87	0.26
330	3.81	0.26

System: propan-1-ol + (Z)-2-butene; phases: Liquid, Gas
Fixed: Mole fraction of (Z)-2-butene = 0
Property: Henry's Law constant (mole fraction scale), kPa of (Z)-2-butene (Liquid); method: Chromatography
Temperature, K	Henry's Law constant (mole fraction scale), kPa of (Z)-2-butene	uncertainty
249.92	124	5
270	299	12
289.99	610	25
309.99	1090	44
330	1810	73

System: propan-1-ol + dimethyl ether; phases: Liquid, Gas
Fixed: Mole fraction of dimethyl ether = 0
Property: Activity coefficient of dimethyl ether (Liquid); method: Chromatography
Temperature, K	Activity coefficient of dimethyl ether	uncertainty
249.91	2.22	0.15
259.93	2.11	0.14
269.98	2.02	0.14
290	1.89	0.13
309.99	1.75	0.12
330	1.61	0.11

System: propan-1-ol + dimethyl ether; phases: Liquid, Gas
Fixed: Mole fraction of dimethyl ether = 0
Property: Henry's Law constant (mole fraction scale), kPa of dimethyl ether (Liquid); method: Chromatography
Temperature, K	Henry's Law constant (mole fraction scale), kPa of dimethyl ether	uncertainty
249.91	232	9
259.93	330	13
269.98	453	18
290	790	32
309.99	1240	50
330	1780	71

System: propan-1-ol + chloroethane; phases: Liquid, Gas
Fixed: Mole fraction of chloroethane = 0
Property: Activity coefficient of chloroethane (Liquid); method: Chromatography
Temperature, K	Activity coefficient of chloroethane	uncertainty
249.92	3.17	0.22
270	3.14	0.21
289.99	3.04	0.21
309.99	2.91	0.2
330	2.77	0.19

System: propan-1-ol + chloroethane; phases: Liquid, Gas
Fixed: Mole fraction of chloroethane = 0
Property: Henry's Law constant (mole fraction scale), kPa of chloroethane (Liquid); method: Chromatography
Temperature, K	Henry's Law constant (mole fraction scale), kPa of chloroethane	uncertainty
249.92	67	3
270	168	7
289.99	352	14
309.99	650	26
330	1070	43

System: propan-1-ol + 1,1-difluoroethane; phases: Liquid, Gas
Fixed: Mole fraction of 1,1-difluoroethane = 0
Property: Activity coefficient of 1,1-difluoroethane (Liquid); method: Chromatography
Temperature, K	Activity coefficient of 1,1-difluoroethane	uncertainty
249.91	5.71	0.39
259.93	5.61	0.38
269.98	5.47	0.37
290	5.17	0.35
309.99	4.79	0.33
330	4.36	0.3

System: propan-1-ol + 1,1-difluoroethane; phases: Liquid, Gas
Fixed: Mole fraction of 1,1-difluoroethane = 0
Property: Henry's Law constant (mole fraction scale), kPa of 1,1-difluoroethane (Liquid); method: Chromatography
Temperature, K	Henry's Law constant (mole fraction scale), kPa of 1,1-difluoroethane	uncertainty
249.91	600	24
259.93	880	35
269.98	1250	50
290	2220	89
309.99	3480	140
330	4950	199

System: propan-2-ol + (Z)-2-butene; phases: Liquid, Gas
Fixed: Mole fraction of (Z)-2-butene = 0
Property: Activity coefficient of (Z)-2-butene (Liquid); method: Chromatography
Temperature, K	Activity coefficient of (Z)-2-butene	uncertainty
249.96	4.1	0.28
269.94	4.09	0.28
289.99	4.02	0.27
309.99	3.85	0.26
330.01	3.63	0.25

System: propan-2-ol + (Z)-2-butene; phases: Liquid, Gas
Fixed: Mole fraction of (Z)-2-butene = 0
Property: Henry's Law constant (mole fraction scale), kPa of (Z)-2-butene (Liquid); method: Chromatography
Temperature, K	Henry's Law constant (mole fraction scale), kPa of (Z)-2-butene	uncertainty
249.96	129	5
269.94	306	12
289.99	620	25
309.99	1090	44
330.01	1720	69

System: propan-2-ol + dimethyl ether; phases: Liquid, Gas
Fixed: Mole fraction of dimethyl ether = 0
Property: Activity coefficient of dimethyl ether (Liquid); method: Chromatography
Temperature, K	Activity coefficient of dimethyl ether	uncertainty
249.98	2.21	0.15
269.99	1.94	0.13
289.99	1.77	0.12
309.99	1.62	0.11
330	1.46	0.1

System: propan-2-ol + dimethyl ether; phases: Liquid, Gas
Fixed: Mole fraction of dimethyl ether = 0
Property: Henry's Law constant (mole fraction scale), kPa of dimethyl ether (Liquid); method: Chromatography
Temperature, K	Henry's Law constant (mole fraction scale), kPa of dimethyl ether	uncertainty
249.98	232	9
269.99	435	17
289.99	740	30
309.99	1150	46
330	1610	65

System: propan-2-ol + chloroethane; phases: Liquid, Gas
Fixed: Mole fraction of chloroethane = 0
Property: Activity coefficient of chloroethane (Liquid); method: Chromatography
Temperature, K	Activity coefficient of chloroethane	uncertainty
249.96	3.6	0.25
269.94	3.5	0.24
289.99	3.33	0.23
309.99	3.09	0.21
330.01	2.79	0.19

System: propan-2-ol + chloroethane; phases: Liquid, Gas
Fixed: Mole fraction of chloroethane = 0
Property: Henry's Law constant (mole fraction scale), kPa of chloroethane (Liquid); method: Chromatography
Temperature, K	Henry's Law constant (mole fraction scale), kPa of chloroethane	uncertainty
249.96	76	3
269.94	187	8
289.99	386	16
309.99	690	28
330.01	1080	43

System: propan-2-ol + 1,1-difluoroethane; phases: Liquid, Gas
Fixed: Mole fraction of 1,1-difluoroethane = 0
Property: Activity coefficient of 1,1-difluoroethane (Liquid); method: Chromatography
Temperature, K	Activity coefficient of 1,1-difluoroethane	uncertainty
249.98	5.87	0.4
269.99	5.49	0.37
289.99	5.05	0.34
309.99	4.54	0.31
330	3.98	0.27

System: propan-2-ol + 1,1-difluoroethane; phases: Liquid, Gas
Fixed: Mole fraction of 1,1-difluoroethane = 0
Property: Henry's Law constant (mole fraction scale), kPa of 1,1-difluoroethane (Liquid); method: Chromatography
Temperature, K	Henry's Law constant (mole fraction scale), kPa of 1,1-difluoroethane	uncertainty
249.98	621	25
269.99	1250	50
289.99	2160	87
309.99	3300	133
330	4520	182

System: butan-2-ol + (Z)-2-butene; phases: Liquid, Gas
Fixed: Mole fraction of (Z)-2-butene = 0
Property: Activity coefficient of (Z)-2-butene (Liquid); method: Chromatography
Temperature, K	Activity coefficient of (Z)-2-butene	uncertainty
249.87	3.33	0.23
269.97	3.4	0.23
289.99	3.25	0.22
310	3.09	0.21
330	2.86	0.19

System: butan-2-ol + (Z)-2-butene; phases: Liquid, Gas
Fixed: Mole fraction of (Z)-2-butene = 0
Property: Henry's Law constant (mole fraction scale), kPa of (Z)-2-butene (Liquid); method: Chromatography
Temperature, K	Henry's Law constant (mole fraction scale), kPa of (Z)-2-butene	uncertainty
249.87	104	4
269.97	255	10
289.99	500	20
310	880	35
330	1350	54

System: butan-2-ol + dimethyl ether; phases: Liquid, Gas
Fixed: Mole fraction of dimethyl ether = 0
Property: Activity coefficient of dimethyl ether (Liquid); method: Chromatography
Temperature, K	Activity coefficient of dimethyl ether	uncertainty
249.98	1.95	0.13
269.96	1.7	0.11
289.99	1.5	0.1
309.99	1.36	0.09
329.94	1.24	0.08

System: butan-2-ol + dimethyl ether; phases: Liquid, Gas
Fixed: Mole fraction of dimethyl ether = 0
Property: Henry's Law constant (mole fraction scale), kPa of dimethyl ether (Liquid); method: Chromatography
Temperature, K	Henry's Law constant (mole fraction scale), kPa of dimethyl ether	uncertainty
249.98	205	8
269.96	381	15
289.99	630	25
309.99	960	39
329.94	1370	55

System: chloroethane + butan-2-ol; phases: Liquid, Gas
Fixed: Mole fraction of chloroethane = 0
Property: Activity coefficient of chloroethane (Liquid); method: Chromatography
Temperature, K	Activity coefficient of chloroethane	uncertainty
249.87	3.57	0.24
269.97	3.36	0.23
289.99	3.06	0.21
310	2.69	0.18
330	2.34	0.16

System: chloroethane + butan-2-ol; phases: Liquid, Gas
Fixed: Mole fraction of chloroethane = 0
Property: Henry's Law constant (mole fraction scale), kPa of chloroethane (Liquid); method: Chromatography
Temperature, K	Henry's Law constant (mole fraction scale), kPa of chloroethane	uncertainty
249.87	75	3
269.97	180	7
289.99	354	14
310	600	24
330	900	36

System: 1,1-difluoroethane + butan-2-ol; phases: Liquid, Gas
Fixed: Mole fraction of 1,1-difluoroethane = 0
Property: Activity coefficient of 1,1-difluoroethane (Liquid); method: Chromatography
Temperature, K	Activity coefficient of 1,1-difluoroethane	uncertainty
249.98	7.93	0.54
269.96	6.78	0.46
289.99	5.69	0.39
309.99	4.67	0.32
329.94	3.92	0.27

System: 1,1-difluoroethane + butan-2-ol; phases: Liquid, Gas
Fixed: Mole fraction of 1,1-difluoroethane = 0
Property: Henry's Law constant (mole fraction scale), kPa of 1,1-difluoroethane (Liquid); method: Chromatography
Temperature, K	Henry's Law constant (mole fraction scale), kPa of 1,1-difluoroethane	uncertainty
249.98	840	34
269.96	1540	62
289.99	2440	98
309.99	3400	137
329.94	4450	179

System: butan-1-ol + (Z)-2-butene; phases: Liquid, Gas
Fixed: Mole fraction of (Z)-2-butene = 0
Property: Activity coefficient of (Z)-2-butene (Liquid); method: Chromatography
Temperature, K	Activity coefficient of (Z)-2-butene	uncertainty
249.84	3.18	0.22
270.01	3.19	0.22
289.99	3.17	0.22
309.99	3.12	0.21
329.93	3.05	0.21

System: butan-1-ol + (Z)-2-butene; phases: Liquid, Gas
Fixed: Mole fraction of (Z)-2-butene = 0
Property: Henry's Law constant (mole fraction scale), kPa of (Z)-2-butene (Liquid); method: Chromatography
Temperature, K	Henry's Law constant (mole fraction scale), kPa of (Z)-2-butene	uncertainty
249.84	99	4
270.01	240	10
289.99	490	20
309.99	880	35
329.93	1440	58

System: butan-1-ol + dimethyl ether; phases: Liquid, Gas
Fixed: Mole fraction of dimethyl ether = 0
Property: Activity coefficient of dimethyl ether (Liquid); method: Chromatography
Temperature, K	Activity coefficient of dimethyl ether	uncertainty
249.96	2.05	0.14
269.94	1.84	0.12
289.99	1.7	0.11
309.99	1.58	0.1
330.01	1.44	0.09

System: butan-1-ol + dimethyl ether; phases: Liquid, Gas
Fixed: Mole fraction of dimethyl ether = 0
Property: Henry's Law constant (mole fraction scale), kPa of dimethyl ether (Liquid); method: Chromatography
Temperature, K	Henry's Law constant (mole fraction scale), kPa of dimethyl ether	uncertainty
249.96	215	9
269.94	413	17
289.99	710	29
309.99	1120	45
330.01	1590	64

System: butan-1-ol + chloroethane; phases: Liquid, Gas
Fixed: Mole fraction of chloroethane = 0
Property: Activity coefficient of chloroethane (Liquid); method: Chromatography
Temperature, K	Activity coefficient of chloroethane	uncertainty
249.84	2.8	0.19
270.01	2.76	0.19
289.99	2.7	0.18
309.99	2.59	0.18
329.93	2.44	0.17

System: butan-1-ol + chloroethane; phases: Liquid, Gas
Fixed: Mole fraction of chloroethane = 0
Property: Henry's Law constant (mole fraction scale), kPa of chloroethane (Liquid); method: Chromatography
Temperature, K	Henry's Law constant (mole fraction scale), kPa of chloroethane	uncertainty
249.84	59	2
270.01	148	6
289.99	312	13
309.99	570	23
329.93	940	38

System: butan-1-ol + 1,1-difluoroethane; phases: Liquid, Gas
Fixed: Mole fraction of 1,1-difluoroethane = 0
Property: Activity coefficient of 1,1-difluoroethane (Liquid); method: Chromatography
Temperature, K	Activity coefficient of 1,1-difluoroethane	uncertainty
249.96	6.03	0.41
269.94	5.59	0.38
289.99	5.2	0.35
309.99	4.73	0.32
330.01	4.25	0.29

System: butan-1-ol + 1,1-difluoroethane; phases: Liquid, Gas
Fixed: Mole fraction of 1,1-difluoroethane = 0
Property: Henry's Law constant (mole fraction scale), kPa of 1,1-difluoroethane (Liquid); method: Chromatography
Temperature, K	Henry's Law constant (mole fraction scale), kPa of 1,1-difluoroethane	uncertainty
249.96	640	26
269.94	1270	51
289.99	2230	90
309.99	3440	138
330.01	4830	194

System: 2-methyl-1-propanol + (Z)-2-butene; phases: Liquid, Gas
Fixed: Mole fraction of (Z)-2-butene = 0
Property: Activity coefficient of (Z)-2-butene (Liquid); method: Chromatography
Temperature, K	Activity coefficient of (Z)-2-butene	uncertainty
249.98	3.16	0.22
269.96	3.21	0.22
289.99	3.23	0.22
309.99	3.12	0.21
329.94	3.01	0.2

System: 2-methyl-1-propanol + (Z)-2-butene; phases: Liquid, Gas
Fixed: Mole fraction of (Z)-2-butene = 0
Property: Henry's Law constant (mole fraction scale), kPa of (Z)-2-butene (Liquid); method: Chromatography
Temperature, K	Henry's Law constant (mole fraction scale), kPa of (Z)-2-butene	uncertainty
249.98	99	4
269.96	241	10
289.99	498	20
309.99	880	35
329.94	1420	57

System: 2-methyl-1-propanol + dimethyl ether; phases: Liquid, Gas
Fixed: Mole fraction of dimethyl ether = 0
Property: Activity coefficient of dimethyl ether (Liquid); method: Chromatography
Temperature, K	Activity coefficient of dimethyl ether	uncertainty
249.84	1.88	0.13
270.01	1.68	0.11
289.99	1.53	0.1
309.99	1.41	0.09
329.93	1.31	0.09

System: 2-methyl-1-propanol + dimethyl ether; phases: Liquid, Gas
Fixed: Mole fraction of dimethyl ether = 0
Property: Henry's Law constant (mole fraction scale), kPa of dimethyl ether (Liquid); method: Chromatography
Temperature, K	Henry's Law constant (mole fraction scale), kPa of dimethyl ether	uncertainty
249.84	197	8
270.01	378	15
289.99	640	26
309.99	1000	40
329.93	1440	58

System: chloroethane + 2-methyl-1-propanol; phases: Liquid, Gas
Fixed: Mole fraction of chloroethane = 0
Property: Activity coefficient of chloroethane (Liquid); method: Chromatography
Temperature, K	Activity coefficient of chloroethane	uncertainty
249.98	3.15	0.21
269.96	3.13	0.21
289.99	2.98	0.2
309.99	2.75	0.19
329.94	2.46	0.17

System: chloroethane + 2-methyl-1-propanol; phases: Liquid, Gas
Fixed: Mole fraction of chloroethane = 0
Property: Henry's Law constant (mole fraction scale), kPa of chloroethane (Liquid); method: Chromatography
Temperature, K	Henry's Law constant (mole fraction scale), kPa of chloroethane	uncertainty
249.98	67	3
269.96	167	7
289.99	345	14
309.99	610	25
329.94	950	38

System: 2-methylpropan-2-ol + (Z)-2-butene; phases: Liquid, Gas
Fixed: Mole fraction of (Z)-2-butene = 0
Property: Activity coefficient of (Z)-2-butene (Liquid); method: Chromatography
Temperature, K	Activity coefficient of (Z)-2-butene	uncertainty
300	2.91	0.2
309.99	2.77	0.19
320	2.67	0.18
330	2.59	0.18

System: 2-methylpropan-2-ol + (Z)-2-butene; phases: Liquid, Gas
Fixed: Mole fraction of (Z)-2-butene = 0
Property: Henry's Law constant (mole fraction scale), kPa of (Z)-2-butene (Liquid); method: Chromatography
Temperature, K	Henry's Law constant (mole fraction scale), kPa of (Z)-2-butene	uncertainty
300	620	25
309.99	780	31
320	990	40
330	1230	49

System: 2-methylpropan-2-ol + dimethyl ether; phases: Liquid, Gas
Fixed: Mole fraction of dimethyl ether = 0
Property: Activity coefficient of dimethyl ether (Liquid); method: Chromatography
Temperature, K	Activity coefficient of dimethyl ether	uncertainty
300	1.1	0.07
310	1.07	0.07
320	1.06	0.07
330	1.04	0.07

System: 2-methylpropan-2-ol + dimethyl ether; phases: Liquid, Gas
Fixed: Mole fraction of dimethyl ether = 0
Property: Henry's Law constant (mole fraction scale), kPa of dimethyl ether (Liquid); method: Chromatography
Temperature, K	Henry's Law constant (mole fraction scale), kPa of dimethyl ether	uncertainty
300	610	25
310	760	31
320	950	38
330	1150	46

System: chloroethane + 2-methylpropan-2-ol; phases: Liquid, Gas
Fixed: Mole fraction of chloroethane = 0
Property: Activity coefficient of chloroethane (Liquid); method: Chromatography
Temperature, K	Activity coefficient of chloroethane	uncertainty
300	2.73	0.19
310	2.48	0.17
320	2.32	0.16
330	2.17	0.15

System: chloroethane + 2-methylpropan-2-ol; phases: Liquid, Gas
Fixed: Mole fraction of chloroethane = 0
Property: Henry's Law constant (mole fraction scale), kPa of chloroethane (Liquid); method: Chromatography
Temperature, K	Henry's Law constant (mole fraction scale), kPa of chloroethane	uncertainty
300	444	18
310	550	22
320	690	28
330	840	34

System: 1,1-difluoroethane + 2-methylpropan-2-ol; phases: Liquid, Gas
Fixed: Mole fraction of 1,1-difluoroethane = 0
Property: Activity coefficient of 1,1-difluoroethane (Liquid); method: Chromatography
Temperature, K	Activity coefficient of 1,1-difluoroethane	uncertainty
300	4.31	0.29
309.99	3.79	0.26
320	3.42	0.23
330	3.13	0.21

System: 1,1-difluoroethane + 2-methylpropan-2-ol; phases: Liquid, Gas
Fixed: Mole fraction of 1,1-difluoroethane = 0
Property: Henry's Law constant (mole fraction scale), kPa of 1,1-difluoroethane (Liquid); method: Chromatography
Temperature, K	Henry's Law constant (mole fraction scale), kPa of 1,1-difluoroethane	uncertainty
300	2430	98
309.99	2760	111
320	3130	126
330	3560	143

System: (Z)-2-butene + pentan-2-ol; phases: Liquid, Gas
Fixed: Mole fraction of (Z)-2-butene = 0
Property: Activity coefficient of (Z)-2-butene (Liquid); method: Chromatography
Temperature, K	Activity coefficient of (Z)-2-butene	uncertainty
249.92	3	0.2
270.03	2.88	0.2
290	2.73	0.19
309.99	2.59	0.18
330	2.4	0.16

System: (Z)-2-butene + pentan-2-ol; phases: Liquid, Gas
Fixed: Mole fraction of (Z)-2-butene = 0
Property: Henry's Law constant (mole fraction scale), kPa of (Z)-2-butene (Liquid); method: Chromatography
Temperature, K	Henry's Law constant (mole fraction scale), kPa of (Z)-2-butene	uncertainty
249.92	94	4
270.03	216	9
290	421	17
309.99	730	29
330	1140	46

System: dimethyl ether + pentan-2-ol; phases: Liquid, Gas
Fixed: Mole fraction of dimethyl ether = 0
Property: Activity coefficient of dimethyl ether (Liquid); method: Chromatography
Temperature, K	Activity coefficient of dimethyl ether	uncertainty
249.95	1.94	0.13
270.05	1.65	0.11
290	1.44	0.09
309.99	1.3	0.08
330.01	1.16	0.07

System: dimethyl ether + pentan-2-ol; phases: Liquid, Gas
Fixed: Mole fraction of dimethyl ether = 0
Property: Henry's Law constant (mole fraction scale), kPa of dimethyl ether (Liquid); method: Chromatography
Temperature, K	Henry's Law constant (mole fraction scale), kPa of dimethyl ether	uncertainty
249.92	94	4
270.03	216	9
290	421	17
309.99	730	29
330	1140	46

System: chloroethane + pentan-2-ol; phases: Liquid, Gas
Fixed: Mole fraction of chloroethane = 0
Property: Activity coefficient of chloroethane (Liquid); method: Chromatography
Temperature, K	Activity coefficient of chloroethane	uncertainty
249.95	3.77	0.26
270.05	3.47	0.24
290	2.94	0.2
309.99	2.57	0.17
330.01	2.1	0.14

System: chloroethane + pentan-2-ol; phases: Liquid, Gas
Fixed: Mole fraction of chloroethane = 0
Property: Henry's Law constant (mole fraction scale), kPa of chloroethane (Liquid); method: Chromatography
Temperature, K	Henry's Law constant (mole fraction scale), kPa of chloroethane	uncertainty
249.95	80	3
270.05	186	7
290	340	14
309.99	570	23
330.01	810	33

System: 1,1-difluoroethane + pentan-2-ol; phases: Liquid, Gas
Fixed: Mole fraction of 1,1-difluoroethane = 0
Property: Activity coefficient of 1,1-difluoroethane (Liquid); method: Chromatography
Temperature, K	Activity coefficient of 1,1-difluoroethane	uncertainty
249.95	8.81	0.6
270.05	7.28	0.5
290	5.92	0.4
309.99	4.76	0.32
330.01	3.71	0.25

System: 1,1-difluoroethane + pentan-2-ol; phases: Liquid, Gas
Fixed: Mole fraction of 1,1-difluoroethane = 0
Property: Henry's Law constant (mole fraction scale), kPa of 1,1-difluoroethane (Liquid); method: Chromatography
Temperature, K	Henry's Law constant (mole fraction scale), kPa of 1,1-difluoroethane	uncertainty
249.95	930	37
270.05	1660	67
290	2540	102
309.99	3460	139
330.01	4220	169

System: pentan-1-ol + (Z)-2-butene; phases: Liquid, Gas
Fixed: Mole fraction of (Z)-2-butene = 0
Property: Activity coefficient of (Z)-2-butene (Liquid); method: Chromatography
Temperature, K	Activity coefficient of (Z)-2-butene	uncertainty
249.86	2.72	0.19
270.06	2.69	0.18
290	2.67	0.18
309.99	2.62	0.18
330	2.6	0.18

System: pentan-1-ol + (Z)-2-butene; phases: Liquid, Gas
Fixed: Mole fraction of (Z)-2-butene = 0
Property: Henry's Law constant (mole fraction scale), kPa of (Z)-2-butene (Liquid); method: Chromatography
Temperature, K	Henry's Law constant (mole fraction scale), kPa of (Z)-2-butene	uncertainty
249.86	85	3
270.06	202	8
290	411	17
309.99	740	30
330	1230	49

System: pentan-1-ol + chloroethane; phases: Liquid, Gas
Fixed: Mole fraction of chloroethane = 0
Property: Activity coefficient of chloroethane (Liquid); method: Chromatography
Temperature, K	Activity coefficient of chloroethane	uncertainty
249.91	2.62	0.18
270.06	2.49	0.17
290	2.37	0.16
309.99	2.24	0.15
330	2.08	0.14

System: pentan-1-ol + chloroethane; phases: Liquid, Gas
Fixed: Mole fraction of chloroethane = 0
Property: Henry's Law constant (mole fraction scale), kPa of chloroethane (Liquid); method: Chromatography
Temperature, K	Henry's Law constant (mole fraction scale), kPa of chloroethane	uncertainty
249.91	56	2
270.06	134	5
290	274	11
309.99	497	20
330	800	32

System: pentan-1-ol + dimethyl ether; phases: Liquid, Gas
Fixed: Mole fraction of dimethyl ether = 0
Property: Activity coefficient of dimethyl ether (Liquid); method: Chromatography
Temperature, K	Activity coefficient of dimethyl ether	uncertainty
249.91	2.01	0.14
270.06	1.79	0.12
290	1.61	0.11
309.99	1.48	0.1
330	1.34	0.09

System: pentan-1-ol + dimethyl ether; phases: Liquid, Gas
Fixed: Mole fraction of dimethyl ether = 0
Property: Henry's Law constant (mole fraction scale), kPa of dimethyl ether (Liquid); method: Chromatography
Temperature, K	Henry's Law constant (mole fraction scale), kPa of dimethyl ether	uncertainty
249.91	211	8
270.06	401	16
290	680	27
309.99	1050	42
330	1480	59

System: pentan-1-ol + 1,1-difluoroethane; phases: Liquid, Gas
Fixed: Mole fraction of 1,1-difluoroethane = 0
Property: Activity coefficient of 1,1-difluoroethane (Liquid); method: Chromatography
Temperature, K	Activity coefficient of 1,1-difluoroethane	uncertainty
249.93	6.25	0.43
270.06	5.76	0.39
290	5.2	0.35
309.99	4.6	0.31
330	4.05	0.28

System: pentan-1-ol + 1,1-difluoroethane; phases: Liquid, Gas
Fixed: Mole fraction of 1,1-difluoroethane = 0
Property: Henry's Law constant (mole fraction scale), kPa of 1,1-difluoroethane (Liquid); method: Chromatography
Temperature, K	Henry's Law constant (mole fraction scale), kPa of 1,1-difluoroethane	uncertainty
249.93	660	27
270.06	1310	53
290	2230	90
309.99	3350	135
330	4610	185

System: 3-pentanol + (Z)-2-butene; phases: Liquid, Gas
Fixed: Mole fraction of (Z)-2-butene = 0
Property: Activity coefficient of (Z)-2-butene (Liquid); method: Chromatography
Temperature, K	Activity coefficient of (Z)-2-butene	uncertainty
259.93	3.08	0.21
270.02	3.06	0.21
290	2.83	0.19
309.99	2.62	0.18
330.01	2.32	0.16

System: 3-pentanol + (Z)-2-butene; phases: Liquid, Gas
Fixed: Mole fraction of (Z)-2-butene = 0
Property: Henry's Law constant (mole fraction scale), kPa of (Z)-2-butene (Liquid); method: Chromatography
Temperature, K	Henry's Law constant (mole fraction scale), kPa of (Z)-2-butene	uncertainty
259.93	152	6
270.02	230	9
290	437	18
309.99	740	30
330.01	1100	44

System: dimethyl ether + 3-pentanol; phases: Liquid, Gas
Fixed: Mole fraction of dimethyl ether = 0
Property: Activity coefficient of dimethyl ether (Liquid); method: Chromatography
Temperature, K	Activity coefficient of dimethyl ether	uncertainty
259.98	1.32	0.09
270.03	1.25	0.08
290	1.13	0.07
309.99	1.05	0.07
330	1	0.06

System: dimethyl ether + 3-pentanol; phases: Liquid, Gas
Fixed: Mole fraction of dimethyl ether = 0
Property: Henry's Law constant (mole fraction scale), kPa of dimethyl ether (Liquid); method: Chromatography
Temperature, K	Henry's Law constant (mole fraction scale), kPa of dimethyl ether	uncertainty
259.98	206	8
270.03	280	11
290	472	19
309.99	750	30
330	1110	45

System: chloroethane + 3-pentanol; phases: Liquid, Gas
Fixed: Mole fraction of chloroethane = 0
Property: Activity coefficient of chloroethane (Liquid); method: Chromatography
Temperature, K	Activity coefficient of chloroethane	uncertainty
259.98	3.62	0.25
270.03	3.34	0.23
290	2.77	0.19
309.99	2.3	0.16
330	1.93	0.13

System: chloroethane + 3-pentanol; phases: Liquid, Gas
Fixed: Mole fraction of chloroethane = 0
Property: Henry's Law constant (mole fraction scale), kPa of chloroethane (Liquid); method: Chromatography
Temperature, K	Henry's Law constant (mole fraction scale), kPa of chloroethane	uncertainty
259.98	125	5
270.03	179	7
290	321	13
309.99	510	20
330	740	30

System: 1,1-difluoroethane + 3-pentanol; phases: Liquid, Gas
Fixed: Mole fraction of 1,1-difluoroethane = 0
Property: Activity coefficient of 1,1-difluoroethane (Liquid); method: Chromatography
Temperature, K	Activity coefficient of 1,1-difluoroethane	uncertainty
259.98	8.85	0.6
270.03	7.77	0.53
290	5.92	0.4
309.99	4.57	0.31
330	3.62	0.25

System: 1,1-difluoroethane + 3-pentanol; phases: Liquid, Gas
Fixed: Mole fraction of 1,1-difluoroethane = 0
Property: Henry's Law constant (mole fraction scale), kPa of 1,1-difluoroethane (Liquid); method: Chromatography
Temperature, K	Henry's Law constant (mole fraction scale), kPa of 1,1-difluoroethane	uncertainty
259.98	1400	56
270.03	1770	71
290	2540	102
309.99	3320	133
330	4110	165

System: 2-methyl-1-butanol + (Z)-2-butene; phases: Liquid, Gas
Fixed: Mole fraction of (Z)-2-butene = 0
Property: Activity coefficient of (Z)-2-butene (Liquid); method: Chromatography
Temperature, K	Activity coefficient of (Z)-2-butene	uncertainty
249.92	2.83	0.19
270.01	2.84	0.19
289.99	2.8	0.19
309.99	2.71	0.18
330	2.58	0.18

System: 2-methyl-1-butanol + (Z)-2-butene; phases: Liquid, Gas
Fixed: Mole fraction of (Z)-2-butene = 0
Property: Henry's Law constant (mole fraction scale), kPa of (Z)-2-butene (Liquid); method: Chromatography
Temperature, K	Henry's Law constant (mole fraction scale), kPa of (Z)-2-butene	uncertainty
249.92	89	4
270.01	213	9
289.99	432	17
309.99	770	31
330	1220	49

System: dimethyl ether + 2-methyl-1-butanol; phases: Liquid, Gas
Fixed: Mole fraction of dimethyl ether = 0
Property: Activity coefficient of dimethyl ether (Liquid); method: Chromatography
Temperature, K	Activity coefficient of dimethyl ether	uncertainty
249.92	1.87	0.13
270.01	1.65	0.11
289.99	1.46	0.1
309.99	1.32	0.09
330	1.21	0.08

System: dimethyl ether + 2-methyl-1-butanol; phases: Liquid, Gas
Fixed: Mole fraction of dimethyl ether = 0
Property: Henry's Law constant (mole fraction scale), kPa of dimethyl ether (Liquid); method: Chromatography
Temperature, K	Henry's Law constant (mole fraction scale), kPa of dimethyl ether	uncertainty
249.92	196	8
270.01	369	15
289.99	610	25
309.99	940	38
330	1330	53

System: chloroethane + 2-methyl-1-butanol; phases: Liquid, Gas
Fixed: Mole fraction of chloroethane = 0
Property: Activity coefficient of chloroethane (Liquid); method: Chromatography
Temperature, K	Activity coefficient of chloroethane	uncertainty
249.92	3.06	0.21
270.01	2.92	0.2
289.99	2.73	0.19
309.99	2.49	0.17
330	2.25	0.15

System: chloroethane + 2-methyl-1-butanol; phases: Liquid, Gas
Fixed: Mole fraction of chloroethane = 0
Property: Henry's Law constant (mole fraction scale), kPa of chloroethane (Liquid); method: Chromatography
Temperature, K	Henry's Law constant (mole fraction scale), kPa of chloroethane	uncertainty
249.92	65	3
270.01	156	6
289.99	316	13
309.99	550	22
330	870	35

System: 1,1-difluoroethane + 2-methyl-1-butanol; phases: Liquid, Gas
Fixed: Mole fraction of 1,1-difluoroethane = 0
Property: Activity coefficient of 1,1-difluoroethane (Liquid); method: Chromatography
Temperature, K	Activity coefficient of 1,1-difluoroethane	uncertainty
249.92	7.46	0.51
270.01	6.59	0.45
289.99	5.77	0.39
309.99	4.95	0.34
330	4.19	0.29

System: 1,1-difluoroethane + 2-methyl-1-butanol; phases: Liquid, Gas
Fixed: Mole fraction of 1,1-difluoroethane = 0
Property: Henry's Law constant (mole fraction scale), kPa of 1,1-difluoroethane (Liquid); method: Chromatography
Temperature, K	Henry's Law constant (mole fraction scale), kPa of 1,1-difluoroethane	uncertainty
249.92	790	32
270.01	1500	60
289.99	2470	99
309.99	3600	145
330	4760	191

System: 2-methylbutan-2-ol + (Z)-2-butene; phases: Liquid, Gas
Fixed: Mole fraction of (Z)-2-butene = 0
Property: (Relative) activity of (Z)-2-butene (Liquid); method: Chromatography
Temperature, K	(Relative) activity of (Z)-2-butene	uncertainty
269.99	2.47	0.17
289.99	2.32	0.16
309.99	2.22	0.15
330	2.07	0.14

System: 2-methylbutan-2-ol + (Z)-2-butene; phases: Liquid, Gas
Fixed: Mole fraction of (Z)-2-butene = 0
Property: Henry's Law constant (mole fraction scale), kPa of (Z)-2-butene (Liquid); method: Chromatography
Temperature, K	Henry's Law constant (mole fraction scale), kPa of (Z)-2-butene	uncertainty
269.99	185	7
289.99	359	14
309.99	630	25
330	980	39

System: 2-methylbutan-2-ol + dimethyl ether; phases: Liquid, Gas
Fixed: Mole fraction of dimethyl ether = 0
Property: (Relative) activity of dimethyl ether (Liquid); method: Chromatography
Temperature, K	(Relative) activity of dimethyl ether	uncertainty
270	1.05	0.07
289.99	1.03	0.06
309.99	1	0.06
330	0.97	0.06

System: 2-methylbutan-2-ol + dimethyl ether; phases: Liquid, Gas
Fixed: Mole fraction of dimethyl ether = 0
Property: Henry's Law constant (mole fraction scale), kPa of dimethyl ether (Liquid); method: Chromatography
Temperature, K	Henry's Law constant (mole fraction scale), kPa of dimethyl ether	uncertainty
270	235	9
289.99	433	17
309.99	710	29
330	1070	43

System: chloroethane + 2-methylbutan-2-ol; phases: Liquid, Gas
Fixed: Mole fraction of chloroethane = 0
Property: (Relative) activity of chloroethane (Liquid); method: Chromatography
Temperature, K	(Relative) activity of chloroethane	uncertainty
269.99	2.68	0.18
289.99	2.33	0.16
309.99	2.04	0.14
330	1.77	0.12

System: chloroethane + 2-methylbutan-2-ol; phases: Liquid, Gas
Fixed: Mole fraction of chloroethane = 0
Property: Henry's Law constant (mole fraction scale), kPa of chloroethane (Liquid); method: Chromatography
Temperature, K	Henry's Law constant (mole fraction scale), kPa of chloroethane	uncertainty
269.99	144	6
289.99	270	11
309.99	452	18
330	680	27

System: 1,1-difluoroethane + 2-methylbutan-2-ol; phases: Liquid, Gas
Fixed: Mole fraction of 1,1-difluoroethane = 0
Property: (Relative) activity of 1,1-difluoroethane (Liquid); method: Chromatography
Temperature, K	(Relative) activity of 1,1-difluoroethane	uncertainty
270	5.86	0.4
289.99	4.62	0.31
309.99	3.71	0.25
330	3.05	0.21

System: 1,1-difluoroethane + 2-methylbutan-2-ol; phases: Liquid, Gas
Fixed: Mole fraction of 1,1-difluoroethane = 0
Property: Henry's Law constant (mole fraction scale), kPa of 1,1-difluoroethane (Liquid); method: Chromatography
Temperature, K	Henry's Law constant (mole fraction scale), kPa of 1,1-difluoroethane	uncertainty
270	1340	54
289.99	1980	80
309.99	2690	108
330	3470	139

System: 3-methylbutan-1-ol + (Z)-2-butene; phases: Liquid, Gas
Fixed: Mole fraction of (Z)-2-butene = 0
Property: (Relative) activity of (Z)-2-butene (Liquid); method: Chromatography
Temperature, K	(Relative) activity of (Z)-2-butene	uncertainty
249.95	2.71	0.18
270.03	2.71	0.18
290	2.72	0.19
309.99	2.69	0.18
329.99	2.58	0.18

System: 3-methylbutan-1-ol + (Z)-2-butene; phases: Liquid, Gas
Fixed: Mole fraction of (Z)-2-butene = 0
Property: Henry's Law constant (mole fraction scale), kPa of (Z)-2-butene (Liquid); method: Chromatography
Temperature, K	Henry's Law constant (mole fraction scale), kPa of (Z)-2-butene	uncertainty
249.95	85	3
270.03	203	8
290	420	17
309.99	760	31
329.99	1220	49

System: dimethyl ether + 3-methylbutan-1-ol; phases: Liquid, Gas
Fixed: Mole fraction of dimethyl ether = 0
Property: Activity coefficient of dimethyl ether (Liquid); method: Chromatography
Temperature, K	Activity coefficient of dimethyl ether	uncertainty
249.95	1.92	0.13
270.03	1.71	0.11
290	1.56	0.1
309.99	1.43	0.09
329.99	1.31	0.09

System: dimethyl ether + 3-methylbutan-1-ol; phases: Liquid, Gas
Fixed: Mole fraction of dimethyl ether = 0
Property: Henry's Law constant (mole fraction scale), kPa of dimethyl ether (Liquid); method: Chromatography
Temperature, K	Henry's Law constant (mole fraction scale), kPa of dimethyl ether	uncertainty
249.95	202	8
270.03	384	15
290	660	27
309.99	1010	41
329.99	1450	58

System: chloroethane + 3-methylbutan-1-ol; phases: Liquid, Gas
Fixed: Mole fraction of chloroethane = 0
Property: Activity coefficient of chloroethane (Liquid); method: Chromatography
Temperature, K	Activity coefficient of chloroethane	uncertainty
249.91	2.75	0.19
270.01	2.63	0.18
290	2.5	0.17
309.99	2.36	0.16
330	2.17	0.15

System: chloroethane + 3-methylbutan-1-ol; phases: Liquid, Gas
Fixed: Mole fraction of chloroethane = 0
Property: Henry's Law constant (mole fraction scale), kPa of chloroethane (Liquid); method: Chromatography
Temperature, K	Henry's Law constant (mole fraction scale), kPa of chloroethane	uncertainty
249.91	58	2
270.01	141	6
290	290	12
309.99	530	21
330	840	34

System: 1,1-difluoroethane + 3-methylbutan-1-ol; phases: Liquid, Gas
Fixed: Mole fraction of 1,1-difluoroethane = 0
Property: Activity coefficient of 1,1-difluoroethane (Liquid); method: Chromatography
Temperature, K	Activity coefficient of 1,1-difluoroethane	uncertainty
249.95	5.94	0.4
270.03	5.4	0.37
290	4.91	0.33
309.99	4.38	0.3
329.99	3.86	0.26

System: 1,1-difluoroethane + 3-methylbutan-1-ol; phases: Liquid, Gas
Fixed: Mole fraction of 1,1-difluoroethane = 0
Property: Henry's Law constant (mole fraction scale), kPa of 1,1-difluoroethane (Liquid); method: Chromatography
Temperature, K	Henry's Law constant (mole fraction scale), kPa of 1,1-difluoroethane	uncertainty
249.95	630	25
270.03	1230	49
290	2100	84
309.99	3190	128
329.99	4390	176

System: 1,1-difluoroethane + 2-methyl-1-propanol; phases: Liquid, Gas
Fixed: Mole fraction of 1,1-difluoroethane = 0
Property: Activity coefficient of 1,1-difluoroethane (Liquid); method: Chromatography
Temperature, K	Activity coefficient of 1,1-difluoroethane	uncertainty
249.84	6.67	0.45
270.01	6.07	0.41
289.99	5.44	0.37
309.99	4.78	0.33
329.93	4.16	0.28

System: 1,1-difluoroethane + 2-methyl-1-propanol; phases: Liquid, Gas
Fixed: Mole fraction of 1,1-difluoroethane = 0
Property: Henry's Law constant (mole fraction scale), kPa of 1,1-difluoroethane (Liquid); method: Chromatography
Temperature, K	Henry's Law constant (mole fraction scale), kPa of 1,1-difluoroethane	uncertainty
249.84	700	28
270.01	1380	55
289.99	2330	94
309.99	3470	139
329.93	4720	190
