Measured thermophysical data. The influence of the halogen size in the volatility and melting of methyl  p-halobenzoic esters and of their parent acids
Source: J. Chem. Thermodyn., 2013, 10.1016/j.jct.2012.07.027
Compound 1: methyl 4-chlorobenzoate, C8H7ClO2, InChI=1S/C8H7ClO2/c1-11-8(10)6-2-4-7(9)5-3-6/h2-5H,1H3, purity 99.8%
Compound 2: methyl p-iodobenzoate, C8H7IO2, InChI=1S/C8H7IO2/c1-11-8(10)6-2-4-7(9)5-3-6/h2-5H,1H3, purity 98.9%
Compound 3: methyl p-fluorobenzoate, C8H7FO2, InChI=1S/C8H7FO2/c1-11-8(10)6-2-4-7(9)5-3-6/h2-5H,1H3, purity 99.9%
Compound 4: methyl 4-bromobenzoate, C8H7BrO2, InChI=1S/C8H7BrO2/c1-11-8(10)6-2-4-7(9)5-3-6/h2-5H,1H3, purity 99.9%

System: methyl 4-chlorobenzoate; phases: Crystal, Liquid, Air at 1 atmosphere
Property: Normal melting temperature, K (Crystal); method: DTA
Normal melting temperature, K	uncertainty
315.13	0.44

System: methyl 4-chlorobenzoate; phases: Crystal, Liquid, Air at 1 atmosphere
Property: Molar enthalpy of transition or fusion, kJ/mol (Crystal); method: DSC
Molar enthalpy of transition or fusion, kJ/mol	uncertainty
21.3	0.6

System: methyl 4-chlorobenzoate; phases: Crystal, Gas
Property: Vapor or sublimation pressure, kPa (Crystal); method: Closed cell (Static) method
Temperature, K	Vapor or sublimation pressure, kPa	uncertainty
276.44	0.00043	0.0001
278.37	0.00055	0.0001
280.36	0.00071	0.0001
282.35	0.00092	0.0001
284.34	0.00118	0.00011
286.32	0.00148	0.00011
288.29	0.00191	0.00012
290.31	0.00242	0.00014
292.3	0.00308	0.00016
294.26	0.00389	0.00018
296.29	0.00489	0.00022
298.24	0.00611	0.00026
300.23	0.00765	0.00032
302.21	0.00956	0.00039
304.18	0.01181	0.00047
306.12	0.01452	0.00054
308.18	0.01815	0.00059
310.15	0.0222	0.00066
312.09	0.02704	0.00073

System: methyl 4-chlorobenzoate; phases: Liquid, Gas
Property: Vapor or sublimation pressure, kPa (Liquid); method: Closed cell (Static) method
Temperature, K	Vapor or sublimation pressure, kPa	uncertainty
285.3	0.00301	0.00015
287.31	0.00363	0.00017
289.27	0.00436	0.0002
291.28	0.0052	0.00023
293.26	0.00618	0.00026
295.27	0.00739	0.00031
297.26	0.00872	0.00036
299.23	0.01031	0.00042
301.21	0.01212	0.00048
303.18	0.01428	0.00053
305.19	0.01678	0.00057
307.17	0.01959	0.00061
309.12	0.02291	0.00067
311.13	0.02675	0.00073
313.12	0.0311	0.00079
314.62	0.03483	0.00085
316.12	0.03877	0.00091
318.07	0.0448	0.001
318.88	0.04755	0.00105
321.14	0.05585	0.00117
322.9	0.06343	0.00129
324.86	0.07327	0.00144
327.05	0.084	0.00161
329.03	0.0959	0.0018
331	0.1092	0.002
332.98	0.125	0.0022
333.97	0.1325	0.002

System: methyl p-iodobenzoate; phases: Crystal, Liquid, Air at 1 atmosphere
Property: Normal melting temperature, K (Crystal); method: DTA
Normal melting temperature, K	uncertainty
386.67	0.39

System: methyl p-iodobenzoate; phases: Crystal, Liquid, Gas
Property: Vapor or sublimation pressure, kPa (Crystal); method: DSC
Vapor or sublimation pressure, kPa	uncertainty
0.4	0.001

System: methyl p-iodobenzoate; phases: Crystal, Liquid, Air at 1 atmosphere
Property: Molar enthalpy of transition or fusion, kJ/mol (Crystal); method: DSC
Molar enthalpy of transition or fusion, kJ/mol	uncertainty
29.7	0.8

System: methyl p-iodobenzoate; phases: Crystal, Gas
Property: Vapor or sublimation pressure, kPa (Crystal); method: Closed cell (Static) method
Temperature, K	Vapor or sublimation pressure, kPa	uncertainty
313.11	0.00044	0.00011
315.03	0.00054	0.00011
317.12	0.00069	0.00011
319.05	0.00087	0.00011
321.04	0.00108	0.00012
323.04	0.00134	0.00012
325	0.00165	0.00013
326.97	0.00206	0.00014
329	0.00253	0.00015
330.93	0.00315	0.00017
332.89	0.00387	0.00019
334.91	0.00478	0.00022
336.94	0.00583	0.00026
342.8	0.01054	0.00043
346.74	0.01524	0.00055
350.73	0.02236	0.00066
352.75	0.02707	0.00073
356.66	0.03886	0.00091
358.67	0.04652	0.00103
360.6	0.05489	0.00116
362.63	0.06557	0.00133
364.61	0.07801	0.00152
366.58	0.09145	0.00173
368.45	0.1085	0.002
370.54	0.127	0.0023
372.47	0.1479	0.0022
374.46	0.1734	0.0024
376.44	0.2047	0.0027
378.41	0.2394	0.003
380.38	0.2786	0.0033

System: methyl p-iodobenzoate; phases: Liquid, Gas
Property: Vapor or sublimation pressure, kPa (Liquid); method: Closed cell (Static) method
Temperature, K	Vapor or sublimation pressure, kPa	uncertainty
386.32	0.4305	0.0047
388.2	0.4717	0.005
390.26	0.5231	0.0054
391.24	0.5484	0.0057
392.21	0.5758	0.0059
394.18	0.6343	0.0064
396.15	0.698	0.0069
398.14	0.7666	0.0075
400.1	0.8418	0.0082
402.07	0.9228	0.0089
404.04	1.011	0.01
406.02	1.106	0.011

System: methyl p-fluorobenzoate; phases: Crystal, Liquid, Air at 1 atmosphere
Property: Normal melting temperature, K (Crystal); method: DTA
Normal melting temperature, K	uncertainty
273.7	0.39

System: methyl p-fluorobenzoate; phases: Crystal, Liquid, Gas
Property: Vapor or sublimation pressure, kPa (Crystal); method: DSC
Vapor or sublimation pressure, kPa	uncertainty
0.0338	0.0001

System: methyl p-fluorobenzoate; phases: Crystal, Liquid, Air at 1 atmosphere
Property: Molar enthalpy of transition or fusion, kJ/mol (Crystal); method: DSC
Molar enthalpy of transition or fusion, kJ/mol	uncertainty
15.4	0.5

System: methyl p-fluorobenzoate; phases: Liquid, Gas
Property: Vapor or sublimation pressure, kPa (Liquid); method: Closed cell (Static) method
Temperature, K	Vapor or sublimation pressure, kPa	uncertainty
268.58	0.00431	0.00028
270.54	0.00518	0.0003
272.52	0.00628	0.00034
274.49	0.00754	0.00037
276.46	0.00902	0.00041
278.44	0.01071	0.00047
280.4	0.01279	0.00053
281.87	0.01451	0.00056
283.38	0.0165	0.00059
285.35	0.0195	0.00064
287.34	0.02314	0.00069
289.34	0.02719	0.00075
291.34	0.0319	0.00082
293.24	0.03702	0.00089
295.27	0.04353	0.00099
297.28	0.05103	0.00111
299.22	0.05905	0.00123
301.21	0.06815	0.00137
303.17	0.07895	0.00153
305.16	0.09121	0.00172
305.16	0.09107	0.00172
307.18	0.1051	0.0019
309.2	0.1209	0.0022
311.15	0.1388	0.0021
313.16	0.1594	0.0023
315.12	0.1817	0.0025
317.15	0.208	0.0027
319.07	0.2349	0.0029
321.11	0.2685	0.0032
323.09	0.3015	0.0035
325.07	0.3433	0.0039
327.04	0.3848	0.0043
329.03	0.4342	0.0047
331	0.4875	0.0051
332.99	0.549	0.0057
334.97	0.6142	0.0062
336.95	0.6904	0.0069
338.92	0.7681	0.0076
340.9	0.8612	0.0084
340.9	0.8627	0.0084
342.87	0.9546	0.0092
344.85	1.061	0.01

System: methyl 4-bromobenzoate; phases: Crystal, Liquid, Air at 1 atmosphere
Property: Normal melting temperature, K (Crystal); method: DTA
Normal melting temperature, K	uncertainty
351.22	0.42

System: methyl 4-bromobenzoate; phases: Crystal, Liquid, Gas
Property: Vapor or sublimation pressure, kPa (Crystal); method: DSC
Vapor or sublimation pressure, kPa	uncertainty
0.17	0.001

System: methyl 4-bromobenzoate; phases: Crystal, Liquid, Air at 1 atmosphere
Property: Molar enthalpy of transition or fusion, kJ/mol (Crystal); method: DSC
Molar enthalpy of transition or fusion, kJ/mol	uncertainty
25.8	0.7

System: methyl 4-bromobenzoate; phases: Crystal, Gas
Property: Vapor or sublimation pressure, kPa (Crystal); method: Closed cell (Static) method
Temperature, K	Vapor or sublimation pressure, kPa	uncertainty
293.31	0.00042	0.0001
295.32	0.00054	0.0001
297.3	0.00068	0.00011
299.26	0.00087	0.00011
301.24	0.00109	0.00011
303.23	0.00139	0.00012
305.21	0.00173	0.00012
307.22	0.0022	0.00014
309.17	0.00277	0.00015
311.2	0.00345	0.00017
313.13	0.00422	0.0002
315.14	0.00523	0.00023
317.13	0.00651	0.00028
319.04	0.00797	0.00033
321.09	0.00985	0.0004
323.08	0.0121	0.00049
325.13	0.01501	0.00055
327	0.01789	0.00059
329.05	0.02213	0.00066
331.03	0.02686	0.00073
333	0.0324	0.00081
335.03	0.03924	0.00092
336.96	0.04713	0.00104
338.94	0.05664	0.00119
340.91	0.0673	0.00136
342.9	0.0811	0.00157
344.79	0.09642	0.00181
346.85	0.1156	0.0021
348.81	0.1363	0.0021

System: methyl 4-bromobenzoate; phases: Liquid, Gas
Property: Vapor or sublimation pressure, kPa (Liquid); method: Closed cell (Static) method
Temperature, K	Vapor or sublimation pressure, kPa	uncertainty
354.73	0.2096	0.0027
356.68	0.233	0.0029
358.69	0.259	0.0032
360.68	0.2932	0.0034
362.63	0.3282	0.0037
364.63	0.365	0.0041
366.59	0.4053	0.0044
368.56	0.4511	0.0048
370.53	0.5029	0.0053
372.52	0.5539	0.0057
374.48	0.6187	0.0062
376.42	0.6825	0.0068
378.43	0.752	0.0074
