Measured thermophysical data. Low-temperature heat capacity of tetrakis(2,2,6,6-tetramethyl-3,5-heptanedionato)zirconium
Source: J. Chem. Thermodyn., 2017, 10.1016/j.jct.2017.02.026
Compound 1: tetrakis(2,2,6,6-tetramethyl-3,5-heptanedionato)zirconium, C44H76O8Zr, InChI=1S/4C11H19O2.Zr/c4*1-10(2,3)8(12)7-9(13)11(4,5)6;/h4*7H,1-6H3;/q4*-1;+4

System: tetrakis(2,2,6,6-tetramethyl-3,5-heptanedionato)zirconium; phases: Crystal, Liquid, Air at 1 atmosphere
Property: Normal melting temperature, K (Crystal); method: DTA
Normal melting temperature, K	uncertainty
614	1.1

System: tetrakis(2,2,6,6-tetramethyl-3,5-heptanedionato)zirconium; phases: Crystal
Fixed: Pressure, kPa = 100
Property: Molar heat capacity at constant pressure, J/K/mol (Crystal); method: Vacuum adiabatic calorimetry
Temperature, K	Molar heat capacity at constant pressure, J/K/mol	uncertainty
79.59	385.7	2.4
83.96	407.4	1.4
88.69	430.5	1.4
93.77	455.7	1.4
98.55	478.7	1.5
103.1	500.9	1.6
108	524.2	1.7
113.13	548.5	1.7
118.08	570.7	1.8
122.86	591.5	1.9
127.62	612.2	1.9
132.82	633.6	2
138.33	655.9	2.1
143.69	677.2	2.1
148.89	698	2.2
153.98	717	2.2
158.96	734.4	2.3
163.84	752.7	2.4
168.63	770.3	2.4
173.33	786.7	2.5
178.34	803.9	2.5
183.65	823.4	2.6
188.87	839.9	2.6
194.01	856.7	2.7
199.11	874.4	2.7
204.12	891.2	2.8
209.07	907.3	2.8
213.96	923.1	2.9
218.82	938.7	2.9
223.6	952.9	3
228.32	967.3	3
232.99	982.3	3.1
237.62	996.5	3.1
242.21	1010	3.1
246.75	1025	3.2
251.56	1041.7	3.2
256.63	1057.3	3.3
261.64	1074	3.3
266.61	1090.1	3.4
271.52	1105.5	3.4
276.39	1121.4	3.5
281.23	1137.9	3.5
285.98	1154.2	3.6
290.95	1171.1	3.6
296.18	1189.1	3.7
301.38	1206.5	3.8
306.51	1224.1	3.8
9.66	21.66	0.63
10.79	28.01	0.81
11.58	31.75	0.91
12.92	39.51	1.13
14.67	49.62	1.42
16.36	59.34	1.69
18.67	73.49	2.09
21.21	89.03	0.65
23.54	103.1	0.7
25.99	117.1	0.8
28.94	133.9	0.9
32.65	154.2	1
36.63	175	1.1
40.62	194.5	1.2
44.77	215	1.3
49.07	235.6	1.5
53.76	258.3	1.6
58.64	282.4	1.8
62.91	303.3	1.9
67.1	323.7	2
71.37	344.9	2.1
75.66	365.8	2.3
79.89	386.9	2.4
83.85	406.7	1.4

System: tetrakis(2,2,6,6-tetramethyl-3,5-heptanedionato)zirconium; phases: Crystal
Fixed: Pressure, kPa = 100
Property: Molar heat capacity at constant pressure, J/K/mol (Crystal); method: Vacuum adiabatic calorimetry
Temperature, K	Molar heat capacity at constant pressure, J/K/mol	uncertainty
5	3.004	0.12
10	23.24	0.67
15	51.37	1.46
20	81.63	0.6
25	111.4	0.8
30	139.8	0.9
35	166.5	1
40	191.7	1.2
45	216	1.3
50	240.2	1.5
55	264.5	1.6
60	288.9	1.8
65	313.5	1.9
70	338	2.1
80	387.5	1.3
90	437.1	1.4
100	485.9	1.5
110	533.8	1.7
120	579.2	1.8
130	622	2
140	662.8	2.1
150	701.9	2.2
160	738.9	2.3
170	774.7	2.4
180	810.1	2.5
190	843.9	2.6
200	877.1	2.7
210	910.5	2.8
220	941.9	2.9
230	972.9	3
240	1003.6	3.1
250	1035.7	3.2
260	1068.7	3.3
270	1100.8	3.4
280	1133.7	3.5
290	1167.7	3.6
298.15	1195.7	3.7
300	1202	3.7
306	1222.6	3.8

System: tetrakis(2,2,6,6-tetramethyl-3,5-heptanedionato)zirconium; phases: Crystal
Fixed: Pressure, kPa = 100
Property: Molar entropy, J/K/mol (Crystal); method: Vacuum adiabatic calorimetry
Temperature, K	Molar entropy, J/K/mol	uncertainty
5	1.018	0.055
10	8.01	0.348
15	22.71	0.97
20	41.6	0.46
25	63.04	0.65
30	85.89	0.81
35	109.5	1
40	133.4	1.2
45	157.3	1.5
50	181.3	1.7
55	205.4	1.9
60	229.4	2.1
65	253.5	2.4
70	277.7	2.6
80	326	1.6
90	374.5	1.8
100	423.1	2
110	471.7	2.2
120	520.1	2.5
130	568.2	2.7
140	615.8	2.9
150	662.8	3.1
160	709.3	3.3
170	755.2	3.5
180	800.5	3.8
190	845.2	4
200	889.3	4.2
210	932.9	4.4
220	976	4.6
230	1019	5
240	1061	5
250	1102	5
260	1144	5
270	1184	6
280	1225	6
290	1265	6
298.15	1298	6
300	1306	6
306	1330	6

System: tetrakis(2,2,6,6-tetramethyl-3,5-heptanedionato)zirconium; phases: Crystal
Fixed: Pressure, kPa = 100
Property: Molar enthalpy, kJ/mol (Crystal); method: Vacuum adiabatic calorimetry
Temperature, K	Molar enthalpy, kJ/mol	uncertainty
5	0.003901	0.000258
10	0.0603	0.0018
15	0.2465	0.0071
20	0.5784	0.0045
25	1.062	0.008
30	1.69	0.011
35	2.457	0.016
40	3.353	0.021
45	4.372	0.028
50	5.512	0.035
55	6.774	0.042
60	8.158	0.051
65	9.664	0.06
70	11.29	0.07
80	14.92	0.051
90	19.04	0.063
100	23.66	0.078
110	28.76	0.094
120	34.33	0.112
130	40.33	0.13
140	46.76	0.15
150	53.58	0.172
160	60.79	0.194
170	68.36	0.218
180	76.28	0.243
190	84.55	0.269
200	93.16	0.295
210	102.1	0.323
220	111.4	0.352
230	120.9	0.382
240	130.8	0.413
250	141	0.445
260	151.5	0.477
270	162.4	0.511
280	173.6	0.546
290	185.1	0.582
298.15	194.7	0.612
300	196.9	0.618
306	204.2	0.641
