Measured thermophysical data. Thermochemical behaviour of crown ethers in the mixtures of water with organic solvents. Part IX. Effect of base acid properties of {(1 x)AN + xH2O} on the solution enthalpy of cyclic ethers in this mixed solvent at T = 298.15 K
Source: J. Chem. Thermodyn., 2009, 10.1016/j.jct.2008.11.002
Compound 1: 1,4-dioxane, C4H8O2, InChI=1S/C4H8O2/c1-2-6-4-3-5-1/h1-4H2
Compound 2: water, H2O, InChI=1S/H2O/h1H2
Compound 3: 1,4,7,10-tetraoxacyclododecane, C8H16O4, InChI=1S/C8H16O4/c1-2-10-5-6-12-8-7-11-4-3-9-1/h1-8H2
Compound 4: 1,4,7,10,13,16-hexaoxacyclooctadecane, C12H24O6, InChI=1S/C12H24O6/c1-2-14-5-6-16-9-10-18-12-11-17-8-7-15-4-3-13-1/h1-12H2
Compound 5: acetonitrile, C2H3N, InChI=1S/C2H3N/c1-2-3/h1H3

System: acetonitrile + 1,4-dioxane + water; phases: Liquid
Fixed: Temperature, K = 298.15
Fixed: Pressure, kPa = 101
Property: Molar enthalpy of solution, kJ/mol (Liquid); method: ISOPERIBOL
Solvent: Mole fraction of water	Molality, mol/kg of 1,4-dioxane	Molar enthalpy of solution, kJ/mol	uncertainty
0	0.031	-0.11	0.02
0.1	0.03	-0.6	0.02
0.2	0.038	-1	0.02
0.3	0.025	-1.29	0.04
0.4	0.02	-1.61	0.04
0.5	0.021	-1.94	0.04
0.6	0.028	-2.44	0.06
0.7	0.027	-3	0.08
0.8	0.024	-3.77	0.05
0.9	0.023	-4.64	0.07
0.92	0.021	-4.96	0.09
0.94	0.019	-5.47	0.07
0.96	0.019	-6.32	0.08
0.98	0.017	-7.69	0.07
1	0.011	-9.7	0.11

System: acetonitrile + 1,4,7,10-tetraoxacyclododecane + water; phases: Liquid
Fixed: Temperature, K = 298.15
Fixed: Pressure, kPa = 101
Property: Molar enthalpy of solution, kJ/mol (Liquid); method: ISOPERIBOL
Molality, mol/kg of 1,4,7,10-tetraoxacyclododecane	Solvent: Mole fraction of water	Molar enthalpy of solution, kJ/mol	uncertainty
0	0.0076	-3.54	0.05
0.1	0.0086	-6.24	0.07
0.2	0.0082	-8.05	0.1
0.3	0.0077	-9.52	0.09
0.4	0.0067	-11	0.13
0.5	0.0058	-11.94	0.12
0.6	0.005	-13.2	0.11
0.7	0.0053	-14.85	0.12
0.8	0.0053	-16.92	0.13
0.9	0.0039	-19.6	0.16
0.92	0.0042	-20.5	0.16
0.94	0.0049	-22.05	0.17
0.96	0.0051	-23.85	0.18
0.98	0.0051	-26.49	0.21
1	0.0047	-28.98	0.22

System: acetonitrile + water + 1,4,7,10,13,16-hexaoxacyclooctadecane; phases: Liquid
Fixed: Temperature, K = 298.15
Fixed: Pressure, kPa = 101
Property: Molar enthalpy of solution, kJ/mol (Liquid); method: ISOPERIBOL
Molality, mol/kg of 1,4,7,10,13,16-hexaoxacyclooctadecane	Solvent: Mole fraction of water	Molar enthalpy of solution, kJ/mol	uncertainty
0	0.0054	-5.91	0.06
0.1	0.0043	-3.9	0.05
0.2	0.0035	-2.7	0.03
0.3	0.003	-2.1	0.03
0.4	0.0048	-1.85	0.02
0.5	0.0072	-2.02	0.03
0.6	0.0073	-2.65	0.03
0.7	0.0045	-3.03	0.05
0.8	0.0056	-5.42	0.06
0.9	0.0034	-8.2	0.08
0.92	0.0061	-9.27	0.09
0.94	0.0063	-10.69	0.11
0.96	0.0059	-13.2	0.12
0.98	0.0053	-16.4	0.13
1	0.0048	-21.41	0.17
