Measured thermophysical data. Ternary (liquid + liquid) equilibria for mixtures of (methanol + aniline + n-octane or n-dodecane) at T = 298.15 K
Source: J. Chem. Thermodyn., 2008, 10.1016/j.jct.2007.05.018
Compound 1: methanol, CH4O, InChI=1S/CH4O/c1-2/h2H,1H3, purity 99%
Compound 2: aniline, C6H7N, InChI=1S/C6H7N/c7-6-4-2-1-3-5-6/h1-5H,7H2, purity 99%
Compound 3: octane, C8H18, InChI=1S/C8H18/c1-3-5-7-8-6-4-2/h3-8H2,1-2H3, purity 99%
Compound 4: dodecane, C12H26, InChI=1S/C12H26/c1-3-5-7-9-11-12-10-8-6-4-2/h3-12H2,1-2H3, purity 99%

System: aniline + methanol + dodecane; phases: Liquid mixture 1, Liquid mixture 2
Fixed: Pressure, kPa = 101
Fixed: Temperature, K = 298.15
Property: Mole fraction of aniline (Liquid mixture 1); method: Chromatography
Property: Mole fraction of methanol (Liquid mixture 2); method: Chromatography
Property: Mole fraction of aniline (Liquid mixture 2); method: Chromatography
Mole fraction of methanol	Mole fraction of aniline	uncertainty	Mole fraction of methanol	uncertainty	Mole fraction of aniline	uncertainty
0.8403	0.1195	0.0306	0.2919	0.0208	0.0101	
0.8152	0.1485	0.0296	0.3048	0.0213	0.0232	
0.7988	0.1653	0.0297	0.2758	0.0201	0.0402	
0.7753	0.1907	0.0282	0.2936	0.0209	0.0556	
0.7161	0.2451	0.0266	0.2905	0.0202	0.0991	
0.7398	0.2242	0.0272	0.2886	0.0201	0.0813	
0.6942	0.264	0.0246	0.2926	0.0202	0.1158	
0.6542	0.2896	0.0238	0.3027	0.0212	0.1352	

System: aniline + methanol + octane; phases: Liquid mixture 1, Liquid mixture 2
Fixed: Pressure, kPa = 101
Fixed: Temperature, K = 298.15
Property: Mole fraction of aniline (Liquid mixture 1); method: Chromatography
Property: Mole fraction of methanol (Liquid mixture 2); method: Chromatography
Property: Mole fraction of aniline (Liquid mixture 2); method: Chromatography
Mole fraction of methanol	Mole fraction of aniline	uncertainty	Mole fraction of methanol	uncertainty	Mole fraction of aniline	uncertainty
0.7083	0.2405	0.0246	0.2059	0.0207	0.1	
0.6839	0.2543	0.0243	0.2015	0.0202	0.1185	
0.8078	0.162	0.0243	0.2217	0.022	0.0433	
0.7558	0.1978	0.0251	0.2119	0.0209	0.0651	
0.7339	0.2189	0.0269	0.2088	0.0204	0.0862	
0.6631	0.2714	0.0252	0.1931	0.0201	0.138	
0.6395	0.288	0.023	0.2006	0.0201	0.1522	
0.6118	0.3001	0.0219	0.2056	0.0219	0.1667	
