Measured thermophysical data. Activity coefficients at infinite dilution of organic solutes in the ionic liquid, methyl(trioctyl)ammonium thiosalicylate, [N1888][TS] by gas liquid chromatography at T = (303.15, 313.15, and 323.15) K
Source: J. Chem. Thermodyn., 2011, 10.1016/j.jct.2010.12.020
Compound 1: 1-pentene, C5H10, InChI=1S/C5H10/c1-3-5-4-2/h3H,1,4-5H2,2H3, purity 98%
Compound 2: hex-1-ene, C6H12, InChI=1S/C6H12/c1-3-5-6-4-2/h3H,1,4-6H2,2H3, purity 98%
Compound 3: oct-1-ene, C8H16, InChI=1S/C8H16/c1-3-5-7-8-6-4-2/h3H,1,4-8H2,2H3, purity 98%
Compound 4: 1-pentyne, C5H8, InChI=1S/C5H8/c1-3-5-4-2/h1H,4-5H2,2H3, purity 98%
Compound 5: 1-hexyne, C6H10, InChI=1S/C6H10/c1-3-5-6-4-2/h1H,4-6H2,2H3, purity 98%
Compound 6: 1-octyne, C8H14, InChI=1S/C8H14/c1-3-5-7-8-6-4-2/h1H,4-8H2,2H3, purity 98%
Compound 7: cyclopentane, C5H10, InChI=1S/C5H10/c1-2-4-5-3-1/h1-5H2, purity 98%
Compound 8: cyclohexane, C6H12, InChI=1S/C6H12/c1-2-4-6-5-3-1/h1-6H2, purity 98%
Compound 9: cycloheptane, C7H14, InChI=1S/C7H14/c1-2-4-6-7-5-3-1/h1-7H2, purity 98%
Compound 10: cyclooctane, C8H16, InChI=1S/C8H16/c1-2-4-6-8-7-5-3-1/h1-8H2, purity 98%
Compound 11: benzene, C6H6, InChI=1S/C6H6/c1-2-4-6-5-3-1/h1-6H, purity 98%
Compound 12: toluene, C7H8, InChI=1S/C7H8/c1-7-5-3-2-4-6-7/h2-6H,1H3, purity 98%
Compound 13: acetone, C3H6O, InChI=1S/C3H6O/c1-3(2)4/h1-2H3, purity 98%
Compound 14: butanone, C4H8O, InChI=1S/C4H8O/c1-3-4(2)5/h3H2,1-2H3, purity 98%
Compound 15: methyl(trioctyl)ammonium thiosalicylate, C32H59NO2S, InChI=1S/C25H54N.C7H6O2S/c1-5-8-11-14-17-20-23-26(4,24-21-18-15-12-9-6-2)25-22-19-16-13-10-7-3;8-7(9)5-3-1-2-4-6(5)10/h5-25H2,1-4H3;1-4,10H,(H,8,9)/q+1;/p-1, purity 98%
Compound 16: pentane, C5H12, InChI=1S/C5H12/c1-3-5-4-2/h3-5H2,1-2H3, purity 98%
Compound 17: hexane, C6H14, InChI=1S/C6H14/c1-3-5-6-4-2/h3-6H2,1-2H3, purity 98%
Compound 18: heptane, C7H16, InChI=1S/C7H16/c1-3-5-7-6-4-2/h3-7H2,1-2H3, purity 98%
Compound 19: octane, C8H18, InChI=1S/C8H18/c1-3-5-7-8-6-4-2/h3-8H2,1-2H3, purity 98%
Compound 20: nonane, C9H20, InChI=1S/C9H20/c1-3-5-7-9-8-6-4-2/h3-9H2,1-2H3, purity 98%

System: pentane + methyl(trioctyl)ammonium thiosalicylate; phases: Liquid
Fixed: Pressure, kPa = 101
Fixed: Mole fraction of pentane = 0
Property: Activity coefficient of pentane (Liquid); method: Chromatography
Temperature, K	Activity coefficient of pentane	uncertainty
303.15	1.81	0.22
303.15	1.81	0.22
313.15	1.75	0.22
313.15	1.75	0.22
323.15	1.7	0.21
323.15	1.65	0.2

System: hexane + methyl(trioctyl)ammonium thiosalicylate; phases: Liquid
Fixed: Pressure, kPa = 101
Fixed: Mole fraction of hexane = 0
Property: Activity coefficient of hexane (Liquid); method: Chromatography
Temperature, K	Activity coefficient of hexane	uncertainty
303.15	2.07	0.26
303.15	2.07	0.26
313.15	1.98	0.25
313.15	1.96	0.24
323.15	1.92	0.24
323.15	1.87	0.23

System: heptane + methyl(trioctyl)ammonium thiosalicylate; phases: Liquid
Fixed: Pressure, kPa = 101
Fixed: Mole fraction of heptane = 0
Property: Activity coefficient of heptane (Liquid); method: Chromatography
Temperature, K	Activity coefficient of heptane	uncertainty
303.15	2.37	0.29
303.15	2.28	0.28
313.15	2.29	0.28
313.15	2.22	0.28
323.15	2.21	0.27
323.15	2.15	0.27

System: octane + methyl(trioctyl)ammonium thiosalicylate; phases: Liquid
Fixed: Pressure, kPa = 101
Fixed: Mole fraction of octane = 0
Property: Activity coefficient of octane (Liquid); method: Chromatography
Temperature, K	Activity coefficient of octane	uncertainty
303.15	2.77	0.34
303.15	2.72	0.34
313.15	2.68	0.33
313.15	2.61	0.32
323.15	2.55	0.32
323.15	2.47	0.31

System: nonane + methyl(trioctyl)ammonium thiosalicylate; phases: Liquid
Fixed: Pressure, kPa = 101
Fixed: Mole fraction of nonane = 0
Property: Activity coefficient of nonane (Liquid); method: Chromatography
Temperature, K	Activity coefficient of nonane	uncertainty
303.15	3.21	0.4
303.15	3.11	0.39
313.15	3.07	0.38
313.15	3.03	0.38
323.15	2.98	0.37
323.15	2.88	0.36

System: 1-pentene + methyl(trioctyl)ammonium thiosalicylate; phases: Liquid
Fixed: Pressure, kPa = 101
Fixed: Mole fraction of 1-pentene = 0
Property: Activity coefficient of 1-pentene (Liquid); method: Chromatography
Temperature, K	Activity coefficient of 1-pentene	uncertainty
303.15	1.39	0.17
303.15	1.4	0.17
313.15	1.36	0.17
313.15	1.36	0.17
323.15	1.33	0.16
323.15	1.28	0.16

System: hex-1-ene + methyl(trioctyl)ammonium thiosalicylate; phases: Liquid
Fixed: Pressure, kPa = 101
Fixed: Mole fraction of hex-1-ene = 0
Property: Activity coefficient of hex-1-ene (Liquid); method: Chromatography
Temperature, K	Activity coefficient of hex-1-ene	uncertainty
303.15	1.57	0.19
303.15	1.55	0.19
313.15	1.53	0.19
313.15	1.51	0.19
323.15	1.51	0.19
323.15	1.46	0.18

System: oct-1-ene + methyl(trioctyl)ammonium thiosalicylate; phases: Liquid
Fixed: Pressure, kPa = 101
Fixed: Mole fraction of oct-1-ene = 0
Property: Activity coefficient of oct-1-ene (Liquid); method: Chromatography
Temperature, K	Activity coefficient of oct-1-ene	uncertainty
303.15	2.09	0.26
303.15	2.06	0.26
313.15	2.06	0.26
313.15	2.02	0.25
323.15	2	0.25
323.15	1.93	0.24

System: 1-pentyne + methyl(trioctyl)ammonium thiosalicylate; phases: Liquid
Fixed: Pressure, kPa = 101
Fixed: Mole fraction of 1-pentyne = 0
Property: Activity coefficient of 1-pentyne (Liquid); method: Chromatography
Temperature, K	Activity coefficient of 1-pentyne	uncertainty
303.15	0.63	0.08
303.15	0.63	0.08
313.15	0.65	0.08
313.15	0.65	0.08
323.15	0.67	0.08
323.15	0.67	0.08

System: 1-hexyne + methyl(trioctyl)ammonium thiosalicylate; phases: Liquid
Fixed: Pressure, kPa = 101
Fixed: Mole fraction of 1-hexyne = 0
Property: Activity coefficient of 1-hexyne (Liquid); method: Chromatography
Temperature, K	Activity coefficient of 1-hexyne	uncertainty
303.15	0.7	0.09
303.15	0.69	0.09
313.15	0.72	0.09
313.15	0.72	0.09
323.15	0.75	0.09
323.15	0.75	0.09

System: 1-octyne + methyl(trioctyl)ammonium thiosalicylate; phases: Liquid
Fixed: Pressure, kPa = 101
Fixed: Mole fraction of 1-octyne = 0
Property: Activity coefficient of 1-octyne (Liquid); method: Chromatography
Temperature, K	Activity coefficient of 1-octyne	uncertainty
303.15	0.88	0.11
303.15	0.84	0.1
313.15	0.92	0.11
313.15	0.9	0.11
323.15	0.94	0.11
323.15	0.94	0.11

System: cyclopentane + methyl(trioctyl)ammonium thiosalicylate; phases: Liquid
Fixed: Pressure, kPa = 101
Fixed: Mole fraction of cyclopentane = 0
Property: Activity coefficient of cyclopentane (Liquid); method: Chromatography
Temperature, K	Activity coefficient of cyclopentane	uncertainty
303.15	1.1	0.13
303.15	1.08	0.13
313.15	1.07	0.13
313.15	1.05	0.13
323.15	1.04	0.13
323.15	1	0.12

System: cyclohexane + methyl(trioctyl)ammonium thiosalicylate; phases: Liquid
Fixed: Pressure, kPa = 101
Fixed: Mole fraction of cyclohexane = 0
Property: Activity coefficient of cyclohexane (Liquid); method: Chromatography
Temperature, K	Activity coefficient of cyclohexane	uncertainty
303.15	1.34	0.16
303.15	1.32	0.16
313.15	1.28	0.16
313.15	1.26	0.15
323.15	1.23	0.15
323.15	1.19	0.15

System: cycloheptane + methyl(trioctyl)ammonium thiosalicylate; phases: Liquid
Fixed: Pressure, kPa = 101
Fixed: Mole fraction of cycloheptane = 0
Property: Activity coefficient of cycloheptane (Liquid); method: Chromatography
Temperature, K	Activity coefficient of cycloheptane	uncertainty
303.15	1.42	0.17
303.15	1.4	0.17
313.15	1.36	0.17
313.15	1.32	0.16
323.15	1.31	0.16
323.15	1.25	0.15

System: cyclooctane + methyl(trioctyl)ammonium thiosalicylate; phases: Liquid
Fixed: Pressure, kPa = 101
Fixed: Mole fraction of cyclooctane = 0
Property: Activity coefficient of cyclooctane (Liquid); method: Chromatography
Temperature, K	Activity coefficient of cyclooctane	uncertainty
303.15	1.57	0.19
303.15	1.57	0.19
313.15	1.5	0.18
313.15	1.45	0.18
323.15	1.44	0.18
323.15	1.37	0.17

System: benzene + methyl(trioctyl)ammonium thiosalicylate; phases: Liquid
Fixed: Pressure, kPa = 101
Fixed: Mole fraction of benzene = 0
Property: Activity coefficient of benzene (Liquid); method: Chromatography
Temperature, K	Activity coefficient of benzene	uncertainty
303.15	0.51	0.07
303.15	0.48	0.06
313.15	0.5	0.06
313.15	0.48	0.06
323.15	0.5	0.06
323.15	0.47	0.06

System: toluene + methyl(trioctyl)ammonium thiosalicylate; phases: Liquid
Fixed: Pressure, kPa = 101
Fixed: Mole fraction of toluene = 0
Property: Activity coefficient of toluene (Liquid); method: Chromatography
Temperature, K	Activity coefficient of toluene	uncertainty
303.15	0.62	0.08
303.15	0.59	0.07
313.15	0.62	0.08
313.15	0.59	0.07
323.15	0.62	0.08
323.15	0.58	0.07

System: acetone + methyl(trioctyl)ammonium thiosalicylate; phases: Liquid
Fixed: Pressure, kPa = 101
Fixed: Mole fraction of acetone = 0
Property: Activity coefficient of acetone (Liquid); method: Chromatography
Temperature, K	Activity coefficient of acetone	uncertainty
303.15	0.69	0.09
303.15	0.65	0.08
313.15	0.66	0.08
313.15	0.63	0.08
323.15	0.64	0.08
323.15	0.61	0.08

System: butanone + methyl(trioctyl)ammonium thiosalicylate; phases: Liquid
Fixed: Pressure, kPa = 101
Fixed: Mole fraction of butanone = 0
Property: Activity coefficient of butanone (Liquid); method: Chromatography
Temperature, K	Activity coefficient of butanone	uncertainty
303.15	0.66	0.08
303.15	0.62	0.08
313.15	0.64	0.08
313.15	0.61	0.08
323.15	0.62	0.08
323.15	0.59	0.07
