Measured thermophysical data. Phase equilibria for ternary liquid systems of (water + tetrahydrofuran + nonprotic aromatic solvent) at T = 298.2 K
Source: J. Chem. Thermodyn., 2006, 10.1016/j.jct.2005.07.010
Compound 1: chlorobenzene, C6H5Cl, InChI=1S/C6H5Cl/c7-6-4-2-1-3-5-6/h1-5H
Compound 2: water, H2O, InChI=1S/H2O/h1H2
Compound 3: dibenzyl ether, C14H14O, InChI=1S/C14H14O/c1-3-7-13(8-4-1)11-15-12-14-9-5-2-6-10-14/h1-10H,11-12H2
Compound 4: tetrahydrofuran, C4H8O, InChI=1S/C4H8O/c1-2-4-5-3-1/h1-4H2

System: chlorobenzene + water; phases: Liquid mixture 1, Liquid mixture 2
Property: Mass fraction of water (Liquid mixture 1); method: TITR:UFactor:2
Pressure, kPa	Temperature, K	Mass fraction of water	uncertainty
101.33	298.2	0.9992	0.0008

System: chlorobenzene + water; phases: Liquid mixture 2, Liquid mixture 1
Property: Mass fraction of water (Liquid mixture 2); method: TITR:UFactor:8
Pressure, kPa	Temperature, K	Mass fraction of water	uncertainty
101.33	298.2	0.0025	0.0021

System: dibenzyl ether + water; phases: Liquid mixture 1, Liquid mixture 2
Property: Mass fraction of water (Liquid mixture 1); method: TITR:UFactor:2
Pressure, kPa	Temperature, K	Mass fraction of water	uncertainty
101.33	298.2	0.9966	0.002

System: dibenzyl ether + water; phases: Liquid mixture 2, Liquid mixture 1
Property: Mass fraction of water (Liquid mixture 2); method: TITR:UFactor:2
Pressure, kPa	Temperature, K	Mass fraction of water	uncertainty
101.33	298.2	0.0126	0.0021

System: chlorobenzene + tetrahydrofuran + water; phases: Liquid mixture 2, Liquid mixture 1
Fixed: Temperature, K = 298.2
Fixed: Pressure, kPa = 101
Property: Mass fraction of water (Liquid mixture 2); method: TITR:UFactor:2
Property: Mass fraction of tetrahydrofuran (Liquid mixture 1); method: TITR:UFactor:2
Property: Mass fraction of water (Liquid mixture 1); method: TITR:UFactor:2
Mass fraction of tetrahydrofuran	Mass fraction of water	uncertainty	Mass fraction of tetrahydrofuran	uncertainty	Mass fraction of water	uncertainty
0	0.0025	0.0002	0		0.9992	
0.0701	0.0096	0.0008	0.1204	0.0096	0.8751	
0.1776	0.0146	0.0012	0.2678	0.0214	0.7217	
0.2733	0.0298	0.0024	0.379	0.0303	0.5964	
0.3964	0.0405	0.0032	0.5081	0.0394	0.4497	
0.5299	0.0823	0.0066	0.6205	0.0304	0.3085	

System: dibenzyl ether + tetrahydrofuran + water; phases: Liquid mixture 2, Liquid mixture 1
Fixed: Temperature, K = 298.2
Fixed: Pressure, kPa = 101
Property: Mass fraction of water (Liquid mixture 2); method: TITR:UFactor:2
Property: Mass fraction of tetrahydrofuran (Liquid mixture 1); method: TITR:UFactor:2
Property: Mass fraction of water (Liquid mixture 1); method: TITR:UFactor:2
Mass fraction of tetrahydrofuran	Mass fraction of water	uncertainty	Mass fraction of tetrahydrofuran	uncertainty	Mass fraction of water	uncertainty
0	0.0126	0.001	0		0.9966	
0.097	0.012	0.001	0.111	0.0089	0.882	
0.1852	0.014	0.0011	0.2462	0.0197	0.7434	
0.2495	0.015	0.0012	0.382	0.0306	0.601	
0.3028	0.0165	0.0013	0.56	0.0352	0.4095	
0.3578	0.018	0.0014	0.6976	0.0242	0.26	
