Measured thermophysical data. Solubility modelling and dissolution properties of 5-phenyltetrazole in thirteen mono-solvents and liquid mixtures of (methanol + ethyl acetate) at elevated temperatures
Source: J. Chem. Thermodyn., 2017, 10.1016/j.jct.2017.04.019
Compound 1: 5-phenyltetrazole, C7H6N4, InChI=1S/C7H6N4/c1-2-4-6(5-3-1)7-8-10-11-9-7/h1-5H,(H,8,9,10,11), purity 98.4%
Compound 2: methanol, CH4O, InChI=1S/CH4O/c1-2/h2H,1H3, purity 99.4%
Compound 3: ethanol, C2H6O, InChI=1S/C2H6O/c1-2-3/h3H,2H2,1H3, purity 99.4%
Compound 4: propan-1-ol, C3H8O, InChI=1S/C3H8O/c1-2-3-4/h4H,2-3H2,1H3, purity 99.3%
Compound 5: propan-2-ol, C3H8O, InChI=1S/C3H8O/c1-3(2)4/h3-4H,1-2H3, purity 99.5%
Compound 6: acetone, C3H6O, InChI=1S/C3H6O/c1-3(2)4/h1-2H3, purity 99.7%
Compound 7: butanone, C4H8O, InChI=1S/C4H8O/c1-3-4(2)5/h3H2,1-2H3, purity 99.5%
Compound 8: acetonitrile, C2H3N, InChI=1S/C2H3N/c1-2-3/h1H3, purity 99.4%
Compound 9: ethyl acetate, C4H8O2, InChI=1S/C4H8O2/c1-3-6-4(2)5/h3H2,1-2H3, purity 99.3%
Compound 10: toluene, C7H8, InChI=1S/C7H8/c1-7-5-3-2-4-6-7/h2-6H,1H3, purity 99.5%
Compound 11: 1,4-dioxane, C4H8O2, InChI=1S/C4H8O2/c1-2-6-4-3-5-1/h1-4H2, purity 99.5%
Compound 12: cyclohexane, C6H12, InChI=1S/C6H12/c1-2-4-6-5-3-1/h1-6H2, purity 99.4%
Compound 13: dimethylformamide, C3H7NO, InChI=1S/C3H7NO/c1-4(2)3-5/h3H,1-2H3, purity 99.3%
Compound 14: dimethyl sulfoxide, C2H6OS, InChI=1S/C2H6OS/c1-4(2)3/h1-2H3, purity 99.3%

System: methanol + 5-phenyltetrazole; phases: Liquid, Crystal
Fixed: Pressure, kPa = 101.2
Property: Mole fraction of 5-phenyltetrazole (Liquid); method: Chromatography
Temperature, K	Mole fraction of 5-phenyltetrazole	uncertainty
283.15	0.01557	0.001
285.65	0.01637	0.00105
288.15	0.0172	0.0011
290.65	0.01801	0.00115
293.15	0.01894	0.00121
295.65	0.01993	0.00128
298.15	0.02087	0.00134
300.65	0.02185	0.0014
303.15	0.02295	0.00147
305.65	0.02403	0.00154
308.15	0.02517	0.00161
310.65	0.02639	0.00169
313.15	0.02757	0.00177
315.65	0.02887	0.00185
318.15	0.03019	0.00193

System: ethanol + 5-phenyltetrazole; phases: Liquid, Crystal
Fixed: Pressure, kPa = 101.2
Property: Mole fraction of 5-phenyltetrazole (Liquid); method: Chromatography
Temperature, K	Mole fraction of 5-phenyltetrazole	uncertainty
283.15	0.01481	0.00095
285.65	0.01562	0.001
288.15	0.0164	0.00105
290.65	0.01723	0.0011
293.15	0.0181	0.00116
295.65	0.01898	0.00122
298.15	0.01998	0.00128
300.65	0.02095	0.00134
303.15	0.02196	0.00141
305.65	0.02299	0.00147
308.15	0.02407	0.00154
310.65	0.02526	0.00162
313.15	0.02643	0.00169
315.65	0.02766	0.00177
318.15	0.02894	0.00185

System: propan-1-ol + 5-phenyltetrazole; phases: Liquid, Crystal
Fixed: Pressure, kPa = 101.2
Property: Mole fraction of 5-phenyltetrazole (Liquid); method: Chromatography
Temperature, K	Mole fraction of 5-phenyltetrazole	uncertainty
283.15	0.01362	0.00087
285.65	0.01417	0.00091
288.15	0.01477	0.00095
290.65	0.0154	0.00099
293.15	0.01601	0.00103
295.65	0.01668	0.00107
298.15	0.01739	0.00111
300.65	0.01809	0.00116
303.15	0.01885	0.00121
305.65	0.01957	0.00125
308.15	0.02043	0.00131
310.65	0.02126	0.00136
313.15	0.02209	0.00141
315.65	0.02296	0.00147
318.15	0.0239	0.00153

System: propan-2-ol + 5-phenyltetrazole; phases: Liquid, Crystal
Fixed: Pressure, kPa = 101.2
Property: Mole fraction of 5-phenyltetrazole (Liquid); method: Chromatography
Temperature, K	Mole fraction of 5-phenyltetrazole	uncertainty
283.15	0.01409	0.0009
285.65	0.01473	0.00094
288.15	0.0155	0.00099
290.65	0.01628	0.00104
293.15	0.01711	0.0011
295.65	0.01794	0.00115
298.15	0.01886	0.00121
300.65	0.01983	0.00127
303.15	0.02077	0.00133
305.65	0.02167	0.00139
308.15	0.02272	0.00145
310.65	0.02372	0.00152
313.15	0.02475	0.00158
315.65	0.02571	0.00165
318.15	0.02685	0.00172

System: acetone + 5-phenyltetrazole; phases: Liquid, Crystal
Fixed: Pressure, kPa = 101.2
Property: Mole fraction of 5-phenyltetrazole (Liquid); method: Chromatography
Temperature, K	Mole fraction of 5-phenyltetrazole	uncertainty
283.15	0.01692	0.00108
285.65	0.01761	0.00113
288.15	0.01837	0.00118
290.65	0.01916	0.00123
293.15	0.02001	0.00128
295.65	0.02081	0.00133
298.15	0.02171	0.00139
300.65	0.0226	0.00145
303.15	0.02359	0.00151
305.65	0.02455	0.00157
308.15	0.02559	0.00164
310.65	0.02664	0.00171
313.15	0.02778	0.00178
315.65	0.02901	0.00186
318.15	0.03021	0.00193

System: butanone + 5-phenyltetrazole; phases: Liquid, Crystal
Fixed: Pressure, kPa = 101.2
Property: Mole fraction of 5-phenyltetrazole (Liquid); method: Chromatography
Temperature, K	Mole fraction of 5-phenyltetrazole	uncertainty
283.15	0.01557	0.001
285.65	0.01629	0.00104
288.15	0.01699	0.00109
290.65	0.01778	0.00114
293.15	0.01852	0.00119
295.65	0.01934	0.00124
298.15	0.02019	0.00129
300.65	0.02111	0.00135
303.15	0.02199	0.00141
305.65	0.02295	0.00147
308.15	0.02393	0.00153
310.65	0.02495	0.0016
313.15	0.02596	0.00166
315.65	0.02711	0.00174
318.15	0.02814	0.0018

System: acetonitrile + 5-phenyltetrazole; phases: Liquid, Crystal
Fixed: Pressure, kPa = 101.2
Property: Mole fraction of 5-phenyltetrazole (Liquid); method: Chromatography
Temperature, K	Mole fraction of 5-phenyltetrazole	uncertainty
283.15	0.001806	0.000116
285.65	0.001974	0.000126
288.15	0.00216	0.000138
290.65	0.00236	0.000151
293.15	0.002527	0.000162
295.65	0.002795	0.000179
298.15	0.003069	0.000197
300.65	0.003306	0.000212
303.15	0.003588	0.00023
305.65	0.003886	0.000249
308.15	0.004213	0.00027
310.65	0.004493	0.000288
313.15	0.004899	0.000314
315.65	0.005204	0.000333
318.15	0.00555	0.000355

System: ethyl acetate + 5-phenyltetrazole; phases: Liquid, Crystal
Fixed: Pressure, kPa = 101.2
Property: Mole fraction of 5-phenyltetrazole (Liquid); method: Chromatography
Temperature, K	Mole fraction of 5-phenyltetrazole	uncertainty
283.15	0.006275	0.000402
285.65	0.006479	0.000415
288.15	0.006649	0.000426
290.65	0.006912	0.000443
293.15	0.007166	0.000459
295.65	0.007456	0.000477
298.15	0.007727	0.000495
300.65	0.008044	0.000515
303.15	0.00838	0.000537
305.65	0.008781	0.000562
308.15	0.009175	0.000588
310.65	0.00961	0.000615
313.15	0.01008	0.00065
315.65	0.01056	0.00068
318.15	0.01112	0.00071

System: toluene + 5-phenyltetrazole; phases: Liquid, Crystal
Fixed: Pressure, kPa = 101.2
Property: Mole fraction of 5-phenyltetrazole (Liquid); method: Chromatography
Temperature, K	Mole fraction of 5-phenyltetrazole	uncertainty
283.15	2.503e-05	1.6e-06
285.65	2.852e-05	1.83e-06
288.15	3.353e-05	2.15e-06
290.65	3.844e-05	2.46e-06
293.15	4.455e-05	2.85e-06
295.65	5.085e-05	3.26e-06
298.15	5.835e-05	3.74e-06
300.65	6.636e-05	4.25e-06
303.15	7.624e-05	4.88e-06
305.65	8.684e-05	5.56e-06
308.15	9.91e-05	6.35e-06
310.65	0.0001129	7.2e-06
313.15	0.0001286	8.2e-06
315.65	0.0001458	9.3e-06
318.15	0.0001647	1.06e-05

System: 1,4-dioxane + 5-phenyltetrazole; phases: Liquid, Crystal
Fixed: Pressure, kPa = 101.2
Property: Mole fraction of 5-phenyltetrazole (Liquid); method: Chromatography
Temperature, K	Mole fraction of 5-phenyltetrazole	uncertainty
283.15	0.00929	0.000595
285.65	0.009819	0.000629
288.15	0.01037	0.00066
290.65	0.01088	0.0007
293.15	0.01139	0.00073
295.65	0.01196	0.00077
298.15	0.01247	0.0008
300.65	0.01314	0.00084
303.15	0.01376	0.00088
305.65	0.01447	0.00093
308.15	0.01506	0.00096
310.65	0.01576	0.00101
313.15	0.01649	0.00106
315.65	0.01724	0.0011
318.15	0.01801	0.00115

System: cyclohexane + 5-phenyltetrazole; phases: Liquid, Crystal
Fixed: Pressure, kPa = 101.2
Property: Mole fraction of 5-phenyltetrazole (Liquid); method: Chromatography
Temperature, K	Mole fraction of 5-phenyltetrazole	uncertainty
283.15	3.559e-06	2.28e-07
285.65	3.933e-06	2.52e-07
288.15	4.342e-06	2.78e-07
290.65	4.545e-06	2.91e-07
293.15	5.042e-06	3.23e-07
295.65	5.384e-06	3.45e-07
298.15	5.967e-06	3.82e-07
300.65	6.414e-06	4.11e-07
303.15	6.915e-06	4.43e-07
305.65	7.497e-06	4.8e-07
308.15	8.159e-06	5.23e-07
310.65	8.974e-06	5.75e-07
313.15	9.601e-06	6.15e-07
315.65	1.044e-05	6.7e-07
318.15	1.113e-05	7.1e-07

System: dimethylformamide + 5-phenyltetrazole; phases: Liquid, Crystal
Fixed: Pressure, kPa = 101.2
Property: Mole fraction of 5-phenyltetrazole (Liquid); method: Chromatography
Temperature, K	Mole fraction of 5-phenyltetrazole	uncertainty
283.15	0.2082	0.0133
285.65	0.2195	0.0141
288.15	0.2312	0.0148
290.65	0.2439	0.0156
293.15	0.2565	0.0164
295.65	0.269	0.0172
298.15	0.282	0.0181
300.65	0.2956	0.0189
303.15	0.3084	0.0197
305.65	0.3221	0.0206
308.15	0.3356	0.0215
310.65	0.3501	0.0224
313.15	0.3646	0.0233
315.65	0.379	0.0243
318.15	0.3932	0.0252

System: dimethyl sulfoxide + 5-phenyltetrazole; phases: Liquid, Crystal
Fixed: Pressure, kPa = 101.2
Property: Mole fraction of 5-phenyltetrazole (Liquid); method: Chromatography
Temperature, K	Mole fraction of 5-phenyltetrazole	uncertainty
293.15	0.2776	0.0178
295.65	0.2907	0.0186
298.15	0.3036	0.0194
300.65	0.3166	0.0203
303.15	0.3297	0.0211
305.65	0.343	0.022
308.15	0.3559	0.0228
310.65	0.3692	0.0236
313.15	0.3839	0.0246
315.65	0.398	0.0255
318.15	0.4119	0.0264

System: methanol + ethyl acetate + 5-phenyltetrazole; phases: Liquid, Crystal
Fixed: Pressure, kPa = 101.2
Property: Mole fraction of 5-phenyltetrazole (Liquid); method: Chromatography
Temperature, K	Solvent: Mass fraction of methanol	Mole fraction of 5-phenyltetrazole	uncertainty
283.15	0	0.006275	0.000402
285.65	0	0.006479	0.000415
288.15	0	0.006649	0.000426
290.65	0	0.006912	0.000443
293.15	0	0.007166	0.000459
295.65	0	0.007456	0.000477
298.15	0	0.007727	0.000495
300.65	0	0.008044	0.000515
303.15	0	0.00838	0.000537
305.65	0	0.008781	0.000562
308.15	0	0.009175	0.000588
310.65	0	0.00961	0.000615
313.15	0	0.01008	0.00065
315.65	0	0.01056	0.00068
318.15	0	0.01112	0.00071
283.15	0.0998	0.006873	0.000441
285.65	0.0998	0.007109	0.000456
288.15	0.0998	0.007313	0.000469
290.65	0.0998	0.007608	0.000488
293.15	0.0998	0.007898	0.000507
295.65	0.0998	0.008227	0.000528
298.15	0.0998	0.008535	0.000548
300.65	0.0998	0.00889	0.000571
303.15	0.0998	0.009269	0.000595
305.65	0.0998	0.009712	0.000624
308.15	0.0998	0.01015	0.00065
310.65	0.0998	0.01063	0.00068
313.15	0.0998	0.01115	0.00072
315.65	0.0998	0.01168	0.00075
318.15	0.0998	0.01229	0.00079
283.15	0.2	0.007599	0.000491
285.65	0.2	0.007874	0.000509
288.15	0.2	0.008118	0.000525
290.65	0.2	0.008451	0.000547
293.15	0.2	0.008785	0.000568
295.65	0.2	0.009161	0.000593
298.15	0.2	0.009513	0.000616
300.65	0.2	0.009914	0.000642
303.15	0.2	0.01034	0.00067
305.65	0.2	0.01084	0.0007
308.15	0.2	0.01133	0.00073
310.65	0.2	0.01187	0.00077
313.15	0.2	0.01244	0.00081
315.65	0.2	0.01303	0.00084
318.15	0.2	0.0137	0.00089
283.15	0.3002	0.008382	0.000548
285.65	0.3002	0.008662	0.000566
288.15	0.3002	0.008997	0.000589
290.65	0.3002	0.009345	0.000612
293.15	0.3002	0.009748	0.000639
295.65	0.3002	0.01018	0.00067
298.15	0.3002	0.01062	0.0007
300.65	0.3002	0.01105	0.00073
303.15	0.3002	0.01157	0.00076
305.65	0.3002	0.01207	0.00079
308.15	0.3002	0.01267	0.00083
310.65	0.3002	0.01328	0.00087
313.15	0.3002	0.01392	0.00091
315.65	0.3002	0.01459	0.00096
318.15	0.3002	0.01539	0.00101
283.15	0.4011	0.00927	0.000614
285.65	0.4011	0.009582	0.000636
288.15	0.4011	0.009963	0.000662
290.65	0.4011	0.01038	0.00069
293.15	0.4011	0.01086	0.00073
295.65	0.4011	0.01135	0.00076
298.15	0.4011	0.01186	0.0008
300.65	0.4011	0.01236	0.00083
303.15	0.4011	0.01292	0.00087
305.65	0.4011	0.01354	0.00091
308.15	0.4011	0.01417	0.00095
310.65	0.4011	0.01483	0.00099
313.15	0.4011	0.0155	0.00103
315.65	0.4011	0.01621	0.00108
318.15	0.4011	0.01705	0.00114
283.15	0.4996	0.01017	0.00068
285.65	0.4996	0.01057	0.00071
288.15	0.4996	0.01101	0.00075
290.65	0.4996	0.01158	0.00079
293.15	0.4996	0.01209	0.00082
295.65	0.4996	0.01266	0.00086
298.15	0.4996	0.01328	0.00091
300.65	0.4996	0.01387	0.00095
303.15	0.4996	0.01446	0.00099
305.65	0.4996	0.0151	0.00103
308.15	0.4996	0.01575	0.00108
310.65	0.4996	0.01643	0.00112
313.15	0.4996	0.0172	0.00117
315.65	0.4996	0.018	0.00123
318.15	0.4996	0.01892	0.00129
283.15	0.5998	0.01112	0.00073
285.65	0.5998	0.01165	0.00077
288.15	0.5998	0.01219	0.00081
290.65	0.5998	0.01278	0.00085
293.15	0.5998	0.01342	0.00089
295.65	0.5998	0.01406	0.00093
298.15	0.5998	0.01472	0.00098
300.65	0.5998	0.01541	0.00102
303.15	0.5998	0.01614	0.00107
305.65	0.5998	0.01684	0.00112
308.15	0.5998	0.01757	0.00117
310.65	0.5998	0.01833	0.00122
313.15	0.5998	0.01919	0.00128
315.65	0.5998	0.02004	0.00133
318.15	0.5998	0.02094	0.00139
283.15	0.6968	0.01217	0.00079
285.65	0.6968	0.01274	0.00083
288.15	0.6968	0.01331	0.00087
290.65	0.6968	0.01397	0.00091
293.15	0.6968	0.01468	0.00096
295.65	0.6968	0.0154	0.001
298.15	0.6968	0.01615	0.00105
300.65	0.6968	0.01692	0.0011
303.15	0.6968	0.01773	0.00116
305.65	0.6968	0.01859	0.00121
308.15	0.6968	0.01944	0.00127
310.65	0.6968	0.02029	0.00133
313.15	0.6968	0.02113	0.00138
315.65	0.6968	0.02205	0.00144
318.15	0.6968	0.02307	0.00151
283.15	0.799	0.01327	0.00086
285.65	0.799	0.01393	0.0009
288.15	0.799	0.01465	0.00094
290.65	0.799	0.01535	0.00099
293.15	0.799	0.0161	0.00104
295.65	0.799	0.01689	0.00109
298.15	0.799	0.01777	0.00115
300.65	0.799	0.01858	0.0012
303.15	0.799	0.01946	0.00125
305.65	0.799	0.02039	0.00131
308.15	0.799	0.02132	0.00137
310.65	0.799	0.02225	0.00143
313.15	0.799	0.02322	0.0015
315.65	0.799	0.02422	0.00156
318.15	0.799	0.02529	0.00163
283.15	0.8998	0.01437	0.00092
285.65	0.8998	0.01507	0.00097
288.15	0.8998	0.01585	0.00102
290.65	0.8998	0.01665	0.00107
293.15	0.8998	0.01744	0.00112
295.65	0.8998	0.01829	0.00117
298.15	0.8998	0.01918	0.00123
300.65	0.8998	0.02011	0.00129
303.15	0.8998	0.02107	0.00135
305.65	0.8998	0.02204	0.00141
308.15	0.8998	0.02306	0.00148
310.65	0.8998	0.02409	0.00155
313.15	0.8998	0.02525	0.00162
315.65	0.8998	0.02642	0.00169
318.15	0.8998	0.02767	0.00178
283.15	1	0.01557	0.001
285.65	1	0.01637	0.00105
288.15	1	0.0172	0.0011
290.65	1	0.01801	0.00115
293.15	1	0.01894	0.00121
295.65	1	0.01993	0.00128
298.15	1	0.02087	0.00134
300.65	1	0.02185	0.0014
303.15	1	0.02295	0.00147
305.65	1	0.02403	0.00154
308.15	1	0.02517	0.00161
310.65	1	0.02639	0.00169
313.15	1	0.02757	0.00177
315.65	1	0.02887	0.00185
318.15	1	0.03019	0.00193
