Measured thermophysical data. Thermophysical profile of ethylene glycol-based ZnO nanofluids
Source: J. Chem. Thermodyn., 2014, 10.1016/j.jct.2013.07.002
Compound 1: 1,2-ethanediol, C2H6O2, InChI=1S/C2H6O2/c3-1-2-4/h3-4H,1-2H2, purity 99%

System: 1,2-ethanediol; phases: Liquid
Fixed: Pressure, kPa = 101.325
Property: Thermal conductivity, W/m/K (Liquid); method: Hot wire method
Temperature, K	Thermal conductivity, W/m/K	uncertainty
283.15	0.243	0.015
303.15	0.246	0.015
323.15	0.249	0.015
343.15	0.259	0.016

System: 1,2-ethanediol; phases: Liquid
Fixed: Pressure, kPa = 101.325
Property: Viscosity, Pa*s (Liquid); method: Concentric cylinders viscometry
Temperature, K	Viscosity, Pa*s	uncertainty
283.15	0.03544	0.00356
288.15	0.028	0.00282
293.15	0.02189	0.0022
298.15	0.01725	0.00174
303.15	0.01386	0.00139
308.15	0.01164	0.00117
313.15	0.00962	0.00097
323.15	0.00721	0.00072
