Measured thermophysical data. Thermodynamic properties of aqueous solutions of [EMIM] thiocyanate and [EMIM] dicyanamide
Source: J. Chem. Thermodyn., 2017, 10.1016/j.jct.2016.12.008
Compound 1: 1-ethyl-3-methylimidazolium thiocyanate, C7H11N3S, InChI=1S/C6H11N2.CHNS/c1-3-8-5-4-7(2)6-8;2-1-3/h4-6H,3H2,1-2H3;3H/q+1;/p-1, purity 99.7%
Compound 2: 1-ethyl-3-methylimidazolium dicyanamide, C8H11N5, InChI=1S/C6H11N2.C2N3/c1-3-8-5-4-7(2)6-8;3-1-5-2-4/h4-6H,3H2,1-2H3;/q+1;-1, purity 99%
Compound 3: water, H2O, InChI=1S/H2O/h1H2

System: 1-ethyl-3-methylimidazolium thiocyanate; phases: Liquid
Fixed: Pressure, kPa = 101.325
Property: Mass density, kg/m3 (Liquid); method: Vibrating tube method
Temperature, K	Mass density, kg/m3	uncertainty
288.15	1124.01	1
293.15	1120.92	1
298.15	1117.85	1
303.15	1114.8	1
308.15	1111.76	1
313.15	1108.74	1
318.15	1105.73	1

System: 1-ethyl-3-methylimidazolium thiocyanate; phases: Liquid
Fixed: Pressure, kPa = 101.325
Property: Viscosity, Pa*s (Liquid); method: Falling or rolling sphere viscometry
Temperature, K	Viscosity, Pa*s	uncertainty
288.15	0.03424	0.00073
293.15	0.0279	0.00059
298.15	0.02268	0.00048
303.15	0.01909	0.00041
308.15	0.01639	0.00035
313.15	0.01418	0.0003
318.15	0.01243	0.00026

System: 1-ethyl-3-methylimidazolium dicyanamide; phases: Liquid
Fixed: Pressure, kPa = 101.325
Property: Mass density, kg/m3 (Liquid); method: Vibrating tube method
Temperature, K	Mass density, kg/m3	uncertainty
288.15	1108.12	2.02
293.15	1104.77	2.02
298.15	1101.44	2.02
303.15	1098.12	2.02
308.15	1094.83	2.02
313.15	1091.54	2.02
318.15	1088.28	2.02

System: 1-ethyl-3-methylimidazolium dicyanamide; phases: Liquid
Fixed: Pressure, kPa = 101.325
Property: Viscosity, Pa*s (Liquid); method: Falling or rolling sphere viscometry
Temperature, K	Viscosity, Pa*s	uncertainty
288.15	0.01998	0.00121
293.15	0.01693	0.00103
298.15	0.01454	0.00088
303.15	0.01263	0.00077
308.15	0.01105	0.00067
313.15	0.00976	0.00059
318.15	0.00869	0.00053

System: water; phases: Liquid
Fixed: Pressure, kPa = 100
Property: Mass density, kg/m3 (Liquid); method: Vibrating tube method
Temperature, K	Mass density, kg/m3	uncertainty
288.15	999.08	0.11
293.15	998.19	0.11
298.15	997.03	0.11
303.15	995.63	0.11
308.15	994.02	0.11
313.15	992.2	0.11
318.15	990.2	0.11

System: water; phases: Liquid
Fixed: Pressure, kPa = 100
Property: Viscosity, Pa*s (Liquid); method: Falling or rolling sphere viscometry
Temperature, K	Viscosity, Pa*s	uncertainty
288.15	0.00113	1e-05
293.15	0.001	1e-05
298.15	0.00089	1e-05
303.15	0.0008	1e-05
308.15	0.00072	1e-05
313.15	0.00065	1e-05
318.15	0.0006	1e-05

System: water + 1-ethyl-3-methylimidazolium thiocyanate; phases: Liquid
Fixed: Pressure, kPa = 100
Property: (Relative) activity of water (Liquid); method: chilled-mirror dew point technique
Temperature, K	Mole fraction of water	(Relative) activity of water	uncertainty
293.14	0.95075	0.9558	0.0387
298.14	0.95075	0.9565	0.0387
303.12	0.95075	0.9568	0.0387
308.13	0.95075	0.9569	0.0387
313.11	0.95075	0.9572	0.0387
318.14	0.95075	0.9565	0.0387
293.13	0.9122	0.9239	0.0387
298.14	0.9122	0.9242	0.0387
303.13	0.9122	0.9238	0.0387
308.13	0.9122	0.9223	0.0387
313.11	0.9122	0.9213	0.0387
318.13	0.9122	0.92	0.0387
293.15	0.79883	0.7796	0.0387
298.15	0.79883	0.7797	0.0387
303.13	0.79883	0.7781	0.0387
308.14	0.79883	0.7758	0.0387
313.12	0.79883	0.7737	0.0387
318.15	0.79883	0.7717	0.0387
293.14	0.69661	0.601	0.0387
298.14	0.69661	0.6001	0.0387
303.12	0.69661	0.5987	0.0387
308.12	0.69661	0.5975	0.0387
313.11	0.69661	0.5959	0.0387
318.13	0.69661	0.5946	0.0387
288.14	0.59853	0.4399	0.0387
293.12	0.59853	0.4414	0.0387
298.12	0.59853	0.4407	0.0387
303.11	0.59853	0.4402	0.0387
308.11	0.59853	0.4392	0.0387
313.09	0.59853	0.4384	0.0387
318.12	0.59853	0.4374	0.0387
288.08	0.50076	0.3061	0.0387
293.11	0.50076	0.3065	0.0387
298.12	0.50076	0.3065	0.0387
303.09	0.50076	0.3066	0.0387
308.1	0.50076	0.3062	0.0387
313.08	0.50076	0.3058	0.0387
318.11	0.50076	0.3055	0.0387
290.08	0.39951	0.2032	0.0387
293.08	0.39951	0.2036	0.0387
298.1	0.39951	0.2042	0.0387
303.06	0.39951	0.2044	0.0387
308.06	0.39951	0.2045	0.0387
313.05	0.39951	0.2046	0.0387
318.08	0.39951	0.2046	0.0387
288.11	0.25232	0.0986	0.0387
293.11	0.25232	0.1001	0.0387
298.12	0.25232	0.1	0.0387
303.06	0.25232	0.0996	0.0387
308.06	0.25232	0.0998	0.0387
313.02	0.25232	0.0993	0.0387
318.01	0.25232	0.1002	0.0387
290.07	0.20196	0.0706	0.0387
293.07	0.20196	0.0711	0.0387
298.07	0.20196	0.0716	0.0387
303.05	0.20196	0.0721	0.0387
308.06	0.20196	0.0724	0.0387
313.02	0.20196	0.0728	0.0387
318.07	0.20196	0.0732	0.0387

System: water + 1-ethyl-3-methylimidazolium thiocyanate; phases: Liquid
Fixed: Pressure, kPa = 100
Property: Excess molar enthalpy (molar enthalpy of mixing), kJ/mol (Liquid); method: Flow calorimetry
Temperature, K	Mole fraction of 1-ethyl-3-methylimidazolium thiocyanate	Excess molar enthalpy (molar enthalpy of mixing), kJ/mol	uncertainty
288.15	0.003562	0.02626	0.0014
288.15	0.00297	0.02232	0.00126
288.15	0.002377	0.01804	0.00112
288.15	0.001784	0.01386	0.00099
288.15	0.00119	0.00939	0.00086
288.15	0.000595	0.00475	0.00081
298.15	0.00356	0.02742	0.00144
298.15	0.002968	0.02319	0.00129
298.15	0.002376	0.01882	0.00114
298.15	0.001783	0.01434	0.001
298.15	0.001189	0.00972	0.00087
298.15	0.000595	0.00487	0.00081
308.15	0.00356	0.02885	0.0015
308.15	0.002968	0.02433	0.00133
308.15	0.002375	0.01969	0.00117
308.15	0.001783	0.01501	0.00102
308.15	0.001189	0.01013	0.00088
308.15	0.000595	0.00508	0.00082
318.15	0.003562	0.03036	0.00155
318.15	0.002969	0.02562	0.00138
318.15	0.002377	0.02079	0.00121
318.15	0.001784	0.0158	0.00105
318.15	0.00119	0.01063	0.0009
318.15	0.000595	0.0053	0.00082

System: water + 1-ethyl-3-methylimidazolium thiocyanate; phases: Liquid
Fixed: Pressure, kPa = 100
Property: Mass density, kg/m3 (Liquid); method: Vibrating tube method
Temperature, K	Mole fraction of 1-ethyl-3-methylimidazolium thiocyanate	Mass density, kg/m3	uncertainty
288.15	0.003562	1002.576	0.111
288.15	0.00297	1002.03	0.11
288.15	0.002377	1001.456	0.109
288.15	0.001784	1000.887	0.108
288.15	0.00119	1000.303	0.107
288.15	0.000595	999.706	0.106
298.15	0.00356	1000.23	0.107
298.15	0.002968	999.724	0.109
298.15	0.002376	999.205	0.108
298.15	0.001783	998.678	0.108
298.15	0.001189	998.146	0.107
298.15	0.000595	997.593	0.107
308.15	0.00356	996.975	0.107
308.15	0.002968	996.502	0.109
308.15	0.002375	996.024	0.108
308.15	0.001783	995.543	0.108
308.15	0.001189	995.047	0.107
308.15	0.000595	994.541	0.107
318.15	0.003562	992.957	0.11
318.15	0.002969	992.518	0.11
318.15	0.002377	992.069	0.109
318.15	0.001784	991.619	0.108
318.15	0.00119	991.157	0.108
318.15	0.000595	990.684	0.108

System: water + 1-ethyl-3-methylimidazolium thiocyanate; phases: Liquid
Fixed: Pressure, kPa = 100
Property: Mass density, kg/m3 (Liquid); method: Vibrating tube method
Temperature, K	Mole fraction of water	Mass density, kg/m3	uncertainty
288.15	0	1124.01	1
288.15	0.10057	1122.17	0.9
288.15	0.19483	1120.28	0.82
288.15	0.30263	1117.74	0.73
288.15	0.40112	1114.62	0.65
288.15	0.49793	1110.81	0.57
288.15	0.60433	1104.78	0.47
288.15	0.68866	1097.66	0.39
288.15	0.79814	1083.09	0.29
288.15	0.91048	1053.6	0.19
288.15	0.94426	1038.64	0.18
288.15	0.95057	1035.25	0.16
288.15	1	999.08	0.11
293.15	0	1120.92	1
293.15	0.10057	1119.09	0.9
293.15	0.19483	1117.18	0.82
293.15	0.30263	1114.62	0.73
293.15	0.40112	1111.48	0.65
293.15	0.49793	1107.64	0.57
293.15	0.60433	1101.58	0.47
293.15	0.68866	1094.44	0.39
293.15	0.79814	1079.92	0.29
293.15	0.91048	1050.85	0.19
293.15	0.94426	1036.27	0.18
293.15	0.95057	1032.98	0.16
293.15	1	998.19	0.11
298.15	0	1117.85	1
298.15	0.10057	1116.01	0.9
298.15	0.19483	1114.09	0.82
298.15	0.30263	1111.51	0.73
298.15	0.40112	1108.34	0.65
298.15	0.49793	1104.48	0.57
298.15	0.60433	1098.38	0.47
298.15	0.68866	1091.23	0.39
298.15	0.91048	1048.04	0.19
298.15	0.94426	1033.79	0.17
298.15	0.95057	1030.58	0.16
298.15	1	997.03	0.11
303.15	0	1114.8	1
303.15	0.10057	1112.95	0.9
303.15	0.19483	1111.01	0.82
303.15	0.30263	1108.41	0.72
303.15	0.40112	1105.22	0.65
303.15	0.49793	1101.33	0.57
303.15	0.60433	1095.19	0.47
303.15	0.68866	1088.01	0.39
303.15	0.91048	1045.18	0.19
303.15	0.94426	1031.22	0.17
303.15	0.95057	1028.1	0.16
303.15	1	995.63	0.11
308.15	0	1111.76	1
308.15	0.10057	1109.9	0.9
308.15	0.19483	1107.93	0.82
308.15	0.30263	1105.33	0.72
308.15	0.40112	1102.11	0.65
308.15	0.49793	1098.18	0.57
308.15	0.60433	1092.01	0.47
308.15	0.68866	1084.79	0.39
308.15	0.91048	1042.25	0.19
308.15	0.94426	1028.56	0.17
308.15	0.95057	1025.5	0.16
308.15	1	994.02	0.11
313.15	0	1108.74	1
313.15	0.10057	1106.87	0.9
313.15	0.19483	1104.91	0.82
313.15	0.30263	1102.25	0.72
313.15	0.40112	1099.01	0.64
313.15	0.49793	1095.05	0.57
313.15	0.60433	1088.82	0.47
313.15	0.68866	1081.57	0.39
313.15	0.91048	1039.26	0.19
313.15	0.94426	1025.8	0.17
313.15	0.95057	1022.8	0.15
313.15	1	992.2	0.11
318.15	0	1105.73	1
318.15	0.10057	1103.85	0.9
318.15	0.19483	1101.87	0.82
318.15	0.30263	1099.19	0.72
318.15	0.40112	1095.92	0.64
318.15	0.49793	1091.92	0.57
318.15	0.60433	1085.65	0.47
318.15	0.68866	1078.35	0.39
318.15	0.91048	1036.21	0.19
318.15	0.94426	1022.95	0.17
318.15	0.95057	1020	0.15
318.15	1	990.2	0.11

System: water + 1-ethyl-3-methylimidazolium thiocyanate; phases: Liquid
Fixed: Pressure, kPa = 100
Property: Viscosity, Pa*s (Liquid); method: Falling or rolling sphere viscometry
Temperature, K	Mole fraction of water	Viscosity, Pa*s	uncertainty
288.15	0	0.03424	0.00073
288.15	0.10057	0.02745	0.00053
288.15	0.19483	0.02199	0.00043
288.15	0.30263	0.0186	0.00033
288.15	0.40112	0.01507	0.00026
288.15	0.49793	0.0124	0.00022
288.15	0.60433	0.0092	0.00015
288.15	0.68866	0.00715	0.00011
288.15	0.79814	0.0047	7e-05
288.15	0.91048	0.00253	3e-05
288.15	0.94426	0.00196	2e-05
288.15	0.95057	0.00186	2e-05
288.15	1	0.00113	1e-05
293.15	0	0.0279	0.00059
293.15	0.10057	0.02255	0.00044
293.15	0.19483	0.01863	0.00036
293.15	0.30263	0.01574	0.00028
293.15	0.40112	0.01281	0.00022
293.15	0.49793	0.01043	0.00018
293.15	0.60433	0.0079	0.00012
293.15	0.68866	0.00617	0.0001
293.15	0.79814	0.00408	6e-05
293.15	0.91048	0.00227	3e-05
293.15	0.94426	0.00176	2e-05
293.15	0.95057	0.00167	2e-05
293.15	1	0.001	1e-05
298.15	0	0.02268	0.00048
298.15	0.10057	0.01874	0.00036
298.15	0.19483	0.01593	0.00031
298.15	0.30263	0.01344	0.00024
298.15	0.40112	0.01099	0.00019
298.15	0.49793	0.00894	0.00016
298.15	0.60433	0.00685	0.00011
298.15	0.68866	0.00538	8e-05
298.15	0.91048	0.00202	3e-05
298.15	0.94426	0.00157	2e-05
298.15	0.95057	0.00149	2e-05
298.15	1	0.00089	1e-05
303.15	0	0.01909	0.00041
303.15	0.10057	0.01603	0.00031
303.15	0.19483	0.01375	0.00027
303.15	0.30263	0.01161	0.0002
303.15	0.40112	0.00955	0.00017
303.15	0.49793	0.00777	0.00014
303.15	0.60433	0.00601	9e-05
303.15	0.68866	0.00472	7e-05
303.15	0.91048	0.00179	2e-05
303.15	0.94426	0.00139	2e-05
303.15	0.95057	0.00132	2e-05
303.15	1	0.0008	1e-05
308.15	0	0.01639	0.00035
308.15	0.10057	0.01387	0.00027
308.15	0.19483	0.01202	0.00023
308.15	0.30263	0.01014	0.00018
308.15	0.40112	0.00839	0.00015
308.15	0.49793	0.00683	0.00012
308.15	0.60433	0.00531	8e-05
308.15	0.68866	0.00419	7e-05
308.15	0.91048	0.0016	2e-05
308.15	0.94426	0.00125	2e-05
308.15	0.95057	0.00119	2e-05
308.15	1	0.00072	1e-05
313.15	0	0.01418	0.0003
313.15	0.10057	0.01215	0.00024
313.15	0.19483	0.01058	0.00021
313.15	0.30263	0.00893	0.00016
313.15	0.40112	0.00743	0.00013
313.15	0.49793	0.00607	0.00011
313.15	0.60433	0.00474	7e-05
313.15	0.68866	0.00374	6e-05
313.15	0.91048	0.00144	2e-05
313.15	0.94426	0.00113	2e-05
313.15	0.95057	0.00107	1e-05
313.15	1	0.00065	1e-05
318.15	0	0.01243	0.00026
318.15	0.10057	0.01071	0.00021
318.15	0.19483	0.00938	0.00018
318.15	0.30263	0.00794	0.00014
318.15	0.40112	0.00662	0.00012
318.15	0.49793	0.00543	0.0001
318.15	0.60433	0.00426	7e-05
318.15	0.68866	0.00335	5e-05
318.15	0.91048	0.00131	2e-05
318.15	0.94426	0.00103	1e-05
318.15	0.95057	0.00098	1e-05
318.15	1	0.0006	1e-05

System: water + 1-ethyl-3-methylimidazolium dicyanamide; phases: Liquid
Fixed: Pressure, kPa = 100
Property: (Relative) activity of water (Liquid); method: chilled-mirror dew point technique
Temperature, K	Mole fraction of water	(Relative) activity of water	uncertainty
290.44	0.94946	0.9497	0.0387
293.13	0.94946	0.9486	0.0387
298.13	0.94946	0.9487	0.0387
303.12	0.94946	0.9478	0.0387
308.12	0.94946	0.9473	0.0387
313.1	0.94946	0.9469	0.0387
318.13	0.94946	0.9456	0.0387
293.12	0.89829	0.8902	0.0387
298.14	0.89829	0.8894	0.0387
303.13	0.89829	0.8893	0.0387
308.12	0.89829	0.888	0.0387
313.11	0.89829	0.8862	0.0387
318.13	0.89829	0.8846	0.0387
290.12	0.80037	0.7207	0.0387
293.14	0.80037	0.7209	0.0387
298.14	0.80037	0.7215	0.0387
303.12	0.80037	0.7214	0.0387
308.12	0.80037	0.7212	0.0387
313.11	0.80037	0.7204	0.0387
318.13	0.80037	0.7195	0.0387
290.11	0.70234	0.5382	0.0387
293.12	0.70234	0.5382	0.0387
298.12	0.70234	0.5391	0.0387
303.11	0.70234	0.54	0.0387
308.11	0.70234	0.5403	0.0387
313.1	0.70234	0.5405	0.0387
318.12	0.70234	0.5404	0.0387
290.09	0.60269	0.3798	0.0387
293.1	0.60269	0.3798	0.0387
298.1	0.60269	0.3811	0.0387
303.09	0.60269	0.3822	0.0387
308.09	0.60269	0.3828	0.0387
313.08	0.60269	0.3834	0.0387
318.1	0.60269	0.3838	0.0387
293.07	0.50171	0.2639	0.0387
298.09	0.50171	0.2649	0.0387
303.07	0.50171	0.2654	0.0387
308.07	0.50171	0.266	0.0387
313.05	0.50171	0.2667	0.0387
318.08	0.50171	0.2671	0.0387
290.06	0.40125	0.1776	0.0387
293.07	0.40125	0.1777	0.0387
298.08	0.40125	0.1785	0.0387
303.05	0.40125	0.1791	0.0387
308.05	0.40125	0.1795	0.0387
313.04	0.40125	0.1799	0.0387
318.05	0.40125	0.1803	0.0387
290.09	0.30376	0.1177	0.0387
293.05	0.30376	0.1182	0.0387
298.06	0.30376	0.1182	0.0387
303.03	0.30376	0.1184	0.0387
308.03	0.30376	0.1187	0.0387
313.02	0.30376	0.1189	0.0387
318.03	0.30376	0.1192	0.0387
290.09	0.20544	0.0722	0.0387
293.03	0.20544	0.072	0.0387
298.03	0.20544	0.072	0.0387
303.01	0.20544	0.0722	0.0387
308.01	0.20544	0.0723	0.0387
312.99	0.20544	0.0726	0.0387
318.01	0.20544	0.0728	0.0387

System: water + 1-ethyl-3-methylimidazolium dicyanamide; phases: Liquid
Fixed: Pressure, kPa = 100
Property: Excess molar enthalpy (molar enthalpy of mixing), kJ/mol (Liquid); method: Flow calorimetry
Temperature, K	Mole fraction of 1-ethyl-3-methylimidazolium dicyanamide	Excess molar enthalpy (molar enthalpy of mixing), kJ/mol	uncertainty
288.15	0.003363	0.00923	0.00086
288.15	0.002804	0.00776	0.00084
288.15	0.002244	0.00625	0.00083
288.15	0.001684	0.00469	0.00081
288.15	0.001123	0.00311	0.0008
288.15	0.000562	0.00151	0.00079
298.15	0.003363	0.01073	0.0009
298.15	0.002804	0.00901	0.00086
298.15	0.002244	0.00727	0.00083
298.15	0.001684	0.00547	0.00082
298.15	0.001123	0.00363	0.0008
298.15	0.000562	0.00175	0.00079
308.15	0.003362	0.01275	0.00096
308.15	0.002803	0.0107	0.0009
308.15	0.002243	0.00864	0.00085
308.15	0.001683	0.00652	0.00083
308.15	0.001123	0.00435	0.00081
308.15	0.000562	0.00214	0.00079
318.15	0.003359	0.01492	0.00102
318.15	0.0028	0.01253	0.00095
318.15	0.002241	0.0101	0.00088
318.15	0.001682	0.00762	0.00084
318.15	0.001122	0.00508	0.00082
318.15	0.000561	0.00246	0.00079

System: water + 1-ethyl-3-methylimidazolium dicyanamide; phases: Liquid
Fixed: Pressure, kPa = 100
Property: Mass density, kg/m3 (Liquid); method: Vibrating tube method
Temperature, K	Mole fraction of 1-ethyl-3-methylimidazolium dicyanamide	Mass density, kg/m3	uncertainty
288.15	0.003363	1002.694	0.112
288.15	0.002804	1002.132	0.11
288.15	0.002244	1001.555	0.109
288.15	0.001684	1000.96	0.108
288.15	0.001123	1000.357	0.107
288.15	0.000562	999.731	0.106
298.15	0.003363	1000.245	0.107
298.15	0.002804	999.738	0.109
298.15	0.002244	999.224	0.108
298.15	0.001684	998.701	0.108
298.15	0.001123	998.161	0.107
298.15	0.000562	997.606	0.107
308.15	0.003362	996.914	0.107
308.15	0.002803	996.456	0.109
308.15	0.002243	995.993	0.108
308.15	0.001683	995.519	0.108
308.15	0.001123	995.038	0.107
308.15	0.000562	994.54	0.107
318.15	0.003359	992.819	0.11
318.15	0.0028	992.407	0.109
318.15	0.002241	991.986	0.109
318.15	0.001682	991.559	0.108
318.15	0.001122	991.121	0.108
318.15	0.000561	990.667	0.108

System: water + 1-ethyl-3-methylimidazolium dicyanamide; phases: Liquid
Fixed: Pressure, kPa = 100
Property: Mass density, kg/m3 (Liquid); method: Vibrating tube method
Temperature, K	Mole fraction of water	Mass density, kg/m3	uncertainty
288.15	0	1108.12	2.02
288.15	0.10164	1106.34	1.82
288.15	0.20135	1104.34	1.63
288.15	0.29995	1101.9	1.45
288.15	0.40147	1098.75	1.25
288.15	0.51064	1094.6	1.03
288.15	0.5934	1090.52	0.89
288.15	0.74651	1078.84	0.59
288.15	0.79741	1072.73	0.49
288.15	0.90037	1052.16	0.29
288.15	0.94978	1033.9	0.21
288.15	1	999.09	0.11
293.15	0	1104.77	2.02
293.15	0.10164	1102.98	1.82
293.15	0.20135	1100.97	1.63
293.15	0.29995	1098.51	1.45
293.15	0.40147	1095.35	1.25
293.15	0.51064	1091.17	1.03
293.15	0.5934	1087.07	0.89
293.15	0.74651	1075.38	0.59
293.15	0.79741	1069.3	0.49
293.15	0.90037	1049.05	0.29
293.15	0.94978	1031.35	0.21
293.15	1	998.2	0.11
298.15	0	1101.44	2.02
298.15	0.10164	1099.64	1.82
298.15	0.20135	1097.62	1.63
298.15	0.29995	1095.14	1.45
298.15	0.40147	1091.95	1.25
298.15	0.51064	1087.75	1.03
298.15	0.5934	1083.63	0.89
298.15	0.74651	1071.91	0.59
298.15	0.79741	1065.85	0.49
298.15	0.90037	1045.89	0.29
298.15	0.94978	1028.7	0.21
298.15	1	997.04	0.11
303.15	0	1098.12	2.02
303.15	0.10164	1096.31	1.82
303.15	0.20135	1094.28	1.63
303.15	0.29995	1091.78	1.45
303.15	0.40147	1088.58	1.25
303.15	0.51064	1084.34	1.03
303.15	0.5934	1080.19	0.89
303.15	0.74651	1068.44	0.59
303.15	0.79741	1062.4	0.49
303.15	0.90037	1042.69	0.29
303.15	0.94978	1025.95	0.21
303.15	1	995.65	0.11
308.15	0	1094.83	2.02
308.15	0.10164	1093	1.82
308.15	0.20135	1090.95	1.63
308.15	0.29995	1088.44	1.45
308.15	0.40147	1085.21	1.25
308.15	0.51064	1080.95	1.03
308.15	0.5934	1076.77	0.89
308.15	0.74651	1064.98	0.59
308.15	0.79741	1058.94	0.49
308.15	0.90037	1039.45	0.29
308.15	0.94978	1023.11	0.21
308.15	1	994.03	0.11
313.15	0	1091.54	2.02
313.15	0.10164	1089.71	1.82
313.15	0.20135	1087.65	1.63
313.15	0.29995	1085.12	1.45
313.15	0.40147	1081.86	1.25
313.15	0.51064	1077.57	1.03
313.15	0.5934	1073.36	0.89
313.15	0.74651	1061.51	0.59
313.15	0.79741	1055.48	0.49
313.15	0.90037	1036.16	0.29
313.15	0.94978	1020.19	0.21
313.15	1	992.22	0.11
318.15	0	1088.28	2.02
318.15	0.10164	1086.44	1.82
318.15	0.20135	1084.36	1.63
318.15	0.29995	1081.81	1.45
318.15	0.40147	1078.53	1.25
318.15	0.51064	1074.2	1.03
318.15	0.5934	1069.96	0.89
318.15	0.74651	1058.04	0.59
318.15	0.79741	1052.01	0.49
318.15	0.90037	1032.84	0.29
318.15	0.94978	1017.18	0.21
318.15	1	990.21	0.11

System: water + 1-ethyl-3-methylimidazolium dicyanamide; phases: Liquid
Fixed: Pressure, kPa = 100
Property: Viscosity, Pa*s (Liquid); method: Falling or rolling sphere viscometry
Temperature, K	Mole fraction of water	Viscosity, Pa*s	uncertainty
288.15	0	0.01998	0.00121
288.15	0.10164	0.01749	0.00096
288.15	0.20135	0.01514	0.00077
288.15	0.29995	0.01302	0.00061
288.15	0.40147	0.01108	0.00045
288.15	0.51064	0.00924	0.00032
288.15	0.5934	0.00786	0.00024
288.15	0.74651	0.00545	0.00013
288.15	0.79741	0.00458	0.0001
288.15	0.90037	0.00276	4e-05
288.15	0.94978	0.00193	3e-05
288.15	1	0.00113	1e-05
293.15	0	0.01693	0.00103
293.15	0.10164	0.01489	0.00081
293.15	0.20135	0.01298	0.00066
293.15	0.29995	0.01123	0.00052
293.15	0.40147	0.00959	0.00039
293.15	0.51064	0.008	0.00028
293.15	0.5934	0.00683	0.00021
293.15	0.74651	0.00474	0.00011
293.15	0.79741	0.00399	9e-05
293.15	0.90037	0.00241	4e-05
293.15	0.94978	0.00169	2e-05
293.15	1	0.001	1e-05
298.15	0	0.01454	0.00088
298.15	0.10164	0.01286	0.0007
298.15	0.20135	0.01123	0.00057
298.15	0.29995	0.00977	0.00046
298.15	0.40147	0.00837	0.00034
298.15	0.51064	0.00701	0.00024
298.15	0.5934	0.00599	0.00019
298.15	0.74651	0.00416	0.0001
298.15	0.79741	0.0035	7e-05
298.15	0.90037	0.00213	3e-05
298.15	0.94978	0.0015	2e-05
298.15	1	0.00089	1e-05
303.15	0	0.01263	0.00077
303.15	0.10164	0.01121	0.00061
303.15	0.20135	0.00984	0.0005
303.15	0.29995	0.00859	0.0004
303.15	0.40147	0.00738	0.0003
303.15	0.51064	0.00619	0.00022
303.15	0.5934	0.00529	0.00016
303.15	0.74651	0.00367	9e-05
303.15	0.79741	0.00309	7e-05
303.15	0.90037	0.00189	3e-05
303.15	0.94978	0.00134	2e-05
303.15	1	0.00079	1e-05
308.15	0	0.01105	0.00067
308.15	0.10164	0.00986	0.00054
308.15	0.20135	0.00869	0.00044
308.15	0.29995	0.00761	0.00036
308.15	0.40147	0.00655	0.00027
308.15	0.51064	0.0055	0.00019
308.15	0.5934	0.00471	0.00015
308.15	0.74651	0.00327	8e-05
308.15	0.79741	0.00276	6e-05
308.15	0.90037	0.0017	3e-05
308.15	0.94978	0.0012	2e-05
308.15	1	0.00072	1e-05
313.15	0	0.00976	0.00059
313.15	0.10164	0.00874	0.00048
313.15	0.20135	0.00773	0.00039
313.15	0.29995	0.00679	0.00032
313.15	0.40147	0.00586	0.00024
313.15	0.51064	0.00493	0.00017
313.15	0.5934	0.00423	0.00013
313.15	0.74651	0.00293	7e-05
313.15	0.79741	0.00248	5e-05
313.15	0.90037	0.00153	2e-05
313.15	0.94978	0.00109	2e-05
313.15	1	0.00065	1e-05
318.15	0	0.00869	0.00053
318.15	0.10164	0.00779	0.00043
318.15	0.20135	0.00692	0.00035
318.15	0.29995	0.0061	0.00028
318.15	0.40147	0.00527	0.00021
318.15	0.51064	0.00445	0.00016
318.15	0.5934	0.00381	0.00012
318.15	0.74651	0.00264	6e-05
318.15	0.79741	0.00224	5e-05
318.15	0.90037	0.00139	2e-05
318.15	0.94978	0.00099	1e-05
318.15	1	0.00059	1e-05
