Measured thermophysical data. Experimental density and viscosity measurements of di(2ethylhexyl)sebacate at high pressure
Source: J. Chem. Thermodyn., 2012, 10.1016/j.jct.2011.07.005
Compound 1: bis(2-ethylhexyl) decanedioate, C26H50O4, InChI=1S/C26H50O4/c1-5-9-17-23(7-3)21-29-25(27)19-15-13-11-12-14-16-20-26(28)30-22-24(8-4)18-10-6-2/h23-24H,5-22H2,1-4H3, purity 98%

System: bis(2-ethylhexyl) decanedioate; phases: Liquid, Air at 1 atmosphere
Property: Viscosity, Pa*s (Liquid); method: Concentric cylinders viscometry
Temperature, K	Viscosity, Pa*s	uncertainty
278.15	0.04204	0.00095
283.15	0.03277	0.00074
288.15	0.02601	0.00059
293.15	0.021	0.00048
298.15	0.01721	0.00039
303.15	0.01432	0.00032
308.15	0.01207	0.00027
313.15	0.01028	0.00023
318.15	0.008845	0.0002
323.15	0.007679	0.000174
328.15	0.006727	0.000152
333.15	0.005939	0.000134
338.15	0.005275	0.000119
343.15	0.004719	0.000107
348.15	0.004248	9.6e-05
353.15	0.003843	8.7e-05
358.15	0.003494	7.9e-05
363.15	0.003169	7.2e-05
368.15	0.002902	6.6e-05
373.15	0.002661	6.1e-05

System: bis(2-ethylhexyl) decanedioate; phases: Liquid
Fixed: Pressure, kPa = 101.325
Property: Mass density, kg/m3 (Liquid); method: Vibrating tube method
Temperature, K	Mass density, kg/m3	uncertainty
278.15	924.7	1.6
283.15	921.2	1.6
288.15	917.6	1.6
293.15	913.9	1.6
298.15	910.3	1.6
303.15	906.7	1.6
308.15	903.1	1.6
313.15	899.5	1.5
318.15	895.9	1.5
323.15	892.3	1.5
328.15	888.7	1.5
333.15	885.1	1.5
338.15	881.4	1.5
343.15	877.9	1.5
348.15	874.3	1.5
353.15	870.7	1.5
358.15	867.1	1.5
363.15	863.7	1.5
368.15	859.9	1.5
373.15	856.4	1.5

System: bis(2-ethylhexyl) decanedioate; phases: Liquid
Property: Viscosity, Pa*s (Liquid); method: Falling or rolling sphere viscometry
Temperature, K	Pressure, kPa	Viscosity, Pa*s	uncertainty
298.15	100	0.017	0.0014
298.15	1000	0.0173	0.0014
298.15	5000	0.0184	0.0015
298.15	10000	0.0199	0.0016
298.15	15000	0.0215	0.0017
298.15	20000	0.0232	0.0019
298.15	30000	0.0268	0.0022
298.15	40000	0.0308	0.0025
298.15	45000	0.033	0.0027
298.15	50000	0.0352	0.0028
298.15	60000	0.04	0.0032
313.15	100	0.0102	0.0008
313.15	1000	0.0103	0.0008
313.15	5000	0.0109	0.0009
313.15	10000	0.0117	0.0009
313.15	15000	0.0125	0.001
313.15	20000	0.0134	0.0011
313.15	30000	0.0152	0.0012
313.15	40000	0.0173	0.0014
313.15	45000	0.0184	0.0015
313.15	50000	0.0196	0.0016
313.15	60000	0.022	0.0018
323.15	100	0.00753	0.00061
323.15	1000	0.00763	0.00062
323.15	5000	0.00809	0.00065
323.15	10000	0.00868	0.0007
323.15	15000	0.00929	0.00075
323.15	20000	0.00994	0.0008
323.15	30000	0.0113	0.0009
323.15	40000	0.0128	0.001
323.15	45000	0.0136	0.0011
323.15	50000	0.0144	0.0012
323.15	60000	0.016	0.0013
348.15	100	0.00417	0.00034
348.15	1000	0.00421	0.00034
348.15	5000	0.00442	0.00036
348.15	10000	0.00469	0.00038
348.15	15000	0.00497	0.0004
348.15	20000	0.00528	0.00043
348.15	30000	0.00594	0.00048
348.15	40000	0.00668	0.00054
348.15	45000	0.00707	0.00057
348.15	50000	0.00748	0.00061
348.15	60000	0.00837	0.00068
373.15	100	0.00267	0.00022
373.15	1000	0.0027	0.00022
373.15	5000	0.00284	0.00023
373.15	10000	0.00303	0.00025
373.15	15000	0.00322	0.00026
373.15	20000	0.00342	0.00028
373.15	30000	0.00383	0.00031
373.15	40000	0.00427	0.00035
373.15	45000	0.00449	0.00036
373.15	50000	0.00472	0.00038
373.15	60000	0.00519	0.00042
398.15	100	0.00184	0.00015
398.15	1000	0.00186	0.00015
398.15	5000	0.00196	0.00016
398.15	10000	0.00207	0.00017
398.15	15000	0.0022	0.00018
398.15	20000	0.00232	0.00019
398.15	30000	0.00259	0.00021
398.15	40000	0.00286	0.00023
398.15	45000	0.00301	0.00024
398.15	50000	0.00316	0.00026
398.15	60000	0.00346	0.00028

System: bis(2-ethylhexyl) decanedioate; phases: Liquid
Property: Mass density, kg/m3 (Liquid); method: Vibrating tube method
Temperature, K	Pressure, kPa	Mass density, kg/m3	uncertainty
298.15	100	909.8	1.6
298.15	1000	910.4	1.6
298.15	5000	912.8	1.6
298.15	10000	915.6	1.6
298.15	15000	918.4	1.6
298.15	20000	921.2	1.6
298.15	30000	926.4	1.6
298.15	40000	931.4	1.6
298.15	45000	933.8	1.6
298.15	50000	936.1	1.6
298.15	60000	940.6	1.6
323.15	100	892	1.5
323.15	1000	892.6	1.5
323.15	5000	895.3	1.6
323.15	10000	898.5	1.6
323.15	15000	901.7	1.6
323.15	20000	904.7	1.6
323.15	30000	910.4	1.6
323.15	40000	915.8	1.6
323.15	45000	918.4	1.6
323.15	50000	920.9	1.6
323.15	60000	925.7	1.6
348.15	100	874	1.5
348.15	1000	874.7	1.5
348.15	5000	877.7	1.5
348.15	10000	881.3	1.6
348.15	15000	884.8	1.6
348.15	20000	888.2	1.6
348.15	30000	894.5	1.6
348.15	40000	900.5	1.6
348.15	45000	903.3	1.6
348.15	50000	906	1.6
348.15	60000	911.3	1.6
373.15	1000	856.9	1.5
373.15	5000	860.3	1.5
373.15	10000	864.3	1.6
373.15	15000	868.1	1.6
373.15	20000	871.8	1.6
373.15	30000	878.8	1.6
373.15	40000	885.2	1.6
373.15	45000	888.3	1.6
373.15	50000	891.3	1.6
373.15	60000	897	1.7
398.15	1000	839	1.5
398.15	5000	842.8	1.5
398.15	10000	847.3	1.6
398.15	15000	851.6	1.6
398.15	20000	855.8	1.6
398.15	30000	863.4	1.6
398.15	40000	870.4	1.6
398.15	45000	873.7	1.6
398.15	50000	877	1.6
398.15	60000	883.1	1.7
