Measured thermophysical data. (Liquid + liquid) equilibria of (water + linalool + limonene) ternary system at T = (298.15, 308.15, and 318.15) K
Source: J. Chem. Thermodyn., 2008, 10.1016/j.jct.2008.06.012
Compound 1: water, H2O, InChI=1S/H2O/h1H2
Compound 2: (R)-1-methyl-4-(1-methylethenyl)cyclohexene, C10H16, InChI=1S/C10H16/c1-8(2)10-6-4-9(3)5-7-10/h4,10H,1,5-7H2,2-3H3/t10-/m0/s1, purity 97.5%
Compound 3: 3,7-dimethyl-1,6-octadien-3-ol, C10H18O, InChI=1S/C10H18O/c1-5-10(4,11)8-6-7-9(2)3/h5,7,11H,1,6,8H2,2-4H3, purity 97.5%

System: 3,7-dimethyl-1,6-octadien-3-ol + (R)-1-methyl-4-(1-methylethenyl)cyclohexene + water; phases: Liquid mixture 1, Liquid mixture 2
Fixed: Pressure, kPa = 101
Property: Mass fraction of water (Liquid mixture 1); method: Chromatography
Property: Mass fraction of water (Liquid mixture 2); method: Chromatography
Property: Mass fraction of 3,7-dimethyl-1,6-octadien-3-ol (Liquid mixture 2); method: Chromatography
Temperature, K	Mass fraction of 3,7-dimethyl-1,6-octadien-3-ol	Mass fraction of water	uncertainty	Mass fraction of water	uncertainty	Mass fraction of 3,7-dimethyl-1,6-octadien-3-ol	uncertainty
298.15	0	1	0.0001	0	0.001	0	
298.15	0	1	0.0001	0	0.001	0.098	
298.15	0	1	0.0001	0	0.001	0.182	
298.15	0	1	0.0001	0	0.001	0.291	
298.15	0	1	0.0001	0.008	0.008	0.348	
298.15	0.0001	0.9999	0.0001	0.028	0.01	0.411	
298.15	0.0001	0.9999	0.0001	0.046	0.01	0.481	
298.15	0.0001	0.9999	0.0001	0.063	0.01	0.568	
298.15	0.0001	0.9999	0.0001	0.073	0.01	0.632	
298.15	0.0001	0.9999	0.0001	0.086	0.011	0.691	
298.15	0.0001	0.9999	0.0001	0.123	0.012	0.782	
298.15	0.0001	0.9999	0.0001	0.171	0.014	0.829	
308.15	0	1	0.0001	0	0.001	0	
308.15	0	1	0.0001	0	0.001	0.12	
308.15	0	1	0.0001	0.007	0.007	0.18	
308.15	0.0001	0.9999	0.0001	0.02	0.01	0.275	
308.15	0.0001	0.9999	0.0001	0.03	0.01	0.339	
308.15	0.0001	0.9999	0.0001	0.038	0.01	0.413	
308.15	0.0001	0.9999	0.0001	0.052	0.01	0.476	
308.15	0.0001	0.9999	0.0001	0.078	0.01	0.572	
308.15	0.0001	0.9999	0.0001	0.088	0.01	0.62	
308.15	0.0001	0.9999	0.0001	0.118	0.011	0.707	
308.15	0.0001	0.9999	0.0001	0.155	0.02	0.745	
308.15	0.0001	0.9999	0.0001	0.229	0.021	0.771	
318.15	0	1	0.0001	0.034	0.01	0	
318.15	0.0001	0.9999	0.0001	0.038	0.01	0.105	
318.15	0.0001	0.9999	0.0001	0.04	0.01	0.18	
318.15	0.0001	0.9999	0.0001	0.054	0.01	0.284	
318.15	0.0001	0.9999	0.0001	0.053	0.01	0.321	
318.15	0.0002	0.9998	0.0002	0.069	0.01	0.419	
318.15	0.0002	0.9998	0.0002	0.074	0.01	0.464	
318.15	0.0002	0.9998	0.0002	0.095	0.01	0.567	
318.15	0.0002	0.9998	0.0002	0.111	0.012	0.619	
318.15	0.0002	0.9998	0.0002	0.159	0.015	0.678	
318.15	0.0002	0.9998	0.0002	0.209	0.036	0.701	
318.15	0.0003	0.9997	0.0003	0.287	0.066	0.713	
