Measured thermophysical data. Volumetric and viscometric properties of binary and ternary mixtures of 1-butyl-3-methylimidazolium tetrafluoroborate, monoethanolamine and water
Source: J. Chem. Thermodyn., 2016, 10.1016/j.jct.2016.07.041
Compound 1: 1-butyl-3-methylimidazolium tetrafluoroborate, C8H15BF4N2, InChI=1S/C8H15N2.BF4/c1-3-4-5-10-7-6-9(2)8-10;2-1(3,4)5/h6-8H,3-5H2,1-2H3;/q+1;-1, purity 99.5%
Compound 2: 2-aminoethan-1-ol, C2H7NO, InChI=1S/C2H7NO/c3-1-2-4/h4H,1-3H2, purity 99.5%
Compound 3: water, H2O, InChI=1S/H2O/h1H2, purity 99.8%

System: 1-butyl-3-methylimidazolium tetrafluoroborate; phases: Liquid
Fixed: Pressure, kPa = 101.325
Property: Mass density, kg/m3 (Liquid); method: Vibrating tube method
Temperature, K	Mass density, kg/m3	uncertainty
293.15	1205.1	1.2
303.15	1198	1.2
313.15	1190.8	1.2
323.15	1183.7	1.2
333.15	1176.8	1.2

System: 1-butyl-3-methylimidazolium tetrafluoroborate; phases: Liquid
Fixed: Pressure, kPa = 101.325
Property: Viscosity, Pa*s (Liquid); method: Capillary tube (Ostwald; Ubbelohde) method
Temperature, K	Viscosity, Pa*s	uncertainty
293.15	0.13912	0.00866
303.15	0.08249	0.00501
313.15	0.05233	0.00315
323.15	0.03516	0.00212
333.15	0.02469	0.00149

System: 2-aminoethan-1-ol; phases: Liquid
Fixed: Pressure, kPa = 101.325
Property: Mass density, kg/m3 (Liquid); method: Vibrating tube method
Temperature, K	Mass density, kg/m3	uncertainty
293.15	1015.5	1
303.15	1007.6	1
313.15	999.7	1
323.15	991.7	1
333.15	983.6	1

System: 2-aminoethan-1-ol; phases: Liquid
Fixed: Pressure, kPa = 101.325
Property: Viscosity, Pa*s (Liquid); method: Capillary tube (Ostwald; Ubbelohde) method
Temperature, K	Viscosity, Pa*s	uncertainty
293.15	0.02365	0.00143
303.15	0.01475	0.00089
313.15	0.00978	0.00059
323.15	0.00681	0.00041
333.15	0.00499	0.0003

System: water + 1-butyl-3-methylimidazolium tetrafluoroborate; phases: Liquid
Fixed: Pressure, kPa = 101
Property: Mass density, kg/m3 (Liquid); method: Vibrating tube method
Temperature, K	Mole fraction of 1-butyl-3-methylimidazolium tetrafluoroborate	Mass density, kg/m3	uncertainty
293.15	0.0998	1103.7	1.9
293.15	0.1998	1141.5	1.6
293.15	0.2994	1161.1	1.3
293.15	0.3992	1173.4	1.3
293.15	0.5005	1182.3	1.2
293.15	0.5984	1188.9	1.2
293.15	0.6985	1194.2	1.2
293.15	0.7988	1198.5	1.2
293.15	0.8982	1202	1.2
303.15	0.0998	1097.3	1.9
303.15	0.1998	1134.5	1.6
303.15	0.2994	1153.8	1.3
303.15	0.3992	1166	1.2
303.15	0.5005	1175	1.2
303.15	0.5984	1181.6	1.2
303.15	0.6985	1187	1.2
303.15	0.7988	1191.4	1.2
303.15	0.8982	1195	1.2
313.15	0.0998	1090.3	1.8
313.15	0.1998	1126.9	1.6
313.15	0.2994	1146.3	1.3
313.15	0.3992	1158.7	1.2
313.15	0.5005	1167.7	1.2
313.15	0.5984	1174.3	1.2
313.15	0.6985	1179.8	1.2
313.15	0.7988	1184.3	1.2
313.15	0.8982	1187.8	1.2
323.15	0.0998	1083.4	1.8
323.15	0.1998	1119.6	1.6
323.15	0.2994	1139	1.3
323.15	0.3992	1151.4	1.2
323.15	0.5005	1160.5	1.2
323.15	0.5984	1167.1	1.2
323.15	0.6985	1172.6	1.2
323.15	0.7988	1177.1	1.2
323.15	0.8982	1180.6	1.2
333.15	0.0998	1076.4	1.8
333.15	0.1998	1112.2	1.6
333.15	0.2994	1131.5	1.3
333.15	0.3992	1144	1.2
333.15	0.5005	1153.3	1.2
333.15	0.5984	1160.1	1.2
333.15	0.6985	1165.7	1.2
333.15	0.7988	1170	1.2
333.15	0.8982	1173.6	1.2
293.15	1	1205.1	1.2
303.15	1	1198	1.2
313.15	1	1190.8	1.2
323.15	1	1183.7	1.2
333.15	1	1176.8	1.2

System: water + 1-butyl-3-methylimidazolium tetrafluoroborate; phases: Liquid
Fixed: Pressure, kPa = 101
Property: Viscosity, Pa*s (Liquid); method: Capillary tube (Ostwald; Ubbelohde) method
Temperature, K	Mole fraction of 1-butyl-3-methylimidazolium tetrafluoroborate	Viscosity, Pa*s	uncertainty
293.15	0.0998	0.00323	0.00022
293.15	0.1998	0.00552	0.00035
293.15	0.2994	0.00841	0.00052
293.15	0.3992	0.0123	0.00077
293.15	0.5005	0.01796	0.00112
293.15	0.5984	0.02598	0.00162
293.15	0.6985	0.03921	0.00246
293.15	0.7988	0.05953	0.00372
293.15	0.8982	0.08935	0.00567
303.15	0.0998	0.00241	0.00016
303.15	0.1998	0.00412	0.00026
303.15	0.2994	0.00621	0.00039
303.15	0.3992	0.00895	0.00056
303.15	0.5005	0.01287	0.0008
303.15	0.5984	0.0181	0.00112
303.15	0.6985	0.02648	0.00165
303.15	0.7988	0.03886	0.00242
303.15	0.8982	0.05567	0.00346
313.15	0.0998	0.00188	0.00012
313.15	0.1998	0.0032	0.0002
313.15	0.2994	0.00478	0.0003
313.15	0.3992	0.00679	0.00042
313.15	0.5005	0.00963	0.00059
313.15	0.5984	0.01327	0.00082
313.15	0.6985	0.0189	0.00117
313.15	0.7988	0.02655	0.00164
313.15	0.8982	0.03701	0.00229
323.15	0.0998	0.00151	0.0001
323.15	0.1998	0.00256	0.00016
323.15	0.2994	0.00379	0.00024
323.15	0.3992	0.00534	0.00033
323.15	0.5005	0.0075	0.00046
323.15	0.5984	0.01011	0.00062
323.15	0.6985	0.01406	0.00087
323.15	0.7988	0.01905	0.00117
323.15	0.8982	0.02516	0.00155
333.15	0.0998	0.00124	8e-05
333.15	0.1998	0.0021	0.00013
333.15	0.2994	0.0031	0.00019
333.15	0.3992	0.00431	0.00027
333.15	0.5005	0.006	0.00037
333.15	0.5984	0.00799	0.00049
333.15	0.6985	0.01079	0.00066
333.15	0.7988	0.01431	0.00088
333.15	0.8982	0.01853	0.00114
293.15	1	0.13912	0.00866
303.15	1	0.08249	0.00501
313.15	1	0.05233	0.00315
323.15	1	0.03516	0.00212
333.15	1	0.02469	0.00149

System: 2-aminoethan-1-ol + 1-butyl-3-methylimidazolium tetrafluoroborate; phases: Liquid
Fixed: Pressure, kPa = 101
Property: Mass density, kg/m3 (Liquid); method: Vibrating tube method
Temperature, K	Mole fraction of 1-butyl-3-methylimidazolium tetrafluoroborate	Mass density, kg/m3	uncertainty
293.15	0.1001	1065.1	2
293.15	0.2	1098.6	1.6
293.15	0.2999	1123	1.4
293.15	0.3751	1137.9	1.3
293.15	0.5002	1157.4	1.3
293.15	0.5997	1169.7	1.3
293.15	0.6996	1180.2	1.3
293.15	0.8	1189.4	1.3
293.15	0.9003	1197.8	1.3
303.15	0.1001	1057.3	2
303.15	0.2	1090.6	1.6
303.15	0.2999	1115.4	1.4
303.15	0.3751	1130.3	1.3
303.15	0.5002	1149.9	1.3
303.15	0.5997	1162.5	1.3
303.15	0.6996	1173	1.2
303.15	0.8	1182.3	1.2
303.15	0.9003	1190.6	1.2
313.15	0.1001	1049.3	2
313.15	0.2	1082.8	1.6
313.15	0.2999	1107.6	1.4
313.15	0.3751	1122.5	1.3
313.15	0.5002	1142.3	1.3
313.15	0.5997	1154.9	1.3
313.15	0.6996	1165.4	1.2
313.15	0.8	1174.8	1.2
313.15	0.9003	1183.4	1.2
323.15	0.1001	1041.4	2
323.15	0.2	1075	1.6
323.15	0.2999	1099.8	1.4
323.15	0.3751	1114.8	1.3
323.15	0.5002	1134.7	1.3
323.15	0.5997	1147.4	1.3
323.15	0.6996	1158.2	1.2
323.15	0.8	1167.5	1.2
323.15	0.9003	1176.1	1.2
333.15	0.1001	1033.4	2
333.15	0.2	1067.2	1.6
333.15	0.2999	1092.1	1.4
333.15	0.3751	1107.1	1.3
333.15	0.5002	1127.1	1.3
333.15	0.5997	1139.9	1.2
333.15	0.6996	1150.7	1.2
333.15	0.8	1160.3	1.2
333.15	0.9003	1169.1	1.2
293.15	1	1205.1	1.2
303.15	1	1198	1.2
313.15	1	1190.8	1.2
323.15	1	1183.7	1.2
333.15	1	1176.8	1.2
293.15	0	1015.5	1
303.15	0	1007.6	1
313.15	0	999.7	1
323.15	0	991.7	1
333.15	0	983.6	1

System: 2-aminoethan-1-ol + 1-butyl-3-methylimidazolium tetrafluoroborate; phases: Liquid
Fixed: Pressure, kPa = 101
Property: Viscosity, Pa*s (Liquid); method: Capillary tube (Ostwald; Ubbelohde) method
Temperature, K	Mole fraction of 1-butyl-3-methylimidazolium tetrafluoroborate	Viscosity, Pa*s	uncertainty
293.15	0.1001	0.02623	0.00159
293.15	0.2	0.02902	0.00175
293.15	0.2999	0.03291	0.00199
293.15	0.3751	0.03629	0.0022
293.15	0.5002	0.04339	0.00263
293.15	0.5997	0.05166	0.00313
293.15	0.6996	0.06128	0.00373
293.15	0.8	0.07578	0.00465
293.15	0.9003	0.09871	0.00617
303.15	0.1001	0.01627	0.00098
303.15	0.2	0.01798	0.00109
303.15	0.2999	0.02036	0.00123
303.15	0.3751	0.02248	0.00136
303.15	0.5002	0.02671	0.00162
303.15	0.5997	0.03182	0.00193
303.15	0.6996	0.03757	0.00229
303.15	0.8	0.0465	0.00284
303.15	0.9003	0.05985	0.00368
313.15	0.1001	0.01072	0.00065
313.15	0.2	0.01184	0.00072
313.15	0.2999	0.01345	0.00081
313.15	0.3751	0.01489	0.0009
313.15	0.5002	0.01778	0.00108
313.15	0.5997	0.02098	0.00127
313.15	0.6996	0.02439	0.00148
313.15	0.8	0.03043	0.00186
313.15	0.9003	0.03919	0.0024
323.15	0.1001	0.00739	0.00045
323.15	0.2	0.00821	0.0005
323.15	0.2999	0.00929	0.00056
323.15	0.3751	0.01041	0.00063
323.15	0.5002	0.0124	0.00075
323.15	0.5997	0.01453	0.00088
323.15	0.6996	0.01703	0.00104
323.15	0.8	0.02112	0.00129
323.15	0.9003	0.02665	0.00163
333.15	0.1001	0.00538	0.00033
333.15	0.2	0.00602	0.00036
333.15	0.2999	0.00682	0.00041
333.15	0.3751	0.00757	0.00046
333.15	0.5002	0.00911	0.00055
333.15	0.5997	0.0106	0.00064
333.15	0.6996	0.01251	0.00076
333.15	0.8	0.01541	0.00094
333.15	0.9003	0.01922	0.00117
293.15	1	0.13912	0.00866
303.15	1	0.08249	0.00501
313.15	1	0.05233	0.00315
323.15	1	0.03516	0.00212
333.15	1	0.02469	0.00149
293.15	0	0.02365	0.00143
303.15	0	0.01475	0.00089
313.15	0	0.00978	0.00059
323.15	0	0.00681	0.00041
333.15	0	0.00499	0.0003

System: 2-aminoethan-1-ol + water; phases: Liquid
Fixed: Pressure, kPa = 101
Property: Mass density, kg/m3 (Liquid); method: Vibrating tube method
Temperature, K	Mole fraction of 2-aminoethan-1-ol	Mass density, kg/m3	uncertainty
293.15	0.0996	1010.9	1.1
293.15	0.1991	1021.6	1.1
293.15	0.2986	1027.4	1
293.15	0.3977	1029.4	1
293.15	0.4967	1028.9	1
293.15	0.5958	1027	1
293.15	0.6946	1024.4	1
293.15	0.7932	1021.6	1
293.15	0.8919	1018.7	1
303.15	0.0996	1006.8	1.1
303.15	0.1991	1016.1	1.1
303.15	0.2986	1021	1
303.15	0.3977	1022.5	1
303.15	0.4967	1021.5	1
303.15	0.5958	1019.4	1
303.15	0.6946	1016.8	1
303.15	0.7932	1013.8	1
303.15	0.8919	1010.8	1
313.15	0.0996	1002.1	1.1
313.15	0.1991	1010.2	1
313.15	0.2986	1014.4	1
313.15	0.3977	1015.4	1
313.15	0.4967	1014.2	1
313.15	0.5958	1011.9	1
313.15	0.6946	1009	1
313.15	0.7932	1006	1
313.15	0.8919	1002.9	1
323.15	0.0996	996.9	1
323.15	0.1991	1004	1
323.15	0.2986	1007.5	1
323.15	0.3977	1007.8	1
323.15	0.4967	1006.6	1
323.15	0.5958	1004.3	1
323.15	0.6946	1001.2	1
323.15	0.7932	998.2	1
323.15	0.8919	995	1
333.15	0.0996	991.2	1
333.15	0.1991	997.6	1
333.15	0.2986	1000.4	1
333.15	0.3977	1000.6	1
333.15	0.4967	999	1
333.15	0.5958	996.5	1
333.15	0.6946	993.4	1
333.15	0.7932	990.2	1
333.15	0.8919	987	1
293.15	1	1015.5	1
303.15	1	1007.6	1
313.15	1	999.7	1
323.15	1	991.7	1
333.15	1	983.6	1

System: 2-aminoethan-1-ol + water; phases: Liquid
Fixed: Pressure, kPa = 101
Property: Viscosity, Pa*s (Liquid); method: Capillary tube (Ostwald; Ubbelohde) method
Temperature, K	Mole fraction of 2-aminoethan-1-ol	Viscosity, Pa*s	uncertainty
293.15	0.0996	0.00254	0.00019
293.15	0.1991	0.00552	0.00037
293.15	0.2986	0.01006	0.00064
293.15	0.3977	0.0151	0.00093
293.15	0.4967	0.01957	0.00119
293.15	0.5958	0.02291	0.00138
293.15	0.6946	0.02448	0.00148
293.15	0.7932	0.025	0.00151
293.15	0.8919	0.02458	0.00148
303.15	0.0996	0.00189	0.00014
303.15	0.1991	0.00384	0.00025
303.15	0.2986	0.00665	0.00042
303.15	0.3977	0.00964	0.00059
303.15	0.4967	0.01222	0.00074
303.15	0.5958	0.01408	0.00085
303.15	0.6946	0.01501	0.00091
303.15	0.7932	0.01536	0.00093
303.15	0.8919	0.01516	0.00092
313.15	0.0996	0.00145	0.0001
313.15	0.1991	0.0028	0.00018
313.15	0.2986	0.00462	0.00029
313.15	0.3977	0.00652	0.0004
313.15	0.4967	0.0081	0.00049
313.15	0.5958	0.00933	0.00056
313.15	0.6946	0.00975	0.00059
313.15	0.7932	0.00998	0.0006
313.15	0.8919	0.00994	0.0006
323.15	0.0996	0.00115	8e-05
323.15	0.1991	0.00209	0.00013
323.15	0.2986	0.00335	0.00021
323.15	0.3977	0.00466	0.00029
323.15	0.4967	0.00567	0.00034
323.15	0.5958	0.00646	0.00039
323.15	0.6946	0.0069	0.00042
323.15	0.7932	0.00691	0.00042
323.15	0.8919	0.00689	0.00042
333.15	0.0996	0.00093	6e-05
333.15	0.1991	0.00162	0.0001
333.15	0.2986	0.00252	0.00016
333.15	0.3977	0.00341	0.00021
333.15	0.4967	0.00409	0.00025
333.15	0.5958	0.00465	0.00028
333.15	0.6946	0.00495	0.0003
333.15	0.7932	0.00499	0.0003
333.15	0.8919	0.00499	0.0003
293.15	1	0.02365	0.00143
303.15	1	0.01475	0.00089
313.15	1	0.00978	0.00059
323.15	1	0.00681	0.00041
333.15	1	0.00499	0.0003

System: 2-aminoethan-1-ol + water + 1-butyl-3-methylimidazolium tetrafluoroborate; phases: Liquid
Fixed: Pressure, kPa = 101
Property: Mass density, kg/m3 (Liquid); method: Vibrating tube method
Temperature, K	Mole fraction of 1-butyl-3-methylimidazolium tetrafluoroborate	Mole fraction of 2-aminoethan-1-ol	Mass density, kg/m3	uncertainty
293.15	0.0996	0.0896	1102.1	1.8
293.15	0.1986	0.0794	1138.6	1.6
293.15	0.2974	0.0693	1157.7	1.3
293.15	0.3956	0.0593	1170.6	1.3
293.15	0.4936	0.0493	1179.7	1.2
293.15	0.5908	0.0394	1187	1.2
293.15	0.6876	0.0295	1192.7	1.2
293.15	0.7847	0.0198	1197.3	1.2
293.15	0.8808	0.0098	1201.7	1.2
303.15	0.0996	0.0896	1095.1	1.8
303.15	0.1986	0.0794	1131.1	1.6
303.15	0.2974	0.0693	1150.6	1.3
303.15	0.3956	0.0593	1163.5	1.3
303.15	0.4936	0.0493	1172.9	1.2
303.15	0.5908	0.0394	1180	1.2
303.15	0.6876	0.0295	1185.7	1.2
303.15	0.7847	0.0198	1190.2	1.2
303.15	0.8808	0.0098	1194.5	1.2
313.15	0.0996	0.0896	1088.1	1.8
313.15	0.1986	0.0794	1123.5	1.6
313.15	0.2974	0.0693	1143	1.3
313.15	0.3956	0.0593	1156	1.3
313.15	0.4936	0.0493	1165.5	1.2
313.15	0.5908	0.0394	1172.7	1.2
313.15	0.6876	0.0295	1178.4	1.2
313.15	0.7847	0.0198	1183	1.2
313.15	0.8808	0.0098	1187.3	1.2
323.15	0.0996	0.0896	1080.3	1.8
323.15	0.1986	0.0794	1115.8	1.6
323.15	0.2974	0.0693	1135.4	1.3
323.15	0.3956	0.0593	1148.4	1.3
323.15	0.4936	0.0493	1158.1	1.2
323.15	0.5908	0.0394	1165.5	1.2
323.15	0.6876	0.0295	1171.3	1.2
323.15	0.7847	0.0198	1175.9	1.2
323.15	0.8808	0.0098	1180.2	1.2
333.15	0.0996	0.0896	1073	1.8
333.15	0.1986	0.0794	1108.1	1.6
333.15	0.2974	0.0693	1127.8	1.3
333.15	0.3956	0.0593	1141	1.2
333.15	0.4936	0.0493	1150.9	1.2
333.15	0.5908	0.0394	1158.3	1.2
333.15	0.6876	0.0295	1164.1	1.2
333.15	0.7847	0.0198	1168.8	1.2
333.15	0.8808	0.0098	1173.3	1.2
293.15	0.0994	0.2681	1095.9	1.8
293.15	0.1983	0.2379	1130	1.4
293.15	0.297	0.2077	1150.3	1.3
293.15	0.3952	0.1777	1164.6	1.2
293.15	0.493	0.1478	1175.1	1.2
293.15	0.5907	0.118	1183.2	1.2
293.15	0.6877	0.0883	1190.1	1.2
293.15	0.7846	0.0587	1195.9	1.2
293.15	0.8809	0.0293	1200.7	1.2
303.15	0.0994	0.2681	1088.7	1.7
303.15	0.1983	0.2379	1122.5	1.4
303.15	0.297	0.2077	1143.2	1.3
303.15	0.3952	0.1777	1157.3	1.2
303.15	0.493	0.1478	1168	1.2
303.15	0.5907	0.118	1176.3	1.2
303.15	0.6877	0.0883	1183	1.2
303.15	0.7846	0.0587	1188.7	1.2
303.15	0.8809	0.0293	1193.6	1.2
313.15	0.0994	0.2681	1081.2	1.7
313.15	0.1983	0.2379	1114.7	1.4
313.15	0.297	0.2077	1135.4	1.3
313.15	0.3952	0.1777	1149.7	1.2
313.15	0.493	0.1478	1160.4	1.2
313.15	0.5907	0.118	1168.9	1.2
313.15	0.6877	0.0883	1175.6	1.2
313.15	0.7846	0.0587	1181.4	1.2
313.15	0.8809	0.0293	1186.5	1.2
323.15	0.0994	0.2681	1073.5	1.7
323.15	0.1983	0.2379	1107	1.4
323.15	0.297	0.2077	1127.7	1.3
323.15	0.3952	0.1777	1142.1	1.2
323.15	0.493	0.1478	1152.9	1.2
323.15	0.5907	0.118	1161.5	1.2
323.15	0.6877	0.0883	1168.4	1.2
323.15	0.7846	0.0587	1174.2	1.2
323.15	0.8809	0.0293	1179.4	1.2
333.15	0.0994	0.2681	1065.8	1.7
333.15	0.1983	0.2379	1099.2	1.4
333.15	0.297	0.2077	1120	1.3
333.15	0.3952	0.1777	1134.5	1.2
333.15	0.493	0.1478	1145.5	1.2
333.15	0.5907	0.118	1154.2	1.2
333.15	0.6877	0.0883	1161.2	1.2
333.15	0.7846	0.0587	1167.1	1.2
333.15	0.8809	0.0293	1172.3	1.2
293.15	0.0993	0.4463	1087.6	1.5
293.15	0.1983	0.396	1121	1.3
293.15	0.2968	0.3459	1143.1	1.3
293.15	0.3949	0.2959	1158.6	1.2
293.15	0.4927	0.2461	1170.3	1.2
293.15	0.5903	0.1966	1179.8	1.2
293.15	0.6877	0.147	1187.4	1.2
293.15	0.7845	0.0978	1193.8	1.2
293.15	0.8804	0.049	1199.8	1.2
303.15	0.0993	0.4463	1080.1	1.5
303.15	0.1983	0.396	1113.4	1.3
303.15	0.2968	0.3459	1135.3	1.3
303.15	0.3949	0.2959	1150.8	1.2
303.15	0.4927	0.2461	1162.9	1.2
303.15	0.5903	0.1966	1172.4	1.2
303.15	0.6877	0.147	1180.2	1.2
303.15	0.7845	0.0978	1186.4	1.2
303.15	0.8804	0.049	1192.7	1.2
313.15	0.0993	0.4463	1072.4	1.5
313.15	0.1983	0.396	1105.6	1.3
313.15	0.2968	0.3459	1127.6	1.2
313.15	0.3949	0.2959	1143.1	1.2
313.15	0.4927	0.2461	1155.2	1.2
313.15	0.5903	0.1966	1164.9	1.2
313.15	0.6877	0.147	1172.7	1.2
313.15	0.7845	0.0978	1179.1	1.2
313.15	0.8804	0.049	1185.5	1.2
323.15	0.0993	0.4463	1064.6	1.5
323.15	0.1983	0.396	1097.7	1.3
323.15	0.2968	0.3459	1119.8	1.2
323.15	0.3949	0.2959	1135.5	1.2
323.15	0.4927	0.2461	1147.7	1.2
323.15	0.5903	0.1966	1157.6	1.2
323.15	0.6877	0.147	1165.5	1.2
323.15	0.7845	0.0978	1172.3	1.2
323.15	0.8804	0.049	1178.4	1.2
333.15	0.0993	0.4463	1056.7	1.5
333.15	0.1983	0.396	1089.8	1.3
333.15	0.2968	0.3459	1112	1.2
333.15	0.3949	0.2959	1127.8	1.2
333.15	0.4927	0.2461	1140.3	1.2
333.15	0.5903	0.1966	1150.2	1.2
333.15	0.6877	0.147	1158.2	1.2
333.15	0.7845	0.0978	1165.2	1.2
333.15	0.8804	0.049	1171.3	1.2
293.15	0.0992	0.6241	1078.4	1.5
293.15	0.198	0.5538	1111.8	1.3
293.15	0.2965	0.4838	1135	1.5
293.15	0.3946	0.4139	1152	1.3
293.15	0.4926	0.3444	1165.1	1.3
293.15	0.5899	0.275	1175.9	1.2
293.15	0.6871	0.2059	1184.9	1.2
293.15	0.7841	0.137	1192.5	1.2
293.15	0.8803	0.0685	1199.2	1.2
303.15	0.0992	0.6241	1070.7	1.5
303.15	0.198	0.5538	1104	1.3
303.15	0.2965	0.4838	1127.3	1.5
303.15	0.3946	0.4139	1144.4	1.3
303.15	0.4926	0.3444	1157.7	1.3
303.15	0.5899	0.275	1168.5	1.2
303.15	0.6871	0.2059	1177.5	1.2
303.15	0.7841	0.137	1185.2	1.2
303.15	0.8803	0.0685	1192.1	1.2
313.15	0.0992	0.6241	1062.9	1.5
313.15	0.198	0.5538	1096.3	1.3
313.15	0.2965	0.4838	1119.4	1.5
313.15	0.3946	0.4139	1136.7	1.3
313.15	0.4926	0.3444	1150.1	1.3
313.15	0.5899	0.275	1160.9	1.2
313.15	0.6871	0.2059	1170.1	1.2
313.15	0.7841	0.137	1177.8	1.2
313.15	0.8803	0.0685	1184.9	1.2
323.15	0.0992	0.6241	1055.1	1.5
323.15	0.198	0.5538	1088.5	1.3
323.15	0.2965	0.4838	1111.6	1.5
323.15	0.3946	0.4139	1129	1.3
323.15	0.4926	0.3444	1142.5	1.2
323.15	0.5899	0.275	1153.4	1.2
323.15	0.6871	0.2059	1162.7	1.2
323.15	0.7841	0.137	1170.6	1.2
323.15	0.8803	0.0685	1177.6	1.2
333.15	0.0992	0.6241	1047.2	1.5
333.15	0.198	0.5538	1080.6	1.3
333.15	0.2965	0.4838	1103.8	1.5
333.15	0.3946	0.4139	1121.4	1.3
333.15	0.4926	0.3444	1134.9	1.2
333.15	0.5899	0.275	1146	1.2
333.15	0.6871	0.2059	1155.4	1.2
333.15	0.7841	0.137	1163.4	1.2
333.15	0.8803	0.0685	1170.5	1.2
293.15	0.099	0.8014	1069.4	1.6
293.15	0.1978	0.7112	1102.6	1.6
293.15	0.2961	0.6215	1126.9	1.5
293.15	0.3944	0.5318	1145.5	1.3
293.15	0.4921	0.4425	1160.1	1.3
293.15	0.59	0.3533	1172	1.2
293.15	0.6867	0.2648	1181.9	1.2
293.15	0.7837	0.1764	1190.6	1.2
293.15	0.8798	0.0879	1198.3	1.2
303.15	0.099	0.8014	1061.6	1.6
303.15	0.1978	0.7112	1094.7	1.6
303.15	0.2961	0.6215	1119.1	1.5
303.15	0.3944	0.5318	1137.8	1.3
303.15	0.4921	0.4425	1152.4	1.2
303.15	0.59	0.3533	1164.5	1.2
303.15	0.6867	0.2648	1174.6	1.2
303.15	0.7837	0.1764	1183.3	1.2
303.15	0.8798	0.0879	1191	1.2
313.15	0.099	0.8014	1053.7	1.6
313.15	0.1978	0.7112	1087.2	1.6
313.15	0.2961	0.6215	1111.3	1.5
313.15	0.3944	0.5318	1130.1	1.3
313.15	0.4921	0.4425	1144.8	1.2
313.15	0.59	0.3533	1157	1.2
313.15	0.6867	0.2648	1167.1	1.2
313.15	0.7837	0.1764	1176	1.2
313.15	0.8798	0.0879	1183.8	1.2
323.15	0.099	0.8014	1045.8	1.6
323.15	0.1978	0.7112	1079.3	1.6
323.15	0.2961	0.6215	1103.5	1.5
323.15	0.3944	0.5318	1122.4	1.3
323.15	0.4921	0.4425	1137.2	1.2
323.15	0.59	0.3533	1149.5	1.2
323.15	0.6867	0.2648	1159.7	1.2
323.15	0.7837	0.1764	1168.6	1.2
323.15	0.8798	0.0879	1176.7	1.2
333.15	0.099	0.8014	1037.9	1.6
333.15	0.1978	0.7112	1071.4	1.6
333.15	0.2961	0.6215	1095.7	1.5
333.15	0.3944	0.5318	1114.7	1.3
333.15	0.4921	0.4425	1129.6	1.2
333.15	0.59	0.3533	1142	1.2
333.15	0.6867	0.2648	1152.4	1.2
333.15	0.7837	0.1764	1161.5	1.2
333.15	0.8798	0.0879	1169.6	1.2

System: 2-aminoethan-1-ol + water + 1-butyl-3-methylimidazolium tetrafluoroborate; phases: Liquid
Fixed: Pressure, kPa = 101
Property: Viscosity, Pa*s (Liquid); method: Capillary tube (Ostwald; Ubbelohde) method
Temperature, K	Mole fraction of 1-butyl-3-methylimidazolium tetrafluoroborate	Mole fraction of 2-aminoethan-1-ol	Viscosity, Pa*s	uncertainty
293.15	0.0996	0.0896	0.00537	0.00038
293.15	0.1986	0.0794	0.00802	0.00054
293.15	0.2974	0.0693	0.01116	0.00072
293.15	0.3956	0.0593	0.01534	0.00097
293.15	0.4936	0.0493	0.02122	0.00134
293.15	0.5908	0.0394	0.02989	0.00187
293.15	0.6876	0.0295	0.04289	0.00268
293.15	0.7847	0.0198	0.0629	0.00393
293.15	0.8808	0.0098	0.08825	0.00555
303.15	0.0996	0.0896	0.00378	0.00026
303.15	0.1986	0.0794	0.00566	0.00037
303.15	0.2974	0.0693	0.0079	0.0005
303.15	0.3956	0.0593	0.01086	0.00068
303.15	0.4936	0.0493	0.01478	0.00092
303.15	0.5908	0.0394	0.02032	0.00126
303.15	0.6876	0.0295	0.02814	0.00174
303.15	0.7847	0.0198	0.03734	0.00233
303.15	0.8808	0.0098	0.0551	0.0035
313.15	0.0996	0.0896	0.00282	0.00019
313.15	0.1986	0.0794	0.00422	0.00027
313.15	0.2974	0.0693	0.00588	0.00037
313.15	0.3956	0.0593	0.00804	0.0005
313.15	0.4936	0.0493	0.0108	0.00067
313.15	0.5908	0.0394	0.0145	0.0009
313.15	0.6876	0.0295	0.01976	0.00122
313.15	0.7847	0.0198	0.02579	0.0016
313.15	0.8808	0.0098	0.03662	0.00229
323.15	0.0996	0.0896	0.00218	0.00014
323.15	0.1986	0.0794	0.00327	0.00021
323.15	0.2974	0.0693	0.00454	0.00028
323.15	0.3956	0.0593	0.00621	0.00038
323.15	0.4936	0.0493	0.00826	0.00051
323.15	0.5908	0.0394	0.01081	0.00067
323.15	0.6876	0.0295	0.01453	0.00089
323.15	0.7847	0.0198	0.01854	0.00114
323.15	0.8808	0.0098	0.0256	0.00159
333.15	0.0996	0.0896	0.00174	0.00012
333.15	0.1986	0.0794	0.00262	0.00017
333.15	0.2974	0.0693	0.00362	0.00023
333.15	0.3956	0.0593	0.00486	0.0003
333.15	0.4936	0.0493	0.00651	0.0004
333.15	0.5908	0.0394	0.00846	0.00052
333.15	0.6876	0.0295	0.01102	0.00068
333.15	0.7847	0.0198	0.01433	0.00088
333.15	0.8808	0.0098	0.01868	0.00114
293.15	0.0994	0.2681	0.01222	0.00078
293.15	0.1983	0.2379	0.01571	0.00098
293.15	0.297	0.2077	0.018	0.00112
293.15	0.3952	0.1777	0.02194	0.00137
293.15	0.493	0.1478	0.02736	0.00171
293.15	0.5907	0.118	0.03525	0.00222
293.15	0.6877	0.0883	0.04761	0.00299
293.15	0.7846	0.0587	0.06522	0.00414
293.15	0.8809	0.0293	0.09219	0.00578
303.15	0.0994	0.2681	0.0078	0.00049
303.15	0.1983	0.2379	0.00977	0.0006
303.15	0.297	0.2077	0.01174	0.00073
303.15	0.3952	0.1777	0.01458	0.0009
303.15	0.493	0.1478	0.01812	0.00112
303.15	0.5907	0.118	0.02328	0.00144
303.15	0.6877	0.0883	0.03108	0.00192
303.15	0.7846	0.0587	0.04096	0.00257
303.15	0.8809	0.0293	0.05663	0.00355
313.15	0.0994	0.2681	0.00541	0.00034
313.15	0.1983	0.2379	0.0067	0.00042
313.15	0.297	0.2077	0.00826	0.00051
313.15	0.3952	0.1777	0.01024	0.00063
313.15	0.493	0.1478	0.01273	0.00079
313.15	0.5907	0.118	0.01634	0.00101
313.15	0.6877	0.0883	0.02125	0.00131
313.15	0.7846	0.0587	0.02765	0.00172
313.15	0.8809	0.0293	0.03749	0.00233
323.15	0.0994	0.2681	0.00395	0.00025
323.15	0.1983	0.2379	0.0049	0.0003
323.15	0.297	0.2077	0.00612	0.00038
323.15	0.3952	0.1777	0.0076	0.00047
323.15	0.493	0.1478	0.00947	0.00058
323.15	0.5907	0.118	0.01192	0.00073
323.15	0.6877	0.0883	0.01538	0.00094
323.15	0.7846	0.0587	0.01967	0.00121
323.15	0.8809	0.0293	0.02595	0.0016
333.15	0.0994	0.2681	0.00301	0.00019
333.15	0.1983	0.2379	0.00375	0.00023
333.15	0.297	0.2077	0.00463	0.00029
333.15	0.3952	0.1777	0.00589	0.00036
333.15	0.493	0.1478	0.00729	0.00045
333.15	0.5907	0.118	0.0091	0.00056
333.15	0.6877	0.0883	0.01154	0.00071
333.15	0.7846	0.0587	0.0146	0.0009
333.15	0.8809	0.0293	0.0183	0.00112
293.15	0.0993	0.4463	0.01952	0.0012
293.15	0.1983	0.396	0.02215	0.00136
293.15	0.2968	0.3459	0.02503	0.00155
293.15	0.3949	0.2959	0.02821	0.00175
293.15	0.4927	0.2461	0.03368	0.00209
293.15	0.5903	0.1966	0.04221	0.00259
293.15	0.6877	0.147	0.05159	0.00324
293.15	0.7845	0.0978	0.06702	0.00417
293.15	0.8804	0.049	0.0952	0.00596
303.15	0.0993	0.4463	0.01218	0.00075
303.15	0.1983	0.396	0.01358	0.00083
303.15	0.2968	0.3459	0.01552	0.00096
303.15	0.3949	0.2959	0.01796	0.00111
303.15	0.4927	0.2461	0.02154	0.00132
303.15	0.5903	0.1966	0.02684	0.00165
303.15	0.6877	0.147	0.03265	0.00203
303.15	0.7845	0.0978	0.04241	0.00263
303.15	0.8804	0.049	0.05867	0.00365
313.15	0.0993	0.4463	0.00814	0.0005
313.15	0.1983	0.396	0.00907	0.00056
313.15	0.2968	0.3459	0.0104	0.00064
313.15	0.3949	0.2959	0.01215	0.00075
313.15	0.4927	0.2461	0.0147	0.0009
313.15	0.5903	0.1966	0.01824	0.00112
313.15	0.6877	0.147	0.02223	0.00137
313.15	0.7845	0.0978	0.02817	0.00174
313.15	0.8804	0.049	0.03856	0.00239
323.15	0.0993	0.4463	0.00568	0.00035
323.15	0.1983	0.396	0.00645	0.0004
323.15	0.2968	0.3459	0.00744	0.00046
323.15	0.3949	0.2959	0.00872	0.00054
323.15	0.4927	0.2461	0.0105	0.00064
323.15	0.5903	0.1966	0.01303	0.0008
323.15	0.6877	0.147	0.01585	0.00097
323.15	0.7845	0.0978	0.01994	0.00122
323.15	0.8804	0.049	0.02621	0.00161
333.15	0.0993	0.4463	0.00418	0.00026
333.15	0.1983	0.396	0.00474	0.00029
333.15	0.2968	0.3459	0.00555	0.00034
333.15	0.3949	0.2959	0.00658	0.0004
333.15	0.4927	0.2461	0.00793	0.00049
333.15	0.5903	0.1966	0.00971	0.00059
333.15	0.6877	0.147	0.01175	0.00072
333.15	0.7845	0.0978	0.01469	0.0009
333.15	0.8804	0.049	0.01905	0.00116
293.15	0.0992	0.6241	0.02436	0.00148
293.15	0.198	0.5538	0.02632	0.0016
293.15	0.2965	0.4838	0.02915	0.00177
293.15	0.3946	0.4139	0.03331	0.00203
293.15	0.4926	0.3444	0.03849	0.00235
293.15	0.5899	0.275	0.04574	0.00283
293.15	0.6871	0.2059	0.05668	0.00346
293.15	0.7841	0.137	0.07229	0.00444
293.15	0.8803	0.0685	0.09632	0.00601
303.15	0.0992	0.6241	0.01498	0.00091
303.15	0.198	0.5538	0.01618	0.00099
303.15	0.2965	0.4838	0.01801	0.0011
303.15	0.3946	0.4139	0.02075	0.00126
303.15	0.4926	0.3444	0.02413	0.00147
303.15	0.5899	0.275	0.02868	0.00176
303.15	0.6871	0.2059	0.03576	0.0022
303.15	0.7841	0.137	0.04509	0.00279
303.15	0.8803	0.0685	0.05887	0.00366
313.15	0.0992	0.6241	0.00982	0.0006
313.15	0.198	0.5538	0.01064	0.00065
313.15	0.2965	0.4838	0.01194	0.00073
313.15	0.3946	0.4139	0.01383	0.00084
313.15	0.4926	0.3444	0.01616	0.00098
313.15	0.5899	0.275	0.01926	0.00118
313.15	0.6871	0.2059	0.02356	0.00144
313.15	0.7841	0.137	0.02958	0.00182
313.15	0.8803	0.0685	0.03862	0.00239
323.15	0.0992	0.6241	0.00682	0.00041
323.15	0.198	0.5538	0.00745	0.00045
323.15	0.2965	0.4838	0.0084	0.00051
323.15	0.3946	0.4139	0.00998	0.00061
323.15	0.4926	0.3444	0.01138	0.00069
323.15	0.5899	0.275	0.0136	0.00083
323.15	0.6871	0.2059	0.01667	0.00102
323.15	0.7841	0.137	0.02063	0.00126
323.15	0.8803	0.0685	0.02626	0.00161
333.15	0.0992	0.6241	0.00495	0.0003
333.15	0.198	0.5538	0.00545	0.00033
333.15	0.2965	0.4838	0.00622	0.00038
333.15	0.3946	0.4139	0.00731	0.00044
333.15	0.4926	0.3444	0.00874	0.00053
333.15	0.5899	0.275	0.01011	0.00062
333.15	0.6871	0.2059	0.01225	0.00075
333.15	0.7841	0.137	0.01506	0.00092
333.15	0.8803	0.0685	0.01891	0.00116
293.15	0.099	0.8014	0.02608	0.00158
293.15	0.1978	0.7112	0.02822	0.00171
293.15	0.2961	0.6215	0.03153	0.00191
293.15	0.3944	0.5318	0.03616	0.00219
293.15	0.4921	0.4425	0.04163	0.00253
293.15	0.59	0.3533	0.04914	0.003
293.15	0.6867	0.2648	0.05958	0.00364
293.15	0.7837	0.1764	0.0706	0.0044
293.15	0.8798	0.0879	0.09401	0.00585
303.15	0.099	0.8014	0.01612	0.00098
303.15	0.1978	0.7112	0.01744	0.00106
303.15	0.2961	0.6215	0.01948	0.00119
303.15	0.3944	0.5318	0.02239	0.00137
303.15	0.4921	0.4425	0.02583	0.00159
303.15	0.59	0.3533	0.03012	0.00186
303.15	0.6867	0.2648	0.0371	0.0023
303.15	0.7837	0.1764	0.04454	0.00276
303.15	0.8798	0.0879	0.05753	0.00371
313.15	0.099	0.8014	0.01056	0.00064
313.15	0.1978	0.7112	0.01148	0.0007
313.15	0.2961	0.6215	0.01284	0.00078
313.15	0.3944	0.5318	0.01482	0.0009
313.15	0.4921	0.4425	0.01715	0.00105
313.15	0.59	0.3533	0.0201	0.0012
313.15	0.6867	0.2648	0.02438	0.00151
313.15	0.7837	0.1764	0.02928	0.00181
313.15	0.8798	0.0879	0.03773	0.00238
323.15	0.099	0.8014	0.0073	0.0004
323.15	0.1978	0.7112	0.00801	0.00049
323.15	0.2961	0.6215	0.00897	0.00054
323.15	0.3944	0.5318	0.01055	0.00064
323.15	0.4921	0.4425	0.01202	0.00073
323.15	0.59	0.3533	0.01424	0.00087
323.15	0.6867	0.2648	0.01706	0.00105
323.15	0.7837	0.1764	0.0205	0.0013
323.15	0.8798	0.0879	0.0262	0.0016
333.15	0.099	0.8014	0.00533	0.00032
333.15	0.1978	0.7112	0.00587	0.00036
333.15	0.2961	0.6215	0.0066	0.0004
333.15	0.3944	0.5318	0.00777	0.00047
333.15	0.4921	0.4425	0.00894	0.00054
333.15	0.59	0.3533	0.01041	0.00063
333.15	0.6867	0.2648	0.01246	0.00076
333.15	0.7837	0.1764	0.01501	0.00092
333.15	0.8798	0.0879	0.01892	0.00115
