Measured thermophysical data. Heat capacities of aqueous solutions containing diethanolamine and N-methyldiethanolamine
Source: J. Chem. Thermodyn., 2009, 10.1016/j.jct.2009.05.015
Compound 1: N-methyldiethanolamine, C5H13NO2, InChI=1S/C5H13NO2/c1-6(2-4-7)3-5-8/h7-8H,2-5H2,1H3, purity 99%
Compound 2: diethanolamine, C4H11NO2, InChI=1S/C4H11NO2/c6-3-1-5-2-4-7/h5-7H,1-4H2, purity 99%
Compound 3: water, H2O, InChI=1S/H2O/h1H2, purity 99.9%

System: N-methyldiethanolamine + diethanolamine; phases: Liquid
Fixed: Pressure, kPa = 101
Property: Excess molar heat capacity, J/K/mol (Liquid); method: Large sample (1 g) DSC
Temperature, K	Mole fraction of diethanolamine	Excess molar heat capacity, J/K/mol	uncertainty
303.2	0.1	-3.1	3.7
303.2	0.2	-4.1	3.7
303.2	0.3	-5.4	3.7
303.2	0.4	-6	3.7
303.2	0.5	-6.3	3.7
303.2	0.6	-6.1	3.7
303.2	0.7	-5.8	3.7
303.2	0.8	-5.4	3.7
303.2	0.9	-4.4	3.7
308.2	0.1	-2.9	3.7
308.2	0.2	-3.9	3.7
308.2	0.3	-5.2	3.7
308.2	0.4	-5.7	3.7
308.2	0.5	-6.1	3.7
308.2	0.6	-5.9	3.7
308.2	0.7	-5.5	3.7
308.2	0.8	-5.1	3.7
308.2	0.9	-4.2	3.7
313.2	0.1	-2.7	3.7
313.2	0.2	-3.6	3.7
313.2	0.3	-5	3.7
313.2	0.4	-5.4	3.7
313.2	0.5	-5.9	3.7
313.2	0.6	-5.6	3.7
313.2	0.7	-5.3	3.7
313.2	0.8	-4.9	3.7
313.2	0.9	-3.9	3.7
318.2	0.1	-2.4	3.7
318.2	0.2	-3.4	3.7
318.2	0.3	-4.8	3.7
318.2	0.4	-5.2	3.7
318.2	0.5	-5.6	3.7
318.2	0.6	-5.3	3.7
318.2	0.7	-5	3.7
318.2	0.8	-4.6	3.7
318.2	0.9	-3.7	3.7
323.2	0.1	-2.2	3.7
323.2	0.2	-3.1	3.7
323.2	0.3	-4.6	3.7
323.2	0.4	-4.9	3.7
323.2	0.5	-5.4	3.7
323.2	0.6	-5	3.7
323.2	0.7	-4.8	3.7
323.2	0.8	-4.4	3.7
323.2	0.9	-3.4	3.7
328.2	0.1	-1.9	3.7
328.2	0.2	-2.8	3.7
328.2	0.3	-4.3	3.7
328.2	0.4	-4.6	3.7
328.2	0.5	-5.1	3.7
328.2	0.6	-4.7	3.7
328.2	0.7	-4.5	3.7
328.2	0.8	-4.1	3.7
328.2	0.9	-3.1	3.7
333.2	0.1	-1.7	3.7
333.2	0.2	-2.6	3.7
333.2	0.3	-4.1	3.7
333.2	0.4	-4.4	3.7
333.2	0.5	-4.9	3.7
333.2	0.6	-4.4	3.7
333.2	0.7	-4.3	3.7
333.2	0.8	-3.9	3.7
333.2	0.9	-2.9	3.7
338.2	0.1	-1.4	3.7
338.2	0.2	-2.3	3.7
338.2	0.3	-3.9	3.7
338.2	0.4	-4.1	3.7
338.2	0.5	-4.6	3.7
338.2	0.6	-4.2	3.7
338.2	0.7	-4	3.7
338.2	0.8	-3.6	3.7
338.2	0.9	-2.6	3.7
343.2	0.1	-1.2	3.7
343.2	0.2	-2	3.7
343.2	0.3	-3.6	3.7
343.2	0.4	-3.8	3.7
343.2	0.5	-4.4	3.7
343.2	0.6	-3.9	3.7
343.2	0.7	-3.8	3.7
343.2	0.8	-3.4	3.7
343.2	0.9	-2.3	3.7
348.2	0.1	-0.9	3.7
348.2	0.2	-1.8	3.7
348.2	0.3	-3.4	3.7
348.2	0.4	-3.6	3.7
348.2	0.5	-4.1	3.7
348.2	0.6	-3.6	3.7
348.2	0.7	-3.5	3.7
348.2	0.8	-3.1	3.7
348.2	0.9	-2.1	3.7
353.2	0.1	-0.7	3.7
353.2	0.2	-1.5	3.7
353.2	0.3	-3.2	3.7
353.2	0.4	-3.3	3.7
353.2	0.5	-3.9	3.7
353.2	0.6	-3.3	3.7
353.2	0.7	-3.3	3.7
353.2	0.8	-2.9	3.7
353.2	0.9	-1.8	3.7

System: N-methyldiethanolamine + diethanolamine; phases: Liquid
Fixed: Pressure, kPa = 101
Property: Molar heat capacity at constant pressure, J/K/mol (Liquid); method: Large sample (1 g) DSC
Temperature, K	Mole fraction of diethanolamine	Molar heat capacity at constant pressure, J/K/mol	uncertainty
303.2	0.1	267	5
303.2	0.2	264	5
303.2	0.3	261	5
303.2	0.4	259	5
303.2	0.5	257	5
303.2	0.6	255	5
303.2	0.7	254	5
303.2	0.8	253	5
303.2	0.9	252	5
308.2	0.1	270	5
308.2	0.2	268	5
308.2	0.3	264	5
308.2	0.4	262	5
308.2	0.5	260	5
308.2	0.6	259	5
308.2	0.7	257	5
308.2	0.8	256	5
308.2	0.9	255	5
313.2	0.1	274	5
313.2	0.2	271	5
313.2	0.3	268	5
313.2	0.4	266	5
313.2	0.5	264	5
313.2	0.6	262	5
313.2	0.7	261	5
313.2	0.8	259	5
313.2	0.9	258	5
318.2	0.1	277	5
318.2	0.2	274	5
318.2	0.3	271	5
318.2	0.4	269	5
318.2	0.5	267	5
318.2	0.6	265	5
318.2	0.7	264	5
318.2	0.8	262	5
318.2	0.9	262	5
323.2	0.1	281	5
323.2	0.2	278	5
323.2	0.3	275	5
323.2	0.4	272	5
323.2	0.5	270	5
323.2	0.6	269	5
323.2	0.7	267	5
323.2	0.8	266	5
323.2	0.9	265	5
328.2	0.1	284	5
328.2	0.2	281	5
328.2	0.3	278	5
328.2	0.4	276	5
328.2	0.5	274	5
328.2	0.6	272	5
328.2	0.7	270	5
328.2	0.8	269	5
328.2	0.9	268	5
333.2	0.1	288	5
333.2	0.2	285	5
333.2	0.3	281	5
333.2	0.4	279	5
333.2	0.5	277	5
333.2	0.6	275	5
333.2	0.7	274	5
333.2	0.8	272	5
333.2	0.9	271	5
338.2	0.1	291	5
338.2	0.2	288	5
338.2	0.3	285	5
338.2	0.4	283	5
338.2	0.5	280	5
338.2	0.6	279	5
338.2	0.7	277	5
338.2	0.8	275	5
338.2	0.9	274	5
343.2	0.1	295	5
343.2	0.2	292	5
343.2	0.3	288	5
343.2	0.4	286	5
343.2	0.5	284	5
343.2	0.6	282	5
343.2	0.7	280	5
343.2	0.8	279	5
343.2	0.9	278	5
348.2	0.1	298	5
348.2	0.2	295	5
348.2	0.3	292	5
348.2	0.4	289	5
348.2	0.5	287	5
348.2	0.6	285	5
348.2	0.7	283	5
348.2	0.8	282	5
348.2	0.9	281	5
353.2	0.1	302	5
353.2	0.2	298.7	5.2
353.2	0.3	295	5
353.2	0.4	292.8	5.1
353.2	0.5	290.1	5.1
353.2	0.6	289	5
353.2	0.7	287	5
353.2	0.8	285	5
353.2	0.9	284	5

System: N-methyldiethanolamine + diethanolamine + water; phases: Liquid
Fixed: Pressure, kPa = 101
Property: Molar heat capacity at constant pressure, J/K/mol (Liquid); method: Large sample (1 g) DSC
Temperature, K	Mole fraction of diethanolamine	Mole fraction of N-methyldiethanolamine	Molar heat capacity at constant pressure, J/K/mol	uncertainty
303.2	0.04	0.16	116	4
303.2	0.08	0.12	115	3
303.2	0.08	0.32	153	4
303.2	0.12	0.08	114	3
303.2	0.12	0.48	190	4
303.2	0.16	0.04	114	3
303.2	0.16	0.24	153	4
303.2	0.16	0.64	226	4
303.2	0.24	0.16	151	4
303.2	0.24	0.36	189	4
303.2	0.32	0.08	151	4
303.2	0.32	0.48	224	4
303.2	0.36	0.24	188	4
303.2	0.48	0.12	187	4
303.2	0.48	0.32	222	4
303.2	0.64	0.16	221	4
308.2	0.04	0.16	117	4
308.2	0.08	0.12	116	4
308.2	0.08	0.32	155	4
308.2	0.12	0.08	116	4
308.2	0.12	0.48	192	4
308.2	0.16	0.04	115	3
308.2	0.16	0.24	155	4
308.2	0.16	0.64	229	4
308.2	0.24	0.16	153	4
308.2	0.24	0.36	191	4
308.2	0.32	0.08	153	4
308.2	0.32	0.48	227	4
308.2	0.36	0.24	190	4
308.2	0.48	0.12	189	4
308.2	0.48	0.32	225	4
308.2	0.64	0.16	223	4
313.2	0.04	0.16	118	4
313.2	0.08	0.12	118	4
313.2	0.08	0.32	157	4
313.2	0.12	0.08	117	4
313.2	0.12	0.48	195	4
313.2	0.16	0.04	116	4
313.2	0.16	0.24	157	4
313.2	0.16	0.64	232	5
313.2	0.24	0.16	155	4
313.2	0.24	0.36	194	4
313.2	0.32	0.08	155	4
313.2	0.32	0.48	230	4
313.2	0.36	0.24	193	4
313.2	0.48	0.12	192	4
313.2	0.48	0.32	228	4
313.2	0.64	0.16	226	4
318.2	0.04	0.16	120	4
318.2	0.08	0.12	119	4
318.2	0.08	0.32	159	4
318.2	0.12	0.08	118	4
318.2	0.12	0.48	197	4
318.2	0.16	0.04	117	4
318.2	0.16	0.24	159	4
318.2	0.16	0.64	235	5
318.2	0.24	0.16	157	4
318.2	0.24	0.36	196	4
318.2	0.32	0.08	157	4
318.2	0.32	0.48	233	5
318.2	0.36	0.24	195	4
318.2	0.48	0.12	194	4
318.2	0.48	0.32	231	5
318.2	0.64	0.16	229	4
323.2	0.04	0.16	121	4
323.2	0.08	0.12	120	4
323.2	0.08	0.32	161	4
323.2	0.12	0.08	119	4
323.2	0.12	0.48	200	4
323.2	0.16	0.04	118	4
323.2	0.16	0.24	161	4
323.2	0.16	0.64	238	5
323.2	0.24	0.16	159	4
323.2	0.24	0.36	199	4
323.2	0.32	0.08	159	4
323.2	0.32	0.48	235	5
323.2	0.36	0.24	197	4
323.2	0.48	0.12	197	4
323.2	0.48	0.32	234	5
323.2	0.64	0.16	232	5
328.2	0.04	0.16	122	4
328.2	0.08	0.12	121	4
328.2	0.08	0.32	163	4
328.2	0.12	0.08	120	4
328.2	0.12	0.48	202	4
328.2	0.16	0.04	120	4
328.2	0.16	0.24	163	4
328.2	0.16	0.64	241	5
328.2	0.24	0.16	161	4
328.2	0.24	0.36	201	4
328.2	0.32	0.08	161	4
328.2	0.32	0.48	238	5
328.2	0.36	0.24	200	4
328.2	0.48	0.12	199	4
328.2	0.48	0.32	237	5
328.2	0.64	0.16	235	5
333.2	0.04	0.16	123	4
333.2	0.08	0.12	122	4
333.2	0.08	0.32	165	4
333.2	0.12	0.08	121	4
333.2	0.12	0.48	205	4
333.2	0.16	0.04	121	4
333.2	0.16	0.24	165	4
333.2	0.16	0.64	244	5
333.2	0.24	0.16	163	4
333.2	0.24	0.36	204	4
333.2	0.32	0.08	163	4
333.2	0.32	0.48	241	5
333.2	0.36	0.24	202	4
333.2	0.48	0.12	202	4
333.2	0.48	0.32	239	5
333.2	0.64	0.16	238	5
338.2	0.04	0.16	125	4
338.2	0.08	0.12	124	4
338.2	0.08	0.32	167	4
338.2	0.12	0.08	123	4
338.2	0.12	0.48	207	4
338.2	0.16	0.04	122	4
338.2	0.16	0.24	167	4
338.2	0.16	0.64	247	5
338.2	0.24	0.16	165	4
338.2	0.24	0.36	206	4
338.2	0.32	0.08	164	4
338.2	0.32	0.48	244	5
338.2	0.36	0.24	205	4
338.2	0.48	0.12	204	4
338.2	0.48	0.32	242	5
338.2	0.64	0.16	240	5
343.2	0.04	0.16	126	4
343.2	0.08	0.12	125	4
343.2	0.08	0.32	169	4
343.2	0.12	0.08	124	4
343.2	0.12	0.48	210	4
343.2	0.16	0.04	123	4
343.2	0.16	0.24	169	4
343.2	0.16	0.64	249	5
343.2	0.24	0.16	167	4
343.2	0.24	0.36	209	4
343.2	0.32	0.08	166	4
343.2	0.32	0.48	247	5
343.2	0.36	0.24	207	4
343.2	0.48	0.12	207	4
343.2	0.48	0.32	245	5
343.2	0.64	0.16	243	5
348.2	0.04	0.16	127	4
348.2	0.08	0.12	126	4
348.2	0.08	0.32	171	4
348.2	0.12	0.08	125	4
348.2	0.12	0.48	212	4
348.2	0.16	0.04	124	4
348.2	0.16	0.24	171	4
348.2	0.16	0.64	252	5
348.2	0.24	0.16	169	4
348.2	0.24	0.36	211	4
348.2	0.32	0.08	168	4
348.2	0.32	0.48	250	5
348.2	0.36	0.24	210	4
348.2	0.48	0.12	209	4
348.2	0.48	0.32	248	5
348.2	0.64	0.16	246	5
353.2	0.04	0.16	128	4
353.2	0.08	0.12	127	4
353.2	0.08	0.32	173	4
353.2	0.12	0.08	126	4
353.2	0.12	0.48	215	4
353.2	0.16	0.04	125	4
353.2	0.16	0.24	173	4
353.2	0.16	0.64	255	5
353.2	0.24	0.16	171	4
353.2	0.24	0.36	214	4
353.2	0.32	0.08	170	4
353.2	0.32	0.48	253	5
353.2	0.36	0.24	212	4
353.2	0.48	0.12	212	4
353.2	0.48	0.32	251	5
353.2	0.64	0.16	249	5
