Measured thermophysical data. Synthesis, structure and thermodynamic properties of Ba5(MnO4)3Cl apatite
Source: J. Chem. Thermodyn., 2019, 10.1016/j.jct.2018.09.004
Compound 1: barium manganese chloride oxide (Ba5Mn3O12Cl), Ba5ClMn3O12, InChI=1S/5Ba.ClH.3Mn.12O/h;;;;;1H;;;;;;;;;;;;;;;/q5*+2;;;;;;;;9*-1/p-1, purity 99.8%

System: barium manganese chloride oxide (Ba5Mn3O12Cl); phases: Crystal
Property: Mass density, kg/m3 (Crystal); method: X-ray diffraction
Temperature, K	Pressure, kPa	Mass density, kg/m3	uncertainty
298	101.325	4874.69	1.37

System: barium manganese chloride oxide (Ba5Mn3O12Cl); phases: Crystal
Fixed: Pressure, kPa = 101.325
Property: Molar heat capacity at constant pressure, J/K/mol (Crystal); method: Vacuum adiabatic calorimetry
Temperature, K	Molar heat capacity at constant pressure, J/K/mol	uncertainty
6	8.8	0.36
10	9.42	0.38
15	14.54	0.59
20	24.52	0.99
25	38.84	0.41
30	55	0.56
35	72.28	0.74
40	89.47	0.91
45	106.6	0.5
50	123.9	0.5
60	156.2	0.7
70	182.4	0.8
80	206.6	0.9
90	228.1	1
100	247.8	1
110	265.8	1.1
120	282.1	1.2
130	297	1.2
140	310.7	1.3
150	323.2	1.3
160	334.8	1.4
170	345.6	1.4
180	355.6	1.5
190	365	1.5
200	373.9	1.6
210	382.2	1.6
220	390.3	1.6
230	397.9	1.6
240	405.4	1.7
250	412.6	1.7
260	419.5	1.7
270	426.2	1.8
280	432.5	1.8
290	438.6	1.8
298.15	443.2	1.8
300	444.2	1.8
310	449.4	1.9
320	454.2	1.9
330	458.7	1.9
340	462.8	1.9
350	466.6	1.9

System: barium manganese chloride oxide (Ba5Mn3O12Cl); phases: Crystal
Fixed: Pressure, kPa = 101.325
Property: Molar enthalpy, kJ/mol (Crystal); method: Vacuum adiabatic calorimetry
Temperature, K	Molar enthalpy, kJ/mol	uncertainty
6	0.02639	0.00109
10	0.06198	0.00252
15	0.1212	0.0049
20	0.2159	0.0087
25	0.3751	0.0041
30	0.6074	0.0064
35	0.9272	0.0097
40	1.33	0.014
45	1.822	0.009
50	2.396	0.011
60	3.801	0.017
70	5.498	0.024
80	7.443	0.033
90	9.639	0.043
100	12.02	0.05
110	14.59	0.06
120	17.33	0.08
130	20.22	0.09
140	23.26	0.1
150	26.43	0.11
160	29.72	0.13
170	33.12	0.14
180	36.63	0.16
190	40.23	0.17
200	43.92	0.19
210	47.71	0.2
220	51.57	0.22
230	55.51	0.23
240	59.53	0.25
250	63.62	0.27
260	67.78	0.28
270	72	0.3
280	76.3	0.32
290	80.65	0.34
298.15	84.24	0.35
300	85.07	0.36
310	89.53	0.37
320	94.05	0.39
330	98.62	0.41
340	103.2	0.4
350	107.9	0.5

System: barium manganese chloride oxide (Ba5Mn3O12Cl); phases: Crystal
Fixed: Pressure, kPa = 101.325
Property: Molar entropy, J/K/mol (Crystal); method: Vacuum adiabatic calorimetry
Temperature, K	Molar entropy, J/K/mol	uncertainty
6	4.5	0.276
10	9.035	0.549
15	13.72	0.83
20	19.13	1.15
25	26.14	0.42
30	34.59	0.53
35	44.38	0.68
40	55.44	0.85
45	66.88	0.44
50	78.79	0.52
60	104.3	0.7
70	130.4	0.8
80	156.4	1
90	181.9	1.2
100	206.9	1.3
110	231.4	1.5
120	255.3	1.6
130	278.4	1.7
140	301	1.9
150	322.8	2
160	344.1	2.1
170	364.7	2.3
180	384.7	2.4
190	404.2	2.5
200	423.2	2.6
210	441.6	2.7
220	459.6	2.8
230	477.1	3
240	494.2	3.1
250	510.9	3.2
260	527.2	3.3
270	543.2	3.4
280	558.8	3.4
290	574.1	3.5
298.15	586.3	3.6
300	589.1	3.6
310	603.7	3.7
320	618.1	3.8
330	632.1	3.9
340	645.9	4
350	659.4	4.1

System: barium manganese chloride oxide (Ba5Mn3O12Cl); phases: Crystal
Fixed: Pressure, kPa = 101.325
Property: Molar heat capacity at constant pressure, J/K/mol (Crystal); method: Vacuum adiabatic calorimetry
Temperature, K	Molar heat capacity at constant pressure, J/K/mol	uncertainty
6.03	8.82	0.36
6.17	8.76	0.36
6.4	8.8	0.36
6.63	8.76	0.36
6.85	8.76	0.36
7.07	8.77	0.36
7.29	8.75	0.35
7.52	8.75	0.35
7.73	8.77	0.36
7.95	8.82	0.36
8.17	8.79	0.36
8.38	8.86	0.36
8.59	8.91	0.36
8.81	8.95	0.36
9.02	8.97	0.36
9.23	9.05	0.37
9.43	9.18	0.37
9.63	9.25	0.37
9.84	9.3	0.38
10.05	9.41	0.38
10.46	9.72	0.39
11.09	10.19	0.41
11.73	10.83	0.44
12.37	11.46	0.46
13.02	12.2	0.49
13.67	12.83	0.52
14.33	13.59	0.55
14.99	14.61	0.59
15.67	15.53	0.63
16.34	16.54	0.67
17.02	17.91	0.72
17.71	19.31	0.78
18.39	20.84	0.84
19.1	22.34	0.9
19.8	23.91	0.96
21.31	28.17	0.31
23.31	33.86	0.37
25.46	40.14	0.43
27.66	47.12	0.5
29.9	54.72	0.57
32.18	62.65	0.64
34.49	70.56	0.72
36.84	78.6	0.8
39.22	86.68	0.88
41.62	94.86	0.42
44.03	103.3	0.5
46.47	111.6	0.5
48.92	120.3	0.5
51.38	128.6	0.6
53.85	137.1	0.6
56.34	145.1	0.6
58.83	153	0.7
59.39	154.4	0.7
62.22	162.2	0.7
64.74	168.9	0.7
67.27	175.4	0.8
69.8	182	0.8
72.32	188.3	0.8
74.84	194.4	0.8
77.36	200.6	0.9
79.82	206.2	0.9
81.91	210.7	0.9
82.08	211.2	0.9
83.22	213.8	0.9
85.03	217.9	0.9
86.17	220.2	0.9
88.69	225.4	1
91.23	230.4	1
93.76	235.7	1
96.29	240.8	1
98.83	245.6	1
101.37	250.1	1.1
103.92	254.7	1.1
106.46	259.2	1.1
109.02	263.7	1.1
111.57	268	1.1
114.13	272.4	1.1
116.69	276.5	1.2
119.25	280.3	1.2
121.82	284.4	1.2
124.39	288.4	1.2
126.96	292.3	1.2
129.53	295.8	1.2
132.1	299.7	1.3
134.68	303.4	1.3
137.25	307.1	1.3
139.83	310.4	1.3
142.4	313.5	1.3
144.98	317.1	1.3
147.56	320.3	1.3
150.14	323.2	1.3
152.71	326.1	1.4
154.67	328.5	1.4
156.89	331.3	1.4
159.96	334.7	1.4
162.54	337.4	1.4
165.11	340	1.4
167.69	342.7	1.4
170.27	345.2	1.4
172.84	347.7	1.4
175.42	350.1	1.5
177.99	352.9	1.5
87.57	222.6	1
90.55	229.2	1
93.51	235.2	1
96.46	241.2	1
99.41	247.1	1
102.35	252.8	1.1
105.29	258	1.1
108.22	263.3	1.1
111.15	268.1	1.1
114.07	272.9	1.1
116.98	277.9	1.2
119.89	282.4	1.2
122.8	286.8	1.2
125.69	291.1	1.2
128.59	295.3	1.2
131.47	299.4	1.3
134.32	303.3	1.3
137.2	307.3	1.3
140.08	310.8	1.3
142.94	314.7	1.3
145.79	318.7	1.3
148.64	322	1.3
151.48	325.5	1.4
154.32	328.6	1.4
157.14	332.2	1.4
159.97	335.2	1.4
162.79	337.9	1.4
165.6	341	1.4
168.39	344.3	1.4
171.19	346.5	1.4
173.98	349.6	1.5
176.76	352.2	1.5
179.45	354.9	1.5
182.21	358.2	1.5
184.97	361.2	1.5
187.72	363.5	1.5
190.46	366	1.5
193.19	368.5	1.5
195.91	370.4	1.5
198.62	372.4	1.5
201.32	374.9	1.6
204.01	377.7	1.6
206.7	379.9	1.6
209.4	382	1.6
212.08	384.2	1.6
214.75	386.3	1.6
217.42	387.9	1.6
220.08	389.8	1.6
222.6	391.9	1.6
225.24	393.5	1.6
227.89	395.5	1.6
230.54	398.5	1.7
233.19	399.9	1.7
235.82	402.5	1.7
238.46	404.5	1.7
241.09	405.8	1.7
243.72	407.5	1.7
246.32	408.8	1.7
243.03	407.5	1.7
245.84	409.4	1.7
248.66	411.4	1.7
251.47	413.9	1.7
254.28	416.2	1.7
257.09	418.2	1.7
259.89	420.2	1.7
262.69	421.3	1.7
265.43	423.4	1.8
268.21	425.1	1.8
270.99	426.9	1.8
273.76	428.5	1.8
276.52	430.3	1.8
279.27	431.6	1.8
282.02	433.4	1.8
284.76	435.6	1.8
287.5	436.8	1.8
290.23	438.9	1.8
292.95	440.1	1.8
295.65	441.8	1.8
298.36	443.3	1.8
301.06	444.8	1.8
303.77	445.8	1.8
306.47	447.8	1.8
309.08	449.5	1.9
311.78	450.3	1.9
314.48	451.6	1.9
315.2	451.7	1.9
317.92	453.3	1.9
322.06	454.8	1.9
326.5	457.3	1.9
330.92	459.4	1.9
335.35	460.7	1.9
339.75	462.5	1.9
344.15	464.6	1.9
348.21	466.1	1.9
