Measured thermophysical data. Solubility determination and modelling for phthalimide in mixed solvents of (acetone, ethyl acetate or acetonitrile + methanol) from (278.15 to 313.15) K
Source: J. Chem. Thermodyn., 2017, 10.1016/j.jct.2016.11.023
Compound 1: 1,2-benzenedicarboximide, C8H5NO2, InChI=1S/C8H5NO2/c10-7-5-3-1-2-4-6(5)8(11)9-7/h1-4H,(H,9,10,11), purity 98%
Compound 2: methanol, CH4O, InChI=1S/CH4O/c1-2/h2H,1H3
Compound 3: acetone, C3H6O, InChI=1S/C3H6O/c1-3(2)4/h1-2H3
Compound 4: acetonitrile, C2H3N, InChI=1S/C2H3N/c1-2-3/h1H3
Compound 5: ethyl acetate, C4H8O2, InChI=1S/C4H8O2/c1-3-6-4(2)5/h3H2,1-2H3

System: methanol + acetonitrile + 1,2-benzenedicarboximide; phases: Liquid, Crystal
Fixed: Pressure, kPa = 101.1
Property: Mole fraction of 1,2-benzenedicarboximide (Liquid); method: Chromatography
Solvent: Mass fraction of acetonitrile	Temperature, K	Mole fraction of 1,2-benzenedicarboximide	uncertainty
0.09934	283.15	0.001331	0.000202
0.09934	285.65	0.001501	0.000228
0.09934	288.15	0.00168	0.000255
0.09934	290.65	0.001879	0.000286
0.09934	293.15	0.00211	0.000321
0.09934	295.65	0.002357	0.000358
0.09934	298.15	0.00262	0.000398
0.09934	300.65	0.002921	0.000444
0.09934	303.15	0.003241	0.000493
0.09934	305.65	0.0036	0.000547
0.09934	308.15	0.003936	0.000598
0.09934	310.65	0.004308	0.000655
0.09934	313.15	0.004658	0.000708
0.09934	315.65	0.005105	0.000776
0.09934	318.15	0.005546	0.000843
0.1988	283.15	0.00136	0.000207
0.1988	285.65	0.00153	0.000233
0.1988	288.15	0.001731	0.000263
0.1988	290.65	0.001971	0.0003
0.1988	293.15	0.002207	0.000336
0.1988	295.65	0.002439	0.000371
0.1988	298.15	0.002725	0.000415
0.1988	300.65	0.00301	0.000458
0.1988	303.15	0.003321	0.000505
0.1988	305.65	0.003661	0.000557
0.1988	308.15	0.004029	0.000613
0.1988	310.65	0.004395	0.000669
0.1988	313.15	0.004823	0.000734
0.1988	315.65	0.005257	0.0008
0.1988	318.15	0.00576	0.000877
0.2985	283.15	0.00142	0.000217
0.2985	285.65	0.00159	0.000244
0.2985	288.15	0.001783	0.000274
0.2985	290.65	0.002043	0.000314
0.2985	293.15	0.002326	0.000357
0.2985	295.65	0.002631	0.000404
0.2985	298.15	0.002896	0.000444
0.2985	300.65	0.003242	0.000497
0.2985	303.15	0.003623	0.000556
0.2985	305.65	0.004047	0.000621
0.2985	308.15	0.004449	0.000683
0.2985	310.65	0.004889	0.000751
0.2985	313.15	0.005351	0.000823
0.2985	315.65	0.005829	0.000896
0.2985	318.15	0.006375	0.000979
0.3982	283.15	0.001623	0.000265
0.3982	285.65	0.001873	0.000305
0.3982	288.15	0.002147	0.00035
0.3982	290.65	0.002452	0.000394
0.3982	293.15	0.002739	0.000439
0.3982	295.65	0.003047	0.000487
0.3982	298.15	0.003403	0.000544
0.3982	300.65	0.003759	0.000599
0.3982	303.15	0.004163	0.000662
0.3982	305.65	0.004597	0.000728
0.3982	308.15	0.005081	0.000803
0.3982	310.65	0.005624	0.000887
0.3982	313.15	0.006177	0.000973
0.3982	315.65	0.006734	0.001057
0.3982	318.15	0.007322	0.001145
0.4982	283.15	0.002226	0.000371
0.4982	285.65	0.002495	0.000414
0.4982	288.15	0.002837	0.000468
0.4982	290.65	0.003122	0.000513
0.4982	293.15	0.003495	0.000572
0.4982	295.65	0.003883	0.000637
0.4982	298.15	0.004314	0.000704
0.4982	300.65	0.004754	0.000775
0.4982	303.15	0.005248	0.000851
0.4982	305.65	0.005752	0.000925
0.4982	308.15	0.006293	0.001008
0.4982	310.65	0.006871	0.001091
0.4982	313.15	0.007465	0.001181
0.4982	315.65	0.008032	0.00127
0.4982	318.15	0.008629	0.001363
0.5982	283.15	0.002639	0.000403
0.5982	285.65	0.002975	0.000454
0.5982	288.15	0.003368	0.000513
0.5982	290.65	0.003756	0.000573
0.5982	293.15	0.004162	0.000634
0.5982	295.65	0.004647	0.000708
0.5982	298.15	0.005109	0.000778
0.5982	300.65	0.005637	0.000858
0.5982	303.15	0.006144	0.000935
0.5982	305.65	0.006614	0.001007
0.5982	308.15	0.007201	0.001096
0.5982	310.65	0.007739	0.001178
0.5982	313.15	0.008366	0.001273
0.5982	315.65	0.009065	0.00138
0.5982	318.15	0.009806	0.001493
0.6985	283.15	0.002499	0.000383
0.6985	285.65	0.002819	0.000432
0.6985	288.15	0.003121	0.000478
0.6985	290.65	0.003468	0.000531
0.6985	293.15	0.003859	0.000591
0.6985	295.65	0.004297	0.000659
0.6985	298.15	0.00473	0.000725
0.6985	300.65	0.005156	0.000791
0.6985	303.15	0.005663	0.000868
0.6985	305.65	0.006217	0.000951
0.6985	308.15	0.006743	0.001031
0.6985	310.65	0.007308	0.001116
0.6985	313.15	0.007965	0.001215
0.6985	315.65	0.008612	0.001314
0.6985	318.15	0.00933	0.001424
0.7988	283.15	0.002078	0.000318
0.7988	285.65	0.002356	0.00036
0.7988	288.15	0.002692	0.000411
0.7988	290.65	0.003028	0.000463
0.7988	293.15	0.003338	0.00051
0.7988	295.65	0.003676	0.000562
0.7988	298.15	0.004062	0.00062
0.7988	300.65	0.004431	0.000677
0.7988	303.15	0.004933	0.000753
0.7988	305.65	0.005442	0.000831
0.7988	308.15	0.005986	0.000913
0.7988	310.65	0.006599	0.001006
0.7988	313.15	0.007213	0.001099
0.7988	315.65	0.007799	0.001188
0.7988	318.15	0.008434	0.001285
0.8993	283.15	0.001918	0.000292
0.8993	285.65	0.002157	0.000328
0.8993	288.15	0.002426	0.000369
0.8993	290.65	0.0027	0.000411
0.8993	293.15	0.003033	0.000461
0.8993	295.65	0.003376	0.000514
0.8993	298.15	0.003739	0.000569
0.8993	300.65	0.004097	0.000623
0.8993	303.15	0.004534	0.00069
0.8993	305.65	0.004948	0.000753
0.8993	308.15	0.005444	0.000828
0.8993	310.65	0.005982	0.00091
0.8993	313.15	0.006649	0.001011
0.8993	315.65	0.007275	0.001106
0.8993	318.15	0.007993	0.001215

System: methanol + acetone + 1,2-benzenedicarboximide; phases: Liquid, Crystal
Fixed: Pressure, kPa = 101.1
Property: Mole fraction of 1,2-benzenedicarboximide (Liquid); method: Chromatography
Solvent: Mass fraction of acetone	Temperature, K	Mole fraction of 1,2-benzenedicarboximide	uncertainty
0.101	283.15	0.002213	0.00034
0.101	285.65	0.002503	0.000384
0.101	288.15	0.002789	0.000427
0.101	290.65	0.003109	0.000476
0.101	293.15	0.003426	0.000524
0.101	295.65	0.003826	0.000585
0.101	298.15	0.004233	0.000647
0.101	300.65	0.004673	0.000714
0.101	303.15	0.005156	0.000787
0.101	305.65	0.005624	0.000858
0.101	308.15	0.00612	0.000933
0.101	310.65	0.006736	0.001027
0.101	313.15	0.00734	0.001119
0.101	315.65	0.007937	0.001209
0.101	318.15	0.008553	0.001304
0.1996	283.15	0.003017	0.000473
0.1996	285.65	0.003323	0.00052
0.1996	288.15	0.003669	0.000574
0.1996	290.65	0.004062	0.000635
0.1996	293.15	0.00442	0.000691
0.1996	295.65	0.004878	0.000761
0.1996	298.15	0.005299	0.000826
0.1996	300.65	0.005781	0.000901
0.1996	303.15	0.006291	0.000978
0.1996	305.65	0.006836	0.001061
0.1996	308.15	0.007361	0.001142
0.1996	310.65	0.008032	0.001244
0.1996	313.15	0.008629	0.001335
0.1996	315.65	0.009274	0.001435
0.1996	318.15	0.01008	0.00156
0.3018	283.15	0.004134	0.000663
0.3018	285.65	0.00458	0.000732
0.3018	288.15	0.005079	0.000809
0.3018	290.65	0.00556	0.000885
0.3018	293.15	0.006126	0.000974
0.3018	295.65	0.006709	0.001064
0.3018	298.15	0.007295	0.001155
0.3018	300.65	0.00796	0.001257
0.3018	303.15	0.008543	0.00135
0.3018	305.65	0.00922	0.001453
0.3018	308.15	0.009912	0.001561
0.3018	310.65	0.0107	0.00168
0.3018	313.15	0.01144	0.00179
0.3018	315.65	0.0124	0.00194
0.3018	318.15	0.01339	0.0021
0.4042	283.15	0.005392	0.00088
0.4042	285.65	0.005879	0.000957
0.4042	288.15	0.006416	0.001037
0.4042	290.65	0.007009	0.001131
0.4042	293.15	0.007656	0.00123
0.4042	295.65	0.008311	0.001331
0.4042	298.15	0.008946	0.001431
0.4042	300.65	0.009638	0.001538
0.4042	303.15	0.01044	0.00166
0.4042	305.65	0.01115	0.00177
0.4042	308.15	0.01196	0.0019
0.4042	310.65	0.01275	0.00202
0.4042	313.15	0.01364	0.00216
0.4042	315.65	0.01455	0.00229
0.4042	318.15	0.01572	0.00247
0.5025	283.15	0.006778	0.00125
0.5025	285.65	0.007419	0.001341
0.5025	288.15	0.008003	0.00143
0.5025	290.65	0.008705	0.001537
0.5025	293.15	0.009412	0.001645
0.5025	295.65	0.01017	0.00176
0.5025	298.15	0.01098	0.00189
0.5025	300.65	0.01183	0.00201
0.5025	303.15	0.01265	0.00213
0.5025	305.65	0.01357	0.00227
0.5025	308.15	0.0145	0.00242
0.5025	310.65	0.0154	0.00256
0.5025	313.15	0.01631	0.00271
0.5025	315.65	0.01729	0.00287
0.5025	318.15	0.01845	0.00303
0.6017	283.15	0.01007	0.00163
0.6017	285.65	0.01068	0.00173
0.6017	288.15	0.01138	0.00185
0.6017	290.65	0.01218	0.00197
0.6017	293.15	0.01302	0.0021
0.6017	295.65	0.01388	0.00223
0.6017	298.15	0.01477	0.00237
0.6017	300.65	0.01564	0.0025
0.6017	303.15	0.01651	0.00264
0.6017	305.65	0.01748	0.00278
0.6017	308.15	0.0186	0.00295
0.6017	310.65	0.01964	0.00311
0.6017	313.15	0.02091	0.00331
0.6017	315.65	0.02214	0.0035
0.6017	318.15	0.02335	0.00369
0.7019	283.15	0.01153	0.00177
0.7019	285.65	0.01237	0.0019
0.7019	288.15	0.01336	0.00206
0.7019	290.65	0.01423	0.00219
0.7019	293.15	0.01525	0.00235
0.7019	295.65	0.01627	0.00251
0.7019	298.15	0.01729	0.00266
0.7019	300.65	0.0183	0.00281
0.7019	303.15	0.01938	0.00298
0.7019	305.65	0.02033	0.00312
0.7019	308.15	0.02147	0.0033
0.7019	310.65	0.02257	0.00347
0.7019	313.15	0.02387	0.00366
0.7019	315.65	0.02526	0.00387
0.7019	318.15	0.02682	0.00411
0.8019	283.15	0.01309	0.002
0.8019	285.65	0.01403	0.00214
0.8019	288.15	0.0151	0.0023
0.8019	290.65	0.01617	0.00246
0.8019	293.15	0.01723	0.00263
0.8019	295.65	0.01837	0.0028
0.8019	298.15	0.01935	0.00295
0.8019	300.65	0.0204	0.00311
0.8019	303.15	0.02142	0.00326
0.8019	305.65	0.02262	0.00345
0.8019	308.15	0.02384	0.00363
0.8019	310.65	0.02508	0.00382
0.8019	313.15	0.02625	0.004
0.8019	315.65	0.02742	0.00418
0.8019	318.15	0.02878	0.00438
0.9009	283.15	0.01443	0.0022
0.9009	285.65	0.01522	0.00231
0.9009	288.15	0.01621	0.00247
0.9009	290.65	0.01723	0.00262
0.9009	293.15	0.01835	0.00279
0.9009	295.65	0.01932	0.00294
0.9009	298.15	0.02045	0.00311
0.9009	300.65	0.02162	0.00329
0.9009	303.15	0.02302	0.0035
0.9009	305.65	0.02438	0.00371
0.9009	308.15	0.02575	0.00392
0.9009	310.65	0.02712	0.00412
0.9009	313.15	0.02867	0.00436
0.9009	315.65	0.03007	0.00457
0.9009	318.15	0.03153	0.0048

System: methanol + 1,2-benzenedicarboximide + ethyl acetate; phases: Liquid, Crystal
Fixed: Pressure, kPa = 101.1
Property: Mole fraction of 1,2-benzenedicarboximide (Liquid); method: Chromatography
Solvent: Mass fraction of ethyl acetate	Temperature, K	Mole fraction of 1,2-benzenedicarboximide	uncertainty
0.102	283.15	0.001358	0.000207
0.102	285.65	0.001551	0.000236
0.102	288.15	0.001755	0.000267
0.102	290.65	0.002008	0.000306
0.102	293.15	0.00227	0.000345
0.102	295.65	0.002547	0.000387
0.102	298.15	0.002865	0.000436
0.102	300.65	0.003177	0.000484
0.102	303.15	0.003513	0.000535
0.102	305.65	0.003885	0.000592
0.102	308.15	0.004254	0.000648
0.102	310.65	0.004686	0.000715
0.102	313.15	0.005181	0.00079
0.102	315.65	0.005787	0.000883
0.102	318.15	0.006449	0.000985
0.2011	283.15	0.0016	0.000244
0.2011	285.65	0.00177	0.000271
0.2011	288.15	0.001979	0.000303
0.2011	290.65	0.00222	0.00034
0.2011	293.15	0.002477	0.00038
0.2011	295.65	0.00277	0.000425
0.2011	298.15	0.003142	0.000482
0.2011	300.65	0.00355	0.000546
0.2011	303.15	0.003957	0.000608
0.2011	305.65	0.00447	0.000688
0.2011	308.15	0.004975	0.000767
0.2011	310.65	0.005608	0.000865
0.2011	313.15	0.006261	0.000965
0.2011	315.65	0.007059	0.001088
0.2011	318.15	0.007946	0.001225
0.3017	283.15	0.001725	0.000271
0.3017	285.65	0.002013	0.000319
0.3017	288.15	0.002343	0.000372
0.3017	290.65	0.002712	0.00043
0.3017	293.15	0.003092	0.000491
0.3017	295.65	0.0035	0.000556
0.3017	298.15	0.003962	0.000627
0.3017	300.65	0.0045	0.00071
0.3017	303.15	0.005024	0.000792
0.3017	305.65	0.005662	0.00089
0.3017	308.15	0.006367	0.000998
0.3017	310.65	0.007061	0.001103
0.3017	313.15	0.007807	0.001219
0.3017	315.65	0.008785	0.001366
0.3017	318.15	0.009853	0.001526
0.3981	283.15	0.002339	0.000394
0.3981	285.65	0.002745	0.000459
0.3981	288.15	0.003157	0.000521
0.3981	290.65	0.003559	0.000587
0.3981	293.15	0.004016	0.000657
0.3981	295.65	0.004515	0.000736
0.3981	298.15	0.005047	0.000819
0.3981	300.65	0.005626	0.000905
0.3981	303.15	0.006234	0.000998
0.3981	305.65	0.006917	0.001099
0.3981	308.15	0.007604	0.001203
0.3981	310.65	0.008356	0.001317
0.3981	313.15	0.009293	0.001462
0.3981	315.65	0.01018	0.00159
0.3981	318.15	0.01111	0.00173
0.4994	283.15	0.003126	0.000564
0.4994	285.65	0.003598	0.000635
0.4994	288.15	0.004028	0.000702
0.4994	290.65	0.004598	0.000792
0.4994	293.15	0.005093	0.000871
0.4994	295.65	0.005702	0.000961
0.4994	298.15	0.006337	0.001057
0.4994	300.65	0.00695	0.001152
0.4994	303.15	0.007619	0.00125
0.4994	305.65	0.008296	0.001356
0.4994	308.15	0.009114	0.001483
0.4994	310.65	0.009951	0.001613
0.4994	313.15	0.01091	0.00176
0.4994	315.65	0.0119	0.00192
0.4994	318.15	0.01309	0.0021
0.5987	283.15	0.004377	0.000713
0.5987	285.65	0.004902	0.000786
0.5987	288.15	0.005454	0.000869
0.5987	290.65	0.006051	0.000955
0.5987	293.15	0.006683	0.001051
0.5987	295.65	0.007299	0.001142
0.5987	298.15	0.007953	0.001239
0.5987	300.65	0.008699	0.001352
0.5987	303.15	0.009392	0.001459
0.5987	305.65	0.01025	0.00159
0.5987	308.15	0.01115	0.00173
0.5987	310.65	0.0121	0.00187
0.5987	313.15	0.01328	0.00205
0.5987	315.65	0.01439	0.00221
0.5987	318.15	0.01564	0.0024
0.6997	283.15	0.005252	0.000809
0.6997	285.65	0.005689	0.000874
0.6997	288.15	0.006184	0.000948
0.6997	290.65	0.006751	0.001034
0.6997	293.15	0.00734	0.001122
0.6997	295.65	0.00796	0.001216
0.6997	298.15	0.008592	0.001311
0.6997	300.65	0.0093	0.001418
0.6997	303.15	0.01011	0.00154
0.6997	305.65	0.01095	0.00167
0.6997	308.15	0.01181	0.0018
0.6997	310.65	0.0128	0.00195
0.6997	313.15	0.0138	0.0021
0.6997	315.65	0.0148	0.00225
0.6997	318.15	0.01599	0.00243
0.7991	283.15	0.0058	0.000883
0.7991	285.65	0.006291	0.000958
0.7991	288.15	0.006836	0.001041
0.7991	290.65	0.007411	0.001129
0.7991	293.15	0.007999	0.001218
0.7991	295.65	0.008592	0.001308
0.7991	298.15	0.009255	0.001409
0.7991	300.65	0.009975	0.001518
0.7991	303.15	0.01076	0.00164
0.7991	305.65	0.01144	0.00174
0.7991	308.15	0.01231	0.00187
0.7991	310.65	0.01328	0.00202
0.7991	313.15	0.01443	0.0022
0.7991	315.65	0.01557	0.00237
0.7991	318.15	0.01682	0.00256
0.8998	283.15	0.006094	0.000927
0.8998	285.65	0.006647	0.001011
0.8998	288.15	0.007241	0.001101
0.8998	290.65	0.007848	0.001193
0.8998	293.15	0.00845	0.001285
0.8998	295.65	0.009093	0.001383
0.8998	298.15	0.00979	0.001489
0.8998	300.65	0.0105	0.0016
0.8998	303.15	0.01134	0.00172
0.8998	305.65	0.01221	0.00186
0.8998	308.15	0.01321	0.00201
0.8998	310.65	0.01425	0.00217
0.8998	313.15	0.01539	0.00234
0.8998	315.65	0.01669	0.00254
0.8998	318.15	0.018	0.00274
