Measured thermophysical data. Thermodynamic study of the solubility of 2,4'-dihydroxydiphenyl sulfone in nine organic solvents from T = (278.15 to 313.15) K and thermodynamic properties of dissolution
Source: J. Chem. Thermodyn., 2016, 10.1016/j.jct.2016.07.001
Compound 1: 2,4'-dihydroxydiphenyl sulfone, C12H10O4S, InChI=1S/C12H10O4S/c13-9-5-7-10(8-6-9)17(15,16)12-4-2-1-3-11(12)14/h1-8,13-14H, purity 98.4%
Compound 2: acetonitrile, C2H3N, InChI=1S/C2H3N/c1-2-3/h1H3, purity 99.4%
Compound 3: ethanol, C2H6O, InChI=1S/C2H6O/c1-2-3/h3H,2H2,1H3, purity 99.7%
Compound 4: methanol, CH4O, InChI=1S/CH4O/c1-2/h2H,1H3, purity 99.3%
Compound 5: propan-2-ol, C3H8O, InChI=1S/C3H8O/c1-3(2)4/h3-4H,1-2H3, purity 99.7%
Compound 6: acetone, C3H6O, InChI=1S/C3H6O/c1-3(2)4/h1-2H3, purity 99.5%
Compound 7: ethyl acetate, C4H8O2, InChI=1S/C4H8O2/c1-3-6-4(2)5/h3H2,1-2H3, purity 99.5%
Compound 8: butan-1-ol, C4H10O, InChI=1S/C4H10O/c1-2-3-4-5/h5H,2-4H2,1H3, purity 99.5%
Compound 9: butanone, C4H8O, InChI=1S/C4H8O/c1-3-4(2)5/h3H2,1-2H3, purity 99.5%
Compound 10: 1,4-dioxane, C4H8O2, InChI=1S/C4H8O2/c1-2-6-4-3-5-1/h1-4H2, purity 99.4%

System: 2,4'-dihydroxydiphenyl sulfone; phases: Crystal, Liquid, Air at 1 atmosphere
Property: Normal melting temperature, K (Crystal); method: DTA
Normal melting temperature, K	uncertainty
455.35	1.06

System: 2,4'-dihydroxydiphenyl sulfone; phases: Crystal, Liquid, Air at 1 atmosphere
Property: Molar enthalpy of transition or fusion, kJ/mol (Crystal); method: DSC
Molar enthalpy of transition or fusion, kJ/mol	uncertainty
42.8	1.15

System: methanol + 2,4'-dihydroxydiphenyl sulfone; phases: Liquid, Crystal
Fixed: Pressure, kPa = 101.2
Property: Mole fraction of 2,4'-dihydroxydiphenyl sulfone (Liquid); method: Chromatography
Temperature, K	Mole fraction of 2,4'-dihydroxydiphenyl sulfone	uncertainty
278.15	0.0569	0.00242
280.65	0.05829	0.00247
283.15	0.05967	0.00253
285.65	0.06122	0.0026
288.15	0.06268	0.00266
290.65	0.06425	0.00273
293.15	0.06606	0.0028
295.65	0.0677	0.00287
298.15	0.06963	0.00296
300.65	0.07161	0.00304
303.15	0.07392	0.00314
305.65	0.07628	0.00324
308.15	0.07861	0.00334
310.65	0.08091	0.00344
313.15	0.08385	0.00356

System: ethanol + 2,4'-dihydroxydiphenyl sulfone; phases: Liquid, Crystal
Fixed: Pressure, kPa = 101.2
Property: Mole fraction of 2,4'-dihydroxydiphenyl sulfone (Liquid); method: Chromatography
Temperature, K	Mole fraction of 2,4'-dihydroxydiphenyl sulfone	uncertainty
278.15	0.06546	0.00278
280.65	0.06723	0.00285
283.15	0.06886	0.00292
285.65	0.07057	0.003
288.15	0.07247	0.00308
290.65	0.07455	0.00317
293.15	0.07655	0.00325
295.65	0.07848	0.00333
298.15	0.08049	0.00342
300.65	0.08267	0.00351
303.15	0.08499	0.00361
305.65	0.08724	0.0037
308.15	0.08984	0.00381
310.65	0.09283	0.00394
313.15	0.09569	0.00406

System: acetone + 2,4'-dihydroxydiphenyl sulfone; phases: Liquid, Crystal
Fixed: Pressure, kPa = 101.2
Property: Mole fraction of 2,4'-dihydroxydiphenyl sulfone (Liquid); method: Chromatography
Temperature, K	Mole fraction of 2,4'-dihydroxydiphenyl sulfone	uncertainty
278.15	0.106	0.0045
280.65	0.1076	0.0046
283.15	0.1096	0.0047
285.65	0.1118	0.0047
288.15	0.1146	0.0049
290.65	0.1174	0.005
293.15	0.1203	0.0051
295.65	0.1236	0.0052
298.15	0.1268	0.0054
300.65	0.1298	0.0055
303.15	0.133	0.0056
305.65	0.1358	0.0058
308.15	0.1388	0.0059
310.65	0.1421	0.006
313.15	0.146	0.0062

System: acetonitrile + 2,4'-dihydroxydiphenyl sulfone; phases: Liquid, Crystal
Fixed: Pressure, kPa = 101.2
Property: Mole fraction of 2,4'-dihydroxydiphenyl sulfone (Liquid); method: Chromatography
Temperature, K	Mole fraction of 2,4'-dihydroxydiphenyl sulfone	uncertainty
278.15	0.00974	0.00041
280.65	0.01091	0.00046
283.15	0.0121	0.0005
285.65	0.01318	0.00056
288.15	0.01441	0.00061
290.65	0.01559	0.00066
293.15	0.01685	0.00072
295.65	0.01791	0.00076
298.15	0.01918	0.00081
300.65	0.02045	0.00087
303.15	0.02191	0.00093
305.65	0.02359	0.001
308.15	0.02518	0.00107
310.65	0.02709	0.00115
313.15	0.02947	0.00125

System: ethyl acetate + 2,4'-dihydroxydiphenyl sulfone; phases: Liquid, Crystal
Fixed: Pressure, kPa = 101.2
Property: Mole fraction of 2,4'-dihydroxydiphenyl sulfone (Liquid); method: Chromatography
Temperature, K	Mole fraction of 2,4'-dihydroxydiphenyl sulfone	uncertainty
278.15	0.03858	0.00164
280.65	0.04021	0.00171
283.15	0.04149	0.00176
285.65	0.04318	0.00183
288.15	0.04491	0.00191
290.65	0.04654	0.00198
293.15	0.04824	0.00205
295.65	0.05009	0.00213
298.15	0.052	0.00221
300.65	0.05396	0.00229
303.15	0.05617	0.00238
305.65	0.0585	0.0025
308.15	0.06091	0.00259
310.65	0.06368	0.0027
313.15	0.06686	0.00284

System: 1,4-dioxane + 2,4'-dihydroxydiphenyl sulfone; phases: Liquid, Crystal
Fixed: Pressure, kPa = 101.2
Property: Mole fraction of 2,4'-dihydroxydiphenyl sulfone (Liquid); method: Chromatography
Temperature, K	Mole fraction of 2,4'-dihydroxydiphenyl sulfone	uncertainty
278.15	0.01836	0.00078
280.65	0.02127	0.0009
283.15	0.02417	0.00103
285.65	0.02719	0.00116
288.15	0.03028	0.00129
290.65	0.03382	0.00144
293.15	0.03757	0.0016
295.65	0.04155	0.00177
298.15	0.04646	0.00197
300.65	0.05136	0.00218
303.15	0.05572	0.00237
305.65	0.06107	0.00259
308.15	0.06644	0.00282
310.65	0.07127	0.00303
313.15	0.07704	0.00327

System: butan-1-ol + 2,4'-dihydroxydiphenyl sulfone; phases: Liquid, Crystal
Fixed: Pressure, kPa = 101.2
Property: Mole fraction of 2,4'-dihydroxydiphenyl sulfone (Liquid); method: Chromatography
Temperature, K	Mole fraction of 2,4'-dihydroxydiphenyl sulfone	uncertainty
278.15	0.05709	0.00242
280.65	0.05842	0.00248
283.15	0.05975	0.00254
285.65	0.06092	0.00259
288.15	0.06209	0.00264
290.65	0.06342	0.00269
293.15	0.06452	0.00274
295.65	0.06584	0.0028
298.15	0.06708	0.00285
300.65	0.06818	0.00289
303.15	0.06944	0.00295
305.65	0.07071	0.003
308.15	0.07192	0.00305
310.65	0.07342	0.00312
313.15	0.07508	0.00319

System: propan-2-ol + 2,4'-dihydroxydiphenyl sulfone; phases: Liquid, Crystal
Fixed: Pressure, kPa = 101.2
Property: Mole fraction of 2,4'-dihydroxydiphenyl sulfone (Liquid); method: Chromatography
Temperature, K	Mole fraction of 2,4'-dihydroxydiphenyl sulfone	uncertainty
278.15	0.06558	0.00278
280.65	0.06801	0.00289
283.15	0.07078	0.00301
285.65	0.07397	0.00314
288.15	0.07668	0.00326
290.65	0.07975	0.00339
293.15	0.08254	0.0035
295.65	0.08574	0.00364
298.15	0.08897	0.00378
300.65	0.09249	0.00393
303.15	0.09634	0.00409
305.65	0.1003	0.0043
308.15	0.1044	0.0044
310.65	0.1087	0.0046
313.15	0.1132	0.0048

System: butanone + 2,4'-dihydroxydiphenyl sulfone; phases: Liquid, Crystal
Fixed: Pressure, kPa = 101.2
Property: Mole fraction of 2,4'-dihydroxydiphenyl sulfone (Liquid); method: Chromatography
Temperature, K	Mole fraction of 2,4'-dihydroxydiphenyl sulfone	uncertainty
278.15	0.1013	0.0043
280.65	0.1032	0.0044
283.15	0.105	0.0045
285.65	0.1071	0.0045
288.15	0.1089	0.0046
290.65	0.111	0.0047
293.15	0.1132	0.0048
295.65	0.1154	0.0049
298.15	0.1176	0.005
300.65	0.1197	0.0051
303.15	0.1224	0.0052
305.65	0.1249	0.0053
308.15	0.1274	0.0054
310.65	0.1304	0.0055
313.15	0.1341	0.0057
