Measured thermophysical data. Liquid-liquid equilibrium in systems used for the production of 5-hydroxymethylfurfural from biomass using alcohols as solvents
Source: J. Chem. Thermodyn., 2017, 10.1016/j.jct.2017.03.019
Compound 1: water, H2O, InChI=1S/H2O/h1H2
Compound 2: butan-1-ol, C4H10O, InChI=1S/C4H10O/c1-2-3-4-5/h5H,2-4H2,1H3, purity 99.8%
Compound 3: butan-2-ol, C4H10O, InChI=1S/C4H10O/c1-3-4(2)5/h4-5H,3H2,1-2H3, purity 99.9%
Compound 4: pentan-2-ol, C5H12O, InChI=1S/C5H12O/c1-3-4-5(2)6/h5-6H,3-4H2,1-2H3, purity 99.8%
Compound 5: 5-(hydroxymethyl)furan-2-carbaldehyde, C6H6O3, InChI=1S/C6H6O3/c7-3-5-1-2-6(4-8)9-5/h1-3,8H,4H2, purity 99.9%

System: water; phases: Liquid
Property: Mass density, kg/m3 (Liquid); method: Vibrating tube method
Temperature, K	Pressure, kPa	Mass density, kg/m3	uncertainty
298.2	101.325	997.17	1.88

System: water; phases: Liquid
Property: Refractive index (Na D-line) (Liquid); method: Standard Abbe refractometry
Temperature, K	Pressure, kPa	Refractive index (Na D-line)	uncertainty
298.2	101.325	1.3325	0.0032

System: butan-1-ol; phases: Liquid
Property: Mass density, kg/m3 (Liquid); method: Vibrating tube method
Temperature, K	Pressure, kPa	Mass density, kg/m3	uncertainty
298.2	101.325	805.81	1.87

System: butan-1-ol; phases: Liquid
Property: Refractive index (Na D-line) (Liquid); method: Standard Abbe refractometry
Temperature, K	Pressure, kPa	Refractive index (Na D-line)	uncertainty
298.2	101.325	1.3973	0.0032

System: butan-2-ol; phases: Liquid
Property: Mass density, kg/m3 (Liquid); method: Vibrating tube method
Temperature, K	Pressure, kPa	Mass density, kg/m3	uncertainty
298.2	101.325	802.49	0.95

System: butan-2-ol; phases: Liquid
Property: Refractive index (Na D-line) (Liquid); method: Standard Abbe refractometry
Temperature, K	Pressure, kPa	Refractive index (Na D-line)	uncertainty
298.2	101.325	1.3952	0.0016

System: pentan-2-ol; phases: Liquid
Property: Mass density, kg/m3 (Liquid); method: Vibrating tube method
Temperature, K	Pressure, kPa	Mass density, kg/m3	uncertainty
298.2	101.325	805.37	1.87

System: pentan-2-ol; phases: Liquid
Property: Refractive index (Na D-line) (Liquid); method: Standard Abbe refractometry
Temperature, K	Pressure, kPa	Refractive index (Na D-line)	uncertainty
298.2	101.325	1.4044	0.0032

System: 5-(hydroxymethyl)furan-2-carbaldehyde + butan-1-ol + water; phases: Liquid mixture 1, Liquid mixture 2
Fixed: Temperature, K = 298.2
Fixed: Pressure, kPa = 100
Property: Mass fraction of 5-(hydroxymethyl)furan-2-carbaldehyde (Liquid mixture 1); method: Titration method
Mass fraction of water	Mass fraction of 5-(hydroxymethyl)furan-2-carbaldehyde	uncertainty
0.2058	0	
0.2127	0.0161	0.0161
0.2204	0.0311	0.031
0.2381	0.0676	0.0321
0.3379	0.1658	0.0223
0.3979	0.1873	0.0104
0.4812	0.1843	0.0102
0.5747	0.1714	0.0107
0.6559	0.1538	0.0115
0.7131	0.1363	0.0141
0.7919	0.0987	0.0167
0.8535	0.0591	0.0192
0.886	0.0362	0.0228
0.9265	0	

System: 5-(hydroxymethyl)furan-2-carbaldehyde + butan-1-ol + water; phases: Liquid
Fixed: Temperature, K = 298.2
Fixed: Pressure, kPa = 100
Property: Mass density, kg/m3 (Liquid); method: Vibrating tube method
Mass fraction of water	Mass fraction of 5-(hydroxymethyl)furan-2-carbaldehyde	Mass density, kg/m3	uncertainty
0.2058	0	844.74	3.53
0.2127	0.0161	851.14	3.61
0.2204	0.0311	857.66	3.62
0.2381	0.0676	873.62	3.65
0.3379	0.1658	897.49	3.69
0.3979	0.1873	929.88	3.75
0.4812	0.1843	951.04	3.79
0.5747	0.1714	968.21	3.82
0.6559	0.1538	983.62	3.85
0.7131	0.1363	994.01	3.87
0.7919	0.0987	999.34	3.88
0.8535	0.0591	996.5	3.88
0.886	0.0362	993.24	3.87
0.9265	0	986.16	3.77

System: 5-(hydroxymethyl)furan-2-carbaldehyde + butan-1-ol + water; phases: Liquid
Fixed: Temperature, K = 298.2
Fixed: Pressure, kPa = 100
Property: Refractive index (Na D-line) (Liquid); method: Standard Abbe refractometry
Mass fraction of water	Mass fraction of 5-(hydroxymethyl)furan-2-carbaldehyde	Refractive index (Na D-line)	uncertainty
0.2058	0	1.3885	0.0036
0.2127	0.0161	1.3901	0.0036
0.2204	0.0311	1.3914	0.0036
0.2381	0.0676	1.3946	0.0036
0.3379	0.1658	1.3985	0.0036
0.3979	0.1873	1.4008	0.0036
0.4812	0.1843	1.3997	0.0036
0.5747	0.1714	1.3943	0.0036
0.6559	0.1538	1.3863	0.0036
0.7131	0.1363	1.3785	0.0036
0.7919	0.0987	1.3725	0.0036
0.8535	0.0591	1.3525	0.0036
0.886	0.0362	1.3473	0.0036
0.9265	0	1.3402	0.0036

System: 5-(hydroxymethyl)furan-2-carbaldehyde + butan-1-ol + water; phases: Liquid mixture 2, Liquid mixture 1
Fixed: Temperature, K = 298.2
Fixed: Pressure, kPa = 100
Property: Mass fraction of 5-(hydroxymethyl)furan-2-carbaldehyde (Liquid mixture 2); method: Density calibration data
Property: Mass fraction of 5-(hydroxymethyl)furan-2-carbaldehyde (Liquid mixture 1); method: Density calibration data
Property: Mass fraction of water (Liquid mixture 1); method: Density calibration data
Mass fraction of water	Mass fraction of 5-(hydroxymethyl)furan-2-carbaldehyde	uncertainty	Mass fraction of 5-(hydroxymethyl)furan-2-carbaldehyde	uncertainty	Mass fraction of water	uncertainty
0.9085	0.0151	0.009	0.0329	0.0329	0.2209	
0.8907	0.0301	0.009	0.0859	0.0316	0.2464	
0.8716	0.045	0.0091	0.118	0.0275	0.2742	
0.848	0.0674	0.0091	0.1507	0.0163	0.3117	
0.8068	0.0924	0.0092	0.1848	0.014	0.4006	

System: 5-(hydroxymethyl)furan-2-carbaldehyde + butan-2-ol + water; phases: Liquid mixture 1, Liquid mixture 2
Fixed: Temperature, K = 298.2
Fixed: Pressure, kPa = 100
Property: Mass fraction of 5-(hydroxymethyl)furan-2-carbaldehyde (Liquid mixture 1); method: Titration method
Mass fraction of water	Mass fraction of 5-(hydroxymethyl)furan-2-carbaldehyde	uncertainty
0.8131	0	
0.7835	0.0092	0.0092
0.751	0.0169	0.0099
0.7151	0.0231	0.0092
0.6838	0.0264	0.0087
0.6363	0.0296	0.0085
0.5589	0.0319	0.0085
0.4948	0.032	0.0085
0.4605	0.0295	0.009
0.441	0.0267	0.0092
0.4198	0.0229	0.0105
0.3994	0.0179	0.0115
0.3766	0.0095	0.0095
0.3523	0	

System: 5-(hydroxymethyl)furan-2-carbaldehyde + butan-2-ol + water; phases: Liquid
Fixed: Temperature, K = 298.2
Fixed: Pressure, kPa = 100
Property: Mass density, kg/m3 (Liquid); method: Vibrating tube method
Mass fraction of water	Mass fraction of 5-(hydroxymethyl)furan-2-carbaldehyde	Mass density, kg/m3	uncertainty
0.8131	0	968.42	3.74
0.7835	0.0092	966.15	3.82
0.751	0.0169	962.99	3.81
0.7151	0.0231	957.52	3.8
0.6838	0.0264	952.33	3.79
0.6363	0.0296	944.16	3.78
0.5589	0.0319	927.94	3.75
0.4948	0.032	914.77	3.72
0.4605	0.0295	906.68	3.71
0.441	0.0267	901.84	3.7
0.4198	0.0229	896.11	3.69
0.3994	0.0179	889.98	3.68
0.3766	0.0095	882.54	3.67
0.3523	0	874.34	3.58

System: 5-(hydroxymethyl)furan-2-carbaldehyde + butan-2-ol + water; phases: Liquid
Fixed: Temperature, K = 298.2
Fixed: Pressure, kPa = 100
Property: Refractive index (Na D-line) (Liquid); method: Standard Abbe refractometry
Mass fraction of water	Mass fraction of 5-(hydroxymethyl)furan-2-carbaldehyde	Refractive index (Na D-line)	uncertainty
0.8131	0	1.3513	0.0036
0.7835	0.0092	1.3549	0.0036
0.751	0.0169	1.3578	0.0036
0.7151	0.0231	1.3607	0.0036
0.6838	0.0264	1.3645	0.0036
0.6363	0.0296	1.3663	0.0036
0.5589	0.0319	1.3741	0.0036
0.4948	0.032	1.3773	0.0036
0.4605	0.0295	1.3788	0.0036
0.441	0.0267	1.3798	0.0036
0.4198	0.0229	1.3806	0.0036
0.3994	0.0179	1.3807	0.0036
0.3766	0.0095	1.3811	0.0036
0.3523	0	1.3812	0.0036

System: 5-(hydroxymethyl)furan-2-carbaldehyde + butan-2-ol + water; phases: Liquid mixture 2, Liquid mixture 1
Fixed: Temperature, K = 298.2
Fixed: Pressure, kPa = 100
Property: Mass fraction of 5-(hydroxymethyl)furan-2-carbaldehyde (Liquid mixture 2); method: Density calibration data
Property: Mass fraction of 5-(hydroxymethyl)furan-2-carbaldehyde (Liquid mixture 1); method: Density calibration data
Property: Mass fraction of water (Liquid mixture 1); method: Density calibration data
Mass fraction of water	Mass fraction of 5-(hydroxymethyl)furan-2-carbaldehyde	uncertainty	Mass fraction of 5-(hydroxymethyl)furan-2-carbaldehyde	uncertainty	Mass fraction of water	uncertainty
0.8043	0.0033	0.0033	0.0063	0.0063	0.3665	
0.7948	0.0069	0.0069	0.0109	0.009	0.3795	
0.7852	0.0098	0.009	0.0148	0.009	0.3893	
0.7754	0.0126	0.009	0.0185	0.009	0.4016	
0.7661	0.015	0.009	0.0207	0.009	0.4148	
0.7408	0.0196	0.009	0.026	0.009	0.4388	

System: 5-(hydroxymethyl)furan-2-carbaldehyde + pentan-2-ol + water; phases: Liquid mixture 1, Liquid mixture 2
Fixed: Temperature, K = 298.2
Fixed: Pressure, kPa = 100
Property: Mass fraction of 5-(hydroxymethyl)furan-2-carbaldehyde (Liquid mixture 1); method: Titration method
Mass fraction of water	Mass fraction of 5-(hydroxymethyl)furan-2-carbaldehyde	uncertainty
0.9477	0	
0.9235	0.0238	0.0238
0.8381	0.1039	0.0241
0.7383	0.1834	0.0198
0.598	0.2642	0.0165
0.4894	0.297	0.0138
0.4344	0.3073	0.0124
0.3347	0.3138	0.0122
0.2821	0.301	0.0168
0.2312	0.2668	0.0304
0.1735	0.1839	0.0456
0.1467	0.1178	0.0864
0.1238	0.0376	0.0376
0.1177	0	

System: 5-(hydroxymethyl)furan-2-carbaldehyde + pentan-2-ol + water; phases: Liquid
Fixed: Temperature, K = 298.2
Fixed: Pressure, kPa = 100
Property: Mass density, kg/m3 (Liquid); method: Vibrating tube method
Mass fraction of water	Mass fraction of 5-(hydroxymethyl)furan-2-carbaldehyde	Mass density, kg/m3	uncertainty
0.9477	0	989.77	3.77
0.9235	0.0238	995.17	3.87
0.8381	0.1039	1011.24	3.91
0.7383	0.1834	1024.86	3.93
0.598	0.2642	1029.44	3.94
0.4894	0.297	1018.53	3.92
0.4344	0.3073	1010.28	3.9
0.3347	0.3138	989.63	3.86
0.2821	0.301	971.93	3.83
0.2312	0.2668	946.28	3.78
0.1735	0.1839	901.88	3.7
0.1467	0.1178	872.46	3.65
0.1238	0.0376	840.82	3.59
0.1177	0	827.45	3.5

System: 5-(hydroxymethyl)furan-2-carbaldehyde + pentan-2-ol + water; phases: Liquid
Fixed: Temperature, K = 298.2
Fixed: Pressure, kPa = 100
Property: Refractive index (Na D-line) (Liquid); method: Standard Abbe refractometry
Mass fraction of water	Mass fraction of 5-(hydroxymethyl)furan-2-carbaldehyde	Refractive index (Na D-line)	uncertainty
0.9477	0	1.3377	0.0036
0.9235	0.0238	1.3426	0.0036
0.8381	0.1039	1.3584	0.0036
0.7383	0.1834	1.3758	0.0036
0.598	0.2642	1.3973	0.0036
0.4894	0.297	1.4077	0.0036
0.4344	0.3073	1.4155	0.0036
0.3347	0.3138	1.4232	0.0036
0.2821	0.301	1.425	0.0036
0.2312	0.2668	1.4239	0.0036
0.1735	0.1839	1.4169	0.0036
0.1467	0.1178	1.4108	0.0036
0.1238	0.0376	1.4028	0.0036
0.1177	0	1.3992	0.0036

System: 5-(hydroxymethyl)furan-2-carbaldehyde + pentan-2-ol + water; phases: Liquid mixture 2, Liquid mixture 1
Fixed: Temperature, K = 298.2
Fixed: Pressure, kPa = 100
Property: Mass fraction of water (Liquid mixture 2); method: Density calibration data
Property: Mass fraction of water (Liquid mixture 1); method: Density calibration data
Property: Mass fraction of 5-(hydroxymethyl)furan-2-carbaldehyde (Liquid mixture 1); method: Density calibration data
Mass fraction of 5-(hydroxymethyl)furan-2-carbaldehyde	Mass fraction of water	uncertainty	Mass fraction of water	uncertainty	Mass fraction of 5-(hydroxymethyl)furan-2-carbaldehyde	uncertainty
0.0286	0.9134	0.0276	0.1301	0.0264	0.0529	
0.0592	0.8847	0.0277	0.1402	0.0265	0.0933	
0.095	0.8487	0.028	0.1544	0.0266	0.1391	
0.1234	0.819	0.0281	0.1685	0.0267	0.1739	

System: butan-1-ol + water; phases: Liquid mixture 1, Liquid mixture 2
Fixed: Temperature, K = 298.2
Fixed: Pressure, kPa = 100
Property: Mass fraction of water (Liquid mixture 1); method: Titration method
Mass fraction of water	uncertainty
0.2058	0.0262
0.9265	0.026

System: butan-1-ol + water; phases: Liquid
Fixed: Temperature, K = 298.2
Fixed: Pressure, kPa = 100
Property: Mass density, kg/m3 (Liquid); method: Vibrating tube method
Mass fraction of water	Mass density, kg/m3	uncertainty
0.2058	844.74	3.53
0.9265	986.16	3.77

System: butan-1-ol + water; phases: Liquid
Fixed: Temperature, K = 298.2
Fixed: Pressure, kPa = 100
Property: Refractive index (Na D-line) (Liquid); method: Standard Abbe refractometry
Mass fraction of water	Refractive index (Na D-line)	uncertainty
0.2058	1.3885	0.0036
0.9265	1.3402	0.0036

System: butan-2-ol + water; phases: Liquid mixture 1, Liquid mixture 2
Fixed: Temperature, K = 298.2
Fixed: Pressure, kPa = 100
Property: Mass fraction of water (Liquid mixture 1); method: Titration method
Mass fraction of water	uncertainty
0.8131	0.0261
0.3523	0.0265

System: butan-2-ol + water; phases: Liquid
Fixed: Temperature, K = 298.2
Fixed: Pressure, kPa = 100
Property: Mass density, kg/m3 (Liquid); method: Vibrating tube method
Mass fraction of water	Mass density, kg/m3	uncertainty
0.8131	968.42	3.74
0.3523	874.34	3.58

System: butan-2-ol + water; phases: Liquid
Fixed: Temperature, K = 298.2
Fixed: Pressure, kPa = 100
Property: Refractive index (Na D-line) (Liquid); method: Standard Abbe refractometry
Mass fraction of water	Refractive index (Na D-line)	uncertainty
0.8131	1.3513	0.0036
0.3523	1.3812	0.0036

System: pentan-2-ol + water; phases: Liquid mixture 1, Liquid mixture 2
Fixed: Temperature, K = 298.2
Fixed: Pressure, kPa = 100
Property: Mass fraction of water (Liquid mixture 1); method: Titration method
Mass fraction of water	uncertainty
0.9477	0.026
0.1177	0.0261

System: pentan-2-ol + water; phases: Liquid
Fixed: Temperature, K = 298.2
Fixed: Pressure, kPa = 100
Property: Mass density, kg/m3 (Liquid); method: Vibrating tube method
Mass fraction of water	Mass density, kg/m3	uncertainty
0.9477	989.77	3.77
0.1177	827.45	3.5

System: pentan-2-ol + water; phases: Liquid
Fixed: Temperature, K = 298.2
Fixed: Pressure, kPa = 100
Property: Refractive index (Na D-line) (Liquid); method: Standard Abbe refractometry
Mass fraction of water	Refractive index (Na D-line)	uncertainty
0.9477	1.3377	0.0036
0.1177	1.3992	0.0036
