Measured thermophysical data. Solubilities of gases in cycloethers. The solubility of 13 nonpolar gases in 2,5-dimethyltetrahydrofuran at 273.15 to 303.15 K and 101.32 kPa
Source: J. Chem. Thermodyn., 2019, 10.1016/j.jct.2018.12.037
Compound 1: helium, He, InChI=1S/He, purity 99.995%
Compound 2: neon, Ne, InChI=1S/Ne, purity 99.9%
Compound 3: argon, Ar, InChI=1S/Ar, purity 99.999%
Compound 4: krypton, Kr, InChI=1S/Kr, purity 99.95%
Compound 5: xenon, Xe, InChI=1S/Xe, purity 99.995%
Compound 6: hydrogen, H2, InChI=1S/H2/h1H, purity 99.99%
Compound 7: deuterium, D2, InChI=1S/H2/h1H/i1+1D, purity 99.4%
Compound 8: nitrogen, N2, InChI=1S/N2/c1-2, purity 99.998%
Compound 9: methane, CH4, InChI=1S/CH4/h1H4, purity 99.95%
Compound 10: ethene, C2H4, InChI=1S/C2H4/c1-2/h1-2H2, purity 99.9%
Compound 11: ethane, C2H6, InChI=1S/C2H6/c1-2/h1-2H3, purity 99%
Compound 12: tetrafluoromethane, CF4, InChI=1S/CF4/c2-1(3,4)5, purity 99%
Compound 13: sulfur hexafluoride, F6S, InChI=1S/F6S/c1-7(2,3,4,5)6, purity 99.5%
Compound 14: cis-2,5-dimethyltetrahydrofuran, C6H12O, InChI=1S/C6H12O/c1-5-3-4-6(2)7-5/h5-6H,3-4H2,1-2H3/t5-,6+, purity 99%
Compound 15: trans-2,5-dimethyltetrahydrofuran, C6H12O, InChI=1S/C6H12O/c1-5-3-4-6(2)7-5/h5-6H,3-4H2,1-2H3/t5-,6-/m1/s1, purity 99%

System: cis-2,5-dimethyltetrahydrofuran + trans-2,5-dimethyltetrahydrofuran; phases: Liquid
Property: Refractive index (Na D-line) (Liquid); method: Standard Abbe refractometry
Temperature, K	Pressure, kPa	Mole fraction of cis-2,5-dimethyltetrahydrofuran	Refractive index (Na D-line)	uncertainty
293.15	100	0.52	1.4043	0.0004

System: cis-2,5-dimethyltetrahydrofuran + trans-2,5-dimethyltetrahydrofuran; phases: Liquid
Fixed: Pressure, kPa = 100
Fixed: Mole fraction of cis-2,5-dimethyltetrahydrofuran = 0.52
Property: Mass density, kg/m3 (Liquid); method: Vibrating tube method
Temperature, K	Mass density, kg/m3	uncertainty
273.15	848.22	2.34
283.15	838.53	2.33
293.15	828.71	2.31
298.15	823.89	2.31
303.15	818.91	2.3

System: cis-2,5-dimethyltetrahydrofuran + trans-2,5-dimethyltetrahydrofuran; phases: Liquid, Gas
Fixed: Mole fraction of cis-2,5-dimethyltetrahydrofuran = 0.52
Property: Vapor or sublimation pressure, kPa (Liquid); method: Manometric method
Temperature, K	Vapor or sublimation pressure, kPa	uncertainty
273.15	2.066	0.084
283.15	3.618	0.089
293.15	6.18	0.097
298.15	7.909	0.105
303.15	10.112	0.112

System: cis-2,5-dimethyltetrahydrofuran + trans-2,5-dimethyltetrahydrofuran + helium; phases: Liquid, Gas
Fixed: Solvent: Mole fraction of cis-2,5-dimethyltetrahydrofuran = 0.52
Fixed: Pressure, kPa = 101.32
Property: Mole fraction of helium (Liquid); method: volumetric method
Temperature, K	Mole fraction of helium	uncertainty
273.15	0.000113	5e-06
283.15	0.000128	5e-06
293.15	0.000146	6e-06
298.15	0.000154	6e-06
303.15	0.000166	7e-06

System: cis-2,5-dimethyltetrahydrofuran + trans-2,5-dimethyltetrahydrofuran + neon; phases: Liquid, Gas
Fixed: Solvent: Mole fraction of cis-2,5-dimethyltetrahydrofuran = 0.52
Fixed: Pressure, kPa = 101.32
Property: Mole fraction of neon (Liquid); method: volumetric method
Temperature, K	Mole fraction of neon	uncertainty
273.15	0.000177	7e-06
283.15	0.000199	8e-06
293.15	0.000216	9e-06
298.15	0.000228	9e-06
303.15	0.000235	1e-05

System: cis-2,5-dimethyltetrahydrofuran + trans-2,5-dimethyltetrahydrofuran + argon; phases: Liquid, Gas
Fixed: Solvent: Mole fraction of cis-2,5-dimethyltetrahydrofuran = 0.52
Fixed: Pressure, kPa = 101.32
Property: Mole fraction of argon (Liquid); method: volumetric method
Temperature, K	Mole fraction of argon	uncertainty
273.15	0.001699	3.5e-05
283.15	0.001676	3.5e-05
293.15	0.001669	3.5e-05
298.15	0.00165	3.4e-05
303.15	0.001643	3.4e-05

System: cis-2,5-dimethyltetrahydrofuran + trans-2,5-dimethyltetrahydrofuran + krypton; phases: Liquid, Gas
Fixed: Solvent: Mole fraction of cis-2,5-dimethyltetrahydrofuran = 0.52
Fixed: Pressure, kPa = 101.32
Property: Mole fraction of krypton (Liquid); method: volumetric method
Temperature, K	Mole fraction of krypton	uncertainty
273.15	0.00561	0.000117
283.15	0.005253	0.000109
293.15	0.004896	0.000102
298.15	0.004731	9.8e-05
303.15	0.004589	9.5e-05

System: cis-2,5-dimethyltetrahydrofuran + trans-2,5-dimethyltetrahydrofuran + xenon; phases: Liquid, Gas
Fixed: Solvent: Mole fraction of cis-2,5-dimethyltetrahydrofuran = 0.52
Fixed: Pressure, kPa = 101.32
Property: Mole fraction of xenon (Liquid); method: volumetric method
Temperature, K	Mole fraction of xenon	uncertainty
273.15	0.02551	0.00053
283.15	0.02276	0.00047
293.15	0.0203	0.00042
298.15	0.01924	0.0004
303.15	0.01799	0.00037

System: cis-2,5-dimethyltetrahydrofuran + trans-2,5-dimethyltetrahydrofuran + hydrogen; phases: Liquid, Gas
Fixed: Solvent: Mole fraction of cis-2,5-dimethyltetrahydrofuran = 0.52
Fixed: Pressure, kPa = 101.32
Property: Mole fraction of hydrogen (Liquid); method: volumetric method
Temperature, K	Mole fraction of hydrogen	uncertainty
273.15	0.000387	8e-06
283.15	0.000414	9e-06
293.15	0.000439	9e-06
298.15	0.000458	1e-05
303.15	0.000471	1e-05

System: cis-2,5-dimethyltetrahydrofuran + trans-2,5-dimethyltetrahydrofuran + deuterium; phases: Liquid, Gas
Fixed: Solvent: Mole fraction of cis-2,5-dimethyltetrahydrofuran = 0.52
Fixed: Pressure, kPa = 101.32
Property: Mole fraction of deuterium (Liquid); method: volumetric method
Temperature, K	Mole fraction of deuterium	uncertainty
273.15	0.000397	8e-06
283.15	0.000427	9e-06
293.15	0.000454	9e-06
298.15	0.00047	1e-05
303.15	0.000484	1e-05

System: cis-2,5-dimethyltetrahydrofuran + trans-2,5-dimethyltetrahydrofuran + nitrogen; phases: Liquid, Gas
Fixed: Solvent: Mole fraction of cis-2,5-dimethyltetrahydrofuran = 0.52
Fixed: Pressure, kPa = 101.32
Property: Mole fraction of nitrogen (Liquid); method: volumetric method
Temperature, K	Mole fraction of nitrogen	uncertainty
273.15	0.000844	1.8e-05
283.15	0.000859	1.8e-05
293.15	0.000874	1.8e-05
298.15	0.000881	1.8e-05
303.15	0.00089	1.9e-05

System: cis-2,5-dimethyltetrahydrofuran + trans-2,5-dimethyltetrahydrofuran + methane; phases: Liquid, Gas
Fixed: Solvent: Mole fraction of cis-2,5-dimethyltetrahydrofuran = 0.52
Fixed: Pressure, kPa = 101.32
Property: Mole fraction of methane (Liquid); method: volumetric method
Temperature, K	Mole fraction of methane	uncertainty
273.15	0.004128	8.6e-05
283.15	0.003891	8.1e-05
293.15	0.003712	7.7e-05
298.15	0.003615	7.5e-05
303.15	0.003534	7.3e-05

System: cis-2,5-dimethyltetrahydrofuran + trans-2,5-dimethyltetrahydrofuran + ethene; phases: Liquid, Gas
Fixed: Solvent: Mole fraction of cis-2,5-dimethyltetrahydrofuran = 0.52
Fixed: Pressure, kPa = 101.32
Property: Mole fraction of ethene (Liquid); method: volumetric method
Temperature, K	Mole fraction of ethene	uncertainty
273.15	0.02775	0.00058
283.15	0.02356	0.00049
293.15	0.02013	0.00042
298.15	0.01889	0.00039
303.15	0.01758	0.00037

System: cis-2,5-dimethyltetrahydrofuran + trans-2,5-dimethyltetrahydrofuran + ethane; phases: Liquid, Gas
Fixed: Solvent: Mole fraction of cis-2,5-dimethyltetrahydrofuran = 0.52
Fixed: Pressure, kPa = 101.32
Property: Mole fraction of ethane (Liquid); method: volumetric method
Temperature, K	Mole fraction of ethane	uncertainty
273.15	0.03655	0.00076
283.15	0.03029	0.00063
293.15	0.02545	0.00053
298.15	0.02376	0.0005
303.15	0.02171	0.00045

System: cis-2,5-dimethyltetrahydrofuran + trans-2,5-dimethyltetrahydrofuran + tetrafluoromethane; phases: Liquid, Gas
Fixed: Solvent: Mole fraction of cis-2,5-dimethyltetrahydrofuran = 0.52
Fixed: Pressure, kPa = 101.32
Property: Mole fraction of tetrafluoromethane (Liquid); method: volumetric method
Temperature, K	Mole fraction of tetrafluoromethane	uncertainty
273.15	0.001422	3e-05
283.15	0.001395	2.9e-05
293.15	0.001378	2.9e-05
298.15	0.00137	2.8e-05
303.15	0.001361	2.8e-05

System: cis-2,5-dimethyltetrahydrofuran + trans-2,5-dimethyltetrahydrofuran + sulfur hexafluoride; phases: Liquid, Gas
Fixed: Solvent: Mole fraction of cis-2,5-dimethyltetrahydrofuran = 0.52
Fixed: Pressure, kPa = 101.32
Property: Mole fraction of sulfur hexafluoride (Liquid); method: volumetric method
Temperature, K	Mole fraction of sulfur hexafluoride	uncertainty
273.15	0.008866	0.000185
283.15	0.007922	0.000165
293.15	0.007171	0.000149
298.15	0.00686	0.000143
303.15	0.006395	0.000133
