Measured thermophysical data. Apparent molar volumes and heat capacities of aqueous lithium chloride, rubidium chloride, and cesium chloride at temperatures from (278.15 to 393.15) K at the pressure 0.35 MPa
Source: J. Chem. Thermodyn., 2004, 10.1016/j.jct.2004.01.004
Compound 1: lithium chloride, ClLi, InChI=1S/ClH.Li/h1H;/q;+1/p-1
Compound 2: water, H2O, InChI=1S/H2O/h1H2
Compound 3: rubidium chloride, ClRb, InChI=1S/ClH.Rb/h1H;/q;+1/p-1
Compound 4: cesium chloride, ClCs, InChI=1S/ClH.Cs/h1H;/q;+1/p-1

System: lithium chloride + water; phases: Liquid
Fixed: Pressure, kPa = 350
Property: Apparent molar heat capacity, J/K/mol (Liquid); method: Differential flow calorimetry
Temperature, K	Molality, mol/kg of lithium chloride	Apparent molar heat capacity, J/K/mol	uncertainty
278.15	0.02489	-91	15
278.15	0.05062	-91	12
278.15	0.0748	-93	7.8
278.15	0.09985	-92.1	5.7
278.15	0.24981	-86	1.6
278.15	0.49932	-78.31	0.62
278.15	1.00359	-65	0.43
283.15	0.02489	-77	15
283.15	0.05062	-78.1	9.8
283.15	0.0748	-80.4	6.5
283.15	0.09985	-78.7	4.8
283.15	0.24981	-72.8	1.5
283.15	0.49932	-65.87	0.58
283.15	1.00359	-54.41	0.36
288.15	0.02489	-64	15
288.15	0.05062	-67.6	8.8
288.15	0.0748	-69.6	5.9
288.15	0.09985	-67.8	4.3
288.15	0.24981	-62.5	1.6
288.15	0.49932	-56.23	0.64
288.15	1.00359	-46.21	0.36
293.15	0.02489	-57	15
293.15	0.05062	-57.9	8.5
293.15	0.0748	-60.1	5.6
293.15	0.09985	-58.8	4.2
293.15	0.24981	-54.2	1.6
293.15	0.49932	-48.63	0.64
293.15	1.00359	-39.72	0.34
298.15	0.02489	-52	16
298.15	0.05062	-51.8	8.5
298.15	0.0748	-53.9	5.8
298.15	0.09985	-52.9	4.3
298.15	0.24981	-48.2	1.7
298.15	0.49932	-42.98	0.68
298.15	1.00359	-34.82	0.34
303.15	0.02489	-48	16
303.15	0.05062	-47.4	8.5
303.15	0.0748	-48.7	5.7
303.15	0.09985	-48.3	4.3
303.15	0.24981	-43.4	1.7
303.15	0.49932	-38.53	0.68
303.15	1.00359	-30.99	0.34
308.15	0.02489	-44	16
308.15	0.05062	-44.5	8.3
308.15	0.0748	-45.4	5.6
308.15	0.09985	-44.8	4.2
308.15	0.24981	-39.9	1.7
308.15	0.49932	-35.19	0.67
308.15	1.00359	-28.21	0.33
313.15	0.02489	-42	16
313.15	0.05062	-42.4	8.1
313.15	0.0748	-43.1	5.5
313.15	0.09985	-42.4	4.1
313.15	0.24981	-37.4	1.6
313.15	0.49932	-32.77	0.66
313.15	1.00359	-26.15	0.32
318.15	0.02489	-42	16
318.15	0.05062	-41.3	7.9
318.15	0.0748	-41.5	5.3
318.15	0.09985	-40.9	4
318.15	0.24981	-35.7	1.6
318.15	0.49932	-31.14	0.64
318.15	1.00359	-24.86	0.32
323.15	0.02489	-41	15
323.15	0.05062	-41.4	7.6
323.15	0.0748	-41	5.2
323.15	0.09985	-40.2	4
323.15	0.24981	-34.7	1.6
323.15	0.49932	-30.11	0.63
323.15	1.00359	-24.06	0.31
328.15	0.02489	-38	15
328.15	0.05062	-40.9	7.8
328.15	0.0748	-40.4	5.1
328.15	0.09985	-39.9	3.8
328.15	0.24981	-34.1	1.5
328.15	0.49932	-29.55	0.6
328.15	1.00359	-23.67	0.29
333.15	0.02489	-40	15
333.15	0.05062	-41.6	7.4
333.15	0.0748	-40.9	5
333.15	0.09985	-40.1	3.8
333.15	0.24981	-34.1	1.5
333.15	0.49932	-29.42	0.58
333.15	1.00359	-23.62	0.28
338.15	0.02489	-39	15
338.15	0.05062	-42.3	7.4
338.15	0.0748	-41.6	4.9
338.15	0.09985	-40.8	3.7
338.15	0.24981	-34.5	1.5
338.15	0.49932	-29.67	0.57
338.15	1.00359	-23.89	0.28
343.15	0.02489	-38	15
343.15	0.05062	-43.8	7.4
343.15	0.0748	-42.5	5
343.15	0.09985	-42.1	3.7
343.15	0.24981	-35.4	1.5
343.15	0.49932	-30.38	0.57
343.15	1.00359	-24.6	0.28
348.15	0.02489	-45	15
348.15	0.05062	-45.9	7.4
348.15	0.0748	-43.8	5
348.15	0.09985	-43.7	3.7
348.15	0.24981	-36.7	1.5
348.15	0.49932	-31.38	0.57
348.15	1.00359	-25.52	0.28
353.15	0.02489	-42	15
353.15	0.05062	-47.6	7.3
353.15	0.0748	-45.7	4.9
353.15	0.09985	-45.7	3.6
353.15	0.24981	-38.2	1.5
353.15	0.49932	-32.62	0.55
353.15	1.00359	-26.57	0.28
358.15	0.02489	-44	15
358.15	0.05062	-51	7.3
358.15	0.0748	-49.4	4.8
358.15	0.09985	-48.1	3.6
358.15	0.24981	-40.1	1.5
358.15	0.49932	-34.15	0.54
358.15	1.00359	-27.86	0.28
363.15	0.02489	-48	15
363.15	0.05062	-52.5	7.2
363.15	0.0748	-51.8	4.8
363.15	0.09985	-50.9	3.6
363.15	0.24981	-42.3	1.5
363.15	0.49932	-35.99	0.53
363.15	1.00359	-29.4	0.29
368.15	0.02489	-54	15
368.15	0.05062	-54.9	7.2
368.15	0.0748	-54.8	4.8
368.15	0.09985	-53.8	3.6
368.15	0.24981	-44.7	1.4
368.15	0.49932	-37.99	0.52
368.15	1.00359	-31.04	0.29
373.15	0.02489	-58	16
373.15	0.05062	-59.2	7.2
373.15	0.0748	-58.5	4.8
373.15	0.09985	-57	3.5
373.15	0.24981	-47.4	1.4
373.15	0.49932	-40.17	0.52
373.15	1.00359	-32.82	0.3
378.15	0.02489	-62	15
378.15	0.05062	-62.3	7.2
378.15	0.0748	-59.9	4.8
378.15	0.09985	-60.6	3.5
378.15	0.24981	-50.1	1.4
378.15	0.49932	-42.72	0.51
378.15	1.00359	-34.84	0.32
383.15	0.02489	-64	15
383.15	0.05062	-66.9	7.1
383.15	0.0748	-65.5	4.7
383.15	0.09985	-64.5	3.5
383.15	0.24981	-53.2	1.4
383.15	0.49932	-45.26	0.52
383.15	1.00359	-36.8	0.34
388.15	0.02489	-68	16
388.15	0.05062	-71.1	7.1
388.15	0.0748	-69.1	4.7
388.15	0.09985	-68.6	3.4
388.15	0.24981	-56.6	1.4
388.15	0.49932	-48.06	0.51
388.15	1.00359	-38.93	0.36
393.15	0.02489	-77	16
393.15	0.05062	-77	7
393.15	0.0748	-74.5	4.6
393.15	0.09985	-72.8	3.4
393.15	0.24981	-60.4	1.3
393.15	0.49932	-50.98	0.52
393.15	1.00359	-41.08	0.39

System: lithium chloride + water; phases: Liquid
Fixed: Pressure, kPa = 350
Property: Apparent molar volume, m3/mol (Liquid); method: Calculated with densities of this investigation
Temperature, K	Molality, mol/kg of lithium chloride	Apparent molar volume, m3/mol	uncertainty
278.15	0.02489	1.51e-05	1.5e-06
278.15	0.05062	1.79e-05	9e-07
278.15	0.0748	1.71e-05	6e-07
278.15	0.09985	1.68e-05	4e-07
278.15	0.24981	1.76e-05	2e-07
278.15	0.49932	1.77e-05	1e-07
278.15	1.00359	1.847e-05	5e-08
283.15	0.02489	1.65e-05	1.6e-06
283.15	0.05062	1.8e-05	9e-07
283.15	0.0748	1.75e-05	6e-07
283.15	0.09985	1.74e-05	4e-07
283.15	0.24981	1.79e-05	2e-07
283.15	0.49932	1.8e-05	1e-07
283.15	1.00359	1.876e-05	5e-08
288.15	0.02489	1.74e-05	1.7e-06
288.15	0.05062	1.85e-05	9e-07
288.15	0.0748	1.77e-05	6e-07
288.15	0.09985	1.77e-05	4e-07
288.15	0.24981	1.814e-05	1.8e-07
288.15	0.49932	1.83e-05	9e-08
288.15	1.00359	1.897e-05	5e-08
298.15	0.02489	1.84e-05	1.8e-06
298.15	0.05062	1.91e-05	9e-07
298.15	0.0748	1.85e-05	6e-07
298.15	0.09985	1.84e-05	5e-07
298.15	0.24981	1.851e-05	1.8e-07
298.15	0.49932	1.868e-05	9e-08
298.15	1.00359	1.927e-05	5e-08
308.15	0.02489	1.87e-05	1.9e-06
308.15	0.05062	1.88e-05	9e-07
308.15	0.0748	1.84e-05	6e-07
308.15	0.09985	1.84e-05	5e-07
308.15	0.24981	1.839e-05	1.8e-07
308.15	0.49932	1.875e-05	9e-08
308.15	1.00359	1.934e-05	5e-08
318.15	0.02489	1.87e-05	1.9e-06
318.15	0.05062	1.88e-05	9e-07
318.15	0.0748	1.83e-05	6e-07
318.15	0.09985	1.84e-05	5e-07
318.15	0.24981	1.829e-05	1.8e-07
318.15	0.49932	1.869e-05	9e-08
318.15	1.00359	1.926e-05	5e-08
328.15	0.02489	1.78e-05	1.8e-06
328.15	0.05062	1.802e-05	8.8e-07
328.15	0.0748	1.75e-05	5.8e-07
328.15	0.09985	1.81e-05	4.5e-07
328.15	0.24981	1.799e-05	1.8e-07
328.15	0.49932	1.845e-05	9e-08
328.15	1.00359	1.906e-05	5e-08
338.15	0.02489	1.76e-05	1.7e-06
338.15	0.05062	1.74e-05	8e-07
338.15	0.0748	1.735e-05	5.7e-07
338.15	0.09985	1.783e-05	4.4e-07
338.15	0.24981	1.771e-05	1.8e-07
338.15	0.49932	1.816e-05	9e-08
338.15	1.00359	1.878e-05	5e-08
348.15	0.02489	1.76e-05	1.7e-06
348.15	0.05062	1.79e-05	9e-07
348.15	0.0748	1.76e-05	6e-07
348.15	0.09985	1.78e-05	4e-07
348.15	0.24981	1.77e-05	1.8e-07
348.15	0.49932	1.783e-05	9e-08
348.15	1.00359	1.845e-05	5e-08
358.15	0.02489	1.75e-05	1.7e-06
358.15	0.05062	1.775e-05	8.6e-07
358.15	0.0748	1.74e-05	6e-07
358.15	0.09985	1.73e-05	4e-07
358.15	0.24981	1.722e-05	1.7e-07
358.15	0.49932	1.736e-05	9e-08
358.15	1.00359	1.8e-05	5e-08
368.15	0.02489	1.69e-05	1.7e-06
368.15	0.05062	1.74e-05	8e-07
368.15	0.0748	1.693e-05	5.6e-07
368.15	0.09985	1.694e-05	4.2e-07
368.15	0.24981	1.665e-05	1.7e-07
368.15	0.49932	1.683e-05	8e-08
368.15	1.00359	1.742e-05	4e-08

System: water + rubidium chloride; phases: Liquid
Fixed: Pressure, kPa = 350
Property: Apparent molar heat capacity, J/K/mol (Liquid); method: Differential flow calorimetry
Temperature, K	Molality, mol/kg of rubidium chloride	Apparent molar heat capacity, J/K/mol	uncertainty
278.15	0.01076	-205	29
278.15	0.02511	-197.7	11.8
278.15	0.04991	-193.77	4.41
278.15	0.0751	-191.12	2.36
278.15	0.10014	-188.35	1.35
278.15	0.24999	-176.14	0.64
278.15	0.50093	-159.89	0.89
278.15	1.00413	-136.42	0.95
283.15	0.01076	-182	29
283.15	0.02511	-175.8	12
283.15	0.04991	-171.9	4.6
283.15	0.0751	-169.27	2.56
283.15	0.10014	-167.06	1.59
283.15	0.24999	-156.56	0.56
283.15	0.50093	-142.52	0.76
283.15	1.00413	-122.07	0.82
288.15	0.01076	-164	30
288.15	0.02511	-158.7	12.1
288.15	0.04991	-154.7	5.1
288.15	0.0751	-152.3	3
288.15	0.10014	-150.5	2
288.15	0.24999	-141.1	0.53
288.15	0.50093	-128.85	0.66
288.15	1.00413	-111.02	0.72
293.15	0.01076	-150	30
293.15	0.02511	-144.7	12.2
293.15	0.04991	-141.3	5.3
293.15	0.0751	-139.1	3.2
293.15	0.10014	-137.6	2.2
293.15	0.24999	-128.9	0.53
293.15	0.50093	-118.04	0.59
293.15	1.00413	-102.23	0.64
298.15	0.01076	-140	30
298.15	0.02511	-134.3	12.3
298.15	0.04991	-131	5.5
298.15	0.0751	-128.9	3.3
298.15	0.10014	-127.6	2.2
298.15	0.24999	-119.51	0.53
298.15	0.50093	-109.64	0.54
298.15	1.00413	-95.35	0.59
303.15	0.01076	-130	30
303.15	0.02511	-124.9	12.3
303.15	0.04991	-122	5.6
303.15	0.0751	-120.3	3.4
303.15	0.10014	-119.1	2.3
303.15	0.24999	-111.5	0.55
303.15	0.50093	-102.42	0.52
303.15	1.00413	-89.37	0.55
308.15	0.01076	-123	30
308.15	0.02511	-118.2	12.3
308.15	0.04991	-115.2	5.6
308.15	0.0751	-113.3	3.4
308.15	0.10014	-112.4	2.4
308.15	0.24999	-105.19	0.56
308.15	0.50093	-96.78	0.5
308.15	1.00413	-84.73	0.54
313.15	0.01076	-117	30
313.15	0.02511	-112.7	12.4
313.15	0.04991	-109.4	5.7
313.15	0.0751	-107.7	3.5
313.15	0.10014	-106.7	2.4
313.15	0.24999	-99.79	0.57
313.15	0.50093	-91.85	0.49
313.15	1.00413	-80.63	0.52
318.15	0.01076	-113	30
318.15	0.02511	-108.7	12.4
318.15	0.04991	-105.3	5.7
318.15	0.0751	-103.7	3.5
318.15	0.10014	-102.7	2.4
318.15	0.24999	-95.87	0.57
318.15	0.50093	-88.37	0.48
318.15	1.00413	-77.74	0.52
323.15	0.01076	-110	30
323.15	0.02511	-105.4	12.4
323.15	0.04991	-102.3	5.7
323.15	0.0751	-100.6	3.5
323.15	0.10014	-99.6	2.4
323.15	0.24999	-92.82	0.58
323.15	0.50093	-85.54	0.48
323.15	1.00413	-75.39	0.52
328.15	0.01076	-109	30
328.15	0.02511	-103.1	12.4
328.15	0.04991	-100.2	5.7
328.15	0.0751	-98.2	3.5
328.15	0.10014	-97.2	2.4
328.15	0.24999	-90.49	0.58
328.15	0.50093	-83.38	0.48
328.15	1.00413	-73.59	0.52
333.15	0.01076	-107	30
333.15	0.02511	-102	12.5
333.15	0.04991	-98.5	5.8
333.15	0.0751	-96.4	3.6
333.15	0.10014	-95.3	2.5
333.15	0.24999	-88.49	0.59
333.15	0.50093	-81.48	0.48
333.15	1.00413	-71.98	0.52
338.15	0.01076	-106	30
338.15	0.02511	-100.6	12.4
338.15	0.04991	-97.2	5.8
338.15	0.0751	-95.1	3.5
338.15	0.10014	-93.8	2.5
338.15	0.24999	-87.01	0.59
338.15	0.50093	-80.07	0.49
338.15	1.00413	-70.71	0.52
343.15	0.01076	-105	30
343.15	0.02511	-100.1	12.4
343.15	0.04991	-96.8	5.8
343.15	0.0751	-94.6	3.5
343.15	0.10014	-93.3	2.4
343.15	0.24999	-86.26	0.58
343.15	0.50093	-79.32	0.49
343.15	1.00413	-70.03	0.54
348.15	0.01076	-105	30
348.15	0.02511	-100.2	12.4
348.15	0.04991	-96.9	5.7
348.15	0.0751	-94.6	3.5
348.15	0.10014	-93.1	2.4
348.15	0.24999	-85.9	0.58
348.15	0.50093	-78.9	0.5
348.15	1.00413	-69.65	0.54
353.15	0.01076	-106	30
353.15	0.02511	-100.9	12.4
353.15	0.04991	-97.1	5.8
353.15	0.0751	-94.5	3.5
353.15	0.10014	-93	2.4
353.15	0.24999	-85.58	0.58
353.15	0.50093	-78.48	0.52
353.15	1.00413	-69.14	0.56
358.15	0.01076	-107	30
358.15	0.02511	-101.9	12.5
358.15	0.04991	-97.7	5.7
358.15	0.0751	-95	3.5
358.15	0.10014	-93.4	2.4
358.15	0.24999	-85.67	0.57
358.15	0.50093	-78.43	0.53
358.15	1.00413	-68.97	0.57
363.15	0.01076	-109	30
363.15	0.02511	-102.9	12.4
363.15	0.04991	-98.9	5.7
363.15	0.0751	-96.1	3.5
363.15	0.10014	-94.3	2.4
363.15	0.24999	-86.22	0.56
363.15	0.50093	-78.8	0.55
363.15	1.00413	-69.13	0.59
368.15	0.01076	-110	30
368.15	0.02511	-104.3	12.5
368.15	0.04991	-100.4	5.7
368.15	0.0751	-97.4	3.5
368.15	0.10014	-95.6	2.4
368.15	0.24999	-87.09	0.57
368.15	0.50093	-79.37	0.57
368.15	1.00413	-69.4	0.62
373.15	0.01076	-112	30
373.15	0.02511	-106.5	12.4
373.15	0.04991	-102.3	5.7
373.15	0.0751	-98.9	3.4
373.15	0.10014	-97.1	2.4
373.15	0.24999	-88.17	0.57
373.15	0.50093	-80.09	0.59
373.15	1.00413	-69.74	0.64
378.15	0.01076	-115	31
378.15	0.02511	-109.8	12.5
378.15	0.04991	-104.8	5.7
378.15	0.0751	-101.4	3.5
378.15	0.10014	-99.3	2.3
378.15	0.24999	-89.89	0.58
378.15	0.50093	-81.45	0.63
378.15	1.00413	-70.64	0.67
383.15	0.01076	-119	31
383.15	0.02511	-112.8	12.4
383.15	0.04991	-107.2	5.7
383.15	0.0751	-103.4	3.4
383.15	0.10014	-101.3	2.3
383.15	0.24999	-91.34	0.59
383.15	0.50093	-82.46	0.66
383.15	1.00413	-71.13	0.69
388.15	0.01076	-122	31
388.15	0.02511	-115.6	12.5
388.15	0.04991	-109.8	5.7
388.15	0.0751	-105.9	3.4
388.15	0.10014	-103.7	2.3
388.15	0.24999	-93.2	0.61
388.15	0.50093	-83.85	0.69
388.15	1.00413	-71.93	0.73
393.15	0.01076	-125	31
393.15	0.02511	-118.8	12.6
393.15	0.04991	-113	5.7
393.15	0.0751	-108.9	3.5
393.15	0.10014	-106.7	2.4
393.15	0.24999	-95.42	0.67
393.15	0.50093	-85.65	0.74
393.15	1.00413	-73.15	0.77

System: water + rubidium chloride; phases: Liquid
Fixed: Pressure, kPa = 350
Property: Apparent molar volume, m3/mol (Liquid); method: Calculated with densities of this investigation
Temperature, K	Molality, mol/kg of rubidium chloride	Apparent molar volume, m3/mol	uncertainty
278.15	0.02511	2.981e-05	8.3e-07
278.15	0.04991	2.856e-05	4.1e-07
278.15	0.0751	3.017e-05	2.9e-07
278.15	0.10014	2.939e-05	2.1e-07
278.15	0.24999	2.983e-05	1e-07
278.15	0.50093	3.107e-05	6e-08
278.15	1.00413	3.206e-05	5e-08
283.15	0.02511	3.002e-05	7.9e-07
283.15	0.04991	2.841e-05	3.9e-07
283.15	0.0751	3.081e-05	3e-07
283.15	0.10014	3.032e-05	2.3e-07
283.15	0.24999	3.062e-05	1.5e-07
283.15	0.50093	3.165e-05	1.3e-07
283.15	1.00413	3.269e-05	1.1e-07
288.15	0.02511	3.069e-05	8.1e-07
288.15	0.04991	2.955e-05	3.9e-07
288.15	0.0751	3.142e-05	2.9e-07
288.15	0.10014	3.111e-05	2.3e-07
288.15	0.24999	3.131e-05	1.6e-07
288.15	0.50093	3.228e-05	1.5e-07
288.15	1.00413	3.315e-05	1.3e-07
298.15	0.02511	3.115e-05	1.05e-06
298.15	0.04991	3.099e-05	5.4e-07
298.15	0.0751	3.219e-05	3.7e-07
298.15	0.10014	3.237e-05	2.9e-07
298.15	0.24999	3.234e-05	1.6e-07
298.15	0.50093	3.319e-05	1.3e-07
298.15	1.00413	3.385e-05	1.2e-07
308.15	0.02511	3.13e-05	1.3e-06
308.15	0.04991	3.176e-05	6.5e-07
308.15	0.0751	3.282e-05	4.4e-07
308.15	0.10014	3.303e-05	3.4e-07
308.15	0.24999	3.303e-05	1.5e-07
308.15	0.50093	3.376e-05	1.1e-07
308.15	1.00413	3.435e-05	9e-08
318.15	0.02511	3.242e-05	1.23e-06
318.15	0.04991	3.251e-05	6.2e-07
318.15	0.0751	3.322e-05	4.2e-07
318.15	0.10014	3.34e-05	3.2e-07
318.15	0.24999	3.344e-05	1.5e-07
318.15	0.50093	3.414e-05	9e-08
318.15	1.00413	3.468e-05	7e-08
328.15	0.02511	3.3e-05	2.1e-06
328.15	0.04991	3.275e-05	1.04e-06
328.15	0.0751	3.35e-05	6.9e-07
328.15	0.10014	3.375e-05	5.2e-07
328.15	0.24999	3.373e-05	2.2e-07
328.15	0.50093	3.439e-05	1.2e-07
328.15	1.00413	3.492e-05	8e-08
338.15	0.02511	3.22e-05	2.1e-06
338.15	0.04991	3.31e-05	1.1e-06
338.15	0.0751	3.346e-05	7.3e-07
338.15	0.10014	3.369e-05	5.5e-07
338.15	0.24999	3.372e-05	2.3e-07
338.15	0.50093	3.442e-05	1.3e-07
338.15	1.00413	3.496e-05	8e-08
348.15	0.02511	3.25e-05	3.1e-06
348.15	0.04991	3.37e-05	1.6e-06
348.15	0.0751	3.35e-05	1e-06
348.15	0.10014	3.353e-05	7.8e-07
348.15	0.24999	3.361e-05	3.1e-07
348.15	0.50093	3.43e-05	1.7e-07
348.15	1.00413	3.488e-05	1e-07
358.15	0.02511	3.25e-05	3e-06
358.15	0.04991	3.38e-05	2.2e-06
358.15	0.0751	3.34e-05	1e-06
358.15	0.10014	3.357e-05	7.6e-07
358.15	0.24999	3.352e-05	3.1e-07
358.15	0.50093	3.422e-05	1.7e-07
358.15	1.00413	3.479e-05	1e-07
368.15	0.02511	3.23e-05	4.5e-06
368.15	0.04991	3.27e-05	1.6e-06
368.15	0.0751	3.34e-05	1.5e-06
368.15	0.10014	3.34e-05	1.1e-06
368.15	0.24999	3.348e-05	4.5e-07
368.15	0.50093	3.404e-05	2.3e-07
368.15	1.00413	3.455e-05	1.3e-07

System: cesium chloride + water; phases: Liquid
Fixed: Pressure, kPa = 350
Property: Apparent molar heat capacity, J/K/mol (Liquid); method: Differential flow calorimetry
Temperature, K	Molality, mol/kg of cesium chloride	Apparent molar heat capacity, J/K/mol	uncertainty
278.15	0.01028	-235	31
278.15	0.02012	-219.3	15.3
278.15	0.04978	-212.7	5.4
278.15	0.10611	-203.24	1.25
278.15	0.25181	-192.19	0.95
278.15	0.39935	-180.62	1.12
278.15	0.62022	-168.94	1.19
283.15	0.01028	-208	30
283.15	0.02012	-197.1	15.1
283.15	0.04978	-189.8	5.3
283.15	0.10611	-181.44	1.42
283.15	0.25181	-170.73	0.85
283.15	0.39935	-161.54	1.01
283.15	0.62022	-151.27	1.08
288.15	0.01028	-188	30
288.15	0.02012	-178.5	14.9
288.15	0.04978	-171.6	5.3
288.15	0.10611	-164	1.8
288.15	0.25181	-154.13	0.8
288.15	0.39935	-146.15	0.92
288.15	0.62022	-137.19	0.98
293.15	0.01028	-174	30
293.15	0.02012	-164.6	14.9
293.15	0.04978	-157.6	5.3
293.15	0.10611	-150.2	1.9
293.15	0.25181	-140.99	0.78
293.15	0.39935	-133.94	0.83
293.15	0.62022	-125.87	0.9
298.15	0.01028	-165	30
298.15	0.02012	-153.9	14.9
298.15	0.04978	-146.3	5.4
298.15	0.10611	-139.6	2
298.15	0.25181	-130.54	0.77
298.15	0.39935	-124.37	0.79
298.15	0.62022	-117.07	0.83
303.15	0.01028	-155	30
303.15	0.02012	-142.8	15
303.15	0.04978	-137	5.5
303.15	0.10611	-130.5	2.1
303.15	0.25181	-121.62	0.77
303.15	0.39935	-116.16	0.76
303.15	0.62022	-109.43	0.8
308.15	0.01028	-147	30
308.15	0.02012	-136.4	15.1
308.15	0.04978	-129.5	5.6
308.15	0.10611	-123	2.1
308.15	0.25181	-114.75	0.77
308.15	0.39935	-109.26	0.75
308.15	0.62022	-103.05	0.78
313.15	0.01028	-140	30
313.15	0.02012	-130.3	15.1
313.15	0.04978	-123.4	5.6
313.15	0.10611	-116.9	2.2
313.15	0.25181	-108.7	0.77
313.15	0.39935	-103.44	0.73
313.15	0.62022	-97.62	0.75
318.15	0.01028	-135	30
318.15	0.02012	-125.3	15.1
318.15	0.04978	-118.5	5.6
318.15	0.10611	-112.1	2.2
318.15	0.25181	-104.2	0.78
318.15	0.39935	-98.89	0.71
318.15	0.62022	-93.2	0.73
323.15	0.01028	-129	30
323.15	0.02012	-120.4	15.1
323.15	0.04978	-114.4	5.6
323.15	0.10611	-107.9	2.2
323.15	0.25181	-100.06	0.78
323.15	0.39935	-94.88	0.71
323.15	0.62022	-89.41	0.73
328.15	0.01028	-127	30
328.15	0.02012	-117.3	15.1
328.15	0.04978	-111.7	5.6
328.15	0.10611	-104.8	2.2
328.15	0.25181	-96.98	0.78
328.15	0.39935	-91.66	0.71
328.15	0.62022	-86.32	0.72
333.15	0.01028	-125	30
333.15	0.02012	-114.7	15
333.15	0.04978	-109.1	5.6
333.15	0.10611	-102.1	2.2
333.15	0.25181	-94.25	0.78
333.15	0.39935	-88.8	0.72
333.15	0.62022	-83.59	0.74
338.15	0.01028	-123	30
338.15	0.02012	-111.6	15.1
338.15	0.04978	-107.5	5.6
338.15	0.10611	-100.2	2.2
338.15	0.25181	-92.17	0.78
338.15	0.39935	-86.65	0.7
338.15	0.62022	-81.53	0.72
343.15	0.01028	-120	30
343.15	0.02012	-110.8	15.1
343.15	0.04978	-106.1	5.6
343.15	0.10611	-98.9	2.2
343.15	0.25181	-90.68	0.78
343.15	0.39935	-84.91	0.72
343.15	0.62022	-79.8	0.73
348.15	0.01028	-118	30
348.15	0.02012	-110.2	15
348.15	0.04978	-105.1	5.6
348.15	0.10611	-98	2.2
348.15	0.25181	-89.41	0.78
348.15	0.39935	-83.54	0.72
348.15	0.62022	-78.32	0.73
353.15	0.01028	-117	30
353.15	0.02012	-109.9	15
353.15	0.04978	-105.3	5.5
353.15	0.10611	-97.7	2.2
353.15	0.25181	-88.78	0.77
353.15	0.39935	-82.71	0.73
353.15	0.62022	-77.34	0.76
358.15	0.01028	-116	30
358.15	0.02012	-109.6	15
358.15	0.04978	-105.2	5.5
358.15	0.10611	-97.3	2.2
358.15	0.25181	-88.16	0.77
358.15	0.39935	-81.65	0.76
358.15	0.62022	-76.18	0.78
363.15	0.01028	-115	31
363.15	0.02012	-109.6	15
363.15	0.04978	-105.6	5.5
363.15	0.10611	-97.2	2.2
363.15	0.25181	-88.01	0.77
363.15	0.39935	-81.03	0.8
363.15	0.62022	-75.52	0.81
368.15	0.01028	-114	30
368.15	0.02012	-109.9	14.9
368.15	0.04978	-106.5	5.4
368.15	0.10611	-97.9	2.2
368.15	0.25181	-88.36	0.77
368.15	0.39935	-81.03	0.8
368.15	0.62022	-75.38	0.83
373.15	0.01028	-114	30
373.15	0.02012	-110.9	14.9
373.15	0.04978	-107.6	5.4
373.15	0.10611	-98.7	2.2
373.15	0.25181	-88.67	0.77
373.15	0.39935	-81.25	0.8
373.15	0.62022	-75.29	0.82
378.15	0.01028	-115	31
378.15	0.02012	-112.1	14.9
378.15	0.04978	-109.3	5.4
378.15	0.10611	-100.2	2.1
378.15	0.25181	-89.66	0.77
378.15	0.39935	-81.93	0.8
378.15	0.62022	-75.88	0.83
383.15	0.01028	-116	31
383.15	0.02012	-115.4	15
383.15	0.04978	-110.9	5.4
383.15	0.10611	-101.8	2.1
383.15	0.25181	-90.61	0.77
383.15	0.39935	-82.43	0.77
383.15	0.62022	-76.32	0.81
388.15	0.01028	-118	30
388.15	0.02012	-118.1	15
388.15	0.04978	-112.9	5.4
388.15	0.10611	-103.5	2.1
388.15	0.25181	-92.05	0.79
388.15	0.39935	-83.43	0.78
388.15	0.62022	-77.53	0.81
393.15	0.01028	-121	32
393.15	0.02012	-122	15.5
393.15	0.04978	-116	5.5
393.15	0.10611	-106.2	2.1
393.15	0.25181	-93.97	0.79
393.15	0.39935	-84.91	0.82
393.15	0.62022	-78.57	0.84

System: cesium chloride + water; phases: Liquid
Fixed: Pressure, kPa = 350
Property: Apparent molar volume, m3/mol (Liquid); method: Calculated with densities of this investigation
Temperature, K	Molality, mol/kg of cesium chloride	Apparent molar volume, m3/mol	uncertainty
278.15	0.02012	2.96e-05	2.6e-06
278.15	0.04978	3.55e-05	1e-06
278.15	0.10611	3.669e-05	1.9e-07
278.15	0.25181	3.79e-05	3.4e-07
278.15	0.39935	3.82e-05	1.3e-07
278.15	0.62022	3.836e-05	1.2e-07
283.15	0.02012	3.16e-05	3.2e-06
283.15	0.04978	3.61e-05	1.3e-06
283.15	0.10611	3.777e-05	2.6e-07
283.15	0.25181	3.859e-05	3.3e-07
283.15	0.39935	3.898e-05	2.1e-07
283.15	0.62022	3.92e-05	2e-07
288.15	0.02012	3.24e-05	3.4e-06
288.15	0.04978	3.66e-05	1.3e-06
288.15	0.10611	3.821e-05	2.8e-07
288.15	0.25181	3.908e-05	3e-07
288.15	0.39935	3.934e-05	2.2e-07
288.15	0.62022	3.958e-05	2.2e-07
298.15	0.02012	3.64e-05	3.5e-06
298.15	0.04978	3.8e-05	1.4e-06
298.15	0.10611	3.896e-05	2.8e-07
298.15	0.25181	4.003e-05	3.2e-07
298.15	0.39935	4.046e-05	2.1e-07
298.15	0.62022	4.072e-05	2e-07
308.15	0.02012	3.9e-05	2.5e-06
308.15	0.04978	3.894e-05	1.04e-06
308.15	0.10611	3.918e-05	2.8e-07
308.15	0.25181	4.056e-05	2.5e-07
308.15	0.39935	4.109e-05	1.8e-07
308.15	0.62022	4.144e-05	1.6e-07
318.15	0.02012	4.08e-05	3e-06
318.15	0.04978	4.02e-05	1.3e-06
318.15	0.10611	3.943e-05	2.6e-07
318.15	0.25181	4.099e-05	2.8e-07
318.15	0.39935	4.139e-05	1.6e-07
318.15	0.62022	4.185e-05	1.4e-07
328.15	0.02012	4.07e-05	3.7e-06
328.15	0.04978	4.01e-05	1.5e-06
328.15	0.10611	3.938e-05	3.1e-07
328.15	0.25181	4.116e-05	3.3e-07
328.15	0.39935	4.145e-05	1.6e-07
328.15	0.62022	4.205e-05	1.4e-07
338.15	0.02012	3.92e-05	2.5e-06
338.15	0.04978	4.08e-05	1.1e-06
338.15	0.10611	3.977e-05	4e-07
338.15	0.25181	4.13e-05	2e-07
338.15	0.39935	4.151e-05	1.7e-07
338.15	0.62022	4.217e-05	1.4e-07
348.15	0.02012	3.71e-05	1.5e-06
348.15	0.04978	3.992e-05	6.4e-07
348.15	0.10611	3.95e-05	3e-07
348.15	0.25181	4.136e-05	1.8e-07
348.15	0.39935	4.129e-05	1.6e-07
348.15	0.62022	4.205e-05	1.5e-07
358.15	0.02012	3.79e-05	1.7e-06
358.15	0.04978	3.92e-05	1.1e-06
358.15	0.10611	3.955e-05	2.7e-07
358.15	0.25181	4.131e-05	2.3e-07
358.15	0.39935	4.12e-05	1.7e-07
358.15	0.62022	4.198e-05	1.5e-07
368.15	0.02012	3.61e-05	2.4e-06
368.15	0.04978	3.87e-05	7.1e-07
368.15	0.10611	3.929e-05	3.5e-07
368.15	0.25181	4.085e-05	1.8e-07
368.15	0.39935	4.087e-05	1.8e-07
368.15	0.62022	4.17e-05	1.6e-07
