Measured thermophysical data. The effect of the naphthenic ring on the VLE of (carbon dioxide + alkane) mixtures
Source: J. Chem. Thermodyn., 2016, 10.1016/j.jct.2015.07.018
Compound 1: carbon dioxide, CO2, InChI=1S/CO2/c2-1-3, purity 99.7%
Compound 2: cyclopentane, C5H10, InChI=1S/C5H10/c1-2-4-5-3-1/h1-5H2, purity 98%
Compound 3: cyclohexane, C6H12, InChI=1S/C6H12/c1-2-4-6-5-3-1/h1-6H2, purity 99.9%

System: carbon dioxide + cyclopentane; phases: Liquid, Gas
Property: Vapor or sublimation pressure, kPa (Liquid); method: Closed cell (Static) method
Mole fraction of carbon dioxide	Temperature, K	Vapor or sublimation pressure, kPa	uncertainty
0.0973	323.15	1020	110
0.1889	323.15	2020	110
0.2869	323.15	3010	110
0.3887	323.15	4020	100
0.4895	323.15	5000	100
0.6086	323.15	6010	90
0.7306	323.15	7010	90
0.855	323.15	8020	90
0.0837	333.15	1010	120
0.1673	333.15	2010	120
0.2524	333.15	3000	120
0.3401	333.15	4020	120
0.4273	333.15	5000	120
0.5196	333.15	6010	110
0.6174	333.15	7010	100
0.7305	333.15	8010	100
0.8404	333.15	9030	100
0.0442	344.65	630	130
0.1107	344.65	1490	130
0.1998	344.65	2570	130
0.2763	344.65	3610	140
0.3526	344.65	4580	140
0.4278	344.65	5610	130
0.5067	344.65	6550	120
0.592	344.65	7540	120
0.6869	344.65	8630	120
0.7775	344.65	9620	120
0.0796	353.15	1180	140
0.1419	353.15	2020	140
0.2127	353.15	3000	150
0.2822	353.15	4010	140
0.3558	353.15	5010	150
0.4191	353.15	6010	140
0.5026	353.15	7000	130
0.5866	353.15	8010	140
0.6567	353.15	9020	140
0.7341	353.15	10030	140

System: carbon dioxide + cyclopentane; phases: Gas, Liquid
Property: Mole fraction of carbon dioxide (Gas); method: Chromatography
Mole fraction of carbon dioxide	Temperature, K	Mole fraction of carbon dioxide	uncertainty
0.0973	323.15	0.928	0.0107
0.1889	323.15	0.9609	0.0103
0.2869	323.15	0.9742	0.01
0.3887	323.15	0.9798	0.01
0.4895	323.15	0.9816	0.01
0.6086	323.15	0.977	0.01
0.7306	323.15	0.9633	0.01
0.855	323.15	0.9562	0.01
0.0837	333.15	0.892	0.0114
0.1673	333.15	0.9387	0.0108
0.2524	333.15	0.9604	0.0102
0.3401	333.15	0.9756	0.0101
0.4273	333.15	0.9793	0.01
0.5196	333.15	0.98	0.01
0.6174	333.15	0.9812	0.01
0.7305	333.15	0.9617	0.0102
0.8404	333.15	0.9376	0.0103
0.0442	344.65	0.7674	0.0208
0.1107	344.65	0.8837	0.0132
0.1998	344.65	0.9236	0.0107
0.2763	344.65	0.9459	0.0105
0.3526	344.65	0.9719	0.0102
0.4278	344.65	0.9764	0.01
0.5067	344.65	0.9775	0.01
0.592	344.65	0.9673	0.0101
0.6869	344.65	0.948	0.0104
0.7775	344.65	0.9135	0.0108
0.0796	353.15	0.8418	0.0132
0.1419	353.15	0.8943	0.0119
0.2127	353.15	0.9275	0.0115
0.2822	353.15	0.9738	0.0106
0.3558	353.15	0.9766	0.01
0.4191	353.15	0.9765	0.01
0.5026	353.15	0.9742	0.0101
0.5866	353.15	0.9587	0.0103
0.6567	353.15	0.935	0.0108
0.7341	353.15	0.8989	0.0111

System: carbon dioxide + cyclopentane; phases: Liquid, Gas
Property: Critical pressure, kPa (Liquid); method: Direct measurement
Mole fraction of carbon dioxide	Critical pressure, kPa	uncertainty
0.9469	8690	360
0.9183	9720	320
0.9089	9980	320
0.8949	10320	260
0.8519	11420	190
0.8118	11890	110
0.7958	11990	70
0.6663	11990	30

System: carbon dioxide + cyclopentane; phases: Liquid, Gas
Property: Critical temperature, K (Liquid); method: Visual observation in an unstirred cell
Mole fraction of carbon dioxide	Critical temperature, K	uncertainty
0.9469	323.85	5.29
0.9183	338.95	4.41
0.9089	341.95	4.46
0.8949	346.55	4.46
0.8519	366.85	4.09
0.8118	380.45	3.31
0.7958	385.25	3.01
0.6663	409.95	1.92

System: cyclohexane + carbon dioxide; phases: Liquid, Gas
Property: Vapor or sublimation pressure, kPa (Liquid); method: Closed cell (Static) method
Mole fraction of carbon dioxide	Temperature, K	Vapor or sublimation pressure, kPa	uncertainty
0.1088	323.15	1360	140
0.1567	323.15	2000	130
0.2364	323.15	3000	110
0.3406	323.15	4000	110
0.4189	323.15	5000	120
0.5191	323.15	6000	100
0.6342	323.15	7000	90
0.7754	323.15	8000	80
0.0652	353.15	1000	150
0.1321	353.15	2000	160
0.1958	353.15	3000	170
0.2523	353.15	4000	170
0.3167	353.15	5000	160
0.3834	353.15	6000	160
0.4469	353.15	7000	150
0.5192	353.15	8000	150
0.5855	353.15	9000	150
0.6573	353.15	10000	140
0.7353	353.15	11010	140

System: cyclohexane + carbon dioxide; phases: Gas, Liquid
Property: Mole fraction of carbon dioxide (Gas); method: Chromatography
Mole fraction of carbon dioxide	Temperature, K	Mole fraction of carbon dioxide	uncertainty
0.1088	323.15	0.9604	0.0101
0.1567	323.15	0.9651	0.01
0.2364	323.15	0.9713	0.01
0.3406	323.15	0.9759	0.01
0.4189	323.15	0.9767	0.01
0.5191	323.15	0.9782	0.01
0.6342	323.15	0.9796	0.01
0.7754	323.15	0.9747	0.01
0.0652	353.15	0.8977	0.0113
0.1321	353.15	0.9324	0.011
0.1958	353.15	0.957	0.0103
0.2523	353.15	0.9616	0.01
0.3167	353.15	0.9669	0.0101
0.3834	353.15	0.9746	0.01
0.4469	353.15	0.975	0.01
0.5192	353.15	0.965	0.0101
0.5855	353.15	0.9574	0.0101
0.6573	353.15	0.9454	0.0104
0.7353	353.15	0.9132	0.0109
