Measured thermophysical data. Vapour-liquid phase boundaries including the near critical regions of the (CO2 + styrene, CO2 + 1,4-dioxane, and CO2 + N,N-dimethylformamide) systems
Source: J. Chem. Thermodyn., 2019, 10.1016/j.jct.2019.05.004
Compound 1: carbon dioxide, CO2, InChI=1S/CO2/c2-1-3, purity 99.5%
Compound 2: styrene, C8H8, InChI=1S/C8H8/c1-2-8-6-4-3-5-7-8/h2-7H,1H2, purity 99%
Compound 3: 1,4-dioxane, C4H8O2, InChI=1S/C4H8O2/c1-2-6-4-3-5-1/h1-4H2, purity 99%
Compound 4: dimethylformamide, C3H7NO, InChI=1S/C3H7NO/c1-4(2)3-5/h3H,1-2H3, purity 99%

System: carbon dioxide + styrene; phases: Liquid, Gas
Property: Vapor or sublimation pressure, kPa (Liquid); method: Closed cell (Static) method
Temperature, K	Mole fraction of carbon dioxide	Vapor or sublimation pressure, kPa	uncertainty
308.2	0.201	2690	210
308.2	0.298	3410	210
308.2	0.374	4170	210
308.2	0.451	4870	210
308.2	0.545	5670	210
308.2	0.62	6030	200
308.2	0.751	6560	200
308.2	0.799	6690	200
308.2	0.829	6770	200
308.2	0.855	6860	200
308.2	0.884	6970	200
308.2	0.912	7100	210
308.2	0.932	7190	210
308.2	0.948	7320	210
308.2	0.966	7540	220
308.2	0.984	7830	230
318.2	0.201	3010	210
318.2	0.298	3940	210
318.2	0.374	4830	210
318.2	0.451	5650	210
318.2	0.545	6650	210
318.2	0.62	7160	200
318.2	0.751	7750	210
318.2	0.799	7990	210
318.2	0.829	8110	210
318.2	0.855	8220	210
318.2	0.884	8380	210
318.2	0.912	8540	210
318.2	0.932	8680	210
318.2	0.948	8760	210
318.2	0.966	8890	210
328.2	0.201	3360	210
328.2	0.298	4510	210
328.2	0.374	5430	210
328.2	0.451	6410	220
328.2	0.545	7570	210
328.2	0.62	8230	210
328.2	0.751	9160	210
328.2	0.799	9420	210
328.2	0.829	9580	210
328.2	0.855	9730	210
328.2	0.884	9840	210
328.2	0.912	10040	210
328.2	0.932	10150	210
333.2	0.201	3610	220
333.2	0.298	5080	220
333.2	0.374	5800	210
333.2	0.451	6840	220
333.2	0.545	8090	210
333.2	0.62	8820	210
333.2	0.751	9850	210
333.2	0.799	10210	210
333.2	0.829	10340	210
333.2	0.855	10540	210
333.2	0.884	10710	210
333.2	0.912	10830	210
333.2	0.932	10890	210
343.2	0.201	4000	220
343.2	0.298	5450	220
343.2	0.374	6400	220
343.2	0.451	7600	220
343.2	0.545	9060	220
343.2	0.62	10090	210
343.2	0.751	11370	210
343.2	0.799	11780	210
343.2	0.829	11960	210
343.2	0.855	12150	210
343.2	0.884	12290	210
343.2	0.912	12450	210

System: carbon dioxide + styrene; phases: Gas, Liquid
Property: Vapor or sublimation pressure, kPa (Gas); method: Closed cell (Static) method
Temperature, K	Mole fraction of carbon dioxide	Vapor or sublimation pressure, kPa	uncertainty
308.2	0.995	7810	370
318.2	0.984	8880	420
318.2	0.991	8450	420
328.2	0.948	10240	210
328.2	0.966	10110	280
328.2	0.991	8960	350
333.2	0.948	10920	220
333.2	0.966	10650	330
333.2	0.991	9150	410
343.2	0.932	12300	210
343.2	0.948	12240	220
343.2	0.966	11860	440
343.2	0.991	9490	600

System: carbon dioxide + 1,4-dioxane; phases: Liquid, Gas
Property: Vapor or sublimation pressure, kPa (Liquid); method: Closed cell (Static) method
Temperature, K	Mole fraction of carbon dioxide	Vapor or sublimation pressure, kPa	uncertainty
343.2	0.23	2600	210
343.2	0.317	3420	210
343.2	0.46	4970	210
343.2	0.56	6400	220
343.2	0.668	7950	220
343.2	0.794	9670	220
343.2	0.881	10800	220
343.2	0.911	11120	210
343.2	0.927	11190	210
353.2	0.23	2750	210
353.2	0.317	3710	210
353.2	0.46	5610	220
353.2	0.56	7290	220
353.2	0.668	9000	220
353.2	0.794	10850	220
353.2	0.881	11890	220

System: carbon dioxide + 1,4-dioxane; phases: Gas, Liquid
Property: Vapor or sublimation pressure, kPa (Gas); method: Closed cell (Static) method
Temperature, K	Mole fraction of carbon dioxide	Vapor or sublimation pressure, kPa	uncertainty
343.2	0.945	11070	280
343.2	0.962	10540	290
343.2	0.972	10150	310
353.2	0.911	12150	220
353.2	0.927	11960	230
353.2	0.945	11560	290
353.2	0.962	10730	360
353.2	0.972	10200	380

System: carbon dioxide + dimethylformamide; phases: Liquid, Gas
Property: Vapor or sublimation pressure, kPa (Liquid); method: Closed cell (Static) method
Temperature, K	Mole fraction of carbon dioxide	Vapor or sublimation pressure, kPa	uncertainty
313.2	0.4	4010	400
313.2	0.599	5780	410
313.2	0.711	7060	410
313.2	0.821	7760	400
313.2	0.892	8060	400
313.2	0.96	8280	400
313.2	0.98	8550	410
323.2	0.4	4880	410
323.2	0.599	7110	410
323.2	0.711	8710	410
323.2	0.821	9980	410
323.2	0.892	10360	400
323.2	0.96	10420	400
323.2	0.98	10820	410
338.2	0.4	6510	410
338.2	0.599	9730	410
338.2	0.711	11320	410
338.2	0.821	12440	410
338.2	0.892	12720	400
338.2	0.96	12890	400

System: carbon dioxide + dimethylformamide; phases: Gas, Liquid
Property: Vapor or sublimation pressure, kPa (Gas); method: Closed cell (Static) method
Temperature, K	Mole fraction of carbon dioxide	Vapor or sublimation pressure, kPa	uncertainty
313.2	0.99	8260	400
323.2	0.99	10340	400
338.2	0.98	12170	400
338.2	0.99	12080	400
