Measured thermophysical data. Apparent molar volumes and apparent molar heat capacities of aqueous tetrahydrofuran, dimethyl sulfoxide, 1,4-dioxane, and 1,2-dimethoxyethane at temperatures from 278.15 K to 393.15 K and at the pressure 0.35 MPa
Source: J. Chem. Thermodyn., 2008, 10.1016/j.jct.2007.06.010
Compound 1: tetrahydrofuran, C4H8O, InChI=1S/C4H8O/c1-2-4-5-3-1/h1-4H2, purity 99.87%
Compound 2: water, H2O, InChI=1S/H2O/h1H2
Compound 3: dimethyl sulfoxide, C2H6OS, InChI=1S/C2H6OS/c1-4(2)3/h1-2H3, purity 99.98%
Compound 4: 1,4-dioxane, C4H8O2, InChI=1S/C4H8O2/c1-2-6-4-3-5-1/h1-4H2, purity 99.98%
Compound 5: 1,2-dimethoxyethane, C4H10O2, InChI=1S/C4H10O2/c1-5-3-4-6-2/h3-4H2,1-2H3, purity 99.98%

System: tetrahydrofuran + water; phases: Liquid
Fixed: Pressure, kPa = 350
Property: Apparent molar heat capacity, J/K/mol (Liquid); method: Extra sensitive DSC
Temperature, K	Molality, mol/kg of tetrahydrofuran	Apparent molar heat capacity, J/K/mol	uncertainty
278.15	0.0156	297	65
278.15	0.0802	290.5	13.4
278.15	0.1999	291.1	5.9
278.15	0.497	286.5	2.9
278.15	0.8015	283.72	2.11
278.15	1.4954	274.53	1.5
278.15	2.5003	276.85	1.24
283.15	0.0156	297	65
283.15	0.0802	301.3	13.4
283.15	0.1999	297.9	5.9
283.15	0.497	291.4	2.9
283.15	0.8015	290.59	2.13
283.15	1.4954	285.72	1.54
283.15	2.5003	284.69	1.26
288.15	0.0156	300	65
288.15	0.0403	299	26
288.15	0.0802	303.1	13.4
288.15	0.1999	300.7	5.9
288.15	0.497	294.3	2.9
288.15	0.8015	294.69	2.14
288.15	1.4954	291.65	1.55
288.15	2.5003	289.51	1.28
293.15	0.0156	303	65
293.15	0.0403	302	26
293.15	0.0802	305.4	13.4
293.15	0.1999	303.3	5.9
293.15	0.497	296.8	2.9
293.15	0.8015	297.94	2.15
293.15	1.4954	296.14	1.57
293.15	2.5003	293.2	1.3
298.15	0.0156	306	65
298.15	0.0403	303	26
298.15	0.0802	307.5	13.4
298.15	0.1999	305.6	5.9
298.15	0.497	298.9	2.9
298.15	0.8015	300.63	2.16
298.15	1.4954	299.64	1.58
298.15	2.5003	296.05	1.3
303.15	0.0156	307	65
303.15	0.0403	308	26
303.15	0.0802	309.8	13.4
303.15	0.1999	307.9	5.9
303.15	0.497	300.8	2.9
303.15	0.8015	303.01	2.17
303.15	1.4954	302.51	1.59
303.15	2.5003	298.31	1.3
308.15	0.0156	309	65
308.15	0.0403	311	26
308.15	0.0802	312.3	13.4
308.15	0.1999	310.2	5.9
308.15	0.497	302.6	2.9
308.15	0.8015	305.13	2.17
308.15	1.4954	304.87	1.59
308.15	2.5003	300.13	1.31
313.15	0.0156	312	65
313.15	0.0403	313	26
313.15	0.0802	314.7	13.4
313.15	0.1999	312.4	5.9
313.15	0.497	304.24	2.93
313.15	0.8015	307.04	2.18
313.15	1.4954	306.9	1.6
313.15	2.5003	301.57	1.31
318.15	0.0156	315	65
318.15	0.0403	315	26
318.15	0.0802	316.9	13.4
318.15	0.1999	314.5	6
318.15	0.497	305.75	2.94
318.15	0.8015	308.8	2.18
318.15	1.4954	308.6	1.6
318.15	2.5003	302.75	1.32
323.15	0.0156	317	65
323.15	0.0403	317	26
323.15	0.0802	318.9	13.4
323.15	0.1999	316.5	6
323.15	0.497	307.16	2.94
323.15	0.8015	310.38	2.19
323.15	1.4954	310.04	1.61
323.15	2.5003	303.66	1.32
328.15	0.0156	320	65
328.15	0.0403	319	26
328.15	0.0802	320.8	13.4
328.15	0.1999	318.3	6
328.15	0.497	308.45	2.95
328.15	0.8015	311.8	2.19
328.15	1.4954	311.27	1.61
328.15	2.5003	304.4	1.32
333.15	0.0156	321	65
333.15	0.0403	321	26
333.15	0.0802	322.7	13.4
333.15	0.1999	320.1	6
333.15	0.497	309.64	2.95
333.15	0.8015	313.1	2.2
333.15	1.4954	312.32	1.62
333.15	2.5003	304.99	1.32
338.15	0.0156	323	65
338.15	0.0403	323	26
338.15	0.0802	324.5	13.5
338.15	0.1999	321.8	6
338.15	0.497	310.75	2.95
338.15	0.8015	314.29	2.2
338.15	1.4954	313.24	1.62
338.15	2.5003	305.47	1.33
343.15	0.0156	324	65
343.15	0.0403	324	26
343.15	0.0802	326.2	13.5
343.15	0.1999	323.5	6
343.15	0.497	311.75	2.96
343.15	0.8015	315.35	2.2
343.15	1.4954	314	1.62
343.15	2.5003	305.81	1.33
348.15	0.0156	326	65
348.15	0.0403	325.9	25.8
348.15	0.0802	327.9	13.5
348.15	0.1999	325.1	6
348.15	0.497	312.64	2.96
348.15	0.8015	316.31	2.21
348.15	1.4954	314.63	1.62
348.15	2.5003	306.12	1.33
353.15	0.0156	327	65
353.15	0.0403	327.3	25.8
353.15	0.0802	329.4	13.5
353.15	0.1999	326.5	6
353.15	0.497	313.45	2.96
353.15	0.8015	317.15	2.21
353.15	1.4954	315.11	1.62
353.15	2.5003	306.35	1.33
358.15	0.0156	328	65
358.15	0.0403	328.8	25.8
358.15	0.0802	330.9	13.5
358.15	0.1999	327.9	6
358.15	0.497	314.17	2.96
358.15	0.8015	317.91	2.21
358.15	1.4954	315.52	1.63
358.15	2.5003	306.55	1.33
363.15	0.0156	330	65
363.15	0.0403	330.2	25.8
363.15	0.0802	332.3	13.5
363.15	0.1999	329.2	6
363.15	0.497	314.81	2.97
363.15	0.8015	318.58	2.21
363.15	1.4954	316.01	1.63
363.15	2.5003	306.65	1.33
368.15	0.0156	331	65
368.15	0.0403	331.4	25.8
368.15	0.0802	333.6	13.5
368.15	0.1999	330.3	6
368.15	0.497	315.33	2.97
368.15	0.8015	319.11	2.21
368.15	1.4954	315.86	1.63
368.15	2.5003	306.87	1.33
373.15	0.0156	333	65
373.15	0.0403	332.6	25.8
373.15	0.0802	334.8	13.5
373.15	0.1999	331.4	6
373.15	0.497	315.8	2.97
373.15	0.8015	319.53	2.22
373.15	1.4954	316.26	1.63
373.15	2.5003	305.83	1.33
378.15	0.0156	334	65
378.15	0.0403	333.8	25.8
378.15	0.0802	335.9	13.5
378.15	0.1999	332.4	6
378.15	0.497	316.18	2.97
378.15	0.8015	319.96	2.22
378.15	1.4954	316.28	1.63
378.15	2.5003	300.51	1.31
383.15	0.0156	335	65
383.15	0.0403	334.7	25.8
383.15	0.0802	336.9	13.5
383.15	0.1999	333.3	6
383.15	0.497	316.48	2.97
383.15	0.8015	320.13	2.22
383.15	1.4954	316.45	1.63
383.15	2.5003	303.71	1.32
388.15	0.0156	335	65
388.15	0.0403	335.6	25.8
388.15	0.0802	337.8	13.5
388.15	0.1999	333.9	6
388.15	0.497	316.64	2.97
388.15	0.8015	320.14	2.22
388.15	1.4954	316.4	1.63
388.15	2.5003	297.75	1.3
393.15	0.0156	334	65
393.15	0.0403	335.1	25.8
393.15	0.0802	337.6	13.5
393.15	0.1999	333.5	6
393.15	0.497	315.62	2.97
393.15	0.8015	318.89	2.21
393.15	1.4954	316.51	1.63

System: tetrahydrofuran + water; phases: Liquid
Fixed: Pressure, kPa = 350
Property: Mass density, kg/m3 (Liquid); method: VIBTUB:UFactor:4
Molality, mol/kg of tetrahydrofuran	Temperature, K	Mass density, kg/m3	uncertainty
0.0156	278.15	1000.11	0.16
0.0156	283.15	999.87	0.16
0.0156	288.15	999.28	0.16
0.0156	298.15	997.23	0.17
0.0156	308.15	994.23	0.18
0.0156	318.15	990.39	0.18
0.0156	328.15	985.85	0.19
0.0156	338.15	980.68	0.2
0.0156	348.15	974.95	0.22
0.0156	358.15	968.7	0.23
0.0156	368.15	961.93	0.25
0.0403	278.15	999.87	0.16
0.0403	283.15	999.63	0.16
0.0403	288.15	999.04	0.16
0.0403	298.15	997.03	0.17
0.0403	308.15	994.05	0.18
0.0403	318.15	990.23	0.18
0.0403	328.15	985.69	0.19
0.0403	338.15	980.55	0.2
0.0403	348.15	974.85	0.22
0.0403	358.15	968.57	0.23
0.0403	368.15	961.85	0.25
0.0802	278.15	999.99	0.16
0.0802	283.15	999.69	0.16
0.0802	288.15	999.07	0.16
0.0802	298.15	996.97	0.17
0.0802	308.15	993.91	0.18
0.0802	318.15	990.04	0.18
0.0802	328.15	985.48	0.19
0.0802	338.15	980.31	0.21
0.0802	348.15	974.64	0.22
0.0802	358.15	968.36	0.23
0.0802	368.15	961.61	0.25
0.1999	278.15	999.64	0.16
0.1999	283.15	999.3	0.16
0.1999	288.15	998.64	0.17
0.1999	298.15	996.42	0.17
0.1999	308.15	993.3	0.18
0.1999	318.15	989.36	0.19
0.1999	328.15	984.75	0.2
0.1999	338.15	979.54	0.21
0.1999	348.15	973.75	0.22
0.1999	358.15	967.4	0.23
0.1999	368.15	960.57	0.25
0.497	278.15	999.04	0.16
0.497	283.15	998.59	0.17
0.497	288.15	997.82	0.17
0.497	298.15	995.49	0.17
0.497	308.15	992.22	0.18
0.497	318.15	988.13	0.19
0.497	328.15	983.36	0.2
0.497	338.15	977.96	0.21
0.497	348.15	972.01	0.22
0.497	358.15	965.5	0.24
0.497	368.15	958.52	0.25
0.8015	278.15	998.72	0.17
0.8015	283.15	998.11	0.17
0.8015	288.15	997.22	0.17
0.8015	298.15	994.62	0.17
0.8015	308.15	991.1	0.18
0.8015	318.15	986.85	0.19
0.8015	328.15	981.9	0.2
0.8015	338.15	976.36	0.21
0.8015	348.15	970.23	0.23
0.8015	358.15	963.56	0.24
0.8015	368.15	956.45	0.26
1.4954	278.15	998	0.17
1.4954	283.15	997.06	0.17
1.4954	288.15	995.82	0.17
1.4954	298.15	992.57	0.18
1.4954	308.15	988.53	0.19
1.4954	318.15	983.81	0.2
1.4954	328.15	978.42	0.21
1.4954	338.15	972.45	0.22
1.4954	348.15	965.94	0.24
1.4954	358.15	958.94	0.25
1.4954	368.15	951.4	0.27
2.5003	278.15	998.16	0.17
2.5003	283.15	996.5	0.17
2.5003	288.15	994.67	0.17
2.5003	298.15	990.45	0.18
2.5003	308.15	985.56	0.19
2.5003	318.15	980.05	0.21
2.5003	328.15	973.96	0.22
2.5003	338.15	967.39	0.23
2.5003	348.15	960.34	0.25
2.5003	358.15	952.85	0.26
2.5003	368.15	944.91	0.28

System: dimethyl sulfoxide + water; phases: Liquid
Fixed: Pressure, kPa = 350
Property: Apparent molar heat capacity, J/K/mol (Liquid); method: Extra sensitive DSC
Temperature, K	Molality, mol/kg of dimethyl sulfoxide	Apparent molar heat capacity, J/K/mol	uncertainty
278.15	0.0205	148	34
278.15	0.05	157.6	12
278.15	0.1009	165	6.6
278.15	0.2999	162.3	3.6
278.15	0.5999	159.9	3.3
278.15	1.0002	157.8	3.1
278.15	1.4008	153.2	3.2
278.15	1.9989	149	3
278.15	2.9997	137.8	3.3
283.15	0.0205	158	30
283.15	0.05	164.1	11.2
283.15	0.1009	174.1	6.1
283.15	0.2999	170.1	3.7
283.15	0.5999	168.4	3.2
283.15	1.0002	166.9	3.4
283.15	1.4008	162.6	3.3
283.15	1.9989	159.1	3.1
283.15	2.9997	150.5	3.2
288.15	0.0205	165	28
288.15	0.05	168.1	10.7
288.15	0.1009	181.7	6
288.15	0.2999	176.2	3.6
288.15	0.5999	175	3.3
288.15	1.0002	174.2	3.6
288.15	1.4008	170	3.4
288.15	1.9989	167	3.2
288.15	2.9997	160.1	3.3
293.15	0.0205	172	26
293.15	0.05	173.9	10.5
293.15	0.1009	186.1	5.8
293.15	0.2999	181.9	3.5
293.15	0.5999	180.95	3.22
293.15	1.0002	180.3	3.5
293.15	1.4008	176.5	3.3
293.15	1.9989	173.8	3.2
293.15	2.9997	167.9	3.2
298.15	0.0205	177	24
298.15	0.05	179.9	10.3
298.15	0.1009	189.1	5.8
298.15	0.2999	186.9	3.3
298.15	0.5999	186.01	3.19
298.15	1.0002	185.3	3.3
298.15	1.4008	182.03	3.21
298.15	1.9989	179.65	3.15
298.15	2.9997	174.2	3.3
303.15	0.0205	183	22
303.15	0.05	185.8	10.7
303.15	0.1009	192.2	6
303.15	0.2999	191.4	3.4
303.15	0.5999	190.61	3.22
303.15	1.0002	189.93	3.24
303.15	1.4008	187.11	3.19
303.15	1.9989	184.92	3.15
303.15	2.9997	179.7	3.2
308.15	0.0205	187	24
308.15	0.05	189.5	12.5
308.15	0.1009	195.2	6.8
308.15	0.2999	195.6	3.7
308.15	0.5999	194.86	3.3
308.15	1.0002	194.11	3.23
308.15	1.4008	191.75	3.2
308.15	1.9989	189.71	3.18
308.15	2.9997	184.4	3.3
313.15	0.0205	191	22
313.15	0.05	194.5	12.3
313.15	0.1009	198.6	6.8
313.15	0.2999	199.5	3.7
313.15	0.5999	198.74	3.37
313.15	1.0002	197.9	3.25
313.15	1.4008	195.96	3.22
313.15	1.9989	193.97	3.2
313.15	2.9997	188.7	3.32
318.15	0.0205	197.4	19.4
318.15	0.05	201.6	10.4
318.15	0.1009	201.7	5.9
318.15	0.2999	202.9	3.7
318.15	0.5999	202.3	3.37
318.15	1.0002	201.49	3.29
318.15	1.4008	199.9	3.25
318.15	1.9989	197.95	3.22
318.15	2.9997	192.57	3.36
323.15	0.0205	205	22
323.15	0.05	210.2	10
323.15	0.1009	204.5	5.8
323.15	0.2999	206.1	3.8
323.15	0.5999	205.61	3.39
323.15	1.0002	204.92	3.31
323.15	1.4008	203.63	3.28
323.15	1.9989	201.64	3.25
323.15	2.9997	196.07	3.37
328.15	0.0205	211	22
328.15	0.05	212.6	9.7
328.15	0.1009	207.7	5.6
328.15	0.2999	209.2	3.7
328.15	0.5999	208.72	3.39
328.15	1.0002	208.17	3.32
328.15	1.4008	207.15	3.3
328.15	1.9989	205.02	3.27
328.15	2.9997	199.3	3.4
333.15	0.0205	216	20
333.15	0.05	215	9.1
333.15	0.1009	211.4	5.3
333.15	0.2999	212.2	3.6
333.15	0.5999	211.77	3.4
333.15	1.0002	211.31	3.33
333.15	1.4008	210.6	3.33
333.15	1.9989	208.26	3.3
333.15	2.9997	202.38	3.42
338.15	0.0205	220.3	17.5
338.15	0.05	217.4	8.4
338.15	0.1009	214.9	5
338.15	0.2999	215.31	3.58
338.15	0.5999	214.75	3.4
338.15	1.0002	214.32	3.35
338.15	1.4008	214.02	3.34
338.15	1.9989	211.36	3.31
338.15	2.9997	205.28	3.46
343.15	0.0205	222.5	15.1
343.15	0.05	220.1	7.3
343.15	0.1009	217.8	4.7
343.15	0.2999	218	3.54
343.15	0.5999	217.47	3.4
343.15	1.0002	217.11	3.37
343.15	1.4008	217.29	3.37
343.15	1.9989	214.23	3.33
343.15	2.9997	207.89	3.48
348.15	0.0205	224.5	13.8
348.15	0.05	222.5	6.4
348.15	0.1009	220.6	4.3
348.15	0.2999	220.53	3.51
348.15	0.5999	220.11	3.41
348.15	1.0002	219.8	3.41
348.15	1.4008	220.55	3.42
348.15	1.9989	216.95	3.36
348.15	2.9997	210.38	3.51
353.15	0.0205	226.4	12.6
353.15	0.05	225.1	5.9
353.15	0.1009	223.2	4.2
353.15	0.2999	223.02	3.51
353.15	0.5999	222.61	3.45
353.15	1.0002	222.32	3.44
353.15	1.4008	223.8	3.47
353.15	1.9989	219.51	3.4
353.15	2.9997	212.71	3.54
358.15	0.0205	228.9	11.7
358.15	0.05	226.9	5.6
358.15	0.1009	225.7	4.1
358.15	0.2999	225.46	3.52
358.15	0.5999	225.04	3.49
358.15	1.0002	224.75	3.48
358.15	1.4008	227.11	3.52
358.15	1.9989	221.95	3.44
358.15	2.9997	214.96	3.56
363.15	0.0205	230.5	10.7
363.15	0.05	228.4	5.1
363.15	0.1009	228.2	4
363.15	0.2999	227.78	3.53
363.15	0.5999	227.35	3.52
363.15	1.0002	227.06	3.52
363.15	1.4008	230.55	3.57
363.15	1.9989	224.23	3.47
363.15	2.9997	217.12	3.59
368.15	0.0205	232.2	10.5
368.15	0.05	229.7	4.8
368.15	0.1009	230.5	3.9
368.15	0.2999	229.85	3.57
368.15	0.5999	229.39	3.55
368.15	1.0002	229.11	3.55
368.15	1.4008	234.04	3.63
368.15	1.9989	226.23	3.5
368.15	2.9997	219.02	3.61
373.15	0.0205	235.1	12.8
373.15	0.05	230.7	4.7
373.15	0.1009	232.8	4
373.15	0.2999	231.8	3.7
373.15	0.5999	231.32	3.64
373.15	1.0002	231.04	3.65
373.15	1.4008	237.96	3.69
373.15	1.9989	228.1	3.62
373.15	2.9997	220.89	3.64
378.15	0.0205	238.2	17.1
378.15	0.05	231.3	4.9
378.15	0.1009	234.7	4.2
378.15	0.2999	233.5	3.9
378.15	0.5999	233	3.9
378.15	1.0002	232.7	3.9
378.15	1.4008	242.58	3.78
378.15	1.9989	229.7	3.9
378.15	2.9997	222.59	3.66
383.15	0.0205	241	22
383.15	0.05	232.1	5.5
383.15	0.1009	236.1	4.6
383.15	0.2999	234.8	4.5
383.15	0.5999	234.3	4.5
383.15	1.0002	234	4.5
383.15	1.4008	248.71	3.97
383.15	1.9989	230.9	4.4
383.15	2.9997	224.12	3.67
388.15	0.0205	243	26
388.15	0.05	233.4	7
388.15	0.1009	236.9	5.9
388.15	0.2999	235.8	5.5
388.15	0.5999	235.2	5.5
388.15	1.0002	234.8	5.5
388.15	1.4008	257.65	4.15
388.15	1.9989	231.7	5.6
388.15	2.9997	225.34	3.69
393.15	0.0205	244	24
393.15	0.05	236.1	8.9
393.15	0.1009	237.4	7.9
393.15	0.2999	236.1	7.8
393.15	0.5999	235.5	7.9
393.15	1.0002	235	8
393.15	1.4008	271.04	4.2
393.15	1.9989	231.8	8.1
393.15	2.9997	225.1	3.72

System: dimethyl sulfoxide + water; phases: Liquid
Fixed: Pressure, kPa = 350
Property: Mass density, kg/m3 (Liquid); method: VIBTUB:UFactor:4
Molality, mol/kg of dimethyl sulfoxide	Temperature, K	Mass density, kg/m3	uncertainty
0.0205	278.15	1000.2	0.16
0.0205	283.15	999.99	0.16
0.0205	288.15	999.38	0.16
0.0205	298.15	997.3	0.17
0.05	278.15	1000.65	0.16
0.05	283.15	1000.35	0.16
0.05	288.15	999.69	0.16
0.05	298.15	997.53	0.17
0.05	308.15	994.47	0.18
0.05	318.15	990.68	0.2
0.05	328.15	986.19	0.22
0.05	338.15	981.04	0.24
0.05	348.15	975.34	0.26
0.05	358.15	969.08	0.28
0.05	368.15	962.38	0.31
0.1009	278.15	1001.05	0.17
0.1009	283.15	1000.8	0.16
0.1009	288.15	1000.17	0.16
0.1009	298.15	998.08	0.17
0.1009	308.15	995.04	0.17
0.1009	318.15	991.2	0.18
0.1009	328.15	986.65	0.19
0.1009	338.15	981.52	0.2
0.1009	348.15	975.75	0.22
0.1009	358.15	969.42	0.23
0.1009	368.15	962.67	0.24
0.2999	278.15	1003.09	0.17
0.2999	283.15	1002.79	0.17
0.2999	288.15	1002.09	0.17
0.2999	298.15	999.86	0.16
0.2999	308.15	996.71	0.17
0.2999	318.15	992.82	0.18
0.2999	328.15	988.24	0.19
0.2999	338.15	983.04	0.2
0.2999	348.15	977.27	0.21
0.2999	358.15	970.97	0.23
0.2999	368.15	964.17	0.24
0.5999	278.15	1006.21	0.18
0.5999	283.15	1005.8	0.17
0.5999	288.15	1005.01	0.17
0.5999	298.15	1002.59	0.17
0.5999	308.15	999.39	0.16
0.5999	318.15	995.39	0.17
0.5999	328.15	990.69	0.18
0.5999	338.15	985.43	0.19
0.5999	348.15	979.56	0.21
0.5999	358.15	973.19	0.22
0.5999	368.15	966.32	0.24
1.0002	278.15	1010.12	0.18
1.0002	283.15	1009.57	0.18
1.0002	288.15	1008.68	0.18
1.0002	298.15	1006.13	0.18
1.0002	308.15	1002.69	0.17
1.0002	318.15	998.51	0.17
1.0002	328.15	993.67	0.18
1.0002	338.15	988.23	0.19
1.0002	348.15	982.3	0.2
1.0002	358.15	975.81	0.22
1.0002	368.15	968.85	0.23
1.4008	278.15	1014.07	0.19
1.4008	283.15	1013.37	0.19
1.4008	288.15	1012.33	0.19
1.4008	298.15	1009.63	0.18
1.4008	308.15	1006.02	0.18
1.4008	318.15	1001.67	0.17
1.4008	328.15	996.68	0.17
1.4008	338.15	991.12	0.18
1.4008	348.15	985.04	0.2
1.4008	358.15	978.46	0.21
1.4008	368.15	971.4	0.23
1.9989	278.15	1019.14	0.2
1.9989	283.15	1018.37	0.2
1.9989	288.15	1017.21	0.2
1.9989	298.15	1014.14	0.19
1.9989	308.15	1010.3	0.18
1.9989	318.15	1005.75	0.18
1.9989	328.15	1000.61	0.17
1.9989	338.15	994.9	0.18
1.9989	348.15	988.67	0.19
1.9989	358.15	981.95	0.2
1.9989	368.15	974.78	0.22
2.9997	278.15	1028.8	0.22
2.9997	283.15	1027.48	0.22
2.9997	288.15	1025.86	0.22
2.9997	298.15	1022.13	0.21
2.9997	308.15	1017.72	0.2
2.9997	318.15	1012.79	0.19
2.9997	328.15	1007.27	0.18
2.9997	338.15	1001.21	0.17
2.9997	348.15	994.7	0.18
2.9997	358.15	987.76	0.19
2.9997	368.15	980.35	0.21

System: 1,4-dioxane + water; phases: Liquid
Fixed: Pressure, kPa = 350
Property: Apparent molar heat capacity, J/K/mol (Liquid); method: Extra sensitive DSC
Temperature, K	Molality, mol/kg of 1,4-dioxane	Apparent molar heat capacity, J/K/mol	uncertainty
278.15	0.015	192	26
278.15	0.0404	189.5	15.6
278.15	0.0794	203.9	8.5
278.15	0.1988	197.3	4
278.15	0.4994	191.8	3.6
278.15	0.9995	185.3	3.6
278.15	1.5006	179.9	3.5
278.15	2.0855	173.4	3.6
283.15	0.015	202	24
283.15	0.0404	197.3	15.3
283.15	0.0794	211.7	8.4
283.15	0.1988	205.8	4
283.15	0.4994	201.1	3.6
283.15	0.9995	195.2	3.5
283.15	1.5006	190.8	3.6
283.15	2.0855	184.4	3.5
288.15	0.015	214	22
288.15	0.0404	217.5	15.7
288.15	0.0794	217.6	8.6
288.15	0.1988	212.1	4.2
288.15	0.4994	208.2	3.7
288.15	0.9995	202.9	3.6
288.15	1.5006	198.7	3.6
288.15	2.0855	192.8	3.5
293.15	0.015	221	22
293.15	0.0404	220.4	17.5
293.15	0.0794	221.9	9.3
293.15	0.1988	217.7	4.6
293.15	0.4994	214.4	3.7
293.15	0.9995	209.5	3.6
293.15	1.5006	205.6	3.5
293.15	2.0855	200.2	3.6
298.15	0.015	225	22
298.15	0.0404	223.1	15.7
298.15	0.0794	225.6	8.6
298.15	0.1988	222.8	4.5
298.15	0.4994	219.8	3.8
298.15	0.9995	215.22	3.63
298.15	1.5006	211.4	3.6
298.15	2.0855	206.6	3.5
303.15	0.015	229	22
303.15	0.0404	226.8	13.6
303.15	0.0794	229.2	7.7
303.15	0.1988	227.6	4.4
303.15	0.4994	224.6	3.8
303.15	0.9995	220.36	3.67
303.15	1.5006	216.54	3.64
303.15	2.0855	212.5	3.6
308.15	0.015	233	20
308.15	0.0404	229.7	12.8
308.15	0.0794	232.4	7.4
308.15	0.1988	231.9	4.4
308.15	0.4994	229	3.8
308.15	0.9995	225.05	3.72
308.15	1.5006	221.15	3.68
308.15	2.0855	217.75	3.66
313.15	0.015	236	20
313.15	0.0404	233.2	13
313.15	0.0794	236.1	7.4
313.15	0.1988	235.9	4.4
313.15	0.4994	233	3.9
313.15	0.9995	229.28	3.75
313.15	1.5006	225.51	3.71
313.15	2.0855	222.51	3.7
318.15	0.015	240	20
318.15	0.0404	236.7	13.2
318.15	0.0794	239.6	7.4
318.15	0.1988	239.6	4.3
318.15	0.4994	236.8	3.85
318.15	0.9995	233.27	3.77
318.15	1.5006	229.68	3.73
318.15	2.0855	226.98	3.72
323.15	0.015	243	20
323.15	0.0404	240.6	13.1
323.15	0.0794	243.1	7.4
323.15	0.1988	243.1	4.3
323.15	0.4994	240.37	3.88
323.15	0.9995	237.05	3.8
323.15	1.5006	233.67	3.77
323.15	2.0855	231.19	3.75
328.15	0.015	246.2	19.9
328.15	0.0404	244.6	12.9
328.15	0.0794	246.6	7.3
328.15	0.1988	246.6	4.4
328.15	0.4994	243.88	3.91
328.15	0.9995	240.67	3.82
328.15	1.5006	237.45	3.8
328.15	2.0855	235.19	3.78
333.15	0.015	249.2	19.7
333.15	0.0404	249.5	12.3
333.15	0.0794	250.3	7.1
333.15	0.1988	250.2	4.4
333.15	0.4994	247.43	3.94
333.15	0.9995	244.28	3.85
333.15	1.5006	241.15	3.82
333.15	2.0855	239.16	3.8
338.15	0.015	252.5	19.5
338.15	0.0404	254.2	11.8
338.15	0.0794	254	6.8
338.15	0.1988	253.6	4.3
338.15	0.4994	250.96	3.94
338.15	0.9995	247.85	3.87
338.15	1.5006	244.81	3.84
338.15	2.0855	243.09	3.83
343.15	0.015	255	19.1
343.15	0.0404	257.3	11.6
343.15	0.0794	257.3	6.8
343.15	0.1988	256.8	4.4
343.15	0.4994	254.27	3.96
343.15	0.9995	251.24	3.89
343.15	1.5006	248.29	3.85
343.15	2.0855	246.88	3.84
348.15	0.015	257.5	19
348.15	0.0404	260.2	12
348.15	0.0794	260.6	7
348.15	0.1988	259.9	4.4
348.15	0.4994	257.59	3.99
348.15	0.9995	254.6	3.94
348.15	1.5006	251.71	3.9
348.15	2.0855	250.67	3.88
353.15	0.015	260.4	18.8
353.15	0.0404	263.4	12.6
353.15	0.0794	263.7	7.2
353.15	0.1988	263.1	4.4
353.15	0.4994	260.83	4.04
353.15	0.9995	257.83	3.99
353.15	1.5006	255.05	3.95
353.15	2.0855	254.47	3.94
358.15	0.015	263.3	18.4
358.15	0.0404	266.7	13
358.15	0.0794	267	7.4
358.15	0.1988	266.3	4.5
358.15	0.4994	264.06	4.09
358.15	0.9995	261.07	4.04
358.15	1.5006	258.33	4
358.15	2.0855	258.38	4
363.15	0.015	266	18.2
363.15	0.0404	269.9	13.4
363.15	0.0794	270.1	7.6
363.15	0.1988	269.5	4.5
363.15	0.4994	267.24	4.14
363.15	0.9995	264.25	4.09
363.15	1.5006	261.56	4.05
363.15	2.0855	262.4	4.07
368.15	0.015	268.7	18
368.15	0.0404	272.9	13.2
368.15	0.0794	273	7.6
368.15	0.1988	272.7	4.5
368.15	0.4994	270.24	4.19
368.15	0.9995	267.23	4.14
368.15	1.5006	264.55	4.1
368.15	2.0855	266.49	4.13
373.15	0.015	270.9	17.8
373.15	0.0404	276.7	14.2
373.15	0.0794	276.7	8
373.15	0.1988	276	4.7
373.15	0.4994	273.37	4.24
373.15	0.9995	270.3	4.19
373.15	1.5006	267.6	4.15
373.15	2.0855	271.08	4.2
378.15	0.015	273.6	17.4
378.15	0.0404	281.4	16.5
378.15	0.0794	280.3	9.1
378.15	0.1988	279.2	5.1
378.15	0.4994	276.36	4.28
378.15	0.9995	273.22	4.23
378.15	1.5006	270.52	4.19
378.15	2.0855	276.42	4.28
383.15	0.015	276.2	17.2
383.15	0.0404	285.5	19.2
383.15	0.0794	283.9	10.4
383.15	0.1988	282.2	5.5
383.15	0.4994	279.27	4.38
383.15	0.9995	276.04	4.28
383.15	1.5006	273.28	4.23
383.15	2.0855	283.18	4.39
388.15	0.015	278.4	17.1
388.15	0.0404	289	22
388.15	0.0794	287	11.5
388.15	0.1988	285.1	5.8
388.15	0.4994	282.1	4.5
388.15	0.9995	278.82	4.32
388.15	1.5006	276.05	4.28
388.15	2.0855	292.21	4.53
393.15	0.015	279.8	16.9
393.15	0.0404	292.4	19.8
393.15	0.0794	290.1	10.8
393.15	0.1988	287.8	5.7
393.15	0.4994	284.73	4.46
393.15	0.9995	281.51	4.36
393.15	1.5006	279.02	4.32
393.15	2.0855	304.31	4.71

System: 1,4-dioxane + water; phases: Liquid
Fixed: Pressure, kPa = 350
Property: Mass density, kg/m3 (Liquid); method: VIBTUB:UFactor:4
Molality, mol/kg of 1,4-dioxane	Temperature, K	Mass density, kg/m3	uncertainty
0.015	278.15	1000.24	0.16
0.015	283.15	999.96	0.16
0.015	288.15	999.34	0.16
0.015	298.15	997.3	0.17
0.015	308.15	994.28	0.18
0.015	318.15	990.46	0.18
0.015	328.15	985.87	0.19
0.015	338.15	980.72	0.2
0.015	348.15	975.03	0.22
0.015	358.15	968.78	0.23
0.015	368.15	962.06	0.25
0.0404	278.15	1000.45	0.16
0.0404	283.15	1000.14	0.16
0.0404	288.15	999.49	0.16
0.0404	298.15	997.4	0.17
0.0404	308.15	994.38	0.17
0.0404	318.15	990.6	0.18
0.0404	328.15	986.04	0.19
0.0404	338.15	980.88	0.2
0.0404	348.15	975.17	0.22
0.0404	358.15	968.89	0.23
0.0404	368.15	962.18	0.25
0.0794	278.15	1000.81	0.16
0.0794	283.15	1000.47	0.16
0.0794	288.15	999.81	0.16
0.0794	298.15	997.67	0.17
0.0794	308.15	994.62	0.17
0.0794	318.15	990.78	0.18
0.0794	328.15	986.26	0.19
0.0794	338.15	981.07	0.2
0.0794	348.15	975.33	0.22
0.0794	358.15	969.05	0.23
0.0794	368.15	962.36	0.25
0.1988	278.15	1001.96	0.17
0.1988	283.15	1001.55	0.17
0.1988	288.15	1000.83	0.16
0.1988	298.15	998.59	0.17
0.1988	308.15	995.43	0.17
0.1988	318.15	991.45	0.18
0.1988	328.15	986.87	0.19
0.1988	338.15	981.64	0.2
0.1988	348.15	975.85	0.22
0.1988	358.15	969.52	0.23
0.1988	368.15	962.71	0.24
0.4994	278.15	1004.65	0.17
0.4994	283.15	1004.05	0.17
0.4994	288.15	1003.16	0.17
0.4994	298.15	1000.65	0.16
0.4994	308.15	997.36	0.17
0.4994	318.15	993.25	0.18
0.4994	328.15	988.44	0.19
0.4994	338.15	983.05	0.2
0.4994	348.15	977.13	0.21
0.4994	358.15	970.67	0.23
0.4994	368.15	963.75	0.24
0.9995	278.15	1009	0.18
0.9995	283.15	1008.13	0.18
0.9995	288.15	1006.99	0.18
0.9995	298.15	1004.04	0.17
0.9995	308.15	1000.26	0.16
0.9995	318.15	995.89	0.17
0.9995	328.15	990.82	0.18
0.9995	338.15	985.18	0.2
0.9995	348.15	979.04	0.21
0.9995	358.15	972.36	0.22
0.9995	368.15	965.23	0.24
1.5006	278.15	1013.02	0.19
1.5006	283.15	1011.89	0.19
1.5006	288.15	1010.54	0.18
1.5006	298.15	1007.17	0.18
1.5006	308.15	1003.06	0.17
1.5006	318.15	998.28	0.17
1.5006	328.15	992.92	0.18
1.5006	338.15	987.12	0.19
1.5006	348.15	980.73	0.21
1.5006	358.15	973.87	0.22
1.5006	368.15	966.53	0.24
2.0855	278.15	1017.28	0.2
2.0855	283.15	1015.86	0.2
2.0855	288.15	1014.24	0.19
2.0855	298.15	1010.31	0.18
2.0855	308.15	1005.88	0.18
2.0855	318.15	1000.84	0.17
2.0855	328.15	995.21	0.17
2.0855	338.15	989.07	0.19
2.0855	348.15	982.42	0.2
2.0855	358.15	975.27	0.22
2.0855	368.15	967.78	0.23

System: 1,2-dimethoxyethane + water; phases: Liquid
Fixed: Pressure, kPa = 350
Property: Apparent molar heat capacity, J/K/mol (Liquid); method: Extra sensitive DSC
Temperature, K	Molality, mol/kg of 1,2-dimethoxyethane	Apparent molar heat capacity, J/K/mol	uncertainty
278.15	0.0155	367	176
278.15	0.2001	368.9	9.2
278.15	0.4986	363.6	6
278.15	0.9795	354.04	5.48
278.15	1.4991	336.54	5.21
278.15	1.989	333.38	5.16
283.15	0.0155	366	70
283.15	0.2001	375.7	7.2
283.15	0.4986	370.13	5.73
283.15	0.9795	361.85	5.61
283.15	1.4991	350.18	5.43
283.15	1.989	343.82	5.33
288.15	0.01	369	102
288.15	0.0155	380	66
288.15	0.0902	359.3	12.3
288.15	0.2001	377.1	7.2
288.15	0.4986	372.72	5.77
288.15	0.9795	365.85	5.67
288.15	1.4991	356.4	5.52
288.15	1.989	349.9	5.42
293.15	0.01	366	104
293.15	0.0155	381	68
293.15	0.0902	380.8	12.6
293.15	0.2001	378.4	7.3
293.15	0.4986	374.77	5.81
293.15	0.9795	368.89	5.71
293.15	1.4991	361.04	5.59
293.15	1.989	354.63	5.49
298.15	0.01	361	106
298.15	0.0155	383	70
298.15	0.0902	381.8	12.8
298.15	0.2001	379.7	7.5
298.15	0.4986	376.49	5.83
298.15	0.9795	371.34	5.75
298.15	1.4991	364.58	5.65
298.15	1.989	358.33	5.55
303.15	0.01	383	110
303.15	0.0155	383	72
303.15	0.0902	382.8	13.2
303.15	0.2001	380.9	7.5
303.15	0.4986	378.07	5.86
303.15	0.9795	373.44	5.79
303.15	1.4991	367.44	5.69
303.15	1.989	361.38	5.6
308.15	0.01	382	112
308.15	0.0155	383	74
308.15	0.0902	384.3	13.5
308.15	0.2001	382.1	7.6
308.15	0.4986	379.6	5.9
308.15	0.9795	375.32	5.81
308.15	1.4991	369.85	5.73
308.15	1.989	363.9	5.6
313.15	0.01	382	116
313.15	0.0155	383	74
313.15	0.0902	385.7	13.7
313.15	0.2001	383.4	7.8
313.15	0.4986	381.1	5.9
313.15	0.9795	377.04	5.84
313.15	1.4991	371.96	5.76
313.15	1.989	366.04	5.67
318.15	0.01	383	118
318.15	0.0155	384	76
318.15	0.0902	386.6	14.1
318.15	0.2001	384.9	8
318.15	0.4986	382.6	5.9
318.15	0.9795	378.67	5.87
318.15	1.4991	373.86	5.79
318.15	1.989	367.9	5.7
323.15	0.01	385	122
323.15	0.0155	386	80
323.15	0.0902	386	14.5
323.15	0.2001	386.4	8.1
323.15	0.4986	384.2	6
323.15	0.9795	380.22	5.89
323.15	1.4991	375.56	5.82
323.15	1.989	369.52	5.72
328.15	0.01	386	126
328.15	0.0155	388	82
328.15	0.0902	389.7	14.9
328.15	0.2001	387.9	8.1
328.15	0.4986	385.7	6
328.15	0.9795	381.69	5.91
328.15	1.4991	377.11	5.84
328.15	1.989	370.94	5.75
333.15	0.01	389	128
333.15	0.0155	389	84
333.15	0.0902	391.3	15.1
333.15	0.2001	389.5	8.3
333.15	0.4986	387.2	6
333.15	0.9795	383.05	5.93
333.15	1.4991	378.57	5.86
333.15	1.989	372.23	5.77
338.15	0.01	391	132
338.15	0.0155	391	86
338.15	0.0902	393	15.4
338.15	0.2001	391.1	8.5
338.15	0.4986	388.7	6
338.15	0.9795	384.41	5.96
338.15	1.4991	379.92	5.89
338.15	1.989	373.39	5.78
343.15	0.01	392	136
343.15	0.0155	393	88
343.15	0.0902	394.6	15.8
343.15	0.2001	392.7	8.6
343.15	0.4986	390.1	6.1
343.15	0.9795	385.68	5.97
343.15	1.4991	381.12	5.9
343.15	1.989	374.38	5.8
348.15	0.01	394	138
348.15	0.0155	394	90
348.15	0.0902	396.2	16.2
348.15	0.2001	394.3	8.8
348.15	0.4986	391.5	6.1
348.15	0.9795	386.89	5.99
348.15	1.4991	382.24	5.92
348.15	1.989	375.27	5.81
353.15	0.01	396	142
353.15	0.0155	396	92
353.15	0.0902	397.8	16.6
353.15	0.2001	395.8	9
353.15	0.4986	392.9	6.1
353.15	0.9795	388.03	6.01
353.15	1.4991	383.26	5.94
353.15	1.989	376.06	5.83
358.15	0.01	398	146
358.15	0.0155	397	94
358.15	0.0902	399.5	17
358.15	0.2001	397.4	9.1
358.15	0.4986	394.2	6.2
358.15	0.9795	389.13	6.03
358.15	1.4991	384.23	5.95
358.15	1.989	376.77	5.84
363.15	0.01	399	150
363.15	0.0155	399	96
363.15	0.0902	401.1	17.4
363.15	0.2001	398.9	9.1
363.15	0.4986	395.6	6.3
363.15	0.9795	390.18	6.04
363.15	1.4991	385.14	5.97
363.15	1.989	377.41	5.85
368.15	0.01	401	152
368.15	0.0155	401	98
368.15	0.0902	402.7	17.7
368.15	0.2001	400.4	9.3
368.15	0.4986	396.8	6.3
368.15	0.9795	391.14	6.06
368.15	1.4991	385.96	5.98
368.15	1.989	377.93	5.85
373.15	0.01	402	156
373.15	0.0155	402	102
373.15	0.0902	404.2	18.1
373.15	0.2001	401.9	9.5
373.15	0.4986	398	6.4
373.15	0.9795	392.07	6.07
373.15	1.4991	386.68	5.99
373.15	1.989	378.28	5.86
378.15	0.01	404	160
378.15	0.0155	403	104
378.15	0.0902	405.8	18.5
378.15	0.2001	403.4	9.7
378.15	0.4986	399.2	6.4
378.15	0.9795	392.92	6.09
378.15	1.4991	387.13	6
378.15	1.989	378.47	5.86
383.15	0.01	405	164
383.15	0.0155	404	106
383.15	0.0902	407.3	18.9
383.15	0.2001	404.8	9.8
383.15	0.4986	400.2	6.5
383.15	0.9795	393.67	6.1
383.15	1.4991	387.62	6
383.15	1.989	378.73	5.87
388.15	0.01	406	168
388.15	0.0155	405	108
388.15	0.0902	408.8	19.5
388.15	0.2001	406	10
388.15	0.4986	401.1	6.5
388.15	0.9795	394.25	6.11
388.15	1.4991	388.02	6.01
388.15	1.989	378.88	5.87
393.15	0.01	406	172
393.15	0.0155	405	112
393.15	0.0902	409.4	19.9
393.15	0.2001	406.4	10.2
393.15	0.4986	400.5	6.6
393.15	0.9795	393.3	6.1
393.15	1.4991	388.64	6.02
393.15	1.989	377.6	5.85

System: 1,2-dimethoxyethane + water; phases: Liquid
Fixed: Pressure, kPa = 350
Property: Mass density, kg/m3 (Liquid); method: VIBTUB:UFactor:4
Molality, mol/kg of 1,2-dimethoxyethane	Temperature, K	Mass density, kg/m3	uncertainty
0.01	278.15	1000.27	0.16
0.01	283.15	1000.04	0.16
0.01	288.15	999.45	0.17
0.01	298.15	997.42	0.18
0.01	308.15	994.42	0.18
0.01	318.15	990.61	0.19
0.01	328.15	986.1	0.2
0.01	338.15	980.89	0.21
0.01	348.15	975.15	0.22
0.01	358.15	968.9	0.23
0.01	368.15	962.17	0.25
0.0155	278.15	1000.29	0.16
0.0155	283.15	1000.05	0.16
0.0155	288.15	999.44	0.17
0.0155	298.15	997.39	0.18
0.0155	308.15	994.38	0.18
0.0155	318.15	990.56	0.19
0.0155	328.15	986.07	0.2
0.0155	338.15	980.95	0.21
0.0155	348.15	975.19	0.22
0.0155	358.15	968.97	0.23
0.0155	368.15	962.22	0.25
0.0902	278.15	999.86	0.16
0.0902	283.15	999.6	0.16
0.0902	288.15	998.99	0.16
0.0902	298.15	996.92	0.17
0.0902	308.15	993.88	0.18
0.0902	318.15	990	0.18
0.0902	328.15	985.44	0.19
0.0902	338.15	980.29	0.21
0.0902	348.15	974.57	0.22
0.0902	358.15	968.3	0.23
0.0902	368.15	961.53	0.25
0.2001	278.15	999.51	0.16
0.2001	283.15	999.2	0.16
0.2001	288.15	998.53	0.17
0.2001	298.15	996.37	0.17
0.2001	308.15	993.27	0.18
0.2001	318.15	989.32	0.19
0.2001	328.15	984.71	0.2
0.2001	338.15	979.53	0.21
0.2001	348.15	973.8	0.22
0.2001	358.15	967.52	0.23
0.2001	368.15	960.78	0.25
0.4986	278.15	998.31	0.17
0.4986	283.15	997.85	0.17
0.4986	288.15	997.08	0.17
0.4986	298.15	994.73	0.17
0.4986	308.15	991.54	0.18
0.4986	318.15	987.52	0.19
0.4986	328.15	982.76	0.2
0.4986	338.15	977.37	0.21
0.4986	348.15	971.41	0.22
0.4986	358.15	964.92	0.24
0.4986	368.15	957.93	0.25
0.9795	278.15	997.51	0.17
0.9795	283.15	996.82	0.17
0.9795	288.15	995.85	0.17
0.9795	298.15	993.13	0.18
0.9795	308.15	989.55	0.18
0.9795	318.15	985.15	0.19
0.9795	328.15	980.1	0.21
0.9795	338.15	974.48	0.22
0.9795	348.15	968.28	0.23
0.9795	358.15	961.52	0.25
0.9795	368.15	954.28	0.26
1.4991	278.15	997.34	0.17
1.4991	283.15	996.31	0.17
1.4991	288.15	995.03	0.17
1.4991	298.15	991.81	0.18
1.4991	308.15	987.8	0.19
1.4991	318.15	983.04	0.2
1.4991	328.15	977.65	0.21
1.4991	338.15	971.68	0.22
1.4991	348.15	965.19	0.24
1.4991	358.15	958.12	0.25
1.4991	368.15	950.59	0.27
1.989	278.15	997.25	0.17
1.989	283.15	995.91	0.17
1.989	288.15	994.35	0.17
1.989	298.15	990.62	0.18
1.989	308.15	986.16	0.19
1.989	318.15	981.03	0.2
1.989	328.15	975.32	0.22
1.989	338.15	969.05	0.23
1.989	348.15	962.26	0.24
1.989	358.15	954.95	0.26
1.989	368.15	947.18	0.28
