Measured thermophysical data. Densities of unloaded and CO2-loaded 3-dimethylamino-1-propanol at temperatures (293.15 to 343.15) K
Source: J. Chem. Thermodyn., 2016, 10.1016/j.jct.2016.02.007
Compound 1: 3-dimethylamino-1-propanol, C5H13NO, InChI=1S/C5H13NO/c1-6(2)4-3-5-7/h7H,3-5H2,1-2H3, purity 99%
Compound 2: carbon dioxide, CO2, InChI=1S/CO2/c2-1-3, purity 99.99%
Compound 3: water, H2O, InChI=1S/H2O/h1H2, purity 99.9%

System: 3-dimethylamino-1-propanol; phases: Liquid
Fixed: Pressure, kPa = 101.3
Property: Mass density, kg/m3 (Liquid); method: Vibrating tube method
Temperature, K	Mass density, kg/m3	uncertainty
293.15	886.7	4.8
298.15	883	4.8
303.15	879.1	4.8
308.15	875.1	4.8
313.15	871.2	4.8
318.15	867.2	4.8
323.15	863.1	4.8
328.15	859.1	4.8
333.15	855	4.8
338.15	850.8	4.8
343.15	846.7	4.8

System: water; phases: Liquid
Fixed: Pressure, kPa = 101.3
Property: Mass density, kg/m3 (Liquid); method: Vibrating tube method
Temperature, K	Mass density, kg/m3	uncertainty
293.15	998.2	1
298.15	997.1	1
303.15	995.6	1
308.15	994	1
313.15	992.3	1
318.15	990.3	1
323.15	988	1
328.15	985.6	1
333.15	983.3	1
338.15	980.7	1
343.15	977.9	1

System: 3-dimethylamino-1-propanol + water; phases: Liquid
Fixed: Pressure, kPa = 101.3
Property: Mass density, kg/m3 (Liquid); method: Vibrating tube method
Mass fraction of 3-dimethylamino-1-propanol	Temperature, K	Mass density, kg/m3	uncertainty
0.1	293.15	992.9	4.9
0.1	298.15	991.5	4.9
0.1	303.15	989.8	4.9
0.1	308.15	987.9	5
0.1	313.15	985.9	5
0.1	318.15	983.6	5
0.2	293.15	989.7	4.8
0.2	298.15	987.7	4.9
0.2	303.15	985.5	4.9
0.2	308.15	983.1	4.9
0.2	313.15	980.4	5
0.2	318.15	977.3	5
0.3	293.15	986.6	5
0.3	298.15	983.9	4.9
0.3	303.15	980.9	5
0.3	308.15	978	5
0.3	313.15	974.8	5
0.3	318.15	971.6	5
0.4	293.15	981.7	5
0.4	298.15	978.3	5
0.4	303.15	974.9	5
0.4	308.15	971.4	5
0.4	313.15	967.8	5.1
0.4	318.15	964.2	5.1
0.5	293.15	975.1	5.2
0.5	298.15	971.4	5.2
0.5	303.15	967.6	5.2
0.5	308.15	963.8	5.3
0.5	313.15	959.9	5.3
0.5	318.15	956	5.3
0.6	293.15	962.4	5.5
0.6	298.15	958.5	5.5
0.6	303.15	954.6	5.6
0.6	308.15	950.6	5.6
0.6	313.15	946.5	5.6
0.6	318.15	942.4	5.6
0.7	293.15	948.3	5.7
0.7	298.15	944.3	5.7
0.7	303.15	940.2	5.7
0.7	308.15	936.1	5.7
0.7	313.15	932	5.7
0.7	318.15	927.8	5.7
0.8	293.15	933.1	6.1
0.8	298.15	929.2	6.1
0.8	303.15	925.2	6.1
0.8	308.15	921.2	6.1
0.8	313.15	917.1	6.1
0.8	318.15	912.9	6.1
0.9	293.15	910.9	6.7
0.9	298.15	907.1	6.7
0.9	303.15	903.2	6.7
0.9	308.15	899.2	6.7
0.9	313.15	895.2	6.7
0.9	318.15	891.1	6.7
1	293.15	886.7	4.8
1	298.15	883	4.8
1	303.15	879.1	4.8
1	308.15	875.1	4.8
1	313.15	871.2	4.8
1	318.15	867.2	4.8
0.1	323.15	981.2	5
0.1	328.15	978.6	5
0.1	333.15	975.9	5.1
0.1	338.15	973.1	5.1
0.1	343.15	970.1	5.1
0.2	323.15	975	5
0.2	328.15	972	5
0.2	333.15	968.9	5.1
0.2	338.15	965.8	5.1
0.2	343.15	962.5	5.2
0.3	323.15	968.2	5.1
0.3	328.15	964.7	5.1
0.3	333.15	961	5.1
0.3	338.15	957.9	5.1
0.3	343.15	954.2	5.1
0.4	323.15	960.4	5.1
0.4	328.15	956.7	5.1
0.4	333.15	952.8	5.1
0.4	338.15	948.9	5.2
0.4	343.15	944.9	5.2
0.5	323.15	952.1	5.3
0.5	328.15	948	5.3
0.5	333.15	943.9	5.4
0.5	338.15	939.8	5.4
0.5	343.15	935.6	5.4
0.6	323.15	938.2	5.6
0.6	328.15	934	5.6
0.6	333.15	929.7	5.6
0.6	338.15	925.4	5.7
0.6	343.15	921	5.7
0.7	323.15	923.6	5.7
0.7	328.15	919.3	5.7
0.7	333.15	915	5.7
0.7	338.15	910.6	5.7
0.7	343.15	906.2	5.6
0.8	323.15	908.7	6.1
0.8	328.15	904.5	6.1
0.8	333.15	900.2	6.1
0.8	338.15	895.8	6
0.8	343.15	891.4	5.9
0.9	323.15	887	6.7
0.9	328.15	882.9	6.6
0.9	333.15	878.7	6.6
0.9	338.15	874.4	6.6
0.9	343.15	870.1	6.6
1	323.15	863.1	4.8
1	328.15	859.1	4.8
1	333.15	855	4.8
1	338.15	850.8	4.8
1	343.15	846.7	4.8
0	293.15	998.2	4.8
0	298.15	997.1	4.8
0	303.15	995.6	4.8
0	308.15	994	4.8
0	313.15	992.3	4.8
0	318.15	990.3	4.8
0	323.15	988	4.8
0	328.15	985.6	4.8
0	333.15	983.3	4.8
0	338.15	980.7	4.8
0	343.15	977.9	4.8

System: carbon dioxide + 3-dimethylamino-1-propanol + water; phases: Liquid
Fixed: Pressure, kPa = 101.3
Property: Mass density, kg/m3 (Liquid); method: Vibrating tube method
Solvent: Mass fraction of 3-dimethylamino-1-propanol	Mole fraction of carbon dioxide	Temperature, K	Mass density, kg/m3	uncertainty
0.2	0.008	293.15	1007.5	8.3
0.2	0.008	298.15	1005.3	8.4
0.2	0.008	303.15	1002.9	8.4
0.2	0.008	308.15	1000.4	8.4
0.2	0.008	313.15	997.7	8.4
0.2	0.008	318.15	994.9	8.4
0.2	0.008	323.15	991.9	8.4
0.2	0.008	328.15	988.8	8.4
0.2	0.008	333.15	986.6	8.4
0.2	0.008	338.15	983.9	8.3
0.2	0.008	343.15	981.2	8.3
0.2	0.014	293.15	1018.8	8.2
0.2	0.014	298.15	1016.6	8.2
0.2	0.014	303.15	1014.1	8.3
0.2	0.014	308.15	1011.4	8.3
0.2	0.014	313.15	1008.7	8.3
0.2	0.014	318.15	1005.7	8.3
0.2	0.014	323.15	1002.7	8.3
0.2	0.014	328.15	999.6	8.3
0.2	0.014	333.15	996.3	8.3
0.2	0.014	338.15	993	8.3
0.2	0.014	343.15	989.5	8.4
0.2	0.024	293.15	1037.3	8.1
0.2	0.024	298.15	1034.9	8.2
0.2	0.024	303.15	1032.3	8.2
0.2	0.024	308.15	1029.7	8.2
0.2	0.024	313.15	1026.9	8.2
0.2	0.024	318.15	1024	8.2
0.2	0.024	323.15	1021	8.3
0.2	0.024	328.15	1017.9	8.3
0.2	0.024	333.15	1014.7	8.3
0.2	0.024	338.15	1011.4	8.4
0.2	0.024	343.15	1009.1	8.4
0.2	0.027	293.15	1041	7.9
0.2	0.027	298.15	1038.6	7.9
0.2	0.027	303.15	1036.1	7.9
0.2	0.027	308.15	1033.5	8
0.2	0.027	313.15	1030.7	8
0.2	0.027	318.15	1027.9	8
0.2	0.027	323.15	1024.9	8.1
0.2	0.027	328.15	1021.9	8.1
0.2	0.027	333.15	1018.7	8.2
0.2	0.027	338.15	1015.5	8.3
0.2	0.027	343.15	1012.2	8.3
0.2	0.032	293.15	1048.3	7.9
0.2	0.032	298.15	1046.1	8
0.2	0.032	303.15	1043.7	8
0.2	0.032	308.15	1041.2	8
0.2	0.032	313.15	1038.6	8.1
0.2	0.032	318.15	1035.9	8.1
0.2	0.032	323.15	1033.1	8.2
0.2	0.032	328.15	1030.2	8.3
0.2	0.032	333.15	1027.2	8.4
0.2	0.032	338.15	1025	8.6
0.2	0.032	343.15	1022.4	9
0.3	0.005	293.15	995.3	8.3
0.3	0.005	298.15	992.4	8.3
0.3	0.005	303.15	989.4	8.3
0.3	0.005	308.15	986.4	8.4
0.3	0.005	313.15	983.2	8.3
0.3	0.005	318.15	979.9	8.4
0.3	0.005	323.15	976.5	8.4
0.3	0.005	328.15	973	8.4
0.3	0.005	333.15	969.4	8.4
0.3	0.005	338.15	965.7	8.5
0.3	0.005	343.15	962	8.6
0.3	0.009	293.15	1002.7	8.7
0.3	0.009	298.15	999.7	8.7
0.3	0.009	303.15	996.7	8.7
0.3	0.009	308.15	993.6	8.7
0.3	0.009	313.15	990.3	8.7
0.3	0.009	318.15	986.9	8.7
0.3	0.009	323.15	983.5	8.7
0.3	0.009	328.15	979.9	8.7
0.3	0.009	333.15	976.2	8.7
0.3	0.009	338.15	972.6	8.7
0.3	0.009	343.15	968.8	8.7
0.3	0.012	293.15	1010.4	8.7
0.3	0.012	298.15	1007.4	8.7
0.3	0.012	303.15	1004.3	8.7
0.3	0.012	308.15	1001.2	8.7
0.3	0.012	313.15	997.9	8.7
0.3	0.012	318.15	994.5	8.8
0.3	0.012	323.15	991	8.8
0.3	0.012	328.15	987.4	8.8
0.3	0.012	333.15	983.7	8.8
0.3	0.012	338.15	979.8	8.8
0.3	0.012	343.15	976	8.8
0.3	0.015	293.15	1016.9	8.6
0.3	0.015	298.15	1013.9	8.6
0.3	0.015	303.15	1010.8	8.6
0.3	0.015	308.15	1007.5	8.6
0.3	0.015	313.15	1004.2	8.6
0.3	0.015	318.15	1000.8	8.6
0.3	0.015	323.15	997.3	8.6
0.3	0.015	328.15	993.7	8.7
0.3	0.015	333.15	990	8.7
0.3	0.015	338.15	986.1	8.7
0.3	0.015	343.15	982.2	8.7
0.3	0.019	293.15	1024.1	8.4
0.3	0.019	298.15	1021.1	8.4
0.3	0.019	303.15	1017.9	8.4
0.3	0.019	308.15	1014.7	8.5
0.3	0.019	313.15	1011.4	8.5
0.3	0.019	318.15	1007.9	8.5
0.3	0.019	323.15	1004.4	8.5
0.3	0.019	328.15	1000.8	8.5
0.3	0.019	333.15	997.2	8.5
0.3	0.019	338.15	993.5	8.6
0.3	0.019	343.15	989.7	8.6
0.3	0.024	293.15	1032.8	8.2
0.3	0.024	298.15	1029.8	8.2
0.3	0.024	303.15	1026.6	8.2
0.3	0.024	308.15	1023.3	8.2
0.3	0.024	313.15	1020	8.3
0.3	0.024	318.15	1016.5	8.3
0.3	0.024	323.15	1013	8.3
0.3	0.024	328.15	1009.5	8.3
0.3	0.024	333.15	1005.8	8.3
0.3	0.024	338.15	1002.1	8.3
0.3	0.024	343.15	998.4	8.3
0.3	0.037	293.15	1051.9	8.3
0.3	0.037	298.15	1048.8	8.4
0.3	0.037	303.15	1045.7	8.4
0.3	0.037	308.15	1042.5	8.4
0.3	0.037	313.15	1039.2	8.4
0.3	0.037	318.15	1035.8	8.5
0.3	0.037	323.15	1032.4	8.5
0.3	0.037	328.15	1028.9	8.5
0.3	0.037	333.15	1025.1	8.5
0.3	0.037	338.15	1021	8.5
0.3	0.037	343.15	1015.8	8.4
0.5	0.01	293.15	986.5	8.3
0.5	0.01	298.15	982.7	8.3
0.5	0.01	303.15	978.9	8.4
0.5	0.01	308.15	975	8.4
0.5	0.01	313.15	971.1	8.4
0.5	0.01	318.15	967.1	8.4
0.5	0.01	323.15	963.1	8.4
0.5	0.01	328.15	959.1	8.4
0.5	0.01	333.15	955	8.5
0.5	0.01	338.15	950.8	8.5
0.5	0.01	343.15	946.6	8.5
0.5	0.016	293.15	997.2	8.4
0.5	0.016	298.15	993.3	8.5
0.5	0.016	303.15	989.5	8.5
0.5	0.016	308.15	985.6	8.5
0.5	0.016	313.15	981.7	8.5
0.5	0.016	318.15	977.7	8.5
0.5	0.016	323.15	973.7	8.5
0.5	0.016	328.15	969.7	8.5
0.5	0.016	333.15	965.6	8.5
0.5	0.016	338.15	961.4	8.6
0.5	0.016	343.15	957.2	8.6
0.5	0.023	293.15	1009.8	8.1
0.5	0.023	298.15	1006	8.1
0.5	0.023	303.15	1002.1	8.1
0.5	0.023	308.15	998.2	8.1
0.5	0.023	313.15	994.2	8.2
0.5	0.023	318.15	990.3	8.2
0.5	0.023	323.15	986.3	8.2
0.5	0.023	328.15	982.2	8.2
0.5	0.023	333.15	978.1	8.2
0.5	0.023	338.15	974	8.2
0.5	0.023	343.15	969.8	8.3
0.5	0.032	293.15	1018.1	8.1
0.5	0.032	298.15	1014.2	8.2
0.5	0.032	303.15	1010.3	8.2
0.5	0.032	308.15	1006.4	8.2
0.5	0.032	313.15	1002.4	8.2
0.5	0.032	318.15	998.5	8.3
0.5	0.032	323.15	994.5	8.3
0.5	0.032	328.15	990.5	8.3
0.5	0.032	333.15	986.4	8.3
0.5	0.032	338.15	982.3	8.3
0.5	0.032	343.15	978.2	8.3
0.5	0.039	293.15	1027.6	8.3
0.5	0.039	298.15	1023.8	8.3
0.5	0.039	303.15	1019.9	8.3
0.5	0.039	308.15	1016	8.3
0.5	0.039	313.15	1012.1	8.4
0.5	0.039	318.15	1008.1	8.4
0.5	0.039	323.15	1004.1	8.4
0.5	0.039	328.15	1000.2	8.4
0.5	0.039	333.15	996.1	8.5
0.5	0.039	338.15	992.1	8.5
0.5	0.039	343.15	988	8.4
