Measured thermophysical data. Volumetric and heat capacity studies of heterocyclic compounds in aqueous amino acids buffer solutions at 298.15 K
Source: J. Chem. Thermodyn., 2019, 10.1016/j.jct.2018.10.027
Compound 1: sodium chloride, ClNa, InChI=1S/ClH.Na/h1H;/q;+1/p-1, purity 99%
Compound 2: water, H2O, InChI=1S/H2O/h1H2
Compound 3: sodium dihydrogen phosphate, H2NaO4P, InChI=1S/Na.H3O4P/c;1-5(2,3)4/h;(H3,1,2,3,4)/q+1;/p-1, purity 99%
Compound 4: disodium hydrogen phosphate, HNa2O4P, InChI=1S/2Na.H3O4P/c;;1-5(2,3)4/h;;(H3,1,2,3,4)/q2*+1;/p-2, purity 99%

System: sodium chloride + water; phases: Liquid
Fixed: Pressure, kPa = 100
Property: Molar heat capacity at constant pressure, J/K/mol (Liquid); method: Large sample (1 g) DSC
Molality, mol/kg of sodium chloride	Temperature, K	Molar heat capacity at constant pressure, J/K/mol	uncertainty
0.2038	278.15	75.5878317546525	1.17152420900016
0.2038	283.15	75.4243632603734	1.16789157579396
0.2038	288.15	75.2663437159036	1.16607525919086
0.2038	293.15	75.2481805498726	1.16607525919086
0.2038	298.15	75.2300173838416	1.16607525919086
0.2038	303.15	75.2167582726389	1.16516710088931
0.2038	308.15	75.202772634795	1.16425894258776
0.2038	313.15	75.1755278857485	1.16425894258776
0.2038	318.15	75.1936910517795	1.16425894258776
0.2038	323.15	75.2009563181919	1.16425894258776
0.2038	328.15	75.2118542178106	1.16607525919086
0.2038	333.15	75.2463642332695	1.16607525919086
0.2038	338.15	75.2699763491098	1.16607525919086
0.2038	343.15	75.3844042951052	1.16789157579396
0.2038	348.15	75.4679548588478	1.16970789239706
0.2038	278.15	75.5878317546525	1.17152420900016
0.3971	278.15	75.3181866384279	1.16769544798107
0.3971	283.15	75.2065417758466	1.1658652043322
0.3971	288.15	75.0692735021811	1.16220471703445
0.3971	293.15	74.9503076650044	1.16037447338558
0.3971	298.15	74.9082120610803	1.16037447338558
0.3971	303.15	74.8990608428359	1.16037447338558
0.3971	308.15	74.8716071881028	1.16037447338558
0.3971	313.15	74.8734374317517	1.16037447338558
0.3971	318.15	74.8807584063472	1.16037447338558
0.3971	323.15	74.9612891268976	1.16220471703445
0.3971	328.15	74.9942335125773	1.16220471703445
0.3971	333.15	75.0308383855548	1.16220471703445
0.3971	338.15	75.1095388624563	1.16403496068332
0.3971	343.15	75.2083720194955	1.1658652043322
0.3971	348.15	75.2577885980151	1.1658652043322
0.3971	278.15	75.3181866384279	1.16769544798107
1.0318	278.15	74.788974194574	1.15893749033993
1.0318	283.15	74.4176641248534	1.15331158019265
1.0318	288.15	74.3651556301455	1.15143627681022
1.0318	293.15	74.2770163711714	1.15143627681022
1.0318	298.15	74.2563880339647	1.14956097342779
1.0318	303.15	74.2170066629337	1.14956097342779
1.0318	308.15	74.2076301460216	1.14956097342779
1.0318	313.15	74.2038795392567	1.14956097342779
1.0318	318.15	74.2057548426392	1.14956097342779
1.0318	323.15	74.2582633373471	1.14956097342779
1.0318	328.15	74.2657645508768	1.15143627681022
1.0318	333.15	74.2826422813187	1.15143627681022
1.0318	338.15	74.3163977422024	1.15143627681022
1.0318	343.15	74.3370260794091	1.15143627681022
1.0318	348.15	74.4532948891195	1.15331158019265
1.0318	278.15	74.788974194574	1.15893749033993

System: sodium dihydrogen phosphate + disodium hydrogen phosphate + water; phases: Liquid
Property: Mass density, kg/m3 (Liquid); method: Vibrating tube method
Molality, mol/kg of sodium dihydrogen phosphate	Molality, mol/kg of disodium hydrogen phosphate	Pressure, kPa	Temperature, K	Mass density, kg/m3	uncertainty
0.1166	0.2049	100	298.15	1026.55	0.11

System: sodium dihydrogen phosphate + disodium hydrogen phosphate + water; phases: Liquid
Property: Molar heat capacity at constant pressure, J/K/mol (Liquid); method: Large sample (1 g) DSC
Molality, mol/kg of sodium dihydrogen phosphate	Molality, mol/kg of disodium hydrogen phosphate	Pressure, kPa	Temperature, K	Molar heat capacity at constant pressure, J/K/mol	uncertainty
0.1166	0.2049	100	298.15	75.147195528703	1.1639576056482
