Measured thermophysical data. Benchmark thermodynamic properties of methylanisoles: Experimental and theoretical study
Source: J. Chem. Thermodyn., 2015, 10.1016/j.jct.2015.02.001
Compound 1: carbon dioxide, CO2, InChI=1S/CO2/c2-1-3
Compound 2: water, H2O, InChI=1S/H2O/h1H2
Compound 3: oxygen, O2, InChI=1S/O2/c1-2
Compound 4: 1-methoxy-2-methylbenzene, C8H10O, InChI=1S/C8H10O/c1-7-5-3-4-6-8(7)9-2/h3-6H,1-2H3, purity 99%
Compound 5: 1-methoxy-3-methylbenzene, C8H10O, InChI=1S/C8H10O/c1-7-4-3-5-8(6-7)9-2/h3-6H,1-2H3, purity 99%
Compound 6: 1-methoxy-4-methylbenzene, C8H10O, InChI=1S/C8H10O/c1-7-3-5-8(9-2)6-4-7/h3-6H,1-2H3, purity 99%

System: 1-methoxy-2-methylbenzene; phases: Liquid, Gas
Property: Vapor or sublimation pressure, kPa (Liquid); method: Transpiration method
Temperature, K	Vapor or sublimation pressure, kPa	uncertainty
275.8	0.035	0.0023
277.7	0.0405	0.0025
278.7	0.0432	0.0028
280.6	0.0504	0.0033
282.6	0.0599	0.0038
285.7	0.0735	0.0047
286.8	0.0821	0.0053
290.2	0.1038	0.0065
293.4	0.1308	0.0083
296.2	0.1606	0.01
298.2	0.1819	0.0115
300.2	0.2111	0.0133
300.2	0.2117	0.0133
303.3	0.2601	0.0162
305.1	0.2865	0.018
308	0.3491	0.0219

System: 1-methoxy-3-methylbenzene; phases: Liquid, Gas
Property: Vapor or sublimation pressure, kPa (Liquid); method: Transpiration method
Temperature, K	Vapor or sublimation pressure, kPa	uncertainty
276.7	0.0285	0.0018
277.8	0.0314	0.002
280.6	0.0395	0.0025
284.7	0.0541	0.0035
289.4	0.0804	0.005
291.9	0.094	0.006
297.7	0.1433	0.009
301.1	0.1806	0.0114
304.1	0.2286	0.0143
305	0.2433	0.0154
308	0.3006	0.0188
310	0.3363	0.0212
312.2	0.4058	0.0257

System: 1-methoxy-4-methylbenzene; phases: Liquid, Gas
Property: Vapor or sublimation pressure, kPa (Liquid); method: Transpiration method
Temperature, K	Vapor or sublimation pressure, kPa	uncertainty
275.2	0.0275	0.0018
276.4	0.031	0.002
277.2	0.0326	0.0021
278.8	0.0379	0.0025
281.7	0.0478	0.003
284.8	0.0612	0.004
287.5	0.0759	0.0048
289.2	0.0861	0.0055
290.4	0.095	0.006
291.2	0.0997	0.0064
291.3	0.1015	0.0065
294.2	0.1267	0.008
296.2	0.1436	0.009
297.1	0.1563	0.0099
299.2	0.1817	0.0115
300.1	0.1942	0.0123
300.1	0.2003	0.0126
301.1	0.2085	0.0132
303.1	0.2465	0.0156
305	0.2782	0.0175
308	0.3386	0.0212

Reaction: -1 1-methoxy-2-methylbenzene + 8 carbon dioxide + 5 water + -10 oxygen
Property: Specific internal energy of reaction at constant volume, J/g
-36144.1

Reaction: -1 1-methoxy-4-methylbenzene + 8 carbon dioxide + 5 water + -10 oxygen
Property: Specific internal energy of reaction at constant volume, J/g
-36180.8
