Measured thermophysical data. Heat capacity and Joule-Thomson coefficient of selected n-alkanes at 0.1 and 10 MPa in broad temperature ranges
Source: J. Chem. Thermodyn., 2017, 10.1016/j.jct.2017.03.034
Compound 1: hexane, C6H14, InChI=1S/C6H14/c1-3-5-6-4-2/h3-6H2,1-2H3, purity 99.2%
Compound 2: octane, C8H18, InChI=1S/C8H18/c1-3-5-7-8-6-4-2/h3-8H2,1-2H3, purity 99.4%
Compound 3: decane, C10H22, InChI=1S/C10H22/c1-3-5-7-9-10-8-6-4-2/h3-10H2,1-2H3, purity 99.4%
Compound 4: dodecane, C12H26, InChI=1S/C12H26/c1-3-5-7-9-11-12-10-8-6-4-2/h3-12H2,1-2H3, purity 99.5%
Compound 5: tetradecane, C14H30, InChI=1S/C14H30/c1-3-5-7-9-11-13-14-12-10-8-6-4-2/h3-14H2,1-2H3, purity 99.9%
Compound 6: hexadecane, C16H34, InChI=1S/C16H34/c1-3-5-7-9-11-13-15-16-14-12-10-8-6-4-2/h3-16H2,1-2H3, purity 99.4%

System: hexane; phases: Liquid
Property: Molar heat capacity at constant pressure, J/K/mol (Liquid); method: Large sample (1 g) DSC
Temperature, K	Pressure, kPa	Molar heat capacity at constant pressure, J/K/mol	uncertainty
323.15	140	203.63237568	3.18848832
328.15	140	205.70058432	3.18848832
333.15	140	207.85496832	3.18848832
323.15	10090	200.61623808	3.10231296
328.15	10090	202.42592064	3.10231296
333.15	10090	204.49412928	3.18848832
338.15	10090	206.13146112	3.18848832
343.15	10090	208.1134944	3.18848832
348.15	10090	210.09552768	3.27466368
353.15	10090	211.90521024	3.27466368
358.15	10090	214.1457696	3.36083904
363.15	10090	216.04162752	3.36083904
368.15	10090	218.36836224	3.36083904

System: octane; phases: Liquid
Property: Molar heat capacity at constant pressure, J/K/mol (Liquid); method: Large sample (1 g) DSC
Temperature, K	Pressure, kPa	Molar heat capacity at constant pressure, J/K/mol	uncertainty
323.15	100	263.2967386	4.11222672
328.15	100	265.69553752	4.11222672
333.15	100	267.98010792	4.11222672
338.15	100	270.37890684	4.22645524
343.15	100	272.66347724	4.22645524
348.15	100	275.17650468	4.22645524
353.15	100	277.5753036	4.34068376
358.15	100	280.08833104	4.34068376
363.15	100	282.60135848	4.34068376
368.15	100	285.11438592	4.45491228
373.15	100	287.8558704	4.45491228
378.15	100	290.36889784	4.45491228
383.15	100	293.45306788	4.5691408
323.15	10130	260.89793968	3.9979982
328.15	10130	263.18251008	4.11222672
333.15	10130	265.581309	4.11222672
338.15	10130	267.75165088	4.11222672
343.15	10130	270.03622128	4.22645524
348.15	10130	272.32079168	4.22645524
353.15	10130	274.49113356	4.22645524
358.15	10130	277.004161	4.34068376
363.15	10130	279.17450288	4.34068376
368.15	10130	281.5733018	4.34068376
373.15	10130	283.97210072	4.45491228
378.15	10130	286.48512816	4.45491228
383.15	10130	288.88392708	4.45491228
388.15	10130	290.94004044	4.45491228
393.15	10130	292.88192528	4.5691408
398.15	10130	295.96609532	4.5691408

System: decane; phases: Liquid
Property: Molar heat capacity at constant pressure, J/K/mol (Liquid); method: Large sample (1 g) DSC
Temperature, K	Pressure, kPa	Molar heat capacity at constant pressure, J/K/mol	uncertainty
323.15	120	326.25189224	5.12214048
328.15	120	328.24383576	5.12214048
333.15	120	330.52034264	5.12214048
338.15	120	333.22369456	5.12214048
343.15	120	336.21160984	5.26442216
348.15	120	339.05724344	5.26442216
353.15	120	341.90287704	5.26442216
358.15	120	344.46394728	5.40670384
363.15	120	346.88273584	5.40670384
368.15	120	349.72836944	5.40670384
373.15	120	352.71628472	5.40670384
378.15	120	355.56191832	5.54898552
383.15	120	358.5498336	5.54898552
388.15	120	361.68003056	5.54898552
393.15	120	364.81022752	5.6912672
398.15	120	367.7981428	5.6912672
403.15	120	371.21290312	5.6912672
323.15	10170	322.9794136	4.9798588
328.15	10170	325.68276552	4.9798588
333.15	10170	328.38611744	5.12214048
338.15	10170	330.94718768	5.12214048
343.15	10170	333.6505396	5.12214048
348.15	10170	336.35389152	5.26442216
353.15	10170	339.05724344	5.26442216
358.15	10170	342.04515872	5.26442216
363.15	10170	344.60622896	5.40670384
368.15	10170	347.30958088	5.40670384
373.15	10170	350.29749616	5.40670384
378.15	10170	353.00084808	5.40670384
383.15	10170	355.7042	5.54898552
388.15	10170	358.40755192	5.54898552
393.15	10170	361.3954672	5.54898552
398.15	10170	364.2411008	5.6912672
403.15	10170	367.0867344	5.6912672
408.15	10170	370.07464968	5.6912672
413.15	10170	372.7780016	5.83354888
418.15	10170	375.76591688	5.83354888
423.15	10170	379.32295888	5.83354888
428.15	10170	382.59543752	5.97583056

System: dodecane; phases: Liquid
Property: Molar heat capacity at constant pressure, J/K/mol (Liquid); method: Large sample (1 g) DSC
Temperature, K	Pressure, kPa	Molar heat capacity at constant pressure, J/K/mol	uncertainty
323.15	100	386.31941712	5.9617194
328.15	100	389.55577908	5.9617194
333.15	100	392.79214104	6.13205424
338.15	100	395.85816816	6.13205424
343.15	100	399.09453012	6.13205424
348.15	100	402.33089208	6.30238908
353.15	100	405.56725404	6.30238908
358.15	100	408.803616	6.30238908
363.15	100	412.03997796	6.47272392
368.15	100	415.27633992	6.47272392
373.15	100	418.85337156	6.47272392
378.15	100	422.08973352	6.47272392
383.15	100	425.49643032	6.64305876
388.15	100	428.73279228	6.64305876
393.15	100	432.30982392	6.64305876
398.15	100	435.37585104	6.8133936
403.15	100	438.78254784	6.8133936
408.15	100	442.52991432	6.8133936
413.15	100	445.76627628	6.98372844
418.15	100	449.34330792	6.98372844
423.15	100	452.92033956	6.98372844
428.15	100	456.4973712	7.15406328
433.15	100	460.58540736	7.15406328
438.15	100	465.35478288	7.15406328
323.15	10180	385.12707324	5.9617194
328.15	10180	388.02276552	5.9617194
333.15	10180	391.25912748	6.13205424
338.15	10180	394.3251546	6.13205424
343.15	10180	397.39118172	6.13205424
348.15	10180	400.45720884	6.13205424
353.15	10180	403.52323596	6.30238908
358.15	10180	406.92993276	6.30238908
363.15	10180	409.99595988	6.30238908
368.15	10180	413.23232184	6.47272392
373.15	10180	416.12801412	6.47272392
378.15	10180	419.36437608	6.47272392
383.15	10180	422.60073804	6.47272392
388.15	10180	426.00743484	6.64305876
393.15	10180	429.07346196	6.64305876
398.15	10180	433.16149812	6.64305876
403.15	10180	435.88685556	6.8133936
408.15	10180	438.78254784	6.8133936
413.15	10180	441.67824012	6.8133936
418.15	10180	444.06292788	6.8133936
423.15	10180	447.63995952	6.98372844
428.15	10180	450.87632148	6.98372844
433.15	10180	454.28301828	6.98372844
438.15	10180	458.2007196	7.15406328
443.15	10180	462.11842092	7.15406328
448.15	10180	465.69545256	7.15406328
453.15	10180	469.95382356	7.32439812

System: tetradecane; phases: Liquid
Property: Molar heat capacity at constant pressure, J/K/mol (Liquid); method: Large sample (1 g) DSC
Temperature, K	Pressure, kPa	Molar heat capacity at constant pressure, J/K/mol	uncertainty
323.15	120	449.547208	6.94358
328.15	120	452.721416	6.94358
333.15	120	456.094012	7.141968
338.15	120	459.466608	7.141968
343.15	120	463.037592	7.141968
348.15	120	466.608576	7.141968
353.15	120	470.377948	7.340356
358.15	120	474.14732	7.340356
363.15	120	477.718304	7.340356
368.15	120	481.487676	7.538744
373.15	120	485.257048	7.538744
378.15	120	489.02642	7.538744
383.15	120	492.795792	7.737132
388.15	120	496.763552	7.737132
393.15	120	500.136148	7.737132
398.15	120	504.500684	7.737132
403.15	120	508.270056	7.93552
408.15	120	512.436204	7.93552
413.15	120	515.8088	7.93552
418.15	120	519.578172	8.133908
423.15	120	523.347544	8.133908
428.15	120	527.116916	8.133908
433.15	120	530.886288	8.133908
438.15	120	535.250824	8.332296
443.15	120	539.813748	8.332296
448.15	120	543.58312	8.332296
453.15	120	547.947656	8.530684
458.15	120	554.097684	8.530684
463.15	120	559.652548	8.729072
323.15	10120	447.761716	6.94358
328.15	10120	451.134312	6.94358
333.15	10120	454.506908	7.141968
338.15	10120	457.879504	7.141968
343.15	10120	461.2521	7.141968
348.15	10120	464.823084	7.141968
353.15	10120	468.19568	7.340356
358.15	10120	471.965052	7.340356
363.15	10120	475.536036	7.340356
368.15	10120	478.908632	7.340356
373.15	10120	483.07478	7.538744
378.15	10120	486.447376	7.538744
383.15	10120	489.819972	7.538744
388.15	10120	493.192568	7.737132
393.15	10120	497.160328	7.737132
398.15	10120	500.731312	7.737132
403.15	10120	503.707132	7.737132
408.15	10120	508.468444	7.93552
413.15	10120	511.642652	7.93552
418.15	10120	515.412024	7.93552
423.15	10120	518.78462	8.133908
428.15	10120	522.157216	8.133908
433.15	10120	525.926588	8.133908
438.15	10120	529.299184	8.133908
443.15	10120	533.465332	8.332296
448.15	10120	537.63148	8.332296
453.15	10120	541.59924	8.332296
458.15	10120	545.765388	8.530684
463.15	10120	550.328312	8.530684
468.15	10120	553.899296	8.530684
473.15	10120	558.065444	8.729072
478.15	10120	562.826756	8.729072
483.15	10120	566.794516	8.729072

System: hexadecane; phases: Liquid
Property: Molar heat capacity at constant pressure, J/K/mol (Liquid); method: Large sample (1 g) DSC
Temperature, K	Pressure, kPa	Molar heat capacity at constant pressure, J/K/mol	uncertainty
323.15	130	513.56855088	7.9254406
328.15	130	517.19160944	7.9254406
333.15	130	520.814668	8.15188176
338.15	130	524.66416772	8.15188176
343.15	130	528.51366744	8.15188176
348.15	130	532.81604948	8.15188176
353.15	130	536.43910804	8.37832292
358.15	130	540.74149008	8.37832292
363.15	130	544.5909898	8.37832292
368.15	130	548.66693068	8.60476408
373.15	130	553.19575388	8.60476408
378.15	130	557.27169476	8.60476408
383.15	130	561.5740768	8.60476408
388.15	130	565.65001768	8.83120524
393.15	130	569.72595856	8.83120524
398.15	130	574.0283406	8.83120524
403.15	130	578.5571638	9.0576464
408.15	130	583.085987	9.0576464
413.15	130	586.93548672	9.0576464
418.15	130	591.46430992	9.0576464
423.15	130	595.76669196	9.28408756
428.15	130	599.61619168	9.28408756
433.15	130	603.91857372	9.28408756
438.15	130	608.67383808	9.51052872
443.15	130	613.20266128	9.51052872
448.15	130	617.27860216	9.51052872
453.15	130	622.26030768	9.73696988
323.15	10090	512.20990392	7.9254406
328.15	10090	515.83296248	7.9254406
333.15	10090	519.45602104	8.15188176
338.15	10090	523.30552076	8.15188176
343.15	10090	526.475697	8.15188176
348.15	10090	530.09875556	8.15188176
353.15	10090	534.4011376	8.37832292
358.15	10090	538.47707848	8.37832292
363.15	10090	542.10013704	8.37832292
368.15	10090	546.40251908	8.37832292
373.15	10090	550.70490112	8.60476408
378.15	10090	554.55440084	8.60476408
383.15	10090	558.85678288	8.60476408
388.15	10090	563.15916492	8.83120524
393.15	10090	567.2351058	8.83120524
398.15	10090	571.31104668	8.83120524
403.15	10090	575.61342872	8.83120524
408.15	10090	579.91581076	9.0576464
413.15	10090	584.44463396	9.0576464
418.15	10090	588.97345716	9.0576464
423.15	10090	593.04939804	9.28408756
428.15	10090	596.44601544	9.28408756
433.15	10090	600.29551516	9.28408756
438.15	10090	604.5978972	9.28408756
443.15	10090	609.35316156	9.51052872
448.15	10090	613.6555436	9.51052872
453.15	10090	617.052161	9.51052872
458.15	10090	621.35454304	9.73696988
463.15	10090	625.43048392	9.73696988
468.15	10090	630.18574828	9.73696988
473.15	10090	634.94101264	9.73696988
