Measured thermophysical data. Combined experimental and computational thermochemistry of isomers of chloronitroanilines
Source: J. Chem. Thermodyn., 2008, 10.1016/j.jct.2007.07.007
Compound 1: hydrogen chloride, ClH, InChI=1S/ClH/h1H
Compound 2: carbon dioxide, CO2, InChI=1S/CO2/c2-1-3
Compound 3: nitrogen, N2, InChI=1S/N2/c1-2
Compound 4: water, H2O, InChI=1S/H2O/h1H2
Compound 5: oxygen, O2, InChI=1S/O2/c1-2
Compound 6: 4-chloro-3-nitroaniline, C6H5ClN2O2, InChI=1S/C6H5ClN2O2/c7-5-2-1-4(8)3-6(5)9(10)11/h1-3H,8H2, purity 99.7%
Compound 7: 5-chloro-2-nitroaniline, C6H5ClN2O2, InChI=1S/C6H5ClN2O2/c7-4-1-2-6(9(10)11)5(8)3-4/h1-3H,8H2, purity 99.7%

System: 4-chloro-3-nitroaniline; phases: Crystal, Liquid, Air at 1 atmosphere
Property: Normal melting temperature, K (Crystal); method: DTA
Normal melting temperature, K	uncertainty
347.9	0.5

System: 4-chloro-3-nitroaniline; phases: Crystal
Property: Mass density, kg/m3 (Crystal); method: estimated from mass and dimension of pellet of crystal
Temperature, K	Pressure, kPa	Mass density, kg/m3	uncertainty
298.15	101.325	1180	20

System: 4-chloro-3-nitroaniline; phases: Crystal, Gas
Property: Vapor or sublimation pressure, kPa (Crystal); method: Calculated from knudsen effusion weight loss
Temperature, K	Vapor or sublimation pressure, kPa	uncertainty
327.27	8.67e-05	4.4e-06
327.27	8.47e-05	4.3e-06
329.2	0.000106	5e-06
329.2	0.000104	5e-06
329.2	0.000105	5e-06
331.14	0.000129	6e-06
331.14	0.000132	7e-06
331.14	0.00013	7e-06
333.26	0.000172	9e-06
333.26	0.000162	8e-06
333.26	0.000163	8e-06
335.21	0.000205	1e-05
335.21	0.000207	1e-05
335.21	0.000205	1e-05
337.16	0.000244	1.2e-05
337.16	0.000255	1.3e-05
337.16	0.000251	1.3e-05
339.27	0.000316	1.6e-05
339.27	0.00032	1.6e-05
339.27	0.000319	1.6e-05
341.15	0.000395	2e-05
341.15	0.000396	2e-05
341.15	0.000389	1.9e-05
343.12	0.000471	2.4e-05
343.12	0.000486	2.4e-05
343.12	0.00048	2.4e-05
345.25	0.000605	3e-05
345.25	0.000608	3e-05
345.25	0.000601	3e-05
347.15	0.000755	3.8e-05
347.15	0.000755	3.8e-05
347.15	0.000741	3.7e-05
349.13	0.000914	4.6e-05
349.13	0.000926	4.6e-05
349.13	0.000895	4.5e-05

System: 5-chloro-2-nitroaniline; phases: Crystal, Liquid, Air at 1 atmosphere
Property: Normal melting temperature, K (Crystal); method: DTA
Normal melting temperature, K	uncertainty
398.9	0.5

System: 5-chloro-2-nitroaniline; phases: Crystal
Property: Mass density, kg/m3 (Crystal); method: estimated from mass and dimension of pellet of crystal
Temperature, K	Pressure, kPa	Mass density, kg/m3	uncertainty
298.15	101.325	1530	20

System: 5-chloro-2-nitroaniline; phases: Crystal, Gas
Property: Vapor or sublimation pressure, kPa (Crystal); method: Calculated from knudsen effusion weight loss
Temperature, K	Vapor or sublimation pressure, kPa	uncertainty
319.29	8.9e-05	4.5e-06
319.29	8.8e-05	4.4e-06
319.29	8.77e-05	4.4e-06
321.29	0.000114	6e-06
321.29	0.000113	6e-06
321.29	0.000113	6e-06
323.14	0.000142	7e-06
323.14	0.00014	7e-06
325.29	0.00018	9e-06
325.29	0.000182	9e-06
325.29	0.000174	9e-06
327.28	0.000226	1.1e-05
327.28	0.000225	1.1e-05
327.28	0.00022	1.1e-05
329.13	0.000278	1.4e-05
329.13	0.000273	1.4e-05
331.27	0.000356	1.8e-05
331.27	0.00035	1.8e-05
331.27	0.000337	1.7e-05
333.28	0.000437	2.2e-05
333.28	0.000438	2.2e-05
333.28	0.000425	2.1e-05
335.13	0.000525	2.6e-05
335.13	0.000531	2.7e-05
335.13	0.000518	2.6e-05
337.27	0.000659	3.3e-05
337.27	0.000654	3.3e-05
337.27	0.000634	3.2e-05
339.28	0.000816	4.1e-05
339.28	0.000811	4.1e-05
339.28	0.000794	4e-05
341.13	0.000978	4.9e-05
341.13	0.000994	5e-05
341.13	0.000963	4.8e-05

Reaction: -1 4-chloro-3-nitroaniline + 1 hydrogen chloride + 6 carbon dioxide + 1 nitrogen + 2 water + -6 oxygen
Property: Specific internal energy of reaction at constant volume, J/g
-17704.1

Reaction: -1 5-chloro-2-nitroaniline + 1 hydrogen chloride + 6 carbon dioxide + 1 nitrogen + 2 water + -6 oxygen
Property: Specific internal energy of reaction at constant volume, J/g
-17579.1
