Measured thermophysical data. Solubility determination and thermodynamic modelling of 3,5-dimethylpyrazole in nine organic solvents from T = (283.15 to 313.15) K and mixing properties of solutions
Source: J. Chem. Thermodyn., 2017, 10.1016/j.jct.2017.02.011
Compound 1: 3,5-dimethylpyrazole, C5H8N2, InChI=1S/C5H8N2/c1-4-3-5(2)7-6-4/h3H,1-2H3,(H,6,7), purity 98.3%
Compound 2: methanol, CH4O, InChI=1S/CH4O/c1-2/h2H,1H3
Compound 3: ethanol, C2H6O, InChI=1S/C2H6O/c1-2-3/h3H,2H2,1H3
Compound 4: propan-1-ol, C3H8O, InChI=1S/C3H8O/c1-2-3-4/h4H,2-3H2,1H3
Compound 5: propan-2-ol, C3H8O, InChI=1S/C3H8O/c1-3(2)4/h3-4H,1-2H3
Compound 6: ethyl acetate, C4H8O2, InChI=1S/C4H8O2/c1-3-6-4(2)5/h3H2,1-2H3
Compound 7: acetone, C3H6O, InChI=1S/C3H6O/c1-3(2)4/h1-2H3
Compound 8: acetonitrile, C2H3N, InChI=1S/C2H3N/c1-2-3/h1H3
Compound 9: toluene, C7H8, InChI=1S/C7H8/c1-7-5-3-2-4-6-7/h2-6H,1H3
Compound 10: butan-1-ol, C4H10O, InChI=1S/C4H10O/c1-2-3-4-5/h5H,2-4H2,1H3

System: 3,5-dimethylpyrazole; phases: Crystal, Liquid, Air at 1 atmosphere
Property: Normal melting temperature, K (Crystal); method: DTA
Normal melting temperature, K	uncertainty
381.75	0.5

System: 3,5-dimethylpyrazole; phases: Crystal, Liquid, Air at 1 atmosphere
Property: Molar enthalpy of transition or fusion, kJ/mol (Crystal); method: DSC
Molar enthalpy of transition or fusion, kJ/mol	uncertainty
16.49	0.88

System: 3,5-dimethylpyrazole + acetonitrile; phases: Liquid, Crystal
Fixed: Pressure, kPa = 101.3
Property: Mole fraction of 3,5-dimethylpyrazole (Liquid); method: Chromatography
Temperature, K	Mole fraction of 3,5-dimethylpyrazole	uncertainty
283.15	0.02758	0.00138
285.65	0.03122	0.00156
288.15	0.03588	0.0018
290.65	0.04078	0.00204
293.15	0.04549	0.00228
295.65	0.05076	0.00254
298.15	0.05682	0.00285
300.65	0.06349	0.00318
303.15	0.07224	0.00362
305.65	0.08061	0.00404
308.15	0.09161	0.00459
310.65	0.1024	0.0051
313.15	0.1158	0.0058

System: 3,5-dimethylpyrazole + methanol; phases: Liquid, Crystal
Fixed: Pressure, kPa = 101.3
Property: Mole fraction of 3,5-dimethylpyrazole (Liquid); method: Chromatography
Temperature, K	Mole fraction of 3,5-dimethylpyrazole	uncertainty
283.15	0.1066	0.0053
285.65	0.1119	0.0056
288.15	0.1179	0.0059
290.65	0.1235	0.0062
293.15	0.1308	0.0065
295.65	0.1372	0.0069
298.15	0.1434	0.0072
300.65	0.1503	0.0075
303.15	0.1582	0.0079
305.65	0.1653	0.0083
308.15	0.1727	0.0086
310.65	0.1804	0.009
313.15	0.1902	0.0095

System: ethanol + 3,5-dimethylpyrazole; phases: Liquid, Crystal
Fixed: Pressure, kPa = 101.3
Property: Mole fraction of 3,5-dimethylpyrazole (Liquid); method: Chromatography
Temperature, K	Mole fraction of 3,5-dimethylpyrazole	uncertainty
283.15	0.1201	0.006
285.65	0.1265	0.0063
288.15	0.1334	0.0067
290.65	0.1402	0.007
293.15	0.1478	0.0074
295.65	0.1551	0.0078
298.15	0.1626	0.0081
300.65	0.1705	0.0085
303.15	0.1787	0.0089
305.65	0.1869	0.0094
308.15	0.1957	0.0098
310.65	0.2054	0.0103
313.15	0.2172	0.0109

System: 3,5-dimethylpyrazole + propan-1-ol; phases: Liquid, Crystal
Fixed: Pressure, kPa = 101.3
Property: Mole fraction of 3,5-dimethylpyrazole (Liquid); method: Chromatography
Temperature, K	Mole fraction of 3,5-dimethylpyrazole	uncertainty
283.15	0.1231	0.0062
285.65	0.13	0.0065
288.15	0.1365	0.0068
290.65	0.1447	0.0072
293.15	0.1521	0.0076
295.65	0.1596	0.008
298.15	0.1672	0.0084
300.65	0.1753	0.0088
303.15	0.1842	0.0092
305.65	0.194	0.0097
308.15	0.2034	0.0102
310.65	0.2132	0.0107
313.15	0.2259	0.0113

System: 3,5-dimethylpyrazole + propan-2-ol; phases: Liquid, Crystal
Fixed: Pressure, kPa = 101.3
Property: Mole fraction of 3,5-dimethylpyrazole (Liquid); method: Chromatography
Temperature, K	Mole fraction of 3,5-dimethylpyrazole	uncertainty
283.15	0.1148	0.0057
285.65	0.1208	0.006
288.15	0.1276	0.0064
290.65	0.1343	0.0067
293.15	0.1418	0.0071
295.65	0.1495	0.0075
298.15	0.1567	0.0078
300.65	0.1643	0.0082
303.15	0.1712	0.0086
305.65	0.1804	0.009
308.15	0.1901	0.0095
310.65	0.1994	0.01
313.15	0.211	0.0106

System: 3,5-dimethylpyrazole + acetone; phases: Liquid, Crystal
Fixed: Pressure, kPa = 101.3
Property: Mole fraction of 3,5-dimethylpyrazole (Liquid); method: Chromatography
Temperature, K	Mole fraction of 3,5-dimethylpyrazole	uncertainty
283.15	0.06249	0.00313
285.65	0.06913	0.00346
288.15	0.07566	0.00379
290.65	0.08383	0.0042
293.15	0.09347	0.00468
295.65	0.105	0.0053
298.15	0.1164	0.0058
300.65	0.1293	0.0065
303.15	0.1433	0.0072
305.65	0.1596	0.008
308.15	0.1754	0.0088
310.65	0.1943	0.0097
313.15	0.2131	0.0107

System: 3,5-dimethylpyrazole + toluene; phases: Liquid, Crystal
Fixed: Pressure, kPa = 101.3
Property: Mole fraction of 3,5-dimethylpyrazole (Liquid); method: Chromatography
Temperature, K	Mole fraction of 3,5-dimethylpyrazole	uncertainty
283.15	0.03388	0.0017
285.65	0.03819	0.00191
288.15	0.04502	0.00226
290.65	0.0517	0.00259
293.15	0.05929	0.00297
295.65	0.06771	0.00339
298.15	0.07689	0.00385
300.65	0.08626	0.00432
303.15	0.09792	0.00491
305.65	0.1143	0.0057
308.15	0.1329	0.0067
310.65	0.1515	0.0076
313.15	0.171	0.0086

System: 3,5-dimethylpyrazole + butan-1-ol; phases: Liquid, Crystal
Fixed: Pressure, kPa = 101.3
Property: Mole fraction of 3,5-dimethylpyrazole (Liquid); method: Chromatography
Temperature, K	Mole fraction of 3,5-dimethylpyrazole	uncertainty
283.15	0.1333	0.0067
285.65	0.14	0.007
288.15	0.1488	0.0074
290.65	0.1576	0.0079
293.15	0.1664	0.0083
295.65	0.1763	0.0088
298.15	0.1869	0.0094
300.65	0.1989	0.01
303.15	0.2114	0.0106
305.65	0.2236	0.0112
308.15	0.237	0.0119
310.65	0.2512	0.0126
313.15	0.2654	0.0133

System: 3,5-dimethylpyrazole + ethyl acetate; phases: Liquid, Crystal
Fixed: Pressure, kPa = 101.3
Property: Mole fraction of 3,5-dimethylpyrazole (Liquid); method: Chromatography
Temperature, K	Mole fraction of 3,5-dimethylpyrazole	uncertainty
283.15	0.05083	0.00255
285.65	0.05785	0.0029
288.15	0.06634	0.00332
290.65	0.07702	0.00386
293.15	0.08807	0.00441
295.65	0.1001	0.005
298.15	0.1125	0.0056
300.65	0.1279	0.0064
303.15	0.1437	0.0072
305.65	0.161	0.0081
308.15	0.1799	0.009
310.65	0.199	0.01
313.15	0.2228	0.0112
