Measured thermophysical data. The precise measurement of the (vapour + liquid) equilibrium properties for (CO2 + isobutane) binary mixtures
Source: J. Chem. Thermodyn., 2011, 10.1016/j.jct.2010.09.004
Compound 1: propane, C3H8, InChI=1S/C3H8/c1-3-2/h3H2,1-2H3, purity 99.5%
Compound 2: carbon dioxide, CO2, InChI=1S/CO2/c2-1-3, purity 99.9%
Compound 3: 2-methylpropane, C4H10, InChI=1S/C4H10/c1-4(2)3/h4H,1-3H3, purity 99.5%

System: propane + carbon dioxide; phases: Liquid, Gas
Property: Vapor or sublimation pressure, kPa (Liquid); method: Closed cell (Static) method
Mole fraction of carbon dioxide	Temperature, K	Vapor or sublimation pressure, kPa	uncertainty
0.074	300	1531	38
0.137	300	2013	37
0.281	300	2920	46
0.472	300	3993	62
0.105	310	2070	42
0.218	310	3023	54
0.35	310	4039	59
0.524	310	5082	68
0.159	320	3001	52
0.268	320	3988	56
0.402	320	4966	60
0.586	320	6096	70
0.215	330	4082	60
0.319	330	4993	65

System: propane + carbon dioxide; phases: Gas, Liquid
Property: Mole fraction of carbon dioxide (Gas); method: Chromatography
Mole fraction of carbon dioxide	Temperature, K	Mole fraction of carbon dioxide	uncertainty
0.074	300	0.306	0.012
0.137	300	0.467	0.009
0.281	300	0.637	0.006
0.472	300	0.745	0.006
0.105	310	0.341	0.009
0.218	310	0.546	0.008
0.35	310	0.655	0.006
0.524	310	0.731	0.005
0.159	320	0.423	0.007
0.268	320	0.547	0.007
0.402	320	0.628	0.007
0.586	320	0.686	0.006
0.215	330	0.449	0.007
0.319	330	0.525	0.007

System: 2-methylpropane + carbon dioxide; phases: Liquid, Gas
Property: Vapor or sublimation pressure, kPa (Liquid); method: Closed cell (Static) method
Mole fraction of carbon dioxide	Temperature, K	Vapor or sublimation pressure, kPa	uncertainty
0.056	300	750	34
0.115	300	1199	32
0.226	300	1933	36
0.456	300	3263	53
0.582	300	3956	61
0.729	300	4911	71
0.019	310	652	38
0.058	310	998	38
0.219	310	2204	41
0.342	310	3029	54
0.466	310	3987	57
0.606	310	4926	65
0.762	310	6007	78
0.013	320	838	36
0.039	320	1028	29
0.151	320	1973	43
0.254	320	2880	48
0.372	320	3929	59
0.515	320	4999	65
0.649	320	5944	74
0.776	320	6967	85
0.019	330	993	46
0.101	330	1903	46
0.219	330	2920	54
0.309	330	3939	57
0.434	330	4912	61
0.569	330	5969	71
0.653	330	6747	83

System: 2-methylpropane + carbon dioxide; phases: Gas, Liquid
Property: Mole fraction of carbon dioxide (Gas); method: Chromatography
Mole fraction of carbon dioxide	Temperature, K	Mole fraction of carbon dioxide	uncertainty
0.056	300	0.478	0.011
0.115	300	0.615	0.009
0.226	300	0.756	0.005
0.456	300	0.861	0.005
0.582	300	0.889	0.004
0.729	300	0.92	0.004
0.019	310	0.201	0.023
0.058	310	0.425	0.025
0.219	310	0.721	0.008
0.342	310	0.794	0.005
0.466	310	0.846	0.005
0.606	310	0.874	0.005
0.762	310	0.901	0.005
0.013	320	0.164	0.027
0.039	320	0.323	0.021
0.151	320	0.614	0.009
0.254	320	0.714	0.006
0.372	320	0.795	0.005
0.515	320	0.817	0.005
0.649	320	0.851	0.005
0.776	320	0.866	0.005
0.019	330	0.135	0.018
0.101	330	0.481	0.013
0.219	330	0.641	0.007
0.309	330	0.728	0.006
0.434	330	0.76	0.005
0.569	330	0.794	0.005
0.653	330	0.806	0.005
