Measured thermophysical data. Vapor-liquid equilibrium and excess properties of the binary mixtures formed by ethyl isobutyrate and n-alkanols
Source: J. Chem. Thermodyn., 2019, 10.1016/j.jct.2019.105884
Compound 1: ethyl 2-methylpropanoate, C6H12O2, InChI=1S/C6H12O2/c1-4-8-6(7)5(2)3/h5H,4H2,1-3H3, purity 99.8%
Compound 2: methanol, CH4O, InChI=1S/CH4O/c1-2/h2H,1H3, purity 99.8%
Compound 3: ethanol, C2H6O, InChI=1S/C2H6O/c1-2-3/h3H,2H2,1H3, purity 99.8%
Compound 4: propan-1-ol, C3H8O, InChI=1S/C3H8O/c1-2-3-4/h4H,2-3H2,1H3, purity 99.8%
Compound 5: butan-1-ol, C4H10O, InChI=1S/C4H10O/c1-2-3-4-5/h5H,2-4H2,1H3, purity 99.9%

System: ethyl 2-methylpropanoate; phases: Liquid
Fixed: Pressure, kPa = 100
Property: Mass density, kg/m3 (Liquid); method: Vibrating tube method
Temperature, K	Mass density, kg/m3	uncertainty
303.15	857.92	0.22
323.15	836.05	0.22

System: ethyl 2-methylpropanoate; phases: Liquid, Gas
Property: Vapor or sublimation pressure, kPa (Liquid); method: Ebulliometric method (Recirculating still)
Temperature, K	Vapor or sublimation pressure, kPa	uncertainty
303.15	4.34	0.213
323.15	11.66	0.245
354.84	40	0.356
383.59	101.325	0.472

System: methanol; phases: Liquid
Fixed: Pressure, kPa = 100
Property: Mass density, kg/m3 (Liquid); method: Vibrating tube method
Temperature, K	Mass density, kg/m3	uncertainty
303.15	781.81	0.23
323.15	762.61	0.23

System: methanol; phases: Liquid, Gas
Property: Vapor or sublimation pressure, kPa (Liquid); method: Ebulliometric method (Recirculating still)
Temperature, K	Vapor or sublimation pressure, kPa	uncertainty
303.15	21.88	0.349
323.15	55.735	0.597
315.81	40	0.388
337.96	101.325	0.648

System: ethanol; phases: Liquid
Fixed: Pressure, kPa = 100
Property: Mass density, kg/m3 (Liquid); method: Vibrating tube method
Temperature, K	Mass density, kg/m3	uncertainty
303.15	780.78	0.23
323.15	763.61	0.23

System: ethanol; phases: Liquid, Gas
Property: Vapor or sublimation pressure, kPa (Liquid); method: Ebulliometric method (Recirculating still)
Temperature, K	Vapor or sublimation pressure, kPa	uncertainty
303.15	10.465	0.277
323.15	29.545	0.294
329.61	40	0.558
351.48	101.325	0.596

System: propan-1-ol; phases: Liquid
Fixed: Pressure, kPa = 100
Property: Mass density, kg/m3 (Liquid); method: Vibrating tube method
Temperature, K	Mass density, kg/m3	uncertainty
303.15	795.53	0.23
323.15	779.09	0.23

System: propan-1-ol; phases: Liquid, Gas
Property: Vapor or sublimation pressure, kPa (Liquid); method: Ebulliometric method (Recirculating still)
Temperature, K	Vapor or sublimation pressure, kPa	uncertainty
303.15	3.8	0.217
323.15	12.185	0.259
347.66	40	0.427
370.21	101.325	0.58

System: butan-1-ol; phases: Liquid
Fixed: Pressure, kPa = 100
Property: Mass density, kg/m3 (Liquid); method: Vibrating tube method
Temperature, K	Mass density, kg/m3	uncertainty
303.15	801.91	0.22
323.15	786.62	0.23

System: butan-1-ol; phases: Liquid, Gas
Property: Vapor or sublimation pressure, kPa (Liquid); method: Ebulliometric method (Recirculating still)
Temperature, K	Vapor or sublimation pressure, kPa	uncertainty
303.15	1.225	0.203
323.15	4.505	0.238
366.8	40	0.337
390.74	101.325	0.55

System: ethyl 2-methylpropanoate + methanol; phases: Liquid
Fixed: Pressure, kPa = 100
Property: Mass density, kg/m3 (Liquid); method: Vibrating tube method
Temperature, K	Mole fraction of ethyl 2-methylpropanoate	Mass density, kg/m3	uncertainty
303.15	0	781.81	0.23
303.15	0.0501	793.58	0.23
303.15	0.1028	803.54	0.23
303.15	0.1996	817.36	0.23
303.15	0.311	828.69	0.22
303.15	0.4038	835.74	0.22
303.15	0.499	841.41	0.22
303.15	0.6099	846.61	0.22
303.15	0.703	850.12	0.22
303.15	0.8056	853.31	0.22
303.15	0.9046	855.88	0.22
303.15	0.9538	856.98	0.22
303.15	1	857.92	0.22
323.15	0	762.61	0.23
323.15	0.0501	773.85	0.23
323.15	0.1028	783.36	0.23
323.15	0.1996	796.63	0.23
323.15	0.311	807.48	0.23
323.15	0.4038	814.25	0.22
323.15	0.499	819.76	0.22
323.15	0.6099	824.84	0.22
323.15	0.703	828.3	0.22
323.15	0.8056	831.44	0.22
323.15	0.9046	833.98	0.22
323.15	0.9538	835.08	0.22
323.15	1	836.05	0.22

System: ethyl 2-methylpropanoate + methanol; phases: Liquid
Fixed: Pressure, kPa = 100
Property: Excess molar enthalpy (molar enthalpy of mixing), kJ/mol (Liquid); method: Calvet calorimetry
Temperature, K	Mole fraction of ethyl 2-methylpropanoate	Excess molar enthalpy (molar enthalpy of mixing), kJ/mol	uncertainty
303.15	0.046	0.11	0.004
303.15	0.094	0.2	0.005
303.15	0.192	0.363	0.006
303.15	0.289	0.488	0.007
303.15	0.383	0.591	0.008
303.15	0.48	0.671	0.009
303.15	0.579	0.715	0.009
303.15	0.677	0.708	0.009
303.15	0.771	0.632	0.009
303.15	0.874	0.454	0.007
303.15	0.925	0.299	0.007
323.15	0.046	0.169	0.007
323.15	0.094	0.32	0.007
323.15	0.192	0.594	0.009
323.15	0.289	0.813	0.011
323.15	0.383	0.985	0.013
323.15	0.48	1.098	0.014
323.15	0.579	1.15	0.015
323.15	0.677	1.112	0.014
323.15	0.771	0.955	0.013
323.15	0.874	0.627	0.011
323.15	0.925	0.399	0.01

System: ethyl 2-methylpropanoate + methanol; phases: Liquid, Gas
Property: Vapor or sublimation pressure, kPa (Liquid); method: Ebulliometric method (Recirculating still)
Mole fraction of ethyl 2-methylpropanoate	Temperature, K	Vapor or sublimation pressure, kPa	uncertainty
0	303.15	21.88	0.409
0.0356	303.15	21.765	0.407
0.0652	303.15	21.675	0.405
0.1073	303.15	21.455	0.405
0.1451	303.15	21.185	0.399
0.1773	303.15	20.975	0.398
0.2225	303.15	20.69	0.392
0.2753	303.15	20.38	0.386
0.3483	303.15	19.82	0.382
0.4369	303.15	19.125	0.373
0.545	303.15	18.075	0.361
0.66	303.15	16.575	0.344
0.7657	303.15	14.445	0.329
0.8563	303.15	11.71	0.312
0.9048	303.15	9.715	0.308
0.9503	303.15	7.44	0.325
0.9741	303.15	6.025	0.34
1	303.15	4.34	0.219
0	323.15	55.735	0.457
0.041	323.15	55.35	0.457
0.0804	323.15	54.915	0.456
0.1611	323.15	53.645	0.45
0.2282	323.15	52.51	0.443
0.2947	323.15	51.31	0.436
0.3442	323.15	50.425	0.43
0.4304	323.15	48.695	0.421
0.4996	323.15	47.025	0.41
0.5405	323.15	45.96	0.411
0.5891	323.15	44.53	0.416
0.6697	323.15	41.65	0.41
0.7711	323.15	36.535	0.403
0.8095	323.15	33.985	0.456
0.8637	323.15	29.535	0.504
0.9408	323.15	20.89	0.548
0.9751	323.15	15.845	0.666
1	323.15	11.66	0.226

System: ethyl 2-methylpropanoate + methanol; phases: Gas, Liquid
Property: Mole fraction of ethyl 2-methylpropanoate (Gas); method: Density calibration data
Mole fraction of ethyl 2-methylpropanoate	Temperature, K	Mole fraction of ethyl 2-methylpropanoate	uncertainty
0	303.15	0	
0.0356	303.15	0.0321	0.0049
0.0652	303.15	0.0455	0.0044
0.1073	303.15	0.0634	0.0044
0.1451	303.15	0.0775	0.0044
0.1773	303.15	0.0867	0.0043
0.2225	303.15	0.0992	0.0044
0.2753	303.15	0.1139	0.0044
0.3483	303.15	0.1262	0.0044
0.4369	303.15	0.1429	0.0046
0.545	303.15	0.1663	0.0048
0.66	303.15	0.2034	0.0051
0.7657	303.15	0.2487	0.0058
0.8563	303.15	0.3195	0.0075
0.9048	303.15	0.4089	0.0123
0.9503	303.15	0.5558	0.0183
0.9741	303.15	0.7092	0.0363
1	303.15	1	
0	323.15	0	
0.041	323.15	0.0294	0.0048
0.0804	323.15	0.0513	0.0044
0.1611	323.15	0.084	0.0044
0.2282	323.15	0.1016	0.0044
0.2947	323.15	0.1205	0.0045
0.3442	323.15	0.1322	0.0045
0.4304	323.15	0.1525	0.0046
0.4996	323.15	0.1678	0.0048
0.5405	323.15	0.181	0.0049
0.5891	323.15	0.1905	0.005
0.6697	323.15	0.2175	0.0054
0.7711	323.15	0.271	0.006
0.8095	323.15	0.2955	0.007
0.8637	323.15	0.3606	0.0097
0.9408	323.15	0.5266	0.0143
0.9751	323.15	0.7126	0.0319
1	323.15	1	

System: ethyl 2-methylpropanoate + methanol; phases: Liquid, Gas
Property: Boiling temperature at pressure P, K (Liquid); method: Ebulliometric method (Recirculating still)
Mole fraction of ethyl 2-methylpropanoate	Pressure, kPa	Boiling temperature at pressure P, K	uncertainty
0	40	315.81	0.23
0.0734	40	316.2	0.23
0.1117	40	316.37	0.23
0.1655	40	316.72	0.24
0.2197	40	317.13	0.24
0.2629	40	317.51	0.24
0.3259	40	318.01	0.24
0.3487	40	318.24	0.24
0.3889	40	318.63	0.24
0.468	40	319.55	0.24
0.5906	40	321.35	0.25
0.6493	40	322.44	0.26
0.7783	40	326.52	0.28
0.8405	40	329.97	0.37
0.8953	40	334.63	0.5
0.9463	40	341.55	0.81
1	40	354.84	0.25
0	101.325	337.96	0.27
0.0734	101.325	338.29	0.27
0.1097	101.325	338.5	0.27
0.1672	101.325	338.94	0.27
0.2137	101.325	339.43	0.27
0.2706	101.325	340.01	0.27
0.3276	101.325	340.56	0.27
0.409	101.325	341.47	0.27
0.4953	101.325	342.89	0.28
0.6027	101.325	345.01	0.29
0.6345	101.325	345.84	0.3
0.6946	101.325	347.61	0.31
0.7667	101.325	350.47	0.35
0.8328	101.325	354.59	0.46
0.9148	101.325	363.47	0.6
0.9569	101.325	371.12	0.99
1	101.325	383.59	0.3

System: ethyl 2-methylpropanoate + methanol; phases: Gas, Liquid
Property: Mole fraction of ethyl 2-methylpropanoate (Gas); method: Density calibration data
Mole fraction of ethyl 2-methylpropanoate	Pressure, kPa	Mole fraction of ethyl 2-methylpropanoate	uncertainty
0	40	0	
0.0734	40	0.0528	0.0047
0.1117	40	0.0662	0.0044
0.1655	40	0.0869	0.0044
0.2197	40	0.1004	0.0044
0.2629	40	0.1107	0.0044
0.3259	40	0.125	0.0044
0.3487	40	0.1271	0.0044
0.3889	40	0.1342	0.0045
0.468	40	0.1557	0.0047
0.5906	40	0.1866	0.0049
0.6493	40	0.2029	0.0053
0.7783	40	0.2788	0.0063
0.8405	40	0.3427	0.0082
0.8953	40	0.4314	0.012
0.9463	40	0.5944	0.0229
1	40	1	
0	101.325	0	
0.0734	101.325	0.0532	0.0047
0.1097	101.325	0.0641	0.0043
0.1672	101.325	0.0844	0.0044
0.2137	101.325	0.0975	0.0044
0.2706	101.325	0.1128	0.0044
0.3276	101.325	0.1247	0.0044
0.409	101.325	0.1407	0.0046
0.4953	101.325	0.1682	0.0048
0.6027	101.325	0.1996	0.005
0.6345	101.325	0.2079	0.0051
0.6946	101.325	0.2304	0.0056
0.7667	101.325	0.2783	0.0065
0.8328	101.325	0.345	0.0088
0.9148	101.325	0.503	0.0129
0.9569	101.325	0.6695	0.0242
1	101.325	1	

System: ethyl 2-methylpropanoate + ethanol; phases: Liquid
Fixed: Pressure, kPa = 100
Property: Mass density, kg/m3 (Liquid); method: Vibrating tube method
Temperature, K	Mole fraction of ethyl 2-methylpropanoate	Mass density, kg/m3	uncertainty
303.15	0	780.78	0.23
303.15	0.0519	789.31	0.23
303.15	0.0865	794.4	0.23
303.15	0.1972	808.19	0.23
303.15	0.2954	818.04	0.22
303.15	0.3959	826.46	0.22
303.15	0.4964	833.64	0.22
303.15	0.6052	840.31	0.22
303.15	0.6952	845.11	0.22
303.15	0.7995	850.04	0.22
303.15	0.8912	853.89	0.22
303.15	0.9505	856.15	0.22
303.15	1	857.92	0.22
323.15	0	763.61	0.23
323.15	0.0519	771.56	0.23
323.15	0.0865	776.29	0.23
323.15	0.1972	789.09	0.23
323.15	0.2954	798.21	0.23
323.15	0.3959	806.06	0.23
323.15	0.4964	812.82	0.22
323.15	0.6052	819.1	0.22
323.15	0.6952	823.67	0.22
323.15	0.7995	828.38	0.22
323.15	0.8912	832.07	0.22
323.15	0.9505	834.28	0.22
323.15	1	836.05	0.22

System: ethyl 2-methylpropanoate + ethanol; phases: Liquid
Fixed: Pressure, kPa = 100
Property: Excess molar enthalpy (molar enthalpy of mixing), kJ/mol (Liquid); method: Calvet calorimetry
Temperature, K	Mole fraction of ethyl 2-methylpropanoate	Excess molar enthalpy (molar enthalpy of mixing), kJ/mol	uncertainty
303.15	0.046	0.194	0.008
303.15	0.094	0.371	0.008
303.15	0.191	0.671	0.01
303.15	0.291	0.905	0.012
303.15	0.388	1.067	0.014
303.15	0.491	1.172	0.015
303.15	0.592	1.195	0.015
303.15	0.689	1.137	0.015
303.15	0.796	0.931	0.013
303.15	0.899	0.566	0.011
303.15	0.946	0.326	0.011
323.15	0.046	0.229	0.009
323.15	0.094	0.438	0.01
323.15	0.191	0.791	0.012
323.15	0.291	1.07	0.014
323.15	0.388	1.26	0.016
323.15	0.491	1.377	0.017
323.15	0.592	1.392	0.017
323.15	0.689	1.293	0.017
323.15	0.796	1.061	0.015
323.15	0.899	0.643	0.012
323.15	0.946	0.366	0.013

System: ethyl 2-methylpropanoate + ethanol; phases: Liquid, Gas
Property: Vapor or sublimation pressure, kPa (Liquid); method: Ebulliometric method (Recirculating still)
Mole fraction of ethyl 2-methylpropanoate	Temperature, K	Vapor or sublimation pressure, kPa	uncertainty
0	303.15	10.465	0.286
0.0369	303.15	10.65	0.287
0.0736	303.15	10.815	0.286
0.1589	303.15	10.895	0.284
0.1988	303.15	10.825	0.283
0.2311	303.15	10.785	0.283
0.3183	303.15	10.67	0.28
0.3745	303.15	10.495	0.277
0.4368	303.15	10.36	0.273
0.4983	303.15	10.2	0.272
0.5355	303.15	9.915	0.269
0.5804	303.15	9.735	0.269
0.6634	303.15	9.27	0.26
0.702	303.15	8.905	0.261
0.7951	303.15	8.015	0.249
0.8634	303.15	7.1	0.245
0.925	303.15	6.03	0.239
0.9668	303.15	5.115	0.243
1	303.15	4.34	0.219
0	323.15	29.545	0.31
0.0238	323.15	29.66	0.31
0.0745	323.15	29.81	0.31
0.1107	323.15	29.805	0.31
0.1596	323.15	29.645	0.308
0.2123	323.15	29.4	0.308
0.2855	323.15	28.935	0.304
0.3151	323.15	28.725	0.304
0.3899	323.15	28.12	0.302
0.4598	323.15	27.455	0.299
0.4939	323.15	27.07	0.297
0.5617	323.15	26.18	0.293
0.6252	323.15	25.145	0.289
0.6866	323.15	23.925	0.289
0.7521	323.15	22.415	0.286
0.8237	323.15	20.21	0.294
0.8796	323.15	18.09	0.308
0.9588	323.15	14.22	0.315
1	323.15	11.66	0.226

System: ethyl 2-methylpropanoate + ethanol; phases: Gas, Liquid
Property: Mole fraction of ethyl 2-methylpropanoate (Gas); method: Density calibration data
Mole fraction of ethyl 2-methylpropanoate	Temperature, K	Mole fraction of ethyl 2-methylpropanoate	uncertainty
0	303.15	0	
0.0369	303.15	0.0464	0.0062
0.0736	303.15	0.0851	0.0055
0.1589	303.15	0.1564	0.0055
0.1988	303.15	0.1799	0.005
0.2311	303.15	0.185	0.0049
0.3183	303.15	0.2157	0.0052
0.3745	303.15	0.2358	0.0054
0.4368	303.15	0.2607	0.0056
0.4983	303.15	0.2778	0.0058
0.5355	303.15	0.2982	0.0059
0.5804	303.15	0.3016	0.0061
0.6634	303.15	0.3475	0.0067
0.702	303.15	0.3701	0.0073
0.7951	303.15	0.4454	0.0085
0.8634	303.15	0.5386	0.0103
0.925	303.15	0.6712	0.0124
0.9668	303.15	0.8215	0.018
1	303.15	1	
0	323.15	0	
0.0238	323.15	0.0281	0.0056
0.0745	323.15	0.0748	0.0054
0.1107	323.15	0.1018	0.005
0.1596	323.15	0.1313	0.005
0.2123	323.15	0.1616	0.0051
0.2855	323.15	0.1982	0.0052
0.3151	323.15	0.2069	0.0053
0.3899	323.15	0.2426	0.0055
0.4598	323.15	0.2647	0.0056
0.4939	323.15	0.2783	0.0058
0.5617	323.15	0.3017	0.0061
0.6252	323.15	0.3395	0.0067
0.6866	323.15	0.3767	0.0071
0.7521	323.15	0.413	0.0079
0.8237	323.15	0.4952	0.0095
0.8796	323.15	0.572	0.0114
0.9588	323.15	0.7864	0.0147
1	323.15	1	

System: ethyl 2-methylpropanoate + ethanol; phases: Liquid, Gas
Property: Boiling temperature at pressure P, K (Liquid); method: Ebulliometric method (Recirculating still)
Mole fraction of ethyl 2-methylpropanoate	Pressure, kPa	Boiling temperature at pressure P, K	uncertainty
0	40	329.61	0.23
0.0056	40	329.64	0.23
0.0295	40	329.58	0.23
0.0685	40	329.56	0.23
0.092	40	329.6	0.23
0.1234	40	329.63	0.23
0.1465	40	329.71	0.23
0.1824	40	329.87	0.24
0.2141	40	330.01	0.24
0.2557	40	330.23	0.24
0.3148	40	330.62	0.24
0.3911	40	331.21	0.24
0.5124	40	332.44	0.24
0.6066	40	333.74	0.25
0.7409	40	336.41	0.26
0.7775	40	337.44	0.28
0.8496	40	340.39	0.34
0.947	40	347.39	0.45
1	40	354.84	0.25
0	101.325	351.48	0.26
0.0102	101.325	351.6	0.27
0.035	101.325	351.61	0.27
0.0705	101.325	351.7	0.27
0.0978	101.325	351.83	0.27
0.1237	101.325	351.99	0.27
0.1462	101.325	352.12	0.27
0.185	101.325	352.42	0.27
0.2157	101.325	352.62	0.27
0.2662	101.325	353.01	0.27
0.3145	101.325	353.59	0.27
0.389	101.325	354.41	0.28
0.5085	101.325	355.84	0.28
0.6309	101.325	358.26	0.29
0.7317	101.325	361.07	0.31
0.7944	101.325	363.1	0.35
0.8727	101.325	368.24	0.44
0.9611	101.325	376.83	0.56
1	101.325	383.59	0.3

System: ethyl 2-methylpropanoate + ethanol; phases: Gas, Liquid
Property: Mole fraction of ethyl 2-methylpropanoate (Gas); method: Density calibration data
Mole fraction of ethyl 2-methylpropanoate	Pressure, kPa	Mole fraction of ethyl 2-methylpropanoate	uncertainty
0	40	0	
0.0056	40	0.007	0.0064
0.0295	40	0.031	0.0055
0.0685	40	0.0661	0.0054
0.092	40	0.0844	0.0051
0.1234	40	0.1056	0.005
0.1465	40	0.1187	0.0049
0.1824	40	0.1389	0.0049
0.2141	40	0.1548	0.0049
0.2557	40	0.1725	0.005
0.3148	40	0.2013	0.0052
0.3911	40	0.2269	0.0053
0.5124	40	0.2728	0.0058
0.6066	40	0.3161	0.0065
0.7409	40	0.4085	0.0076
0.7775	40	0.4331	0.0083
0.8496	40	0.5095	0.0106
0.947	40	0.7242	0.0137
1	40	1	
0	101.325	0	
0.0102	101.325	0.0086	0.0053
0.035	101.325	0.0308	0.0053
0.0705	101.325	0.0598	0.0051
0.0978	101.325	0.0772	0.0048
0.1237	101.325	0.0924	0.0048
0.1462	101.325	0.1041	0.0047
0.185	101.325	0.1229	0.0048
0.2157	101.325	0.1369	0.0048
0.2662	101.325	0.1609	0.0049
0.3145	101.325	0.1798	0.005
0.389	101.325	0.2121	0.0053
0.5085	101.325	0.2604	0.0058
0.6309	101.325	0.3247	0.0065
0.7317	101.325	0.3872	0.0073
0.7944	101.325	0.4397	0.009
0.8727	101.325	0.5678	0.0113
0.9611	101.325	0.7979	0.0139
1	101.325	1	

System: ethyl 2-methylpropanoate + propan-1-ol; phases: Liquid
Fixed: Pressure, kPa = 100
Property: Mass density, kg/m3 (Liquid); method: Vibrating tube method
Temperature, K	Mole fraction of ethyl 2-methylpropanoate	Mass density, kg/m3	uncertainty
303.15	0	795.53	0.23
303.15	0.0528	801.11	0.23
303.15	0.1073	806.38	0.23
303.15	0.2033	814.65	0.22
303.15	0.2978	821.83	0.22
303.15	0.3984	828.64	0.22
303.15	0.502	834.96	0.22
303.15	0.603	840.51	0.22
303.15	0.704	845.54	0.22
303.15	0.8014	849.97	0.22
303.15	0.9021	854.16	0.22
303.15	0.9546	856.21	0.22
303.15	1	857.92	0.22
323.15	0	779.09	0.23
323.15	0.0528	784.12	0.23
323.15	0.1073	788.85	0.23
323.15	0.2033	796.29	0.23
323.15	0.2978	802.76	0.23
323.15	0.3984	808.96	0.23
323.15	0.502	814.72	0.22
323.15	0.603	819.8	0.22
323.15	0.704	824.42	0.22
323.15	0.8014	828.53	0.22
323.15	0.9021	832.43	0.22
323.15	0.9546	834.37	0.22
323.15	1	836.05	0.22

System: ethyl 2-methylpropanoate + propan-1-ol; phases: Liquid
Fixed: Pressure, kPa = 100
Property: Excess molar enthalpy (molar enthalpy of mixing), kJ/mol (Liquid); method: Calvet calorimetry
Temperature, K	Mole fraction of ethyl 2-methylpropanoate	Excess molar enthalpy (molar enthalpy of mixing), kJ/mol	uncertainty
303.15	0.045	0.217	0.009
303.15	0.094	0.42	0.009
303.15	0.192	0.754	0.011
303.15	0.289	1.008	0.014
303.15	0.389	1.206	0.016
303.15	0.488	1.318	0.017
303.15	0.592	1.331	0.017
303.15	0.691	1.24	0.016
303.15	0.792	1.018	0.014
303.15	0.894	0.62	0.012
303.15	0.946	0.338	0.012
323.15	0.045	0.249	0.01
323.15	0.094	0.485	0.011
323.15	0.192	0.887	0.013
323.15	0.289	1.186	0.016
323.15	0.389	1.397	0.018
323.15	0.488	1.518	0.019
323.15	0.592	1.526	0.019
323.15	0.691	1.405	0.018
323.15	0.792	1.138	0.016
323.15	0.894	0.691	0.013
323.15	0.946	0.378	0.013

System: ethyl 2-methylpropanoate + propan-1-ol; phases: Liquid, Gas
Property: Vapor or sublimation pressure, kPa (Liquid); method: Ebulliometric method (Recirculating still)
Mole fraction of ethyl 2-methylpropanoate	Temperature, K	Vapor or sublimation pressure, kPa	uncertainty
0	303.15	3.8	0.222
0.0395	303.15	4.13	0.226
0.0866	303.15	4.425	0.226
0.1715	303.15	4.76	0.228
0.231	303.15	4.935	0.228
0.2784	303.15	5.105	0.228
0.3498	303.15	5.16	0.229
0.4171	303.15	5.215	0.229
0.4639	303.15	5.24	0.229
0.5352	303.15	5.235	0.229
0.5959	303.15	5.22	0.228
0.7189	303.15	5.12	0.226
0.7583	303.15	5.01	0.226
0.8195	303.15	4.965	0.225
0.8956	303.15	4.765	0.223
0.9345	303.15	4.625	0.222
1	303.15	4.34	0.219
0	323.15	12.185	0.231
0.0374	323.15	12.805	0.24
0.074	323.15	13.315	0.238
0.1571	323.15	14.085	0.238
0.2432	323.15	14.535	0.239
0.2705	323.15	14.635	0.238
0.3221	323.15	14.775	0.239
0.3748	323.15	14.875	0.239
0.4316	323.15	14.925	0.239
0.5045	323.15	14.895	0.239
0.579	323.15	14.775	0.238
0.6461	323.15	14.585	0.238
0.7268	323.15	14.245	0.237
0.8001	323.15	13.79	0.235
0.8732	323.15	13.225	0.234
0.9424	323.15	12.45	0.234
1	323.15	11.66	0.226

System: ethyl 2-methylpropanoate + propan-1-ol; phases: Gas, Liquid
Property: Mole fraction of ethyl 2-methylpropanoate (Gas); method: Density calibration data
Mole fraction of ethyl 2-methylpropanoate	Temperature, K	Mole fraction of ethyl 2-methylpropanoate	uncertainty
0	303.15	0	
0.0395	303.15	0.1092	0.0104
0.0866	303.15	0.2051	0.0077
0.1715	303.15	0.3068	0.0073
0.231	303.15	0.3611	0.0074
0.2784	303.15	0.4024	0.0076
0.3498	303.15	0.4468	0.0078
0.4171	303.15	0.4807	0.0082
0.4639	303.15	0.5096	0.0083
0.5352	303.15	0.5433	0.0079
0.5959	303.15	0.5773	0.0076
0.7189	303.15	0.6526	0.0068
0.7583	303.15	0.6751	0.007
0.8195	303.15	0.7357	0.007
0.8956	303.15	0.8234	0.0069
0.9345	303.15	0.8813	0.0081
1	303.15	1	
0	323.15	0	
0.0374	323.15	0.0789	0.0087
0.074	323.15	0.1407	0.0072
0.1571	323.15	0.2481	0.0068
0.2432	323.15	0.3193	0.0069
0.2705	323.15	0.3387	0.0069
0.3221	323.15	0.3766	0.0073
0.3748	323.15	0.4125	0.0074
0.4316	323.15	0.4363	0.0077
0.5045	323.15	0.4848	0.0083
0.579	323.15	0.5259	0.0083
0.6461	323.15	0.5756	0.0078
0.7268	323.15	0.6319	0.0073
0.8001	323.15	0.6971	0.0072
0.8732	323.15	0.7864	0.0073
0.9424	323.15	0.8875	0.008
1	323.15	1	

System: ethyl 2-methylpropanoate + propan-1-ol; phases: Liquid, Gas
Property: Boiling temperature at pressure P, K (Liquid); method: Ebulliometric method (Recirculating still)
Mole fraction of ethyl 2-methylpropanoate	Pressure, kPa	Boiling temperature at pressure P, K	uncertainty
0	40	347.66	0.23
0.0221	40	347.31	0.24
0.0633	40	346.74	0.24
0.1141	40	346.28	0.24
0.1641	40	345.94	0.24
0.2075	40	345.73	0.24
0.2604	40	345.6	0.24
0.3164	40	345.56	0.24
0.3744	40	345.58	0.24
0.4198	40	345.66	0.24
0.4846	40	345.85	0.24
0.5358	40	346.12	0.24
0.5792	40	346.3	0.25
0.6635	40	347.18	0.25
0.7399	40	347.95	0.25
0.8216	40	349.16	0.26
0.8988	40	350.92	0.27
0.9485	40	352.42	0.3
1	40	354.84	0.25
0	101.325	370.21	0.27
0.0316	101.325	370.07	0.27
0.0639	101.325	369.92	0.27
0.1131	101.325	369.69	0.27
0.1666	101.325	369.56	0.27
0.2079	101.325	369.54	0.28
0.2609	101.325	369.67	0.28
0.3201	101.325	369.91	0.28
0.3777	101.325	370.15	0.28
0.4217	101.325	370.42	0.28
0.4829	101.325	370.8	0.28
0.5299	101.325	371.11	0.29
0.5835	101.325	371.86	0.29
0.6601	101.325	372.89	0.29
0.7419	101.325	374.16	0.3
0.8092	101.325	375.42	0.3
0.8654	101.325	376.9	0.33
0.9483	101.325	380.66	0.36
1	101.325	383.59	0.3

System: ethyl 2-methylpropanoate + propan-1-ol; phases: Gas, Liquid
Property: Mole fraction of ethyl 2-methylpropanoate (Gas); method: Density calibration data
Mole fraction of ethyl 2-methylpropanoate	Pressure, kPa	Mole fraction of ethyl 2-methylpropanoate	uncertainty
0	40	0	
0.0221	40	0.034	0.0073
0.0633	40	0.0963	0.0068
0.1141	40	0.1567	0.0063
0.1641	40	0.2052	0.0062
0.2075	40	0.2431	0.0062
0.2604	40	0.284	0.0064
0.3164	40	0.3217	0.0066
0.3744	40	0.3583	0.0069
0.4198	40	0.3863	0.0072
0.4846	40	0.4257	0.0076
0.5358	40	0.455	0.008
0.5792	40	0.4881	0.0084
0.6635	40	0.5378	0.0082
0.7399	40	0.605	0.008
0.8216	40	0.694	0.0075
0.8988	40	0.787	0.0076
0.9485	40	0.8772	0.0095
1	40	1	
0	101.325	0	
0.0316	101.325	0.0418	0.0063
0.0639	101.325	0.078	0.0059
0.1131	101.325	0.1262	0.0058
0.1666	101.325	0.1744	0.0058
0.2079	101.325	0.2054	0.0057
0.2609	101.325	0.2435	0.0059
0.3201	101.325	0.2809	0.0062
0.3777	101.325	0.3194	0.0066
0.4217	101.325	0.3461	0.0068
0.4829	101.325	0.3861	0.0072
0.5299	101.325	0.4111	0.0076
0.5835	101.325	0.4544	0.0082
0.6601	101.325	0.5086	0.0086
0.7419	101.325	0.5778	0.0081
0.8092	101.325	0.6469	0.0079
0.8654	101.325	0.7199	0.0089
0.9483	101.325	0.8819	0.0093
1	101.325	1	

System: ethyl 2-methylpropanoate + butan-1-ol; phases: Liquid
Fixed: Pressure, kPa = 100
Property: Mass density, kg/m3 (Liquid); method: Vibrating tube method
Temperature, K	Mole fraction of ethyl 2-methylpropanoate	Mass density, kg/m3	uncertainty
303.15	0	801.91	0.22
303.15	0.0461	805.51	0.22
303.15	0.1084	810.12	0.22
303.15	0.2062	816.8	0.22
303.15	0.2976	822.62	0.22
303.15	0.4024	828.87	0.22
303.15	0.5081	834.78	0.22
303.15	0.616	840.42	0.22
303.15	0.7116	845.13	0.22
303.15	0.8062	849.55	0.22
303.15	0.9025	853.81	0.22
303.15	0.9454	855.63	0.22
303.15	1	857.92	0.22
323.15	0	786.62	0.23
323.15	0.0461	789.73	0.23
323.15	0.1084	793.71	0.23
323.15	0.2062	799.53	0.23
323.15	0.2976	804.59	0.22
323.15	0.4024	810.11	0.22
323.15	0.5081	815.33	0.22
323.15	0.616	820.31	0.22
323.15	0.7116	824.48	0.22
323.15	0.8062	828.41	0.22
323.15	0.9025	832.23	0.22
323.15	0.9454	833.92	0.22
323.15	1	836.05	0.22

System: ethyl 2-methylpropanoate + butan-1-ol; phases: Liquid
Fixed: Pressure, kPa = 100
Property: Excess molar enthalpy (molar enthalpy of mixing), kJ/mol (Liquid); method: Calvet calorimetry
Temperature, K	Mole fraction of ethyl 2-methylpropanoate	Excess molar enthalpy (molar enthalpy of mixing), kJ/mol	uncertainty
303.15	0.043	0.233	0.01
303.15	0.093	0.456	0.01
303.15	0.19	0.819	0.012
303.15	0.291	1.096	0.015
303.15	0.389	1.289	0.016
303.15	0.488	1.395	0.018
303.15	0.59	1.414	0.018
303.15	0.691	1.331	0.017
303.15	0.793	1.087	0.015
303.15	0.897	0.664	0.013
303.15	0.95	0.352	0.013
323.15	0.043	0.258	0.01
323.15	0.093	0.504	0.011
323.15	0.19	0.908	0.014
323.15	0.291	1.227	0.016
323.15	0.389	1.437	0.018
323.15	0.488	1.549	0.019
323.15	0.59	1.559	0.02
323.15	0.691	1.442	0.018
323.15	0.793	1.173	0.016
323.15	0.897	0.71	0.013
323.15	0.95	0.386	0.013

System: ethyl 2-methylpropanoate + butan-1-ol; phases: Gas, Liquid
Property: Mole fraction of ethyl 2-methylpropanoate (Gas); method: Density calibration data
Mole fraction of ethyl 2-methylpropanoate	Temperature, K	Mole fraction of ethyl 2-methylpropanoate	uncertainty
0	303.15	0	
0.0386	303.15	0.2489	0.0224
0.0694	303.15	0.3737	0.0137
0.1189	303.15	0.4929	0.0109
0.1786	303.15	0.5743	0.0086
0.2562	303.15	0.6475	0.0072
0.349	303.15	0.7106	0.0062
0.4203	303.15	0.743	0.0057
0.4597	303.15	0.7582	0.0055
0.558	303.15	0.7969	0.0052
0.6363	303.15	0.8215	0.005
0.7086	303.15	0.8539	0.0048
0.8124	303.15	0.8962	0.0046
0.895	303.15	0.9312	0.0045
0.9517	303.15	0.9618	0.0048
1	303.15	1	
0	323.15	0	
0.0415	323.15	0.1938	0.0161
0.0839	323.15	0.321	0.0115
0.1328	323.15	0.4161	0.0099
0.1738	323.15	0.4724	0.0093
0.2315	323.15	0.5377	0.0087
0.2929	323.15	0.5901	0.0079
0.3508	323.15	0.6386	0.0072
0.4063	323.15	0.6716	0.0066
0.7228	323.15	0.8222	0.0052
0.8003	323.15	0.8622	0.005
0.8965	323.15	0.9226	0.0048
0.9512	323.15	0.9552	0.005
1	323.15	1	

System: ethyl 2-methylpropanoate + butan-1-ol; phases: Liquid, Gas
Property: Vapor or sublimation pressure, kPa (Liquid); method: Ebulliometric method (Recirculating still)
Mole fraction of ethyl 2-methylpropanoate	Temperature, K	Vapor or sublimation pressure, kPa	uncertainty
0	303.15	1.225	0.207
0.0386	303.15	1.585	0.211
0.0694	303.15	1.84	0.21
0.1189	303.15	2.1	0.211
0.1786	303.15	2.48	0.212
0.2562	303.15	2.825	0.212
0.349	303.15	3.125	0.214
0.4203	303.15	3.285	0.215
0.4597	303.15	3.405	0.215
0.558	303.15	3.605	0.215
0.6363	303.15	3.755	0.217
0.7086	303.15	3.85	0.218
0.8124	303.15	4.045	0.218
0.895	303.15	4.185	0.219
0.9517	303.15	4.3	0.219
1	303.15	4.34	0.219
0	323.15	4.505	0.209
0.0415	323.15	5.305	0.223
0.0839	323.15	6.055	0.222
0.1328	323.15	6.805	0.221
0.1738	323.15	7.315	0.219
0.2315	323.15	7.905	0.22
0.2929	323.15	8.555	0.22
0.3508	323.15	9.015	0.221
0.4063	323.15	9.375	0.222
0.7228	323.15	10.865	0.225
0.8003	323.15	11.13	0.225
0.8965	323.15	11.44	0.226
0.9512	323.15	11.535	0.226
1	323.15	11.66	0.226

System: ethyl 2-methylpropanoate + butan-1-ol; phases: Liquid, Gas
Property: Boiling temperature at pressure P, K (Liquid); method: Ebulliometric method (Recirculating still)
Mole fraction of ethyl 2-methylpropanoate	Pressure, kPa	Boiling temperature at pressure P, K	uncertainty
0	40	366.8	0.24
0.0737	40	364.76	0.27
0.1035	40	363.4	0.27
0.1719	40	361.75	0.26
0.2528	40	360.13	0.26
0.3083	40	359.15	0.25
0.4238	40	357.49	0.25
0.5038	40	356.58	0.25
0.596	40	355.83	0.25
0.6759	40	355.27	0.25
0.7601	40	354.66	0.25
0.8573	40	354.45	0.25
0.9344	40	354.62	0.25
0.9682	40	354.57	0.25
1	40	354.84	0.25
0	101.325	390.74	0.28
0.0653	101.325	389.38	0.29
0.0998	101.325	388.35	0.29
0.1802	101.325	386.84	0.29
0.2513	101.325	385.68	0.29
0.3182	101.325	385.1	0.29
0.4215	101.325	384.02	0.29
0.5116	101.325	383.4	0.29
0.5893	101.325	383.07	0.29
0.6827	101.325	382.81	0.3
0.7591	101.325	382.54	0.3
0.8571	101.325	382.49	0.3
0.903	101.325	382.7	0.3
0.9664	101.325	383	0.3
1	101.325	383.59	0.3

System: ethyl 2-methylpropanoate + butan-1-ol; phases: Gas, Liquid
Property: Mole fraction of ethyl 2-methylpropanoate (Gas); method: Density calibration data
Mole fraction of ethyl 2-methylpropanoate	Pressure, kPa	Mole fraction of ethyl 2-methylpropanoate	uncertainty
0	40	0	
0.0737	40	0.1545	0.0094
0.1035	40	0.2114	0.0084
0.1719	40	0.3229	0.0083
0.2528	40	0.422	0.0086
0.3083	40	0.4804	0.0087
0.4238	40	0.581	0.0078
0.5038	40	0.633	0.0072
0.596	40	0.7015	0.0065
0.6759	40	0.7509	0.0059
0.7601	40	0.8004	0.0055
0.8573	40	0.8643	0.0052
0.9344	40	0.9208	0.0054
0.9682	40	0.9635	0.0063
1	40	1	
0	101.325	0	
0.0653	101.325	0.1094	0.0081
0.0998	101.325	0.173	0.0075
0.1802	101.325	0.2817	0.0075
0.2513	101.325	0.3622	0.0076
0.3182	101.325	0.4193	0.0079
0.4215	101.325	0.5007	0.0088
0.5116	101.325	0.5806	0.0079
0.5893	101.325	0.637	0.0072
0.6827	101.325	0.7054	0.0066
0.7591	101.325	0.7671	0.0062
0.8571	101.325	0.8547	0.0057
0.903	101.325	0.8929	0.0058
0.9664	101.325	0.9624	0.006
1	101.325	1	
