Measured thermophysical data. Thermodynamics of 1,4-diisocyanatobutane in the range from T (0 to 360) K at standard pressure
Source: J. Chem. Thermodyn., 2006, 10.1016/j.jct.2005.06.002
Compound 1: carbon dioxide, CO2, InChI=1S/CO2/c2-1-3
Compound 2: nitrogen, N2, InChI=1S/N2/c1-2
Compound 3: water, H2O, InChI=1S/H2O/h1H2
Compound 4: oxygen, O2, InChI=1S/O2/c1-2
Compound 5: 1,4-diisocyanatobutane, C6H8N2O2, InChI=1S/C6H8N2O2/c9-5-7-3-1-2-4-8-6-10/h1-4H2

System: 1,4-diisocyanatobutane; phases: Crystal, Liquid, Gas
Property: Molar enthalpy of transition or fusion, kJ/mol (Crystal); method: Adiabatic calorimetry
Molar enthalpy of transition or fusion, kJ/mol	uncertainty
20.76	0.1

System: 1,4-diisocyanatobutane; phases: Crystal, Liquid, Gas
Property: Triple point temperature, K (Crystal); method: Adiabatic calorimetry
Triple point temperature, K	uncertainty
231.22	0.07

System: 1,4-diisocyanatobutane; phases: Crystal
Fixed: Pressure, kPa = 101.325
Property: Molar heat capacity at constant pressure, J/K/mol (Crystal); method: SMALLAD:UFactor:2
Temperature, K	Molar heat capacity at constant pressure, J/K/mol	uncertainty
8.04	0.71	0.06
8.64	0.9	0.07
9.17	1.07	0.08
9.68	1.29	0.08
10.2	1.5	0.09
10.71	1.72	0.09
11.21	1.95	0.1
11.71	2.15	0.11
12.21	2.39	0.11
12.85	2.76	0.12
13.6	3.21	0.13
14.32	3.91	0.15
15.03	5.01	0.18
15.81	6.05	0.21
16.57	6.97	0.23
17.45	8.05	0.25
18.21	9.06	0.27
18.99	10.13	0.29
19.75	11.24	0.31
21.58	13.78	0.35
24.04	17.48	0.4
26.5	21.43	0.44
28.99	25.36	0.47
31.5	29.02	0.49
34.03	32.67	0.53
36.55	36.32	0.56
39.07	39.93	0.6
41.59	43.38	0.63
44.12	46.64	0.67
46.65	49.83	0.7
49.17	52.9	0.73
51.69	56.03	0.76
54.2	59.08	0.79
56.71	62.01	0.82
59.22	64.23	0.84
62.2	67	0.87
64.3	69.9	0.9
66.8	71.03	0.91
69.29	74.03	0.94
71.8	75.6	0.96
74.32	77.9	0.98
76.83	79.7	1
79.33	81.9	1.02
81.64	83.31	1.03
81.82	83.72	1.04
83.63	84.3	1.04
84.3	83.31	1.03
86.11	85.88	1.06
86.79	85.97	1.06
88.6	87.3	1.07
89.27	87.71	1.08
91.08	88.96	1.11
91.75	88.79	1.11
93.55	90.46	1.12
96.03	91.95	1.14
98.5	93.28	1.15
100.97	94.7	1.16
103.44	96.19	1.17
105.91	97.61	1.18
108.37	98.94	1.19
110.83	100.27	1.2
113.3	101.6	1.21
115.75	102.93	1.22
118.21	104.17	1.23
120.7	105.59	1.24
123.15	106.83	1.25
125.6	108.83	1.27
128.06	109.91	1.28
130.51	110.33	1.28
132.96	111.24	1.29
135.4	112.57	1.3
137.84	113.65	1.31
140.28	114.65	1.32
142.71	116.23	1.33
145.14	117.56	1.34
147.57	118.81	1.35
150	120.05	1.36
152.42	121.38	1.37
154.84	122.71	1.38
157.26	124.21	1.39
159.71	125.04	1.4
162.14	126.04	1.41
164.56	127.2	1.42
166.97	128.45	1.43
169.39	129.62	1.44
171.81	130.78	1.45
174.22	131.78	1.45
176.64	132.94	1.46
179.06	134.19	1.47
181.48	135.44	1.48
183.89	136.68	1.49
186.3	137.85	1.5
188.71	139.01	1.51
191.12	140.17	1.52
193.52	141.34	1.53
195.93	142.75	1.54
198.36	144.08	1.55
200.77	145.58	1.56
203.17	147.24	1.58
205.56	148.65	1.59
207.96	150.48	1.6
210.35	152.4	1.62
212.74	154.56	1.64
215.12	157.38	1.66
217.5	161.21	1.69
219.86	167.03	1.74
222.2	177.25	1.82
223.13	180.66	1.85
223.93	192.39	1.96
224.49	198.79	2

System: 1,4-diisocyanatobutane; phases: Liquid
Fixed: Pressure, kPa = 101.325
Property: Molar heat capacity at constant pressure, J/K/mol (Liquid); method: Small (less than 1 g) adiabatic calorimetry
Temperature, K	Molar heat capacity at constant pressure, J/K/mol	uncertainty
193.52	209.76	1.04
197.29	210.09	1.04
199.69	210.26	1.04
202.68	210.34	1.04
206.26	210.68	1.04
209.88	210.84	1.04
214.26	211.34	1.05
217.83	211.92	1.05
219.24	211.84	1.05
223.62	212.17	1.05
227.18	212.59	1.05
230.73	213.34	1.05
236.44	214	1.06
239.7	214.67	1.06
244.22	215.58	1.06
246.02	215.75	1.06
248.38	215.91	1.06
250.74	216.25	1.07
253.09	216.83	1.07
255.44	217.33	1.07
257.79	217.66	1.07
260.14	218.08	1.07
262.48	218.24	1.07
264.82	218.66	1.07
267.15	219.16	1.08
269.49	219.66	1.08
271.82	220.32	1.08
274.15	220.32	1.08
276.47	221.4	1.09
278.79	220.9	1.08
279.57	221.4	1.09
281.31	221.82	1.09
281.31	221.57	1.09
283.07	222.15	1.09
283.61	222.32	1.09
285.38	222.4	1.09
285.9	222.9	1.09
287.69	222.23	1.09
288.18	222.98	1.09
290.45	223.48	1.09
292.73	223.9	1.1
295	224.31	1.1
297.26	224.81	1.1
299.52	225.23	1.1
301.77	225.81	1.1
304.04	226.22	1.1
306.31	226.89	1.11
308.57	227.3	1.11
310.82	227.72	1.11
313.07	228.05	1.11
315.27	228.72	1.11
317.51	229.47	1.12
319.75	229.72	1.12
321.98	230.3	1.12
324.2	230.8	1.12
326.42	231.3	1.13
328.63	231.71	1.13
330.83	232.29	1.13
333.02	232.79	1.13
335.22	233.37	1.13
337.4	233.96	1.14
339.56	234.29	1.14
341.72	234.95	1.14
343.88	235.7	1.14
346.03	236.37	1.15
348.18	237.03	1.15
350.22	237.61	1.15
352.35	237.86	1.15
354.47	238.36	1.15
356.57	238.94	1.16
358.68	239.53	1.16

System: 1,4-diisocyanatobutane; phases: Crystal
Fixed: Pressure, kPa = 101.325
Property: Molar heat capacity at constant pressure, J/K/mol (Crystal); method: Small (less than 1 g) adiabatic calorimetry
Temperature, K	Molar heat capacity at constant pressure, J/K/mol	uncertainty
5	0.175	0.0236
10	1.372	0.043
15	4.781	0.089
20	11.56	0.16
25	19	0.21
30	26.87	0.24
40	41.19	0.31
50	54.07	0.37
60	65.07	0.43
70	74.29	0.47
80	82.4	0.51
90	88.21	0.55
100	94.28	0.58
110	99.85	0.6
120	105	0.6
130	110	0.6
140	115	0.7
150	120	0.7
160	125	0.7
170	129.9	0.7
180	134.7	0.7
190	139.6	0.8
200	145.1	0.8
210	151	0.8
220	156.7	0.8
230	162.5	0.9
231.22	163.2	0.9

System: 1,4-diisocyanatobutane; phases: Liquid
Fixed: Pressure, kPa = 101.325
Property: Molar heat capacity at constant pressure, J/K/mol (Liquid); method: Small (less than 1 g) adiabatic calorimetry
Temperature, K	Molar heat capacity at constant pressure, J/K/mol	uncertainty
231.22	213.3	1.1
240	214.6	1.1
250	216.3	1.1
260	218	1.1
270	219.7	1.1
280	221.5	1.1
290	223.4	1.1
298.15	225.1	1.1
300	225.4	1.1
310	227.6	1.1
320	229.8	1.1
330	232.1	1.1
340	234.6	1.1
350	237.3	1.2
360	239.9	1.2

System: 1,4-diisocyanatobutane; phases: Crystal
Fixed: Pressure, kPa = 101.325
Property: Molar enthalpy, kJ/mol (Crystal); method: Small (less than 1 g) adiabatic calorimetry
Temperature, K	Molar enthalpy, kJ/mol	uncertainty
5	0.001	0.0002
10	0.035	0.0009
15	0.2581	0.0045
20	1.158	0.016
25	3.349	0.036
30	7.465	0.049
40	23.59	0.13
50	53.33	0.28
60	99.87	0.52
70	165.4	0.8
80	251.7	1.3
90	359.9	1.5
100	491.2	2
110	647	2.6
120	828.9	3.4
130	1038	4
140	1275	5
150	1543	6
160	1841	7
170	2172	9
180	2540	10
190	2940	12
200	3380	14
210	3860	16
220	4382	18
230	4949	20
231.22	5021	20

System: 1,4-diisocyanatobutane; phases: Liquid
Fixed: Pressure, kPa = 101.325
Property: Molar enthalpy, kJ/mol (Liquid); method: Small (less than 1 g) adiabatic calorimetry
Temperature, K	Molar enthalpy, kJ/mol	uncertainty
231.22	9823	39
240	10647	43
250	11629	47
260	12661	51
270	13738	55
280	14864	60
290	16041	64
298.15	17034	68
300	17265	69
310	18544	74
320	19874	80
330	21258	85
340	22693	91
350	24187	97
360	25737	103

System: 1,4-diisocyanatobutane; phases: Crystal
Fixed: Pressure, kPa = 101.325
Property: Molar entropy, J/K/mol (Crystal); method: Small (less than 1 g) adiabatic calorimetry
Temperature, K	Molar entropy, J/K/mol	uncertainty
5	0.058	0.032
10	0.466	0.041
15	1.53	0.062
20	3.83	0.1
25	7.186	0.139
30	11.36	0.24
40	21.07	0.31
50	31.66	0.39
60	42.53	0.47
70	53.27	0.55
80	63.73	0.63
90	73.76	0.74
100	83.39	0.8
110	92.62	0.86
120	101.5	0.9
130	110.2	1
140	118.5	1
150	126.5	1.1
160	134.4	1.1
170	142.2	1.2
180	149.7	1.2
190	157.2	1.2
200	164.5	1.3
210	171.7	1.3
220	178.8	1.4
230	186	1.4
231.22	186.8	1.4

System: 1,4-diisocyanatobutane; phases: Liquid
Fixed: Pressure, kPa = 101.325
Property: Molar entropy, J/K/mol (Liquid); method: Small (less than 1 g) adiabatic calorimetry
Temperature, K	Molar entropy, J/K/mol	uncertainty
231.22	276.7	2
240	284.6	2
250	293.4	2.1
260	302	2.1
270	310.2	2.2
280	318.2	2.2
290	326	2.3
298.15	332.2	2.3
300	333.6	2.3
310	341	2.3
320	348.3	2.4
330	355.4	2.4
340	362.4	2.5
350	369.2	2.5
360	376	2.6

Reaction: -1 1,4-diisocyanatobutane + 6 carbon dioxide + 1 nitrogen + 4 water + -7 oxygen
Property: Specific internal energy of reaction at constant volume, J/g
-22996.4
