Measured thermophysical data. Densities and volumetric properties of (N-(2-hydroxyethyl)morpholine + ethanol, + 1-propanol, + 2-propanol, + 1-butanol, and + 2-butanol) at (293.15, 298.15, 303.15, 313.15, and 323.15) K
Source: J. Chem. Thermodyn., 2008, 10.1016/j.jct.2007.11.010
Compound 1: ethanol, C2H6O, InChI=1S/C2H6O/c1-2-3/h3H,2H2,1H3, purity 99.5%
Compound 2: propan-1-ol, C3H8O, InChI=1S/C3H8O/c1-2-3-4/h4H,2-3H2,1H3, purity 99.5%
Compound 3: propan-2-ol, C3H8O, InChI=1S/C3H8O/c1-3(2)4/h3-4H,1-2H3, purity 99.5%
Compound 4: butan-1-ol, C4H10O, InChI=1S/C4H10O/c1-2-3-4-5/h5H,2-4H2,1H3, purity 99.5%
Compound 5: butan-2-ol, C4H10O, InChI=1S/C4H10O/c1-3-4(2)5/h4-5H,3H2,1-2H3, purity 99.5%
Compound 6: 4-morpholineethanol, C6H13NO2, InChI=1S/C6H13NO2/c8-4-1-7-2-5-9-6-3-7/h8H,1-6H2, purity 99%

System: ethanol; phases: Liquid
Fixed: Pressure, kPa = 101.325
Property: Mass density, kg/m3 (Liquid); method: VIBTUB:UFactor:4
Temperature, K	Mass density, kg/m3	uncertainty
293.15	788.33	0.49
298.15	784.97	0.5
303.15	780.72	0.5
313.15	772.61	0.52
323.15	764.14	0.53

System: propan-1-ol; phases: Liquid
Fixed: Pressure, kPa = 101.325
Property: Mass density, kg/m3 (Liquid); method: VIBTUB:UFactor:4
Temperature, K	Mass density, kg/m3	uncertainty
293.15	803.56	0.47
298.15	799.71	0.48
303.15	795.58	0.48
313.15	787.34	0.49
323.15	778.97	0.51

System: propan-2-ol; phases: Liquid
Fixed: Pressure, kPa = 101.325
Property: Mass density, kg/m3 (Liquid); method: VIBTUB:UFactor:4
Temperature, K	Mass density, kg/m3	uncertainty
293.15	785.18	0.5
298.15	781.31	0.5
303.15	776.66	0.51
313.15	767.83	0.52
323.15	758.71	0.54

System: butan-1-ol; phases: Liquid
Fixed: Pressure, kPa = 101.325
Property: Mass density, kg/m3 (Liquid); method: VIBTUB:UFactor:4
Temperature, K	Mass density, kg/m3	uncertainty
293.15	809.52	0.46
298.15	805.88	0.47
303.15	801.99	0.47
313.15	794.34	0.48
323.15	786.67	0.5

System: butan-2-ol; phases: Liquid
Fixed: Pressure, kPa = 101.325
Property: Mass density, kg/m3 (Liquid); method: VIBTUB:UFactor:12
Temperature, K	Mass density, kg/m3	uncertainty
293.15	805.56	1.33
298.15	802.43	1.35
303.15	797.76	1.37
313.15	790.11	1.41
323.15	784.92	1.43

System: 4-morpholineethanol; phases: Liquid
Fixed: Pressure, kPa = 101.325
Property: Mass density, kg/m3 (Liquid); method: VIBTUB:UFactor:12
Temperature, K	Mass density, kg/m3	uncertainty
293.15	1076.58	0.97
298.15	1071.3	0.94
303.15	1066.51	0.92
313.15	1059.19	0.88
323.15	1052.64	0.84

System: ethanol + 4-morpholineethanol; phases: Liquid
Fixed: Pressure, kPa = 101
Property: Mass density, kg/m3 (Liquid); method: VIBTUB:UFactor:8
Mole fraction of 4-morpholineethanol	Temperature, K	Mass density, kg/m3	uncertainty
0.0543	293.15	820.46	0.85
0.0543	298.15	817.03	0.86
0.0543	303.15	812.82	0.87
0.0543	313.15	804.96	0.89
0.0543	323.15	794.75	0.93
0.1127	293.15	851.58	0.76
0.1127	298.15	847.96	0.77
0.1127	303.15	843.64	0.78
0.1127	313.15	835.77	0.81
0.1127	323.15	824.13	0.84
0.1873	293.15	886.91	0.66
0.1873	298.15	883.05	0.67
0.1873	303.15	878.64	0.69
0.1873	313.15	870.75	0.71
0.1873	323.15	857.23	0.75
0.2468	293.15	911.75	0.6
0.2468	298.15	907.72	0.61
0.2468	303.15	903.24	0.62
0.2468	313.15	895.37	0.64
0.2468	323.15	880.63	0.69
0.2874	293.15	927.58	0.56
0.2874	298.15	923.45	0.57
0.2874	303.15	918.93	0.58
0.2874	313.15	911.07	0.6
0.2874	323.15	895.3	0.7
0.3248	293.15	941.14	0.52
0.3248	298.15	936.91	0.53
0.3248	303.15	932.36	0.55
0.3248	313.15	924.52	0.57
0.3248	323.15	907.98	0.62
0.3873	293.15	961.89	0.47
0.3873	298.15	957.52	0.48
0.3873	303.15	952.92	0.5
0.3873	313.15	945.11	0.52
0.3873	323.15	927.56	0.57
0.4267	293.15	973.69	0.44
0.4267	298.15	969.23	0.46
0.4267	303.15	964.6	0.5
0.4267	313.15	956.83	0.49
0.4267	323.15	938.98	0.54
0.4882	293.15	990.98	0.41
0.4882	298.15	986.4	0.4
0.4882	303.15	981.73	0.43
0.4882	313.15	974	1
0.4882	323.15	955.56	0.5
0.5237	293.15	1000.12	0.38
0.5237	298.15	995.47	0.39
0.5237	303.15	990.79	0.41
0.5237	313.15	983.09	0.43
0.5237	323.15	964.48	0.48
0.5894	293.15	1015.56	0.44
0.5894	298.15	1010.8	0.4
0.5894	303.15	1006.1	0.4
0.5894	313.15	998.46	0.39
0.5894	323.15	979.92	0.44
0.6422	293.15	1026.73	0.48
0.6422	298.15	1021.89	0.46
0.6422	303.15	1017.17	0.45
0.6422	313.15	1009.59	0.42
0.6422	323.15	991.39	0.41
0.6899	293.15	1035.93	0.51
0.6899	298.15	1031.02	0.5
0.6899	303.15	1026.29	0.48
0.6899	313.15	1018.76	0.46
0.6899	323.15	1001.11	0.4
0.7439	293.15	1045.49	0.56
0.7439	298.15	1040.52	0.54
0.7439	303.15	1035.78	0.52
0.7439	313.15	1028.31	0.5
0.7439	323.15	1011.45	0.44
0.7855	293.15	1051.94	0.59
0.7855	298.15	1046.91	0.57
0.7855	303.15	1042.18	0.55
0.7855	313.15	1034.76	0.53
0.7855	323.15	1018.98	0.47
0.8238	293.15	1057.63	0.61
0.8238	298.15	1052.57	0.59
0.8238	303.15	1047.83	0.58
0.8238	313.15	1040.46	0.55
0.8238	323.15	1025.59	0.5
0.8841	293.15	1065.21	0.65
0.8841	298.15	1060.1	0.6
0.8841	303.15	1055.37	0.62
0.8841	313.15	1048.08	0.59
0.8841	323.15	1035.44	0.55
0.9247	293.15	1069.51	0.67
0.9247	298.15	1064.37	0.66
0.9247	303.15	1059.65	0.64
0.9247	313.15	1052.42	0.61
0.9247	323.15	1041.71	0.58
0.9544	293.15	1072.49	0.69
0.9544	298.15	1067.33	0.67
0.9544	303.15	1062.62	0.66
0.9544	313.15	1055.43	0.63
0.9544	323.15	1046.13	0.6
0.9844	293.15	1075.58	0.71
0.9844	298.15	1070.4	0.7
0.9844	303.15	1065.69	0.67
0.9844	313.15	1058.55	0.65
0.9844	323.15	1050.45	0.62

System: propan-1-ol + 4-morpholineethanol; phases: Liquid
Fixed: Pressure, kPa = 101
Property: Mass density, kg/m3 (Liquid); method: VIBTUB:UFactor:8
Mole fraction of 4-morpholineethanol	Temperature, K	Mass density, kg/m3	uncertainty
0.0441	293.15	830.17	0.82
0.0441	298.15	823.23	0.84
0.0441	303.15	815.35	0.86
0.0441	313.15	807.23	0.89
0.0441	323.15	799.06	0.91
0.1025	293.15	854.6	0.7
0.1025	298.15	847.85	0.77
0.1025	303.15	839.76	0.79
0.1025	313.15	831.61	0.82
0.1025	323.15	823.54	0.84
0.1771	293.15	883.51	0.67
0.1771	298.15	877.01	0.69
0.1771	303.15	868.66	0.71
0.1771	313.15	860.49	0.74
0.1771	323.15	852.56	0.76
0.2366	293.15	905.01	0.61
0.2366	298.15	898.71	0.63
0.2366	303.15	890.18	0.66
0.2366	313.15	882	1
0.2366	323.15	874.19	0.7
0.2772	293.15	919.15	0.58
0.2772	298.15	912.99	0.6
0.2772	303.15	904.34	0.62
0.2772	313.15	896.16	0.64
0.2772	323.15	888.43	0.67
0.3146	293.15	931.56	0.55
0.3146	298.15	925.53	0.56
0.3146	303.15	916.77	0.59
0.3146	313.15	908.59	0.61
0.3146	323.15	900.94	0.64
0.3771	293.15	951.28	0.5
0.3771	298.15	945.46	0.52
0.3771	303.15	936.54	0.54
0.3771	313.15	928.37	0.56
0.3771	323.15	920.85	0.59
0.4165	293.15	962.97	0.47
0.4165	298.15	957.29	0.49
0.4165	303.15	948.27	0.51
0.4165	313.15	940.11	0.54
0.4165	323.15	932.69	0.56
0.478	293.15	980.28	0.43
0.478	298.15	974.81	0.45
0.478	303.15	965.64	0.48
0.478	313.15	957.51	0.5
0.478	323.15	950.23	0.52
0.5135	293.15	989.72	0.41
0.5135	298.15	984.38	0.43
0.5135	303.15	975.14	0.45
0.5135	313.15	967.02	0.47
0.5135	323.15	959.82	0.49
0.5792	293.15	1006.06	0.4
0.5792	298.15	1000.96	0.39
0.5792	303.15	991.58	0.41
0.5792	313.15	983.5	0.4
0.5792	323.15	976.47	0.45
0.632	293.15	1018.06	0.45
0.632	298.15	1013.14	0.43
0.632	303.15	1003.67	0.4
0.632	313.15	995.64	0.4
0.632	323.15	988.74	0.42
0.6797	293.15	1028.12	0.49
0.6797	298.15	1023.38	0.47
0.6797	303.15	1013.83	0.44
0.6797	313.15	1005.84	0.41
0.6797	323.15	999.07	0.4
0.7337	293.15	1038.68	0.53
0.7337	298.15	1034.12	0.52
0.7337	303.15	1024.5	0.5
0.7337	313.15	1016.57	0.46
0.7337	323.15	1009.94	0.43
0.7753	293.15	1046.19	0.56
0.7753	298.15	1041.78	0.55
0.7753	303.15	1032.12	0.52
0.7753	313.15	1024.22	0.49
0.7753	323.15	1017.71	0.47
0.8136	293.15	1052.76	0.59
0.8136	298.15	1048.48	0.58
0.8136	303.15	1038.78	0.55
0.8136	313.15	1030.93	0.52
0.8136	323.15	1024.51	0.5
0.8739	293.15	1062.19	0.64
0.8739	298.15	1058.11	0.62
0.8739	303.15	1048.36	0.59
0.8739	313.15	1040.58	0.56
0.8739	323.15	1034.34	0.54
0.9145	293.15	1067.81	0.67
0.9145	298.15	1063.88	0.65
0.9145	303.15	1054.1	0.6
0.9145	313.15	1046.38	0.59
0.9145	323.15	1040.25	0.57
0.9442	293.15	1071.98	0.69
0.9442	298.15	1068.14	0.67
0.9442	303.15	1058.34	0.64
0.9442	313.15	1050.66	0.61
0.9442	323.15	1044.61	0.59
0.9742	293.15	1076.35	0.71
0.9742	298.15	1072.61	0.7
0.9742	303.15	1062.79	0.66
0.9742	313.15	1055.14	0.63
0.9742	323.15	1049.16	0.61

System: propan-2-ol + 4-morpholineethanol; phases: Liquid
Fixed: Pressure, kPa = 101
Property: Mass density, kg/m3 (Liquid); method: VIBTUB:UFactor:8
Mole fraction of 4-morpholineethanol	Temperature, K	Mass density, kg/m3	uncertainty
0.0543	293.15	810.11	0.88
0.0543	298.15	806.22	0.89
0.0543	303.15	801.63	0.9
0.0543	313.15	792.98	0.93
0.0543	323.15	784.44	0.96
0.1127	293.15	835.5	0.8
0.1127	298.15	831.48	0.82
0.1127	303.15	826.84	0.83
0.1127	313.15	818.19	0.86
0.1127	323.15	809.79	0.88
0.1873	293.15	865.79	0.72
0.1873	298.15	861.61	0.74
0.1873	303.15	856.92	0.75
0.1873	313.15	848.29	0.78
0.1873	323.15	840.07	0.8
0.2468	293.15	888.39	0.66
0.2468	298.15	884.1	0.7
0.2468	303.15	879.38	0.69
0.2468	313.15	870.77	0.72
0.2468	323.15	862.71	0.74
0.2874	293.15	903.13	0.63
0.2874	298.15	898.77	0.64
0.2874	303.15	894.03	0.65
0.2874	313.15	885.45	0.68
0.2874	323.15	877.5	0.7
0.3248	293.15	916.03	0.59
0.3248	298.15	911.6	0.6
0.3248	303.15	906.84	0.62
0.3248	313.15	898.29	0.64
0.3248	323.15	890.46	0.67
0.3873	293.15	936.59	0.54
0.3873	298.15	932.06	0.56
0.3873	303.15	927.29	0.57
0.3873	313.15	918.79	0.6
0.3873	323.15	911.14	0.62
0.4267	293.15	948.75	0.51
0.4267	298.15	944.16	0.53
0.4267	303.15	939.38	0.54
0.4267	313.15	930.92	0.57
0.4267	323.15	923.4	0.6
0.4882	293.15	967	1
0.4882	298.15	962.32	0.49
0.4882	303.15	957.53	0.5
0.4882	313.15	949.14	0.53
0.4882	323.15	941.81	0.55
0.5237	293.15	976.91	0.45
0.5237	298.15	972.17	0.46
0.5237	303.15	967.38	0.47
0.5237	313.15	959.03	0.5
0.5237	323.15	951.82	0.52
0.5894	293.15	994.19	0.4
0.5894	298.15	989.37	0.42
0.5894	303.15	984.57	0.43
0.5894	313.15	976.32	0.45
0.5894	323.15	969.32	0.47
0.6422	293.15	1007.31	0.41
0.6422	298.15	1002.43	0.4
0.6422	303.15	997.63	0.4
0.6422	313.15	989.46	0.42
0.6422	323.15	982.63	0.44
0.6899	293.15	1018.36	0.46
0.6899	298.15	1013.43	0.44
0.6899	303.15	1008.64	0.42
0.6899	313.15	1000.53	0.4
0.6899	323.15	993.87	0.41
0.7439	293.15	1030.26	0.51
0.7439	298.15	1025.27	0.49
0.7439	303.15	1020.49	0.47
0.7439	313.15	1012.47	0.44
0.7439	323.15	1005.99	0.42
0.7855	293.15	1038.88	0.54
0.7855	298.15	1033.86	0.52
0.7855	303.15	1029.09	0.51
0.7855	313.15	1021.13	0.48
0.7855	323.15	1014.79	0.46
0.8238	293.15	1046.42	0.57
0.8238	298.15	1041.36	0.56
0.8238	303.15	1036.59	0.54
0.8238	313.15	1028.7	0.5
0.8238	323.15	1022.49	0.49
0.8841	293.15	1057.54	0.62
0.8841	298.15	1052.43	0.61
0.8841	303.15	1047.69	0.59
0.8841	313.15	1039.9	0.6
0.8841	323.15	1033.9	0.5
0.9247	293.15	1064.51	0.66
0.9247	298.15	1059.37	0.64
0.9247	303.15	1054.64	0.62
0.9247	313.15	1046.93	0.6
0.9247	323.15	1041.06	0.57
0.9544	293.15	1069.21	0.68
0.9544	298.15	1064.05	0.66
0.9544	303.15	1059.33	0.65
0.9544	313.15	1051.68	0.62
0.9544	323.15	1045.92	0.6
0.9844	293.15	1074.11	0.7
0.9844	298.15	1068.93	0.69
0.9844	303.15	1064.23	0.67
0.9844	313.15	1056.62	0.64
0.9844	323.15	1050.96	0.62

System: butan-1-ol + 4-morpholineethanol; phases: Liquid
Fixed: Pressure, kPa = 101
Property: Mass density, kg/m3 (Liquid); method: VIBTUB:UFactor:8
Mole fraction of 4-morpholineethanol	Temperature, K	Mass density, kg/m3	uncertainty
0.0652	293.15	832.8	0.81
0.0652	298.15	829	0.82
0.0652	303.15	825.1	0.83
0.0652	313.15	817.44	0.86
0.0652	323.15	809.9	0.88
0.1125	293.15	849.1	0.76
0.1125	298.15	845.21	0.78
0.1125	303.15	841.24	0.79
0.1125	313.15	833.54	0.81
0.1125	323.15	826.03	0.83
0.1865	293.15	873.74	0.7
0.1865	298.15	869.7	0.71
0.1865	303.15	865.64	0.72
0.1865	313.15	857.88	0.75
0.1865	323.15	850.45	0.77
0.2436	293.15	891.83	0.65
0.2436	298.15	887.69	0.66
0.2436	303.15	883.56	0.68
0.2436	313.15	875.77	0.7
0.2436	323.15	868.41	0.72
0.2865	293.15	905.09	0.62
0.2865	298.15	900.87	0.63
0.2865	303.15	896.69	0.64
0.2865	313.15	888.88	0.67
0.2865	323.15	881.58	0.69
0.3275	293.15	917.49	0.59
0.3275	298.15	913.2	0.6
0.3275	303.15	908.97	0.61
0.3275	313.15	901.14	0.63
0.3275	323.15	893.89	0.66
0.3852	293.15	934.26	0.55
0.3852	298.15	929.86	0.56
0.3852	303.15	925.57	0.57
0.3852	313.15	917.73	0.6
0.3852	323.15	910.57	0.62
0.4259	293.15	945.77	0.52
0.4259	298.15	941.31	0.53
0.4259	303.15	936.97	0.55
0.4259	313.15	929.12	0.57
0.4259	323.15	922.02	0.59
0.4784	293.15	960.02	0.49
0.4784	298.15	955.47	0.5
0.4784	303.15	951.09	0.51
0.4784	313.15	943.23	0.54
0.4784	323.15	936.22	0.56
0.5248	293.15	972.29	0.46
0.5248	298.15	967.67	0.47
0.5248	303.15	963.24	0.48
0.5248	313.15	955.38	0.51
0.5248	323.15	948.45	0.53
0.5649	293.15	982.5	0.43
0.5649	298.15	977.82	0.45
0.5649	303.15	973.35	0.46
0.5649	313.15	965.5	0.48
0.5649	323.15	958.65	0.5
0.6126	293.15	994.28	0.4
0.6126	298.15	989.52	0.42
0.6126	303.15	985.02	0.43
0.6126	313.15	977.16	0.45
0.6126	323.15	970.4	0.47
0.6539	293.15	1004.15	0.41
0.6539	298.15	999.34	0.39
0.6539	303.15	994.8	0.41
0.6539	313.15	986.96	0.43
0.6539	323.15	980.27	0.45
0.6898	293.15	1012.51	0.44
0.6898	298.15	1007.64	0.42
0.6898	303.15	1003.08	0.41
0.6898	313.15	995.25	0.41
0.6898	323.15	988.63	0.43
0.7353	293.15	1022.74	0.48
0.7353	298.15	1017.81	0.46
0.7353	303.15	1013.21	0.45
0.7353	313.15	1005.4	0.42
0.7353	323.15	998.88	0.4
0.7962	293.15	1035.87	0.53
0.7962	298.15	1030.87	0.52
0.7962	303.15	1026.23	0.5
0.7962	313.15	1018.44	0.47
0.7962	323.15	1012.05	0.45
0.8367	293.15	1044.36	0.57
0.8367	298.15	1039.31	0.55
0.8367	303.15	1034.64	0.54
0.8367	313.15	1026.87	0.51
0.8367	323.15	1020.56	0.49
0.8823	293.15	1053.64	0.61
0.8823	298.15	1048.53	0.59
0.8823	303.15	1043.84	0.58
0.8823	313.15	1036.07	0.55
0.8823	323.15	1029.88	0.53
0.9248	293.15	1062.23	0.65
0.9248	298.15	1057.07	0.63
0.9248	303.15	1052.35	0.61
0.9248	313.15	1044.62	0.59
0.9248	323.15	1038.5	0.57
0.9844	293.15	1073.74	0.7
0.9844	298.15	1068.51	0.68
0.9844	303.15	1063.75	0.67
0.9844	313.15	1056.05	0.64
0.9844	323.15	1050.07	0.62

System: butan-2-ol + 4-morpholineethanol; phases: Liquid
Fixed: Pressure, kPa = 101
Property: Mass density, kg/m3 (Liquid); method: VIBTUB:UFactor:8
Mole fraction of 4-morpholineethanol	Temperature, K	Mass density, kg/m3	uncertainty
0.0542	293.15	824.77	0.83
0.0542	298.15	821.68	0.84
0.0542	303.15	817.07	0.86
0.0542	313.15	809.49	0.88
0.0542	323.15	804.37	0.9
0.1098	293.15	843.95	0.78
0.1098	298.15	840.73	0.79
0.1098	303.15	836.08	0.8
0.1098	313.15	828.46	0.83
0.1098	323.15	823.27	0.84
0.1855	293.15	869.23	0.71
0.1855	298.15	865.83	0.72
0.1855	303.15	861.15	0.74
0.1855	313.15	853.47	0.76
0.1855	323.15	848.18	0.78
0.2431	293.15	887.71	0.66
0.2431	298.15	884.17	0.67
0.2431	303.15	879.46	0.69
0.2431	313.15	871.75	0.71
0.2431	323.15	866.4	0.73
0.2876	293.15	901.62	0.63
0.2876	298.15	897.97	0.64
0.2876	303.15	893.25	0.65
0.2876	313.15	885.52	0.68
0.2876	323.15	880.12	0.69
0.3266	293.15	913.58	0.6
0.3266	298.15	909.84	0.61
0.3266	303.15	905.11	0.62
0.3266	313.15	897.36	0.65
0.3266	323.15	891.91	0.66
0.3854	293.15	930.89	0.56
0.3854	298.15	927.02	0.57
0.3854	303.15	922.28	0.58
0.3854	313.15	914.51	0.6
0.3854	323.15	909.01	0.62
0.4277	293.15	943.01	0.53
0.4277	298.15	939.04	0.54
0.4277	303.15	934.29	0.55
0.4277	313.15	926.51	0.58
0.4277	323.15	920.97	0.59
0.4822	293.15	958.03	0.5
0.4822	298.15	953.95	0.51
0.4822	303.15	949.18	0.52
0.4822	313.15	941.4	0.54
0.4822	323.15	935.81	0.56
0.5189	293.15	967.85	0.47
0.5189	298.15	963.68	0.48
0.5189	303.15	958.92	0.5
0.5189	313.15	951.14	0.52
0.5189	323.15	945.51	0.53
0.5672	293.15	980.37	0.44
0.5672	298.15	976.09	0.45
0.5672	303.15	971.33	0.47
0.5672	313.15	963.55	0.49
0.5672	323.15	957.89	0.5
0.6044	293.15	989.72	0.42
0.6044	298.15	985.36	0.43
0.6044	303.15	980.59	0.44
0.6044	313.15	972.82	0.46
0.6044	323.15	967.14	0.48
0.6438	293.15	999.36	0.39
0.6438	298.15	994.93	0.4
0.6438	303.15	990.17	0.42
0.6438	313.15	982.4	0.44
0.6438	323.15	976.69	0.46
0.6798	293.15	1007.93	0.42
0.6798	298.15	1003.44	0.41
0.6798	303.15	998.68	0.4
0.6798	313.15	990.92	0.42
0.6798	323.15	985.19	0.44
0.7355	293.15	1020.77	0.47
0.7355	298.15	1016.16	0.46
0.7355	303.15	1011.41	0.44
0.7355	313.15	1003.67	0.41
0.7355	323.15	997.91	0.41
0.7942	293.15	1033.69	0.53
0.7942	298.15	1028.98	0.51
0.7942	303.15	1024.24	0.49
0.7942	313.15	1016.52	0.47
0.7942	323.15	1010.73	0.45
0.8427	293.15	1044.13	0.57
0.8427	298.15	1039.33	0.55
0.8427	303.15	1034.6	0.54
0.8427	313.15	1026.9	0.51
0.8427	323.15	1021.09	0.49
0.8785	293.15	1051.72	0.6
0.8785	298.15	1046.85	0.59
0.8785	303.15	1042.13	0.57
0.8785	313.15	1034.45	0.54
0.8785	323.15	1028.62	0.52
0.9235	293.15	1061.1	0.6
0.9235	298.15	1056.15	0.63
0.9235	303.15	1051.43	0.61
0.9235	313.15	1043.77	0.58
0.9235	323.15	1037.92	0.56
0.9844	293.15	1073.45	0.7
0.9844	298.15	1068.39	0.68
0.9844	303.15	1063.69	0.67
0.9844	313.15	1056.06	0.64
0.9844	323.15	1050.18	0.62
