Measured thermophysical data. Permittivity and electrical conductivity of copper oxide nanofluid (12 nm) in water at different temperatures
Source: J. Chem. Thermodyn., 2019, 10.1016/j.jct.2018.12.025
Compound 1: water, H2O, InChI=1S/H2O/h1H2
Compound 2: 1,2-ethanediol, C2H6O2, InChI=1S/C2H6O2/c3-1-2-4/h3-4H,1-2H2, purity 99.5%

System: water; phases: Liquid
Fixed: Pressure, kPa = 96.5
Fixed: Frequency, MHz = 1
Property: Relative permittivity at various frequencies (Liquid); method: Parallel plate capacitor
Temperature, K	Relative permittivity at various frequencies	uncertainty
298.15	79.68	2.99
308.15	75.51	2.84
318.15	71.42	2.69
328.15	68.44	2.57
338.15	64.51	2.43
348.15	60.78	2.29

System: water; phases: Liquid
Fixed: Pressure, kPa = 96.5
Property: Electrical conductivity, S/m (Liquid); method: Derived from relative permittivity measurements
Temperature, K	Electrical conductivity, S/m	uncertainty
298.15	7.9e-05	8e-06
308.15	0.000139	1.4e-05
318.15	0.00023	2.3e-05
328.15	0.00032	3.2e-05
338.15	0.000398	4e-05
348.15	0.000481	4.8e-05

System: 1,2-ethanediol; phases: Liquid
Fixed: Pressure, kPa = 97.8
Property: Electrical conductivity, S/m (Liquid); method: Derived from relative permittivity measurements
Temperature, K	Electrical conductivity, S/m	uncertainty
293.15	1.5e-05	2e-06
303.15	2.9e-05	3e-06
313.15	4.6e-05	5e-06
323.15	8e-05	8e-06
333.15	0.000121	1.2e-05
343.15	0.000168	1.7e-05
