Measured thermophysical data. Solubility measurement and correlation of the form A of ibrutinib in organic solvents from 278.15 to 323.15 K
Source: J. Chem. Thermodyn., 2016, 10.1016/j.jct.2016.08.034
Compound 1: Ibrutinib, C25H24N6O2, InChI=1S/C25H24N6O2/c1-2-21(32)30-14-6-7-18(15-30)31-25-22(24(26)27-16-28-25)23(29-31)17-10-12-20(13-11-17)33-19-8-4-3-5-9-19/h2-5,8-13,16,18H,1,6-7,14-15H2,(H2,26,27,28)/t18-/m1/s1, purity 99.4%
Compound 2: propan-2-ol, C3H8O, InChI=1S/C3H8O/c1-3(2)4/h3-4H,1-2H3, purity 99.5%
Compound 3: butan-1-ol, C4H10O, InChI=1S/C4H10O/c1-2-3-4-5/h5H,2-4H2,1H3, purity 99.5%
Compound 4: ethyl acetate, C4H8O2, InChI=1S/C4H8O2/c1-3-6-4(2)5/h3H2,1-2H3, purity 99.5%
Compound 5: acetonitrile, C2H3N, InChI=1S/C2H3N/c1-2-3/h1H3, purity 99.5%
Compound 6: acetone, C3H6O, InChI=1S/C3H6O/c1-3(2)4/h1-2H3, purity 99.5%
Compound 7: butanone, C4H8O, InChI=1S/C4H8O/c1-3-4(2)5/h3H2,1-2H3, purity 99.5%
Compound 8: 2-methoxy-2-methylpropane, C5H12O, InChI=1S/C5H12O/c1-5(2,3)6-4/h1-4H3, purity 99.5%

System: Ibrutinib; phases: Crystal, Liquid, Air at 1 atmosphere
Property: Normal melting temperature, K (Crystal); method: DTA
Normal melting temperature, K	uncertainty
426.28	1.06

System: propan-2-ol + Ibrutinib; phases: Liquid, Crystal
Fixed: Pressure, kPa = 101.3
Property: Mole fraction of Ibrutinib (Liquid); method: Gravimetric method
Temperature, K	Mole fraction of Ibrutinib	uncertainty
278.15	0.0004089	1.64e-05
283.15	0.0005471	2.19e-05
288.15	0.0007341	2.94e-05
293.15	0.0009471	3.8e-05
298.15	0.001228	4.9e-05
303.15	0.00165	6.6e-05
308.15	0.002174	8.7e-05
313.15	0.00278	0.000111
318.15	0.003629	0.000145
323.15	0.004554	0.000182

System: butan-1-ol + Ibrutinib; phases: Liquid, Crystal
Fixed: Pressure, kPa = 101.3
Property: Mole fraction of Ibrutinib (Liquid); method: Gravimetric method
Temperature, K	Mole fraction of Ibrutinib	uncertainty
278.15	0.00127	5.1e-05
283.15	0.001627	6.5e-05
288.15	0.002056	8.2e-05
293.15	0.002612	0.000105
298.15	0.003308	0.000133
303.15	0.00423	0.000169
308.15	0.005401	0.000216
313.15	0.006935	0.000278
318.15	0.008943	0.000358
323.15	0.01151	0.00046

System: ethyl acetate + Ibrutinib; phases: Liquid, Crystal
Fixed: Pressure, kPa = 101.3
Property: Mole fraction of Ibrutinib (Liquid); method: Gravimetric method
Temperature, K	Mole fraction of Ibrutinib	uncertainty
278.15	0.00312	0.000125
283.15	0.003567	0.000143
288.15	0.004031	0.000161
293.15	0.004752	0.00019
298.15	0.00548	0.00022
303.15	0.006179	0.000248
308.15	0.007219	0.000289
313.15	0.008302	0.000333
318.15	0.009524	0.000382
323.15	0.01074	0.00043

System: acetonitrile + Ibrutinib; phases: Liquid, Crystal
Fixed: Pressure, kPa = 101.3
Property: Mole fraction of Ibrutinib (Liquid); method: Gravimetric method
Temperature, K	Mole fraction of Ibrutinib	uncertainty
278.15	0.0006723	2.69e-05
283.15	0.0008194	3.28e-05
288.15	0.0009623	3.86e-05
293.15	0.00122	4.9e-05
298.15	0.001434	5.7e-05
303.15	0.001741	7e-05
308.15	0.002102	8.4e-05
313.15	0.002559	0.000103
318.15	0.003139	0.000126
323.15	0.003669	0.000147

System: acetone + Ibrutinib; phases: Liquid, Crystal
Fixed: Pressure, kPa = 101.3
Property: Mole fraction of Ibrutinib (Liquid); method: Gravimetric method
Temperature, K	Mole fraction of Ibrutinib	uncertainty
278.15	0.003623	0.000145
283.15	0.004173	0.000167
288.15	0.004875	0.000195
293.15	0.005732	0.00023
298.15	0.006735	0.00027
303.15	0.007943	0.000318
308.15	0.009212	0.000369
313.15	0.01084	0.00043
318.15	0.01246	0.0005
323.15	0.01436	0.00058

System: butanone + Ibrutinib; phases: Liquid, Crystal
Fixed: Pressure, kPa = 101.3
Property: Mole fraction of Ibrutinib (Liquid); method: Gravimetric method
Temperature, K	Mole fraction of Ibrutinib	uncertainty
278.15	0.00549	0.00022
283.15	0.006281	0.000252
288.15	0.007259	0.000291
293.15	0.008547	0.000342
298.15	0.009878	0.000396
303.15	0.01136	0.00046
308.15	0.01325	0.00053
313.15	0.01552	0.00062
318.15	0.01805	0.00072
323.15	0.02107	0.00084

System: 2-methoxy-2-methylpropane + Ibrutinib; phases: Liquid, Crystal
Fixed: Pressure, kPa = 101.3
Property: Mole fraction of Ibrutinib (Liquid); method: Gravimetric method
Temperature, K	Mole fraction of Ibrutinib	uncertainty
278.15	0.0002247	9e-06
283.15	0.000244	9.8e-06
288.15	0.000277	1.11e-05
293.15	0.0003048	1.22e-05
298.15	0.0003306	1.32e-05
303.15	0.0003701	1.48e-05
308.15	0.0004041	1.62e-05
313.15	0.0004535	1.82e-05
318.15	0.000497	1.99e-05
323.15	0.0005604	2.24e-05
