Measured thermophysical data. Vapour pressures and enthalpies of vaporization of a series of the linear n-alkyl acetates
Source: J. Chem. Thermodyn., 2006, 10.1016/j.jct.2005.08.003
Compound 1: hexyl ethanoate, C8H16O2, InChI=1S/C8H16O2/c1-3-4-5-6-7-10-8(2)9/h3-7H2,1-2H3, purity 99.7%
Compound 2: heptyl ethanoate, C9H18O2, InChI=1S/C9H18O2/c1-3-4-5-6-7-8-11-9(2)10/h3-8H2,1-2H3, purity 99.7%
Compound 3: octyl ethanoate, C10H20O2, InChI=1S/C10H20O2/c1-3-4-5-6-7-8-9-12-10(2)11/h3-9H2,1-2H3, purity 99.7%
Compound 4: nonyl ethanoate, C11H22O2, InChI=1S/C11H22O2/c1-3-4-5-6-7-8-9-10-13-11(2)12/h3-10H2,1-2H3, purity 99.7%
Compound 5: decyl acetate, C12H24O2, InChI=1S/C12H24O2/c1-3-4-5-6-7-8-9-10-11-14-12(2)13/h3-11H2,1-2H3, purity 99.7%
Compound 6: 1-undecanol, acetate, C13H26O2, InChI=1S/C13H26O2/c1-3-4-5-6-7-8-9-10-11-12-15-13(2)14/h3-12H2,1-2H3, purity 99.7%
Compound 7: dodecyl ethanoate, C14H28O2, InChI=1S/C14H28O2/c1-3-4-5-6-7-8-9-10-11-12-13-16-14(2)15/h3-13H2,1-2H3, purity 99.7%
Compound 8: tetradecyl ethanoate, C16H32O2, InChI=1S/C16H32O2/c1-3-4-5-6-7-8-9-10-11-12-13-14-15-18-16(2)17/h3-15H2,1-2H3, purity 99.7%

System: hexyl ethanoate; phases: Liquid, Gas
Property: Vapor or sublimation pressure, kPa (Liquid); method: Transpiration method
Temperature, K	Vapor or sublimation pressure, kPa	uncertainty
274.5	0.0254	0.00184
277.7	0.03331	0.00238
280.8	0.04194	0.00299
283.8	0.05339	0.00383
286.9	0.06941	0.00493
289.9	0.08289	0.00589
291.9	0.09979	0.00716
294	0.1185	0.0084
297	0.1452	0.0103
300	0.1768	0.0126
303.1	0.2275	0.0161
306.1	0.2684	0.019
309.1	0.3329	0.0236

System: heptyl ethanoate; phases: Liquid, Gas
Property: Vapor or sublimation pressure, kPa (Liquid); method: Transpiration method
Temperature, K	Vapor or sublimation pressure, kPa	uncertainty
274.5	0.00704	0.00051
276.5	0.00851	0.00061
278.7	0.01024	0.00074
281.8	0.01354	0.00097
284.8	0.01775	0.00127
287.9	0.02305	0.00166
290.9	0.03022	0.00216
294	0.03819	0.00273
297	0.04857	0.00346
300.1	0.06107	0.00435
303.1	0.07646	0.00546
306.1	0.097	0.00689

System: octyl ethanoate; phases: Liquid, Gas
Property: Vapor or sublimation pressure, kPa (Liquid); method: Transpiration method
Temperature, K	Vapor or sublimation pressure, kPa	uncertainty
274.5	0.00197	0.00015
278.7	0.00312	0.00023
281.8	0.00413	0.0003
284.8	0.00529	0.00038
287.9	0.00728	0.00053
290.9	0.00948	0.00068
294	0.01226	0.00088
297	0.01593	0.00114
300.1	0.01994	0.00143
303.1	0.02575	0.00184
306.1	0.03264	0.00233
309.2	0.04141	0.00294

System: nonyl ethanoate; phases: Liquid, Gas
Property: Vapor or sublimation pressure, kPa (Liquid); method: Transpiration method
Temperature, K	Vapor or sublimation pressure, kPa	uncertainty
276.7	0.0007	5e-05
278.7	0.00086	6e-05
281.8	0.00117	9e-05
284.8	0.00159	0.00012
287.8	0.00214	0.00016
290.9	0.00289	0.00021
294	0.00389	0.00028
297	0.00504	0.00036
300	0.00672	0.00049
303.1	0.00895	0.00064
306.1	0.01138	0.00081
309.2	0.01456	0.00103

System: decyl acetate; phases: Liquid, Gas
Property: Vapor or sublimation pressure, kPa (Liquid); method: Transpiration method
Temperature, K	Vapor or sublimation pressure, kPa	uncertainty
284.8	0.00048	4e-05
287.8	0.00066	5e-05
290.9	0.0009	7e-05
294	0.00121	9e-05
297	0.00167	0.00012
300.3	0.00228	0.00016
303.3	0.00292	0.00021
306.4	0.00395	0.00028
309.4	0.00504	0.00036
312.4	0.00666	0.00048
315.4	0.00837	0.0006
318.5	0.01087	0.00078
321.5	0.01406	0.001

System: 1-undecanol, acetate; phases: Liquid, Gas
Property: Vapor or sublimation pressure, kPa (Liquid); method: Transpiration method
Temperature, K	Vapor or sublimation pressure, kPa	uncertainty
288.9	0.00024	2e-05
292.9	0.00037	3e-05
296	0.00049	4e-05
299	0.00071	5e-05
302.1	0.00095	7e-05
305.2	0.00123	9e-05
308.2	0.00167	0.00012
311.2	0.00226	0.00016
314.3	0.00298	0.00021
317.3	0.00376	0.00027
320.3	0.00499	0.00036
323.3	0.00632	0.00045
326.3	0.00829	0.00059
329.4	0.01053	0.00075

System: dodecyl ethanoate; phases: Liquid, Gas
Property: Vapor or sublimation pressure, kPa (Liquid); method: Transpiration method
Temperature, K	Vapor or sublimation pressure, kPa	uncertainty
288.9	8e-05	1e-05
291.9	0.00011	1e-05
296	0.00017	1e-05
299	0.00024	2e-05
303.1	0.00037	3e-05
306.1	0.00049	4e-05
309.2	0.00067	5e-05
312.1	0.0009	7e-05
315.2	0.00119	9e-05
318.2	0.00163	0.00012
321.3	0.00208	0.00015
324.4	0.0028	0.0002
327.4	0.00356	0.00025
330.4	0.00456	0.00033
333.4	0.00597	0.00043

System: tetradecyl ethanoate; phases: Liquid, Gas
Property: Vapor or sublimation pressure, kPa (Liquid); method: Transpiration method
Temperature, K	Vapor or sublimation pressure, kPa	uncertainty
303.1	4e-05	1e-05
306.1	6e-05	1e-05
310.2	9e-05	1e-05
313.2	0.00013	1e-05
316.3	0.00018	1e-05
319.3	0.00024	2e-05
322.3	0.00033	2e-05
325.3	0.00045	3e-05
328.4	0.0006	4e-05
331.4	0.00078	6e-05
334.4	0.00105	8e-05
337.5	0.0014	0.0001
340.5	0.00186	0.00013
