Measured thermophysical data. Viscosities of binary mixtures of some n-ethoxyethanols with ethyl tert-butyl ether at T = (293.15, 298.15, and 303.15) K
Source: J. Chem. Thermodyn., 2007, 10.1016/j.jct.2007.01.010
Compound 1: 2-(2-(2-ethoxyethoxy)ethoxy)ethanol, C8H18O4, InChI=1S/C8H18O4/c1-2-10-5-6-12-8-7-11-4-3-9/h9H,2-8H2,1H3, purity 97%
Compound 2: 2-ethoxyethan-1-ol, C4H10O2, InChI=1S/C4H10O2/c1-2-6-4-3-5/h5H,2-4H2,1H3, purity 99%
Compound 3: 3,6-dioxa-1-octanol, C6H14O3, InChI=1S/C6H14O3/c1-2-8-5-6-9-4-3-7/h7H,2-6H2,1H3, purity 98%
Compound 4: 2-ethoxy-2-methylpropane, C6H14O, InChI=1S/C6H14O/c1-5-7-6(2,3)4/h5H2,1-4H3, purity 97%

System: 2-(2-(2-ethoxyethoxy)ethoxy)ethanol; phases: Liquid
Fixed: Pressure, kPa = 101
Property: Viscosity, Pa*s (Liquid); method: CAPTUB:UFactor:2
Temperature, K	Viscosity, Pa*s	uncertainty
293.15	0.008087	0.000144
298.15	0.007049	0.000127
303.15	0.006421	0.000116

System: 2-ethoxyethan-1-ol; phases: Liquid
Fixed: Pressure, kPa = 101
Property: Viscosity, Pa*s (Liquid); method: CAPTUB:UFactor:2
Temperature, K	Viscosity, Pa*s	uncertainty
293.15	0.002142	2.7e-05
298.15	0.001848	2.3e-05
303.15	0.001646	2.1e-05

System: 3,6-dioxa-1-octanol; phases: Liquid
Fixed: Pressure, kPa = 101
Property: Viscosity, Pa*s (Liquid); method: CAPTUB::UFactor:2
Temperature, K	Viscosity, Pa*s	uncertainty
293.15	0.004464	6.6e-05
298.15	0.003976	5.9e-05
303.15	0.003531	5.3e-05

System: 2-ethoxy-2-methylpropane; phases: Liquid
Fixed: Pressure, kPa = 101
Property: Viscosity, Pa*s (Liquid); method: CAPTUB:UFactor:2
Temperature, K	Viscosity, Pa*s	uncertainty
293.15	0.000532	7e-06
298.15	0.000504	7e-06
303.15	0.000478	7e-06

System: 2-ethoxyethan-1-ol + 2-ethoxy-2-methylpropane; phases: Liquid
Fixed: Pressure, kPa = 101
Property: Viscosity, Pa*s (Liquid); method: CAPTUB:UFactor:2
Temperature, K	Mole fraction of 2-ethoxy-2-methylpropane	Viscosity, Pa*s	uncertainty
293.15	0	0.002142	2.7e-05
293.15	0.05	0.001943	2.4e-05
293.15	0.1001	0.001766	2.2e-05
293.15	0.1489	0.001619	2e-05
293.15	0.2002	0.001476	1.8e-05
293.15	0.2511	0.00135	1.7e-05
293.15	0.2999	0.001242	1.6e-05
293.15	0.3486	0.001146	1.4e-05
293.15	0.4	0.001057	1.3e-05
293.15	0.4511	0.000977	1.2e-05
293.15	0.5	0.000908	1.2e-05
293.15	0.5502	0.000845	1.1e-05
293.15	0.5999	0.000791	1e-05
293.15	0.652	0.00074	1e-05
293.15	0.6999	0.000699	9e-06
293.15	0.7499	0.00066	9e-06
293.15	0.8	0.000626	8e-06
293.15	0.8505	0.000597	8e-06
293.15	0.9	0.000571	8e-06
293.15	0.9499	0.000549	8e-06
293.15	1	0.000532	7e-06
298.15	0	0.001848	2.3e-05
298.15	0.05	0.001691	2.1e-05
298.15	0.1001	0.001547	2e-05
298.15	0.1489	0.001424	1.8e-05
298.15	0.2002	0.001306	1.7e-05
298.15	0.2511	0.001203	1.5e-05
298.15	0.2999	0.001113	1.4e-05
298.15	0.3486	0.001031	1.3e-05
298.15	0.4	0.000955	1.2e-05
298.15	0.4511	0.000887	1.1e-05
298.15	0.5	0.000829	1.1e-05
298.15	0.5502	0.000775	1e-05
298.15	0.5999	0.000729	1e-05
298.15	0.652	0.000685	9e-06
298.15	0.6999	0.000649	9e-06
298.15	0.7499	0.000616	8e-06
298.15	0.8	0.000586	8e-06
298.15	0.8505	0.00056	8e-06
298.15	0.9	0.000538	7e-06
298.15	0.9499	0.000519	7e-06
298.15	1	0.000504	7e-06
303.15	0	0.001646	2.1e-05
303.15	0.05	0.001515	1.9e-05
303.15	0.1001	0.001394	1.8e-05
303.15	0.1489	0.001286	1.6e-05
303.15	0.2002	0.001184	1.5e-05
303.15	0.2511	0.001094	1.4e-05
303.15	0.2999	0.001017	1.3e-05
303.15	0.3486	0.000947	1.2e-05
303.15	0.4	0.000879	1.1e-05
303.15	0.4511	0.00082	1.1e-05
303.15	0.5	0.000769	1e-05
303.15	0.5502	0.000721	1e-05
303.15	0.5999	0.000679	9e-06
303.15	0.652	0.00064	9e-06
303.15	0.6999	0.000608	8e-06
303.15	0.7499	0.000578	8e-06
303.15	0.8	0.000552	8e-06
303.15	0.8505	0.000528	7e-06
303.15	0.9	0.000508	7e-06
303.15	0.9499	0.000492	7e-06
303.15	1	0.000478	7e-06

System: 3,6-dioxa-1-octanol + 2-ethoxy-2-methylpropane; phases: Liquid
Fixed: Pressure, kPa = 101
Property: Viscosity, Pa*s (Liquid); method: CAPTUB:UFactor:2
Temperature, K	Mole fraction of 2-ethoxy-2-methylpropane	Viscosity, Pa*s	uncertainty
293.15	0	0.004464	6.6e-05
293.15	0.05	0.003992	5.8e-05
293.15	0.1	0.003505	5e-05
293.15	0.1501	0.003037	4.3e-05
293.15	0.2	0.002637	3.7e-05
293.15	0.2498	0.002289	3.1e-05
293.15	0.2999	0.001991	2.7e-05
293.15	0.3497	0.001744	2.3e-05
293.15	0.3999	0.001526	2e-05
293.15	0.4502	0.001343	1.8e-05
293.15	0.5002	0.001184	1.6e-05
293.15	0.55	0.001049	1.4e-05
293.15	0.5997	0.000932	1.2e-05
293.15	0.6504	0.000832	1.1e-05
293.15	0.7003	0.000749	1e-05
293.15	0.7503	0.000682	9e-06
293.15	0.7998	0.00063	9e-06
293.15	0.8498	0.000591	8e-06
293.15	0.9	0.000563	8e-06
293.15	0.95	0.000545	7e-06
293.15	1	0.000532	7e-06
298.15	0	0.003976	5.9e-05
298.15	0.05	0.003574	5.2e-05
298.15	0.1	0.003156	4.5e-05
298.15	0.1501	0.002746	3.9e-05
298.15	0.2	0.002398	3.3e-05
298.15	0.2498	0.002093	2.9e-05
298.15	0.2999	0.001828	2.5e-05
298.15	0.3497	0.001605	2.2e-05
298.15	0.3999	0.001413	1.9e-05
298.15	0.4502	0.001245	1.7e-05
298.15	0.5002	0.001103	1.5e-05
298.15	0.55	0.000979	1.3e-05
298.15	0.5997	0.000872	1.2e-05
298.15	0.6504	0.00078	1e-05
298.15	0.7003	0.000704	9e-06
298.15	0.7503	0.000643	9e-06
298.15	0.7998	0.000596	8e-06
298.15	0.8498	0.000562	8e-06
298.15	0.9	0.000536	7e-06
298.15	0.95	0.000519	7e-06
298.15	1	0.000504	7e-06
303.15	0	0.003531	5.3e-05
303.15	0.05	0.003192	4.7e-05
303.15	0.1	0.002836	4.1e-05
303.15	0.1501	0.00249	3.5e-05
303.15	0.2	0.002183	3.1e-05
303.15	0.2498	0.001912	2.6e-05
303.15	0.2999	0.001683	2.3e-05
303.15	0.3497	0.00148	2e-05
303.15	0.3999	0.001312	1.8e-05
303.15	0.4502	0.00116	1.6e-05
303.15	0.5002	0.00103	1.4e-05
303.15	0.55	0.000918	1.2e-05
303.15	0.5997	0.00082	1.1e-05
303.15	0.6504	0.000736	1e-05
303.15	0.7003	0.000667	9e-06
303.15	0.7503	0.000611	8e-06
303.15	0.7998	0.000568	8e-06
303.15	0.8498	0.000536	7e-06
303.15	0.9	0.000512	7e-06
303.15	0.95	0.000495	7e-06
303.15	1	0.000478	7e-06

System: 2-(2-(2-ethoxyethoxy)ethoxy)ethanol + 2-ethoxy-2-methylpropane; phases: Liquid
Fixed: Pressure, kPa = 101
Property: Viscosity, Pa*s (Liquid); method: CAPTUB:UFactor:2
Temperature, K	Mole fraction of 2-ethoxy-2-methylpropane	Viscosity, Pa*s	uncertainty
293.15	0	0.008087	0.000144
293.15	0.0501	0.006804	0.000119
293.15	0.0996	0.005742	9.8e-05
293.15	0.1502	0.004816	8.1e-05
293.15	0.1999	0.004042	6.6e-05
293.15	0.2502	0.003391	5.4e-05
293.15	0.3005	0.002841	4.4e-05
293.15	0.3506	0.002383	3.6e-05
293.15	0.4	0.002008	3e-05
293.15	0.4502	0.001692	2.4e-05
293.15	0.5	0.001435	2e-05
293.15	0.55	0.001225	1.7e-05
293.15	0.5955	0.001067	1.5e-05
293.15	0.6498	0.000915	1.3e-05
293.15	0.7	0.000804	1.1e-05
293.15	0.7502	0.000714	1e-05
293.15	0.7982	0.000647	9e-06
293.15	0.8491	0.000593	8e-06
293.15	0.9	0.000555	8e-06
293.15	0.95	0.000533	7e-06
293.15	1	0.000532	7e-06
298.15	0	0.007049	0.000127
298.15	0.0501	0.005991	0.000106
298.15	0.0996	0.005091	8.8e-05
298.15	0.1502	0.004304	7.3e-05
298.15	0.1999	0.003643	6e-05
298.15	0.2502	0.003076	4.9e-05
298.15	0.3005	0.002597	4e-05
298.15	0.3506	0.002195	3.3e-05
298.15	0.4	0.001863	2.8e-05
298.15	0.4502	0.001582	2.3e-05
298.15	0.5	0.001351	1.9e-05
298.15	0.55	0.00116	1.6e-05
298.15	0.5955	0.001013	1.4e-05
298.15	0.6498	0.000873	1.2e-05
298.15	0.7	0.00077	1.1e-05
298.15	0.7502	0.000689	9e-06
298.15	0.7982	0.000628	9e-06
298.15	0.8491	0.000581	8e-06
298.15	0.9	0.000549	8e-06
298.15	0.95	0.000528	7e-06
298.15	1	0.000504	7e-06
303.15	0	0.006421	0.000116
303.15	0.0501	0.005485	9.8e-05
303.15	0.0996	0.004685	8.2e-05
303.15	0.1502	0.003982	6.7e-05
303.15	0.1999	0.003389	5.6e-05
303.15	0.2502	0.002874	4.6e-05
303.15	0.3005	0.002437	3.8e-05
303.15	0.3506	0.002067	3.1e-05
303.15	0.4	0.001759	2.6e-05
303.15	0.4502	0.001495	2.2e-05
303.15	0.5	0.001278	1.8e-05
303.15	0.55	0.001096	1.5e-05
303.15	0.5955	0.000959	1.3e-05
303.15	0.6498	0.000824	1.1e-05
303.15	0.7	0.000727	1e-05
303.15	0.7502	0.000654	9e-06
303.15	0.7982	0.000598	8e-06
303.15	0.8491	0.000555	8e-06
303.15	0.9	0.000524	7e-06
303.15	0.95	0.000502	7e-06
303.15	1	0.000478	7e-06
