Measured thermophysical data. Density measurements of methyl fluoride at high pressures and temperatures
Source: J. Chem. Thermodyn., 2007, 10.1016/j.jct.2007.01.003
Compound 1: fluoromethane, CH3F, InChI=1S/CH3F/c1-2/h1H3

System: fluoromethane; phases: Liquid
Property: Amount density, mol/m3 (Liquid); method: Other PVT measurement
Temperature, K	Pressure, kPa	Amount density, mol/m3	uncertainty
298.15	10000	18682	149
298.15	20000	20053	151
298.15	30000	21083	158
298.15	40000	21759	163
298.15	50000	22486	168
298.15	75000	23844	178
298.15	100000	25081	189
298.15	125000	26115	198
298.15	150000	26939	204
298.15	175000	27613	213
298.15	200000	28461	223
298.15	225000	29075	227
298.15	250000	29602	234
323.15	10000	15293	137
323.15	20000	18173	139
323.15	30000	19545	147
323.15	40000	20471	154
323.15	50000	21223	159
323.15	75000	22881	172
323.15	100000	24120	182
323.15	125000	25197	192
323.15	150000	26148	200
323.15	175000	26906	208
323.15	200000	27693	218
323.15	225000	28354	227
323.15	250000	29065	238
348.15	10000	9022	103
348.15	20000	15768	124
348.15	30000	17784	135
348.15	40000	19055	144
348.15	50000	19941	150
348.15	75000	21862	165
348.15	100000	23127	175
348.15	125000	24249	185
348.15	150000	25228	195
348.15	175000	26075	204
348.15	200000	26861	215
348.15	225000	27676	225
348.15	250000	28326	229
348.15	275000	28854	236
373.15	10000	5593	56
373.15	20000	13203	107
373.15	30000	15941	122
373.15	40000	17522	133
373.15	50000	18608	140
373.15	75000	20679	157
373.15	100000	22169	169
373.15	125000	23420	180
373.15	150000	24421	190
373.15	175000	25343	200
373.15	200000	26177	210
373.15	225000	26940	220
373.15	250000	27658	231
373.15	275000	28315	239
373.15	300000	28877	248
398.15	10000	4369	36
398.15	20000	10762	89
398.15	30000	14185	110
398.15	40000	16132	123
398.15	50000	17459	132
398.15	75000	19701	150
398.15	100000	21286	163
398.15	125000	22606	175
398.15	150000	23648	185
398.15	175000	24633	196
398.15	200000	25482	208
398.15	225000	26356	221
398.15	250000	27118	230
398.15	275000	27802	243
398.15	300000	28484	260
423.15	10000	3730	30
423.15	20000	8871	72
423.15	30000	12585	99
423.15	40000	14667	113
423.15	50000	16196	123
423.15	75000	18629	142
423.15	100000	20311	156
423.15	125000	21652	169
423.15	150000	22817	181
423.15	175000	23915	193
423.15	200000	24809	205
423.15	225000	25729	221
423.15	250000	26561	232
423.15	275000	27320	250
423.15	300000	28100	266
448.15	10000	3301	26
448.15	20000	7575	60
448.15	30000	11085	87
448.15	40000	13389	104
448.15	50000	15132	115
448.15	75000	17710	140
448.15	100000	19553	151
448.15	125000	20921	164
448.15	150000	22148	177
448.15	175000	23215	190
448.15	200000	24204	203
448.15	225000	25117	218
448.15	250000	25987	233
448.15	275000	26809	250
448.15	300000	27602	272
473.15	10000	2985	23
473.15	20000	6589	51
473.15	30000	9889	77
473.15	40000	12343	96
473.15	50000	13991	107
473.15	75000	16875	131
473.15	100000	18794	146
473.15	125000	20232	159
473.15	150000	21460	170
473.15	175000	22541	186
473.15	200000	23578	202
473.15	225000	24571	217
473.15	250000	25446	232
473.15	275000	26314	252
473.15	300000	27154	275
523.15	10000	2531	19
523.15	20000	5317	41
523.15	30000	8109	64
523.15	40000	10474	82
523.15	50000	12159	94
523.15	75000	15456	122
523.15	100000	17485	138
523.15	125000	19044	152
523.15	150000	20280	160
523.15	175000	21353	180
523.15	200000	22496	198
523.15	225000	23496	211
523.15	250000	24385	228
523.15	275000	25280	260
523.15	300000	26290	290
573.15	10000	2218	17
573.15	20000	4525	35
573.15	30000	6937	55
573.15	40000	9023	71
573.15	50000	10721	84
573.15	75000	14186	114
573.15	100000	16345	131
573.15	125000	17915	145
573.15	150000	19276	159
573.15	175000	20371	174
573.15	200000	21514	196
573.15	225000	22632	208
573.15	250000	23465	221
573.15	275000	24391	252
573.15	300000	25343	283
