Measured thermophysical data. Investigation on thermophysical and excess properties of binary mixtures of imidazolium based ionic liquids at temperatures (293.15 to 323.15) K: III [Cnmim][PF6] (n = 4, 6, 8) + THF
Source: J. Chem. Thermodyn., 2015, 10.1016/j.jct.2015.02.011
Compound 1: 1-butyl-3-methylimidazolium hexafluorophosphate, C8H15F6N2P, InChI=1S/C8H15N2.F6P/c1-3-4-5-10-7-6-9(2)8-10;1-7(2,3,4,5)6/h6-8H,3-5H2,1-2H3;/q+1;-1, purity 98%
Compound 2: 1-hexyl-3-methylimidazolium hexafluorophosphate, C10H19F6N2P, InChI=1S/C10H19N2.F6P/c1-3-4-5-6-7-12-9-8-11(2)10-12;1-7(2,3,4,5)6/h8-10H,3-7H2,1-2H3;/q+1;-1, purity 98%
Compound 3: 1-octyl-3-methylimidazolium hexafluorophosphate, C12H23F6N2P, InChI=1S/C12H23N2.F6P/c1-3-4-5-6-7-8-9-14-11-10-13(2)12-14;1-7(2,3,4,5)6/h10-12H,3-9H2,1-2H3;/q+1;-1, purity 98%
Compound 4: tetrahydrofuran, C4H8O, InChI=1S/C4H8O/c1-2-4-5-3-1/h1-4H2, purity 99%

System: 1-butyl-3-methylimidazolium hexafluorophosphate; phases: Liquid
Fixed: Pressure, kPa = 100.7
Property: Mass density, kg/m3 (Liquid); method: Vibrating tube method
Temperature, K	Mass density, kg/m3	uncertainty
293.15	1370.414	2.225
298.15	1366.263	2.218
303.15	1362.133	2.211
308.15	1357.857	2.204
313.15	1353.883	2.198
318.15	1349.885	2.191
323.15	1345.565	2.184

System: 1-butyl-3-methylimidazolium hexafluorophosphate; phases: Liquid
Fixed: Pressure, kPa = 100.7
Fixed: Frequency, MHz = 3
Property: Speed of sound, m/s (Liquid); method: Sing-around technique in a fixed-path interferometer
Temperature, K	Speed of sound, m/s	uncertainty
293.15	1454.62	2.91
298.15	1442.3	2.91
303.15	1430.2	2.91
308.15	1418.36	2.91
313.15	1406.7	2.91
318.15	1395.23	2.91
323.15	1384.08	2.91

System: 1-butyl-3-methylimidazolium hexafluorophosphate; phases: Liquid
Fixed: Pressure, kPa = 100.7
Property: Refractive index (Na D-line) (Liquid); method: Standard Abbe refractometry
Temperature, K	Refractive index (Na D-line)	uncertainty
293.15	1.41068	0.00167
298.15	1.40943	0.00167
303.15	1.40818	0.00167
308.15	1.40693	0.00167
313.15	1.40567	0.00167
318.15	1.40443	0.00167
323.15	1.40312	0.00167

System: 1-hexyl-3-methylimidazolium hexafluorophosphate; phases: Liquid
Fixed: Pressure, kPa = 100.7
Property: Mass density, kg/m3 (Liquid); method: Vibrating tube method
Temperature, K	Mass density, kg/m3	uncertainty
293.15	1296.723	2.109
298.15	1292.624	2.103
303.15	1288.612	2.097
308.15	1284.724	2.092
313.15	1280.815	2.086
318.15	1276.368	2.08
323.15	1272.448	2.074

System: 1-hexyl-3-methylimidazolium hexafluorophosphate; phases: Liquid
Fixed: Pressure, kPa = 100.7
Fixed: Frequency, MHz = 3
Property: Speed of sound, m/s (Liquid); method: Sing-around technique in a fixed-path interferometer
Temperature, K	Speed of sound, m/s	uncertainty
293.15	1437.74	2.91
298.15	1424.35	2.91
303.15	1411.45	2.91
308.15	1399	2.91
313.15	1386.86	2.91
318.15	1374.98	2.91
323.15	1363.29	2.91

System: 1-hexyl-3-methylimidazolium hexafluorophosphate; phases: Liquid
Fixed: Pressure, kPa = 100.7
Property: Refractive index (Na D-line) (Liquid); method: Standard Abbe refractometry
Temperature, K	Refractive index (Na D-line)	uncertainty
293.15	1.41958	0.00167
298.15	1.41832	0.00167
303.15	1.41692	0.00167
308.15	1.41564	0.00167
313.15	1.41422	0.00167
318.15	1.41306	0.00167
323.15	1.41175	0.00167

System: 1-octyl-3-methylimidazolium hexafluorophosphate; phases: Liquid
Fixed: Pressure, kPa = 100.7
Property: Mass density, kg/m3 (Liquid); method: Vibrating tube method
Temperature, K	Mass density, kg/m3	uncertainty
293.15	1238.765	2.028
298.15	1234.786	2.023
303.15	1230.836	2.017
308.15	1227.089	2.012
313.15	1223.298	2.007
318.15	1219.502	2.003
323.15	1215.416	1.997

System: 1-octyl-3-methylimidazolium hexafluorophosphate; phases: Liquid
Fixed: Pressure, kPa = 100.7
Fixed: Frequency, MHz = 3
Property: Speed of sound, m/s (Liquid); method: Sing-around technique in a fixed-path interferometer
Temperature, K	Speed of sound, m/s	uncertainty
293.15	1421.23	2.92
298.15	1406.45	2.91
303.15	1392.41	2.91
308.15	1378.98	2.91
313.15	1365.81	2.91
318.15	1351.24	2.91
323.15	1338	2.91

System: 1-octyl-3-methylimidazolium hexafluorophosphate; phases: Liquid
Fixed: Pressure, kPa = 100.7
Property: Refractive index (Na D-line) (Liquid); method: Standard Abbe refractometry
Temperature, K	Refractive index (Na D-line)	uncertainty
293.15	1.42441	0.00167
298.15	1.42312	0.00167
303.15	1.42171	0.00167
308.15	1.42029	0.00167
313.15	1.41888	0.00167
318.15	1.4175	0.00167
323.15	1.41601	0.00167

System: tetrahydrofuran; phases: Liquid
Fixed: Pressure, kPa = 100.7
Property: Mass density, kg/m3 (Liquid); method: Vibrating tube method
Temperature, K	Mass density, kg/m3	uncertainty
293.15	888.766	1.61
298.15	883.297	1.61
303.15	877.809	1.61
308.15	872.279	1.61
313.15	866.713	1.61
318.15	861.106	1.61
323.15	855.456	1.61

System: tetrahydrofuran; phases: Liquid
Fixed: Pressure, kPa = 100.7
Fixed: Frequency, MHz = 3
Property: Speed of sound, m/s (Liquid); method: Sing-around technique in a fixed-path interferometer
Temperature, K	Speed of sound, m/s	uncertainty
293.15	1305	2.26
298.15	1280.82	2.25
303.15	1256.8	2.25
308.15	1232.88	2.25
313.15	1209.17	2.24
318.15	1185.68	2.24
323.15	1162.31	2.24

System: tetrahydrofuran; phases: Liquid
Fixed: Pressure, kPa = 100.7
Property: Refractive index (Na D-line) (Liquid); method: Standard Abbe refractometry
Temperature, K	Refractive index (Na D-line)	uncertainty
293.15	1.40696	0.00163
298.15	1.4042	0.00163
303.15	1.40157	0.00163
308.15	1.39885	0.00163
313.15	1.39623	0.00163
318.15	1.39349	0.00163
323.15	1.39083	0.00163

System: tetrahydrofuran + 1-butyl-3-methylimidazolium hexafluorophosphate; phases: Liquid
Fixed: Pressure, kPa = 100.7
Property: Mass density, kg/m3 (Liquid); method: Vibrating tube method
Mole fraction of 1-butyl-3-methylimidazolium hexafluorophosphate	Temperature, K	Mass density, kg/m3	uncertainty
0	293.15	888.766	1.61
0.0871	293.15	995.952	1.626
0.1801	293.15	1081.836	1.629
0.2893	293.15	1156.124	1.647
0.3939	293.15	1209.169	1.677
0.4994	293.15	1250.518	1.723
0.5709	293.15	1274.06	1.764
0.7163	293.15	1313.422	1.877
0.8069	293.15	1333.965	1.968
0.9012	293.15	1352.777	2.083
1	293.15	1370.414	2.225
0	298.15	883.297	1.61
0.0871	298.15	993.083	1.623
0.1801	298.15	1078.667	1.626
0.2893	298.15	1153.55	1.645
0.3939	298.15	1206.51	1.676
0.4994	298.15	1247.949	1.723
0.5709	298.15	1270.991	1.763
0.7163	298.15	1309.953	1.874
0.8069	298.15	1330.596	1.965
0.9012	298.15	1349.008	2.078
1	298.15	1366.263	2.218
0	303.15	877.809	1.61
0.0871	303.15	989.595	1.623
0.1801	303.15	1076.179	1.626
0.2893	303.15	1151.062	1.645
0.3939	303.15	1204.022	1.676
0.4994	303.15	1245.061	1.722
0.5709	303.15	1268.403	1.762
0.7163	303.15	1306.965	1.872
0.8069	303.15	1327.008	1.961
0.9012	303.15	1345.272	2.073
1	303.15	1362.133	2.211
0	308.15	872.279	1.61
0.0871	308.15	986.865	1.624
0.1801	308.15	1073.649	1.626
0.2893	308.15	1148.532	1.645
0.3939	308.15	1201.492	1.675
0.4994	308.15	1242.031	1.72
0.5709	308.15	1265.073	1.76
0.7163	308.15	1303.835	1.869
0.8069	308.15	1323.778	1.958
0.9012	308.15	1341.442	2.068
1	308.15	1357.857	2.204
0	313.15	866.713	1.61
0.0871	313.15	983.099	1.625
0.1801	313.15	1072.083	1.626
0.2893	313.15	1145.966	1.644
0.3939	313.15	1198.826	1.674
0.4994	313.15	1239.665	1.719
0.5709	313.15	1261.907	1.758
0.7163	313.15	1300.269	1.866
0.8069	313.15	1320.112	1.954
0.9012	313.15	1337.576	2.063
1	313.15	1353.883	2.198
0	318.15	861.106	1.61
0.0871	318.15	979.072	1.625
0.1801	318.15	1069.066	1.626
0.2893	318.15	1144.859	1.643
0.3939	318.15	1197.019	1.673
0.4994	318.15	1238.258	1.718
0.5709	318.15	1259.524	1.757
0.7163	318.15	1297.602	1.864
0.8069	318.15	1316.655	1.95
0.9012	318.15	1333.969	2.058
1	318.15	1349.885	2.191
0	323.15	855.456	1.61
0.0871	323.15	974.942	1.654
0.1801	323.15	1067.026	1.642
0.2893	323.15	1143.59	1.652
0.3939	323.15	1195.569	1.676
0.4994	323.15	1235.58	1.719
0.5709	323.15	1256.95	1.756
0.7163	323.15	1294.512	1.863
0.8069	323.15	1312.855	1.947
0.9012	323.15	1329.919	2.054
1	323.15	1345.565	2.184

System: tetrahydrofuran + 1-butyl-3-methylimidazolium hexafluorophosphate; phases: Liquid
Fixed: Pressure, kPa = 100.7
Fixed: Frequency, MHz = 3
Property: Speed of sound, m/s (Liquid); method: Sing-around technique in a fixed-path interferometer
Mole fraction of 1-butyl-3-methylimidazolium hexafluorophosphate	Temperature, K	Speed of sound, m/s	uncertainty
0	293.15	1305	2.26
0.0871	293.15	1325.25	2.28
0.1801	293.15	1346.35	2.32
0.2893	293.15	1370.23	2.37
0.3939	293.15	1390.08	2.44
0.4994	293.15	1405.58	2.51
0.5709	293.15	1414.28	2.56
0.7163	293.15	1431.08	2.67
0.8069	293.15	1439.12	2.74
0.9012	293.15	1447.92	2.82
1	293.15	1454.62	2.91
0	298.15	1280.82	2.25
0.0871	298.15	1305.72	2.28
0.1801	298.15	1329.44	2.31
0.2893	298.15	1354.8	2.38
0.3939	298.15	1375.21	2.44
0.4994	298.15	1391.68	2.51
0.5709	298.15	1400.28	2.56
0.7163	298.15	1419.21	2.67
0.8069	298.15	1428.78	2.74
0.9012	298.15	1436.51	2.82
1	298.15	1442.3	2.91
0	303.15	1256.8	2.25
0.0871	303.15	1286.11	2.28
0.1801	303.15	1313.51	2.32
0.2893	303.15	1337.92	2.37
0.3939	303.15	1359.34	2.44
0.4994	303.15	1375.69	2.51
0.5709	303.15	1386.62	2.56
0.7163	303.15	1406.19	2.67
0.8069	303.15	1416.42	2.74
0.9012	303.15	1425.11	2.82
1	303.15	1430.2	2.91
0	308.15	1232.88	2.25
0.0871	308.15	1264.21	2.28
0.1801	308.15	1294.6	2.32
0.2893	308.15	1322.89	2.37
0.3939	308.15	1344.42	2.44
0.4994	308.15	1362.91	2.51
0.5709	308.15	1374.21	2.56
0.7163	308.15	1394.36	2.67
0.8069	308.15	1404.51	2.74
0.9012	308.15	1414.81	2.83
1	308.15	1418.36	2.91
0	313.15	1209.17	2.24
0.0871	313.15	1243.51	2.28
0.1801	313.15	1276.92	2.31
0.2893	313.15	1306.32	2.37
0.3939	313.15	1329.72	2.44
0.4994	313.15	1347.18	2.51
0.5709	313.15	1358.42	2.56
0.7163	313.15	1380.92	2.67
0.8069	313.15	1392.81	2.74
0.9012	313.15	1398.89	2.82
1	313.15	1406.7	2.91
0	318.15	1185.68	2.24
0.0871	318.15	1220.89	2.28
0.1801	318.15	1258.41	2.31
0.2893	318.15	1289.62	2.37
0.3939	318.15	1313.89	2.44
0.4994	318.15	1332.98	2.5
0.5709	318.15	1344.02	2.56
0.7163	318.15	1367.31	2.67
0.8069	318.15	1380.32	2.74
0.9012	318.15	1389.48	2.82
1	318.15	1395.23	2.91
0	323.15	1162.31	2.24
0.0871	323.15	1200.61	2.27
0.1801	323.15	1239.88	2.33
0.2893	323.15	1272.24	2.38
0.3939	323.15	1295.56	2.44
0.4994	323.15	1319.49	2.51
0.5709	323.15	1330.62	2.55
0.7163	323.15	1355.41	2.67
0.8069	323.15	1368.52	2.74
0.9012	323.15	1378.62	2.82
1	323.15	1384.08	2.91

System: tetrahydrofuran + 1-butyl-3-methylimidazolium hexafluorophosphate; phases: Liquid
Fixed: Pressure, kPa = 100.7
Property: Refractive index (Na D-line) (Liquid); method: Standard Abbe refractometry
Mole fraction of 1-butyl-3-methylimidazolium hexafluorophosphate	Temperature, K	Refractive index (Na D-line)	uncertainty
0	293.15	1.40696	0.00163
0.0871	293.15	1.41126	0.00163
0.1801	293.15	1.41369	0.00164
0.2893	293.15	1.41462	0.00164
0.3939	293.15	1.41441	0.00164
0.4994	293.15	1.41373	0.00165
0.5709	293.15	1.41332	0.00165
0.7163	293.15	1.41236	0.00166
0.8069	293.15	1.41205	0.00166
0.9012	293.15	1.41131	0.00167
1	293.15	1.41068	0.00167
0	298.15	1.4042	0.00163
0.0871	298.15	1.40906	0.00163
0.1801	298.15	1.41157	0.00164
0.2893	298.15	1.41279	0.00164
0.3939	298.15	1.41273	0.00164
0.4994	298.15	1.41208	0.00165
0.5709	298.15	1.4117	0.00165
0.7163	298.15	1.41089	0.00166
0.8069	298.15	1.41059	0.00166
0.9012	298.15	1.41014	0.00167
1	298.15	1.40943	0.00167
0	303.15	1.40157	0.00163
0.0871	303.15	1.40701	0.00163
0.1801	303.15	1.40957	0.00164
0.2893	303.15	1.41105	0.00164
0.3939	303.15	1.41113	0.00164
0.4994	303.15	1.41065	0.00165
0.5709	303.15	1.41025	0.00165
0.7163	303.15	1.40964	0.00166
0.8069	303.15	1.40935	0.00166
0.9012	303.15	1.40895	0.00167
1	303.15	1.40818	0.00167
0	308.15	1.39885	0.00163
0.0871	308.15	1.40475	0.00163
0.1801	308.15	1.40747	0.00164
0.2893	308.15	1.40915	0.00164
0.3939	308.15	1.40938	0.00164
0.4994	308.15	1.4092	0.00165
0.5709	308.15	1.40877	0.00165
0.7163	308.15	1.40818	0.00166
0.8069	308.15	1.40793	0.00166
0.9012	308.15	1.40778	0.00167
1	308.15	1.40693	0.00167
0	313.15	1.39623	0.00163
0.0871	313.15	1.40262	0.00163
0.1801	313.15	1.40554	0.00164
0.2893	313.15	1.40754	0.00164
0.3939	313.15	1.40784	0.00164
0.4994	313.15	1.40779	0.00165
0.5709	313.15	1.40748	0.00165
0.7163	313.15	1.40693	0.00166
0.8069	313.15	1.40681	0.00166
0.9012	313.15	1.40666	0.00167
1	313.15	1.40567	0.00167
0	318.15	1.39349	0.00163
0.0871	318.15	1.40012	0.00163
0.1801	318.15	1.40345	0.00164
0.2893	318.15	1.40558	0.00164
0.3939	318.15	1.40611	0.00164
0.4994	318.15	1.40619	0.00165
0.5709	318.15	1.40595	0.00165
0.7163	318.15	1.40552	0.00166
0.8069	318.15	1.40541	0.00166
0.9012	318.15	1.40525	0.00167
1	318.15	1.40443	0.00167
0	323.15	1.39083	0.00163
0.0871	323.15	1.39781	0.00163
0.1801	323.15	1.40139	0.00164
0.2893	323.15	1.40377	0.00164
0.3939	323.15	1.40455	0.00164
0.4994	323.15	1.40451	0.00165
0.5709	323.15	1.40452	0.00165
0.7163	323.15	1.40428	0.00166
0.8069	323.15	1.40425	0.00166
0.9012	323.15	1.40393	0.00167
1	323.15	1.40312	0.00167

System: tetrahydrofuran + 1-hexyl-3-methylimidazolium hexafluorophosphate; phases: Liquid
Fixed: Pressure, kPa = 100.7
Property: Mass density, kg/m3 (Liquid); method: Vibrating tube method
Mole fraction of 1-hexyl-3-methylimidazolium hexafluorophosphate	Temperature, K	Mass density, kg/m3	uncertainty
0	293.15	888.766	1.61
0.1036	293.15	1001.33	1.623
0.2002	293.15	1074.849	1.625
0.2868	293.15	1123.689	1.637
0.4134	293.15	1175.923	1.671
0.5222	293.15	1209.221	1.713
0.6239	293.15	1233.915	1.767
0.6951	293.15	1248.828	1.813
0.7978	293.15	1267.154	1.894
0.8953	293.15	1282.618	1.988
1	293.15	1296.723	2.109
0	298.15	883.297	1.61
0.1036	298.15	996.523	1.621
0.2002	298.15	1070.096	1.627
0.2868	298.15	1119.025	1.639
0.4134	298.15	1171.433	1.672
0.5222	298.15	1204.925	1.713
0.6239	298.15	1229.783	1.765
0.6951	298.15	1244.722	1.811
0.7978	298.15	1263.018	1.891
0.8953	298.15	1278.551	1.984
1	298.15	1292.624	2.103
0	303.15	877.809	1.61
0.1036	303.15	991.33	1.622
0.2002	303.15	1065.156	1.627
0.2868	303.15	1114.114	1.639
0.4134	303.15	1166.923	1.67
0.5222	303.15	1200.494	1.711
0.6239	303.15	1225.491	1.763
0.6951	303.15	1240.345	1.808
0.7978	303.15	1258.873	1.887
0.8953	303.15	1274.544	1.979
1	303.15	1288.612	2.097
0	308.15	872.279	1.61
0.1036	308.15	986.423	1.621
0.2002	308.15	1060.209	1.626
0.2868	308.15	1109.469	1.638
0.4134	308.15	1162.507	1.669
0.5222	308.15	1196.523	1.709
0.6239	308.15	1221.414	1.76
0.6951	308.15	1236.276	1.805
0.7978	308.15	1255.024	1.883
0.8953	308.15	1270.735	1.975
1	308.15	1284.724	2.092
0	313.15	866.713	1.61
0.1036	313.15	981.583	1.622
0.2002	313.15	1055.557	1.625
0.2868	313.15	1105.017	1.637
0.4134	313.15	1158.193	1.668
0.5222	313.15	1192.161	1.708
0.6239	313.15	1217.233	1.758
0.6951	313.15	1232.345	1.802
0.7978	313.15	1251.075	1.88
0.8953	313.15	1266.847	1.971
1	313.15	1280.815	2.086
0	318.15	861.106	1.61
0.1036	318.15	976.176	1.622
0.2002	318.15	1050.65	1.625
0.2868	318.15	1100.21	1.636
0.4134	318.15	1153.586	1.667
0.5222	318.15	1187.554	1.706
0.6239	318.15	1212.626	1.756
0.6951	318.15	1227.993	1.799
0.7978	318.15	1246.868	1.876
0.8953	318.15	1262.744	1.966
1	318.15	1276.368	2.08
0	323.15	855.456	1.61
0.1036	323.15	971.026	1.652
0.2002	323.15	1045.825	1.636
0.2868	323.15	1095.6	1.645
0.4134	323.15	1148.936	1.672
0.5222	323.15	1183.504	1.707
0.6239	323.15	1208.576	1.754
0.6951	323.15	1224.203	1.797
0.7978	323.15	1243.018	1.873
0.8953	323.15	1258.694	1.962
1	323.15	1272.448	2.074

System: tetrahydrofuran + 1-hexyl-3-methylimidazolium hexafluorophosphate; phases: Liquid
Fixed: Pressure, kPa = 100.7
Fixed: Frequency, MHz = 3
Property: Speed of sound, m/s (Liquid); method: Sing-around technique in a fixed-path interferometer
Mole fraction of 1-hexyl-3-methylimidazolium hexafluorophosphate	Temperature, K	Speed of sound, m/s	uncertainty
0	293.15	1305	2.26
0.1036	293.15	1328.68	2.29
0.2002	293.15	1349.25	2.33
0.2868	293.15	1366.59	2.38
0.4134	293.15	1385.39	2.45
0.5222	293.15	1398.16	2.53
0.6239	293.15	1408.82	2.6
0.6951	293.15	1414.68	2.66
0.7978	293.15	1423.69	2.74
0.8953	293.15	1430.38	2.82
1	293.15	1437.74	2.91
0	298.15	1280.82	2.25
0.1036	298.15	1308.75	2.29
0.2002	298.15	1330.92	2.33
0.2868	298.15	1348.81	2.38
0.4134	298.15	1370.04	2.46
0.5222	298.15	1383.32	2.53
0.6239	298.15	1394.56	2.6
0.6951	298.15	1400.12	2.66
0.7978	298.15	1409.78	2.74
0.8953	298.15	1417.11	2.82
1	298.15	1424.35	2.91
0	303.15	1256.8	2.25
0.1036	303.15	1287.52	2.29
0.2002	303.15	1311.69	2.33
0.2868	303.15	1331.23	2.38
0.4134	303.15	1352.92	2.45
0.5222	303.15	1367.7	2.53
0.6239	303.15	1379.71	2.6
0.6951	303.15	1386.43	2.65
0.7978	303.15	1395.78	2.74
0.8953	303.15	1403.83	2.82
1	303.15	1411.45	2.91
0	308.15	1232.88	2.25
0.1036	308.15	1267.33	2.28
0.2002	308.15	1293.64	2.33
0.2868	308.15	1314.34	2.37
0.4134	308.15	1338.15	2.45
0.5222	308.15	1353.71	2.52
0.6239	308.15	1365.43	2.6
0.6951	308.15	1372.3	2.65
0.7978	308.15	1382.09	2.74
0.8953	308.15	1390.86	2.82
1	308.15	1399	2.91
0	313.15	1209.17	2.24
0.1036	313.15	1247.03	2.28
0.2002	313.15	1275.67	2.32
0.2868	313.15	1297.96	2.37
0.4134	313.15	1322.58	2.45
0.5222	313.15	1339.19	2.52
0.6239	313.15	1351.88	2.6
0.6951	313.15	1358.41	2.65
0.7978	313.15	1369.66	2.73
0.8953	313.15	1379.63	2.81
1	313.15	1386.86	2.91
0	318.15	1185.68	2.24
0.1036	318.15	1226.83	2.28
0.2002	318.15	1257.78	2.32
0.2868	318.15	1281.69	2.37
0.4134	318.15	1307.32	2.45
0.5222	318.15	1324.08	2.52
0.6239	318.15	1337.79	2.6
0.6951	318.15	1345.69	2.65
0.7978	318.15	1357.36	2.73
0.8953	318.15	1367.67	2.81
1	318.15	1374.98	2.91
0	323.15	1162.31	2.24
0.1036	323.15	1207.54	2.29
0.2002	323.15	1240.59	2.32
0.2868	323.15	1265.73	2.38
0.4134	323.15	1291.24	2.45
0.5222	323.15	1309.18	2.52
0.6239	323.15	1323.82	2.6
0.6951	323.15	1332.82	2.65
0.7978	323.15	1345.32	2.73
0.8953	323.15	1355.62	2.82
1	323.15	1363.29	2.91

System: tetrahydrofuran + 1-hexyl-3-methylimidazolium hexafluorophosphate; phases: Liquid
Fixed: Pressure, kPa = 100.7
Property: Refractive index (Na D-line) (Liquid); method: Standard Abbe refractometry
Mole fraction of 1-hexyl-3-methylimidazolium hexafluorophosphate	Temperature, K	Refractive index (Na D-line)	uncertainty
0	293.15	1.40696	0.00163
0.1036	293.15	1.416	0.00163
0.2002	293.15	1.41971	0.00164
0.2868	293.15	1.42081	0.00164
0.4134	293.15	1.42058	0.00164
0.5222	293.15	1.41962	0.00165
0.6239	293.15	1.41895	0.00165
0.6951	293.15	1.41874	0.00166
0.7978	293.15	1.41868	0.00166
0.8953	293.15	1.41858	0.00167
1	293.15	1.41958	0.00167
0	298.15	1.4042	0.00163
0.1036	298.15	1.41392	0.00163
0.2002	298.15	1.41772	0.00164
0.2868	298.15	1.41878	0.00164
0.4134	298.15	1.41884	0.00164
0.5222	298.15	1.41828	0.00165
0.6239	298.15	1.41755	0.00165
0.6951	298.15	1.41759	0.00166
0.7978	298.15	1.41752	0.00166
0.8953	298.15	1.41756	0.00167
1	298.15	1.41832	0.00167
0	303.15	1.40157	0.00163
0.1036	303.15	1.41184	0.00163
0.2002	303.15	1.41573	0.00164
0.2868	303.15	1.41707	0.00164
0.4134	303.15	1.4171	0.00164
0.5222	303.15	1.41694	0.00165
0.6239	303.15	1.41615	0.00165
0.6951	303.15	1.41644	0.00166
0.7978	303.15	1.41636	0.00166
0.8953	303.15	1.41654	0.00167
1	303.15	1.41692	0.00167
0	308.15	1.39885	0.00163
0.1036	308.15	1.40966	0.00163
0.2002	308.15	1.41374	0.00164
0.2868	308.15	1.41536	0.00164
0.4134	308.15	1.41556	0.00164
0.5222	308.15	1.41536	0.00165
0.6239	308.15	1.41475	0.00165
0.6951	308.15	1.41509	0.00166
0.7978	308.15	1.41512	0.00166
0.8953	308.15	1.41552	0.00167
1	308.15	1.41564	0.00167
0	313.15	1.39623	0.00163
0.1036	313.15	1.40748	0.00163
0.2002	313.15	1.41175	0.00164
0.2868	313.15	1.41365	0.00164
0.4134	313.15	1.41402	0.00164
0.5222	313.15	1.41378	0.00165
0.6239	313.15	1.41335	0.00165
0.6951	313.15	1.41374	0.00166
0.7978	313.15	1.41388	0.00166
0.8953	313.15	1.4145	0.00167
1	313.15	1.41422	0.00167
0	318.15	1.39349	0.00163
0.1036	318.15	1.4053	0.00163
0.2002	318.15	1.40976	0.00164
0.2868	318.15	1.41194	0.00164
0.4134	318.15	1.41248	0.00164
0.5222	318.15	1.4122	0.00165
0.6239	318.15	1.41195	0.00165
0.6951	318.15	1.41239	0.00166
0.7978	318.15	1.41264	0.00166
0.8953	318.15	1.41348	0.00167
1	318.15	1.41306	0.00167
0	323.15	1.39083	0.00163
0.1036	323.15	1.40312	0.00164
0.2002	323.15	1.40777	0.00164
0.2868	323.15	1.41023	0.00164
0.4134	323.15	1.41094	0.00164
0.5222	323.15	1.41062	0.00165
0.6239	323.15	1.41055	0.00165
0.6951	323.15	1.41104	0.00166
0.7978	323.15	1.4114	0.00166
0.8953	323.15	1.41246	0.00167
1	323.15	1.41175	0.00167

System: tetrahydrofuran + 1-octyl-3-methylimidazolium hexafluorophosphate; phases: Liquid
Fixed: Pressure, kPa = 100.7
Property: Mass density, kg/m3 (Liquid); method: Vibrating tube method
Mole fraction of 1-octyl-3-methylimidazolium hexafluorophosphate	Temperature, K	Mass density, kg/m3	uncertainty
0	293.15	888.766	1.61
0.0767	293.15	972.545	1.62
0.1791	293.15	1048.055	1.621
0.2783	293.15	1097.51	1.632
0.3996	293.15	1139.515	1.657
0.5198	293.15	1169.49	1.696
0.612	293.15	1187.49	1.736
0.6957	293.15	1201.252	1.781
0.7754	293.15	1212.525	1.832
0.8991	293.15	1227.922	1.93
1	293.15	1238.765	2.028
0	298.15	883.297	1.61
0.0767	298.15	967.476	1.62
0.1791	298.15	1043.386	1.622
0.2783	298.15	1092.941	1.633
0.3996	298.15	1135.151	1.658
0.5198	298.15	1165.321	1.696
0.612	298.15	1183.351	1.735
0.6957	298.15	1197.123	1.779
0.7754	298.15	1208.521	1.829
0.8991	298.15	1223.831	1.926
1	298.15	1234.786	2.023
0	303.15	877.809	1.61
0.0767	303.15	962.388	1.62
0.1791	303.15	1038.588	1.622
0.2783	303.15	1088.353	1.633
0.3996	303.15	1130.863	1.657
0.5198	303.15	1161.033	1.694
0.612	303.15	1179.133	1.733
0.6957	303.15	1193.035	1.776
0.7754	303.15	1204.523	1.826
0.8991	303.15	1219.783	1.921
1	303.15	1230.836	2.017
0	308.15	872.279	1.61
0.0767	308.15	957.488	1.62
0.1791	308.15	1033.768	1.621
0.2783	308.15	1083.823	1.632
0.3996	308.15	1126.533	1.656
0.5198	308.15	1157.003	1.693
0.612	308.15	1175.283	1.731
0.6957	308.15	1189.105	1.774
0.7754	308.15	1200.623	1.823
0.8991	308.15	1216.135	1.917
1	308.15	1227.089	2.012
0	313.15	866.713	1.61
0.0767	313.15	952.422	1.62
0.1791	313.15	1028.902	1.621
0.2783	313.15	1079.257	1.631
0.3996	313.15	1122.167	1.655
0.5198	313.15	1152.837	1.691
0.612	313.15	1171.217	1.729
0.6957	313.15	1185.139	1.771
0.7754	313.15	1196.647	1.82
0.8991	313.15	1212.369	1.914
1	313.15	1223.298	2.007
0	318.15	861.106	1.61
0.0767	318.15	947.162	1.62
0.1791	318.15	1024.039	1.621
0.2783	318.15	1074.694	1.631
0.3996	318.15	1117.754	1.655
0.5198	318.15	1148.574	1.69
0.612	318.15	1167.054	1.727
0.6957	318.15	1181.012	1.769
0.7754	318.15	1192.684	1.817
0.8991	318.15	1208.438	1.91
1	318.15	1219.502	2.003
0	323.15	855.456	1.61
0.0767	323.15	941.999	1.649
0.1791	323.15	1019.033	1.638
0.2783	323.15	1069.888	1.641
0.3996	323.15	1113.098	1.66
0.5198	323.15	1144.068	1.691
0.612	323.15	1162.608	1.726
0.6957	323.15	1176.742	1.767
0.7754	323.15	1188.628	1.814
0.8991	323.15	1204.282	1.906
1	323.15	1215.416	1.997

System: tetrahydrofuran + 1-octyl-3-methylimidazolium hexafluorophosphate; phases: Liquid
Fixed: Pressure, kPa = 100.7
Fixed: Frequency, MHz = 3
Property: Speed of sound, m/s (Liquid); method: Sing-around technique in a fixed-path interferometer
Mole fraction of 1-octyl-3-methylimidazolium hexafluorophosphate	Temperature, K	Speed of sound, m/s	uncertainty
0	293.15	1305	2.26
0.0767	293.15	1319.08	2.28
0.1791	293.15	1338.42	2.32
0.2783	293.15	1356.05	2.37
0.3996	293.15	1371.45	2.44
0.5198	293.15	1384.12	2.53
0.612	293.15	1392.15	2.59
0.6957	293.15	1399.02	2.66
0.7754	293.15	1405.21	2.72
0.8991	293.15	1414.05	2.83
1	293.15	1421.23	2.92
0	298.15	1280.82	2.25
0.0767	298.15	1297.51	2.28
0.1791	298.15	1320.25	2.32
0.2783	298.15	1339.23	2.37
0.3996	298.15	1355.54	2.44
0.5198	298.15	1368.63	2.53
0.612	298.15	1376.82	2.59
0.6957	298.15	1383.94	2.66
0.7754	298.15	1390.46	2.72
0.8991	298.15	1399.85	2.82
1	298.15	1406.45	2.91
0	303.15	1256.8	2.25
0.0767	303.15	1276.54	2.27
0.1791	303.15	1302.58	2.32
0.2783	303.15	1322.48	2.37
0.3996	303.15	1340.06	2.44
0.5198	303.15	1353.16	2.52
0.612	303.15	1361.88	2.59
0.6957	303.15	1369.21	2.65
0.7754	303.15	1376.06	2.72
0.8991	303.15	1385.82	2.82
1	303.15	1392.41	2.91
0	308.15	1232.88	2.25
0.0767	308.15	1254.85	2.28
0.1791	308.15	1283.36	2.32
0.2783	308.15	1304.24	2.37
0.3996	308.15	1323.25	2.44
0.5198	308.15	1338.35	2.52
0.612	308.15	1347.76	2.59
0.6957	308.15	1355.35	2.65
0.7754	308.15	1362.15	2.72
0.8991	308.15	1371.29	2.82
1	308.15	1378.98	2.91
0	313.15	1209.17	2.24
0.0767	313.15	1231.14	2.28
0.1791	313.15	1263.65	2.32
0.2783	313.15	1286.53	2.37
0.3996	313.15	1309.54	2.44
0.5198	313.15	1324.64	2.52
0.612	313.15	1334.05	2.59
0.6957	313.15	1341.64	2.65
0.7754	313.15	1348.44	2.72
0.8991	313.15	1357.58	2.82
1	313.15	1365.81	2.91
0	318.15	1185.68	2.24
0.0767	318.15	1208.97	2.27
0.1791	318.15	1242.37	2.32
0.2783	318.15	1268.73	2.37
0.3996	318.15	1292.12	2.44
0.5198	318.15	1309.31	2.52
0.612	318.15	1319.65	2.59
0.6957	318.15	1327.02	2.65
0.7754	318.15	1333.41	2.72
0.8991	318.15	1342.67	2.82
1	318.15	1351.24	2.91
0	323.15	1162.31	2.24
0.0767	323.15	1185.67	2.27
0.1791	323.15	1222.61	2.32
0.2783	323.15	1250.7	2.38
0.3996	323.15	1276.21	2.44
0.5198	323.15	1294.43	2.52
0.612	323.15	1305.27	2.59
0.6957	323.15	1313.05	2.65
0.7754	323.15	1319.18	2.71
0.8991	323.15	1329.78	2.82
1	323.15	1338	2.91

System: tetrahydrofuran + 1-octyl-3-methylimidazolium hexafluorophosphate; phases: Liquid
Fixed: Pressure, kPa = 100.7
Property: Refractive index (Na D-line) (Liquid); method: Standard Abbe refractometry
Mole fraction of 1-octyl-3-methylimidazolium hexafluorophosphate	Temperature, K	Refractive index (Na D-line)	uncertainty
0	293.15	1.40696	0.00163
0.0767	293.15	1.41505	0.00163
0.1791	293.15	1.4205	0.00164
0.2783	293.15	1.42326	0.00164
0.3996	293.15	1.42412	0.00164
0.5198	293.15	1.42414	0.00165
0.612	293.15	1.42411	0.00165
0.6957	293.15	1.42421	0.00166
0.7754	293.15	1.42432	0.00166
0.8991	293.15	1.42436	0.00167
1	293.15	1.42441	0.00167
0	298.15	1.4042	0.00163
0.0767	298.15	1.41278	0.00163
0.1791	298.15	1.41848	0.00164
0.2783	298.15	1.42126	0.00164
0.3996	298.15	1.42242	0.00164
0.5198	298.15	1.42258	0.00165
0.612	298.15	1.42272	0.00165
0.6957	298.15	1.42284	0.00166
0.7754	298.15	1.42306	0.00166
0.8991	298.15	1.42329	0.00167
1	298.15	1.42312	0.00167
0	303.15	1.40157	0.00163
0.0767	303.15	1.41061	0.00163
0.1791	303.15	1.41646	0.00164
0.2783	303.15	1.41956	0.00164
0.3996	303.15	1.42076	0.00164
0.5198	303.15	1.42102	0.00165
0.612	303.15	1.42123	0.00165
0.6957	303.15	1.42161	0.00166
0.7754	303.15	1.42189	0.00166
0.8991	303.15	1.42202	0.00167
1	303.15	1.42171	0.00167
0	308.15	1.39885	0.00163
0.0767	308.15	1.40824	0.00163
0.1791	308.15	1.41452	0.00164
0.2783	308.15	1.41786	0.00164
0.3996	308.15	1.4191	0.00164
0.5198	308.15	1.41946	0.00165
0.612	308.15	1.41974	0.00165
0.6957	308.15	1.42018	0.00166
0.7754	308.15	1.42042	0.00166
0.8991	308.15	1.42085	0.00167
1	308.15	1.42029	0.00167
0	313.15	1.39623	0.00163
0.0767	313.15	1.40587	0.00163
0.1791	313.15	1.41284	0.00164
0.2783	313.15	1.41616	0.00164
0.3996	313.15	1.41744	0.00164
0.5198	313.15	1.4179	0.00165
0.612	313.15	1.41825	0.00165
0.6957	313.15	1.41865	0.00166
0.7754	313.15	1.41915	0.00166
0.8991	313.15	1.41958	0.00167
1	313.15	1.41888	0.00167
0	318.15	1.39349	0.00163
0.0767	318.15	1.4035	0.00163
0.1791	318.15	1.41116	0.00164
0.2783	318.15	1.41446	0.00164
0.3996	318.15	1.41578	0.00164
0.5198	318.15	1.41634	0.00165
0.612	318.15	1.41676	0.00165
0.6957	318.15	1.41712	0.00166
0.7754	318.15	1.41788	0.00166
0.8991	318.15	1.41831	0.00167
1	318.15	1.4175	0.00167
0	323.15	1.39083	0.00163
0.0767	323.15	1.40113	0.00163
0.1791	323.15	1.40948	0.00164
0.2783	323.15	1.41276	0.00164
0.3996	323.15	1.41412	0.00164
0.5198	323.15	1.41478	0.00165
0.612	323.15	1.41527	0.00165
0.6957	323.15	1.41559	0.00166
0.7754	323.15	1.41661	0.00166
0.8991	323.15	1.41704	0.00167
1	323.15	1.41601	0.00167
