Measured thermophysical data. Solvation parameter model and thermodynamic parameters in a dicationic ionic liquid based on pyrrolidinium
Source: J. Chem. Thermodyn., 2015, 10.1016/j.jct.2014.12.023
Compound 1: hexane, C6H14, InChI=1S/C6H14/c1-3-5-6-4-2/h3-6H2,1-2H3, purity 95%
Compound 2: heptane, C7H16, InChI=1S/C7H16/c1-3-5-7-6-4-2/h3-7H2,1-2H3
Compound 3: octane, C8H18, InChI=1S/C8H18/c1-3-5-7-8-6-4-2/h3-8H2,1-2H3, purity 99%
Compound 4: cyclohexane, C6H12, InChI=1S/C6H12/c1-2-4-6-5-3-1/h1-6H2, purity 99.8%
Compound 5: benzene, C6H6, InChI=1S/C6H6/c1-2-4-6-5-3-1/h1-6H, purity 99%
Compound 6: toluene, C7H8, InChI=1S/C7H8/c1-7-5-3-2-4-6-7/h2-6H,1H3, purity 99.8%
Compound 7: 1,2-dimethylbenzene, C8H10, InChI=1S/C8H10/c1-7-5-3-4-6-8(7)2/h3-6H,1-2H3, purity 99%
Compound 8: 1,3-dimethylbenzene, C8H10, InChI=1S/C8H10/c1-7-4-3-5-8(2)6-7/h3-6H,1-2H3, purity 99%
Compound 9: 1,4-dimethylbenzene, C8H10, InChI=1S/C8H10/c1-7-3-5-8(2)6-4-7/h3-6H,1-2H3, purity 99%
Compound 10: methanol, CH4O, InChI=1S/CH4O/c1-2/h2H,1H3, purity 99.9%
Compound 11: ethanol, C2H6O, InChI=1S/C2H6O/c1-2-3/h3H,2H2,1H3, purity 99%
Compound 12: propan-1-ol, C3H8O, InChI=1S/C3H8O/c1-2-3-4/h4H,2-3H2,1H3, purity 99%
Compound 13: propan-2-ol, C3H8O, InChI=1S/C3H8O/c1-3(2)4/h3-4H,1-2H3, purity 99.7%
Compound 14: butanal, C4H8O, InChI=1S/C4H8O/c1-2-3-4-5/h4H,2-3H2,1H3, purity 99%
Compound 15: benzaldehyde, C7H6O, InChI=1S/C7H6O/c8-6-7-4-2-1-3-5-7/h1-6H, purity 99%
Compound 16: pentan-2-one, C5H10O, InChI=1S/C5H10O/c1-3-4-5(2)6/h3-4H2,1-2H3, purity 99.8%
Compound 17: cyclopentanone, C5H8O, InChI=1S/C5H8O/c6-5-3-1-2-4-5/h1-4H2, purity 99%
Compound 18: cyclohexanone, C6H10O, InChI=1S/C6H10O/c7-6-4-2-1-3-5-6/h1-5H2, purity 99.5%
Compound 19: triethylamine, C6H15N, InChI=1S/C6H15N/c1-4-7(5-2)6-3/h4-6H2,1-3H3, purity 99.5%
Compound 20: pyridine, C5H5N, InChI=1S/C5H5N/c1-2-4-6-5-3-1/h1-5H, purity 99.8%
Compound 21: tetrachloromethane, CCl4, InChI=1S/CCl4/c2-1(3,4)5, purity 99%
Compound 22: 1,2-dichloroethane, C2H4Cl2, InChI=1S/C2H4Cl2/c3-1-2-4/h1-2H2, purity 99%
Compound 23: 1,4-dioxane, C4H8O2, InChI=1S/C4H8O2/c1-2-6-4-3-5-1/h1-4H2, purity 98%
Compound 24: acetonitrile, C2H3N, InChI=1S/C2H3N/c1-2-3/h1H3, purity 99%
Compound 25: ethyl acetate, C4H8O2, InChI=1S/C4H8O2/c1-3-6-4(2)5/h3H2,1-2H3, purity 99%
Compound 26: acetic acid, C2H4O2, InChI=1S/C2H4O2/c1-2(3)4/h1H3,(H,3,4), purity 99%
Compound 27: 1,1'-(nonane-1,9-diyl)bis(1-(naphthalen-2-ylmethyl)pyrrolidin-1-ium) bis((trifluoromethyl)sulfonyl)amide, C43H52F12N4O8S4, InChI=1S/C39H52N2.2C2F6NO4S2/c1(2-4-10-24-40(26-12-13-27-40)32-34-20-22-36-16-6-8-18-38(36)30-34)3-5-11-25-41(28-14-15-29-41)33-35-21-23-37-17-7-9-19-39(37)31-35;2*3-1(4,5)14(10,11)9-15(12,13)2(6,7)8/h6-9,16-23,30-31H,1-5,10-15,24-29,32-33H2;;/q+2;2*-1, purity 98%

System: 1,1'-(nonane-1,9-diyl)bis(1-(naphthalen-2-ylmethyl)pyrrolidin-1-ium) bis((trifluoromethyl)sulfonyl)amide + hexane; phases: Liquid
Fixed: Pressure, kPa = 87.4
Fixed: Mole fraction of hexane = 0
Property: Activity coefficient of hexane (Liquid); method: Chromatography
Temperature, K	Activity coefficient of hexane	uncertainty
313	4.734	0.243
323	3.897	0.2

System: 1,1'-(nonane-1,9-diyl)bis(1-(naphthalen-2-ylmethyl)pyrrolidin-1-ium) bis((trifluoromethyl)sulfonyl)amide + heptane; phases: Liquid
Fixed: Pressure, kPa = 87.4
Fixed: Mole fraction of heptane = 0
Property: Activity coefficient of heptane (Liquid); method: Chromatography
Temperature, K	Activity coefficient of heptane	uncertainty
313	6.718	0.376
323	5.974	0.333
333	5.44	0.309
343	4.65	0.286

System: 1,1'-(nonane-1,9-diyl)bis(1-(naphthalen-2-ylmethyl)pyrrolidin-1-ium) bis((trifluoromethyl)sulfonyl)amide + octane; phases: Liquid
Fixed: Pressure, kPa = 87.4
Fixed: Mole fraction of octane = 0
Property: Activity coefficient of octane (Liquid); method: Chromatography
Temperature, K	Activity coefficient of octane	uncertainty
313	8.508	0.476
323	7.574	0.405
333	7.396	0.39
343	6.714	0.371

System: 1,1'-(nonane-1,9-diyl)bis(1-(naphthalen-2-ylmethyl)pyrrolidin-1-ium) bis((trifluoromethyl)sulfonyl)amide + cyclohexane; phases: Liquid
Fixed: Pressure, kPa = 87.4
Fixed: Mole fraction of cyclohexane = 0
Property: Activity coefficient of cyclohexane (Liquid); method: Chromatography
Temperature, K	Activity coefficient of cyclohexane	uncertainty
313	3.832	0.219
323	3.348	0.192
333	2.977	0.175
343	2.494	0.16

System: 1,1'-(nonane-1,9-diyl)bis(1-(naphthalen-2-ylmethyl)pyrrolidin-1-ium) bis((trifluoromethyl)sulfonyl)amide + benzene; phases: Liquid
Fixed: Pressure, kPa = 87.4
Fixed: Mole fraction of benzene = 0
Property: Activity coefficient of benzene (Liquid); method: Chromatography
Temperature, K	Activity coefficient of benzene	uncertainty
313	0.515	0.031
323	0.517	0.031
333	0.52	0.031
343	0.574	0.034

System: 1,1'-(nonane-1,9-diyl)bis(1-(naphthalen-2-ylmethyl)pyrrolidin-1-ium) bis((trifluoromethyl)sulfonyl)amide + toluene; phases: Liquid
Fixed: Pressure, kPa = 87.4
Fixed: Mole fraction of toluene = 0
Property: Activity coefficient of toluene (Liquid); method: Chromatography
Temperature, K	Activity coefficient of toluene	uncertainty
313	0.714	0.035
323	0.721	0.035
333	0.723	0.036
343	0.727	0.036

System: 1,1'-(nonane-1,9-diyl)bis(1-(naphthalen-2-ylmethyl)pyrrolidin-1-ium) bis((trifluoromethyl)sulfonyl)amide + 1,2-dimethylbenzene; phases: Liquid
Fixed: Pressure, kPa = 87.4
Fixed: Mole fraction of 1,2-dimethylbenzene = 0
Property: Activity coefficient of 1,2-dimethylbenzene (Liquid); method: Chromatography
Temperature, K	Activity coefficient of 1,2-dimethylbenzene	uncertainty
313	0.84	0.039
323	0.852	0.039
333	0.864	0.04
343	0.894	0.041

System: 1,1'-(nonane-1,9-diyl)bis(1-(naphthalen-2-ylmethyl)pyrrolidin-1-ium) bis((trifluoromethyl)sulfonyl)amide + 1,3-dimethylbenzene; phases: Liquid
Fixed: Pressure, kPa = 87.4
Fixed: Mole fraction of 1,3-dimethylbenzene = 0
Property: Activity coefficient of 1,3-dimethylbenzene (Liquid); method: Chromatography
Temperature, K	Activity coefficient of 1,3-dimethylbenzene	uncertainty
313	0.857	0.042
323	0.924	0.042
333	0.941	0.042
343	0.996	0.045

System: 1,1'-(nonane-1,9-diyl)bis(1-(naphthalen-2-ylmethyl)pyrrolidin-1-ium) bis((trifluoromethyl)sulfonyl)amide + 1,4-dimethylbenzene; phases: Liquid
Fixed: Pressure, kPa = 87.4
Fixed: Mole fraction of 1,4-dimethylbenzene = 0
Property: Activity coefficient of 1,4-dimethylbenzene (Liquid); method: Chromatography
Temperature, K	Activity coefficient of 1,4-dimethylbenzene	uncertainty
313	0.881	0.04
323	0.9	0.041
333	0.929	0.042
343	0.992	0.045

System: 1,1'-(nonane-1,9-diyl)bis(1-(naphthalen-2-ylmethyl)pyrrolidin-1-ium) bis((trifluoromethyl)sulfonyl)amide + methanol; phases: Liquid
Property: Activity coefficient of methanol (Liquid); method: Chromatography
Temperature, K	Pressure, kPa	Mole fraction of methanol	Activity coefficient of methanol	uncertainty
313	87.4	0	0.821	0.038

System: 1,1'-(nonane-1,9-diyl)bis(1-(naphthalen-2-ylmethyl)pyrrolidin-1-ium) bis((trifluoromethyl)sulfonyl)amide + ethanol; phases: Liquid
Fixed: Pressure, kPa = 87.4
Fixed: Mole fraction of ethanol = 0
Property: Activity coefficient of ethanol (Liquid); method: Chromatography
Temperature, K	Activity coefficient of ethanol	uncertainty
313	1.005	0.044
323	1.009	0.045
333	0.937	0.043
343	0.891	0.041

System: 1,1'-(nonane-1,9-diyl)bis(1-(naphthalen-2-ylmethyl)pyrrolidin-1-ium) bis((trifluoromethyl)sulfonyl)amide + propan-1-ol; phases: Liquid
Fixed: Pressure, kPa = 87.4
Fixed: Mole fraction of propan-1-ol = 0
Property: Activity coefficient of propan-1-ol (Liquid); method: Chromatography
Temperature, K	Activity coefficient of propan-1-ol	uncertainty
313	1.334	0.083
323	1.066	0.057
333	1.021	0.045
343	1.006	0.044

System: 1,1'-(nonane-1,9-diyl)bis(1-(naphthalen-2-ylmethyl)pyrrolidin-1-ium) bis((trifluoromethyl)sulfonyl)amide + propan-2-ol; phases: Liquid
Fixed: Pressure, kPa = 87.4
Fixed: Mole fraction of propan-2-ol = 0
Property: Activity coefficient of propan-2-ol (Liquid); method: Chromatography
Temperature, K	Activity coefficient of propan-2-ol	uncertainty
313	1.209	0.061
323	1.087	0.051
333	1.053	0.048
343	0.992	0.045

System: 1,1'-(nonane-1,9-diyl)bis(1-(naphthalen-2-ylmethyl)pyrrolidin-1-ium) bis((trifluoromethyl)sulfonyl)amide + butanal; phases: Liquid
Fixed: Pressure, kPa = 87.4
Fixed: Mole fraction of butanal = 0
Property: Activity coefficient of butanal (Liquid); method: Chromatography
Temperature, K	Activity coefficient of butanal	uncertainty
313	0.448	0.03
323	0.464	0.03
333	0.487	0.03
343	0.491	0.03

System: 1,1'-(nonane-1,9-diyl)bis(1-(naphthalen-2-ylmethyl)pyrrolidin-1-ium) bis((trifluoromethyl)sulfonyl)amide + benzaldehyde; phases: Liquid
Fixed: Pressure, kPa = 87.4
Fixed: Mole fraction of benzaldehyde = 0
Property: Activity coefficient of benzaldehyde (Liquid); method: Chromatography
Temperature, K	Activity coefficient of benzaldehyde	uncertainty
313	0.997	0.044
323	0.997	0.044
333	0.998	0.044
343	0.999	0.044

System: 1,1'-(nonane-1,9-diyl)bis(1-(naphthalen-2-ylmethyl)pyrrolidin-1-ium) bis((trifluoromethyl)sulfonyl)amide + pentan-2-one; phases: Liquid
Fixed: Pressure, kPa = 87.4
Fixed: Mole fraction of pentan-2-one = 0
Property: Activity coefficient of pentan-2-one (Liquid); method: Chromatography
Temperature, K	Activity coefficient of pentan-2-one	uncertainty
313	0.432	0.029
323	0.437	0.029
333	0.444	0.03
343	0.448	0.03

System: 1,1'-(nonane-1,9-diyl)bis(1-(naphthalen-2-ylmethyl)pyrrolidin-1-ium) bis((trifluoromethyl)sulfonyl)amide + cyclopentanone; phases: Liquid
Fixed: Pressure, kPa = 87.4
Fixed: Mole fraction of cyclopentanone = 0
Property: Activity coefficient of cyclopentanone (Liquid); method: Chromatography
Temperature, K	Activity coefficient of cyclopentanone	uncertainty
313	0.318	0.028
323	0.324	0.028
333	0.33	0.028
343	0.347	0.028

System: 1,1'-(nonane-1,9-diyl)bis(1-(naphthalen-2-ylmethyl)pyrrolidin-1-ium) bis((trifluoromethyl)sulfonyl)amide + cyclohexanone; phases: Liquid
Fixed: Pressure, kPa = 87.4
Fixed: Mole fraction of cyclohexanone = 0
Property: Activity coefficient of cyclohexanone (Liquid); method: Chromatography
Temperature, K	Activity coefficient of cyclohexanone	uncertainty
313	0.998	0.044
323	0.998	0.044
333	0.999	0.044
343	1	0.044

System: 1,1'-(nonane-1,9-diyl)bis(1-(naphthalen-2-ylmethyl)pyrrolidin-1-ium) bis((trifluoromethyl)sulfonyl)amide + triethylamine; phases: Liquid
Fixed: Pressure, kPa = 87.4
Fixed: Mole fraction of triethylamine = 0
Property: Activity coefficient of triethylamine (Liquid); method: Chromatography
Temperature, K	Activity coefficient of triethylamine	uncertainty
313	0.762	0.098
323	1.218	0.081
333	1.347	0.068
343	1.448	0.072

System: 1,1'-(nonane-1,9-diyl)bis(1-(naphthalen-2-ylmethyl)pyrrolidin-1-ium) bis((trifluoromethyl)sulfonyl)amide + pyridine; phases: Liquid
Fixed: Pressure, kPa = 87.4
Fixed: Mole fraction of pyridine = 0
Property: Activity coefficient of pyridine (Liquid); method: Chromatography
Temperature, K	Activity coefficient of pyridine	uncertainty
313	0.263	0.028
323	0.266	0.028
333	0.27	0.028
343	0.287	0.028

System: 1,1'-(nonane-1,9-diyl)bis(1-(naphthalen-2-ylmethyl)pyrrolidin-1-ium) bis((trifluoromethyl)sulfonyl)amide + tetrachloromethane; phases: Liquid
Fixed: Pressure, kPa = 87.4
Fixed: Mole fraction of tetrachloromethane = 0
Property: Activity coefficient of tetrachloromethane (Liquid); method: Chromatography
Temperature, K	Activity coefficient of tetrachloromethane	uncertainty
313	1.448	0.07
323	1.466	0.071
333	1.512	0.073
343	1.524	0.074

System: 1,1'-(nonane-1,9-diyl)bis(1-(naphthalen-2-ylmethyl)pyrrolidin-1-ium) bis((trifluoromethyl)sulfonyl)amide + 1,2-dichloroethane; phases: Liquid
Fixed: Pressure, kPa = 87.4
Fixed: Mole fraction of 1,2-dichloroethane = 0
Property: Activity coefficient of 1,2-dichloroethane (Liquid); method: Chromatography
Temperature, K	Activity coefficient of 1,2-dichloroethane	uncertainty
313	0.568	0.032
323	0.569	0.032
333	0.596	0.033
343	0.613	0.033

System: 1,1'-(nonane-1,9-diyl)bis(1-(naphthalen-2-ylmethyl)pyrrolidin-1-ium) bis((trifluoromethyl)sulfonyl)amide + 1,4-dioxane; phases: Liquid
Fixed: Pressure, kPa = 87.4
Fixed: Mole fraction of 1,4-dioxane = 0
Property: Activity coefficient of 1,4-dioxane (Liquid); method: Chromatography
Temperature, K	Activity coefficient of 1,4-dioxane	uncertainty
313	0.382	0.029
323	0.397	0.029
333	0.413	0.03
343	0.451	0.031

System: 1,1'-(nonane-1,9-diyl)bis(1-(naphthalen-2-ylmethyl)pyrrolidin-1-ium) bis((trifluoromethyl)sulfonyl)amide + acetonitrile; phases: Liquid
Fixed: Pressure, kPa = 87.4
Fixed: Mole fraction of acetonitrile = 0
Property: Activity coefficient of acetonitrile (Liquid); method: Chromatography
Temperature, K	Activity coefficient of acetonitrile	uncertainty
313	0.339	0.028
323	0.341	0.028
333	0.349	0.028
343	0.372	0.029

System: 1,1'-(nonane-1,9-diyl)bis(1-(naphthalen-2-ylmethyl)pyrrolidin-1-ium) bis((trifluoromethyl)sulfonyl)amide + ethyl acetate; phases: Liquid
Fixed: Pressure, kPa = 87.4
Fixed: Mole fraction of ethyl acetate = 0
Property: Activity coefficient of ethyl acetate (Liquid); method: Chromatography
Temperature, K	Activity coefficient of ethyl acetate	uncertainty
313	0.541	0.032
323	0.565	0.032
333	0.601	0.033
343	0.628	0.034

System: 1,1'-(nonane-1,9-diyl)bis(1-(naphthalen-2-ylmethyl)pyrrolidin-1-ium) bis((trifluoromethyl)sulfonyl)amide + acetic acid; phases: Liquid
Fixed: Pressure, kPa = 87.4
Fixed: Mole fraction of acetic acid = 0
Property: Activity coefficient of acetic acid (Liquid); method: Chromatography
Temperature, K	Activity coefficient of acetic acid	uncertainty
313	0.824	0.04
323	0.767	0.038
333	0.746	0.036
343	0.74	0.036
