Measured thermophysical data. Solubility parameter of lenalidomide for predicting the type of solubility profile and application of thermodynamic model
Source: J. Chem. Thermodyn., 2019, 10.1016/j.jct.2018.12.035
Compound 1: lenalidomide, C13H13N3O3, InChI=1S/C13H13N3O3/c14-9-3-1-2-7-8(9)6-16(13(7)19)10-4-5-11(17)15-12(10)18/h1-3,10H,4-6,14H2,(H,15,17,18), purity 99.2%
Compound 2: ethanol, C2H6O, InChI=1S/C2H6O/c1-2-3/h3H,2H2,1H3, purity 99.5%
Compound 3: methanol, CH4O, InChI=1S/CH4O/c1-2/h2H,1H3, purity 99.6%
Compound 4: propan-2-ol, C3H8O, InChI=1S/C3H8O/c1-3(2)4/h3-4H,1-2H3, purity 99.5%
Compound 5: acetonitrile, C2H3N, InChI=1S/C2H3N/c1-2-3/h1H3, purity 99.6%
Compound 6: ethyl acetate, C4H8O2, InChI=1S/C4H8O2/c1-3-6-4(2)5/h3H2,1-2H3, purity 99.5%
Compound 7: benzoic acid, C7H6O2, InChI=1S/C7H6O2/c8-7(9)6-4-2-1-3-5-6/h1-5H,(H,8,9), purity 99.6%
Compound 8: toluene, C7H8, InChI=1S/C7H8/c1-7-5-3-2-4-6-7/h2-6H,1H3, purity 99.5%

System: benzoic acid + toluene; phases: Liquid, Crystal
Fixed: Pressure, kPa = 101.2
Property: Mole fraction of benzoic acid (Liquid); method: Chromatography
Temperature, K	Mole fraction of benzoic acid	uncertainty
293.15	0.0619	0.0043
303.15	0.0889	0.0062
313.15	0.128	0.009
323.15	0.177	0.0124

System: lenalidomide + methanol; phases: Liquid, Crystal
Fixed: Pressure, kPa = 101.2
Property: Mole fraction of lenalidomide (Liquid); method: Chromatography
Temperature, K	Mole fraction of lenalidomide	uncertainty
293.15	0.0002524	1.87e-05
298.15	0.000269	1.99e-05
303.15	0.000288	2.13e-05
308.15	0.000309	2.29e-05
313.15	0.0003319	2.46e-05
318.15	0.0003589	2.66e-05
323.15	0.0003941	2.92e-05
328.15	0.0004339	3.21e-05
333.15	0.0004805	3.56e-05

System: lenalidomide + ethanol; phases: Liquid, Crystal
Fixed: Pressure, kPa = 101.2
Property: Mole fraction of lenalidomide (Liquid); method: Chromatography
Temperature, K	Mole fraction of lenalidomide	uncertainty
293.15	0.0001643	1.22e-05
298.15	0.0001828	1.35e-05
303.15	0.0002087	1.55e-05
308.15	0.0002385	1.77e-05
313.15	0.0002703	2e-05
318.15	0.0003086	2.28e-05
323.15	0.0003571	2.64e-05
328.15	0.0004036	2.99e-05
333.15	0.0004596	3.4e-05

System: lenalidomide + propan-2-ol; phases: Liquid, Crystal
Fixed: Pressure, kPa = 101.2
Property: Mole fraction of lenalidomide (Liquid); method: Chromatography
Temperature, K	Mole fraction of lenalidomide	uncertainty
293.15	6.37e-05	4.7e-06
298.15	7.79e-05	5.8e-06
303.15	9.5e-05	7e-06
308.15	0.000116	8.6e-06
313.15	0.0001415	1.05e-05
318.15	0.0001679	1.24e-05
323.15	0.0001952	1.45e-05
328.15	0.000231	1.71e-05
333.15	0.0002709	2.01e-05

System: lenalidomide + acetonitrile; phases: Liquid, Crystal
Fixed: Pressure, kPa = 101.2
Property: Mole fraction of lenalidomide (Liquid); method: Chromatography
Temperature, K	Mole fraction of lenalidomide	uncertainty
293.15	0.000539	3.99e-05
298.15	0.0005489	4.06e-05
303.15	0.0005606	4.15e-05
308.15	0.0005734	4.24e-05
313.15	0.0005877	4.35e-05
318.15	0.0006029	4.46e-05
323.15	0.0006179	4.57e-05
328.15	0.0006344	4.7e-05
333.15	0.0006522	4.83e-05

System: lenalidomide + ethyl acetate; phases: Liquid, Crystal
Fixed: Pressure, kPa = 101.2
Property: Mole fraction of lenalidomide (Liquid); method: Chromatography
Temperature, K	Mole fraction of lenalidomide	uncertainty
293.15	0.0001272	9.4e-06
298.15	0.0001439	1.07e-05
303.15	0.0001639	1.21e-05
308.15	0.0001839	1.36e-05
313.15	0.0002101	1.56e-05
318.15	0.0002389	1.77e-05
323.15	0.0002768	2.05e-05
328.15	0.0003188	2.36e-05
333.15	0.0003671	2.72e-05

System: lenalidomide + ethyl acetate + ethanol; phases: Liquid, Crystal
Fixed: Pressure, kPa = 101.1
Property: Mole fraction of lenalidomide (Liquid); method: Chromatography
Temperature, K	Solvent: Mass fraction of ethyl acetate	Mole fraction of lenalidomide	uncertainty
293.15	0.2	0.0002231	2.37e-05
298.15	0.2	0.0002538	2.69e-05
303.15	0.2	0.0002896	3.07e-05
308.15	0.2	0.0003275	3.47e-05
313.15	0.2	0.0003694	3.92e-05
318.15	0.2	0.0004189	4.44e-05
323.15	0.2	0.0004783	5.07e-05
328.15	0.2	0.0005491	5.82e-05
333.15	0.2	0.0006265	6.64e-05
293.15	0.6	0.0003109	3.3e-05
298.15	0.6	0.0003481	3.69e-05
303.15	0.6	0.0003892	4.13e-05
308.15	0.6	0.0004389	4.65e-05
313.15	0.6	0.0004964	5.26e-05
318.15	0.6	0.0005579	5.92e-05
323.15	0.6	0.0006334	6.72e-05
328.15	0.6	0.0007174	7.61e-05
333.15	0.6	0.0008169	8.66e-05
293.15	0.3	0.0002723	2.89e-05
298.15	0.3	0.0003061	3.25e-05
303.15	0.3	0.0003428	3.64e-05
308.15	0.3	0.0003844	4.08e-05
313.15	0.3	0.0004362	4.63e-05
318.15	0.3	0.0004911	5.21e-05
323.15	0.3	0.0005607	5.95e-05
328.15	0.3	0.0006396	6.78e-05
333.15	0.3	0.0007277	7.72e-05
293.15	0.7	0.0002813	2.98e-05
298.15	0.7	0.0003164	3.36e-05
303.15	0.7	0.0003573	3.79e-05
308.15	0.7	0.0004013	4.26e-05
313.15	0.7	0.0004541	4.82e-05
318.15	0.7	0.0005126	5.44e-05
323.15	0.7	0.0005833	6.19e-05
328.15	0.7	0.0006702	7.11e-05
333.15	0.7	0.0007634	8.09e-05
293.15	0.4	0.000294	3.12e-05
298.15	0.4	0.0003291	3.49e-05
303.15	0.4	0.0003752	3.98e-05
308.15	0.4	0.0004234	4.49e-05
313.15	0.4	0.0004821	5.11e-05
318.15	0.4	0.0005489	5.82e-05
323.15	0.4	0.0006198	6.57e-05
328.15	0.4	0.0007011	7.43e-05
333.15	0.4	0.0007917	8.39e-05
293.15	0.8	0.0002465	2.61e-05
298.15	0.8	0.0002765	2.93e-05
303.15	0.8	0.0003142	3.33e-05
308.15	0.8	0.0003553	3.77e-05
313.15	0.8	0.0004039	4.28e-05
318.15	0.8	0.000458	4.86e-05
323.15	0.8	0.0005233	5.55e-05
328.15	0.8	0.0005963	6.32e-05
333.15	0.8	0.0006734	7.14e-05
293.15	0.5	0.0003244	3.44e-05
298.15	0.5	0.0003621	3.84e-05
303.15	0.5	0.0004068	4.31e-05
308.15	0.5	0.0004536	4.81e-05
313.15	0.5	0.0005098	5.41e-05
318.15	0.5	0.0005732	6.08e-05
323.15	0.5	0.0006506	6.9e-05
328.15	0.5	0.000738	7.82e-05
333.15	0.5	0.0008366	8.87e-05
293.15	0.9	0.0001956	2.07e-05
298.15	0.9	0.000224	2.38e-05
303.15	0.9	0.0002561	2.72e-05
308.15	0.9	0.0002931	3.11e-05
313.15	0.9	0.000334	3.54e-05
318.15	0.9	0.0003789	4.02e-05
323.15	0.9	0.0004343	4.61e-05
328.15	0.9	0.000496	5.26e-05
333.15	0.9	0.000567	6.01e-05
293.15	1	0.0001272	1.35e-05
298.15	1	0.0001439	1.53e-05
303.15	1	0.0001639	1.74e-05
308.15	1	0.0001839	1.95e-05
313.15	1	0.0002101	2.23e-05
318.15	1	0.0002389	2.53e-05
323.15	1	0.0002768	2.93e-05
328.15	1	0.0003188	3.38e-05
333.15	1	0.0003671	3.89e-05
293.15	0	0.0001643	1.74e-05
298.15	0	0.0001828	1.94e-05
303.15	0	0.0002087	2.21e-05
308.15	0	0.0002385	2.53e-05
313.15	0	0.0002703	2.87e-05
318.15	0	0.0003086	3.27e-05
323.15	0	0.0003571	3.79e-05
328.15	0	0.0004036	4.28e-05
333.15	0	0.0004596	4.87e-05
