Measured thermophysical data. Heat capacity and thermodynamic properties of pyrimethanil myristic salt (C26H41N3O2)
Source: J. Chem. Thermodyn., 2004, 10.1016/j.jct.2004.03.006
Compound 1: pyrimethanil myristic salt, C26H41N3O2, InChI=1S/C14H28O2.C12H13N3/c1-2-3-4-5-6-7-8-9-10-11-12-13-14(15)16;1-9-8-10(2)14-12(13-9)15-11-6-4-3-5-7-11/h2-13H2,1H3,(H,15,16);3-8H,1-2H3,(H,13,14,15)

System: pyrimethanil myristic salt; phases: Crystal, Liquid, Gas
Property: Molar enthalpy of transition or fusion, kJ/mol (Crystal); method: ADIACA:UFactor:4
Molar enthalpy of transition or fusion, kJ/mol	uncertainty
56.528	0.185

System: pyrimethanil myristic salt; phases: Crystal, Liquid, Gas
Property: Triple point temperature, K (Crystal); method: VISOBS
Triple point temperature, K	uncertainty
321.84	0.77

System: pyrimethanil myristic salt; phases: Crystal
Fixed: Pressure, kPa = 101.325
Property: Molar heat capacity at constant pressure, J/K/mol (Crystal); method: VADIAC:UFactor:4
Temperature, K	Molar heat capacity at constant pressure, J/K/mol	uncertainty
78.6	206.5	2.411
80.94	209.4	2.494
83.22	212.7	2.494
85.43	215.9	2.577
87.58	220.6	2.577
89.69	225.2	2.661
91.76	228.7	2.577
93.79	232.6	2.661
95.79	236.3	2.661
97.75	239.4	2.661
99.68	243.1	2.744
101.58	246.8	2.744
103.46	250.6	2.827
105.31	254.1	2.827
107.14	257.2	2.91
108.94	261	2.91
110.72	264	2.91
112.18	268	2.993
114.22	271.5	2.993
115.95	274.5	3.076
117.65	276.9	3.076
119.35	279.6	3.076
121.02	283.4	3.159
122.68	286.3	3.159
124.32	288.8	3.243
125.95	292.3	3.243
127.57	295.3	3.243
129.17	298.4	3.326
130.77	301.5	3.326
132.35	302.8	3.326
133.92	305.4	3.409
135.47	308.1	3.409
137.01	311.7	3.409
138.54	314.6	3.492
140.43	317.9	3.492
142.72	321.3	3.575
144.98	324.3	3.575
147.22	327	3.575
149.43	330.9	3.658
151.63	334.5	3.658
153.82	337.1	3.658
155.99	340.8	3.742
158.14	343.2	3.742
160.28	347.9	3.825
162.4	351.3	3.825
164.5	354.5	3.908
166.58	358	3.908
168.63	362	3.991
170.66	365.5	3.991
172.67	368.8	3.991
174.69	371.8	4.074
176.7	374.8	4.074
178.71	378.3	4.157
180.71	381.6	4.157
182.7	385.3	4.157
184.68	388.6	4.24
186.65	392.1	4.24
188.61	395.4	4.324
190.56	398.8	4.324
192.5	401.7	4.324
194.43	404.7	4.407
196.36	407.7	4.407
198.27	411.2	4.49
200.18	414.1	4.49
202.08	416.2	4.49
203.98	419.2	4.573
205.86	422.3	4.573
208.37	425.3	4.573
211.57	429.4	4.656
214.73	432.7	4.656
217.86	435.7	4.739
220.98	438.8	4.739
224.07	442.2	4.739
227.14	445.4	4.822
230.17	447.5	4.822
233.16	451.2	4.906
236.17	454.6	4.906
239.14	458.2	4.906
242.07	461.5	4.989
244.97	464.2	4.989
247.89	467.3	5.072
250.81	471	5.072
253.71	474.2	5.072
256.65	477.9	5.155
259.61	480.1	5.155
262.47	483.5	5.238
265.31	487	5.238
268.13	491.8	5.321
270.94	493.5	5.321
273.76	497	5.321
276.61	500.4	5.404
279.46	504	5.404
282.26	507.2	5.488
285.02	509.5	5.488
287.76	512	5.488
290.47	514.3	5.488
290.65	515.7	5.571
291.92	517.5	5.571
293.12	516.9	5.571
293.22	517.9	5.571
294.61	520.3	5.571
294.73	519.8	5.571
295.77	522.9	5.654
296.33	522.6	5.571
297.24	524.6	5.654
298.34	526	5.654
298.95	526.4	5.654
299.85	527.4	5.654
300.88	529.3	5.654
301.55	530.8	5.737
302.43	530.5	5.654
303.4	533.7	5.737
304.14	533.9	5.737
304.99	534.7	5.737
305.91	537.4	5.737
306.72	538.8	5.82
307.54	540	5.82
308.4	542.1	5.82
309.38	545.9	5.82
310.04	545.8	5.82
310.86	549.5	5.903

System: pyrimethanil myristic salt; phases: Liquid
Fixed: Pressure, kPa = 101.325
Property: Molar heat capacity at constant pressure, J/K/mol (Liquid); method: VADIAC:UFactor:4
Temperature, K	Molar heat capacity at constant pressure, J/K/mol	uncertainty
323.2	744.2	7.899
324.94	748.2	7.982
325.02	751.7	8.065
325.41	747.5	7.982
327.17	750.9	8.065
327.21	753.7	8.148
327.6	751.6	7.982
329.38	757	8.065
329.39	753.2	7.982
329.8	755.1	7.982
331.54	760.5	8.148
331.6	757.4	8.148
331.98	759.6	8.065
333.69	764	8.148
333.79	760.9	8.065
334.15	762.4	8.065
335.82	767.2	8.148
335.96	763.6	8.148
336.3	767.6	8.148
337.93	770.8	8.231
338.09	767.1	8.148
338.44	771.4	8.231
340.02	773	8.231
340.26	770.7	8.148
340.57	774.5	8.231
342.09	775.6	8.231
342.37	773.7	8.231
342.68	777.2	8.231
344.13	778.8	8.231
344.45	777.1	8.231
344.76	779.1	8.231
346.15	781.1	8.3145
346.51	779.9	8.3145
346.81	782.1	8.3145
348.13	783.6	8.3145
348.53	782.8	8.3145
348.83	784.8	8.3145
350.07	786.3	8.3145
350.51	786.2	8.3145
350.8	787.8	8.3976
351.97	788.6	8.3976
352.44	789.7	8.3976
352.73	790.6	8.3976
353.81	791.1	8.3976
354.32	792.1	8.3976
354.61	793.9	8.3976
355.6	794.5	8.3976
356.14	796.1	8.4808
356.42	796.4	8.4808
357.33	796.5	8.4808
357.89	798.5	8.4808
358.16	799.1	8.4808
358.98	798.5	8.4808
359.56	801.2	8.4808
359.82	801.6	8.4808
360.55	802.3	8.4808

System: pyrimethanil myristic salt; phases: Crystal
Fixed: Pressure, kPa = 101.325
Property: Molar heat capacity at constant pressure, J/K/mol (Crystal); method: VADIAC:UFactor:4
Temperature, K	Molar heat capacity at constant pressure, J/K/mol	uncertainty
80	206.3	2.411
85	216.5	2.577
90	226.3	2.577
95	235.7	2.661
100	242.5	2.744
105	254	2.827
110	263	2.91
115	271.8	2.993
120	280.6	3.159
125	289.4	3.243
130	298.1	3.326
135	306.7	3.409
140	315.4	3.492
145	324	3.575
150	332.5	3.658
155	341	3.742
160	349.3	3.825
165	357.6	3.908
170	365.8	3.991
175	373.8	4.074
180	381.7	4.157
185	389.4	4.24
190	396.9	4.324
195	404.2	4.407
200	411.3	4.49
205	418.2	4.573
210	424.9	4.573
215	431.3	4.656
220	437.6	4.739
225	443.7	4.822
230	449.5	4.822
235	455.2	4.906
240	460.7	4.989
245	466.1	4.989
250	471.4	5.072
255	476.5	5.155
260	481.7	5.155
265	486.8	5.238
270	491.9	5.321
275	497.1	5.321
280	502.4	5.404
285	507.8	5.488
290	513.4	5.488
295	519.2	5.571
298.15	523.1	5.654
300	525.3	5.654
305	531.7	5.737
310	538.5	5.737

System: pyrimethanil myristic salt; phases: Liquid
Fixed: Pressure, kPa = 101.325
Property: Molar heat capacity at constant pressure, J/K/mol (Liquid); method: VADIAC:UFactor:4
Temperature, K	Molar heat capacity at constant pressure, J/K/mol	uncertainty
325	748.3	7.982
330	754.6	7.982
335	762.5	8.065
340	770.2	8.148
345	777.6	8.231
350	785.4	8.3145
355	793.7	8.3976
360	801.9	8.4808

System: pyrimethanil myristic salt; phases: Crystal
Fixed: Pressure, kPa = 101.325
Property: Molar enthalpy, kJ/mol (Crystal); method: Vacuum adiabatic calorimetry
Temperature, K	Molar enthalpy, kJ/mol	uncertainty
80	-83.685	0.8481
85	-82.63	0.8314
90	-81.52	0.815
95	-80.37	0.807
100	-79.17	0.79
105	-77.92	0.782
110	-76.63	0.765
115	-75.29	0.757
120	-73.91	0.74
125	-72.48	0.723
130	-71.01	0.715
135	-69.5	0.698
140	-67.95	0.682
145	-66.35	0.665
150	-64.71	0.649
155	-63.02	0.632
160	-61.3	0.615
165	-59.53	0.599
170	-57.72	0.574
175	-55.87	0.557
180	-53.98	0.54
185	-52.06	0.524
190	-50.09	0.499
195	-48.09	0.482
200	-46.05	0.457
205	-43.98	0.441
210	-41.87	0.416
215	-39.73	0.399
220	-37.55	0.374
225	-35.35	0.358
230	-33.12	0.333
235	-30.86	0.308
240	-28.57	0.283
245	-26.25	0.266
250	-23.91	0.241
255	-21.54	0.216
260	-19.14	0.191
265	-16.72	0.166
270	-14.27	0.15
275	-11.8	0.125
280	-9.304	0.1
285	-6.776	0.077
290	-4.223	0.057
295	-1.642	0.046
298.15	0	0.06
300	0.9695	0.048
305	3.612	0.059
310	6.288	0.08

System: pyrimethanil myristic salt; phases: Liquid
Fixed: Pressure, kPa = 101.325
Property: Molar enthalpy, kJ/mol (Liquid); method: Vacuum adiabatic calorimetry
Temperature, K	Molar enthalpy, kJ/mol	uncertainty
325	62.82	0.632
330	66.55	0.673
335	70.34	0.707
340	74.17	0.748
345	78.04	0.79
350	81.95	0.823
355	85.889	0.8647
360	89.879	0.9063

System: pyrimethanil myristic salt; phases: Crystal
Fixed: Pressure, kPa = 101.325
Property: Molar entropy, J/K/mol (Crystal); method: Vacuum adiabatic calorimetry
Temperature, K	Molar entropy, J/K/mol	uncertainty
80	-459.1	6.984
85	-446.2	6.735
90	-433.6	6.485
95	-421.1	6.319
100	-408.8	6.153
105	-396.7	5.986
110	-384.7	5.737
115	-372.8	5.571
120	-361	5.404
125	-349.4	5.238
130	-337.9	5.072
135	-326.4	4.906
140	-315.1	4.739
145	-303.9	4.573
150	-292.7	4.407
155	-281.7	4.24
160	-270.7	4.074
165	-259.9	3.908
170	-249.1	3.742
175	-238.3	3.575
180	-227.7	3.409
185	-217.2	3.243
190	-206.7	3.076
195	-196.3	2.91
200	-186	2.827
205	-175.7	2.661
210	-165.6	2.494
215	-155.5	2.328
220	-145.5	2.162
225	-135.6	1.995
230	-125.8	1.912
235	-116.1	1.746
240	-106.4	1.58
245	-96.86	1.497
250	-87.39	1.33
255	-77.97	1.1807
260	-68.67	1.0393
265	-59.44	0.9063
270	-50.3	0.773
275	-41.23	0.64
280	-32.23	0.515
285	-23.29	0.399
290	-14.4	0.291
295	-5.556	0.2286
298.15	0	0.3018
300	3.259	0.2386
305	12.06	0.291
310	20.86	0.391

System: pyrimethanil myristic salt; phases: Liquid
Fixed: Pressure, kPa = 101.325
Property: Molar entropy, J/K/mol (Liquid); method: Vacuum adiabatic calorimetry
Temperature, K	Molar entropy, J/K/mol	uncertainty
325	196.5	2.993
330	208	3.159
335	219.4	3.326
340	230.7	3.492
345	242	3.658
350	253.3	3.825
355	264.5	3.991
360	275.6	4.157
