Measured thermophysical data. Acoustic and volumetric study of renewable oxygenated fuel additives at (298.15-323.15) K: Isomeric butanediols with ethylbutyrate
Source: J. Chem. Thermodyn., 2019, 10.1016/j.jct.2019.05.002
Compound 1: ethyl butanoate, C6H12O2, InChI=1S/C6H12O2/c1-3-5-6(7)8-4-2/h3-5H2,1-2H3, purity 99%
Compound 2: 1,2-butanediol, C4H10O2, InChI=1S/C4H10O2/c1-2-4(6)3-5/h4-6H,2-3H2,1H3, purity 99%
Compound 3: 1,3-butanediol, C4H10O2, InChI=1S/C4H10O2/c1-4(6)2-3-5/h4-6H,2-3H2,1H3, purity 99%
Compound 4: 1,4-butanediol, C4H10O2, InChI=1S/C4H10O2/c5-3-1-2-4-6/h5-6H,1-4H2, purity 99.5%

System: ethyl butanoate; phases: Liquid
Fixed: Pressure, kPa = 100
Property: Mass density, kg/m3 (Liquid); method: Vibrating tube method
Temperature, K	Mass density, kg/m3	uncertainty
298.15	874.31	2
303.15	868.85	2
308.15	863.4	2
313.15	857.94	2
318.15	852.49	2
323.15	847.03	2

System: ethyl butanoate; phases: Liquid
Fixed: Pressure, kPa = 100
Fixed: Frequency, MHz = 3
Property: Speed of sound, m/s (Liquid); method: Single path-length method
Temperature, K	Speed of sound, m/s	uncertainty
298.15	1171.8	1
303.15	1151.1	1
308.15	1130.2	1
313.15	1109	1
318.15	1088	1
323.15	1067.1	1

System: 1,2-butanediol; phases: Liquid
Fixed: Pressure, kPa = 100
Property: Mass density, kg/m3 (Liquid); method: Vibrating tube method
Temperature, K	Mass density, kg/m3	uncertainty
298.15	998.56	2.01
303.15	994.75	2.01
308.15	990.92	2.01
313.15	987.11	2.01
318.15	983.28	2.01
323.15	979.46	2.01

System: 1,2-butanediol; phases: Liquid
Fixed: Pressure, kPa = 100
Fixed: Frequency, MHz = 3
Property: Speed of sound, m/s (Liquid); method: Single path-length method
Temperature, K	Speed of sound, m/s	uncertainty
298.15	1452.5	1.4
303.15	1437.9	1.4
308.15	1423.3	1.4
313.15	1408.7	1.4
318.15	1394.1	1.4
323.15	1379.5	1.4

System: 1,3-butanediol; phases: Liquid
Fixed: Pressure, kPa = 100
Property: Mass density, kg/m3 (Liquid); method: Vibrating tube method
Temperature, K	Mass density, kg/m3	uncertainty
298.15	1001.87	2.01
303.15	998.41	2.01
308.15	994.94	2.01
313.15	991.49	2.01
318.15	988.02	2.01
323.15	984.56	2.01

System: 1,3-butanediol; phases: Liquid
Fixed: Pressure, kPa = 100
Fixed: Frequency, MHz = 3
Property: Speed of sound, m/s (Liquid); method: Single path-length method
Temperature, K	Speed of sound, m/s	uncertainty
298.15	1527.9	1.4
303.15	1514	1.4
308.15	1500.1	1.4
313.15	1486.2	1.4
318.15	1472.3	1.4
323.15	1458.4	1.4

System: 1,4-butanediol; phases: Liquid
Fixed: Pressure, kPa = 100
Property: Mass density, kg/m3 (Liquid); method: Vibrating tube method
Temperature, K	Mass density, kg/m3	uncertainty
298.15	1012.8	2
303.15	1009.77	2
308.15	1006.74	2
313.15	1003.7	2
318.15	1000.67	2
323.15	997.63	2

System: 1,4-butanediol; phases: Liquid
Fixed: Pressure, kPa = 100
Fixed: Frequency, MHz = 3
Property: Speed of sound, m/s (Liquid); method: Single path-length method
Temperature, K	Speed of sound, m/s	uncertainty
298.15	1601.9	1.1
303.15	1590.3	1.1
308.15	1578.6	1.1
313.15	1567	1.1
318.15	1555.3	1.1
323.15	1543.7	1.1

System: ethyl butanoate + 1,2-butanediol; phases: Liquid
Fixed: Pressure, kPa = 100
Property: Mass density, kg/m3 (Liquid); method: Vibrating tube method
Temperature, K	Mole fraction of ethyl butanoate	Mass density, kg/m3	uncertainty
298.15	0	998.56	2.01
298.15	0.1011	986	2.01
298.15	0.2032	973.31	2.01
298.15	0.3034	960.87	2
298.15	0.4004	948.81	2
298.15	0.5064	935.64	2
298.15	0.6021	923.76	2
298.15	0.7043	911.06	2
298.15	0.8009	899.06	2
298.15	0.9012	886.59	2
298.15	1	874.31	2
303.15	0	994.75	2.01
303.15	0.1011	982.02	2.01
303.15	0.2032	969.16	2.01
303.15	0.3034	956.55	2
303.15	0.4004	944.33	2
303.15	0.5064	930.98	2
303.15	0.6021	918.93	2
303.15	0.7043	906.06	2
303.15	0.8009	893.9	2
303.15	0.9012	881.27	2
303.15	1	868.85	2
308.15	0	990.92	2.01
308.15	0.1011	978.03	2.01
308.15	0.2032	965.01	2.01
308.15	0.3034	952.23	2
308.15	0.4004	939.86	2
308.15	0.5064	926.34	2
308.15	0.6021	914.14	2
308.15	0.7043	901.11	2
308.15	0.8009	888.79	2
308.15	0.9012	876	2
308.15	1	863.4	2
313.15	0	987.11	2.01
313.15	0.1011	974.05	2.01
313.15	0.2032	960.87	2.01
313.15	0.3034	947.93	2
313.15	0.4004	935.41	2
313.15	0.5064	921.72	2
313.15	0.6021	909.36	2
313.15	0.7043	896.16	2
313.15	0.8009	883.69	2
313.15	0.9012	870.74	2
313.15	1	857.94	2
318.15	0	983.28	2.01
318.15	0.1011	970.05	2.01
318.15	0.2032	956.7	2.01
318.15	0.3034	943.59	2
318.15	0.4004	930.9	2
318.15	0.5064	917.03	2
318.15	0.6021	904.51	2
318.15	0.7043	891.14	2
318.15	0.8009	878.51	2
318.15	0.9012	865.39	2
318.15	1	852.49	2
323.15	0	979.46	2.01
323.15	0.1011	966.07	2.01
323.15	0.2032	952.55	2.01
323.15	0.3034	939.28	2
323.15	0.4004	926.44	2
323.15	0.5064	912.4	2
323.15	0.6021	899.72	2
323.15	0.7043	886.19	2
323.15	0.8009	873.4	2
323.15	0.9012	860.11	2
323.15	1	847.03	2

System: ethyl butanoate + 1,2-butanediol; phases: Liquid
Fixed: Pressure, kPa = 100
Fixed: Frequency, MHz = 3
Property: Speed of sound, m/s (Liquid); method: Single path-length method
Temperature, K	Mole fraction of ethyl butanoate	Speed of sound, m/s	uncertainty
298.15	0	1452.5	1.4
298.15	0.1011	1424.2	1.4
298.15	0.2032	1395.5	1.3
298.15	0.3034	1367.4	1.2
298.15	0.4004	1340.2	1.2
298.15	0.5064	1310.5	1.1
298.15	0.6021	1283.6	1.1
298.15	0.7043	1254.9	1.1
298.15	0.8009	1227.9	1
298.15	0.9012	1199.7	1
298.15	1	1171.8	1
303.15	0	1437.9	1.4
303.15	0.1011	1408.9	1.4
303.15	0.2032	1379.6	1.3
303.15	0.3034	1350.9	1.2
303.15	0.4004	1323	1.2
303.15	0.5064	1292.6	1.1
303.15	0.6021	1265.2	1.1
303.15	0.7043	1235.8	1.1
303.15	0.8009	1208.1	1
303.15	0.9012	1179.3	1
303.15	1	1151.1	1
308.15	0	1423.3	1.4
308.15	0.1011	1393.7	1.4
308.15	0.2032	1363.7	1.3
308.15	0.3034	1334.3	1.2
308.15	0.4004	1305.9	1.2
308.15	0.5064	1274.8	1.1
308.15	0.6021	1246.7	1.1
308.15	0.7043	1216.7	1.1
308.15	0.8009	1188.4	1
308.15	0.9012	1159	1
308.15	1	1130.2	1
313.15	0	1408.7	1.4
313.15	0.1011	1378.4	1.4
313.15	0.2032	1347.8	1.3
313.15	0.3034	1317.8	1.2
313.15	0.4004	1288.7	1.2
313.15	0.5064	1256.9	1.1
313.15	0.6021	1228.3	1.1
313.15	0.7043	1197.6	1.1
313.15	0.8009	1168.7	1
313.15	0.9012	1138.6	1
313.15	1	1109	1
318.15	0	1394.1	1.4
318.15	0.1011	1363.2	1.4
318.15	0.2032	1331.9	1.3
318.15	0.3034	1301.2	1.2
318.15	0.4004	1271.5	1.2
318.15	0.5064	1239.1	1.1
318.15	0.6021	1209.8	1.1
318.15	0.7043	1178.5	1.1
318.15	0.8009	1148.9	1
318.15	0.9012	1118.2	1
318.15	1	1088	1
323.15	0	1379.5	1.4
323.15	0.1011	1347.9	1.4
323.15	0.2032	1316	1.3
323.15	0.3034	1284.7	1.2
323.15	0.4004	1254.4	1.2
323.15	0.5064	1221.3	1.1
323.15	0.6021	1191.4	1.1
323.15	0.7043	1159.4	1.1
323.15	0.8009	1129.2	1
323.15	0.9012	1097.9	1
323.15	1	1067.1	1

System: ethyl butanoate + 1,3-butanediol; phases: Liquid
Fixed: Pressure, kPa = 100
Property: Mass density, kg/m3 (Liquid); method: Vibrating tube method
Temperature, K	Mole fraction of ethyl butanoate	Mass density, kg/m3	uncertainty
298.15	0	1001.87	2.01
298.15	0.1034	988.68	2.01
298.15	0.203	975.97	2.01
298.15	0.305	962.97	2
298.15	0.3835	952.95	2
298.15	0.4936	938.91	2
298.15	0.5811	927.76	2
298.15	0.6878	914.14	2
298.15	0.7997	899.87	2
298.15	0.8818	889.39	2
298.15	1	874.31	2
303.15	0	998.41	2.01
303.15	0.1034	985.01	2.01
303.15	0.203	972.1	2.01
303.15	0.305	958.89	2
303.15	0.3835	948.71	2
303.15	0.4936	934.45	2
303.15	0.5811	923.12	2
303.15	0.6878	909.28	2
303.15	0.7997	894.79	2
303.15	0.8818	884.14	2
303.15	1	868.85	2
308.15	0	994.94	2.01
308.15	0.1034	981.34	2.01
308.15	0.203	968.23	2.01
308.15	0.305	954.82	2
308.15	0.3835	944.49	2
308.15	0.4936	930.01	2
308.15	0.5811	918.51	2
308.15	0.6878	904.47	2
308.15	0.7997	889.75	2
308.15	0.8818	878.94	2
308.15	1	863.4	2
313.15	0	991.49	2.01
313.15	0.1034	977.69	2.01
313.15	0.203	964.38	2.01
313.15	0.305	950.77	2
313.15	0.3835	940.28	2
313.15	0.4936	925.59	2
313.15	0.5811	913.91	2
313.15	0.6878	899.66	2
313.15	0.7997	884.72	2
313.15	0.8818	873.76	2
313.15	1	857.94	2
318.15	0	988.02	2.01
318.15	0.1034	974.01	2.01
318.15	0.203	960.49	2.01
318.15	0.305	946.68	2
318.15	0.3835	936.03	2
318.15	0.4936	921.1	2
318.15	0.5811	909.25	2
318.15	0.6878	894.78	2
318.15	0.7997	879.61	2
318.15	0.8818	868.48	2
318.15	1	852.49	2
323.15	0	984.56	2.01
323.15	0.1034	970.34	2.01
323.15	0.203	956.63	2.01
323.15	0.305	942.62	2
323.15	0.3835	931.81	2
323.15	0.4936	916.67	2
323.15	0.5811	904.65	2
323.15	0.6878	889.97	2
323.15	0.7997	874.58	2
323.15	0.8818	863.28	2
323.15	1	847.03	2

System: ethyl butanoate + 1,3-butanediol; phases: Liquid
Fixed: Pressure, kPa = 100
Fixed: Frequency, MHz = 3
Property: Speed of sound, m/s (Liquid); method: Single path-length method
Temperature, K	Mole fraction of ethyl butanoate	Speed of sound, m/s	uncertainty
298.15	0	1527.9	1.4
298.15	0.1034	1491.1	1.4
298.15	0.203	1455.7	1.3
298.15	0.305	1419.4	1.2
298.15	0.3835	1391.4	1.2
298.15	0.4936	1352.2	1.1
298.15	0.5811	1321.1	1.1
298.15	0.6878	1283.1	1.1
298.15	0.7997	1243.3	1
298.15	0.8818	1214.1	1
298.15	1	1171.8	1
303.15	0	1514	1.4
303.15	0.1034	1476.5	1.4
303.15	0.203	1440.3	1.3
303.15	0.305	1403.3	1.2
303.15	0.3835	1374.8	1.2
303.15	0.4936	1334.8	1.1
303.15	0.5811	1303.1	1.1
303.15	0.6878	1264.3	1.1
303.15	0.7997	1223.7	1
303.15	0.8818	1193.9	1
303.15	1	1151.1	1
308.15	0	1500.1	1.4
308.15	0.1034	1461.9	1.4
308.15	0.203	1425	1.3
308.15	0.305	1387.2	1.2
308.15	0.3835	1358.2	1.2
308.15	0.4936	1317.4	1.1
308.15	0.5811	1285.1	1.1
308.15	0.6878	1245.5	1.1
308.15	0.7997	1204.1	1
308.15	0.8818	1173.7	1
308.15	1	1130.2	1
313.15	0	1486.2	1.4
313.15	0.1034	1447.2	1.4
313.15	0.203	1409.6	1.3
313.15	0.305	1371.2	1.2
313.15	0.3835	1341.5	1.2
313.15	0.4936	1300	1.2
313.15	0.5811	1267	1.1
313.15	0.6878	1226.8	1.1
313.15	0.7997	1184.6	1
313.15	0.8818	1153.6	1
313.15	1	1109	1
318.15	0	1472.3	1.4
318.15	0.1034	1432.6	1.4
318.15	0.203	1394.3	1.3
318.15	0.305	1355.1	1.2
318.15	0.3835	1324.9	1.2
318.15	0.4936	1282.6	1.2
318.15	0.5811	1249	1.1
318.15	0.6878	1208	1.1
318.15	0.7997	1165	1
318.15	0.8818	1133.4	1
318.15	1	1088	1
323.15	0	1458.4	1.4
323.15	0.1034	1417.9	1.4
323.15	0.203	1378.9	1.3
323.15	0.305	1339	1.2
323.15	0.3835	1308.3	1.2
323.15	0.4936	1265.2	1.2
323.15	0.5811	1231	1.1
323.15	0.6878	1189.2	1.1
323.15	0.7997	1145.4	1
323.15	0.8818	1113.3	1
323.15	1	1067.1	1

System: ethyl butanoate + 1,4-butanediol; phases: Liquid
Fixed: Pressure, kPa = 100
Property: Mass density, kg/m3 (Liquid); method: Vibrating tube method
Temperature, K	Mole fraction of ethyl butanoate	Mass density, kg/m3	uncertainty
298.15	0	1012.8	2
298.15	0.1009	998.83	2
298.15	0.1986	985.3	2
298.15	0.3254	967.74	2
298.15	0.4231	954.2	2
298.15	0.5008	943.44	2
298.15	0.5895	931.16	2
298.15	0.7128	914.08	2
298.15	0.8015	901.8	2
298.15	0.9105	886.7	2
298.15	1	874.31	2
303.15	0	1009.77	2
303.15	0.1009	995.55	2
303.15	0.1986	981.78	2
303.15	0.3254	963.91	2
303.15	0.4231	950.15	2
303.15	0.5008	939.2	2
303.15	0.5895	926.7	2
303.15	0.7128	909.32	2
303.15	0.8015	896.82	2
303.15	0.9105	881.46	2
303.15	1	868.85	2
308.15	0	1006.74	2
308.15	0.1009	992.28	2
308.15	0.1986	978.27	2
308.15	0.3254	960.1	2
308.15	0.4231	946.09	2
308.15	0.5008	934.96	2
308.15	0.5895	922.24	2
308.15	0.7128	904.57	2
308.15	0.8015	891.85	2
308.15	0.9105	876.23	2
308.15	1	863.4	2
313.15	0	1003.7	2
313.15	0.1009	988.99	2
313.15	0.1986	974.75	2
313.15	0.3254	956.27	2
313.15	0.4231	942.03	2
313.15	0.5008	930.7	2
313.15	0.5895	917.77	2
313.15	0.7128	899.8	2
313.15	0.8015	886.87	2
313.15	0.9105	870.99	2
313.15	1	857.94	2
318.15	0	1000.67	2
318.15	0.1009	985.72	2
318.15	0.1986	971.24	2
318.15	0.3254	952.45	2
318.15	0.4231	937.98	2
318.15	0.5008	926.46	2
318.15	0.5895	913.32	2
318.15	0.7128	895.05	2
318.15	0.8015	881.9	2
318.15	0.9105	865.75	2
318.15	1	852.49	2
323.15	0	997.63	2
323.15	0.1009	982.43	2
323.15	0.1986	967.72	2
323.15	0.3254	948.62	2
323.15	0.4231	933.91	2
323.15	0.5008	922.21	2
323.15	0.5895	908.85	2
323.15	0.7128	890.28	2
323.15	0.8015	876.92	2
323.15	0.9105	860.51	2
323.15	1	847.03	2

System: ethyl butanoate + 1,4-butanediol; phases: Liquid
Fixed: Pressure, kPa = 100
Fixed: Frequency, MHz = 3
Property: Speed of sound, m/s (Liquid); method: Single path-length method
Temperature, K	Mole fraction of ethyl butanoate	Speed of sound, m/s	uncertainty
298.15	0	1601.9	1.1
298.15	0.1009	1558.5	1.1
298.15	0.1986	1516.5	1.1
298.15	0.3254	1461.9	1.1
298.15	0.4231	1419.9	1.1
298.15	0.5008	1386.5	1.1
298.15	0.5895	1348.4	1
298.15	0.7128	1295.3	1
298.15	0.8015	1257.2	1
298.15	0.9105	1210.3	1
298.15	1	1171.8	1
303.15	0	1590.3	1.1
303.15	0.1009	1545.9	1.1
303.15	0.1986	1503	1.1
303.15	0.3254	1447.4	1.1
303.15	0.4231	1404.4	1.1
303.15	0.5008	1370.3	1.1
303.15	0.5895	1331.4	1
303.15	0.7128	1277.2	1
303.15	0.8015	1238.3	1
303.15	0.9105	1190.4	1
303.15	1	1151.1	1
308.15	0	1578.6	1.1
308.15	0.1009	1533.4	1.1
308.15	0.1986	1489.5	1.1
308.15	0.3254	1432.7	1.1
308.15	0.4231	1388.9	1.1
308.15	0.5008	1354	1.1
308.15	0.5895	1314.2	1
308.15	0.7128	1258.9	1
308.15	0.8015	1219.2	1
308.15	0.9105	1170.3	1
308.15	1	1130.2	1
313.15	0	1567	1.1
313.15	0.1009	1520.7	1.1
313.15	0.1986	1476	1.1
313.15	0.3254	1417.9	1.1
313.15	0.4231	1373.2	1.1
313.15	0.5008	1337.6	1.1
313.15	0.5895	1297	1
313.15	0.7128	1240.5	1
313.15	0.8015	1199.9	1
313.15	0.9105	1150	1
313.15	1	1109	1
318.15	0	1555.3	1.1
318.15	0.1009	1508.1	1.1
318.15	0.1986	1462.5	1.1
318.15	0.3254	1403.2	1.1
318.15	0.4231	1357.6	1.1
318.15	0.5008	1321.3	1.1
318.15	0.5895	1279.8	1
318.15	0.7128	1222.2	1
318.15	0.8015	1180.7	1
318.15	0.9105	1129.8	1
318.15	1	1088	1
323.15	0	1543.7	1.1
323.15	0.1009	1495.6	1.1
323.15	0.1986	1449	1.1
323.15	0.3254	1388.6	1.1
323.15	0.4231	1342	1.1
323.15	0.5008	1305	1.1
323.15	0.5895	1262.7	1
323.15	0.7128	1204	1
323.15	0.8015	1161.7	1
323.15	0.9105	1109.8	1
323.15	1	1067.1	1
