Measured thermophysical data. Standard molar enthalpy of formation of monothiodibenzoylmethane by rotating-bomb calorimetry
Source: J. Chem. Thermodyn., 2004, 10.1016/j.jct.2004.02.007
Compound 1: sulfuric acid, H2O4S, InChI=1S/H2O4S/c1-5(2,3)4/h(H2,1,2,3,4)
Compound 2: carbon dioxide, CO2, InChI=1S/CO2/c2-1-3
Compound 3: water, H2O, InChI=1S/H2O/h1H2
Compound 4: oxygen, O2, InChI=1S/O2/c1-2
Compound 5: monothiodibenzoylmethane, C15H12OS, InChI=1S/C15H12OS/c16-14(12-7-3-1-4-8-12)11-15(17)13-9-5-2-6-10-13/h1-11,17H/b15-11-
Compound 6: 1,3-diphenyl-1,3-propanedione, C15H12O2, InChI=1S/C15H12O2/c16-14(12-7-3-1-4-8-12)11-15(17)13-9-5-2-6-10-13/h1-10H,11H2
Compound 7: thianthrene, C12H8S2, InChI=1S/C12H8S2/c1-2-6-10-9(5-1)13-11-7-3-4-8-12(11)14-10/h1-8H

System: monothiodibenzoylmethane; phases: Crystal, Gas
Property: Molar enthalpy of vaporization or sublimation, kJ/mol (Crystal); method: Static calorimetry
Temperature, K	Molar enthalpy of vaporization or sublimation, kJ/mol	uncertainty
298.15	125.5	4.9

System: monothiodibenzoylmethane; phases: Gas
Property: Molar enthalpy, kJ/mol (Gas); method: Drop calorimetry
Temperature, K	Pressure, kPa	Molar enthalpy, kJ/mol	uncertainty
408	100	156.9	4.2

System: 1,3-diphenyl-1,3-propanedione; phases: Gas
Property: Molar enthalpy, kJ/mol (Gas); method: Drop calorimetry
Temperature, K	Pressure, kPa	Molar enthalpy, kJ/mol	uncertainty
382	100	135.7	4.1

System: 1,3-diphenyl-1,3-propanedione; phases: Crystal, Gas
Property: Molar enthalpy of vaporization or sublimation, kJ/mol (Crystal); method: Static calorimetry
Temperature, K	Molar enthalpy of vaporization or sublimation, kJ/mol	uncertainty
298.15	113.3	4.8

Reaction: 1 sulfuric acid + -1 monothiodibenzoylmethane + 15 carbon dioxide + 5 water + -19 oxygen
Property: Specific internal energy of reaction at constant volume, J/g
-34136.2

Reaction: -1 thianthrene + 2 sulfuric acid + 12 carbon dioxide + 2 water + -17 oxygen
Property: Specific internal energy of reaction at constant volume, J/g
-33465.5
