Measured thermophysical data. Experimental study and ERAS modeling of the excess molar enthalpy of (acetonitrile + 1-heptanol or 1-octanol) mixtures at (298.15, 313.15, and 323.15) K and atmospheric pressure
Source: J. Chem. Thermodyn., 2008, 10.1016/j.jct.2008.01.017
Compound 1: acetonitrile, C2H3N, InChI=1S/C2H3N/c1-2-3/h1H3, purity 99.99%
Compound 2: heptan-1-ol, C7H16O, InChI=1S/C7H16O/c1-2-3-4-5-6-7-8/h8H,2-7H2,1H3, purity 99%
Compound 3: octan-1-ol, C8H18O, InChI=1S/C8H18O/c1-2-3-4-5-6-7-8-9/h9H,2-8H2,1H3, purity 99.5%

System: acetonitrile; phases: Liquid
Property: Refractive index (Na D-line) (Liquid); method: Standard Abbe refractometry
Temperature, K	Pressure, kPa	Refractive index (Na D-line)	uncertainty
293.15	101.325	1.3441	0.0007

System: acetonitrile; phases: Liquid
Property: Mass density, kg/m3 (Liquid); method: Vibrating tube method
Temperature, K	Pressure, kPa	Mass density, kg/m3	uncertainty
293.15	101.325	784.6	0.2

System: heptan-1-ol; phases: Liquid
Property: Refractive index (Na D-line) (Liquid); method: Standard Abbe refractometry
Temperature, K	Pressure, kPa	Refractive index (Na D-line)	uncertainty
293.15	101.325	1.4245	0.0007

System: heptan-1-ol; phases: Liquid
Property: Mass density, kg/m3 (Liquid); method: VIBTUB:UFactor:6
Temperature, K	Pressure, kPa	Mass density, kg/m3	uncertainty
293.15	101.325	822.3	0.7

System: octan-1-ol; phases: Liquid
Property: Refractive index (Na D-line) (Liquid); method: Standard Abbe refractometry
Temperature, K	Pressure, kPa	Refractive index (Na D-line)	uncertainty
293.15	101.325	1.4293	0.0007

System: octan-1-ol; phases: Liquid
Property: Mass density, kg/m3 (Liquid); method: VIBTUB:UFactor:6
Temperature, K	Pressure, kPa	Mass density, kg/m3	uncertainty
293.15	101.325	825.8	0.6

System: acetonitrile + heptan-1-ol; phases: Liquid
Fixed: Pressure, kPa = 101
Property: Excess molar enthalpy (molar enthalpy of mixing), kJ/mol (Liquid); method: Flow calorimetry
Temperature, K	Mole fraction of heptan-1-ol	Excess molar enthalpy (molar enthalpy of mixing), kJ/mol	uncertainty
298.15	0.0529	0.589	0.014
298.15	0.1128	1.091	0.019
298.15	0.1738	1.526	0.025
298.15	0.2352	1.819	0.029
298.15	0.2962	2.03	0.032
298.15	0.3561	2.16	0.034
298.15	0.4143	2.218	0.035
298.15	0.4701	2.226	0.035
298.15	0.5231	2.189	0.035
298.15	0.573	2.113	0.034
298.15	0.6194	2.006	0.032
298.15	0.6623	1.877	0.03
298.15	0.7015	1.741	0.028
298.15	0.7692	1.46	0.024
298.15	0.8038	1.268	0.021
298.15	0.8621	0.923	0.016
298.15	0.9271	0.485	0.012
313.15	0.0698	0.777	0.018
313.15	0.1417	1.366	0.022
313.15	0.2146	1.801	0.029
313.15	0.2872	2.107	0.033
313.15	0.3584	2.279	0.036
313.15	0.427	2.345	0.037
313.15	0.4923	2.346	0.037
313.15	0.5533	2.293	0.036
313.15	0.6096	2.174	0.034
313.15	0.6608	2.011	0.032
313.15	0.707	1.831	0.029
313.15	0.7482	1.641	0.026
313.15	0.7845	1.455	0.024
313.15	0.8163	1.27	0.021
313.15	0.8439	1.088	0.018
313.15	0.8642	0.955	0.016
313.15	0.9283	0.505	0.012
323.15	0.0704	0.795	0.019
323.15	0.1429	1.455	0.024
323.15	0.2161	1.963	0.031
323.15	0.2891	2.263	0.036
323.15	0.3605	2.402	0.038
323.15	0.4293	2.447	0.039
323.15	0.4946	2.427	0.038
323.15	0.5555	2.366	0.037
323.15	0.6117	2.261	0.036
323.15	0.6629	2.085	0.033
323.15	0.7089	1.892	0.03
323.15	0.7499	1.69	0.027
323.15	0.786	1.5	0.024
323.15	0.8177	1.316	0.022
323.15	0.8451	1.143	0.019
323.15	0.8642	1.014	0.017
323.15	0.9283	0.558	0.013

System: acetonitrile + octan-1-ol; phases: Liquid
Fixed: Pressure, kPa = 101
Property: Excess molar enthalpy (molar enthalpy of mixing), kJ/mol (Liquid); method: Flow calorimetry
Temperature, K	Mole fraction of octan-1-ol	Excess molar enthalpy (molar enthalpy of mixing), kJ/mol	uncertainty
298.15	0.0476	0.675	0.017
298.15	0.0971	1.18	0.026
298.15	0.1479	1.57	0.026
298.15	0.1998	1.878	0.03
298.15	0.2521	2.101	0.033
298.15	0.3044	2.263	0.036
298.15	0.3562	2.37	0.038
298.15	0.407	2.425	0.038
298.15	0.471	2.439	0.039
298.15	0.5316	2.366	0.037
298.15	0.5882	2.255	0.036
298.15	0.6879	1.922	0.031
298.15	0.7685	1.542	0.025
298.15	0.802	1.371	0.022
298.15	0.8567	1.026	0.017
298.15	0.8975	0.738	0.013
298.15	0.9375	0.491	0.012
313.15	0.063	0.859	0.02
313.15	0.1288	1.51	0.025
313.15	0.1966	2.039	0.033
313.15	0.2652	2.376	0.038
313.15	0.3335	2.57	0.041
313.15	0.4003	2.655	0.042
313.15	0.4647	2.656	0.042
313.15	0.5259	2.596	0.041
313.15	0.583	2.478	0.039
313.15	0.6357	2.304	0.037
313.15	0.6837	2.095	0.033
313.15	0.7268	1.891	0.03
313.15	0.7653	1.691	0.027
313.15	0.7992	1.501	0.024
313.15	0.8288	1.32	0.022
313.15	0.8762	0.987	0.017
313.15	0.9349	0.517	0.013
323.15	0.0633	0.912	0.022
323.15	0.1295	1.663	0.028
323.15	0.1975	2.262	0.036
323.15	0.2663	2.563	0.041
323.15	0.3347	2.742	0.043
323.15	0.4017	2.81	0.044
323.15	0.4661	2.801	0.044
323.15	0.5273	2.724	0.043
323.15	0.5844	2.59	0.041
323.15	0.637	2.406	0.038
323.15	0.6849	2.212	0.035
323.15	0.7279	2.002	0.032
323.15	0.7663	1.791	0.029
323.15	0.8001	1.602	0.026
323.15	0.8296	1.402	0.023
323.15	0.8768	1.037	0.018
323.15	0.9352	0.549	0.014
