Measured thermophysical data. Thermodynamic study of 1,2,3-triphenylbenzene and 1,3,5-triphenylbenzene
Source: J. Chem. Thermodyn., 2010, 10.1016/j.jct.2009.07.022
Compound 1: carbon dioxide, CO2, InChI=1S/CO2/c2-1-3
Compound 2: water, H2O, InChI=1S/H2O/h1H2
Compound 3: oxygen, O2, InChI=1S/O2/c1-2
Compound 4: graphite, C
Compound 5: hydrogen, H2, InChI=1S/H2/h1H
Compound 6: 1,2,3-triphenylbenzene, C24H18, InChI=1S/C24H18/c1-4-11-19(12-5-1)22-17-10-18-23(20-13-6-2-7-14-20)24(22)21-15-8-3-9-16-21/h1-18H, purity 97%
Compound 7: 1,3,5-triphenylbenzene, C24H18, InChI=1S/C24H18/c1-4-10-19(11-5-1)22-16-23(20-12-6-2-7-13-20)18-24(17-22)21-14-8-3-9-15-21/h1-18H, purity 97%

System: 1,2,3-triphenylbenzene; phases: Crystal, Gas
Property: Molar enthalpy of transition or fusion, kJ/mol (Crystal); method: Clausius-Clapeyron Eq with Heat Capacity
Temperature, K	Molar enthalpy of transition or fusion, kJ/mol	uncertainty
298.15	134.1	2.2

System: 1,2,3-triphenylbenzene; phases: Crystal, Gas
Property: Vapor or sublimation pressure, kPa (Crystal); method: Calculated from knudsen effusion weight loss
Temperature, K	Vapor or sublimation pressure, kPa	uncertainty
373.15	0.0001	5e-06
373.15	9.85e-05	4.9e-06
375.03	0.000124	6e-06
375.03	0.000124	6e-06
375.03	0.00012	6e-06
377.27	0.00016	8e-06
377.27	0.000158	8e-06
379.15	0.0002	1e-05
379.15	0.000199	1e-05
379.15	0.000195	1e-05
381.02	0.000244	1.2e-05
381.02	0.000247	1.2e-05
381.02	0.000237	1.2e-05
383.27	0.000316	1.6e-05
383.27	0.000305	1.5e-05
383.27	0.000301	1.5e-05
385.27	0.000384	1.9e-05
385.27	0.000369	1.8e-05
385.27	0.000365	1.8e-05
387.12	0.000458	2.3e-05
387.12	0.00046	2.3e-05
389.05	0.000548	2.7e-05
389.05	0.000555	2.8e-05
389.05	0.000543	2.7e-05
391.28	0.000733	3.7e-05
391.28	0.00073	3.7e-05
391.28	0.000715	3.6e-05
393.1	0.000871	4.4e-05
393.1	0.000865	4.3e-05
393.1	0.000872	4.4e-05
394.98	0.001033	0.000104
394.98	0.001062	0.000108
394.98	0.001027	0.000103

System: 1,2,3-triphenylbenzene; phases: Gas
Property: Molar enthalpy, kJ/mol (Gas); method: Clausius-Clapeyron Eq
Temperature, K	Pressure, kPa	Molar enthalpy, kJ/mol	uncertainty
384.07	0.000333	131.7	1.2

Reaction: -1 1,2,3-triphenylbenzene + 24 carbon dioxide + 9 water + -28.5 oxygen
Property: Specific internal energy of reaction at constant volume, J/g
-39974.3

Reaction: -1 1,3,5-triphenylbenzene + 24 carbon dioxide + 9 water + -28.5 oxygen
Property: Specific internal energy of reaction at constant volume, J/g
-39897.3

Reaction: 1 1,2,3-triphenylbenzene + -24 graphite + -9 hydrogen
Property: Molar enthalpy of reaction, kJ/mol
242.6

Reaction: 1 1,2,3-triphenylbenzene + -24 graphite + -9 hydrogen
Property: Molar enthalpy of reaction, kJ/mol
376.7

Reaction: 1 1,3,5-triphenylbenzene + -24 graphite + -9 hydrogen
Property: Molar enthalpy of reaction, kJ/mol
219

Reaction: 1 1,3,5-triphenylbenzene + -24 graphite + -9 hydrogen
Property: Molar enthalpy of reaction, kJ/mol
366.8
