Measured thermophysical data. Liquid-liquid equilibria for ternary mixtures of 1-alkyl-3-methyl imidazolium bis{(trifluoromethyl)sulfonyl}imides, n-hexane and organic compounds at 303.15 K and 0.1 MPa
Source: J. Chem. Thermodyn., 2016, 10.1016/j.jct.2016.08.033
Compound 1: 1-ethyl-3-methylimidazolium bis((trifluoromethyl)sulfonyl)imide, C8H11F6N3O4S2, InChI=1S/C6H11N2.C2F6NO4S2/c1-3-8-5-4-7(2)6-8;3-1(4,5)14(10,11)9-15(12,13)2(6,7)8/h4-6H,3H2,1-2H3;/q+1;-1, purity 99%
Compound 2: 1-hexyl-3-methylimidazolium bis[(trifluoromethyl)sulfonyl]imide, C12H19F6N3O4S2, InChI=1S/C10H19N2.C2F6NO4S2/c1-3-4-5-6-7-12-9-8-11(2)10-12;3-1(4,5)14(10,11)9-15(12,13)2(6,7)8/h8-10H,3-7H2,1-2H3;/q+1;-1, purity 99%
Compound 3: butanoic acid, C4H8O2, InChI=1S/C4H8O2/c1-2-3-4(5)6/h2-3H2,1H3,(H,5,6), purity 99%
Compound 4: vinyl butanoate, C6H10O2, InChI=1S/C6H10O2/c1-3-5-6(7)8-4-2/h4H,2-3,5H2,1H3, purity 99%
Compound 5: 1-methylbutyl butanoate, C9H18O2, InChI=1S/C9H18O2/c1-4-6-8(3)11-9(10)7-5-2/h8H,4-7H2,1-3H3, purity 99%
Compound 6: pentan-2-ol, C5H12O, InChI=1S/C5H12O/c1-3-4-5(2)6/h5-6H,3-4H2,1-2H3, purity 98%
Compound 7: hexane, C6H14, InChI=1S/C6H14/c1-3-5-6-4-2/h3-6H2,1-2H3, purity 98%

System: 1-ethyl-3-methylimidazolium bis((trifluoromethyl)sulfonyl)imide; phases: Liquid
Property: Refractive index (Na D-line) (Liquid); method: Standard Abbe refractometry
Temperature, K	Pressure, kPa	Refractive index (Na D-line)	uncertainty
303.15	101.325	1.42162	0.00106

System: 1-ethyl-3-methylimidazolium bis((trifluoromethyl)sulfonyl)imide; phases: Liquid
Property: Mass density, kg/m3 (Liquid); method: Vibrating tube method
Temperature, K	Pressure, kPa	Mass density, kg/m3	uncertainty
303.15	101.325	1513.74	1.19

System: 1-hexyl-3-methylimidazolium bis[(trifluoromethyl)sulfonyl]imide; phases: Liquid
Property: Refractive index (Na D-line) (Liquid); method: Standard Abbe refractometry
Temperature, K	Pressure, kPa	Refractive index (Na D-line)	uncertainty
303.15	101.325	1.42851	0.00106

System: 1-hexyl-3-methylimidazolium bis[(trifluoromethyl)sulfonyl]imide; phases: Liquid
Property: Mass density, kg/m3 (Liquid); method: Vibrating tube method
Temperature, K	Pressure, kPa	Mass density, kg/m3	uncertainty
303.15	101.325	1367.17	1.12

System: butanoic acid; phases: Liquid
Property: Refractive index (Na D-line) (Liquid); method: Standard Abbe refractometry
Temperature, K	Pressure, kPa	Refractive index (Na D-line)	uncertainty
303.15	101.325	1.39394	0.00106

System: butanoic acid; phases: Liquid
Property: Mass density, kg/m3 (Liquid); method: Vibrating tube method
Temperature, K	Pressure, kPa	Mass density, kg/m3	uncertainty
303.15	101.325	948.44	1.02

System: vinyl butanoate; phases: Liquid
Property: Refractive index (Na D-line) (Liquid); method: Standard Abbe refractometry
Temperature, K	Pressure, kPa	Refractive index (Na D-line)	uncertainty
303.15	101.325	1.40494	0.00106

System: vinyl butanoate; phases: Liquid
Property: Mass density, kg/m3 (Liquid); method: Vibrating tube method
Temperature, K	Pressure, kPa	Mass density, kg/m3	uncertainty
303.15	101.325	888.65	1.02

System: 1-methylbutyl butanoate; phases: Liquid
Property: Refractive index (Na D-line) (Liquid); method: Standard Abbe refractometry
Temperature, K	Pressure, kPa	Refractive index (Na D-line)	uncertainty
303.15	101.325	1.40283	0.00106

System: 1-methylbutyl butanoate; phases: Liquid
Property: Mass density, kg/m3 (Liquid); method: Vibrating tube method
Temperature, K	Pressure, kPa	Mass density, kg/m3	uncertainty
303.15	101.325	849.19	1.02

System: pentan-2-ol; phases: Liquid
Property: Refractive index (Na D-line) (Liquid); method: Standard Abbe refractometry
Temperature, K	Pressure, kPa	Refractive index (Na D-line)	uncertainty
303.15	101.325	1.40216	0.00206

System: pentan-2-ol; phases: Liquid
Property: Mass density, kg/m3 (Liquid); method: Vibrating tube method
Temperature, K	Pressure, kPa	Mass density, kg/m3	uncertainty
303.15	101.325	800.09	2.08

System: hexane + pentan-2-ol + 1-ethyl-3-methylimidazolium bis((trifluoromethyl)sulfonyl)imide; phases: Liquid mixture 2, Liquid mixture 1
Fixed: Temperature, K = 303.15
Fixed: Pressure, kPa = 100
Property: Mole fraction of 1-ethyl-3-methylimidazolium bis((trifluoromethyl)sulfonyl)imide (Liquid mixture 2); method: Density calibration data
Property: Mole fraction of 1-ethyl-3-methylimidazolium bis((trifluoromethyl)sulfonyl)imide (Liquid mixture 1); method: Density calibration data
Property: Mole fraction of pentan-2-ol (Liquid mixture 1); method: Density calibration data
Mole fraction of pentan-2-ol	Mole fraction of 1-ethyl-3-methylimidazolium bis((trifluoromethyl)sulfonyl)imide	uncertainty	Mole fraction of 1-ethyl-3-methylimidazolium bis((trifluoromethyl)sulfonyl)imide	uncertainty	Mole fraction of pentan-2-ol	uncertainty
0.648	0.352	0.085	0		0.717	
0.55	0.45	0.085	0		0.51	
0.515	0.485	0.085	0		0.366	
0.41	0.59	0.085	0		0.314	
0.307	0.693	0.085	0		0.227	
0.213	0.787	0.085	0		0.144	

System: butanoic acid + hexane + 1-ethyl-3-methylimidazolium bis((trifluoromethyl)sulfonyl)imide; phases: Liquid mixture 1, Liquid mixture 2
Fixed: Temperature, K = 303.15
Fixed: Pressure, kPa = 100
Property: Mole fraction of 1-ethyl-3-methylimidazolium bis((trifluoromethyl)sulfonyl)imide (Liquid mixture 1); method: Density calibration data
Property: Mole fraction of 1-ethyl-3-methylimidazolium bis((trifluoromethyl)sulfonyl)imide (Liquid mixture 2); method: Density calibration data
Property: Mole fraction of butanoic acid (Liquid mixture 2); method: Density calibration data
Mole fraction of butanoic acid	Mole fraction of 1-ethyl-3-methylimidazolium bis((trifluoromethyl)sulfonyl)imide	uncertainty	Mole fraction of 1-ethyl-3-methylimidazolium bis((trifluoromethyl)sulfonyl)imide	uncertainty	Mole fraction of butanoic acid	uncertainty
0.855	0		0.087	0.085	0.913	
0.663	0		0.136	0.085	0.864	
0.468	0		0.19	0.085	0.81	
0.261	0		0.216	0.085	0.784	
0.123	0		0.319	0.085	0.681	
0.064	0		0.616	0.085	0.384	

System: hexane + 1-methylbutyl butanoate + 1-ethyl-3-methylimidazolium bis((trifluoromethyl)sulfonyl)imide; phases: Liquid mixture 2, Liquid mixture 1
Fixed: Temperature, K = 303.15
Fixed: Pressure, kPa = 100
Property: Mole fraction of 1-ethyl-3-methylimidazolium bis((trifluoromethyl)sulfonyl)imide (Liquid mixture 2); method: Density calibration data
Property: Mole fraction of 1-ethyl-3-methylimidazolium bis((trifluoromethyl)sulfonyl)imide (Liquid mixture 1); method: Density calibration data
Property: Mole fraction of 1-methylbutyl butanoate (Liquid mixture 1); method: Density calibration data
Mole fraction of 1-methylbutyl butanoate	Mole fraction of 1-ethyl-3-methylimidazolium bis((trifluoromethyl)sulfonyl)imide	uncertainty	Mole fraction of 1-ethyl-3-methylimidazolium bis((trifluoromethyl)sulfonyl)imide	uncertainty	Mole fraction of 1-methylbutyl butanoate	uncertainty
0.291	0.709	0.06	0		0.856	
0.221	0.779	0.06	0		0.727	
0.21	0.79	0.06	0		0.582	
0.18	0.82	0.06	0		0.419	
0.17	0.83	0.06	0		0.233	
0.073	0.927	0.06	0		0.106	

System: hexane + vinyl butanoate + 1-ethyl-3-methylimidazolium bis((trifluoromethyl)sulfonyl)imide; phases: Liquid mixture 1, Liquid mixture 2
Fixed: Temperature, K = 303.15
Fixed: Pressure, kPa = 100
Property: Mole fraction of 1-ethyl-3-methylimidazolium bis((trifluoromethyl)sulfonyl)imide (Liquid mixture 1); method: Density calibration data
Property: Mole fraction of 1-ethyl-3-methylimidazolium bis((trifluoromethyl)sulfonyl)imide (Liquid mixture 2); method: Density calibration data
Property: Mole fraction of vinyl butanoate (Liquid mixture 2); method: Density calibration data
Mole fraction of vinyl butanoate	Mole fraction of 1-ethyl-3-methylimidazolium bis((trifluoromethyl)sulfonyl)imide	uncertainty	Mole fraction of 1-ethyl-3-methylimidazolium bis((trifluoromethyl)sulfonyl)imide	uncertainty	Mole fraction of vinyl butanoate	uncertainty
0.866	0		0.374	0.085	0.626	
0.731	0		0.433	0.085	0.567	
0.571	0		0.482	0.085	0.518	
0.407	0		0.639	0.085	0.361	
0.236	0		0.735	0.085	0.265	
0.098	0		0.877	0.085	0.123	

System: hexane + pentan-2-ol + 1-hexyl-3-methylimidazolium bis[(trifluoromethyl)sulfonyl]imide; phases: Liquid mixture 1, Liquid mixture 2
Fixed: Pressure, kPa = 100
Fixed: Temperature, K = 303.15
Property: Mole fraction of pentan-2-ol (Liquid mixture 1); method: Titration method
Mole fraction of 1-hexyl-3-methylimidazolium bis[(trifluoromethyl)sulfonyl]imide	Mole fraction of pentan-2-ol	uncertainty
0.048	0.663	0.016
0.079	0.65	0.016
0.208	0.533	0.021
0.338	0.404	0.02
0.618	0.122	0.024
0.688	0	

System: hexane + pentan-2-ol + 1-hexyl-3-methylimidazolium bis[(trifluoromethyl)sulfonyl]imide; phases: Liquid mixture 2, Liquid mixture 1
Fixed: Temperature, K = 303.15
Fixed: Pressure, kPa = 100
Property: Mole fraction of 1-hexyl-3-methylimidazolium bis[(trifluoromethyl)sulfonyl]imide (Liquid mixture 2); method: Density calibration data
Property: Mole fraction of 1-hexyl-3-methylimidazolium bis[(trifluoromethyl)sulfonyl]imide (Liquid mixture 1); method: Density calibration data
Property: Mole fraction of pentan-2-ol (Liquid mixture 1); method: Density calibration data
Mole fraction of pentan-2-ol	Mole fraction of 1-hexyl-3-methylimidazolium bis[(trifluoromethyl)sulfonyl]imide	uncertainty	Mole fraction of 1-hexyl-3-methylimidazolium bis[(trifluoromethyl)sulfonyl]imide	uncertainty	Mole fraction of pentan-2-ol	uncertainty
0.604	0.128	0.089	0.04	0.04	0.568	
0.523	0.217	0.087	0.04	0.04	0.47	
0.462	0.277	0.085	0.019	0.019	0.33	
0.35	0.388	0.085	0.021	0.021	0.259	
0.289	0.451	0.087	0.011	0.011	0.14	
0.201	0.541	0.086	0.004	0.004	0.047	

System: butanoic acid + hexane + 1-hexyl-3-methylimidazolium bis[(trifluoromethyl)sulfonyl]imide; phases: Liquid mixture 1, Liquid mixture 2
Fixed: Pressure, kPa = 100
Fixed: Temperature, K = 303.15
Property: Mole fraction of butanoic acid (Liquid mixture 1); method: Titration method
Mole fraction of 1-hexyl-3-methylimidazolium bis[(trifluoromethyl)sulfonyl]imide	Mole fraction of butanoic acid	uncertainty
0.007	0.911	0.013
0.02	0.901	0.015
0.119	0.772	0.022
0.338	0.444	0.024
0.557	0.163	0.02
0.688	0	

System: butanoic acid + hexane + 1-hexyl-3-methylimidazolium bis[(trifluoromethyl)sulfonyl]imide; phases: Liquid mixture 2, Liquid mixture 1
Fixed: Temperature, K = 303.15
Fixed: Pressure, kPa = 100
Property: Mole fraction of 1-hexyl-3-methylimidazolium bis[(trifluoromethyl)sulfonyl]imide (Liquid mixture 2); method: Density calibration data
Property: Mole fraction of 1-hexyl-3-methylimidazolium bis[(trifluoromethyl)sulfonyl]imide (Liquid mixture 1); method: Density calibration data
Property: Mole fraction of butanoic acid (Liquid mixture 1); method: Density calibration data
Mole fraction of butanoic acid	Mole fraction of 1-hexyl-3-methylimidazolium bis[(trifluoromethyl)sulfonyl]imide	uncertainty	Mole fraction of 1-hexyl-3-methylimidazolium bis[(trifluoromethyl)sulfonyl]imide	uncertainty	Mole fraction of butanoic acid	uncertainty
0.794	0.1	0.073	0.011	0.011	0.811	
0.694	0.169	0.073	0.008	0.008	0.611	
0.547	0.272	0.072	0.005	0.005	0.42	
0.452	0.328	0.075	0.003	0.003	0.26	
0.3	0.451	0.077	0		0.15	
0.222	0.511	0.076	0		0.059	

System: hexane + 1-methylbutyl butanoate + 1-hexyl-3-methylimidazolium bis[(trifluoromethyl)sulfonyl]imide; phases: Liquid mixture 1, Liquid mixture 2
Fixed: Pressure, kPa = 100
Fixed: Temperature, K = 303.15
Property: Mole fraction of 1-methylbutyl butanoate (Liquid mixture 1); method: Titration method
Mole fraction of 1-hexyl-3-methylimidazolium bis[(trifluoromethyl)sulfonyl]imide	Mole fraction of 1-methylbutyl butanoate	uncertainty
0.037	0.556	0.018
0.088	0.543	0.02
0.218	0.423	0.02
0.349	0.301	0.018
0.459	0.203	0.017
0.569	0.11	0.016
0.688	0	

System: hexane + 1-methylbutyl butanoate + 1-hexyl-3-methylimidazolium bis[(trifluoromethyl)sulfonyl]imide; phases: Liquid mixture 2, Liquid mixture 1
Fixed: Temperature, K = 303.15
Fixed: Pressure, kPa = 100
Property: Mole fraction of 1-hexyl-3-methylimidazolium bis[(trifluoromethyl)sulfonyl]imide (Liquid mixture 2); method: Density calibration data
Property: Mole fraction of 1-hexyl-3-methylimidazolium bis[(trifluoromethyl)sulfonyl]imide (Liquid mixture 1); method: Density calibration data
Property: Mole fraction of 1-methylbutyl butanoate (Liquid mixture 1); method: Density calibration data
Mole fraction of 1-methylbutyl butanoate	Mole fraction of 1-hexyl-3-methylimidazolium bis[(trifluoromethyl)sulfonyl]imide	uncertainty	Mole fraction of 1-hexyl-3-methylimidazolium bis[(trifluoromethyl)sulfonyl]imide	uncertainty	Mole fraction of 1-methylbutyl butanoate	uncertainty
0.465	0.176	0.087	0.027	0.027	0.439	
0.404	0.24	0.088	0.02	0.02	0.323	
0.262	0.392	0.09	0.017	0.017	0.245	
0.15	0.52	0.092	0.009	0.009	0.154	
0.084	0.595	0.091	0.005	0.005	0.075	

System: hexane + vinyl butanoate + 1-hexyl-3-methylimidazolium bis[(trifluoromethyl)sulfonyl]imide; phases: Liquid mixture 1, Liquid mixture 2
Fixed: Pressure, kPa = 100
Fixed: Temperature, K = 303.15
Property: Mole fraction of vinyl butanoate (Liquid mixture 1); method: Titration method
Mole fraction of 1-hexyl-3-methylimidazolium bis[(trifluoromethyl)sulfonyl]imide	Mole fraction of vinyl butanoate	uncertainty
0.011	0.489	0.018
0.028	0.613	0.016
0.088	0.601	0.016
0.198	0.501	0.019
0.399	0.292	0.015
0.587	0.122	0.012
0.687	0	

System: hexane + vinyl butanoate + 1-hexyl-3-methylimidazolium bis[(trifluoromethyl)sulfonyl]imide; phases: Liquid mixture 2, Liquid mixture 1
Fixed: Temperature, K = 303.15
Fixed: Pressure, kPa = 100
Property: Mole fraction of 1-hexyl-3-methylimidazolium bis[(trifluoromethyl)sulfonyl]imide (Liquid mixture 2); method: Density calibration data
Property: Mole fraction of 1-hexyl-3-methylimidazolium bis[(trifluoromethyl)sulfonyl]imide (Liquid mixture 1); method: Density calibration data
Property: Mole fraction of vinyl butanoate (Liquid mixture 1); method: Density calibration data
Mole fraction of vinyl butanoate	Mole fraction of 1-hexyl-3-methylimidazolium bis[(trifluoromethyl)sulfonyl]imide	uncertainty	Mole fraction of 1-hexyl-3-methylimidazolium bis[(trifluoromethyl)sulfonyl]imide	uncertainty	Mole fraction of vinyl butanoate	uncertainty
0.592	0.1	0.089	0.007	0.007	0.506	
0.533	0.167	0.082	0.005	0.005	0.426	
0.482	0.221	0.084	0.003	0.003	0.294	
0.362	0.327	0.083	0.002	0.002	0.191	
0.247	0.444	0.089	0.001	0.001	0.142	
0.069	0.641	0.09	0		0.047	

System: hexane + 1-hexyl-3-methylimidazolium bis[(trifluoromethyl)sulfonyl]imide; phases: Liquid mixture 1, Liquid mixture 2
Fixed: Pressure, kPa = 100
Fixed: Temperature, K = 303.15
Property: Mole fraction of 1-hexyl-3-methylimidazolium bis[(trifluoromethyl)sulfonyl]imide (Liquid mixture 1); method: Titration method
Mole fraction of 1-hexyl-3-methylimidazolium bis[(trifluoromethyl)sulfonyl]imide	uncertainty
0.688	0.013
0.687	0.013
