Measured thermophysical data. Partial molar volume of paracetamol in water, 0.1 M HCl and 0.154 M NaCl at T = (298.15, 303.15, 308.15 and 310.65) K and at 101.325 kPa
Source: J. Chem. Thermodyn., 2005, 10.1016/j.jct.2005.03.008
Compound 1: N-acetyl-p-aminophenol, C8H9NO2, InChI=1S/C8H9NO2/c1-6(10)9-7-2-4-8(11)5-3-7/h2-5,11H,1H3,(H,9,10), purity 98.8%
Compound 2: sodium chloride, ClNa, InChI=1S/ClH.Na/h1H;/q;+1/p-1, purity 99.99%
Compound 3: hydrogen chloride, ClH, InChI=1S/ClH/h1H
Compound 4: water, H2O, InChI=1S/H2O/h1H2
Compound 5: toluene, C7H8, InChI=1S/C7H8/c1-7-5-3-2-4-6-7/h2-6H,1H3
Compound 6: cyclohexane, C6H12, InChI=1S/C6H12/c1-2-4-6-5-3-1/h1-6H2

System: water; phases: Liquid
Property: Mass density, kg/m3 (Liquid); method: Vibrating tube method
Temperature, K	Pressure, kPa	Mass density, kg/m3	uncertainty
293.15	101.325	998.18	2.28

System: toluene; phases: Liquid
Property: Mass density, kg/m3 (Liquid); method: Vibrating tube method
Temperature, K	Pressure, kPa	Mass density, kg/m3	uncertainty
293.15	101.325	866.93	2.05

System: cyclohexane; phases: Liquid
Property: Mass density, kg/m3 (Liquid); method: Vibrating tube method
Temperature, K	Pressure, kPa	Mass density, kg/m3	uncertainty
293.15	101.325	778.5	2

System: N-acetyl-p-aminophenol + water; phases: Liquid
Fixed: Pressure, kPa = 101.325
Property: Apparent molar volume, m3/mol (Liquid); method: Calculated with densities of this investigation
Temperature, K	Molality, mol/kg of N-acetyl-p-aminophenol	Apparent molar volume, m3/mol	uncertainty
298.15	0.003	0.000184636	3.5406e-05
298.15	0.006	0.000184612	1.7708e-05
298.15	0.009	0.000184588	1.1809e-05
298.15	0.012	0.000184564	8.86e-06
298.15	0.015	0.000184541	7.09e-06
298.15	0.018	0.000184518	5.91e-06
298.15	0.021	0.000184494	5.067e-06
298.15	0.024	0.00018447	4.435e-06
298.15	0.027	0.000184447	3.944e-06
298.15	0.03	0.000184423	3.55e-06
303.15	0.003	0.000184657	3.541e-05
303.15	0.006	0.000184633	1.7711e-05
303.15	0.009	0.000184609	1.1811e-05
303.15	0.012	0.000184586	8.861e-06
303.15	0.015	0.000184562	7.091e-06
303.15	0.018	0.000184539	5.911e-06
303.15	0.021	0.000184515	5.068e-06
303.15	0.024	0.000184491	4.436e-06
303.15	0.027	0.000184468	3.944e-06
303.15	0.03	0.000184444	3.551e-06
308.15	0.003	0.000184704	3.542e-05
308.15	0.006	0.000184681	1.7716e-05
308.15	0.009	0.000184657	1.1814e-05
308.15	0.012	0.000184634	8.863e-06
308.15	0.015	0.00018461	7.093e-06
308.15	0.018	0.000184586	5.913e-06
308.15	0.021	0.000184563	5.069e-06
308.15	0.024	0.000184539	4.437e-06
308.15	0.027	0.000184515	3.945e-06
308.15	0.03	0.000184492	3.552e-06
310.65	0.003	0.000184839	3.5449e-05
310.65	0.006	0.000184816	1.773e-05
310.65	0.009	0.000184792	1.1824e-05
310.65	0.012	0.000184768	8.87e-06
310.65	0.015	0.000184745	7.099e-06
310.65	0.018	0.000184721	5.917e-06
310.65	0.021	0.000184697	5.074e-06
310.65	0.024	0.000184674	4.441e-06
310.65	0.027	0.00018465	3.949e-06
310.65	0.03	0.000184626	3.555e-06

System: sodium chloride + water; phases: Liquid
Fixed: Temperature, K = 293.15
Fixed: Pressure, kPa = 101.325
Property: Mass density, kg/m3 (Liquid); method: Vibrating tube method
Mass fraction of sodium chloride	Mass density, kg/m3	uncertainty
0.005	1001.78	0.51
0.01	1005.28	0.51
0.02	1012.48	0.51
0.03	1019.58	0.5

System: N-acetyl-p-aminophenol + hydrogen chloride + water; phases: Liquid
Fixed: Pressure, kPa = 101.3
Fixed: Solvent: Amount concentration (molarity), mol/dm3 of hydrogen chloride = 0.1
Property: Apparent molar volume, m3/mol (Liquid); method: Calculated with densities of this investigation
Temperature, K	Molality, mol/kg of N-acetyl-p-aminophenol	Apparent molar volume, m3/mol	uncertainty
298.15	0.003	0.000184542	4.5683e-05
298.15	0.006	0.000184518	2.2848e-05
298.15	0.009	0.000184494	1.5237e-05
298.15	0.012	0.000184471	1.1431e-05
298.15	0.015	0.000184447	9.148e-06
298.15	0.018	0.000184424	7.626e-06
298.15	0.021	0.0001844	6.538e-06
298.15	0.024	0.000184377	5.723e-06
298.15	0.027	0.000184353	5.088e-06
298.15	0.03	0.000184329	4.581e-06
303.15	0.003	0.000184562	4.5688e-05
303.15	0.006	0.000184538	2.2851e-05
303.15	0.009	0.000184515	1.5239e-05
303.15	0.012	0.000184492	1.1433e-05
303.15	0.015	0.000184468	9.149e-06
303.15	0.018	0.000184444	7.627e-06
303.15	0.021	0.000184421	6.539e-06
303.15	0.024	0.000184397	5.723e-06
303.15	0.027	0.000184374	5.089e-06
303.15	0.03	0.00018435	4.582e-06
308.15	0.003	0.000184614	4.5702e-05
308.15	0.006	0.000184591	2.2858e-05
308.15	0.009	0.000184567	1.5244e-05
308.15	0.012	0.000184544	1.1436e-05
308.15	0.015	0.00018452	9.152e-06
308.15	0.018	0.000184497	7.629e-06
308.15	0.021	0.000184473	6.541e-06
308.15	0.024	0.000184449	5.725e-06
308.15	0.027	0.000184426	5.091e-06
308.15	0.03	0.000184402	4.583e-06
310.65	0.003	0.000184742	4.5738e-05
310.65	0.006	0.000184718	2.2876e-05
310.65	0.009	0.000184695	1.5255e-05
310.65	0.012	0.000184671	1.1445e-05
310.65	0.015	0.000184647	9.159e-06
310.65	0.018	0.000184624	7.635e-06
310.65	0.021	0.0001846	6.546e-06
310.65	0.024	0.000184576	5.73e-06
310.65	0.027	0.000184553	5.095e-06
310.65	0.03	0.000184529	4.587e-06

System: N-acetyl-p-aminophenol + sodium chloride + water; phases: Liquid
Fixed: Pressure, kPa = 101
Fixed: Solvent: Amount concentration (molarity), mol/dm3 of sodium chloride = 0.154
Property: Apparent molar volume, m3/mol (Liquid); method: Calculated with densities of this investigation
Temperature, K	Molality, mol/kg of N-acetyl-p-aminophenol	Apparent molar volume, m3/mol	uncertainty
298.15	0.003	0.000184279	4.561e-05
298.15	0.006	0.000184256	2.2812e-05
298.15	0.009	0.000184232	1.5213e-05
298.15	0.012	0.000184209	1.1413e-05
298.15	0.015	0.000184185	9.133e-06
298.15	0.018	0.000184165	7.614e-06
298.15	0.021	0.000184138	6.528e-06
298.15	0.024	0.000184115	5.714e-06
298.15	0.027	0.000184091	5.08e-06
298.15	0.03	0.000184068	4.574e-06
303.15	0.003	0.000184309	4.5619e-05
303.15	0.006	0.000184285	2.2816e-05
303.15	0.009	0.000184262	1.5216e-05
303.15	0.012	0.000184238	1.1415e-05
303.15	0.015	0.000184215	9.135e-06
303.15	0.018	0.000184191	7.615e-06
303.15	0.021	0.000184168	6.529e-06
303.15	0.024	0.000184144	5.715e-06
303.15	0.027	0.000184121	5.081e-06
303.15	0.03	0.000184097	4.575e-06
308.15	0.003	0.000184363	4.5633e-05
308.15	0.006	0.00018434	2.2824e-05
308.15	0.009	0.000184316	1.5221e-05
308.15	0.012	0.000184293	1.1419e-05
308.15	0.015	0.000184269	9.138e-06
308.15	0.018	0.000184246	7.617e-06
308.15	0.021	0.000184222	6.531e-06
308.15	0.024	0.000184199	5.717e-06
308.15	0.027	0.000184175	5.083e-06
308.15	0.03	0.000184152	4.576e-06
310.65	0.003	0.00018448	4.5666e-05
310.65	0.006	0.000184456	2.284e-05
310.65	0.009	0.000184433	1.5231e-05
310.65	0.012	0.000184409	1.1427e-05
310.65	0.015	0.000184386	9.145e-06
310.65	0.018	0.000184362	7.623e-06
310.65	0.021	0.000184338	6.536e-06
310.65	0.024	0.000184315	5.721e-06
310.65	0.027	0.000184291	5.087e-06
310.65	0.03	0.000184268	4.579e-06
