Measured thermophysical data. Polymorphism and thermophysical properties of L- and DL-menthol
Source: J. Chem. Thermodyn., 2019, 10.1016/j.jct.2018.11.004
Compound 1: L-menthol, C10H20O, InChI=1S/C10H20O/c1-7(2)9-5-4-8(3)6-10(9)11/h7-11H,4-6H2,1-3H3/t8-,9+,10-/m1/s1
Compound 2: DL-menthol, C10H20O, InChI=1S/C10H20O/c1-7(2)9-5-4-8(3)6-10(9)11/h7-11H,4-6H2,1-3H3/t8-,9+,10-/m1/s1, purity 98.8%

System: L-menthol; phases: Crystal 1, Liquid, Gas
Property: Triple point temperature, K (Crystal 1); method: Adiabatic calorimetry
Triple point temperature, K	uncertainty
315.6	0.04

System: L-menthol; phases: Crystal 1, Liquid, Gas
Property: Molar enthalpy of transition or fusion, kJ/mol (Crystal 1); method: Adiabatic calorimetry
Molar enthalpy of transition or fusion, kJ/mol	uncertainty
13.472	0.058

System: L-menthol; phases: Crystal 1, Gas
Property: Molar heat capacity at saturation pressure, J/K/mol (Crystal 1); method: Small (less than 1 g) adiabatic calorimetry
Temperature, K	Molar heat capacity at saturation pressure, J/K/mol	uncertainty
5.02	0.8545	0.0328
5.31	1.027	0.037
5.63	1.231	0.041
5.95	1.445	0.045
6.26	1.675	0.05
6.62	1.937	0.056
7	2.276	0.063
7.37	2.577	0.069
7.74	2.937	0.076
8.14	3.382	0.086
8.58	3.847	0.095
9.03	4.373	0.105
9.49	4.87	0.114
9.99	5.512	0.126
10.51	6.205	0.139
11.04	6.889	0.151
11.61	7.681	0.165
12.2	8.523	0.179
12.83	9.473	0.195
13.48	10.42	0.21
14.15	11.42	0.22
14.89	12.53	0.24
15.66	13.66	0.26
16.43	14.93	0.27
17.26	16.13	0.29
18.12	17.43	0.3
19.04	18.89	0.31
20	20.23	0.32
21.02	21.71	0.34
22.08	23.27	0.35
23.2	24.92	0.36
24.41	26.58	0.36
25.66	28.24	0.37
26.93	29.92	0.37
28.27	31.55	0.36
29.67	33.28	0.36
31.12	34.98	0.34
32.66	36.66	0.34
34.28	38.41	0.33
36	40.06	0.32
37.89	42.03	0.3
39.9	43.93	0.29
42.02	45.96	0.3
44.24	48.03	0.31
46.54	50.11	0.32
48.92	52.21	0.33
51.35	54.32	0.34
53.83	56.47	0.35
56.32	58.63	0.36
58.78	60.81	0.38
61.29	62.85	0.39
64.03	65.18	0.4
66.85	67.74	0.41
69.53	70.14	0.43
72.08	72.41	0.44
74.6	74.48	0.45
77.11	76.77	0.46
79.66	78.77	0.47
82.26	80.88	0.48
84.79	83.06	0.49
87.34	85.27	0.51
89.9	87.37	0.52
92.42	89.76	0.53
94.94	91.69	0.54
97.47	93.81	0.55
100.02	95.95	0.56
102.58	98.22	0.57
105.18	100.4	0.6
107.78	102.4	0.6
79.78	79.07	0.47
81.5	80.47	0.48
83.22	81.89	0.49
84.94	83.28	0.49
86.67	84.77	0.5
88.39	86.22	0.51
90.12	87.73	0.52
91.85	89.21	0.53
93.59	90.65	0.54
95.32	92.09	0.55
97.06	93.51	0.55
98.8	95.01	0.56
100.55	96.44	0.57
102.3	97.81	0.57
104.04	99.24	0.58
105.8	100.7	0.6
107.55	102	0.6
109.31	103.5	0.6
111.06	104.9	0.6
112.82	106.2	0.6
114.58	107.7	0.6
116.34	109	0.6
118.11	110.4	0.6
119.87	111.7	0.6
121.64	113.1	0.6
123.41	114.4	0.7
125.18	115.8	0.7
126.95	117.2	0.7
128.73	118.4	0.7
130.5	119.8	0.7
132.28	121.1	0.7
134.07	122.4	0.7
135.85	123.7	0.7
137.63	125.1	0.7
139.41	126.4	0.7
141.2	127.7	0.7
142.99	128.9	0.7
144.77	130.2	0.7
146.56	131.5	0.7
148.36	132.8	0.7
150.15	134.1	0.7
151.94	135.3	0.8
153.73	136.6	0.8
155.53	137.9	0.8
157.32	139.1	0.8
159.12	140.4	0.8
160.91	141.7	0.8
162.72	143	0.8
164.52	144.3	0.8
166.32	145.5	0.8
168.12	146.8	0.8
169.92	148	0.8
171.73	149.2	0.8
173.53	150.5	0.8
175.33	151.8	0.8
177.14	153.1	0.8
178.95	154.4	0.8
180.76	155.6	0.9
182.56	156.9	0.9
184.37	158.2	0.9
186.18	159.4	0.9
188	160.7	0.9
189.81	162.1	0.9
191.62	163.3	0.9
193.43	164.6	0.9
195.25	165.9	0.9
197.06	167.2	0.9
198.87	168.5	0.9
200.69	169.8	0.9
202.5	171.1	0.9
204.32	172.4	0.9
206.14	173.7	0.9
207.95	175	0.9
209.77	176.4	1
211.6	177.6	1
213.42	178.9	1
215.24	180.2	1
217.07	181.5	1
218.89	182.9	1
220.72	184.2	1
222.55	185.4	1
216.36	180.9	1
218.32	182.5	1
220.14	183.7	1
221.96	185.1	1
223.78	186.5	1
225.6	187.8	1
227.43	189.1	1
229.25	190.5	1
231.07	191.9	1
232.89	193.3	1
234.71	194.7	1
236.53	196.1	1.1
238.35	197.4	1.1
240.18	198.8	1.1
242	200.2	1.1
243.83	201.7	1.1
245.65	203.1	1.1
247.48	204.5	1.1
249.3	206	1.1
251.12	207.5	1.1
252.95	208.9	1.1
254.77	210.4	1.1
256.59	212	1.1
258.41	213.7	1.1
260.23	215.2	1.1
262.05	216.8	1.2
263.88	218.5	1.2
265.7	220.1	1.2
267.52	221.7	1.2
269.34	223.4	1.2
271.17	225.1	1.2
272.99	226.5	1.2
274.82	227.9	1.2
276.64	229.6	1.2
278.46	231.1	1.2
280.29	232.6	1.2
282.11	234.2	1.2
283.93	235.8	1.2
285.75	237.3	1.3
287.57	239	1.3
289.39	240.8	1.3
291.22	242.6	1.3
293.04	244.4	1.3
294.86	246.6	1.3
296.68	248.4	1.3
298.5	250.6	1.3
278.81	231.4	1.2
280.63	233	1.2
282.45	234.5	1.2
284.26	236.1	1.2
286.08	237.7	1.3
287.88	239.5	1.3
289.68	241.3	1.3
291.47	242.9	1.3
293.25	244.8	1.3
295.02	246.7	1.3
296.79	248.6	1.3
298.55	250.5	1.3
290.89	242.4	1.3
292.76	244.5	1.3
294.53	246.2	1.3
291.8	243.3	1.3
293.66	245.4	1.3
295.44	247.2	1.3
291.08	242.5	1.3
293.06	244.7	1.3
294.94	246.6	1.3
296.82	248.6	1.3
298.69	250.9	1.3

System: L-menthol; phases: Liquid, Gas
Property: Molar heat capacity at saturation pressure, J/K/mol (Liquid); method: Small (less than 1 g) adiabatic calorimetry
Temperature, K	Molar heat capacity at saturation pressure, J/K/mol	uncertainty
321.01	384.9	2
323.45	388.5	2
325.28	391.1	2
327.12	393.8	2
328.95	396.4	2
330.79	399.1	2
332.62	401.7	2.1
334.46	404.2	2.1
336.3	406.5	2.1
338.14	408.8	2.1
339.98	411.3	2.1
341.82	413.4	2.1
343.66	415.8	2.1
345.5	417.9	2.1
347.35	419.8	2.1
349.19	421.7	2.2
351.04	423.4	2.2
352.88	425.1	2.2
354.73	426.7	2.2
356.58	428.4	2.2
358.43	429.7	2.2
360.27	431.1	2.2
362.12	432.6	2.2
363.97	433.8	2.2
365.82	435.5	2.2
367.67	436.2	2.2
318.1	380.3	1.9
320.34	383.5	2
322.18	386.6	2
324.01	389.3	2
325.85	392.2	2
327.67	394.8	2
329.49	397.5	2
331.3	400.1	2
333.11	402.5	2.1
312.2	370.6	1.9
314.15	373.6	1.9
316.02	376.5	1.9
317.87	379.7	1.9
319.72	382.6	2
321.56	385.4	2
323.4	388.2	2
318.47	380.7	2
319.28	381.8	2
317.57	379.5	1.9
318.82	381.4	2
320.06	383.3	2
321.31	385.3	2
322.55	386.9	2
323.79	388.8	2
320.78	384.6	2
323.31	388.4	2
325.83	392	2
328.34	395.8	2
330.84	399.3	2
333.33	402.6	2.1
335.81	406	2.1
338.29	409	2.1
340.77	412.1	2.1
343.25	415.1	2.1
345.72	418.1	2.1
348.2	420.7	2.1
350.66	423	2.2
353.12	425.1	2.2
355.58	427.2	2.2
358.04	429.4	2.2
360.49	431	2.2
362.94	432.8	2.2
365.39	434.2	2.2
367.84	435.7	2.2

System: L-menthol; phases: Crystal 1
Fixed: Pressure, kPa = 101.325
Property: Molar heat capacity at constant pressure, J/K/mol (Crystal 1); method: Small (less than 1 g) adiabatic calorimetry
Temperature, K	Molar heat capacity at constant pressure, J/K/mol	uncertainty
5	0.858	0.036
10	5.528	0.127
15	12.7	0.25
20	20.26	0.33
25	27.36	0.37
30	33.65	0.35
35	39.12	0.33
40	44.06	0.29
45	48.69	0.31
50	53.14	0.33
55	57.47	0.36
60	61.81	0.38
65	66.15	0.4
70	70.48	0.43
75	74.81	0.45
80	79.11	0.47
85	83.38	0.49
90	87.62	0.52
95	91.81	0.55
100	95.95	0.56
105	100	0.6
110	104	0.6
115	108	0.6
120	111.8	0.6
125	115.7	0.7
130	119.4	0.7
135	123.1	0.7
140	126.8	0.7
145	130.4	0.7
150	134	0.7
155	137.5	0.8
160	141.1	0.8
165	144.6	0.8
170	148.1	0.8
175	151.6	0.8
180	155.1	0.8
185	158.6	0.8
190	162.2	0.9
195	165.7	0.9
200	169.3	0.9
205	172.8	0.9
210	176.4	1
215	180	1
220	183.7	1
225	187.4	1
230	191.1	1.1
235	194.9	1.1
240	198.7	1.1
245	202.5	1.1
250	206.5	1.1
255	210.7	1.1
260	215.1	1.2
265	219.5	1.2
270	223.9	1.2
275	228.2	1.2
280	232.4	1.2
285	236.7	1.2
290	241.5	1.3
295	246.7	1.3
298.15	250.1	1.3
300	252.3	1.3
305	258.3	1.3
310	264.6	1.4
315	271.4	1.4
315.6	272.3	1.4

System: L-menthol; phases: Crystal 1
Fixed: Pressure, kPa = 101.325
Property: Molar enthalpy function {Hm(T)-Hm(0)}/T, J/K/mol (Crystal 1); method: Small (less than 1 g) adiabatic calorimetry
Temperature, K	Molar enthalpy function {Hm(T)-Hm(0)}/T, J/K/mol	uncertainty
5	0.2148	0.0192
10	1.548	0.044
15	4.037	0.088
20	7.15	0.13
25	10.49	0.17
30	13.84	0.21
35	17.07	0.22
40	20.14	0.24
45	23.06	0.24
50	25.84	0.25
55	28.52	0.26
60	31.12	0.27
65	33.64	0.28
70	36.12	0.29
75	38.56	0.3
80	40.96	0.31
85	43.33	0.31
90	45.67	0.36
95	47.99	0.37
100	50.28	0.37
105	52.55	0.38
110	54.8	0.39
115	57.03	0.41
120	59.24	0.41
125	61.42	0.42
130	63.57	0.43
135	65.71	0.44
140	67.83	0.45
145	69.92	0.46
150	72	0.47
155	74.05	0.47
160	76.09	0.49
165	78.11	0.5
170	80.12	0.51
175	82.11	0.51
180	84.09	0.52
185	86.06	0.53
190	88.01	0.54
195	89.96	0.55
200	91.9	0.56
205	93.83	0.57
210	95.75	0.57
215	97.67	0.59
220	99.59	0.6
225	101.5	0.6
230	103.4	0.6
235	105.3	0.6
240	107.2	0.6
245	109.1	0.7
250	111	0.7
255	112.9	0.7
260	114.9	0.7
265	116.8	0.7
270	118.7	0.7
275	120.7	0.7
280	122.6	0.7
285	124.6	0.7
290	126.6	0.7
295	128.6	0.7
298.15	129.8	0.7
300	130.6	0.7
305	132.6	0.7
310	134.7	0.8
315	136.8	0.8
315.6	137.1	0.8

System: L-menthol; phases: Crystal 1
Fixed: Pressure, kPa = 101.325
Property: Molar entropy, J/K/mol (Crystal 1); method: Small (less than 1 g) adiabatic calorimetry
Temperature, K	Molar entropy, J/K/mol	uncertainty
5	0.2864	0.0301
10	2.099	0.083
15	5.656	0.182
20	10.35	0.3
25	15.64	0.39
30	21.2	0.47
35	26.81	0.54
40	32.36	0.59
45	37.82	0.63
50	43.18	0.69
55	48.45	0.73
60	53.64	0.77
65	58.76	0.81
70	63.82	0.85
75	68.83	0.89
80	73.79	0.93
85	78.72	0.96
90	83.6	1.01
95	88.45	1.05
100	93.27	1.09
105	98.05	1.12
110	102.8	1.1
115	107.5	1.2
120	112.2	1.3
125	116.8	1.3
130	121.4	1.3
135	126	1.3
140	130.6	1.3
145	135.1	1.4
150	139.5	1.4
155	144	1.5
160	148.4	1.5
165	152.8	1.5
170	157.2	1.6
175	161.5	1.6
180	165.8	1.6
185	170.1	1.6
190	174.4	1.7
195	178.7	1.7
200	182.9	1.8
205	187.1	1.8
210	191.4	1.8
215	195.5	1.8
220	199.7	1.8
225	203.9	1.8
230	208.1	2
235	212.2	2
240	216.3	2
245	220.5	2
250	224.6	2
255	228.7	2
260	232.9	2.2
265	237	2.2
270	241.2	2.2
275	245.3	2.2
280	249.5	2.2
285	253.6	2.2
290	257.8	2.3
295	261.9	2.4
298.15	264.6	2.4
300	266.1	2.4
305	270.4	2.4
310	274.6	2.4
315	278.9	2.4
315.6	279.4	2.4

System: L-menthol; phases: Liquid
Fixed: Pressure, kPa = 101.325
Property: Molar heat capacity at constant pressure, J/K/mol (Liquid); method: Small (less than 1 g) adiabatic calorimetry
Temperature, K	Molar heat capacity at constant pressure, J/K/mol	uncertainty
315.6	376.1	1.9
320	383.1	1.9
325	390.8	2
330	398.1	2
335	404.9	2.1
340	411.3	2.1
345	417.1	2.2
350	422.3	2.2
355	427	2.2
360	431	2.2
365	434.3	2.2
370	437	2.2

System: L-menthol; phases: Liquid
Fixed: Pressure, kPa = 101.325
Property: Molar enthalpy function {Hm(T)-Hm(0)}/T, J/K/mol (Liquid); method: Small (less than 1 g) adiabatic calorimetry
Temperature, K	Molar enthalpy function {Hm(T)-Hm(0)}/T, J/K/mol	uncertainty
315.6	179.8	1
320	182.5	1
325	185.7	1
330	188.8	1
335	192	1.1
340	195.2	1.1
345	198.4	1.1
350	201.5	1.1
355	204.7	1.1
360	207.8	1.1
365	210.9	1.2
370	213.9	1.2

System: L-menthol; phases: Liquid
Fixed: Pressure, kPa = 101.325
Property: Molar entropy, J/K/mol (Liquid); method: Small (less than 1 g) adiabatic calorimetry
Temperature, K	Molar entropy, J/K/mol	uncertainty
315.6	322.1	2.7
320	327.3	2.8
325	333.3	2.9
330	339.4	2.9
335	345.4	2.9
340	351.5	2.9
345	357.5	3.1
350	363.5	3.1
355	369.6	3.1
360	375.6	3.1
365	381.5	3.3
370	387.5	3.3

System: L-menthol; phases: Crystal 1, Liquid, Air at 1 atmosphere
Property: Triple point temperature, K (Crystal 1); method: DSC
Triple point temperature, K	uncertainty
315.4	0.8

System: L-menthol; phases: Crystal 1, Liquid, Gas
Property: Molar enthalpy of transition or fusion, kJ/mol (Crystal 1); method: DSC
Molar enthalpy of transition or fusion, kJ/mol	uncertainty
13.3	0.4

System: L-menthol; phases: Metastable crystal, Liquid, Air at 1 atmosphere
Property: Triple point temperature, K (Metastable crystal); method: DSC
Triple point temperature, K	uncertainty
310	0.8

System: L-menthol; phases: Metastable crystal, Liquid, Gas
Property: Molar enthalpy of transition or fusion, kJ/mol (Metastable crystal); method: DSC
Molar enthalpy of transition or fusion, kJ/mol	uncertainty
11.4	0.6

System: L-menthol; phases: Crystal 1
Fixed: Pressure, kPa = 100
Property: Molar heat capacity at constant pressure, J/K/mol (Crystal 1); method: Extra sensitive DSC
Temperature, K	Molar heat capacity at constant pressure, J/K/mol	uncertainty
265.2	221.5	8.6
270	225.6	8.7
275	230	8.9
280	235.1	9.1
285	240.5	9.3
290	246.3	9.5
295	253.1	9.8

System: L-menthol; phases: Liquid
Fixed: Pressure, kPa = 100
Property: Molar heat capacity at constant pressure, J/K/mol (Liquid); method: Extra sensitive DSC
Temperature, K	Molar heat capacity at constant pressure, J/K/mol	uncertainty
325.9	395.1	15.3
330	401.1	15.5
335	408	15.8
340	414.3	16
345	420.5	16.3
350	426.2	16.5
355	430.8	16.7

System: L-menthol; phases: Metastable liquid, Gas
Fixed: Temperature, K = 308.15
Property: Vapor or sublimation pressure, kPa (Metastable liquid); method: CCELL1
Vapor or sublimation pressure, kPa	uncertainty
0.01672	0.00023
0.0167	0.00023
0.01672	0.00023

System: L-menthol; phases: Metastable liquid, Gas
Property: Vapor or sublimation pressure, kPa (Metastable liquid); method: CCELL1
Temperature, K	Vapor or sublimation pressure, kPa	uncertainty
303	0.01038	0.00024
303	0.01037	0.00024
303	0.01038	0.00024
308.18	0.01676	0.00037
308.19	0.01678	0.00037
308.2	0.01678	0.00037
313.38	0.02657	0.00058
313.38	0.02658	0.00058
313.38	0.02656	0.00058
318.43	0.0408	0.00088
318.46	0.04088	0.00088
318.47	0.04094	0.00088
323.48	0.06146	0.00132
323.5	0.06158	0.00132
323.51	0.06164	0.00132
328.56	0.09137	0.00196
328.56	0.09137	0.00196
328.56	0.09138	0.00196
332.75	0.12519	0.00267
332.75	0.12517	0.00267
332.75	0.12523	0.00268
337.81	0.18038	0.00385
337.81	0.18036	0.00385
337.82	0.18051	0.00385
342.89	0.25625	0.00546
342.89	0.25628	0.00546
342.89	0.25631	0.00546
347.88	0.35733	0.00761
347.88	0.35729	0.00761
347.88	0.35726	0.00761
352.88	0.49139	0.01045
352.88	0.49141	0.01045
352.89	0.49142	0.01045
357.86	0.66619	0.01417
357.86	0.66621	0.01417
357.87	0.66645	0.01417
362.82	0.89141	0.01894
362.82	0.89138	0.01894
362.83	0.89149	0.01895

System: L-menthol; phases: Crystal 1, Gas
Property: Vapor or sublimation pressure, kPa (Crystal 1); method: Closed cell (Static) method
Temperature, K	Vapor or sublimation pressure, kPa	uncertainty
273.64	0.000244	0.000137
273.65	0.000244	0.000137
273.65	0.000242	0.000137
278.15	0.000441	0.000139
278.15	0.00044	0.000139
278.16	0.00044	0.000139
283.15	0.000839	0.000143
283.15	0.000839	0.000143
283.15	0.00084	0.000143
288.15	0.001559	0.000152
288.15	0.001557	0.000152
288.16	0.001558	0.000152
293.14	0.002829	0.000176
293.14	0.002828	0.000175
293.14	0.002831	0.000176
298.15	0.005047	0.000232
298.15	0.005039	0.000232
298.15	0.005033	0.000232
303.14	0.008771	0.00036
303.14	0.008757	0.00036
303.14	0.008761	0.00036
308.15	0.01501	0.00055
308.15	0.015	0.00055
308.15	0.015	0.00055

System: L-menthol; phases: Crystal 1, Gas
Property: Vapor or sublimation pressure, kPa (Crystal 1); method: Closed cell (Static) method
Temperature, K	Vapor or sublimation pressure, kPa	uncertainty
277.38	0.000399	0.000139
277.41	0.000401	0.000139
277.5	0.000403	0.000139
282.34	0.000758	0.000142
282.34	0.000756	0.000142
282.34	0.000759	0.000142
286.97	0.001352	0.000149
286.97	0.001354	0.000149
286.98	0.001355	0.000149
291.56	0.002353	0.000165
291.57	0.002354	0.000165
291.6	0.002364	0.000166
296.23	0.004057	0.000204
296.23	0.004052	0.000204
296.25	0.004063	0.000205
300.84	0.006809	0.000298
300.85	0.006831	0.000298
300.86	0.006832	0.000298
305.45	0.01128	0.00047
305.45	0.01128	0.00047
305.45	0.01128	0.00047
310.04	0.01833	0.00066
310.07	0.0184	0.00066
310.07	0.01842	0.00066
314.67	0.02949	0.00092
314.67	0.02946	0.00092
314.67	0.02949	0.00092

System: DL-menthol; phases: Crystal 1, Liquid, Air at 1 atmosphere
Property: Triple point temperature, K (Crystal 1); method: DSC
Triple point temperature, K	uncertainty
305.7	0.8

System: DL-menthol; phases: Crystal 1, Liquid, Gas
Property: Molar enthalpy of transition or fusion, kJ/mol (Crystal 1); method: DSC
Molar enthalpy of transition or fusion, kJ/mol	uncertainty
13.7	0.4

System: DL-menthol; phases: Metastable crystal, Liquid, Air at 1 atmosphere
Property: Triple point temperature, K (Metastable crystal); method: DSC
Triple point temperature, K	uncertainty
300.7	0.8

System: DL-menthol; phases: Metastable crystal, Liquid, Gas
Property: Molar enthalpy of transition or fusion, kJ/mol (Metastable crystal); method: DSC
Molar enthalpy of transition or fusion, kJ/mol	uncertainty
9.9	0.5

System: DL-menthol; phases: Crystal 1
Fixed: Pressure, kPa = 100
Property: Molar heat capacity at constant pressure, J/K/mol (Crystal 1); method: Extra sensitive DSC
Temperature, K	Molar heat capacity at constant pressure, J/K/mol	uncertainty
265	217.6	8.4
270	221.3	8.6
275	225.3	8.7
280	229.5	8.9
285	234.2	9.1

System: DL-menthol; phases: Liquid
Fixed: Pressure, kPa = 100
Property: Molar heat capacity at constant pressure, J/K/mol (Liquid); method: Extra sensitive DSC
Temperature, K	Molar heat capacity at constant pressure, J/K/mol	uncertainty
315.4	377.3	14.6
320	384.2	14.9
325	392	15.2
330	399.8	15.5
335	406.9	15.8
340	412.7	16
345	418.1	16.2
350	423.7	16.4
355	429	16.6

System: DL-menthol; phases: Metastable crystal
Fixed: Pressure, kPa = 100
Property: Molar heat capacity at constant pressure, J/K/mol (Metastable crystal); method: Extra sensitive DSC
Temperature, K	Molar heat capacity at constant pressure, J/K/mol	uncertainty
270	217.5	8.4
275	219.5	8.5
280	223.1	8.6
285	229	8.9

System: DL-menthol; phases: Crystal 1, Gas
Property: Vapor or sublimation pressure, kPa (Crystal 1); method: CCELL1
Temperature, K	Vapor or sublimation pressure, kPa	uncertainty
273.65	0.000259	0.000108
273.65	0.000259	0.000108
273.66	0.000261	0.000108
278.16	0.00048	0.000109
278.16	0.000479	0.000109
278.16	0.000477	0.000109
283.15	0.000922	0.00011
283.16	0.000921	0.00011
283.16	0.000926	0.00011
288.16	0.001736	0.000113
288.16	0.001734	0.000113
288.16	0.001734	0.000113
293.14	0.003173	0.000118
293.14	0.00318	0.000118
293.15	0.003183	0.000118
298.16	0.005734	0.00013
298.16	0.005733	0.00013
298.16	0.00573	0.00013
303.14	0.01009	0.00015
303.14	0.0101	0.00015
303.15	0.0101	0.00015

System: DL-menthol; phases: Metastable liquid, Gas
Property: Vapor or sublimation pressure, kPa (Metastable liquid); method: CCELL1
Temperature, K	Vapor or sublimation pressure, kPa	uncertainty
293.14	0.003971	0.000122
293.14	0.003966	0.000122
293.14	0.003969	0.000122
298.13	0.006551	0.000133
298.14	0.006556	0.000133
298.14	0.00655	0.000133
303.13	0.01059	0.00016
303.13	0.01059	0.00016
303.14	0.0106	0.00016
308.14	0.01681	0.00023
308.14	0.01683	0.00023
308.14	0.01682	0.00023

System: DL-menthol; phases: Metastable crystal, Gas
Property: Vapor or sublimation pressure, kPa (Metastable crystal); method: CCELL1
Temperature, K	Vapor or sublimation pressure, kPa	uncertainty
278.28	0.000597	0.000207
278.28	0.000607	0.000207
278.29	0.00061	0.000207
283.12	0.00109	0.000208
283.13	0.0011	0.000208
283.13	0.001093	0.000208
288.14	0.002021	0.00021
288.14	0.00201	0.00021
288.15	0.00201	0.00021
293.14	0.003627	0.000213
293.14	0.003615	0.000213
293.14	0.003596	0.000213
298.14	0.00634	0.00022
298.14	0.006361	0.00022
298.14	0.006351	0.00022

System: DL-menthol; phases: Crystal 1, Gas
Property: Vapor or sublimation pressure, kPa (Crystal 1); method: CCELL1
Temperature, K	Vapor or sublimation pressure, kPa	uncertainty
277.57	0.000442	0.000109
277.59	0.000442	0.000109
277.6	0.00044	0.000109
282.56	0.000853	0.00011
282.57	0.000852	0.00011
282.59	0.000854	0.00011
287.34	0.001562	0.000112
287.43	0.001579	0.000112
287.59	0.001607	0.000112
292.79	0.003041	0.000117
292.84	0.003054	0.000117
292.9	0.003078	0.000117
298.16	0.005731	0.000138
298.17	0.005739	0.000138
298.18	0.005738	0.000138
303.17	0.01013	0.00023
303.19	0.01017	0.00023
303.2	0.01019	0.00023

System: DL-menthol; phases: Metastable liquid, Gas
Property: Vapor or sublimation pressure, kPa (Metastable liquid); method: CCELL1
Temperature, K	Vapor or sublimation pressure, kPa	uncertainty
293.54	0.00414	0.000121
293.54	0.004147	0.000121
293.55	0.004144	0.000121
298.45	0.006763	0.000159
298.46	0.00678	0.00016
298.47	0.006777	0.00016
303.42	0.01089	0.00025
303.42	0.01091	0.00025
303.43	0.01091	0.00025
308.42	0.01728	0.00038
308.43	0.01728	0.00038
308.43	0.01729	0.00038
313.42	0.0268	0.00058
313.43	0.02682	0.00058
313.44	0.02686	0.00058
318.39	0.04089	0.00088
318.4	0.04092	0.00088
318.42	0.041	0.00089
323.41	0.06149	0.00132
323.41	0.06146	0.00132
323.41	0.06146	0.00132
328.42	0.09076	0.00194
328.42	0.09086	0.00195
328.43	0.09086	0.00195
333.43	0.13219	0.00282
333.44	0.1323	0.00283
333.44	0.13226	0.00283
338.35	0.18802	0.00401
338.35	0.18796	0.00401
338.36	0.188	0.00401
343.2	0.26265	0.0056
343.21	0.26279	0.0056
343.21	0.26285	0.0056
348.1	0.3638	0.00775
348.11	0.36384	0.00775
348.11	0.36384	0.00775
353.02	0.4976	0.01059
353.02	0.49773	0.0106
353.03	0.49791	0.0106
357.96	0.67303	0.01432
357.96	0.67321	0.01433
357.96	0.67319	0.01433
362.97	0.90312	0.01921
362.98	0.90345	0.01921
362.98	0.9036	0.01922
