Measured thermophysical data. Thermodynamic study of (perfluoroalkane + alkane) mixtures: Excess and solvation enthalpies
Source: J. Chem. Thermodyn., 2007, 10.1016/j.jct.2007.04.002
Compound 1: perfluorohexane, C6F14, InChI=1S/C6F14/c7-1(8,3(11,12)5(15,16)17)2(9,10)4(13,14)6(18,19)20, purity 97%
Compound 2: hexadecafluoroheptane, C7F16, InChI=1S/C7F16/c8-1(9,2(10,11)4(14,15)6(18,19)20)3(12,13)5(16,17)7(21,22)23, purity 99%
Compound 3: octadecafluorooctane, C8F18, InChI=1S/C8F18/c9-1(10,3(13,14)5(17,18)7(21,22)23)2(11,12)4(15,16)6(19,20)8(24,25)26, purity 98%
Compound 4: pentane, C5H12, InChI=1S/C5H12/c1-3-5-4-2/h3-5H2,1-2H3, purity 98%
Compound 5: hexane, C6H14, InChI=1S/C6H14/c1-3-5-6-4-2/h3-6H2,1-2H3
Compound 6: heptane, C7H16, InChI=1S/C7H16/c1-3-5-7-6-4-2/h3-7H2,1-2H3
Compound 7: octane, C8H18, InChI=1S/C8H18/c1-3-5-7-8-6-4-2/h3-8H2,1-2H3
Compound 8: 2-methylheptane, C8H18, InChI=1S/C8H18/c1-4-5-6-7-8(2)3/h8H,4-7H2,1-3H3
Compound 9: cyclohexane, C6H12, InChI=1S/C6H12/c1-2-4-6-5-3-1/h1-6H2, purity 99%
Compound 10: perfluoropentane, C5F12, InChI=1S/C5F12/c6-1(7,2(8,9)4(12,13)14)3(10,11)5(15,16)17

System: perfluorohexane; phases: Liquid
Property: Molar volume, m3/mol (Liquid); method: Not reported.
Temperature, K	Pressure, kPa	Molar volume, m3/mol	uncertainty
288.05	101.325	0.00019816	7e-07

System: 2-methylheptane; phases: Liquid
Fixed: Pressure, kPa = 101.325
Property: Molar volume, m3/mol (Liquid); method: Not reported.
Temperature, K	Molar volume, m3/mol	uncertainty
288.05	0.00016264	3.3e-07
298.15	0.00016365	3.3e-07

System: cyclohexane; phases: Liquid
Property: Molar volume, m3/mol (Liquid); method: Not reported.
Temperature, K	Pressure, kPa	Molar volume, m3/mol	uncertainty
298.15	101.325	0.00010865	2.2e-07

System: pentane + perfluorohexane; phases: Liquid
Fixed: Temperature, K = 293.15
Fixed: Pressure, kPa = 101
Property: Excess molar enthalpy (molar enthalpy of mixing), kJ/mol (Liquid); method: Calvet calorimetry
Mole fraction of perfluorohexane	Excess molar enthalpy (molar enthalpy of mixing), kJ/mol	uncertainty
0	0	0.04
0.05	0.531	0.04
0.1	0.94	0.041
0.15	1.254	0.041
0.2	1.492	0.042
0.25	1.67	0.042
0.3	1.802	0.042
0.35	1.895	0.042
0.4	1.956	0.043
0.45	1.987	0.043
0.5	1.991	0.043
0.55	1.966	0.043
0.6	1.911	0.042
0.65	1.821	0.042
0.7	1.695	0.042
0.75	1.527	0.042
0.8	1.316	0.041
0.85	1.058	0.041
0.9	0.752	0.04
0.95	0.399	0.04
1	0	0.04

System: hexane + perfluorohexane; phases: Liquid
Fixed: Temperature, K = 298.15
Fixed: Pressure, kPa = 101
Property: Excess molar enthalpy (molar enthalpy of mixing), kJ/mol (Liquid); method: Calvet calorimetry
Mole fraction of perfluorohexane	Excess molar enthalpy (molar enthalpy of mixing), kJ/mol	uncertainty
0	0	0.04
0.05	0.555	0.04
0.1	0.982	0.041
0.15	1.309	0.041
0.2	1.556	0.042
0.25	1.742	0.042
0.3	1.881	0.042
0.35	1.981	0.043
0.4	2.05	0.043
0.45	2.091	0.043
0.5	2.104	0.043
0.55	2.09	0.043
0.6	2.045	0.043
0.65	1.964	0.043
0.7	1.844	0.042
0.75	1.679	0.042
0.8	1.463	0.042
0.85	1.191	0.041
0.9	0.858	0.041
0.95	0.462	0.04
1	0	0.04

System: heptane + perfluorohexane; phases: Liquid
Fixed: Temperature, K = 298.15
Fixed: Pressure, kPa = 101
Property: Excess molar enthalpy (molar enthalpy of mixing), kJ/mol (Liquid); method: Calvet calorimetry
Mole fraction of perfluorohexane	Excess molar enthalpy (molar enthalpy of mixing), kJ/mol	uncertainty
0	0	0.04
0.05	0.563	0.04
0.1	1.003	0.041
0.15	1.342	0.041
0.2	1.6	0.042
0.25	1.794	0.042
0.3	1.937	0.043
0.35	2.039	0.043
0.4	2.107	0.043
0.45	2.147	0.043
0.5	2.16	0.043
0.55	2.147	0.043
0.6	2.105	0.043
0.65	2.031	0.043
0.7	1.919	0.042
0.75	1.763	0.042
0.8	1.554	0.042
0.85	1.283	0.041
0.9	0.941	0.041
0.95	0.517	0.04
1	0	0.04

System: octane + perfluorohexane; phases: Liquid
Fixed: Temperature, K = 298.15
Fixed: Pressure, kPa = 101
Property: Excess molar enthalpy (molar enthalpy of mixing), kJ/mol (Liquid); method: Calvet calorimetry
Mole fraction of perfluorohexane	Excess molar enthalpy (molar enthalpy of mixing), kJ/mol	uncertainty
0	0	0.04
0.05	0.575	0.04
0.1	1.005	0.041
0.15	1.317	0.041
0.2	1.538	0.042
0.25	1.69	0.042
0.3	1.79	0.042
0.35	1.853	0.042
0.4	1.891	0.042
0.45	1.91	0.042
0.5	1.916	0.042
0.55	1.91	0.042
0.6	1.89	0.042
0.65	1.85	0.042
0.7	1.783	0.042
0.75	1.677	0.042
0.8	1.52	0.042
0.85	1.294	0.041
0.9	0.98	0.041
0.95	0.557	0.04
1	0	0.04

System: perfluorohexane + 2-methylheptane; phases: Liquid
Fixed: Pressure, kPa = 101
Property: Excess molar enthalpy (molar enthalpy of mixing), kJ/mol (Liquid); method: Calvet calorimetry
Temperature, K	Mole fraction of perfluorohexane	Excess molar enthalpy (molar enthalpy of mixing), kJ/mol	uncertainty
288.05	0	0	0.04
288.05	0.05	0.52	0.04
288.05	0.1	0.932	0.041
288.05	0.15	1.254	0.041
288.05	0.2	1.503	0.042
288.05	0.25	1.692	0.042
288.05	0.3	1.833	0.042
288.05	0.35	1.934	0.043
288.05	0.4	2.001	0.043
288.05	0.45	2.04	0.043
288.05	0.5	2.053	0.043
288.05	0.55	2.04	0.043
288.05	0.6	2	0.043
288.05	0.65	1.93	0.043
288.05	0.7	1.824	0.042
288.05	0.75	1.678	0.042
288.05	0.8	1.481	0.042
288.05	0.85	1.227	0.041
288.05	0.9	0.903	0.041
288.05	0.95	0.498	0.04
288.05	1	0	0.04
298.15	0	0	0.04
298.15	0.05	0.538	0.04
298.15	0.1	0.968	0.041
298.15	0.15	1.308	0.041
298.15	0.2	1.574	0.042
298.15	0.25	1.778	0.042
298.15	0.3	1.931	0.043
298.15	0.35	2.041	0.043
298.15	0.4	2.116	0.043
298.15	0.45	2.16	0.043
298.15	0.5	2.174	0.043
298.15	0.55	2.159	0.043
298.15	0.6	2.115	0.043
298.15	0.65	2.038	0.043
298.15	0.7	1.924	0.042
298.15	0.75	1.765	0.042
298.15	0.8	1.556	0.042
298.15	0.85	1.285	0.041
298.15	0.9	0.944	0.041
298.15	0.95	0.52	0.04
298.15	1	0	0.04

System: cyclohexane + perfluorohexane; phases: Liquid
Fixed: Temperature, K = 298.15
Fixed: Pressure, kPa = 101
Property: Excess molar enthalpy (molar enthalpy of mixing), kJ/mol (Liquid); method: Calvet calorimetry
Mole fraction of perfluorohexane	Excess molar enthalpy (molar enthalpy of mixing), kJ/mol	uncertainty
0	0	0.04
0.05	0.742	0.04
0.1	1.259	0.041
0.15	1.609	0.042
0.2	1.839	0.042
0.25	1.989	0.043
0.3	2.085	0.043
0.35	2.146	0.043
0.4	2.186	0.043
0.45	2.21	0.043
0.5	2.218	0.043
0.55	2.208	0.043
0.6	2.173	0.043
0.65	2.103	0.043
0.7	1.991	0.043
0.75	1.825	0.042
0.8	1.598	0.042
0.85	1.302	0.041
0.9	0.936	0.041
0.95	0.5	0.04
1	0	0.04

System: hexane + hexadecafluoroheptane; phases: Liquid
Fixed: Temperature, K = 298.15
Fixed: Pressure, kPa = 101
Property: Excess molar enthalpy (molar enthalpy of mixing), kJ/mol (Liquid); method: Calvet calorimetry
Mole fraction of hexadecafluoroheptane	Excess molar enthalpy (molar enthalpy of mixing), kJ/mol	uncertainty
0	0	0.04
0.05	0.626	0.04
0.1	1.079	0.041
0.15	1.403	0.041
0.2	1.632	0.042
0.25	1.793	0.042
0.3	1.906	0.042
0.35	1.985	0.043
0.4	2.038	0.043
0.45	2.07	0.043
0.5	2.081	0.043
0.55	2.069	0.043
0.6	2.028	0.043
0.65	1.953	0.043
0.7	1.837	0.042
0.75	1.672	0.042
0.8	1.454	0.041
0.85	1.177	0.041
0.9	0.841	0.041
0.95	0.447	0.04
1	0	0.04

System: hexane + octadecafluorooctane; phases: Liquid
Fixed: Temperature, K = 298.15
Fixed: Pressure, kPa = 101
Property: Excess molar enthalpy (molar enthalpy of mixing), kJ/mol (Liquid); method: Calvet calorimetry
Mole fraction of octadecafluorooctane	Excess molar enthalpy (molar enthalpy of mixing), kJ/mol	uncertainty
0	0	0.04
0.05	0.764	0.04
0.1	1.268	0.041
0.15	1.584	0.042
0.2	1.767	0.042
0.25	1.862	0.042
0.3	1.902	0.042
0.35	1.909	0.042
0.4	1.897	0.042
0.45	1.875	0.042
0.5	1.843	0.042
0.55	1.799	0.042
0.6	1.737	0.042
0.65	1.65	0.042
0.7	1.53	0.042
0.75	1.37	0.041
0.8	1.167	0.041
0.85	0.92	0.041
0.9	0.634	0.04
0.95	0.321	0.04
1	0	0.04

System: hexane + perfluoropentane; phases: Liquid
Fixed: Temperature, K = 293.15
Fixed: Pressure, kPa = 101
Property: Excess molar enthalpy (molar enthalpy of mixing), kJ/mol (Liquid); method: Calvet calorimetry
Mole fraction of perfluoropentane	Excess molar enthalpy (molar enthalpy of mixing), kJ/mol	uncertainty
0	0	0.04
0.05	0.532	0.04
0.1	0.939	0.041
0.15	1.245	0.041
0.2	1.473	0.042
0.25	1.639	0.042
0.3	1.757	0.042
0.35	1.837	0.042
0.4	1.886	0.042
0.45	1.908	0.042
0.5	1.905	0.042
0.55	1.878	0.042
0.6	1.824	0.042
0.65	1.741	0.042
0.7	1.625	0.042
0.75	1.472	0.042
0.8	1.277	0.041
0.85	1.036	0.041
0.9	0.745	0.04
0.95	0.4	0.04
1	0	0.04
