Measured thermophysical data. Solubility behaviour and thermodynamic analysis of methyleneaminoacetonitrile in binary (ethanol + water, ethanol + 2-propanol, ethanol + n-butanol) solvents
Source: J. Chem. Thermodyn., 2019, 10.1016/j.jct.2019.06.009
Compound 1: methyleneaminoacetonitrile, C3H4N2, InChI=1S/C3H4N2/c1-5-3-2-4/h1,3H2, purity 99.5%
Compound 2: ethanol, C2H6O, InChI=1S/C2H6O/c1-2-3/h3H,2H2,1H3, purity 99.5%
Compound 3: propan-2-ol, C3H8O, InChI=1S/C3H8O/c1-3(2)4/h3-4H,1-2H3, purity 99.5%
Compound 4: butan-1-ol, C4H10O, InChI=1S/C4H10O/c1-2-3-4-5/h5H,2-4H2,1H3, purity 99.5%
Compound 5: water, H2O, InChI=1S/H2O/h1H2
Compound 6: sodium chloride, ClNa, InChI=1S/ClH.Na/h1H;/q;+1/p-1, purity 99.5%

System: methyleneaminoacetonitrile; phases: Crystal, Liquid, Air at 1 atmosphere
Property: Triple point temperature, K (Crystal); method: DSC
Triple point temperature, K	uncertainty
400.19	2.12

System: methyleneaminoacetonitrile; phases: Crystal, Liquid, Air at 1 atmosphere
Property: Molar enthalpy of transition or fusion, kJ/mol (Crystal); method: DSC
Molar enthalpy of transition or fusion, kJ/mol	uncertainty
10.603	1.033

System: methyleneaminoacetonitrile + ethanol + water; phases: Liquid, Crystal
Fixed: Pressure, kPa = 101.1
Property: Mole fraction of methyleneaminoacetonitrile (Liquid); method: Titration method
Solvent: Mass fraction of ethanol	Temperature, K	Mole fraction of methyleneaminoacetonitrile	uncertainty
0.1998	278.15	0.001014	0.000101
0.1998	283.15	0.001205	0.000121
0.1998	288.15	0.001436	0.000144
0.1998	293.15	0.001778	0.000178
0.1998	298.15	0.002059	0.000206
0.1998	303.15	0.002435	0.000244
0.1998	308.15	0.002863	0.000286
0.1998	313.15	0.003384	0.000339
0.1998	318.15	0.003971	0.000397
0.1998	323.15	0.0046	0.00046
0.4001	278.15	0.001197	0.00012
0.4001	283.15	0.001422	0.000142
0.4001	288.15	0.001754	0.000175
0.4001	293.15	0.002039	0.000204
0.4001	298.15	0.002462	0.000246
0.4001	303.15	0.002885	0.000289
0.4001	308.15	0.003426	0.000343
0.4001	313.15	0.004045	0.000405
0.4001	318.15	0.004722	0.000472
0.4001	323.15	0.005485	0.000549
0.6	278.15	0.001384	0.000138
0.6	283.15	0.001659	0.000166
0.6	288.15	0.001971	0.000197
0.6	293.15	0.002369	0.000237
0.6	298.15	0.002854	0.000285
0.6	303.15	0.003365	0.000337
0.6	308.15	0.003978	0.000398
0.6	313.15	0.004636	0.000464
0.6	318.15	0.005442	0.000544
0.6	323.15	0.00636	0.000636
0.7999	278.15	0.001568	0.000157
0.7999	283.15	0.001925	0.000193
0.7999	288.15	0.002239	0.000224
0.7999	293.15	0.00274	0.000274
0.7999	298.15	0.003177	0.000318
0.7999	303.15	0.003765	0.000377
0.7999	308.15	0.004461	0.000446
0.7999	313.15	0.005337	0.000534
0.7999	318.15	0.006233	0.000623
0.7999	323.15	0.007265	0.000727

System: methyleneaminoacetonitrile + ethanol + propan-2-ol; phases: Liquid, Crystal
Fixed: Pressure, kPa = 101.1
Property: Mole fraction of methyleneaminoacetonitrile (Liquid); method: Titration method
Solvent: Mass fraction of ethanol	Temperature, K	Mole fraction of methyleneaminoacetonitrile	uncertainty
0.2	278.15	0.0009032	9.03e-05
0.2	283.15	0.001067	0.000107
0.2	288.15	0.001383	0.000138
0.2	293.15	0.001659	0.000166
0.2	298.15	0.001939	0.000194
0.2	303.15	0.002332	0.000233
0.2	308.15	0.002856	0.000286
0.2	313.15	0.003423	0.000342
0.2	318.15	0.004075	0.000408
0.2	323.15	0.004919	0.000492
0.3999	278.15	0.001114	0.000111
0.3999	283.15	0.001368	0.000137
0.3999	288.15	0.001648	0.000165
0.3999	293.15	0.001967	0.000197
0.3999	298.15	0.002376	0.000238
0.3999	303.15	0.002853	0.000285
0.3999	308.15	0.00335	0.000335
0.3999	313.15	0.004054	0.000406
0.3999	318.15	0.00484	0.000484
0.3999	323.15	0.005724	0.000573
0.6001	278.15	0.001327	0.000133
0.6001	283.15	0.00159	0.000159
0.6001	288.15	0.001961	0.000196
0.6001	293.15	0.002355	0.000236
0.6001	298.15	0.002724	0.000272
0.6001	303.15	0.003293	0.000329
0.6001	308.15	0.003945	0.000395
0.6001	313.15	0.004716	0.000472
0.6001	318.15	0.005505	0.000551
0.6001	323.15	0.00653	0.000653
0.8	278.15	0.001537	0.000154
0.8	283.15	0.001871	0.000187
0.8	288.15	0.002253	0.000225
0.8	293.15	0.002682	0.000268
0.8	298.15	0.003141	0.000314
0.8	303.15	0.003764	0.000377
0.8	308.15	0.004439	0.000444
0.8	313.15	0.005347	0.000535
0.8	318.15	0.006259	0.000626
0.8	323.15	0.007335	0.000734

System: methyleneaminoacetonitrile + ethanol + butan-1-ol; phases: Liquid, Crystal
Fixed: Pressure, kPa = 101.1
Property: Mole fraction of methyleneaminoacetonitrile (Liquid); method: Titration method
Solvent: Mass fraction of ethanol	Temperature, K	Mole fraction of methyleneaminoacetonitrile	uncertainty
0.1999	278.15	0.0007337	7.34e-05
0.1999	283.15	0.000887	8.87e-05
0.1999	288.15	0.001044	0.000104
0.1999	293.15	0.001281	0.000128
0.1999	298.15	0.001522	0.000152
0.1999	303.15	0.001739	0.000174
0.1999	308.15	0.002141	0.000214
0.1999	313.15	0.002454	0.000245
0.1999	318.15	0.002918	0.000292
0.1999	323.15	0.003422	0.000342
0.4001	278.15	0.000988	9.9e-05
0.4001	283.15	0.0012	0.00012
0.4001	288.15	0.001442	0.000144
0.4001	293.15	0.001703	0.00017
0.4001	298.15	0.002039	0.000204
0.4001	303.15	0.002385	0.000239
0.4001	308.15	0.002867	0.000287
0.4001	313.15	0.00335	0.000335
0.4001	318.15	0.003957	0.000396
0.4001	323.15	0.004602	0.00046
0.5998	278.15	0.001243	0.000124
0.5998	283.15	0.001511	0.000151
0.5998	288.15	0.00177	0.000177
0.5998	293.15	0.002145	0.000215
0.5998	298.15	0.002555	0.000256
0.5998	303.15	0.003022	0.000302
0.5998	308.15	0.003562	0.000356
0.5998	313.15	0.004196	0.00042
0.5998	318.15	0.004956	0.000496
0.5998	323.15	0.005781	0.000578
0.8001	278.15	0.001497	0.00015
0.8001	283.15	0.001841	0.000184
0.8001	288.15	0.002158	0.000216
0.8001	293.15	0.002568	0.000257
0.8001	298.15	0.003052	0.000305
0.8001	303.15	0.003638	0.000364
0.8001	308.15	0.004258	0.000426
0.8001	313.15	0.005082	0.000508
0.8001	318.15	0.005975	0.000598
0.8001	323.15	0.006961	0.000696

System: sodium chloride + water; phases: Liquid, Crystal
Fixed: Pressure, kPa = 101.1
Property: Mass fraction of sodium chloride (Liquid); method: Titration method
Temperature, K	Mass fraction of sodium chloride	uncertainty
298.15	0.26483	0.03178
303.15	0.2655	0.03186
313.15	0.26701	0.03205
323.15	0.26889	0.03227
333.15	0.27106	0.03253
343.15	0.27338	0.03281
348.15	0.27478	0.03298
353.15	0.27602	0.03313
298.15	0.26483	0.03178
