Measured thermophysical data. Isobaric vapor-liquid equilibrium for binary system of methyl caprylate + methyl caprate at 2, 6 and 10 kPa
Source: J. Chem. Thermodyn., 2017, 10.1016/j.jct.2016.11.024
Compound 1: methyl octanoate, C9H18O2, InChI=1S/C9H18O2/c1-3-4-5-6-7-8-9(10)11-2/h3-8H2,1-2H3, purity 99.7%
Compound 2: methyl decanoate, C11H22O2, InChI=1S/C11H22O2/c1-3-4-5-6-7-8-9-10-11(12)13-2/h3-10H2,1-2H3, purity 99.5%

System: methyl octanoate; phases: Liquid, Gas
Property: Vapor or sublimation pressure, kPa (Liquid); method: Ebulliometric method (Recirculating still)
Temperature, K	Vapor or sublimation pressure, kPa	uncertainty
356.53	2	0.205
380.5	6	0.606
391.77	10	1.005

System: methyl decanoate; phases: Liquid, Gas
Property: Vapor or sublimation pressure, kPa (Liquid); method: Ebulliometric method (Recirculating still)
Temperature, K	Vapor or sublimation pressure, kPa	uncertainty
389.1	2	0.205
412.93	6	0.606
424.43	10	1.01

System: methyl decanoate + methyl octanoate; phases: Liquid, Gas
Property: Boiling temperature at pressure P, K (Liquid); method: Ebulliometric method (Recirculating still)
Pressure, kPa	Mole fraction of methyl octanoate	Boiling temperature at pressure P, K	uncertainty
2	0	389.1	1.72
2	0.0599	384.54	1.89
2	0.0876	382.68	1.84
2	0.1403	379.6	1.8
2	0.1772	378.05	1.74
2	0.2702	374.23	1.7
2	0.3594	370.96	1.67
2	0.5113	366.72	1.65
2	0.6194	364.2	1.64
2	0.7321	362.67	1.62
2	0.8258	361.11	1.6
2	0.8732	360.38	1.64
2	1	356.53	1.73
6	0	412.93	3.76
6	0.0595	408.87	3.99
6	0.0899	406.82	3.89
6	0.1437	403.53	3.91
6	0.1793	401.41	3.8
6	0.2727	397.19	3.76
6	0.364	393.96	3.72
6	0.5175	389.4	3.72
6	0.6476	386.72	3.71
6	0.7441	384.71	3.64
6	0.834	383.1	3.62
6	0.8774	382.33	3.57
6	1	380.5	3.75
10	0	424.43	4.08
10	0.0609	421.07	4.3
10	0.0921	418.71	4.38
10	0.1442	415.46	4.33
10	0.1821	413.48	4.38
10	0.2753	409.12	4.38
10	0.3662	405.67	4.32
10	0.5213	401.32	4.35
10	0.6485	398.43	4.21
10	0.7507	396.5	4.21
10	0.8352	394.76	4.15
10	0.8785	393.92	4.13
10	1	391.77	3.99

System: methyl decanoate + methyl octanoate; phases: Gas, Liquid
Property: Mole fraction of methyl octanoate (Gas); method: Chromatography
Pressure, kPa	Mole fraction of methyl octanoate	Mole fraction of methyl octanoate	uncertainty
2	0	0	
2	0.0599	0.2468	0.0102
2	0.0876	0.3286	0.0104
2	0.1403	0.4554	0.0108
2	0.1772	0.5127	0.0109
2	0.2702	0.6436	0.0105
2	0.3594	0.7283	0.0103
2	0.5113	0.8351	0.0101
2	0.6194	0.8883	0.0101
2	0.7321	0.9251	0.01
2	0.8258	0.9546	0.01
2	0.8732	0.9679	0.01
2	1	1	
6	0	0	
6	0.0595	0.2304	0.0102
6	0.0899	0.3179	0.0104
6	0.1437	0.4425	0.0107
6	0.1793	0.5024	0.0109
6	0.2727	0.6353	0.0105
6	0.364	0.7241	0.0103
6	0.5175	0.8312	0.0101
6	0.6476	0.8825	0.0101
6	0.7441	0.9226	0.01
6	0.834	0.9563	0.01
6	0.8774	0.967	0.01
6	1	1	
10	0	0	
10	0.0609	0.2296	0.0102
10	0.0921	0.3112	0.0104
10	0.1442	0.4286	0.0107
10	0.1821	0.4928	0.0109
10	0.2753	0.6246	0.0106
10	0.3662	0.7087	0.0104
10	0.5213	0.8163	0.0101
10	0.6485	0.8814	0.0101
10	0.7507	0.9228	0.01
10	0.8352	0.9526	0.01
10	0.8785	0.9657	0.01
10	1	1	
