Measured thermophysical data. (Solid + liquid) phase diagram for (indomethacin + nicotinamide)- methanol or methanol/ethyl acetate mixture and solubility behavior of 1:1 (indomethacin + nicotinamide) co-crystal at T = (298.15 and 313.15) K
Source: J. Chem. Thermodyn., 2015, 10.1016/j.jct.2015.01.015
Compound 1: 1-(4-chlorobenzoyl)-5-methoxy-2-methyl-1H-indole-3-acetic acid, C19H16ClNO4, InChI=1S/C19H16ClNO4/c1-11-15(10-18(22)23)16-9-14(25-2)7-8-17(16)21(11)19(24)12-3-5-13(20)6-4-12/h3-9H,10H2,1-2H3,(H,22,23), purity 99%
Compound 2: 3-pyridinecarboxamide, C6H6N2O, InChI=1S/C6H6N2O/c7-6(9)5-2-1-3-8-4-5/h1-4H,(H2,7,9), purity 99%
Compound 3: methanol, CH4O, InChI=1S/CH4O/c1-2/h2H,1H3, purity 99.5%
Compound 4: ethyl acetate, C4H8O2, InChI=1S/C4H8O2/c1-3-6-4(2)5/h3H2,1-2H3, purity 99.5%

System: 1-(4-chlorobenzoyl)-5-methoxy-2-methyl-1H-indole-3-acetic acid; phases: Crystal, Liquid, Air at 1 atmosphere
Property: Normal melting temperature, K (Crystal); method: DTA
Normal melting temperature, K	uncertainty
433.1	1.1

System: 1-(4-chlorobenzoyl)-5-methoxy-2-methyl-1H-indole-3-acetic acid; phases: Crystal, Liquid, Air at 1 atmosphere
Property: Molar enthalpy of transition or fusion, kJ/mol (Crystal); method: DSC
Molar enthalpy of transition or fusion, kJ/mol	uncertainty
37.92546228	2.397175446

System: 3-pyridinecarboxamide; phases: Crystal, Liquid, Air at 1 atmosphere
Property: Normal melting temperature, K (Crystal); method: DTA
Normal melting temperature, K	uncertainty
401.7	1.1

System: 3-pyridinecarboxamide; phases: Crystal, Liquid, Air at 1 atmosphere
Property: Molar enthalpy of transition or fusion, kJ/mol (Crystal); method: DSC
Molar enthalpy of transition or fusion, kJ/mol	uncertainty
22.580860728	1.428859224

System: 1-(4-chlorobenzoyl)-5-methoxy-2-methyl-1H-indole-3-acetic acid + methanol + 3-pyridinecarboxamide; phases: Liquid, Crystal
Fixed: Pressure, kPa = 101.3
Property: Mass fraction of 3-pyridinecarboxamide (Liquid); method: Chromatography
Temperature, K	Mass fraction of 1-(4-chlorobenzoyl)-5-methoxy-2-methyl-1H-indole-3-acetic acid	Mass fraction of 3-pyridinecarboxamide	uncertainty
298.15	0	0.2556	0.0256
313.15	0	0.364	0.0364
298.15	0.0248	0.2501	0.025
313.15	0.0537	0.356	0.0356

System: 1-(4-chlorobenzoyl)-5-methoxy-2-methyl-1H-indole-3-acetic acid + methanol + 3-pyridinecarboxamide; phases: Liquid, Crystal of intercomponent compound 1
Fixed: Pressure, kPa = 101.3
Property: Mass fraction of 3-pyridinecarboxamide (Liquid); method: Chromatography
Temperature, K	Mass fraction of 1-(4-chlorobenzoyl)-5-methoxy-2-methyl-1H-indole-3-acetic acid	Mass fraction of 3-pyridinecarboxamide	uncertainty
298.15	0.0248	0.2501	0.1553
298.15	0.0243	0.2471	0.0287
298.15	0.0256	0.1716	0.1716
298.15	0.0263	0.1496	0.0759
298.15	0.029	0.1105	0.0626
298.15	0.0318	0.088	0.0748
298.15	0.0317	0.0875	0.0746
313.15	0.0537	0.356	0.0584
313.15	0.0545	0.3491	0.0586
313.15	0.0597	0.2748	0.0763
313.15	0.063	0.2498	0.054
313.15	0.0696	0.1996	0.052
313.15	0.0722	0.1879	0.029
313.15	0.0796	0.168	0.0295
313.15	0.0891	0.1367	0.0272
313.15	0.0955	0.1268	0.0186
313.15	0.0984	0.1237	0.0162

System: 1-(4-chlorobenzoyl)-5-methoxy-2-methyl-1H-indole-3-acetic acid + methanol + 3-pyridinecarboxamide; phases: Liquid, Crystal of intercomponent compound 2
Fixed: Temperature, K = 298.15
Fixed: Pressure, kPa = 101.3
Property: Mass fraction of 3-pyridinecarboxamide (Liquid); method: Chromatography
Mass fraction of 1-(4-chlorobenzoyl)-5-methoxy-2-methyl-1H-indole-3-acetic acid	Mass fraction of 3-pyridinecarboxamide	uncertainty
0.0317	0.0875	0.014
0.0287	0.0772	0.0219
0.0272	0.0525	0.0222
0.0234	0.032	0.032
0.0227	0.0183	0.0183
0.0218	0.0113	0.0095
0.0203	0.0074	0.0074
0.0201	0.0047	0.0047
0.0203	0.0031	0.0031
0.0196	0.0018	0.0018
0.0188	0.0013	0.0012
0.0201	0	

System: 1-(4-chlorobenzoyl)-5-methoxy-2-methyl-1H-indole-3-acetic acid + methanol + 3-pyridinecarboxamide; phases: Liquid, Crystal
Fixed: Temperature, K = 313.15
Fixed: Pressure, kPa = 101.3
Property: Mass fraction of 3-pyridinecarboxamide (Liquid); method: Chromatography
Mass fraction of 1-(4-chlorobenzoyl)-5-methoxy-2-methyl-1H-indole-3-acetic acid	Mass fraction of 3-pyridinecarboxamide	uncertainty
0.0984	0.1237	0.0225
0.062	0.054	0.0132
0.0485	0.0267	0.0141
0.0449	0	

System: 1-(4-chlorobenzoyl)-5-methoxy-2-methyl-1H-indole-3-acetic acid + methanol + 3-pyridinecarboxamide; phases: Liquid, Crystal of intercomponent compound 1, Crystal of intercomponent compound 2
Property: Mass fraction of 3-pyridinecarboxamide (Liquid); method: Chromatography
Temperature, K	Pressure, kPa	Mass fraction of 3-pyridinecarboxamide	uncertainty
298.15	101.3	0.0875	0.0088

System: 1-(4-chlorobenzoyl)-5-methoxy-2-methyl-1H-indole-3-acetic acid + methanol + 3-pyridinecarboxamide; phases: Liquid, Crystal of intercomponent compound 1, Crystal of intercomponent compound 2
Property: Mass fraction of 1-(4-chlorobenzoyl)-5-methoxy-2-methyl-1H-indole-3-acetic acid (Liquid); method: Chromatography
Temperature, K	Pressure, kPa	Mass fraction of 1-(4-chlorobenzoyl)-5-methoxy-2-methyl-1H-indole-3-acetic acid	uncertainty
298.15	101.3	0.0317	0.0032

System: 1-(4-chlorobenzoyl)-5-methoxy-2-methyl-1H-indole-3-acetic acid + methanol + 3-pyridinecarboxamide; phases: Liquid, Crystal of intercomponent compound 1, Crystal
Fixed: Pressure, kPa = 101.3
Property: Mass fraction of 3-pyridinecarboxamide (Liquid); method: Chromatography
Temperature, K	Mass fraction of 3-pyridinecarboxamide	uncertainty
298.15	0.2501	0.025
313.15	0.356	0.0356

System: 1-(4-chlorobenzoyl)-5-methoxy-2-methyl-1H-indole-3-acetic acid + methanol + 3-pyridinecarboxamide; phases: Liquid, Crystal of intercomponent compound 1, Crystal
Fixed: Pressure, kPa = 101.3
Property: Mass fraction of 1-(4-chlorobenzoyl)-5-methoxy-2-methyl-1H-indole-3-acetic acid (Liquid); method: Chromatography
Temperature, K	Mass fraction of 1-(4-chlorobenzoyl)-5-methoxy-2-methyl-1H-indole-3-acetic acid	uncertainty
298.15	0.0248	0.0025
313.15	0.0537	0.0054

System: 1-(4-chlorobenzoyl)-5-methoxy-2-methyl-1H-indole-3-acetic acid + methanol + 3-pyridinecarboxamide; phases: Liquid, Crystal of intercomponent compound 1, Crystal
Property: Mass fraction of 3-pyridinecarboxamide (Liquid); method: Chromatography
Temperature, K	Pressure, kPa	Mass fraction of 3-pyridinecarboxamide	uncertainty
298.15	101.3	0.1237	0.0124

System: 1-(4-chlorobenzoyl)-5-methoxy-2-methyl-1H-indole-3-acetic acid + methanol + 3-pyridinecarboxamide; phases: Liquid, Crystal of intercomponent compound 1, Crystal
Property: Mass fraction of 1-(4-chlorobenzoyl)-5-methoxy-2-methyl-1H-indole-3-acetic acid (Liquid); method: Chromatography
Temperature, K	Pressure, kPa	Mass fraction of 1-(4-chlorobenzoyl)-5-methoxy-2-methyl-1H-indole-3-acetic acid	uncertainty
298.15	101.3	0.0984	0.0098

System: methanol + 3-pyridinecarboxamide; phases: Liquid, Crystal
Fixed: Pressure, kPa = 101.3
Property: Mass fraction of 3-pyridinecarboxamide (Liquid); method: Chromatography
Temperature, K	Mass fraction of 3-pyridinecarboxamide	uncertainty
298.15	0.2556	0.0256
313.15	0.364	0.0364

System: 1-(4-chlorobenzoyl)-5-methoxy-2-methyl-1H-indole-3-acetic acid + methanol; phases: Liquid, Crystal of intercomponent compound 2
Property: Mass fraction of 1-(4-chlorobenzoyl)-5-methoxy-2-methyl-1H-indole-3-acetic acid (Liquid); method: Chromatography
Temperature, K	Pressure, kPa	Mass fraction of 1-(4-chlorobenzoyl)-5-methoxy-2-methyl-1H-indole-3-acetic acid	uncertainty
298.15	101.3	0.0201	0.002

System: 1-(4-chlorobenzoyl)-5-methoxy-2-methyl-1H-indole-3-acetic acid + methanol; phases: Liquid, Crystal
Property: Mass fraction of 1-(4-chlorobenzoyl)-5-methoxy-2-methyl-1H-indole-3-acetic acid (Liquid); method: Chromatography
Temperature, K	Pressure, kPa	Mass fraction of 1-(4-chlorobenzoyl)-5-methoxy-2-methyl-1H-indole-3-acetic acid	uncertainty
313.15	101.3	0.0449	0.0045

System: 1-(4-chlorobenzoyl)-5-methoxy-2-methyl-1H-indole-3-acetic acid + methanol + ethyl acetate; phases: Liquid, Crystal of intercomponent compound 2
Property: Mass fraction of 1-(4-chlorobenzoyl)-5-methoxy-2-methyl-1H-indole-3-acetic acid (Liquid); method: Chromatography
Temperature, K	Solvent: Mass fraction of ethyl acetate	Pressure, kPa	Mass fraction of 1-(4-chlorobenzoyl)-5-methoxy-2-methyl-1H-indole-3-acetic acid	uncertainty
298.15	0.3	101.3	0.0555	0.0056

System: 1-(4-chlorobenzoyl)-5-methoxy-2-methyl-1H-indole-3-acetic acid + methanol + ethyl acetate; phases: Liquid, Crystal
Property: Mass fraction of 1-(4-chlorobenzoyl)-5-methoxy-2-methyl-1H-indole-3-acetic acid (Liquid); method: Chromatography
Temperature, K	Solvent: Mass fraction of ethyl acetate	Pressure, kPa	Mass fraction of 1-(4-chlorobenzoyl)-5-methoxy-2-methyl-1H-indole-3-acetic acid	uncertainty
313.15	0.3	101.3	0.1006	0.0101

System: methanol + 3-pyridinecarboxamide + ethyl acetate; phases: Liquid, Crystal
Fixed: Solvent: Mass fraction of ethyl acetate = 0.3
Fixed: Pressure, kPa = 101.3
Property: Mass fraction of 3-pyridinecarboxamide (Liquid); method: Chromatography
Temperature, K	Mass fraction of 3-pyridinecarboxamide	uncertainty
298.15	0.2452	0.0245
313.15	0.2936	0.0294
