Measured thermophysical data. The liquid-liquid coexistence curves of {benzonitrile + n-pentadecane} and {benzonitrile + n-heptadecane} in the critical region
Source: J. Chem. Thermodyn., 2012, 10.1016/j.jct.2012.05.030
Compound 1: benzonitrile, C7H5N, InChI=1S/C7H5N/c8-6-7-4-2-1-3-5-7/h1-5H, purity 99%
Compound 2: pentadecane, C15H32, InChI=1S/C15H32/c1-3-5-7-9-11-13-15-14-12-10-8-6-4-2/h3-15H2,1-2H3, purity 99%
Compound 3: heptadecane, C17H36, InChI=1S/C17H36/c1-3-5-7-9-11-13-15-17-16-14-12-10-8-6-4-2/h3-17H2,1-2H3, purity 99%

System: benzonitrile; phases: Liquid
Fixed: Pressure, kPa = 100
Fixed: Wavelength, nm = 632.8
Property: Refractive index (other wavelength) (Liquid); method: Standard Abbe refractometry
Temperature, K	Refractive index (other wavelength)	uncertainty
302.65	1.5207	0.0008
293.37	1.5252	0.0008
295.09	1.5243	0.0008
296.8	1.5236	0.0008
298.2	1.5228	0.0008
299.26	1.5223	0.0008
300.31	1.5218	0.0008
301.35	1.5213	0.0008
302.42	1.5208	0.0008
305.64	1.5192	0.0008
293.99	1.5249	0.0008
295.66	1.5241	0.0008
297.16	1.5233	0.0008
298.8	1.5225	0.0008
300.06	1.5219	0.0008
301.13	1.5214	0.0008
302.26	1.5209	0.0008
303.41	1.5203	0.0008
306.89	1.5186	0.0008
294.53	1.5247	0.0008
296.11	1.5238	0.0008
297.91	1.523	0.0008
298.83	1.5226	0.0008
300.12	1.5219	0.0008
301.23	1.5214	0.0008
302.31	1.5209	0.0008
304.49	1.5198	0.0008
307.88	1.5181	0.0008
307.55	1.5183	0.0008

System: pentadecane; phases: Liquid
Fixed: Pressure, kPa = 100
Fixed: Wavelength, nm = 632.8
Property: Refractive index (other wavelength) (Liquid); method: Standard Abbe refractometry
Temperature, K	Refractive index (other wavelength)	uncertainty
302.65	1.4266	0.0008
293.37	1.4305	0.0008
296.92	1.429	0.0008
300.26	1.4276	0.0008
294.36	1.4301	0.0008
297.91	1.4286	0.0008
301.51	1.4271	0.0008
295.64	1.4296	0.0008
299.12	1.4281	0.0008
302.46	1.4267	0.0008

System: heptadecane; phases: Liquid
Fixed: Pressure, kPa = 100
Fixed: Wavelength, nm = 632.8
Property: Refractive index (other wavelength) (Liquid); method: Standard Abbe refractometry
Temperature, K	Refractive index (other wavelength)	uncertainty
307.55	1.4296	0.0008
298.76	1.4331	0.0008
302.15	1.4317	0.0008
305.29	1.4304	0.0008
299.97	1.4326	0.0008
303.27	1.4313	0.0008
306.32	1.43	0.0008
301.18	1.4321	0.0008
304.24	1.4309	0.0008
307.42	1.4296	0.0008

System: benzonitrile + pentadecane; phases: Liquid mixture 1, Liquid mixture 2, Air at 1 atmosphere
Property: Upper consolute temperature, K (Liquid mixture 1); method: VISOBS
Upper consolute temperature, K	uncertainty
301.226	0.534

System: benzonitrile + pentadecane; phases: Liquid mixture 1, Liquid mixture 2, Air at 1 atmosphere
Property: Upper consolute composition: mole fraction of benzonitrile (Liquid mixture 1); method: equal volume method
Upper consolute composition: mole fraction of benzonitrile	uncertainty
0.657	0.002

System: benzonitrile + pentadecane; phases: Liquid
Fixed: Pressure, kPa = 100
Fixed: Wavelength, nm = 632.8
Property: Refractive index (other wavelength) (Liquid); method: Standard Abbe refractometry
Temperature, K	Mole fraction of benzonitrile	Refractive index (other wavelength)	uncertainty
302.65	0	1.4266	0.0008
302.65	0.3283	1.4404	0.0008
302.65	0.5849	1.4582	0.0008
302.65	0.8983	1.4986	0.0008
302.65	0.1097	1.4304	0.0008
302.65	0.4141	1.4454	0.0008
302.65	0.7005	1.4698	0.0008
302.65	1	1.5207	0.0008
302.65	0.22	1.435	0.0008
302.65	0.4959	1.451	0.0008
302.65	0.8052	1.4832	0.0008
293.37	1	1.5252	0.0008
295.09	1	1.5243	0.0008
296.8	1	1.5236	0.0008
298.2	1	1.5228	0.0008
299.26	1	1.5223	0.0008
300.31	1	1.5218	0.0008
301.35	1	1.5213	0.0008
302.42	1	1.5208	0.0008
305.64	1	1.5192	0.0008
293.99	1	1.5249	0.0008
295.66	1	1.5241	0.0008
297.16	1	1.5233	0.0008
298.8	1	1.5225	0.0008
300.06	1	1.5219	0.0008
301.13	1	1.5214	0.0008
302.26	1	1.5209	0.0008
303.41	1	1.5203	0.0008
306.89	1	1.5186	0.0008
294.53	1	1.5247	0.0008
296.11	1	1.5238	0.0008
297.91	1	1.523	0.0008
298.83	1	1.5226	0.0008
300.12	1	1.5219	0.0008
301.23	1	1.5214	0.0008
302.31	1	1.5209	0.0008
304.49	1	1.5198	0.0008
307.88	1	1.5181	0.0008
293.37	0	1.4305	0.0008
296.92	0	1.429	0.0008
300.26	0	1.4276	0.0008
294.36	0	1.4301	0.0008
297.91	0	1.4286	0.0008
301.51	0	1.4271	0.0008
295.64	0	1.4296	0.0008
299.12	0	1.4281	0.0008
302.46	0	1.4267	0.0008

System: benzonitrile + pentadecane; phases: Liquid mixture 1, Liquid mixture 2
Fixed: Pressure, kPa = 100
Property: Mole fraction of benzonitrile (Liquid mixture 1); method: Index of refraction calibration data
Temperature, K	Mole fraction of benzonitrile	uncertainty
301.221	0.635	0.011
301.218	0.633	0.011
301.215	0.631	0.011
301.212	0.627	0.011
301.206	0.624	0.011
301.197	0.618	0.011
301.186	0.615	0.012
301.174	0.611	0.012
301.157	0.606	0.012
301.136	0.602	0.012
301.115	0.598	0.012
301.09	0.594	0.012
301.063	0.589	0.012
301.027	0.584	0.012
300.985	0.582	0.013
300.938	0.575	0.013
300.877	0.568	0.013
300.812	0.563	0.013
300.739	0.559	0.013
300.652	0.551	0.013
300.533	0.546	0.014
300.373	0.535	0.014
300.208	0.526	0.014
299.98	0.516	0.015
299.66	0.503	0.015
299.217	0.488	0.015
298.648	0.471	0.014
298.031	0.457	0.014
297.126	0.433	0.013
296.102	0.417	0.013
294.913	0.392	0.012
293.65	0.375	0.011
292.602	0.36	0.011
291.394	0.345	0.01

System: benzonitrile + pentadecane; phases: Liquid mixture 2, Liquid mixture 1
Fixed: Pressure, kPa = 100
Property: Mole fraction of benzonitrile (Liquid mixture 2); method: Index of refraction calibration data
Temperature, K	Mole fraction of benzonitrile	uncertainty
301.221	0.676	0.01
301.218	0.682	0.01
301.215	0.681	0.01
301.212	0.684	0.009
301.206	0.687	0.009
301.197	0.692	0.009
301.186	0.695	0.009
301.174	0.699	0.009
301.157	0.702	0.009
301.136	0.706	0.009
301.115	0.71	0.009
301.09	0.713	0.009
301.063	0.716	0.009
301.027	0.72	0.008
300.985	0.723	0.008
300.938	0.727	0.008
300.877	0.731	0.008
300.812	0.736	0.008
300.739	0.739	0.008
300.652	0.743	0.008
300.533	0.748	0.008
300.373	0.754	0.007
300.208	0.761	0.007
299.98	0.766	0.007
299.66	0.775	0.007
299.217	0.784	0.007
298.648	0.793	0.006
298.031	0.802	0.006
297.126	0.814	0.006
296.102	0.824	0.005
294.913	0.835	0.005
293.65	0.844	0.005
292.602	0.85	0.005
291.394	0.858	0.004

System: benzonitrile + pentadecane; phases: Liquid mixture 1, Liquid mixture 2
Fixed: Pressure, kPa = 100
Fixed: Wavelength, nm = 632.8
Property: Refractive index (other wavelength) (Liquid mixture 1); method: Standard Abbe refractometry
Temperature, K	Refractive index (other wavelength)	uncertainty
301.221	1.4634	0.0008
301.218	1.4632	0.0008
301.215	1.463	0.0008
301.212	1.4626	0.0008
301.206	1.4623	0.0008
301.197	1.4618	0.0008
301.186	1.4615	0.0008
301.174	1.4611	0.0008
301.157	1.4607	0.0008
301.136	1.4603	0.0008
301.115	1.46	0.0008
301.09	1.4596	0.0008
301.063	1.4592	0.0008
301.027	1.4588	0.0008
300.985	1.4586	0.0008
300.938	1.458	0.0008
300.877	1.4575	0.0008
300.812	1.4571	0.0008
300.739	1.4568	0.0008
300.652	1.4562	0.0008
300.533	1.4558	0.0008
300.373	1.455	0.0008
300.208	1.4544	0.0008
299.98	1.4537	0.0008
299.66	1.4529	0.0008
299.217	1.452	0.0008
298.648	1.4511	0.0008
298.031	1.4504	0.0008
297.126	1.4492	0.0008
296.102	1.4486	0.0008
294.913	1.4476	0.0008
293.65	1.4471	0.0008
292.602	1.4467	0.0008
291.394	1.4464	0.0008

System: benzonitrile + pentadecane; phases: Liquid mixture 2, Liquid mixture 1
Fixed: Pressure, kPa = 100
Fixed: Wavelength, nm = 632.8
Property: Refractive index (other wavelength) (Liquid mixture 2); method: Standard Abbe refractometry
Temperature, K	Refractive index (other wavelength)	uncertainty
301.221	1.4676	0.0008
301.218	1.4682	0.0008
301.215	1.4681	0.0008
301.212	1.4685	0.0008
301.206	1.4688	0.0008
301.197	1.4694	0.0008
301.186	1.4697	0.0008
301.174	1.4701	0.0008
301.157	1.4705	0.0008
301.136	1.471	0.0008
301.115	1.4714	0.0008
301.09	1.4718	0.0008
301.063	1.4722	0.0008
301.027	1.4727	0.0008
300.985	1.473	0.0008
300.938	1.4736	0.0008
300.877	1.4741	0.0008
300.812	1.4747	0.0008
300.739	1.4751	0.0008
300.652	1.4757	0.0008
300.533	1.4764	0.0008
300.373	1.4772	0.0008
300.208	1.4782	0.0008
299.98	1.479	0.0008
299.66	1.4803	0.0008
299.217	1.4818	0.0008
298.648	1.4834	0.0008
298.031	1.485	0.0008
297.126	1.4872	0.0008
296.102	1.4892	0.0008
294.913	1.4915	0.0008
293.65	1.4935	0.0008
292.602	1.4951	0.0008
291.394	1.4969	0.0008

System: benzonitrile + heptadecane; phases: Liquid mixture 1, Liquid mixture 2, Air at 1 atmosphere
Property: Upper consolute temperature, K (Liquid mixture 1); method: VISOBS
Upper consolute temperature, K	uncertainty
306.642	0.534

System: benzonitrile + heptadecane; phases: Liquid mixture 1, Liquid mixture 2, Air at 1 atmosphere
Property: Upper consolute composition: mole fraction of benzonitrile (Liquid mixture 1); method: equal volume method
Upper consolute composition: mole fraction of benzonitrile	uncertainty
0.695	0.002

System: benzonitrile + heptadecane; phases: Liquid mixture 2, Liquid mixture 1
Fixed: Pressure, kPa = 100
Property: Mole fraction of benzonitrile (Liquid mixture 2); method: Index of refraction calibration data
Temperature, K	Mole fraction of benzonitrile	uncertainty
306.636	0.716	0.009
306.633	0.719	0.008
306.629	0.723	0.008
306.624	0.724	0.008
306.617	0.728	0.008
306.609	0.73	0.008
306.598	0.734	0.008
306.585	0.737	0.008
306.568	0.741	0.008
306.548	0.744	0.008
306.524	0.747	0.008
306.499	0.75	0.008
306.47	0.753	0.007
306.433	0.756	0.007
306.39	0.76	0.007
306.339	0.765	0.007
306.277	0.767	0.007
306.208	0.77	0.007
306.136	0.774	0.007
306.05	0.778	0.007
305.932	0.783	0.007
305.773	0.788	0.006
305.605	0.793	0.006
305.372	0.8	0.006
305.037	0.807	0.006
304.584	0.815	0.006
303.906	0.826	0.005
303.196	0.834	0.005
302.207	0.844	0.005
301.163	0.853	0.004
299.927	0.862	0.004
298.471	0.87	0.004
296.849	0.88	0.004

System: benzonitrile + heptadecane; phases: Liquid mixture 1, Liquid mixture 2
Fixed: Pressure, kPa = 100
Property: Mole fraction of benzonitrile (Liquid mixture 1); method: Index of refraction calibration data
Temperature, K	Mole fraction of benzonitrile	uncertainty
306.636	0.677	0.01
306.633	0.675	0.01
306.629	0.671	0.01
306.624	0.667	0.01
306.617	0.664	0.01
306.609	0.661	0.01
306.598	0.657	0.01
306.585	0.654	0.01
306.568	0.649	0.011
306.548	0.645	0.011
306.524	0.64	0.011
306.499	0.637	0.011
306.47	0.632	0.011
306.433	0.628	0.011
306.39	0.622	0.011
306.339	0.618	0.011
306.277	0.615	0.012
306.208	0.607	0.012
306.136	0.603	0.012
306.05	0.598	0.012
305.932	0.59	0.012
305.773	0.58	0.013
305.605	0.575	0.013
305.372	0.562	0.013
305.037	0.549	0.014
304.584	0.533	0.014
303.906	0.514	0.015
303.196	0.495	0.015
302.207	0.474	0.014
301.163	0.453	0.014
299.927	0.431	0.013
298.471	0.411	0.012
296.849	0.385	0.012

System: benzonitrile + heptadecane; phases: Liquid
Fixed: Pressure, kPa = 100
Fixed: Wavelength, nm = 632.8
Property: Refractive index (other wavelength) (Liquid); method: Standard Abbe refractometry
Temperature, K	Mole fraction of benzonitrile	Refractive index (other wavelength)	uncertainty
307.55	0	1.4296	0.0008
307.55	0.3266	1.4411	0.0008
307.55	0.5975	1.4578	0.0008
307.55	0.9266	1.501	0.0008
307.55	0.1039	1.4325	0.0008
307.55	0.4187	1.4458	0.0008
307.55	0.7127	1.4688	0.0008
307.55	1	1.5183	0.0008
307.55	0.2138	1.4362	0.0008
307.55	0.5127	1.4515	0.0008
307.55	0.8046	1.4802	0.0008
293.37	1	1.5252	0.0008
295.09	1	1.5243	0.0008
296.8	1	1.5236	0.0008
298.2	1	1.5228	0.0008
299.26	1	1.5223	0.0008
300.31	1	1.5218	0.0008
301.35	1	1.5213	0.0008
302.42	1	1.5208	0.0008
305.64	1	1.5192	0.0008
293.99	1	1.5249	0.0008
295.66	1	1.5241	0.0008
297.16	1	1.5233	0.0008
298.8	1	1.5225	0.0008
300.06	1	1.5219	0.0008
301.13	1	1.5214	0.0008
302.26	1	1.5209	0.0008
303.41	1	1.5203	0.0008
306.89	1	1.5186	0.0008
294.53	1	1.5247	0.0008
296.11	1	1.5238	0.0008
297.91	1	1.523	0.0008
298.83	1	1.5226	0.0008
300.12	1	1.5219	0.0008
301.23	1	1.5214	0.0008
302.31	1	1.5209	0.0008
304.49	1	1.5198	0.0008
307.88	1	1.5181	0.0008
298.76	0	1.4331	0.0008
302.15	0	1.4317	0.0008
305.29	0	1.4304	0.0008
299.97	0	1.4326	0.0008
303.27	0	1.4313	0.0008
306.32	0	1.43	0.0008
301.18	0	1.4321	0.0008
304.24	0	1.4309	0.0008
307.42	0	1.4296	0.0008

System: benzonitrile + heptadecane; phases: Liquid mixture 1, Liquid mixture 2
Fixed: Pressure, kPa = 100
Fixed: Wavelength, nm = 632.8
Property: Refractive index (other wavelength) (Liquid mixture 1); method: Standard Abbe refractometry
Temperature, K	Refractive index (other wavelength)	uncertainty
306.636	1.4652	0.0008
306.633	1.465	0.0008
306.629	1.4646	0.0008
306.624	1.4643	0.0008
306.617	1.464	0.0008
306.609	1.4637	0.0008
306.598	1.4633	0.0008
306.585	1.463	0.0008
306.568	1.4626	0.0008
306.548	1.4622	0.0008
306.524	1.4618	0.0008
306.499	1.4615	0.0008
306.47	1.4611	0.0008
306.433	1.4608	0.0008
306.39	1.4603	0.0008
306.339	1.4599	0.0008
306.277	1.4597	0.0008
306.208	1.4591	0.0008
306.136	1.4588	0.0008
306.05	1.4584	0.0008
305.932	1.4578	0.0008
305.773	1.4571	0.0008
305.605	1.4568	0.0008
305.372	1.4559	0.0008
305.037	1.4551	0.0008
304.584	1.4542	0.0008
303.906	1.4532	0.0008
303.196	1.4523	0.0008
302.207	1.4514	0.0008
301.163	1.4506	0.0008
299.927	1.4499	0.0008
298.471	1.4494	0.0008
296.849	1.4487	0.0008

System: benzonitrile + heptadecane; phases: Liquid mixture 2, Liquid mixture 1
Fixed: Pressure, kPa = 100
Fixed: Wavelength, nm = 632.8
Property: Refractive index (other wavelength) (Liquid mixture 2); method: Standard Abbe refractometry
Temperature, K	Refractive index (other wavelength)	uncertainty
306.636	1.4694	0.0008
306.633	1.4697	0.0008
306.629	1.4701	0.0008
306.624	1.4703	0.0008
306.617	1.4707	0.0008
306.609	1.471	0.0008
306.598	1.4714	0.0008
306.585	1.4718	0.0008
306.568	1.4722	0.0008
306.548	1.4726	0.0008
306.524	1.473	0.0008
306.499	1.4734	0.0008
306.47	1.4738	0.0008
306.433	1.4742	0.0008
306.39	1.4747	0.0008
306.339	1.4753	0.0008
306.277	1.4756	0.0008
306.208	1.4761	0.0008
306.136	1.4766	0.0008
306.05	1.4771	0.0008
305.932	1.4779	0.0008
305.773	1.4787	0.0008
305.605	1.4794	0.0008
305.372	1.4805	0.0008
305.037	1.4816	0.0008
304.584	1.483	0.0008
303.906	1.485	0.0008
303.196	1.4866	0.0008
302.207	1.4886	0.0008
301.163	1.4906	0.0008
299.927	1.4928	0.0008
298.471	1.4949	0.0008
296.849	1.4973	0.0008
