Measured thermophysical data. Simultaneous solubility measurement of (ethyl mercaptan + carbon dioxide) into the aqueous solutions of (N-methyl diethanolamine + sulfolane + water)
Source: J. Chem. Thermodyn., 2019, 10.1016/j.jct.2019.02.003
Compound 1: N-methyldiethanolamine, C5H13NO2, InChI=1S/C5H13NO2/c1-6(2-4-7)3-5-8/h7-8H,2-5H2,1H3, purity 99%
Compound 2: sulfolane, C4H8O2S, InChI=1S/C4H8O2S/c5-7(6)3-1-2-4-7/h1-4H2, purity 98%
Compound 3: water, H2O, InChI=1S/H2O/h1H2, purity 99.8%
Compound 4: carbon dioxide, CO2, InChI=1S/CO2/c2-1-3, purity 99.98%

System: N-methyldiethanolamine; phases: Liquid
Fixed: Pressure, kPa = 84
Property: Mass density, kg/m3 (Liquid); method: Pycnometric method
Temperature, K	Mass density, kg/m3	uncertainty
293.15	1041.12	1.88
303.15	1033.6	1.88
313.15	1025.83	1.89
323.15	1017.8	1.89
333.15	1010.8	1.89
343.15	1002.76	1.9

System: N-methyldiethanolamine + sulfolane + water; phases: Liquid
Fixed: Pressure, kPa = 84
Property: Mass density, kg/m3 (Liquid); method: Pycnometric method
Temperature, K	Mass fraction of N-methyldiethanolamine	Mass fraction of sulfolane	Mass density, kg/m3	uncertainty
313.15	0.4	0.2	1077.5	2
313.15	0.4	0.1	1053.2	2
313.15	0.3	0.2	1068.2	2
323.15	0.4	0.2	1072.8	2
323.15	0.4	0.1	1047.5	2
323.15	0.3	0.2	1063.5	2
328.15	0.4	0.2	1070.5	2
328.15	0.4	0.1	1045	2
328.15	0.3	0.2	1061.2	2
333.15	0.4	0.2	1068.2	2
333.15	0.4	0.1	1042	2
333.15	0.3	0.2	1058.4	2
343.15	0.4	0.2	1061.5	2
343.15	0.4	0.1	1034.8	2
343.15	0.3	0.2	1052.6	2
353.15	0.4	0.2	1055.1	2
353.15	0.4	0.1	1028.4	2
353.15	0.3	0.2	1046	2
363.15	0.4	0.2	1048	2.1
363.15	0.4	0.1	1021	2
363.15	0.3	0.2	1038.9	2
293.15	1	0	1041.12	1.88
303.15	1	0	1033.6	1.88
313.15	1	0	1025.83	1.89
323.15	1	0	1017.8	1.89
333.15	1	0	1010.8	1.89
343.15	1	0	1002.76	1.9

System: N-methyldiethanolamine + sulfolane + water; phases: Liquid, Gas
Property: Vapor or sublimation pressure, kPa (Liquid); method: Closed cell (Static) method
Mass fraction of N-methyldiethanolamine	Mass fraction of sulfolane	Temperature, K	Vapor or sublimation pressure, kPa	uncertainty
0.4	0.2	328.15	13	4
0.4	0.1	328.15	14	4
0.3	0.2	328.15	14	4
0.4	0.2	343.15	26	4
0.4	0.1	343.15	27	4
0.3	0.2	343.15	28	4
0.4	0.2	363.15	59	4
0.4	0.1	363.15	62	4
0.3	0.2	363.15	62	4
0.2573	0	313.15	5	4

System: N-methyldiethanolamine + carbon dioxide + water; phases: Liquid, Gas
Fixed: Solvent: Mass fraction of N-methyldiethanolamine = 0.2573
Fixed: Temperature, K = 313.15
Property: Mole fraction of carbon dioxide (Liquid); method: Phase equilibration
Pressure, kPa	Mole fraction of carbon dioxide	uncertainty
21	0.0205	0.0012
70	0.0354	0.0013
403	0.0459	0.0004
684	0.0478	0.0004
1073	0.0496	0.0004
1518	0.0511	0.0004
2007	0.0529	0.0004
2468	0.0542	0.0004
2864	0.0552	0.0004
3250	0.0561	0.0005
3619	0.0569	0.0005

System: N-methyldiethanolamine + water; phases: Liquid, Gas
Property: Vapor or sublimation pressure, kPa (Liquid); method: Closed cell (Static) method
Mass fraction of N-methyldiethanolamine	Temperature, K	Vapor or sublimation pressure, kPa	uncertainty
0.2573	313.15	5	4
