Measured thermophysical data. Standard molar enthalpies of formation and of sublimation of 2-thiophenecarboxamide and 2-thiopheneacetamide
Source: J. Chem. Thermodyn., 2008, 10.1016/j.jct.2007.07.004
Compound 1: sulfuric acid, H2O4S, InChI=1S/H2O4S/c1-5(2,3)4/h(H2,1,2,3,4)
Compound 2: carbon dioxide, CO2, InChI=1S/CO2/c2-1-3
Compound 3: nitrogen, N2, InChI=1S/N2/c1-2
Compound 4: water, H2O, InChI=1S/H2O/h1H2
Compound 5: oxygen, O2, InChI=1S/O2/c1-2
Compound 6: 2-thienylamide, C5H5NOS, InChI=1S/C5H5NOS/c6-5(7)4-2-1-3-8-4/h1-3H,(H2,6,7), purity 98.7%
Compound 7: 2-thiopheneacetamide, C6H7NOS, InChI=1S/C6H7NOS/c7-6(8)4-5-2-1-3-9-5/h1-3H,4H2,(H2,7,8), purity 98%

System: 2-thienylamide; phases: Crystal
Property: Mass density, kg/m3 (Crystal); method: estimated by mass and dimensions of pellet of crystal
Temperature, K	Pressure, kPa	Mass density, kg/m3	uncertainty
298.15	101.325	1031	21

System: 2-thienylamide; phases: Crystal, Gas
Property: Vapor or sublimation pressure, kPa (Crystal); method: Calculated from knudsen effusion weight loss
Temperature, K	Vapor or sublimation pressure, kPa	uncertainty
336.11	0.00011	2e-05
336.11	0.00011	2e-05
336.11	0.000108	2e-05
338.22	0.00014	2.1e-05
338.22	0.000133	2.1e-05
338.22	0.000129	2.1e-05
340.11	0.000167	2.1e-05
340.11	0.000162	2.1e-05
340.11	0.000163	2.1e-05
342.28	0.000207	2.1e-05
342.28	0.000205	2.1e-05
342.28	0.000209	2.1e-05
344.22	0.000258	2.2e-05
344.22	0.000255	2.2e-05
344.22	0.000257	2.2e-05
346.11	0.000307	2.3e-05
346.11	0.000309	2.3e-05
346.11	0.000308	2.3e-05
348.27	0.000392	2.4e-05
348.27	0.00039	2.4e-05
348.27	0.000394	2.4e-05
350.23	0.000498	2.7e-05
350.23	0.000472	2.6e-05
350.23	0.000479	2.6e-05
352.13	0.000591	2.9e-05
352.13	0.00058	2.9e-05
352.13	0.000568	2.8e-05
354.27	0.00074	3.3e-05
354.27	0.000714	3.2e-05
354.27	0.000724	3.3e-05
356.23	0.000921	3.8e-05
356.23	0.000876	3.7e-05
356.23	0.000878	3.7e-05
358.13	0.001056	8.3e-05
358.13	0.001054	8.3e-05
358.13	0.001042	8.1e-05

System: 2-thiopheneacetamide; phases: Crystal
Property: Mass density, kg/m3 (Crystal); method: estimated by mass and dimensions of pellet of crystal
Temperature, K	Pressure, kPa	Mass density, kg/m3	uncertainty
298.15	101.325	1069	21

System: 2-thiopheneacetamide; phases: Crystal, Gas
Property: Vapor or sublimation pressure, kPa (Crystal); method: Calculated from knudsen effusion weight loss
Temperature, K	Vapor or sublimation pressure, kPa	uncertainty
334.12	9.8e-05	2e-05
334.12	9.3e-05	2e-05
334.12	9.4e-05	2e-05
336.2	0.000117	2e-05
336.2	0.000116	2e-05
336.2	0.000118	2e-05
338.2	0.000149	2.1e-05
338.2	0.000148	2.1e-05
338.2	0.00014	2.1e-05
340.15	0.000178	2.1e-05
340.15	0.000187	2.1e-05
340.15	0.000183	2.1e-05
342.2	0.000232	2.2e-05
342.2	0.000231	2.2e-05
342.2	0.000228	2.2e-05
344.19	0.000287	2.2e-05
344.19	0.000283	2.2e-05
344.19	0.000278	2.2e-05
346.15	0.000366	2.4e-05
346.15	0.000361	2.4e-05
346.15	0.00035	2.4e-05
348.19	0.000449	2.6e-05
348.19	0.000433	2.5e-05
348.19	0.00043	2.5e-05
350.19	0.000548	2.8e-05
350.19	0.000533	2.8e-05
350.19	0.000532	2.7e-05
352.14	0.000671	3.1e-05
352.14	0.000673	3.1e-05
352.14	0.000659	3.1e-05
354.18	0.000833	3.6e-05
354.18	0.000828	3.6e-05
354.18	0.000806	3.5e-05
356.19	0.001006	7.8e-05
356.19	0.001007	7.8e-05
356.19	0.000993	4e-05

Reaction: -1 2-thienylamide + 1 sulfuric acid + 5 carbon dioxide + .5 nitrogen + 1.5 water + -7.25 oxygen
Property: Specific internal energy of reaction at constant volume, J/g
-24445.7

Reaction: -1 2-thiopheneacetamide + 1 sulfuric acid + 6 carbon dioxide + .5 nitrogen + 2.5 water + -8.75 oxygen
Property: Specific internal energy of reaction at constant volume, J/g
-26634.8
