Measured thermophysical data. Benchmark properties of 2-, 3- and 4-nitrotoluene: Evaluation of thermochemical data with complementary experimental and computational methods
Source: J. Chem. Thermodyn., 2017, 10.1016/j.jct.2017.03.029
Compound 1: carbon dioxide, CO2, InChI=1S/CO2/c2-1-3
Compound 2: nitrogen, N2, InChI=1S/N2/c1-2
Compound 3: water, H2O, InChI=1S/H2O/h1H2
Compound 4: oxygen, O2, InChI=1S/O2/c1-2
Compound 5: 2-nitrotoluene, C7H7NO2, InChI=1S/C7H7NO2/c1-6-4-2-3-5-7(6)8(9)10/h2-5H,1H3, purity 99%
Compound 6: 3-nitrotoluene, C7H7NO2, InChI=1S/C7H7NO2/c1-6-3-2-4-7(5-6)8(9)10/h2-5H,1H3, purity 99%
Compound 7: 1-methyl-4-nitrobenzene, C7H7NO2, InChI=1S/C7H7NO2/c1-6-2-4-7(5-3-6)8(9)10/h2-5H,1H3, purity 99%

System: 2-nitrotoluene; phases: Liquid, Gas
Property: Vapor or sublimation pressure, kPa (Liquid); method: Transpiration method
Temperature, K	Vapor or sublimation pressure, kPa	uncertainty
278.3	0.00328	0.00023
278.4	0.0032	0.00023
283.3	0.00526	0.00038
283.3	0.00502	0.00036
288.3	0.00806	0.00056
288.3	0.00804	0.00056
293.2	0.0124	0.0008
293.2	0.0119	0.0008
298.2	0.0181	0.0012
298.2	0.0175	0.0012
303.1	0.0259	0.0017
303.2	0.0273	0.0017
308.1	0.0381	0.0025
308.2	0.0391	0.0025
313.1	0.0563	0.0035
313.1	0.0555	0.0035
318	0.0765	0.0048
318.1	0.081	0.005
323	0.108	0.007

System: 3-nitrotoluene; phases: Liquid, Gas
Property: Vapor or sublimation pressure, kPa (Liquid); method: Transpiration method
Temperature, K	Vapor or sublimation pressure, kPa	uncertainty
298.2	0.012	0.001
299.2	0.0127	0.0008
302.2	0.0163	0.001
303.2	0.0176	0.0012
303.2	0.0173	0.0012
303.2	0.0173	0.0012
308.2	0.026	0.0017
308.2	0.0259	0.0017
308.2	0.0255	0.0017
308.2	0.0253	0.0017
313.2	0.037	0.0023
313.2	0.0363	0.0023
313.2	0.0361	0.0023
318.2	0.0535	0.0035
318.2	0.0524	0.0033
318.1	0.0516	0.0033
323.1	0.0743	0.0047
323.2	0.0732	0.0047
323.1	0.0718	0.0045
328.1	0.103	0.007
333.1	0.138	0.008
338	0.187	0.012
290.6	0.00648	0.00047
293.3	0.00842	0.00058
296.3	0.0103	0.0007
299.2	0.0133	0.001
302.3	0.0168	0.001
305.3	0.0211	0.0015
308.3	0.0267	0.0017
311.4	0.0335	0.0022
314.3	0.0414	0.0027
317.2	0.0498	0.0032
320.2	0.0607	0.0038
323.2	0.0749	0.0048

System: 1-methyl-4-nitrobenzene; phases: Liquid, Gas
Property: Vapor or sublimation pressure, kPa (Liquid); method: Transpiration method
Temperature, K	Vapor or sublimation pressure, kPa	uncertainty
328.1	0.0862	0.0055
328.1	0.0853	0.0054
333	0.117	0.007
333	0.113	0.007
338	0.162	0.01
338	0.155	0.01
343	0.216	0.013
343	0.21	0.013
347.9	0.274	0.018
348	0.29	0.018
352.9	0.369	0.031
353	0.374	0.023
357.9	0.483	0.03
358	0.504	0.032
362.9	0.622	0.039
363	0.66	0.042
367.9	0.841	0.052
367.9	0.793	0.049
326.2	0.0797	0.0049
329.2	0.097	0.0061
332.2	0.1207	0.0075
332.2	0.1198	0.0074
335.3	0.1411	0.0089
338.2	0.168	0.0105
341.2	0.1995	0.0124
344.4	0.2417	0.0152
347.1	0.2802	0.0173
350.2	0.3388	0.021
353.2	0.4024	0.0333

System: 1-methyl-4-nitrobenzene; phases: Crystal, Gas
Property: Vapor or sublimation pressure, kPa (Crystal); method: Transpiration method
Temperature, K	Vapor or sublimation pressure, kPa	uncertainty
283.3	0.00113	8e-05
288.3	0.00196	0.00013
293.2	0.00332	0.00024
298.2	0.00566	0.00042
303.2	0.00937	0.00064
308.2	0.0151	0.001
308.2	0.0149	0.001
313.2	0.0239	0.0015
318.2	0.0377	0.0025
323.1	0.0572	0.0038
323.1	0.0544	0.0036
278.2	0.00067	0.00014
279.6	0.0008	0.00014
288.2	0.00211	0.00022
290.3	0.00271	0.00027
292.2	0.00326	0.00029
296.8	0.00539	0.00042
298.3	0.00599	0.00047
301.4	0.00833	0.00056
304.3	0.011	0.0008
307.4	0.015	0.001
310.3	0.0193	0.0013
313.2	0.0252	0.0017
314.3	0.0292	0.002
314.3	0.0292	0.002
315.2	0.0309	0.002
315.7	0.033	0.0022
316.2	0.0354	0.0023
316.7	0.0359	0.0023
317.2	0.0383	0.0024
318.2	0.04	0.0025
319.3	0.0438	0.0029
320.3	0.0483	0.0031
321.2	0.0523	0.0033
322.2	0.0569	0.0035
323.3	0.0626	0.004
324.3	0.0673	0.0043

Reaction: -1 3-nitrotoluene + 7 carbon dioxide + .5 nitrogen + 3.5 water + -7.75 oxygen
Property: Specific internal energy of reaction at constant volume, J/g
-27156.8

Reaction: -1 1-methyl-4-nitrobenzene + 7 carbon dioxide + .5 nitrogen + 3.5 water + -7.75 oxygen
Property: Specific internal energy of reaction at constant volume, J/g
-27034.4
