Measured thermophysical data. Speed-of-sound measurements in (argon + carbon dioxide) over the temperature range from (275 to 500) K at pressures up to 8 MPa
Source: J. Chem. Thermodyn., 2016, 10.1016/j.jct.2016.03.036
Compound 1: argon, Ar, InChI=1S/Ar, purity 99.999%
Compound 2: carbon dioxide, CO2, InChI=1S/CO2/c2-1-3, purity 99.997%

System: carbon dioxide + argon; phases: Gas
Property: Speed of sound, m/s (Gas); method: Spherical resonator
Mole fraction of carbon dioxide	Pressure, kPa	Temperature, K	Speed of sound, m/s	uncertainty
0.50104	8216.26	274.997	253.759	0.433
0.50104	6073.33	274.991	258.012	0.439
0.50104	4023.21	274.99	263.855	0.45
0.50104	2006.44	275.002	270.444	0.459
0.50104	8215.34	274.997	254.183	0.434
0.50104	6072.86	274.991	257.986	0.439
0.50104	4022.93	274.99	263.909	0.45
0.50104	2006.27	275.001	270.593	0.459
0.50104	8215.31	274.997	254.168	0.434
0.50104	6072.88	274.991	257.961	0.439
0.50104	4022.95	274.991	263.924	0.45
0.50104	2006.29	275.003	270.607	0.46
0.50104	8170.71	299.845	275.134	0.47
0.50104	7658.93	299.956	275.437	0.466
0.50104	6007.92	299.948	276.819	0.471
0.50104	4020.77	299.945	279.772	0.474
0.50104	1986.96	299.945	283.785	0.479
0.50104	494.36	299.948	287.266	0.484
0.50104	8170.18	299.847	275.044	0.47
0.50104	7658.02	299.949	275.38	0.466
0.50104	6007.47	299.948	276.821	0.471
0.50104	4020.49	299.946	279.838	0.474
0.50104	1986.82	299.944	283.882	0.483
0.50104	8170.09	299.846	275.034	0.47
0.50104	7657.92	299.947	275.37	0.466
0.50104	6007.48	299.949	276.817	0.471
0.50104	4020.5	299.946	279.824	0.474
0.50104	1986.82	299.942	283.891	0.48
0.50104	7291.16	350.009	306.194	0.514
0.50104	6002.59	350.009	305.94	0.514
0.50104	4001.52	350.01	306.296	0.514
0.50104	1989.98	350.009	307.457	0.516
0.50104	487.4	350.009	308.872	0.518
0.50104	7290.63	350.007	306.257	0.519
0.50104	6002.18	350.009	305.923	0.514
0.50104	4001.25	350.01	306.393	0.515
0.50104	1989.85	350.009	307.603	0.516
0.50104	7290.62	350.006	306.021	0.565
0.50104	6002.19	350.009	305.915	0.519
0.50104	4001.25	350.009	306.374	0.514
0.50104	1989.84	350.006	307.574	0.516
0.50104	7411.67	400.202	330.747	0.552
0.50104	5980.76	400.197	329.733	0.551
0.50104	4008.97	400.196	328.85	0.549
0.50104	2000.91	400.193	328.524	0.548
0.50104	451.922	400.202	328.787	0.549
0.50104	7411.18	400.202	330.789	0.552
0.50104	5980.38	400.197	329.824	0.697
0.50104	4008.65	400.197	328.955	0.549
0.50104	2000.79	400.193	328.688	0.549
0.50104	7411.01	400.2	330.819	0.552
0.50104	5980.38	400.197	329.886	0.551
0.50104	4008.66	400.197	329.017	0.549
0.50104	2000.78	400.191	328.635	0.549
0.50104	7264.83	500.462	371.189	0.614
0.50104	6008.66	500.462	369.692	0.612
0.50104	4008.14	500.46	367.562	0.609
0.50104	1988.38	500.459	365.732	0.606
0.50104	476.588	500.502	364.753	0.604
0.50104	7264.41	500.462	371.243	0.614
0.50104	6008.31	500.459	369.746	0.612
0.50104	4007.92	500.462	367.673	0.609
0.50104	1988.27	500.457	365.882	0.645
0.50104	7264.37	500.462	371.283	0.614
0.50104	6008.3	500.462	369.733	0.685
0.50104	4007.91	500.461	367.608	0.618
0.50104	1988.28	500.459	365.864	0.68
0.74981	5502.98	276.088	227.574	0.404
0.74981	5399.84	276.09	228.574	0.41
0.74981	5295.97	276.092	229.564	0.407
0.74981	4995.69	276.092	232.298	0.408
0.74981	4003.61	276.088	240.29	0.414
0.74981	1999.05	276.088	255.07	0.435
0.74981	501.138	276.087	264.909	0.454
0.74981	5295.45	276.092	229.019	0.407
0.74981	4995.21	276.092	231.832	0.407
0.74981	4003.24	276.089	240.293	0.414
0.74981	1998.89	276.089	255.172	0.49
0.74981	5502.41	276.089	226.977	0.412
0.74981	5399.29	276.09	227.997	0.409
0.74981	5295.43	276.092	229.011	0.407
0.74981	4995.2	276.091	231.822	0.407
0.74981	4003.26	276.088	240.282	0.414
0.74981	1998.89	276.089	255.155	0.436
0.74981	8057.44	290.014	227.741	0.399
0.74981	6012.66	290.008	240.255	0.415
0.74981	4023.45	290.007	251.638	0.431
0.74981	1979.01	290.009	263.297	0.448
0.74981	485.294	290.008	271.437	0.46
0.74981	8057.1	290.016	227.321	0.399
0.74981	6011.91	290.007	239.661	0.415
0.74981	4023.12	290.007	251.707	0.433
0.74981	1978.86	290.009	263.375	0.448
0.74981	8057.04	290.015	227.35	0.399
0.74981	6012.13	290.008	239.669	0.415
0.74981	4023.13	290.007	251.647	0.431
0.74981	1978.86	290.009	263.408	0.448
0.74981	8063.3	310.008	251.521	0.434
0.74981	6000.22	310.007	258.015	0.442
0.74981	4024.18	310.009	265.613	0.452
0.74981	1981.05	310.008	274.006	0.464
0.74981	488.279	310.008	280.301	0.474
0.74981	8062.71	310.01	251.514	0.434
0.74981	5999.62	310.005	258.004	0.442
0.74981	4023.86	310.008	265.675	0.452
0.74981	1980.91	310.008	274.108	0.464
0.74981	8062.53	310.008	251.41	0.434
0.74981	5999.73	310.007	257.987	0.442
0.74981	4023.88	310.009	265.669	0.452
0.74981	1980.91	310.009	274.122	0.464
0.74981	8200.98	350.013	282.123	0.478
0.74981	6018.23	350.011	284.804	0.482
0.74981	4010.58	350.011	288.505	0.487
0.74981	1987.38	350.01	293.08	0.494
0.74981	500.813	350.011	296.882	0.499
0.74981	8200.28	350.013	282.089	0.478
0.74981	6017.76	350.011	284.82	0.482
0.74981	4010.29	350.011	288.577	0.487
0.74981	1987.25	350.01	293.211	0.494
0.74981	8200.27	350.013	282.078	0.478
0.74981	6017.76	350.011	284.806	0.482
0.74981	4010.27	350.01	288.52	0.54
0.74981	1987.26	350.01	293.128	0.494
0.74981	7955.09	400.135	310.442	0.52
0.74981	6013.53	400.131	310.893	0.522
0.74981	4018.62	400.13	312.172	0.523
0.74981	1988.27	400.128	314.306	0.526
0.74981	501.932	400.127	316.145	0.529
0.74981	7954.41	400.131	310.439	0.52
0.74981	6013.12	400.131	310.98	0.522
0.74981	4018.35	400.13	312.301	0.524
0.74981	1988.14	400.129	314.38	0.527
0.74981	7954.51	400.135	310.43	0.522
0.74981	6013.12	400.132	310.943	0.522
0.74981	4018.35	400.13	312.247	0.529
0.74981	1988.14	400.129	314.321	0.539
0.74981	8008.03	500.486	353.784	0.587
0.74981	6001.21	500.484	352.393	0.586
0.74981	4010.28	500.483	351.501	0.584
0.74981	2004.05	500.481	351.027	0.583
0.74981	501.805	500.48	350.997	0.583
0.74981	8007.52	500.486	353.817	0.587
0.74981	6000.82	500.484	352.544	0.586
0.74981	4010.03	500.483	351.639	0.584
0.74981	2003.94	500.481	351.192	0.583
0.74981	8007.45	500.486	353.867	0.587
0.74981	6000.81	500.484	352.488	0.66
0.74981	4010.02	500.483	351.635	0.584
0.74981	2003.94	500.481	351.234	0.584
