Measured thermophysical data. Low pressure solubility and thermodynamics of solvation of oxygen, carbon dioxide, and carbon monoxide in fluorinated liquids
Source: J. Chem. Thermodyn., 2007, 10.1016/j.jct.2006.11.012
Compound 1: carbon dioxide, CO2, InChI=1S/CO2/c2-1-3, purity 99.995%
Compound 2: perfluorodecalin, C10F18, InChI=1S/C10F18/c11-1-2(12,5(17,18)9(25,26)7(21,22)3(1,13)14)6(19,20)10(27,28)8(23,24)4(1,15)16, purity 98.7%
Compound 3: perfluoro(methylcyclohexane), C7F14, InChI=1S/C7F14/c8-1(7(19,20)21)2(9,10)4(13,14)6(17,18)5(15,16)3(1,11)12, purity 97.4%
Compound 4: 1,1,2,2,3,3,4,5,5,6-decafluoro-4,6-bis(trifluoromethyl)cyclohexane, C8F16, InChI=1S/C8F16/c9-1(7(19,20)21)3(11,12)2(10,8(22,23)24)5(15,16)6(17,18)4(1,13)14, purity 99.2%
Compound 5: perfluorophenanthrene, C14F24, InChI=1S/C14F24/c15-1-2(16)4(18,10(29,30)14(37,38)12(33,34)6(2,21)22)8(25,26)7(23,24)3(1,17)9(27,28)13(35,36)11(31,32)5(1,19)20, purity 93%
Compound 6: carbon monoxide, CO, InChI=1S/CO/c1-2, purity 99.997%
Compound 7: octadecafluorooctane, C8F18, InChI=1S/C8F18/c9-1(10,3(13,14)5(17,18)7(21,22)23)2(11,12)4(15,16)6(19,20)8(24,25)26, purity 99.4%
Compound 8: 1-bromoperfluorooctane, C8BrF17, InChI=1S/C8BrF17/c9-7(22,23)5(18,19)3(14,15)1(10,11)2(12,13)4(16,17)6(20,21)8(24,25)26, purity 98.1%
Compound 9: perfluorohexylethane, C8H5F13, InChI=1S/C8H5F13/c1-2-3(9,10)4(11,12)5(13,14)6(15,16)7(17,18)8(19,20)21/h2H2,1H3

System: octadecafluorooctane; phases: Liquid, Gas
Property: Mass density, kg/m3 (Liquid); method: Pycnometric method
Temperature, K	Mass density, kg/m3	uncertainty
289.03	1770.7	2.03
292.84	1760.93	1.98
297.27	1750.06	2.02
303.15	1734.49	2.09
307.51	1722.71	2.08
312.58	1709.52	2.05

System: 1-bromoperfluorooctane; phases: Liquid, Gas
Property: Mass density, kg/m3 (Liquid); method: Pycnometric method
Temperature, K	Mass density, kg/m3	uncertainty
288.63	1926.65	4.51
292.57	1917	4.34
298.78	1906.56	4.42
302.71	1892.19	4.58
307.01	1881.37	4.39
311.72	1869.53	4.36

System: perfluorohexylethane; phases: Liquid, Gas
Property: Vapor or sublimation pressure, kPa (Liquid); method: CCELL:UFactor:2
Temperature, K	Vapor or sublimation pressure, kPa	uncertainty
298.3	4.9783	0.0405
298.32	4.9709	0.0404
303.21	5.8818	0.0442
307.81	6.9263	0.0484
312.81	8.1306	0.0532

System: perfluorohexylethane; phases: Liquid, Gas
Property: Mass density, kg/m3 (Liquid); method: Pycnometric method
Temperature, K	Mass density, kg/m3	uncertainty
288.93	1566.26	1.64
292.66	1558.07	1.58
298.73	1545.55	1.61
302.86	1536.04	1.61
307.25	1527.24	1.6
312.48	1515.63	1.67

System: carbon dioxide + octadecafluorooctane; phases: Liquid, Gas
Fixed: Pressure, kPa of carbon dioxide = 100
Property: Ostwald coefficient (Liquid); method: gas volume change or dissolution
Temperature, K	Ostwald coefficient	uncertainty
289.79	2.17	0.02
293.53	2.11	0.02
297.18	2.02	0.02
303.12	1.93	0.02
307.33	1.86	0.02
311	1.76	0.02

System: carbon dioxide + 1-bromoperfluorooctane; phases: Liquid, Gas
Fixed: Pressure, kPa of carbon dioxide = 100
Property: Ostwald coefficient (Liquid); method: gas volume change or dissolution
Temperature, K	Ostwald coefficient	uncertainty
289.15	2.41	0.02
293.45	2.36	0.02
298.81	2.23	0.02
302.93	2.08	0.02
307.1	2.02	0.02
311.12	1.93	0.02

System: carbon dioxide + perfluorodecalin; phases: Liquid, Gas
Fixed: Pressure, kPa of carbon dioxide = 100
Property: Ostwald coefficient (Liquid); method: gas volume change or dissolution
Temperature, K	Ostwald coefficient	uncertainty
288.59	1.93	0.02
292.28	1.92	0.02
296.62	1.77	0.02
302.73	1.61	0.01
306.91	1.6	0.01
311.41	1.57	0.01

System: carbon dioxide + perfluoro(methylcyclohexane); phases: Liquid, Gas
Fixed: Pressure, kPa of carbon dioxide = 100
Property: Ostwald coefficient (Liquid); method: gas volume change or dissolution
Temperature, K	Ostwald coefficient	uncertainty
289.15	2.33	0.02
292.42	2.19	0.02
296.69	2.11	0.02
302.94	1.97	0.02
306.66	1.83	0.02
311.17	1.63	0.01

System: carbon dioxide + 1,1,2,2,3,3,4,5,5,6-decafluoro-4,6-bis(trifluoromethyl)cyclohexane; phases: Liquid, Gas
Fixed: Pressure, kPa of carbon dioxide = 100
Property: Ostwald coefficient (Liquid); method: gas volume change or dissolution
Temperature, K	Ostwald coefficient	uncertainty
288.83	2.2	0.02
292.08	2.12	0.02
296.43	1.99	0.02
302.68	1.9	0.02
306.58	1.74	0.02
306.72	1.72	0.02
310.89	1.71	0.02

System: carbon dioxide + perfluorophenanthrene; phases: Liquid, Gas
Fixed: Pressure, kPa of carbon dioxide = 100
Property: Ostwald coefficient (Liquid); method: gas volume change or dissolution
Temperature, K	Ostwald coefficient	uncertainty
292.22	1.63	0.01
296.73	1.53	0.01
302.44	1.4	0.01
311.14	1.19	0.01

System: octadecafluorooctane + carbon monoxide; phases: Liquid, Gas
Fixed: Pressure, kPa of carbon monoxide = 100
Property: Ostwald coefficient (Liquid); method: gas volume change or dissolution
Temperature, K	Ostwald coefficient	uncertainty
289.86	0.37	0.004
292.28	0.375	0.004
302.54	0.378	0.004
306.78	0.369	0.003
311.04	0.368	0.003

System: 1-bromoperfluorooctane + carbon monoxide; phases: Liquid, Gas
Fixed: Pressure, kPa of carbon monoxide = 100
Property: Ostwald coefficient (Liquid); method: gas volume change or dissolution
Temperature, K	Ostwald coefficient	uncertainty
288.89	0.338	0.003
292.4	0.345	0.003
302.52	0.34	0.003
307.23	0.338	0.003
311.07	0.345	0.003

System: carbon dioxide + perfluorohexylethane; phases: Liquid, Gas
Fixed: Pressure, kPa of carbon dioxide = 100
Property: Ostwald coefficient (Liquid); method: x
Temperature, K	Ostwald coefficient	uncertainty
289.3	2.87	0.02
293.3	2.8	0.02
296.82	2.74	0.02
302.68	2.58	0.02
305.12	2.49	0.02
311.36	2.27	0.02

System: carbon monoxide + perfluorohexylethane; phases: Liquid, Gas
Fixed: Pressure, kPa of carbon monoxide = 100
Property: Ostwald coefficient (Liquid); method: x
Temperature, K	Ostwald coefficient	uncertainty
289.04	0.393	0.004
295.56	0.392	0.004
304.24	0.389	0.004
306.88	0.392	0.004
311.13	0.391	0.004
