Measured thermophysical data. Temperature and salt addition effects on the solubility behaviour of some phenolic compounds in water
Source: J. Chem. Thermodyn., 2007, 10.1016/j.jct.2006.06.014
Compound 1: 4-hydroxy-3-methoxycinnamic acid, C10H10O4, InChI=1S/C10H10O4/c1-14-9-6-7(2-4-8(9)11)3-5-10(12)13/h2-6,11H,1H3,(H,12,13)
Compound 2: 4-hydroxy-3,5-dimethoxybenzoic acid, C9H10O5, InChI=1S/C9H10O5/c1-13-6-3-5(9(11)12)4-7(14-2)8(6)10/h3-4,10H,1-2H3,(H,11,12)
Compound 3: 3,4,5-trihydroxybenzoic acid, C7H6O5, InChI=1S/C7H6O5/c8-4-1-3(7(11)12)2-5(9)6(4)10/h1-2,8-10H,(H,11,12)
Compound 4: 3,4-dihydroxybenzoic acid, C7H6O4, InChI=1S/C7H6O4/c8-5-2-1-4(7(10)11)3-6(5)9/h1-3,8-9H,(H,10,11)
Compound 5: vanillin, C8H8O3, InChI=1S/C8H8O3/c1-11-8-4-6(5-9)2-3-7(8)10/h2-5,10H,1H3
Compound 6: 4-hydroxy-3-methoxybenzoic acid, C8H8O4, InChI=1S/C8H8O4/c1-12-7-4-5(8(10)11)2-3-6(7)9/h2-4,9H,1H3,(H,10,11)
Compound 7: water, H2O, InChI=1S/H2O/h1H2
Compound 8: potassium chloride, ClK, InChI=1S/ClH.K/h1H;/q;+1/p-1
Compound 9: sodium chloride, ClNa, InChI=1S/ClH.Na/h1H;/q;+1/p-1
Compound 10: lithium chloride, ClLi, InChI=1S/ClH.Li/h1H;/q;+1/p-1

System: 4-hydroxy-3-methoxycinnamic acid + water; phases: Liquid, Crystal
Fixed: Pressure, kPa = 101
Property: Molality, mol/kg (Liquid); method: high-performace liquid chromatography
Temperature, K	Molality, mol/kg	uncertainty
293.15	0.0215	0.0022
298.15	0.0298	0.003
298.15	0.0299	0.003
303.15	0.0371	0.0037
308.15	0.0455	0.0046
313.15	0.0551	0.0055
318.15	0.0651	0.0065

System: 4-hydroxy-3,5-dimethoxybenzoic acid + water; phases: Liquid, Crystal
Fixed: Pressure, kPa = 101
Property: Molality, mol/kg (Liquid); method: high-performance liquid chromatography
Temperature, K	Molality, mol/kg	uncertainty
293.15	0.0209	0.0021
298.15	0.0289	0.0029
298.15	0.029	0.0029
303.15	0.0359	0.0036
308.15	0.0441	0.0044
313.15	0.0509	0.0051
318.15	0.0584	0.0058

System: 3,4,5-trihydroxybenzoic acid + water; phases: Liquid, Crystal
Fixed: Pressure, kPa = 101
Property: Molality, mol/kg (Liquid); method: high-performance liquid chromatography
Temperature, K	Molality, mol/kg	uncertainty
293.15	0.0649	0.0065
298.15	0.068	0.0068
303.15	0.0714	0.0071
308.15	0.0728	0.0073
313.15	0.0768	0.0077
318.15	0.0796	0.008

System: 3,4-dihydroxybenzoic acid + water; phases: Liquid, Crystal
Fixed: Pressure, kPa = 101
Property: Molality, mol/kg (Liquid); method: high-performance liquid chromatography
Temperature, K	Molality, mol/kg	uncertainty
293.15	0.1182	0.0118
298.15	0.1215	0.0122
303.15	0.1273	0.0127
308.15	0.1327	0.0133
313.15	0.136	0.0136
318.15	0.1424	0.0142

System: vanillin + water; phases: Liquid, Crystal
Fixed: Pressure, kPa = 101
Property: Molality, mol/kg (Liquid); method: high-performance liquid chromatography
Temperature, K	Molality, mol/kg	uncertainty
293.15	0.055	0.0055
298.15	0.0652	0.0065
303.15	0.084	0.0084
308.15	0.1012	0.0101
313.15	0.1167	0.0117
318.15	0.1331	0.0133

System: 4-hydroxy-3-methoxybenzoic acid + water; phases: Liquid, Crystal
Fixed: Pressure, kPa = 101
Property: Molality, mol/kg (Liquid); method: high-performance liquid chromatography
Temperature, K	Molality, mol/kg	uncertainty
293.15	0.0074	0.0007
298.15	0.0091	0.0009
303.15	0.0115	0.0012
308.15	0.013	0.0013
313.15	0.0147	0.0015
318.15	0.0164	0.0016

System: 4-hydroxy-3-methoxycinnamic acid + potassium chloride + water; phases: Liquid, Crystal
Fixed: Pressure, kPa = 101
Property: Molality, mol/kg of 4-hydroxy-3-methoxycinnamic acid (Liquid); method: high-performance liquid chromatography
Temperature, K	Solvent: Molality, mol/kg of potassium chloride	Molality, mol/kg of 4-hydroxy-3-methoxycinnamic acid	uncertainty
293.15	1	0.0121	0.0012
298.15	0.5	0.0228	0.0023
298.15	1	0.0187	0.0019
298.15	1.5	0.0162	0.0016
298.15	2	0.0147	0.0015
298.15	2.5	0.0131	0.0013
298.15	3	0.0123	0.0012
298.15	3.5	0.0114	0.0011
298.15	1	0.0187	0.0019
303.15	1	0.0263	0.0026
308.15	1	0.0337	0.0034
313.15	1	0.0411	0.0041
318.15	1	0.0484	0.0049

System: 4-hydroxy-3-methoxycinnamic acid + sodium chloride + water; phases: Liquid, Crystal
Fixed: Pressure, kPa = 101
Property: Molality, mol/kg of 4-hydroxy-3-methoxycinnamic acid (Liquid); method: high-performance liquid chromatography
Temperature, K	Solvent: Molality, mol/kg of sodium chloride	Molality, mol/kg of 4-hydroxy-3-methoxycinnamic acid	uncertainty
293.15	1	0.0095	0.001
298.15	0.5	0.0215	0.0022
298.15	1	0.016	0.0016
298.15	1.5	0.0128	0.0013
298.15	2	0.0111	0.0012
298.15	2.5	0.0096	0.001
298.15	3	0.0079	0.0008
298.15	3.5	0.0073	0.0007
298.15	1	0.0165	0.0017
303.15	1	0.0236	0.0024
308.15	1	0.0301	0.003
313.15	1	0.0373	0.0037
318.15	1	0.0447	0.0045

System: 4-hydroxy-3-methoxycinnamic acid + lithium chloride + water; phases: Liquid, Crystal
Fixed: Pressure, kPa = 101
Property: Molality, mol/kg of 4-hydroxy-3-methoxycinnamic acid (Liquid); method: high-performance liquid chromatography
Temperature, K	Solvent: Molality, mol/kg of lithium chloride	Molality, mol/kg of 4-hydroxy-3-methoxycinnamic acid	uncertainty
293.15	1	0.0086	0.0009
298.15	0.5	0.0199	0.002
298.15	1	0.015	0.0015
298.15	1.5	0.0108	0.0011
298.15	2	0.0091	0.001
298.15	2.5	0.0075	0.0008
298.15	3	0.006	0.0006
298.15	3.5	0.0051	0.0005
298.15	1	0.0144	0.0015
303.15	1	0.021	0.0021
308.15	1	0.028	0.0028
313.15	1	0.0349	0.0035
318.15	1	0.042	0.0042

System: 4-hydroxy-3,5-dimethoxybenzoic acid + potassium chloride + water; phases: Liquid, Crystal
Fixed: Pressure, kPa = 101
Property: Molality, mol/kg of 4-hydroxy-3,5-dimethoxybenzoic acid (Liquid); method: high-performance liquid chromatography
Temperature, K	Solvent: Molality, mol/kg of potassium chloride	Molality, mol/kg of 4-hydroxy-3,5-dimethoxybenzoic acid	uncertainty
293.15	1	0.0164	0.0017
298.15	0.5	0.0274	0.0028
298.15	1	0.0264	0.0027
298.15	1.5	0.0248	0.0025
298.15	2	0.0238	0.0024
298.15	2.5	0.023	0.0023
298.15	3	0.0225	0.0023
298.15	3.5	0.0221	0.0022
298.15	1	0.0264	0.0027
303.15	1	0.0321	0.0032
308.15	1	0.041	0.0041
313.15	1	0.0475	0.0048
318.15	1	0.0538	0.0054

System: 4-hydroxy-3,5-dimethoxybenzoic acid + sodium chloride + water; phases: Liquid, Crystal
Fixed: Pressure, kPa = 101
Property: Molality, mol/kg of 4-hydroxy-3,5-dimethoxybenzoic acid (Liquid); method: high-performance liquid chromatography
Temperature, K	Solvent: Molality, mol/kg of sodium chloride	Molality, mol/kg of 4-hydroxy-3,5-dimethoxybenzoic acid	uncertainty
293.15	1	0.0145	0.0015
298.15	0.5	0.0254	0.0026
298.15	1	0.022	0.0022
298.15	1.5	0.0203	0.0021
298.15	2	0.0193	0.002
298.15	2.5	0.0184	0.0018
298.15	3	0.0179	0.0018
298.15	3.5	0.0177	0.0018
298.15	1	0.022	0.0022
303.15	1	0.029	0.0029
308.15	1	0.0358	0.0036
313.15	1	0.044	0.0044
318.15	1	0.0504	0.005

System: 4-hydroxy-3,5-dimethoxybenzoic acid + lithium chloride + water; phases: Liquid, Crystal
Fixed: Pressure, kPa = 101
Property: Molality, mol/kg of 4-hydroxy-3,5-dimethoxybenzoic acid (Liquid); method: high-performance liquid chromatography
Temperature, K	Solvent: Molality, mol/kg of lithium chloride	Molality, mol/kg of 4-hydroxy-3,5-dimethoxybenzoic acid	uncertainty
293.15	1	0.0129	0.0013
298.15	0.5	0.0246	0.0025
298.15	1	0.0204	0.0021
298.15	1.5	0.0185	0.0019
298.15	2	0.0171	0.0017
298.15	2.5	0.0164	0.0016
298.15	3	0.0157	0.0016
298.15	3.5	0.0153	0.0015
298.15	1	0.0204	0.0021
303.15	1	0.0266	0.0027
308.15	1	0.0331	0.0033
313.15	1	0.0405	0.0041
318.15	1	0.0472	0.0047

System: 3,4,5-trihydroxybenzoic acid + potassium chloride + water; phases: Liquid, Crystal
Fixed: Solvent: Molality, mol/kg of potassium chloride = 1
Fixed: Pressure, kPa = 101
Property: Molality, mol/kg of 3,4,5-trihydroxybenzoic acid (Liquid); method: high-performance liquid chromatography
Temperature, K	Molality, mol/kg of 3,4,5-trihydroxybenzoic acid	uncertainty
293.15	0.0576	0.0058
298.15	0.062	0.0062
303.15	0.0632	0.0063
308.15	0.0665	0.0067
313.15	0.0697	0.007
318.15	0.0751	0.0075

System: 3,4,5-trihydroxybenzoic acid + sodium chloride + water; phases: Liquid, Crystal
Fixed: Solvent: Molality, mol/kg of sodium chloride = 1
Fixed: Pressure, kPa = 101
Property: Molality, mol/kg of 3,4,5-trihydroxybenzoic acid (Liquid); method: high-performance liquid chromatography
Temperature, K	Molality, mol/kg of 3,4,5-trihydroxybenzoic acid	uncertainty
293.15	0.0491	0.0049
298.15	0.054	0.0054
303.15	0.0571	0.0057
308.15	0.0587	0.0059
313.15	0.0636	0.0064
318.15	0.0668	0.0067

System: 3,4,5-trihydroxybenzoic acid + lithium chloride + water; phases: Liquid, Crystal
Fixed: Solvent: Molality, mol/kg of lithium chloride = 1
Fixed: Pressure, kPa = 101
Property: Molality, mol/kg of 3,4,5-trihydroxybenzoic acid (Liquid); method: high-performance liquid chromatography
Temperature, K	Molality, mol/kg of 3,4,5-trihydroxybenzoic acid	uncertainty
293.15	0.0301	0.003
298.15	0.0331	0.0033
303.15	0.0361	0.0036
308.15	0.0375	0.0038
313.15	0.0429	0.0043
318.15	0.0451	0.0045

System: 3,4-dihydroxybenzoic acid + potassium chloride + water; phases: Liquid, Crystal
Fixed: Solvent: Molality, mol/kg of potassium chloride = 1
Fixed: Pressure, kPa = 101
Property: Molality, mol/kg of 3,4-dihydroxybenzoic acid (Liquid); method: high-performance liquid chromatography
Temperature, K	Molality, mol/kg of 3,4-dihydroxybenzoic acid	uncertainty
293.15	0.101	0.0101
298.15	0.1069	0.0107
303.15	0.1101	0.011
308.15	0.1124	0.0112
313.15	0.118	0.0118
318.15	0.125	0.0125

System: 3,4-dihydroxybenzoic acid + sodium chloride + water; phases: Liquid, Crystal
Fixed: Solvent: Molality, mol/kg of sodium chloride = 1
Fixed: Pressure, kPa = 101
Property: Molality, mol/kg of 3,4-dihydroxybenzoic acid (Liquid); method: high-performance liquid chromatography
Temperature, K	Molality, mol/kg of 3,4-dihydroxybenzoic acid	uncertainty
293.15	0.0801	0.008
298.15	0.087	0.0087
303.15	0.0901	0.009
308.15	0.0936	0.0094
313.15	0.097	0.0097
318.15	0.1012	0.0101

System: 3,4-dihydroxybenzoic acid + lithium chloride + water; phases: Liquid, Crystal
Fixed: Solvent: Molality, mol/kg of lithium chloride = 1
Fixed: Pressure, kPa = 101
Property: Molality, mol/kg of 3,4-dihydroxybenzoic acid (Liquid); method: high-performance liquid chromatography
Temperature, K	Molality, mol/kg of 3,4-dihydroxybenzoic acid	uncertainty
293.15	0.072	0.0072
298.15	0.0771	0.0077
303.15	0.0811	0.0081
308.15	0.0861	0.0086
313.15	0.0908	0.0091
318.15	0.0947	0.0095

System: vanillin + potassium chloride + water; phases: Liquid, Crystal
Fixed: Solvent: Molality, mol/kg of potassium chloride = 1
Fixed: Pressure, kPa = 101
Property: Molality, mol/kg of vanillin (Liquid); method: high-performance liquid chromatography
Temperature, K	Molality, mol/kg of vanillin	uncertainty
293.15	0.0369	0.0037
298.15	0.0481	0.0048
303.15	0.0672	0.0068
308.15	0.0813	0.0082
313.15	0.0986	0.0099
318.15	0.1129	0.0113

System: vanillin + sodium chloride + water; phases: Liquid, Crystal
Fixed: Solvent: Molality, mol/kg of sodium chloride = 1
Fixed: Pressure, kPa = 101
Property: Molality, mol/kg of vanillin (Liquid); method: high-performance liquid chromatography
Temperature, K	Molality, mol/kg of vanillin	uncertainty
293.15	0.0331	0.0033
298.15	0.0445	0.0045
303.15	0.0614	0.0062
308.15	0.075	0.0075
313.15	0.0907	0.0091
318.15	0.1071	0.0107

System: vanillin + lithium chloride + water; phases: Liquid, Crystal
Fixed: Solvent: Molality, mol/kg of lithium chloride = 1
Fixed: Pressure, kPa = 101
Property: Molality, mol/kg of vanillin (Liquid); method: high-performance liquid chromatography
Temperature, K	Molality, mol/kg of vanillin	uncertainty
293.15	0.028	0.0029
298.15	0.0421	0.0042
303.15	0.056	0.0056
308.15	0.0692	0.0069
313.15	0.0845	0.0085
318.15	0.0994	0.01

System: 4-hydroxy-3-methoxybenzoic acid + potassium chloride + water; phases: Liquid, Crystal
Fixed: Solvent: Molality, mol/kg of potassium chloride = 1
Fixed: Pressure, kPa = 101
Property: Molality, mol/kg of 4-hydroxy-3-methoxybenzoic acid (Liquid); method: high-performance liquid chromatography
Temperature, K	Molality, mol/kg of 4-hydroxy-3-methoxybenzoic acid	uncertainty
293.15	0.0052	0.0005
298.15	0.0069	0.0007
303.15	0.0087	0.0009
308.15	0.0107	0.0011
313.15	0.0125	0.0013
318.15	0.0141	0.0014

System: 4-hydroxy-3-methoxybenzoic acid + sodium chloride + water; phases: Liquid, Crystal
Fixed: Solvent: Molality, mol/kg of sodium chloride = 1
Fixed: Pressure, kPa = 101
Property: Molality, mol/kg of 4-hydroxy-3-methoxybenzoic acid (Liquid); method: high-performance liquid chromatography
Temperature, K	Molality, mol/kg of 4-hydroxy-3-methoxybenzoic acid	uncertainty
293.15	0.0036	0.0004
298.15	0.0051	0.0005
303.15	0.0069	0.0007
308.15	0.0085	0.0009
313.15	0.0105	0.0011
318.15	0.0122	0.0012

System: 4-hydroxy-3-methoxybenzoic acid + lithium chloride + water; phases: Liquid, Crystal
Fixed: Solvent: Molality, mol/kg of lithium chloride = 1
Fixed: Pressure, kPa = 101
Property: Molality, mol/kg of 4-hydroxy-3-methoxybenzoic acid (Liquid); method: high-performance liquid chromatography
Temperature, K	Molality, mol/kg of 4-hydroxy-3-methoxybenzoic acid	uncertainty
293.15	0.0029	0.0003
298.15	0.0039	0.0004
303.15	0.0061	0.0006
308.15	0.0076	0.0008
313.15	0.0093	0.0009
318.15	0.011	0.0011
