Measured thermophysical data. Interactions of 1,2,3-trialkylimidazolium-based ionic liquids with .gamma.-butyrolactone
Source: J. Chem. Thermodyn., 2016, 10.1016/j.jct.2016.06.012
Compound 1: .gamma.-butyrolactone, C4H6O2, InChI=1S/C4H6O2/c5-4-2-1-3-6-4/h1-3H2, purity 99%
Compound 2: 1-ethyl-2,3-dimethylimidazolium bis[(trifluoromethyl)sulfonyl]imide, C9H13F6N3O4S2, InChI=1S/C7H13N2.C2F6NO4S2/c1-4-9-6-5-8(3)7(9)2;3-1(4,5)14(10,11)9-15(12,13)2(6,7)8/h5-6H,4H2,1-3H3;/q+1;-1, purity 99%
Compound 3: 1,2-dimethyl-3-propylimidazolium bis[(trifluoromethyl)sulfonyl]imide, C10H15F6N3O4S2, InChI=1S/C8H15N2.C2F6NO4S2/c1-4-5-10-7-6-9(3)8(10)2;3-1(4,5)14(10,11)9-15(12,13)2(6,7)8/h6-7H,4-5H2,1-3H3;/q+1;-1, purity 99%
Compound 4: 1-butyl-2,3-dimethyl-1H-imidazolium bis(trifluoromethylsulfonyl)amide, C11H17F6N3O4S2, InChI=1S/C9H17N2.C2F6NO4S2/c1-4-5-6-11-8-7-10(3)9(11)2;3-1(4,5)14(10,11)9-15(12,13)2(6,7)8/h7-8H,4-6H2,1-3H3;/q+1;-1, purity 99%

System: 1-ethyl-2,3-dimethylimidazolium bis[(trifluoromethyl)sulfonyl]imide; phases: Metastable liquid
Fixed: Pressure, kPa = 100
Property: Viscosity, Pa*s (Metastable liquid); method: Capillary tube (Ostwald; Ubbelohde) method
Temperature, K	Viscosity, Pa*s	uncertainty
293.15	0.08927	0.00201
298.15	0.07077	0.00151
303.15	0.05702	0.00118
308.15	0.0466	0.00098
313.15	0.03862	0.00081
318.15	0.03233	0.00068
323.15	0.02706	0.00057

System: 1-ethyl-2,3-dimethylimidazolium bis[(trifluoromethyl)sulfonyl]imide; phases: Metastable liquid
Fixed: Pressure, kPa = 100
Property: Mass density, kg/m3 (Metastable liquid); method: Vibrating tube method
Temperature, K	Mass density, kg/m3	uncertainty
293.15	1496.319	11.986
298.15	1491.469	11.947
303.15	1486.671	11.909
308.15	1481.872	11.87
313.15	1477.092	11.832
318.15	1472.322	11.793
323.15	1467.564	11.755

System: 1,2-dimethyl-3-propylimidazolium bis[(trifluoromethyl)sulfonyl]imide; phases: Liquid
Fixed: Pressure, kPa = 100
Property: Viscosity, Pa*s (Liquid); method: Capillary tube (Ostwald; Ubbelohde) method
Temperature, K	Viscosity, Pa*s	uncertainty
293.15	0.1217	0.003
298.15	0.0928	0.00212
303.15	0.0721	0.00155
308.15	0.05776	0.0012
313.15	0.04653	0.00098
318.15	0.0384	0.00081
323.15	0.03189	0.00067
303.15	0.0711	0.00152

System: 1,2-dimethyl-3-propylimidazolium bis[(trifluoromethyl)sulfonyl]imide; phases: Liquid
Fixed: Pressure, kPa = 100
Property: Mass density, kg/m3 (Liquid); method: Vibrating tube method
Temperature, K	Mass density, kg/m3	uncertainty
293.15	1459.14	11.687
298.15	1454.443	11.65
303.15	1449.719	11.612
308.15	1444.996	11.574
313.15	1440.279	11.536
318.15	1435.569	11.498
323.15	1430.87	11.46

System: 1-butyl-2,3-dimethyl-1H-imidazolium bis(trifluoromethylsulfonyl)amide; phases: Liquid
Fixed: Pressure, kPa = 100
Property: Viscosity, Pa*s (Liquid); method: Capillary tube (Ostwald; Ubbelohde) method
Temperature, K	Viscosity, Pa*s	uncertainty
293.15	0.13359	0.00344
298.15	0.10134	0.00238
303.15	0.07786	0.0017
308.15	0.06173	0.00129
313.15	0.04977	0.00104
318.15	0.0407	0.00085
323.15	0.03369	0.00071

System: 1-butyl-2,3-dimethyl-1H-imidazolium bis(trifluoromethylsulfonyl)amide; phases: Liquid
Fixed: Pressure, kPa = 100
Property: Mass density, kg/m3 (Liquid); method: Vibrating tube method
Temperature, K	Mass density, kg/m3	uncertainty
293.15	1423.718	11.403
298.15	1419.126	11.366
303.15	1414.517	11.329
308.15	1409.909	11.292
313.15	1405.309	11.255
318.15	1400.704	11.218
323.15	1396.131	11.181

System: .gamma.-butyrolactone + 1-ethyl-2,3-dimethylimidazolium bis[(trifluoromethyl)sulfonyl]imide; phases: Liquid
Fixed: Pressure, kPa = 100
Property: Viscosity, Pa*s (Liquid); method: Capillary tube (Ostwald; Ubbelohde) method
Temperature, K	Mole fraction of 1-ethyl-2,3-dimethylimidazolium bis[(trifluoromethyl)sulfonyl]imide	Viscosity, Pa*s	uncertainty
293.15	0	0.00186	4e-05
293.15	0.0493	0.00239	5e-05
293.15	0.1001	0.00316	7e-05
293.15	0.1526	0.00427	0.0001
293.15	0.2001	0.00528	0.00012
293.15	0.3001	0.00811	0.00018
293.15	0.4013	0.01259	0.00028
293.15	0.5004	0.01941	0.00043
293.15	0.5995	0.02923	0.00064
293.15	0.6929	0.04061	0.00088
293.15	0.814	0.0578	0.00122
293.15	0.9001	0.07136	0.00155
293.15	1	0.08927	0.00201
298.15	0	0.00171	4e-05
298.15	0.0493	0.0022	5e-05
298.15	0.1001	0.00288	7e-05
298.15	0.1526	0.00389	9e-05
298.15	0.2001	0.00475	0.00011
298.15	0.3001	0.00721	0.00016
298.15	0.4013	0.01079	0.00024
298.15	0.5004	0.01623	0.00035
298.15	0.5995	0.02373	0.00051
298.15	0.6929	0.03236	0.0007
298.15	0.814	0.04573	0.00098
298.15	0.9001	0.05603	0.00118
298.15	1	0.07077	0.00151
303.15	0	0.00158	3e-05
303.15	0.0493	0.00202	5e-05
303.15	0.1001	0.00264	6e-05
303.15	0.1526	0.00355	8e-05
303.15	0.2001	0.00431	0.0001
303.15	0.3001	0.00649	0.00014
303.15	0.4013	0.00966	0.00021
303.15	0.5004	0.01387	0.0003
303.15	0.5995	0.01969	0.00042
303.15	0.6929	0.02632	0.00057
303.15	0.814	0.03661	0.00078
303.15	0.9001	0.04512	0.00096
303.15	1	0.05702	0.00118
308.15	0	0.00147	3e-05
308.15	0.0493	0.00187	4e-05
308.15	0.1001	0.00242	6e-05
308.15	0.1526	0.00323	7e-05
308.15	0.2001	0.00392	9e-05
308.15	0.3001	0.00584	0.00013
308.15	0.4013	0.00844	0.00018
308.15	0.5004	0.01197	0.00026
308.15	0.5995	0.0167	0.00036
308.15	0.6929	0.02194	0.00047
308.15	0.814	0.03004	0.00064
308.15	0.9001	0.03672	0.00078
308.15	1	0.0466	0.00098
313.15	0	0.00137	3e-05
313.15	0.0493	0.00174	4e-05
313.15	0.1001	0.00224	5e-05
313.15	0.1526	0.00297	7e-05
313.15	0.2001	0.00359	8e-05
313.15	0.3001	0.00524	0.00011
313.15	0.4013	0.00744	0.00016
313.15	0.5004	0.01046	0.00023
313.15	0.5995	0.01419	0.0003
313.15	0.6929	0.01831	0.00039
313.15	0.814	0.02498	0.00053
313.15	0.9001	0.0303	0.00065
313.15	1	0.03862	0.00081
318.15	0	0.00128	3e-05
318.15	0.0493	0.00162	4e-05
318.15	0.1001	0.00207	5e-05
318.15	0.1526	0.00272	6e-05
318.15	0.2001	0.00327	7e-05
318.15	0.3001	0.0047	0.0001
318.15	0.4013	0.00663	0.00014
318.15	0.5004	0.00921	0.0002
318.15	0.5995	0.01226	0.00026
318.15	0.6929	0.0157	0.00034
318.15	0.814	0.02108	0.00045
318.15	0.9001	0.02554	0.00054
318.15	1	0.03233	0.00068
323.15	0	0.0012	3e-05
323.15	0.0493	0.00152	3e-05
323.15	0.1001	0.0019	4e-05
323.15	0.1526	0.0025	6e-05
323.15	0.2001	0.00302	7e-05
323.15	0.3001	0.00429	9e-05
323.15	0.4013	0.00605	0.00013
323.15	0.5004	0.00819	0.00018
323.15	0.5995	0.01068	0.00023
323.15	0.6929	0.01374	0.00029
323.15	0.814	0.01823	0.00039
323.15	0.9001	0.02194	0.00047
323.15	1	0.02706	0.00057

System: .gamma.-butyrolactone + 1-ethyl-2,3-dimethylimidazolium bis[(trifluoromethyl)sulfonyl]imide; phases: Liquid
Fixed: Pressure, kPa = 100
Property: Mass density, kg/m3 (Liquid); method: Vibrating tube method
Temperature, K	Mole fraction of 1-ethyl-2,3-dimethylimidazolium bis[(trifluoromethyl)sulfonyl]imide	Mass density, kg/m3	uncertainty
293.15	0	1129.493	9.041
293.15	0.0493	1186.33	9.62
293.15	0.1001	1232.87	9.95
293.15	0.1526	1271.98	10.24
293.15	0.2001	1301.42	10.45
293.15	0.3001	1350.26	10.83
293.15	0.4013	1387.19	11.12
293.15	0.5004	1415.28	11.34
293.15	0.5995	1437.76	11.52
293.15	0.6929	1455.24	11.66
293.15	0.814	1473.91	11.81
293.15	0.9001	1485.09	11.9
293.15	1	1496.319	11.986
298.15	0	1124.588	9.002
298.15	0.0493	1181.34	9.58
298.15	0.1001	1227.92	9.91
298.15	0.1526	1267.02	10.2
298.15	0.2001	1296.47	10.41
298.15	0.3001	1345.33	10.79
298.15	0.4013	1382.26	11.08
298.15	0.5004	1410.36	11.3
298.15	0.5995	1432.85	11.48
298.15	0.6929	1450.35	11.62
298.15	0.814	1469.03	11.77
298.15	0.9001	1480.21	11.86
298.15	1	1491.469	11.947
303.15	0	1119.684	8.962
303.15	0.0493	1176.42	9.54
303.15	0.1001	1222.97	9.87
303.15	0.1526	1262.07	10.16
303.15	0.2001	1291.53	10.37
303.15	0.3001	1340.4	10.75
303.15	0.4013	1377.35	11.04
303.15	0.5004	1405.48	11.26
303.15	0.5995	1427.99	11.44
303.15	0.6929	1445.51	11.58
303.15	0.814	1464.21	11.73
303.15	0.9001	1475.4	11.82
303.15	1	1486.671	11.909
308.15	0	1114.782	8.923
308.15	0.0493	1171.5	9.5
308.15	0.1001	1218.03	9.83
308.15	0.1526	1257.12	10.12
308.15	0.2001	1286.58	10.33
308.15	0.3001	1335.47	10.71
308.15	0.4013	1372.45	11
308.15	0.5004	1400.6	11.22
308.15	0.5995	1423.13	11.4
308.15	0.6929	1440.66	11.54
308.15	0.814	1459.39	11.69
308.15	0.9001	1470.6	11.78
308.15	1	1481.872	11.87
313.15	0	1109.874	8.884
313.15	0.0493	1166.58	9.47
313.15	0.1001	1213.09	9.79
313.15	0.1526	1252.18	10.08
313.15	0.2001	1281.64	10.29
313.15	0.3001	1330.56	10.67
313.15	0.4013	1367.56	10.96
313.15	0.5004	1395.73	11.18
313.15	0.5995	1418.28	11.36
313.15	0.6929	1435.84	11.5
313.15	0.814	1454.58	11.65
313.15	0.9001	1465.81	11.74
313.15	1	1477.092	11.832
318.15	0	1104.965	8.844
318.15	0.0493	1161.65	9.43
318.15	0.1001	1208.15	9.75
318.15	0.1526	1247.24	10.04
318.15	0.2001	1276.71	10.25
318.15	0.3001	1325.64	10.63
318.15	0.4013	1362.67	10.92
318.15	0.5004	1390.87	11.15
318.15	0.5995	1413.44	11.32
318.15	0.6929	1431.02	11.46
318.15	0.814	1449.79	11.61
318.15	0.9001	1461.03	11.7
318.15	1	1472.322	11.793
323.15	0	1100.053	8.805
323.15	0.0493	1156.72	9.39
323.15	0.1001	1203.21	9.71
323.15	0.1526	1242.31	10
323.15	0.2001	1271.78	10.21
323.15	0.3001	1320.73	10.6
323.15	0.4013	1357.79	10.88
323.15	0.5004	1386.01	11.11
323.15	0.5995	1408.61	11.29
323.15	0.6929	1426.21	11.43
323.15	0.814	1445.01	11.58
323.15	0.9001	1456.26	11.67
323.15	1	1467.564	11.755

System: .gamma.-butyrolactone + 1,2-dimethyl-3-propylimidazolium bis[(trifluoromethyl)sulfonyl]imide; phases: Liquid
Fixed: Pressure, kPa = 100
Property: Viscosity, Pa*s (Liquid); method: Capillary tube (Ostwald; Ubbelohde) method
Temperature, K	Mole fraction of 1,2-dimethyl-3-propylimidazolium bis[(trifluoromethyl)sulfonyl]imide	Viscosity, Pa*s	uncertainty
293.15	0	0.00186	4e-05
293.15	0.0505	0.00247	6e-05
293.15	0.1001	0.0034	8e-05
293.15	0.1492	0.00472	0.00011
293.15	0.1998	0.0062	0.00014
293.15	0.3008	0.00995	0.00022
293.15	0.4031	0.01594	0.00035
293.15	0.5048	0.02566	0.00057
293.15	0.6031	0.03898	0.00085
293.15	0.6973	0.05453	0.00116
293.15	0.7994	0.07449	0.00164
293.15	0.8711	0.08977	0.00206
293.15	1	0.1217	0.003
298.15	0	0.00171	4e-05
298.15	0.0505	0.00226	5e-05
298.15	0.1001	0.00307	7e-05
298.15	0.1492	0.00421	0.0001
298.15	0.1998	0.00544	0.00012
298.15	0.3008	0.00861	0.00019
298.15	0.4031	0.01323	0.00029
298.15	0.5048	0.02056	0.00045
298.15	0.6031	0.03047	0.00066
298.15	0.6973	0.04229	0.00091
298.15	0.7994	0.05735	0.00122
298.15	0.8711	0.06978	0.00151
298.15	1	0.0928	0.00212
303.15	0	0.00158	3e-05
303.15	0.0505	0.0021	5e-05
303.15	0.1001	0.00282	7e-05
303.15	0.1492	0.00378	9e-05
303.15	0.1998	0.00488	0.00011
303.15	0.3008	0.0076	0.00017
303.15	0.4031	0.01141	0.00025
303.15	0.5048	0.01718	0.00037
303.15	0.6031	0.0246	0.00053
303.15	0.6973	0.03328	0.00072
303.15	0.7994	0.0445	0.00095
303.15	0.8711	0.05492	0.00116
303.15	1	0.0721	0.00155
308.15	0	0.00147	3e-05
308.15	0.0505	0.00196	5e-05
308.15	0.1001	0.00256	6e-05
308.15	0.1492	0.00345	8e-05
308.15	0.1998	0.00442	0.0001
308.15	0.3008	0.00683	0.00015
308.15	0.4031	0.00999	0.00022
308.15	0.5048	0.01457	0.00032
308.15	0.6031	0.02033	0.00044
308.15	0.6973	0.02725	0.00058
308.15	0.7994	0.03598	0.00077
308.15	0.8711	0.04423	0.00094
308.15	1	0.05776	0.0012
313.15	0	0.00137	3e-05
313.15	0.0505	0.00182	4e-05
313.15	0.1001	0.00236	5e-05
313.15	0.1492	0.00318	7e-05
313.15	0.1998	0.00404	9e-05
313.15	0.3008	0.00609	0.00013
313.15	0.4031	0.00871	0.00019
313.15	0.5048	0.01255	0.00027
313.15	0.6031	0.01739	0.00037
313.15	0.6973	0.02252	0.00048
313.15	0.7994	0.03001	0.00064
313.15	0.8711	0.03605	0.00077
313.15	1	0.04653	0.00098
318.15	0	0.00128	3e-05
318.15	0.0505	0.00168	4e-05
318.15	0.1001	0.0022	5e-05
318.15	0.1492	0.00297	7e-05
318.15	0.1998	0.00373	8e-05
318.15	0.3008	0.0055	0.00012
318.15	0.4031	0.00779	0.00017
318.15	0.5048	0.01094	0.00024
318.15	0.6031	0.01501	0.00032
318.15	0.6973	0.01907	0.00041
318.15	0.7994	0.02495	0.00053
318.15	0.8711	0.02991	0.00064
318.15	1	0.0384	0.00081
323.15	0	0.0012	3e-05
323.15	0.0505	0.00158	4e-05
323.15	0.1001	0.00204	5e-05
323.15	0.1492	0.00273	6e-05
323.15	0.1998	0.00338	8e-05
323.15	0.3008	0.00493	0.00011
323.15	0.4031	0.0069	0.00015
323.15	0.5048	0.00956	0.00021
323.15	0.6031	0.01276	0.00027
323.15	0.6973	0.0164	0.00035
323.15	0.7994	0.02066	0.00044
323.15	0.8711	0.02469	0.00053
323.15	1	0.03189	0.00067

System: .gamma.-butyrolactone + 1,2-dimethyl-3-propylimidazolium bis[(trifluoromethyl)sulfonyl]imide; phases: Liquid
Fixed: Pressure, kPa = 100
Property: Mass density, kg/m3 (Liquid); method: Vibrating tube method
Temperature, K	Mole fraction of 1,2-dimethyl-3-propylimidazolium bis[(trifluoromethyl)sulfonyl]imide	Mass density, kg/m3	uncertainty
293.15	0	1129.493	9.041
293.15	0.0505	1184.15	9.59
293.15	0.1001	1226.3	9.89
293.15	0.1492	1259.98	10.13
293.15	0.1998	1288.55	10.34
293.15	0.3008	1332.65	10.69
293.15	0.4031	1365.48	10.94
293.15	0.5048	1390.46	11.14
293.15	0.6031	1409.62	11.29
293.15	0.6973	1424.67	11.41
293.15	0.7994	1438.25	11.52
293.15	0.8711	1446.46	11.59
293.15	1	1459.14	11.687
298.15	0	1124.588	9.002
298.15	0.0505	1179.18	9.55
298.15	0.1001	1221.4	9.85
298.15	0.1492	1255.08	10.09
298.15	0.1998	1283.68	10.3
298.15	0.3008	1327.83	10.65
298.15	0.4031	1360.68	10.9
298.15	0.5048	1385.67	11.1
298.15	0.6031	1404.85	11.25
298.15	0.6973	1419.93	11.37
298.15	0.7994	1433.53	11.48
298.15	0.8711	1441.74	11.55
298.15	1	1454.443	11.65
303.15	0	1119.684	8.962
303.15	0.0505	1174.28	9.51
303.15	0.1001	1216.49	9.81
303.15	0.1492	1250.18	10.05
303.15	0.1998	1278.79	10.26
303.15	0.3008	1322.96	10.61
303.15	0.4031	1355.84	10.87
303.15	0.5048	1380.86	11.06
303.15	0.6031	1400.07	11.22
303.15	0.6973	1415.16	11.34
303.15	0.7994	1428.78	11.45
303.15	0.8711	1437	11.51
303.15	1	1449.719	11.612
308.15	0	1114.782	8.923
308.15	0.0505	1169.38	9.47
308.15	0.1001	1211.58	9.77
308.15	0.1492	1245.28	10.01
308.15	0.1998	1273.9	10.22
308.15	0.3008	1318.1	10.57
308.15	0.4031	1351.01	10.83
308.15	0.5048	1376.06	11.03
308.15	0.6031	1395.28	11.18
308.15	0.6973	1410.4	11.3
308.15	0.7994	1424.03	11.41
308.15	0.8711	1432.26	11.47
308.15	1	1444.996	11.574
313.15	0	1109.874	8.884
313.15	0.0505	1164.47	9.43
313.15	0.1001	1206.67	9.73
313.15	0.1492	1240.38	9.97
313.15	0.1998	1269.01	10.19
313.15	0.3008	1313.24	10.53
313.15	0.4031	1346.18	10.79
313.15	0.5048	1371.25	10.99
313.15	0.6031	1390.5	11.14
313.15	0.6973	1405.64	11.26
313.15	0.7994	1419.29	11.37
313.15	0.8711	1427.53	11.43
313.15	1	1440.279	11.536
318.15	0	1104.965	8.844
318.15	0.0505	1159.57	9.4
318.15	0.1001	1201.76	9.69
318.15	0.1492	1235.48	9.94
318.15	0.1998	1264.13	10.15
318.15	0.3008	1308.38	10.49
318.15	0.4031	1341.35	10.75
318.15	0.5048	1366.46	10.95
318.15	0.6031	1385.73	11.1
318.15	0.6973	1400.88	11.22
318.15	0.7994	1414.55	11.33
318.15	0.8711	1422.81	11.4
318.15	1	1435.569	11.498
323.15	0	1100.053	8.805
323.15	0.0505	1154.66	9.36
323.15	0.1001	1196.85	9.65
323.15	0.1492	1230.58	9.9
323.15	0.1998	1259.24	10.11
323.15	0.3008	1303.52	10.45
323.15	0.4031	1336.53	10.71
323.15	0.5048	1361.66	10.91
323.15	0.6031	1380.96	11.06
323.15	0.6973	1396.13	11.18
323.15	0.7994	1409.83	11.29
323.15	0.8711	1418.1	11.36
323.15	1	1430.87	11.46

System: .gamma.-butyrolactone + 1-butyl-2,3-dimethyl-1H-imidazolium bis(trifluoromethylsulfonyl)amide; phases: Liquid
Fixed: Pressure, kPa = 100
Property: Viscosity, Pa*s (Liquid); method: Capillary tube (Ostwald; Ubbelohde) method
Temperature, K	Mole fraction of 1-butyl-2,3-dimethyl-1H-imidazolium bis(trifluoromethylsulfonyl)amide	Viscosity, Pa*s	uncertainty
293.15	0	0.00186	4e-05
293.15	0.0532	0.00262	6e-05
293.15	0.1004	0.00365	9e-05
293.15	0.1504	0.00495	0.00011
293.15	0.1999	0.00654	0.00015
293.15	0.2988	0.01079	0.00024
293.15	0.4006	0.01778	0.00039
293.15	0.5005	0.02666	0.00059
293.15	0.5999	0.04038	0.00088
293.15	0.7	0.05657	0.00121
293.15	0.8013	0.07917	0.00177
293.15	0.8986	0.10222	0.00244
293.15	1	0.13359	0.00344
298.15	0	0.00171	4e-05
298.15	0.0532	0.00243	6e-05
298.15	0.1004	0.00329	8e-05
298.15	0.1504	0.00448	0.0001
298.15	0.1999	0.00577	0.00013
298.15	0.2988	0.00932	0.00021
298.15	0.4006	0.01492	0.00033
298.15	0.5005	0.02202	0.00048
298.15	0.5999	0.03256	0.0007
298.15	0.7	0.04479	0.00096
298.15	0.8013	0.06093	0.0013
298.15	0.8986	0.07862	0.00175
298.15	1	0.10134	0.00238
303.15	0	0.00158	3e-05
303.15	0.0532	0.00223	5e-05
303.15	0.1004	0.00298	7e-05
303.15	0.1504	0.00401	9e-05
303.15	0.1999	0.00511	0.00012
303.15	0.2988	0.00806	0.00018
303.15	0.4006	0.01272	0.00028
303.15	0.5005	0.01827	0.0004
303.15	0.5999	0.02634	0.00057
303.15	0.7	0.0358	0.00077
303.15	0.8013	0.04832	0.00103
303.15	0.8986	0.06112	0.0013
303.15	1	0.07786	0.0017
308.15	0	0.00147	3e-05
308.15	0.0532	0.00205	5e-05
308.15	0.1004	0.00272	6e-05
308.15	0.1504	0.00365	8e-05
308.15	0.1999	0.00457	0.0001
308.15	0.2988	0.0071	0.00016
308.15	0.4006	0.01083	0.00024
308.15	0.5005	0.01554	0.00034
308.15	0.5999	0.0219	0.00047
308.15	0.7	0.02922	0.00063
308.15	0.8013	0.03919	0.00084
308.15	0.8986	0.04888	0.00104
308.15	1	0.06173	0.00129
313.15	0	0.00137	3e-05
313.15	0.0532	0.0019	4e-05
313.15	0.1004	0.00249	6e-05
313.15	0.1504	0.00328	7e-05
313.15	0.1999	0.00411	9e-05
313.15	0.2988	0.00629	0.00014
313.15	0.4006	0.0094	0.0002
313.15	0.5005	0.01332	0.00029
313.15	0.5999	0.01832	0.00039
313.15	0.7	0.02444	0.00052
313.15	0.8013	0.03214	0.00068
313.15	0.8986	0.03987	0.00085
313.15	1	0.04977	0.00104
318.15	0	0.00128	3e-05
318.15	0.0532	0.00174	4e-05
318.15	0.1004	0.0023	5e-05
318.15	0.1504	0.00306	7e-05
318.15	0.1999	0.00374	8e-05
318.15	0.2988	0.00563	0.00012
318.15	0.4006	0.00818	0.00018
318.15	0.5005	0.01152	0.00025
318.15	0.5999	0.01542	0.00033
318.15	0.7	0.02051	0.00044
318.15	0.8013	0.02678	0.00057
318.15	0.8986	0.0329	0.0007
318.15	1	0.0407	0.00085
323.15	0	0.0012	3e-05
323.15	0.0532	0.00163	4e-05
323.15	0.1004	0.00212	5e-05
323.15	0.1504	0.00272	6e-05
323.15	0.1999	0.00339	8e-05
323.15	0.2988	0.00503	0.00011
323.15	0.4006	0.00722	0.00016
323.15	0.5005	0.01006	0.00022
323.15	0.5999	0.01317	0.00028
323.15	0.7	0.01744	0.00037
323.15	0.8013	0.02239	0.00048
323.15	0.8986	0.02746	0.00058
323.15	1	0.03369	0.00071

System: .gamma.-butyrolactone + 1-butyl-2,3-dimethyl-1H-imidazolium bis(trifluoromethylsulfonyl)amide; phases: Liquid
Fixed: Pressure, kPa = 100
Property: Mass density, kg/m3 (Liquid); method: Vibrating tube method
Temperature, K	Mole fraction of 1-butyl-2,3-dimethyl-1H-imidazolium bis(trifluoromethylsulfonyl)amide	Mass density, kg/m3	uncertainty
293.15	0	1129.493	9.041
293.15	0.0532	1183	9.57
293.15	0.1004	1219.51	9.82
293.15	0.1504	1250.59	10.05
293.15	0.1999	1275.61	10.23
293.15	0.2988	1314.04	10.53
293.15	0.4006	1342.77	10.76
293.15	0.5005	1364.2	10.93
293.15	0.5999	1381	11.06
293.15	0.7	1394.71	11.17
293.15	0.8013	1406.18	11.26
293.15	0.8986	1415.43	11.34
293.15	1	1423.718	11.403
298.15	0	1124.588	9.002
298.15	0.0532	1178.1	9.53
298.15	0.1004	1214.61	9.78
298.15	0.1504	1245.77	10.01
298.15	0.1999	1270.81	10.19
298.15	0.2988	1309.26	10.5
298.15	0.4006	1338.05	10.72
298.15	0.5005	1359.5	10.89
298.15	0.5999	1376.34	11.02
298.15	0.7	1390.08	11.13
298.15	0.8013	1401.56	11.23
298.15	0.8986	1410.81	11.3
298.15	1	1419.126	11.366
303.15	0	1119.684	8.962
303.15	0.0532	1173.22	9.49
303.15	0.1004	1209.75	9.74
303.15	0.1504	1240.94	9.97
303.15	0.1999	1266	10.16
303.15	0.2988	1304.49	10.46
303.15	0.4006	1333.32	10.68
303.15	0.5005	1354.8	10.85
303.15	0.5999	1371.67	10.99
303.15	0.7	1385.42	11.1
303.15	0.8013	1396.93	11.19
303.15	0.8986	1406.19	11.26
303.15	1	1414.517	11.329
308.15	0	1114.782	8.923
308.15	0.0532	1168.35	9.45
308.15	0.1004	1204.91	9.7
308.15	0.1504	1236.11	9.93
308.15	0.1999	1261.18	10.12
308.15	0.2988	1299.72	10.42
308.15	0.4006	1328.58	10.65
308.15	0.5005	1350.1	10.82
308.15	0.5999	1366.99	10.95
308.15	0.7	1380.78	11.06
308.15	0.8013	1392.3	11.15
308.15	0.8986	1401.58	11.23
308.15	1	1409.909	11.292
313.15	0	1109.874	8.884
313.15	0.0532	1163.43	9.41
313.15	0.1004	1200.07	9.66
313.15	0.1504	1231.24	9.89
313.15	0.1999	1256.38	10.08
313.15	0.2988	1294.96	10.38
313.15	0.4006	1323.85	10.61
313.15	0.5005	1345.39	10.78
313.15	0.5999	1362.33	10.91
313.15	0.7	1376.14	11.02
313.15	0.8013	1387.67	11.11
313.15	0.8986	1396.98	11.19
313.15	1	1405.309	11.255
318.15	0	1104.965	8.844
318.15	0.0532	1158.58	9.37
318.15	0.1004	1195.18	9.62
318.15	0.1504	1226.41	9.86
318.15	0.1999	1251.54	10.04
318.15	0.2988	1290.17	10.34
318.15	0.4006	1319.11	10.57
318.15	0.5005	1340.7	10.74
318.15	0.5999	1357.64	10.87
318.15	0.7	1371.48	10.98
318.15	0.8013	1383.04	11.08
318.15	0.8986	1392.36	11.15
318.15	1	1400.704	11.218
323.15	0	1100.053	8.805
323.15	0.0532	1153.71	9.33
323.15	0.1004	1190.32	9.59
323.15	0.1504	1221.58	9.82
323.15	0.1999	1246.73	10
323.15	0.2988	1285.42	10.3
323.15	0.4006	1314.4	10.53
323.15	0.5005	1336.03	10.7
323.15	0.5999	1352.99	10.84
323.15	0.7	1366.86	10.95
323.15	0.8013	1378.44	11.04
323.15	0.8986	1387.78	11.11
323.15	1	1396.131	11.181
