Measured thermophysical data. Effect of fruit and milk sugars on solute-solvent interactions of diphenhydramine-hydrochloride drug in aqueous solutions in viewpoint of volumetric and transport properties
Source: J. Chem. Thermodyn., 2018, 10.1016/j.jct.2017.12.013
Compound 1: 2-diphenylmethoxy-N,N-dimethylethanamine hydrochloride, C17H22ClNO, InChI=1S/C17H21NO.ClH/c1-18(2)13-14-19-17(15-9-5-3-6-10-15)16-11-7-4-8-12-16;/h3-12,17H,13-14H2,1-2H3;1H, purity 99.4%
Compound 2: D-fructose, C6H12O6, InChI=1S/C6H12O6/c7-1-3(9)5(11)6(12)4(10)2-8/h3,5-9,11-12H,1-2H2/t3-,5-,6-/m1/s1, purity 99%
Compound 3: (+)-galactose, C6H12O6, InChI=1S/C6H12O6/c7-1-3(9)5(11)6(12)4(10)2-8/h1,3-6,8-12H,2H2/t3-,4+,5+,6-/m0/s1, purity 97%
Compound 4: 4-O-.beta.-D-galactopyranosyl-D-glucose, C12H22O11, InChI=1S/C12H22O11/c13-1-4(16)7(18)11(5(17)2-14)23-12-10(21)9(20)8(19)6(3-15)22-12/h1,4-12,14-21H,2-3H2/t4-,5+,6+,7+,8-,9-,10+,11+,12-/m0/s1, purity 99%
Compound 5: water, H2O, InChI=1S/H2O/h1H2

System: 2-diphenylmethoxy-N,N-dimethylethanamine hydrochloride + D-fructose + water; phases: Liquid
Fixed: Pressure, kPa = 85.7
Property: Mass density, kg/m3 (Liquid); method: Vibrating tube method
Temperature, K	Molality, mol/kg of 2-diphenylmethoxy-N,N-dimethylethanamine hydrochloride	Solvent: Molality, mol/kg of D-fructose	Mass density, kg/m3	uncertainty
288.15	0.0102	0	999.49	0.314
288.15	0.02022	0	999.881	0.314
288.15	0.03015	0	1000.272	0.315
288.15	0.04016	0	1000.668	0.316
288.15	0.05133	0	1001.102	0.317
288.15	0.05853	0	1001.382	0.317
288.15	0.06998	0	1001.821	0.319
288.15	0.07996	0	1002.203	0.32
288.15	0.09018	0	1002.592	0.322
288.15	0.10009	0	1002.965	0.323
288.15	0	0.05	1002.769	0.328
288.15	0.01025	0.05	1003.155	0.324
288.15	0.0201	0.05	1003.531	0.324
288.15	0.02992	0.05	1003.905	0.325
288.15	0.04085	0.05	1004.33	0.326
288.15	0.04986	0.05	1004.673	0.326
288.15	0.05996	0.05	1005.05	0.327
288.15	0.07001	0.05	1005.435	0.328
288.15	0.08009	0.05	1005.814	0.329
288.15	0.10106	0.05	1006.585	0.332
288.15	0.12002	0.05	1007.268	0.337
288.15	0	0.1	1006.98	0.357
288.15	0.0103	0.1	1007.306	0.353
288.15	0.02015	0.1	1007.645	0.352
288.15	0.03008	0.1	1008.024	0.353
288.15	0.04033	0.1	1008.433	0.353
288.15	0.05053	0.1	1008.827	0.354
288.15	0.05942	0.1	1009.155	0.355
288.15	0.06976	0.1	1009.538	0.356
288.15	0.08013	0.1	1009.918	0.358
288.15	0.09974	0.1	1010.624	0.36
288.15	0.1199	0.1	1011.351	0.36
288.15	0	0.15	1010.844	0.392
288.15	0.01181	0.15	1011.135	0.39
288.15	0.02152	0.15	1011.435	0.388
288.15	0.03036	0.15	1011.749	0.388
288.15	0.04097	0.15	1012.169	0.388
288.15	0.05001	0.15	1012.528	0.389
288.15	0.0619	0.15	1012.992	0.391
288.15	0.07066	0.15	1013.339	0.392
288.15	0.08035	0.15	1013.7	0.393
288.15	0.10017	0.15	1014.394	0.394
288.15	0.12003	0.15	1015.082	0.396
293.15	0.0102	0	998.589	0.314
293.15	0.02022	0	998.969	0.314
293.15	0.03015	0	999.348	0.315
293.15	0.04016	0	999.727	0.316
293.15	0.05133	0	1000.15	0.316
293.15	0.05853	0	1000.419	0.317
293.15	0.06998	0	1000.847	0.318
293.15	0.07996	0	1001.22	0.32
293.15	0.09018	0	1001.598	0.321
293.15	0.10009	0	1001.963	0.319
293.15	0	0.05	1001.858	0.327
293.15	0.01025	0.05	1002.235	0.323
293.15	0.0201	0.05	1002.594	0.323
293.15	0.02992	0.05	1002.965	0.324
293.15	0.04085	0.05	1003.373	0.325
293.15	0.04986	0.05	1003.706	0.325
293.15	0.05996	0.05	1004.078	0.326
293.15	0.07001	0.05	1004.443	0.327
293.15	0.08009	0.05	1004.814	0.329
293.15	0.10106	0.05	1005.57	0.331
293.15	0.12002	0.05	1006.25	0.332
293.15	0	0.1	1005.745	0.354
293.15	0.0103	0.1	1006.057	0.351
293.15	0.02015	0.1	1006.394	0.351
293.15	0.03008	0.1	1006.782	0.351
293.15	0.04033	0.1	1007.185	0.352
293.15	0.05053	0.1	1007.555	0.353
293.15	0.05942	0.1	1007.886	0.354
293.15	0.06976	0.1	1008.255	0.355
293.15	0.08013	0.1	1008.624	0.356
293.15	0.09974	0.1	1009.322	0.358
293.15	0.1199	0.1	1010.024	0.358
293.15	0	0.15	1009.726	0.394
293.15	0.01181	0.15	1010.009	0.392
293.15	0.02152	0.15	1010.311	0.391
293.15	0.03036	0.15	1010.655	0.39
293.15	0.04097	0.15	1011.066	0.39
293.15	0.05001	0.15	1011.416	0.392
293.15	0.0619	0.15	1011.869	0.392
293.15	0.07066	0.15	1012.172	0.394
293.15	0.08035	0.15	1012.52	0.395
293.15	0.10017	0.15	1013.217	0.396
293.15	0.12003	0.15	1013.896	0.394
298.15	0.0102	0	997.415	0.314
298.15	0.02022	0	997.78	0.315
298.15	0.03015	0	998.15	0.315
298.15	0.04016	0	998.524	0.316
298.15	0.05133	0	998.933	0.316
298.15	0.05853	0	999.199	0.317
298.15	0.06998	0	999.615	0.318
298.15	0.07996	0	999.973	0.319
298.15	0.09018	0	1000.34	0.321
298.15	0.10009	0	1000.698	0.317
298.15	0	0.05	1000.691	0.326
298.15	0.01025	0.05	1001.05	0.32
298.15	0.0201	0.05	1001.402	0.322
298.15	0.02992	0.05	1001.752	0.322
298.15	0.04085	0.05	1002.155	0.323
298.15	0.04986	0.05	1002.455	0.324
298.15	0.05996	0.05	1002.817	0.325
298.15	0.07001	0.05	1003.193	0.326
298.15	0.08009	0.05	1003.537	0.327
298.15	0.10106	0.05	1004.273	0.329
298.15	0.12002	0.05	1004.915	0.329
298.15	0	0.1	1004.034	0.351
298.15	0.0103	0.1	1004.313	0.349
298.15	0.02015	0.1	1004.65	0.349
298.15	0.03008	0.1	1005.001	0.349
298.15	0.04033	0.1	1005.36	0.35
298.15	0.05053	0.1	1005.718	0.351
298.15	0.05942	0.1	1006.049	0.352
298.15	0.06976	0.1	1006.434	0.353
298.15	0.08013	0.1	1006.798	0.353
298.15	0.09974	0.1	1007.455	0.356
298.15	0.1199	0.1	1008.143	0.367
298.15	0	0.15	1008.415	0.405
298.15	0.01181	0.15	1008.662	0.405
298.15	0.02152	0.15	1008.967	0.403
298.15	0.03036	0.15	1009.276	0.403
298.15	0.04097	0.15	1009.659	0.404
298.15	0.05001	0.15	1009.962	0.405
298.15	0.0619	0.15	1010.382	0.406
298.15	0.07066	0.15	1010.721	0.406
298.15	0.08035	0.15	1011.065	0.407
298.15	0.10017	0.15	1011.719	0.408
298.15	0.12003	0.15	1012.36	0.405
308.15	0.0102	0	994.384	0.315
308.15	0.02022	0	994.74	0.31
308.15	0.03015	0	995.091	0.315
308.15	0.04016	0	995.442	0.316
308.15	0.05133	0	995.831	0.316
308.15	0.05853	0	996.081	0.318
308.15	0.06998	0	996.479	0.318
308.15	0.07996	0	996.823	0.319
308.15	0.09018	0	997.173	0.32
308.15	0.10009	0	997.513	0.314
308.15	0	0.05	997.612	0.327
308.15	0.01025	0.05	997.951	0.321
308.15	0.0201	0.05	998.297	0.322
308.15	0.02992	0.05	998.641	0.322
308.15	0.04085	0.05	999.02	0.322
308.15	0.04986	0.05	999.325	0.323
308.15	0.05996	0.05	999.667	0.324
308.15	0.07001	0.05	1000.01	0.325
308.15	0.08009	0.05	1000.35	0.327
308.15	0.10106	0.05	1001.043	0.328
308.15	0.12002	0.05	1001.681	0.325
308.15	0	0.1	1000.885	0.348
308.15	0.0103	0.1	1001.125	0.345
308.15	0.02015	0.1	1001.437	0.345
308.15	0.03008	0.1	1001.822	0.346
308.15	0.04033	0.1	1002.173	0.346
308.15	0.05053	0.1	1002.552	0.347
308.15	0.05942	0.1	1002.84	0.349
308.15	0.06976	0.1	1003.209	0.349
308.15	0.08013	0.1	1003.541	0.35
308.15	0.09974	0.1	1004.187	0.352
308.15	0.1199	0.1	1004.848	0.353
308.15	0	0.15	1004.981	0.388
308.15	0.01181	0.15	1005.148	0.389
308.15	0.02152	0.15	1005.451	0.387
308.15	0.03036	0.15	1005.757	0.386
308.15	0.04097	0.15	1006.128	0.387
308.15	0.05001	0.15	1006.448	0.387
308.15	0.0619	0.15	1006.877	0.388
308.15	0.07066	0.15	1007.197	0.389
308.15	0.08035	0.15	1007.506	0.39
308.15	0.10017	0.15	1008.113	0.389
308.15	0.12003	0.15	1008.721	0.378
318.15	0.0102	0	990.561	0.315
318.15	0.02022	0	990.892	0.315
318.15	0.03015	0	991.213	0.315
318.15	0.04016	0	991.538	0.316
318.15	0.05133	0	991.898	0.316
318.15	0.05853	0	992.131	0.317
318.15	0.06998	0	992.506	0.318
318.15	0.07996	0	992.828	0.319
318.15	0.09018	0	993.165	0.32
318.15	0.10009	0	993.48	0.321
318.15	0	0.05	993.835	0.322
318.15	0.01025	0.05	994.138	0.322
318.15	0.0201	0.05	994.435	0.322
318.15	0.02992	0.05	994.742	0.322
318.15	0.04085	0.05	995.093	0.323
318.15	0.04986	0.05	995.39	0.323
318.15	0.05996	0.05	995.712	0.324
318.15	0.07001	0.05	996.037	0.325
318.15	0.08009	0.05	996.364	0.326
318.15	0.10106	0.05	997.001	0.327
318.15	0.12002	0.05	997.602	0.329
318.15	0	0.1	997.071	0.564
318.15	0.0103	0.1	997.275	0.339
318.15	0.02015	0.1	997.596	0.339
318.15	0.03008	0.1	997.913	0.339
318.15	0.04033	0.1	998.23	0.34
318.15	0.05053	0.1	998.571	0.341
318.15	0.05942	0.1	998.843	0.341
318.15	0.06976	0.1	999.183	0.342
318.15	0.08013	0.1	999.495	0.342
318.15	0.09974	0.1	1000.101	0.344
318.15	0.1199	0.1	1000.72	0.346
318.15	0	0.15	1000.355	0.371
318.15	0.01181	0.15	1000.512	0.37
318.15	0.02152	0.15	1000.798	0.368
318.15	0.03036	0.15	1001.098	0.368
318.15	0.04097	0.15	1001.459	0.369
318.15	0.05001	0.15	1001.756	0.369
318.15	0.0619	0.15	1002.099	0.37
318.15	0.07066	0.15	1002.405	0.37
318.15	0.08035	0.15	1002.686	0.371
318.15	0.10017	0.15	1003.286	0.372
318.15	0.12003	0.15	1003.851	0.373

System: 2-diphenylmethoxy-N,N-dimethylethanamine hydrochloride + D-fructose + water; phases: Liquid
Fixed: Pressure, kPa = 85.7
Fixed: Frequency, MHz = 3
Property: Speed of sound, m/s (Liquid); method: Single path-length method
Temperature, K	Molality, mol/kg of 2-diphenylmethoxy-N,N-dimethylethanamine hydrochloride	Solvent: Molality, mol/kg of D-fructose	Speed of sound, m/s	uncertainty
288.15	0.0102	0	1468.67	1.17
288.15	0.02022	0	1470.8	1.17
288.15	0.03015	0	1472.88	1.18
288.15	0.04016	0	1474.97	1.18
288.15	0.05133	0	1477.17	1.19
288.15	0.05853	0	1478.61	1.19
288.15	0.06998	0	1480.93	1.2
288.15	0.07996	0	1482.65	1.21
288.15	0.09018	0	1484.66	1.22
288.15	0.10009	0	1486.46	1.22
288.15	0	0.05	1470.38	1.17
288.15	0.01025	0.05	1472.52	1.17
288.15	0.0201	0.05	1474.62	1.17
288.15	0.02992	0.05	1476.71	1.18
288.15	0.04085	0.05	1478.98	1.18
288.15	0.04986	0.05	1480.75	1.19
288.15	0.05996	0.05	1482.72	1.2
288.15	0.07001	0.05	1484.76	1.2
288.15	0.08009	0.05	1486.61	1.21
288.15	0.10106	0.05	1490.44	1.23
288.15	0.12002	0.05	1493.95	1.25
288.15	0	0.1	1473.8	1.18
288.15	0.0103	0.1	1475.99	1.18
288.15	0.02015	0.1	1478.08	1.18
288.15	0.03008	0.1	1480.16	1.18
288.15	0.04033	0.1	1482.26	1.19
288.15	0.05053	0.1	1484.29	1.19
288.15	0.05942	0.1	1486.01	1.2
288.15	0.06976	0.1	1488.01	1.21
288.15	0.08013	0.1	1489.96	1.21
288.15	0.09974	0.1	1493.6	1.23
288.15	0.1199	0.1	1497.37	1.26
288.15	0	0.15	1477.31	1.19
288.15	0.01181	0.15	1479.88	1.19
288.15	0.02152	0.15	1481.97	1.19
288.15	0.03036	0.15	1483.81	1.19
288.15	0.04097	0.15	1485.95	1.2
288.15	0.05001	0.15	1487.73	1.2
288.15	0.0619	0.15	1490.08	1.21
288.15	0.07066	0.15	1491.74	1.22
288.15	0.08035	0.15	1493.61	1.23
288.15	0.10017	0.15	1497.35	1.24
288.15	0.12003	0.15	1500.9	1.26
293.15	0.0102	0	1484.62	1.17
293.15	0.02022	0	1486.62	1.17
293.15	0.03015	0	1488.56	1.17
293.15	0.04016	0	1490.48	1.18
293.15	0.05133	0	1492.58	1.18
293.15	0.05853	0	1493.89	1.19
293.15	0.06998	0	1495.97	1.19
293.15	0.07996	0	1497.74	1.2
293.15	0.09018	0	1499.51	1.21
293.15	0.10009	0	1501.22	1.19
293.15	0	0.05	1486.37	1.17
293.15	0.01025	0.05	1488.34	1.17
293.15	0.0201	0.05	1490.26	1.17
293.15	0.02992	0.05	1492.18	1.18
293.15	0.04085	0.05	1494.28	1.18
293.15	0.04986	0.05	1495.97	1.19
293.15	0.05996	0.05	1497.82	1.19
293.15	0.07001	0.05	1499.69	1.2
293.15	0.08009	0.05	1501.44	1.2
293.15	0.10106	0.05	1504.96	1.22
293.15	0.12002	0.05	1507.92	1.22
293.15	0	0.1	1489.52	1.18
293.15	0.0103	0.1	1491.58	1.18
293.15	0.02015	0.1	1493.52	1.18
293.15	0.03008	0.1	1495.45	1.18
293.15	0.04033	0.1	1497.39	1.19
293.15	0.05053	0.1	1499.3	1.19
293.15	0.05942	0.1	1500.89	1.2
293.15	0.06976	0.1	1502.76	1.2
293.15	0.08013	0.1	1504.56	1.21
293.15	0.09974	0.1	1507.84	1.22
293.15	0.1199	0.1	1511.04	1.23
293.15	0	0.15	1492.74	1.18
293.15	0.01181	0.15	1495.16	1.18
293.15	0.02152	0.15	1497.17	1.19
293.15	0.03036	0.15	1498.94	1.19
293.15	0.04097	0.15	1500.94	1.19
293.15	0.05001	0.15	1502.59	1.2
293.15	0.0619	0.15	1504.74	1.2
293.15	0.07066	0.15	1506.32	1.21
293.15	0.08035	0.15	1508.01	1.22
293.15	0.10017	0.15	1511.33	1.23
293.15	0.12003	0.15	1514.51	1.22
298.15	0.0102	0	1498.72	1.17
298.15	0.02022	0	1500.49	1.17
298.15	0.03015	0	1502.23	1.17
298.15	0.04016	0	1504.03	1.18
298.15	0.05133	0	1505.98	1.18
298.15	0.05853	0	1507.19	1.19
298.15	0.06998	0	1509.16	1.19
298.15	0.07996	0	1510.78	1.2
298.15	0.09018	0	1512.44	1.2
298.15	0.10009	0	1513.95	1.17
298.15	0	0.05	1500.38	1.17
298.15	0.01025	0.05	1502.13	1.17
298.15	0.0201	0.05	1503.88	1.17
298.15	0.02992	0.05	1505.64	1.18
298.15	0.04085	0.05	1507.58	1.18
298.15	0.04986	0.05	1509.18	1.18
298.15	0.05996	0.05	1510.95	1.19
298.15	0.07001	0.05	1512.65	1.19
298.15	0.08009	0.05	1514.26	1.2
298.15	0.10106	0.05	1517.63	1.21
298.15	0.12002	0.05	1520.72	1.19
298.15	0	0.1	1503.48	1.17
298.15	0.0103	0.1	1505.32	1.18
298.15	0.02015	0.1	1507.13	1.18
298.15	0.03008	0.1	1508.91	1.18
298.15	0.04033	0.1	1510.72	1.18
298.15	0.05053	0.1	1512.52	1.19
298.15	0.05942	0.1	1513.99	1.19
298.15	0.06976	0.1	1515.7	1.2
298.15	0.08013	0.1	1517.45	1.21
298.15	0.09974	0.1	1520.69	1.22
298.15	0.1199	0.1	1523.85	1.2
298.15	0	0.15	1506.3	1.17
298.15	0.01181	0.15	1508.48	1.18
298.15	0.02152	0.15	1510.31	1.18
298.15	0.03036	0.15	1511.92	1.18
298.15	0.04097	0.15	1513.77	1.18
298.15	0.05001	0.15	1515.34	1.19
298.15	0.0619	0.15	1517.36	1.19
298.15	0.07066	0.15	1518.75	1.2
298.15	0.08035	0.15	1520.26	1.21
298.15	0.10017	0.15	1523.36	1.21
298.15	0.12003	0.15	1526.32	1.2
308.15	0.0102	0	1520.98	1.17
308.15	0.02022	0	1522.58	1.17
308.15	0.03015	0	1524.16	1.17
308.15	0.04016	0	1525.72	1.17
308.15	0.05133	0	1527.38	1.17
308.15	0.05853	0	1528.46	1.19
308.15	0.06998	0	1530.07	1.18
308.15	0.07996	0	1531.5	1.19
308.15	0.09018	0	1532.86	1.19
308.15	0.10009	0	1534.22	1.17
308.15	0	0.05	1522.67	1.17
308.15	0.01025	0.05	1524.22	1.17
308.15	0.0201	0.05	1525.8	1.17
308.15	0.02992	0.05	1527.35	1.17
308.15	0.04085	0.05	1529.06	1.17
308.15	0.04986	0.05	1530.43	1.18
308.15	0.05996	0.05	1531.92	1.18
308.15	0.07001	0.05	1533.41	1.19
308.15	0.08009	0.05	1534.83	1.2
308.15	0.10106	0.05	1537.7	1.2
308.15	0.12002	0.05	1540.18	1.17
308.15	0	0.1	1525.32	1.17
308.15	0.0103	0.1	1526.99	1.17
308.15	0.02015	0.1	1528.59	1.18
308.15	0.03008	0.1	1530.09	1.18
308.15	0.04033	0.1	1531.69	1.18
308.15	0.05053	0.1	1533.23	1.18
308.15	0.05942	0.1	1534.61	1.19
308.15	0.06976	0.1	1536.09	1.19
308.15	0.08013	0.1	1537.59	1.2
308.15	0.09974	0.1	1540.23	1.2
308.15	0.1199	0.1	1542.84	1.19
308.15	0	0.15	1528.23	1.17
308.15	0.01181	0.15	1530.14	1.17
308.15	0.02152	0.15	1531.67	1.17
308.15	0.03036	0.15	1533.1	1.18
308.15	0.04097	0.15	1534.7	1.18
308.15	0.05001	0.15	1536.03	1.18
308.15	0.0619	0.15	1537.75	1.18
308.15	0.07066	0.15	1539.01	1.19
308.15	0.08035	0.15	1540.42	1.2
308.15	0.10017	0.15	1543.29	1.21
308.15	0.12003	0.15	1546.05	1.17
318.15	0.0102	0	1537.3	1.17
318.15	0.02022	0	1538.58	1.17
318.15	0.03015	0	1539.89	1.17
318.15	0.04016	0	1541.25	1.17
318.15	0.05133	0	1542.69	1.18
318.15	0.05853	0	1543.65	1.18
318.15	0.06998	0	1545.13	1.18
318.15	0.07996	0	1546.37	1.18
318.15	0.09018	0	1547.58	1.19
318.15	0.10009	0	1548.8	1.19
318.15	0	0.05	1538.7	1.17
318.15	0.01025	0.05	1539.98	1.17
318.15	0.0201	0.05	1541.28	1.17
318.15	0.02992	0.05	1542.58	1.17
318.15	0.04085	0.05	1544.05	1.17
318.15	0.04986	0.05	1545.21	1.18
318.15	0.05996	0.05	1546.57	1.18
318.15	0.07001	0.05	1547.82	1.18
318.15	0.08009	0.05	1549.1	1.19
318.15	0.10106	0.05	1551.69	1.2
318.15	0.12002	0.05	1554.02	1.21
318.15	0	0.1	1541.11	1.17
318.15	0.0103	0.1	1542.53	1.17
318.15	0.02015	0.1	1543.8	1.17
318.15	0.03008	0.1	1545.08	1.18
318.15	0.04033	0.1	1546.44	1.18
318.15	0.05053	0.1	1547.78	1.18
318.15	0.05942	0.1	1548.95	1.18
318.15	0.06976	0.1	1550.23	1.19
318.15	0.08013	0.1	1551.53	1.19
318.15	0.09974	0.1	1553.84	1.2
318.15	0.1199	0.1	1556.36	1.22
318.15	0	0.15	1543.92	1.18
318.15	0.01181	0.15	1545.44	1.18
318.15	0.02152	0.15	1546.85	1.18
318.15	0.03036	0.15	1548.05	1.18
318.15	0.04097	0.15	1549.42	1.19
318.15	0.05001	0.15	1550.57	1.19
318.15	0.0619	0.15	1552.09	1.19
318.15	0.07066	0.15	1553.16	1.19
318.15	0.08035	0.15	1554.39	1.2
318.15	0.10017	0.15	1556.73	1.21
318.15	0.12003	0.15	1559.24	1.22

System: 2-diphenylmethoxy-N,N-dimethylethanamine hydrochloride + D-fructose + water; phases: Liquid
Fixed: Pressure, kPa = 85.7
Property: Viscosity, Pa*s (Liquid); method: Falling or rolling sphere viscometry
Temperature, K	Molality, mol/kg of 2-diphenylmethoxy-N,N-dimethylethanamine hydrochloride	Solvent: Molality, mol/kg of D-fructose	Viscosity, Pa*s	uncertainty
288.15	0.0102	0	0.00115	1.5e-05
288.15	0.02022	0	0.001162	1.5e-05
288.15	0.03015	0	0.001171	1.5e-05
288.15	0.04016	0	0.001181	1.5e-05
288.15	0.05133	0	0.001191	1.5e-05
288.15	0.05853	0	0.001199	1.5e-05
288.15	0.06998	0	0.00121	1.5e-05
288.15	0.07996	0	0.001222	1.5e-05
288.15	0.09018	0	0.001232	1.5e-05
288.15	0.10009	0	0.00124	1.5e-05
288.15	0	0.05	0.00116	1.5e-05
288.15	0.01025	0.05	0.001173	1.5e-05
288.15	0.0201	0.05	0.001189	1.5e-05
288.15	0.02992	0.05	0.001198	1.5e-05
288.15	0.04085	0.05	0.001212	1.5e-05
288.15	0.04986	0.05	0.001223	1.5e-05
288.15	0.05996	0.05	0.001232	1.5e-05
288.15	0.07001	0.05	0.00124	1.5e-05
288.15	0.08009	0.05	0.001252	1.6e-05
288.15	0.10106	0.05	0.00127	1.6e-05
288.15	0.12002	0.05	0.001285	1.6e-05
288.15	0	0.1	0.001205	1.5e-05
288.15	0.0103	0.1	0.001217	1.5e-05
288.15	0.02015	0.1	0.001224	1.5e-05
288.15	0.03008	0.1	0.001235	1.5e-05
288.15	0.04033	0.1	0.001248	1.6e-05
288.15	0.05053	0.1	0.001262	1.6e-05
288.15	0.05942	0.1	0.001271	1.6e-05
288.15	0.06976	0.1	0.001277	1.6e-05
288.15	0.08013	0.1	0.00129	1.6e-05
288.15	0.09974	0.1	0.001308	1.6e-05
288.15	0.1199	0.1	0.001325	1.6e-05
288.15	0	0.15	0.001225	1.5e-05
288.15	0.01181	0.15	0.001241	1.5e-05
288.15	0.02152	0.15	0.00125	1.6e-05
288.15	0.03036	0.15	0.00126	1.6e-05
288.15	0.04097	0.15	0.001271	1.6e-05
288.15	0.05001	0.15	0.001283	1.6e-05
288.15	0.0619	0.15	0.001294	1.6e-05
288.15	0.07066	0.15	0.001304	1.6e-05
288.15	0.08035	0.15	0.001314	1.6e-05
288.15	0.10017	0.15	0.001334	1.6e-05
288.15	0.12003	0.15	0.001353	1.6e-05
293.15	0.0102	0	0.001012	1.4e-05
293.15	0.02022	0	0.001023	1.4e-05
293.15	0.03015	0	0.001031	1.4e-05
293.15	0.04016	0	0.001039	1.4e-05
293.15	0.05133	0	0.001046	1.5e-05
293.15	0.05853	0	0.001054	1.5e-05
293.15	0.06998	0	0.001063	1.5e-05
293.15	0.07996	0	0.001073	1.5e-05
293.15	0.09018	0	0.001084	1.5e-05
293.15	0.10009	0	0.001089	1.5e-05
293.15	0	0.05	0.001029	1.4e-05
293.15	0.01025	0.05	0.00104	1.4e-05
293.15	0.0201	0.05	0.001052	1.5e-05
293.15	0.02992	0.05	0.001063	1.5e-05
293.15	0.04085	0.05	0.001073	1.5e-05
293.15	0.04986	0.05	0.001078	1.5e-05
293.15	0.05996	0.05	0.001086	1.5e-05
293.15	0.07001	0.05	0.001097	1.5e-05
293.15	0.08009	0.05	0.001104	1.5e-05
293.15	0.10106	0.05	0.001116	1.5e-05
293.15	0.12002	0.05	0.001127	1.5e-05
293.15	0	0.1	0.001052	1.5e-05
293.15	0.0103	0.1	0.001064	1.5e-05
293.15	0.02015	0.1	0.001074	1.5e-05
293.15	0.03008	0.1	0.001086	1.5e-05
293.15	0.04033	0.1	0.001093	1.5e-05
293.15	0.05053	0.1	0.001102	1.5e-05
293.15	0.05942	0.1	0.00111	1.5e-05
293.15	0.06976	0.1	0.001121	1.5e-05
293.15	0.08013	0.1	0.001132	1.5e-05
293.15	0.09974	0.1	0.001153	1.5e-05
293.15	0.1199	0.1	0.00117	1.5e-05
293.15	0	0.15	0.001083	1.5e-05
293.15	0.01181	0.15	0.001094	1.5e-05
293.15	0.02152	0.15	0.001101	1.5e-05
293.15	0.03036	0.15	0.001108	1.5e-05
293.15	0.04097	0.15	0.001116	1.5e-05
293.15	0.05001	0.15	0.001126	1.5e-05
293.15	0.0619	0.15	0.001135	1.5e-05
293.15	0.07066	0.15	0.001145	1.5e-05
293.15	0.08035	0.15	0.001152	1.5e-05
293.15	0.10017	0.15	0.001168	1.5e-05
293.15	0.12003	0.15	0.001185	1.6e-05
298.15	0.0102	0	0.0009	1.4e-05
298.15	0.02022	0	0.000909	1.4e-05
298.15	0.03015	0	0.000919	1.4e-05
298.15	0.04016	0	0.000927	1.4e-05
298.15	0.05133	0	0.000934	1.4e-05
298.15	0.05853	0	0.000939	1.4e-05
298.15	0.06998	0	0.000949	1.4e-05
298.15	0.07996	0	0.000957	1.4e-05
298.15	0.09018	0	0.000965	1.4e-05
298.15	0.10009	0	0.00097	1.5e-05
298.15	0	0.05	0.000912	1.4e-05
298.15	0.01025	0.05	0.000923	1.4e-05
298.15	0.0201	0.05	0.00093	1.4e-05
298.15	0.02992	0.05	0.000942	1.4e-05
298.15	0.04085	0.05	0.00095	1.4e-05
298.15	0.04986	0.05	0.000955	1.4e-05
298.15	0.05996	0.05	0.00096	1.4e-05
298.15	0.07001	0.05	0.000965	1.4e-05
298.15	0.08009	0.05	0.000973	1.4e-05
298.15	0.10106	0.05	0.000984	1.4e-05
298.15	0.12002	0.05	0.000993	1.5e-05
298.15	0	0.1	0.000939	1.4e-05
298.15	0.0103	0.1	0.000948	1.4e-05
298.15	0.02015	0.1	0.000955	1.4e-05
298.15	0.03008	0.1	0.000961	1.4e-05
298.15	0.04033	0.1	0.00097	1.4e-05
298.15	0.05053	0.1	0.000978	1.4e-05
298.15	0.05942	0.1	0.000985	1.4e-05
298.15	0.06976	0.1	0.000993	1.4e-05
298.15	0.08013	0.1	0.001001	1.4e-05
298.15	0.09974	0.1	0.001016	1.4e-05
298.15	0.1199	0.1	0.001029	1.5e-05
298.15	0	0.15	0.000958	1.4e-05
298.15	0.01181	0.15	0.000971	1.4e-05
298.15	0.02152	0.15	0.000978	1.4e-05
298.15	0.03036	0.15	0.000986	1.4e-05
298.15	0.04097	0.15	0.000994	1.4e-05
298.15	0.05001	0.15	0.000999	1.4e-05
298.15	0.0619	0.15	0.001007	1.4e-05
298.15	0.07066	0.15	0.001015	1.4e-05
298.15	0.08035	0.15	0.001021	1.5e-05
298.15	0.10017	0.15	0.001034	1.5e-05
298.15	0.12003	0.15	0.001045	1.5e-05
308.15	0.0102	0	0.000732	1.3e-05
308.15	0.02022	0	0.000739	1.3e-05
308.15	0.03015	0	0.000744	1.3e-05
308.15	0.04016	0	0.000749	1.3e-05
308.15	0.05133	0	0.000754	1.3e-05
308.15	0.05853	0	0.000758	1.3e-05
308.15	0.06998	0	0.000765	1.3e-05
308.15	0.07996	0	0.000773	1.3e-05
308.15	0.09018	0	0.00078	1.4e-05
308.15	0.10009	0	0.000788	1.5e-05
308.15	0	0.05	0.000743	1.3e-05
308.15	0.01025	0.05	0.00075	1.3e-05
308.15	0.0201	0.05	0.000757	1.3e-05
308.15	0.02992	0.05	0.000763	1.3e-05
308.15	0.04085	0.05	0.00077	1.3e-05
308.15	0.04986	0.05	0.000775	1.3e-05
308.15	0.05996	0.05	0.000781	1.3e-05
308.15	0.07001	0.05	0.000785	1.3e-05
308.15	0.08009	0.05	0.00079	1.4e-05
308.15	0.10106	0.05	0.0008	1.4e-05
308.15	0.12002	0.05	0.000808	1.4e-05
308.15	0	0.1	0.000755	1.3e-05
308.15	0.0103	0.1	0.000763	1.3e-05
308.15	0.02015	0.1	0.000769	1.3e-05
308.15	0.03008	0.1	0.000776	1.3e-05
308.15	0.04033	0.1	0.000782	1.3e-05
308.15	0.05053	0.1	0.000787	1.4e-05
308.15	0.05942	0.1	0.000792	1.4e-05
308.15	0.06976	0.1	0.000799	1.4e-05
308.15	0.08013	0.1	0.000806	1.4e-05
308.15	0.09974	0.1	0.000819	1.4e-05
308.15	0.1199	0.1	0.000831	1.4e-05
308.15	0	0.15	0.000775	1.4e-05
308.15	0.01181	0.15	0.000781	1.4e-05
308.15	0.02152	0.15	0.000784	1.4e-05
308.15	0.03036	0.15	0.00079	1.4e-05
308.15	0.04097	0.15	0.000794	1.4e-05
308.15	0.05001	0.15	0.000799	1.4e-05
308.15	0.0619	0.15	0.000806	1.4e-05
308.15	0.07066	0.15	0.000811	1.4e-05
308.15	0.08035	0.15	0.000817	1.4e-05
308.15	0.10017	0.15	0.000828	1.4e-05
308.15	0.12003	0.15	0.000839	1.5e-05
318.15	0.0102	0	0.000609	1.3e-05
318.15	0.02022	0	0.000619	1.3e-05
318.15	0.03015	0	0.000626	1.3e-05
318.15	0.04016	0	0.000635	1.3e-05
318.15	0.05133	0	0.00064	1.3e-05
318.15	0.05853	0	0.000645	1.3e-05
318.15	0.06998	0	0.000654	1.3e-05
318.15	0.07996	0	0.00066	1.3e-05
318.15	0.09018	0	0.000666	1.3e-05
318.15	0.10009	0	0.000674	1.3e-05
318.15	0	0.05	0.000622	1.3e-05
318.15	0.01025	0.05	0.000631	1.3e-05
318.15	0.0201	0.05	0.000636	1.3e-05
318.15	0.02992	0.05	0.000644	1.3e-05
318.15	0.04085	0.05	0.00065	1.3e-05
318.15	0.04986	0.05	0.000653	1.3e-05
318.15	0.05996	0.05	0.000656	1.3e-05
318.15	0.07001	0.05	0.000661	1.3e-05
318.15	0.08009	0.05	0.000668	1.3e-05
318.15	0.10106	0.05	0.000677	1.3e-05
318.15	0.12002	0.05	0.000684	1.3e-05
318.15	0	0.1	0.000641	1.3e-05
318.15	0.0103	0.1	0.000647	1.3e-05
318.15	0.02015	0.1	0.000654	1.3e-05
318.15	0.03008	0.1	0.000658	1.3e-05
318.15	0.04033	0.1	0.000662	1.3e-05
318.15	0.05053	0.1	0.000667	1.3e-05
318.15	0.05942	0.1	0.000673	1.3e-05
318.15	0.06976	0.1	0.000679	1.3e-05
318.15	0.08013	0.1	0.000685	1.3e-05
318.15	0.09974	0.1	0.000694	1.3e-05
318.15	0.1199	0.1	0.000706	1.3e-05
318.15	0	0.15	0.000643	1.3e-05
318.15	0.01181	0.15	0.000652	1.3e-05
318.15	0.02152	0.15	0.000657	1.3e-05
318.15	0.03036	0.15	0.00066	1.3e-05
318.15	0.04097	0.15	0.000666	1.3e-05
318.15	0.05001	0.15	0.000671	1.3e-05
318.15	0.0619	0.15	0.000676	1.3e-05
318.15	0.07066	0.15	0.000684	1.3e-05
318.15	0.08035	0.15	0.00069	1.3e-05
318.15	0.10017	0.15	0.000701	1.3e-05
318.15	0.12003	0.15	0.000715	1.3e-05

System: 2-diphenylmethoxy-N,N-dimethylethanamine hydrochloride + (+)-galactose + water; phases: Liquid
Fixed: Pressure, kPa = 85.7
Property: Mass density, kg/m3 (Liquid); method: Vibrating tube method
Temperature, K	Molality, mol/kg of 2-diphenylmethoxy-N,N-dimethylethanamine hydrochloride	Solvent: Molality, mol/kg of (+)-galactose	Mass density, kg/m3	uncertainty
288.15	0	0.05	1002.98	0.484
288.15	0.01069	0.05	1003.407	0.484
288.15	0.02035	0.05	1003.804	0.484
288.15	0.03001	0.05	1004.194	0.485
288.15	0.04108	0.05	1004.638	0.485
288.15	0.05023	0.05	1005.005	0.486
288.15	0.06057	0.05	1005.415	0.487
288.15	0.07013	0.05	1005.794	0.488
288.15	0.08034	0.05	1006.194	0.49
288.15	0.10132	0.05	1007.017	0.492
288.15	0.12011	0.05	1007.745	0.489
288.15	0	0.15	1009.304	0.723
288.15	0.01023	0.15	1009.665	0.72
288.15	0.02013	0.15	1010.045	0.718
288.15	0.03004	0.15	1010.43	0.72
288.15	0.04049	0.15	1010.825	0.715
288.15	0.05031	0.15	1011.2	0.715
288.15	0.06026	0.15	1011.58	0.714
288.15	0.07003	0.15	1011.956	0.714
288.15	0.08118	0.15	1012.383	0.714
288.15	0.10137	0.15	1013.14	0.71
288.15	0.11988	0.15	1013.84	0.714
293.15	0	0.05	1001.914	0.484
293.15	0.01069	0.05	1002.313	0.483
293.15	0.02035	0.05	1002.68	0.483
293.15	0.03001	0.05	1003.051	0.483
293.15	0.04108	0.05	1003.474	0.484
293.15	0.05023	0.05	1003.826	0.484
293.15	0.06057	0.05	1004.224	0.486
293.15	0.07013	0.05	1004.596	0.486
293.15	0.08034	0.05	1004.985	0.488
293.15	0.10132	0.05	1005.775	0.489
293.15	0.12011	0.05	1006.46	0.486
293.15	0	0.15	1008.374	0.726
293.15	0.01023	0.15	1008.708	0.725
293.15	0.02013	0.15	1009.049	0.723
293.15	0.03004	0.15	1009.405	0.721
293.15	0.04049	0.15	1009.779	0.72
293.15	0.05031	0.15	1010.134	0.719
293.15	0.06026	0.15	1010.486	0.717
293.15	0.07003	0.15	1010.836	0.716
293.15	0.08118	0.15	1011.236	0.715
293.15	0.10137	0.15	1011.935	0.713
293.15	0.11988	0.15	1012.57	0.71
298.15	0	0.05	1000.545	0.484
298.15	0.01069	0.05	1000.927	0.483
298.15	0.02035	0.05	1001.276	0.483
298.15	0.03001	0.05	1001.631	0.483
298.15	0.04108	0.05	1002.04	0.483
298.15	0.05023	0.05	1002.374	0.483
298.15	0.06057	0.05	1002.746	0.484
298.15	0.07013	0.05	1003.094	0.485
298.15	0.08034	0.05	1003.463	0.486
298.15	0.10132	0.05	1004.219	0.487
298.15	0.12011	0.05	1004.882	0.488
298.15	0	0.15	1007.179	0.734
298.15	0.01023	0.15	1007.495	0.734
298.15	0.02013	0.15	1007.819	0.732
298.15	0.03004	0.15	1008.15	0.73
298.15	0.04049	0.15	1008.502	0.728
298.15	0.05031	0.15	1008.843	0.728
298.15	0.06026	0.15	1009.182	0.727
298.15	0.07003	0.15	1009.511	0.726
298.15	0.08118	0.15	1009.908	0.726
298.15	0.10137	0.15	1010.561	0.723
298.15	0.11988	0.15	1011.171	0.718
308.15	0	0.05	997.499	0.487
308.15	0.01069	0.05	997.862	0.481
308.15	0.02035	0.05	998.212	0.481
308.15	0.03001	0.05	998.558	0.481
308.15	0.04108	0.05	998.947	0.481
308.15	0.05023	0.05	999.271	0.482
308.15	0.06057	0.05	999.633	0.482
308.15	0.07013	0.05	999.964	0.483
308.15	0.08034	0.05	1000.317	0.484
308.15	0.10132	0.05	1001.036	0.485
308.15	0.12011	0.05	1001.673	0.484
308.15	0	0.15	1004.068	0.721
308.15	0.01023	0.15	1004.372	0.723
308.15	0.02013	0.15	1004.698	0.72
308.15	0.03004	0.15	1005.021	0.718
308.15	0.04049	0.15	1005.355	0.716
308.15	0.05031	0.15	1005.679	0.715
308.15	0.06026	0.15	1006.001	0.713
308.15	0.07003	0.15	1006.323	0.713
308.15	0.08118	0.15	1006.71	0.712
308.15	0.10137	0.15	1007.365	0.71
308.15	0.11988	0.15	1007.969	0.695
318.15	0	0.05	993.633	0.481
318.15	0.01069	0.05	993.972	0.48
318.15	0.02035	0.05	994.305	0.479
318.15	0.03001	0.05	994.63	0.479
318.15	0.04108	0.05	994.998	0.479
318.15	0.05023	0.05	995.305	0.48
318.15	0.06057	0.05	995.646	0.48
318.15	0.07013	0.05	995.959	0.48
318.15	0.08034	0.05	996.297	0.481
318.15	0.10132	0.05	996.978	0.482
318.15	0.12011	0.05	997.582	0.481
318.15	0	0.15	1000.172	0.734
318.15	0.01023	0.15	1000.449	0.731
318.15	0.02013	0.15	1000.742	0.727
318.15	0.03004	0.15	1001.033	0.725
318.15	0.04049	0.15	1001.342	0.722
318.15	0.05031	0.15	1001.641	0.72
318.15	0.06026	0.15	1001.932	0.718
318.15	0.07003	0.15	1002.239	0.717
318.15	0.08118	0.15	1002.573	0.715
318.15	0.10137	0.15	1003.145	0.711
318.15	0.11988	0.15	1003.678	0.708
288.15	0.0102	0	999.49	0.438
288.15	0.02022	0	999.881	0.438
288.15	0.03015	0	1000.272	0.439
288.15	0.04016	0	1000.668	0.44
288.15	0.05133	0	1001.102	0.441
288.15	0.05853	0	1001.382	0.441
288.15	0.06998	0	1001.821	0.443
288.15	0.07996	0	1002.203	0.444
288.15	0.09018	0	1002.592	0.445
288.15	0.10009	0	1002.965	0.447
293.15	0.0102	0	998.589	0.438
293.15	0.02022	0	998.969	0.438
293.15	0.03015	0	999.348	0.439
293.15	0.04016	0	999.727	0.439
293.15	0.05133	0	1000.15	0.44
293.15	0.05853	0	1000.419	0.441
293.15	0.06998	0	1000.847	0.442
293.15	0.07996	0	1001.22	0.443
293.15	0.09018	0	1001.598	0.444
293.15	0.10009	0	1001.963	0.443
298.15	0.0102	0	997.415	0.438
298.15	0.02022	0	997.78	0.438
298.15	0.03015	0	998.15	0.438
298.15	0.04016	0	998.524	0.439
298.15	0.05133	0	998.933	0.439
298.15	0.05853	0	999.199	0.44
298.15	0.06998	0	999.615	0.441
298.15	0.07996	0	999.973	0.442
298.15	0.09018	0	1000.34	0.443
298.15	0.10009	0	1000.698	0.441
308.15	0.0102	0	994.384	0.437
308.15	0.02022	0	994.74	0.44
308.15	0.03015	0	995.091	0.438
308.15	0.04016	0	995.442	0.438
308.15	0.05133	0	995.831	0.439
308.15	0.05853	0	996.081	0.44
308.15	0.06998	0	996.479	0.44
308.15	0.07996	0	996.823	0.441
308.15	0.09018	0	997.173	0.442
308.15	0.10009	0	997.513	0.438
318.15	0.0102	0	990.561	0.437
318.15	0.02022	0	990.892	0.437
318.15	0.03015	0	991.213	0.437
318.15	0.04016	0	991.538	0.438
318.15	0.05133	0	991.898	0.438
318.15	0.05853	0	992.131	0.439
318.15	0.06998	0	992.506	0.439
318.15	0.07996	0	992.828	0.44
318.15	0.09018	0	993.165	0.441
318.15	0.10009	0	993.48	0.442

System: 2-diphenylmethoxy-N,N-dimethylethanamine hydrochloride + (+)-galactose + water; phases: Liquid
Fixed: Pressure, kPa = 85.7
Fixed: Frequency, MHz = 3
Property: Speed of sound, m/s (Liquid); method: Single path-length method
Temperature, K	Molality, mol/kg of 2-diphenylmethoxy-N,N-dimethylethanamine hydrochloride	Solvent: Molality, mol/kg of (+)-galactose	Speed of sound, m/s	uncertainty
288.15	0	0.05	1470.01	1.63
288.15	0.01069	0.05	1472.21	1.63
288.15	0.02035	0.05	1474.24	1.63
288.15	0.03001	0.05	1476.26	1.63
288.15	0.04108	0.05	1478.53	1.64
288.15	0.05023	0.05	1480.35	1.64
288.15	0.06057	0.05	1482.43	1.65
288.15	0.07013	0.05	1484.31	1.65
288.15	0.08034	0.05	1486.17	1.66
288.15	0.10132	0.05	1490.05	1.67
288.15	0.12011	0.05	1493.43	1.68
288.15	0	0.15	1476.77	1.73
288.15	0.01023	0.15	1478.86	1.73
288.15	0.02013	0.15	1480.89	1.73
288.15	0.03004	0.15	1482.93	1.73
288.15	0.04049	0.15	1485.07	1.73
288.15	0.05031	0.15	1487.05	1.74
288.15	0.06026	0.15	1489.05	1.74
288.15	0.07003	0.15	1490.95	1.74
288.15	0.08118	0.15	1493.03	1.75
288.15	0.10137	0.15	1496.72	1.76
288.15	0.11988	0.15	1500.02	1.77
293.15	0	0.05	1486.09	1.63
293.15	0.01069	0.05	1488.15	1.63
293.15	0.02035	0.05	1490.04	1.63
293.15	0.03001	0.05	1491.9	1.63
293.15	0.04108	0.05	1494	1.63
293.15	0.05023	0.05	1495.74	1.64
293.15	0.06057	0.05	1497.61	1.64
293.15	0.07013	0.05	1499.37	1.65
293.15	0.08034	0.05	1501.09	1.65
293.15	0.10132	0.05	1504.56	1.66
293.15	0.12011	0.05	1507.62	1.66
293.15	0	0.15	1492.32	1.69
293.15	0.01023	0.15	1494.3	1.7
293.15	0.02013	0.15	1496.29	1.7
293.15	0.03004	0.15	1498.26	1.71
293.15	0.04049	0.15	1500.27	1.71
293.15	0.05031	0.15	1502.12	1.71
293.15	0.06026	0.15	1503.94	1.72
293.15	0.07003	0.15	1505.7	1.72
293.15	0.08118	0.15	1507.68	1.73
293.15	0.10137	0.15	1511.06	1.74
293.15	0.11988	0.15	1514	1.72
298.15	0	0.05	1500.02	1.63
298.15	0.01069	0.05	1501.86	1.63
298.15	0.02035	0.05	1503.57	1.63
298.15	0.03001	0.05	1505.3	1.63
298.15	0.04108	0.05	1507.29	1.63
298.15	0.05023	0.05	1508.91	1.64
298.15	0.06057	0.05	1510.7	1.64
298.15	0.07013	0.05	1512.3	1.64
298.15	0.08034	0.05	1513.97	1.65
298.15	0.10132	0.05	1517.29	1.66
298.15	0.12011	0.05	1520.3	1.64
298.15	0	0.15	1506.12	1.67
298.15	0.01023	0.15	1507.88	1.69
298.15	0.02013	0.15	1509.7	1.69
298.15	0.03004	0.15	1511.53	1.69
298.15	0.04049	0.15	1513.39	1.7
298.15	0.05031	0.15	1515.13	1.7
298.15	0.06026	0.15	1516.84	1.7
298.15	0.07003	0.15	1518.47	1.71
298.15	0.08118	0.15	1520.22	1.71
298.15	0.10137	0.15	1523.38	1.72
298.15	0.11988	0.15	1526.14	1.69
308.15	0	0.05	1522.4	1.63
308.15	0.01069	0.05	1524.06	1.63
308.15	0.02035	0.05	1525.58	1.63
308.15	0.03001	0.05	1527.11	1.63
308.15	0.04108	0.05	1528.8	1.63
308.15	0.05023	0.05	1530.16	1.63
308.15	0.06057	0.05	1531.67	1.63
308.15	0.07013	0.05	1533.08	1.64
308.15	0.08034	0.05	1534.52	1.65
308.15	0.10132	0.05	1537.4	1.65
308.15	0.12011	0.05	1539.92	1.63
308.15	0	0.15	1528.18	1.65
308.15	0.01023	0.15	1529.69	1.66
308.15	0.02013	0.15	1531.25	1.66
308.15	0.03004	0.15	1532.81	1.67
308.15	0.04049	0.15	1534.45	1.67
308.15	0.05031	0.15	1535.97	1.67
308.15	0.06026	0.15	1537.49	1.68
308.15	0.07003	0.15	1538.91	1.68
308.15	0.08118	0.15	1540.48	1.69
308.15	0.10137	0.15	1543.3	1.69
308.15	0.11988	0.15	1545.75	1.65
318.15	0	0.05	1538.53	1.62
318.15	0.01069	0.05	1539.87	1.62
318.15	0.02035	0.05	1541.09	1.62
318.15	0.03001	0.05	1542.35	1.62
318.15	0.04108	0.05	1543.83	1.63
318.15	0.05023	0.05	1544.98	1.63
318.15	0.06057	0.05	1546.31	1.63
318.15	0.07013	0.05	1547.57	1.63
318.15	0.08034	0.05	1548.83	1.63
318.15	0.10132	0.05	1551.31	1.64
318.15	0.12011	0.05	1553.6	1.65
318.15	0	0.15	1543.82	1.68
318.15	0.01023	0.15	1545.07	1.68
318.15	0.02013	0.15	1546.38	1.69
318.15	0.03004	0.15	1547.72	1.69
318.15	0.04049	0.15	1549.15	1.69
318.15	0.05031	0.15	1550.43	1.69
318.15	0.06026	0.15	1551.72	1.69
318.15	0.07003	0.15	1552.95	1.7
318.15	0.08118	0.15	1554.34	1.7
318.15	0.10137	0.15	1556.81	1.71
318.15	0.11988	0.15	1559.15	1.72
288.15	0.0102	0	1468.67	1.62
288.15	0.02022	0	1470.8	1.62
288.15	0.03015	0	1472.88	1.62
288.15	0.04016	0	1474.97	1.62
288.15	0.05133	0	1477.17	1.63
288.15	0.05853	0	1478.61	1.63
288.15	0.06998	0	1480.93	1.64
288.15	0.07996	0	1482.65	1.64
288.15	0.09018	0	1484.66	1.65
288.15	0.10009	0	1486.46	1.66
293.15	0.0102	0	1484.62	1.62
293.15	0.02022	0	1486.62	1.62
293.15	0.03015	0	1488.56	1.62
293.15	0.04016	0	1490.48	1.62
293.15	0.05133	0	1492.58	1.63
293.15	0.05853	0	1493.89	1.63
293.15	0.06998	0	1495.97	1.63
293.15	0.07996	0	1497.74	1.64
293.15	0.09018	0	1499.51	1.65
293.15	0.10009	0	1501.22	1.63
298.15	0.0102	0	1498.72	1.62
298.15	0.02022	0	1500.49	1.62
298.15	0.03015	0	1502.23	1.62
298.15	0.04016	0	1504.03	1.62
298.15	0.05133	0	1505.98	1.62
298.15	0.05853	0	1507.19	1.63
298.15	0.06998	0	1509.16	1.63
298.15	0.07996	0	1510.78	1.64
298.15	0.09018	0	1512.44	1.64
298.15	0.10009	0	1513.95	1.62
308.15	0.0102	0	1520.98	1.62
308.15	0.02022	0	1522.58	1.62
308.15	0.03015	0	1524.16	1.62
308.15	0.04016	0	1525.72	1.62
308.15	0.05133	0	1527.38	1.62
308.15	0.05853	0	1528.46	1.63
308.15	0.06998	0	1530.07	1.63
308.15	0.07996	0	1531.5	1.63
308.15	0.09018	0	1532.86	1.63
308.15	0.10009	0	1534.22	1.62
318.15	0.0102	0	1537.3	1.62
318.15	0.02022	0	1538.58	1.62
318.15	0.03015	0	1539.89	1.62
318.15	0.04016	0	1541.25	1.62
318.15	0.05133	0	1542.69	1.62
318.15	0.05853	0	1543.65	1.62
318.15	0.06998	0	1545.13	1.62
318.15	0.07996	0	1546.37	1.63
318.15	0.09018	0	1547.58	1.63
318.15	0.10009	0	1548.8	1.63

System: 2-diphenylmethoxy-N,N-dimethylethanamine hydrochloride + (+)-galactose + water; phases: Liquid
Fixed: Pressure, kPa = 85.7
Property: Viscosity, Pa*s (Liquid); method: Falling or rolling sphere viscometry
Temperature, K	Molality, mol/kg of 2-diphenylmethoxy-N,N-dimethylethanamine hydrochloride	Solvent: Molality, mol/kg of (+)-galactose	Viscosity, Pa*s	uncertainty
288.15	0	0.05	0.001171	1.7e-05
288.15	0.01069	0.05	0.001182	1.7e-05
288.15	0.02035	0.05	0.001193	1.7e-05
288.15	0.03001	0.05	0.001202	1.7e-05
288.15	0.04108	0.05	0.001212	1.7e-05
288.15	0.05023	0.05	0.001225	1.7e-05
288.15	0.06057	0.05	0.001234	1.7e-05
288.15	0.07013	0.05	0.001245	1.7e-05
288.15	0.08034	0.05	0.001255	1.7e-05
288.15	0.10132	0.05	0.001274	1.7e-05
288.15	0.12011	0.05	0.001289	1.7e-05
288.15	0	0.15	0.001249	1.8e-05
288.15	0.01023	0.15	0.001258	1.8e-05
288.15	0.02013	0.15	0.001266	1.8e-05
288.15	0.03004	0.15	0.001275	1.8e-05
288.15	0.04049	0.15	0.001285	1.8e-05
288.15	0.05031	0.15	0.001291	1.8e-05
288.15	0.06026	0.15	0.001299	1.8e-05
288.15	0.07003	0.15	0.001309	1.8e-05
288.15	0.08118	0.15	0.001318	1.8e-05
288.15	0.10137	0.15	0.001338	1.9e-05
288.15	0.11988	0.15	0.001357	1.9e-05
293.15	0	0.05	0.001028	1.6e-05
293.15	0.01069	0.05	0.001041	1.6e-05
293.15	0.02035	0.05	0.001054	1.6e-05
293.15	0.03001	0.05	0.001064	1.6e-05
293.15	0.04108	0.05	0.001072	1.6e-05
293.15	0.05023	0.05	0.001078	1.6e-05
293.15	0.06057	0.05	0.001084	1.6e-05
293.15	0.07013	0.05	0.001093	1.6e-05
293.15	0.08034	0.05	0.001102	1.6e-05
293.15	0.10132	0.05	0.00112	1.6e-05
293.15	0.12011	0.05	0.001133	1.6e-05
293.15	0	0.15	0.001089	1.7e-05
293.15	0.01023	0.15	0.001098	1.7e-05
293.15	0.02013	0.15	0.001106	1.7e-05
293.15	0.03004	0.15	0.001113	1.7e-05
293.15	0.04049	0.15	0.001121	1.7e-05
293.15	0.05031	0.15	0.001129	1.7e-05
293.15	0.06026	0.15	0.001138	1.7e-05
293.15	0.07003	0.15	0.001148	1.7e-05
293.15	0.08118	0.15	0.001156	1.7e-05
293.15	0.10137	0.15	0.001171	1.7e-05
293.15	0.11988	0.15	0.001187	1.8e-05
298.15	0	0.05	0.000914	1.5e-05
298.15	0.01069	0.05	0.000928	1.5e-05
298.15	0.02035	0.05	0.000936	1.5e-05
298.15	0.03001	0.05	0.000945	1.5e-05
298.15	0.04108	0.05	0.000953	1.5e-05
298.15	0.05023	0.05	0.000961	1.5e-05
298.15	0.06057	0.05	0.000966	1.5e-05
298.15	0.07013	0.05	0.000972	1.5e-05
298.15	0.08034	0.05	0.000978	1.5e-05
298.15	0.10132	0.05	0.000993	1.5e-05
298.15	0.12011	0.05	0.001007	1.6e-05
298.15	0	0.15	0.000973	1.6e-05
298.15	0.01023	0.15	0.000986	1.6e-05
298.15	0.02013	0.15	0.000996	1.6e-05
298.15	0.03004	0.15	0.001	1.6e-05
298.15	0.04049	0.15	0.001011	1.6e-05
298.15	0.05031	0.15	0.001019	1.6e-05
298.15	0.06026	0.15	0.001027	1.7e-05
298.15	0.07003	0.15	0.001034	1.7e-05
298.15	0.08118	0.15	0.001043	1.7e-05
298.15	0.10137	0.15	0.001058	1.7e-05
298.15	0.11988	0.15	0.00107	1.7e-05
308.15	0	0.05	0.000731	1.4e-05
308.15	0.01069	0.05	0.000746	1.4e-05
308.15	0.02035	0.05	0.00076	1.4e-05
308.15	0.03001	0.05	0.000767	1.4e-05
308.15	0.04108	0.05	0.000774	1.4e-05
308.15	0.05023	0.05	0.000778	1.4e-05
308.15	0.06057	0.05	0.000784	1.4e-05
308.15	0.07013	0.05	0.000789	1.4e-05
308.15	0.08034	0.05	0.000794	1.4e-05
308.15	0.10132	0.05	0.000804	1.4e-05
308.15	0.12011	0.05	0.000816	1.5e-05
308.15	0	0.15	0.000781	1.6e-05
308.15	0.01023	0.15	0.000794	1.5e-05
308.15	0.02013	0.15	0.000801	1.5e-05
308.15	0.03004	0.15	0.000807	1.5e-05
308.15	0.04049	0.15	0.000815	1.5e-05
308.15	0.05031	0.15	0.000823	1.5e-05
308.15	0.06026	0.15	0.000831	1.5e-05
308.15	0.07003	0.15	0.000839	1.6e-05
308.15	0.08118	0.15	0.000847	1.6e-05
308.15	0.10137	0.15	0.000862	1.6e-05
308.15	0.11988	0.15	0.000874	1.7e-05
318.15	0	0.05	0.000619	1.3e-05
318.15	0.01069	0.05	0.000633	1.4e-05
318.15	0.02035	0.05	0.000643	1.4e-05
318.15	0.03001	0.05	0.000651	1.4e-05
318.15	0.04108	0.05	0.000656	1.4e-05
318.15	0.05023	0.05	0.00066	1.4e-05
318.15	0.06057	0.05	0.000662	1.4e-05
318.15	0.07013	0.05	0.000666	1.4e-05
318.15	0.08034	0.05	0.000672	1.4e-05
318.15	0.10132	0.05	0.000681	1.4e-05
318.15	0.12011	0.05	0.00069	1.4e-05
318.15	0	0.15	0.000658	1.4e-05
318.15	0.01023	0.15	0.00067	1.4e-05
318.15	0.02013	0.15	0.000673	1.4e-05
318.15	0.03004	0.15	0.00068	1.4e-05
318.15	0.04049	0.15	0.000687	1.4e-05
318.15	0.05031	0.15	0.000694	1.4e-05
318.15	0.06026	0.15	0.000702	1.4e-05
318.15	0.07003	0.15	0.00071	1.4e-05
318.15	0.08118	0.15	0.000719	1.4e-05
318.15	0.10137	0.15	0.000731	1.5e-05
318.15	0.11988	0.15	0.000743	1.5e-05
288.15	0.0102	0	0.00115	1.6e-05
288.15	0.02022	0	0.001162	1.6e-05
288.15	0.03015	0	0.001171	1.6e-05
288.15	0.04016	0	0.001181	1.6e-05
288.15	0.05133	0	0.001191	1.7e-05
288.15	0.05853	0	0.001199	1.7e-05
288.15	0.06998	0	0.00121	1.7e-05
288.15	0.07996	0	0.001222	1.7e-05
288.15	0.09018	0	0.001232	1.7e-05
288.15	0.10009	0	0.00124	1.7e-05
293.15	0.0102	0	0.001012	1.5e-05
293.15	0.02022	0	0.001023	1.5e-05
293.15	0.03015	0	0.001031	1.6e-05
293.15	0.04016	0	0.001039	1.6e-05
293.15	0.05133	0	0.001046	1.6e-05
293.15	0.05853	0	0.001054	1.6e-05
293.15	0.06998	0	0.001063	1.6e-05
293.15	0.07996	0	0.001073	1.6e-05
293.15	0.09018	0	0.001084	1.6e-05
293.15	0.10009	0	0.001089	1.6e-05
298.15	0.0102	0	0.0009	1.5e-05
298.15	0.02022	0	0.000909	1.5e-05
298.15	0.03015	0	0.000919	1.5e-05
298.15	0.04016	0	0.000927	1.5e-05
298.15	0.05133	0	0.000934	1.5e-05
298.15	0.05853	0	0.000939	1.5e-05
298.15	0.06998	0	0.000949	1.5e-05
298.15	0.07996	0	0.000957	1.5e-05
298.15	0.09018	0	0.000965	1.5e-05
298.15	0.10009	0	0.00097	1.6e-05
308.15	0.0102	0	0.000732	1.4e-05
308.15	0.02022	0	0.000739	1.4e-05
308.15	0.03015	0	0.000744	1.4e-05
308.15	0.04016	0	0.000749	1.4e-05
308.15	0.05133	0	0.000754	1.4e-05
308.15	0.05853	0	0.000758	1.4e-05
308.15	0.06998	0	0.000765	1.4e-05
308.15	0.07996	0	0.000773	1.4e-05
308.15	0.09018	0	0.00078	1.4e-05
308.15	0.10009	0	0.000788	1.5e-05
318.15	0.0102	0	0.000609	1.3e-05
318.15	0.02022	0	0.000619	1.3e-05
318.15	0.03015	0	0.000626	1.3e-05
318.15	0.04016	0	0.000635	1.3e-05
318.15	0.05133	0	0.00064	1.3e-05
318.15	0.05853	0	0.000645	1.4e-05
318.15	0.06998	0	0.000654	1.4e-05
318.15	0.07996	0	0.00066	1.4e-05
318.15	0.09018	0	0.000666	1.4e-05
318.15	0.10009	0	0.000674	1.4e-05

System: 2-diphenylmethoxy-N,N-dimethylethanamine hydrochloride + 4-O-.beta.-D-galactopyranosyl-D-glucose + water; phases: Liquid
Fixed: Pressure, kPa = 85.7
Property: Mass density, kg/m3 (Liquid); method: Vibrating tube method
Temperature, K	Molality, mol/kg of 2-diphenylmethoxy-N,N-dimethylethanamine hydrochloride	Solvent: Molality, mol/kg of 4-O-.beta.-D-galactopyranosyl-D-glucose	Mass density, kg/m3	uncertainty
288.15	0	0.05	1005.762	0.344
288.15	0.01075	0.05	1006.159	0.342
288.15	0.02027	0.05	1006.517	0.342
288.15	0.03056	0.05	1006.9	0.342
288.15	0.04058	0.05	1007.28	0.343
288.15	0.05058	0.05	1007.653	0.343
288.15	0.06008	0.05	1008.009	0.344
288.15	0.06966	0.05	1008.37	0.345
288.15	0.0803	0.05	1008.762	0.346
288.15	0.09994	0.05	1009.48	0.349
288.15	0.12034	0.05	1010.221	0.352
288.15	0	0.1	1012.376	0.404
288.15	0.01018	0.1	1012.717	0.397
288.15	0.02031	0.1	1013.072	0.396
288.15	0.03007	0.1	1013.423	0.397
288.15	0.04077	0.1	1013.816	0.397
288.15	0.05029	0.1	1014.16	0.397
288.15	0.06168	0.1	1014.569	0.398
288.15	0.06996	0.1	1014.864	0.399
288.15	0.08127	0.1	1015.262	0.4
288.15	0.09979	0.1	1015.907	0.4
288.15	0.12009	0.1	1016.61	0.395
288.15	0	0.15	1017.811	0.456
288.15	0.01009	0.15	1018.128	0.454
288.15	0.02009	0.15	1018.463	0.453
288.15	0.03028	0.15	1018.817	0.453
288.15	0.04079	0.15	1019.191	0.453
288.15	0.05041	0.15	1019.523	0.453
288.15	0.05992	0.15	1019.848	0.453
288.15	0.06827	0.15	1020.138	0.453
288.15	0.08092	0.15	1020.575	0.453
288.15	0.10175	0.15	1021.271	0.454
288.15	0.12017	0.15	1021.885	0.455
293.15	0	0.05	1004.835	0.345
293.15	0.01075	0.05	1005.216	0.341
293.15	0.02027	0.05	1005.56	0.341
293.15	0.03056	0.05	1005.94	0.342
293.15	0.04058	0.05	1006.303	0.342
293.15	0.05058	0.05	1006.67	0.343
293.15	0.06008	0.05	1007.011	0.344
293.15	0.06966	0.05	1007.356	0.344
293.15	0.0803	0.05	1007.735	0.346
293.15	0.09994	0.05	1008.431	0.348
293.15	0.12034	0.05	1009.145	0.349
293.15	0	0.1	1011.405	0.401
293.15	0.01018	0.1	1011.736	0.396
293.15	0.02031	0.1	1012.08	0.396
293.15	0.03007	0.1	1012.421	0.396
293.15	0.04077	0.1	1012.801	0.396
293.15	0.05029	0.1	1013.136	0.396
293.15	0.06168	0.1	1013.534	0.397
293.15	0.06996	0.1	1013.822	0.399
293.15	0.08127	0.1	1014.21	0.399
293.15	0.09979	0.1	1014.843	0.399
293.15	0.12009	0.1	1015.528	0.395
293.15	0	0.15	1016.834	0.452
293.15	0.01009	0.15	1017.138	0.451
293.15	0.02009	0.15	1017.463	0.45
293.15	0.03028	0.15	1017.799	0.45
293.15	0.04079	0.15	1018.159	0.45
293.15	0.05041	0.15	1018.483	0.45
293.15	0.05992	0.15	1018.808	0.45
293.15	0.06827	0.15	1019.094	0.45
293.15	0.08092	0.15	1019.511	0.45
293.15	0.10175	0.15	1020.187	0.45
293.15	0.12017	0.15	1020.777	0.447
298.15	0	0.05	1003.639	0.345
298.15	0.01075	0.05	1003.999	0.341
298.15	0.02027	0.05	1004.328	0.341
298.15	0.03056	0.05	1004.696	0.341
298.15	0.04058	0.05	1005.05	0.342
298.15	0.05058	0.05	1005.404	0.342
298.15	0.06008	0.05	1005.738	0.343
298.15	0.06966	0.05	1006.071	0.344
298.15	0.0803	0.05	1006.439	0.345
298.15	0.09994	0.05	1007.108	0.347
298.15	0.12034	0.05	1007.798	0.347
298.15	0	0.1	1010.174	0.401
298.15	0.01018	0.1	1010.49	0.395
298.15	0.02031	0.1	1010.826	0.395
298.15	0.03007	0.1	1011.162	0.395
298.15	0.04077	0.1	1011.525	0.395
298.15	0.05029	0.1	1011.845	0.395
298.15	0.06168	0.1	1012.227	0.396
298.15	0.06996	0.1	1012.505	0.397
298.15	0.08127	0.1	1012.875	0.398
298.15	0.09979	0.1	1013.48	0.397
298.15	0.12009	0.1	1014.122	0.394
298.15	0	0.15	1015.586	0.449
298.15	0.01009	0.15	1015.87	0.449
298.15	0.02009	0.15	1016.181	0.448
298.15	0.03028	0.15	1016.504	0.447
298.15	0.04079	0.15	1016.843	0.447
298.15	0.05041	0.15	1017.147	0.447
298.15	0.05992	0.15	1017.459	0.447
298.15	0.06827	0.15	1017.734	0.448
298.15	0.08092	0.15	1018.142	0.448
298.15	0.10175	0.15	1018.792	0.448
298.15	0.12017	0.15	1019.357	0.446
308.15	0	0.05	1000.573	0.346
308.15	0.01075	0.05	1000.918	0.34
308.15	0.02027	0.05	1001.245	0.34
308.15	0.03056	0.05	1001.597	0.34
308.15	0.04058	0.05	1001.931	0.341
308.15	0.05058	0.05	1002.264	0.341
308.15	0.06008	0.05	1002.58	0.342
308.15	0.06966	0.05	1002.9	0.343
308.15	0.0803	0.05	1003.254	0.344
308.15	0.09994	0.05	1003.896	0.345
308.15	0.12034	0.05	1004.557	0.344
308.15	0	0.1	1007.024	0.399
308.15	0.01018	0.1	1007.325	0.393
308.15	0.02031	0.1	1007.656	0.393
308.15	0.03007	0.1	1007.976	0.393
308.15	0.04077	0.1	1008.324	0.393
308.15	0.05029	0.1	1008.63	0.394
308.15	0.06168	0.1	1008.993	0.394
308.15	0.06996	0.1	1009.254	0.395
308.15	0.08127	0.1	1009.61	0.396
308.15	0.09979	0.1	1010.184	0.396
308.15	0.12009	0.1	1010.813	0.391
308.15	0	0.15	1012.387	0.445
308.15	0.01009	0.15	1012.66	0.445
308.15	0.02009	0.15	1012.959	0.443
308.15	0.03028	0.15	1013.272	0.443
308.15	0.04079	0.15	1013.61	0.442
308.15	0.05041	0.15	1013.912	0.442
308.15	0.05992	0.15	1014.208	0.442
308.15	0.06827	0.15	1014.468	0.443
308.15	0.08092	0.15	1014.846	0.443
308.15	0.10175	0.15	1015.467	0.443
308.15	0.12017	0.15	1016.006	0.434
318.15	0	0.05	996.706	0.341
318.15	0.01075	0.05	997.012	0.34
318.15	0.02027	0.05	997.295	0.34
318.15	0.03056	0.05	997.61	0.34
318.15	0.04058	0.05	997.924	0.34
318.15	0.05058	0.05	998.249	0.341
318.15	0.06008	0.05	998.562	0.341
318.15	0.06966	0.05	998.875	0.342
318.15	0.0803	0.05	999.221	0.343
318.15	0.09994	0.05	999.838	0.344
318.15	0.12034	0.05	1000.47	0.346
318.15	0	0.1	1003.215	1.335
318.15	0.01018	0.1	1003.475	0.393
318.15	0.02031	0.1	1003.757	0.393
318.15	0.03007	0.1	1004.047	0.393
318.15	0.04077	0.1	1004.365	0.393
318.15	0.05029	0.1	1004.65	0.393
318.15	0.06168	0.1	1004.976	0.393
318.15	0.06996	0.1	1005.208	0.394
318.15	0.08127	0.1	1005.535	0.394
318.15	0.09979	0.1	1006.069	0.394
318.15	0.12009	0.1	1006.633	0.389
318.15	0	0.15	1008.578	0.451
318.15	0.01009	0.15	1008.81	0.45
318.15	0.02009	0.15	1009.06	0.449
318.15	0.03028	0.15	1009.343	0.448
318.15	0.04079	0.15	1009.648	0.448
318.15	0.05041	0.15	1009.922	0.448
318.15	0.05992	0.15	1010.191	0.448
318.15	0.06827	0.15	1010.422	0.448
318.15	0.08092	0.15	1010.771	0.448
318.15	0.10175	0.15	1011.352	0.448
318.15	0.12017	0.15	1011.826	0.448
288.15	0.0102	0	999.49	0.314
288.15	0.02022	0	999.881	0.314
288.15	0.03015	0	1000.272	0.315
288.15	0.04016	0	1000.668	0.316
288.15	0.05133	0	1001.102	0.317
288.15	0.05853	0	1001.382	0.317
288.15	0.06998	0	1001.821	0.319
288.15	0.07996	0	1002.203	0.32
288.15	0.09018	0	1002.592	0.322
288.15	0.10009	0	1002.965	0.323
293.15	0.0102	0	998.589	0.314
293.15	0.02022	0	998.969	0.314
293.15	0.03015	0	999.348	0.315
293.15	0.04016	0	999.727	0.316
293.15	0.05133	0	1000.15	0.316
293.15	0.05853	0	1000.419	0.317
293.15	0.06998	0	1000.847	0.318
293.15	0.07996	0	1001.22	0.32
293.15	0.09018	0	1001.598	0.321
293.15	0.10009	0	1001.963	0.319
298.15	0.0102	0	997.415	0.314
298.15	0.02022	0	997.78	0.315
298.15	0.03015	0	998.15	0.315
298.15	0.04016	0	998.524	0.316
298.15	0.05133	0	998.933	0.316
298.15	0.05853	0	999.199	0.317
298.15	0.06998	0	999.615	0.318
298.15	0.07996	0	999.973	0.319
298.15	0.09018	0	1000.34	0.321
298.15	0.10009	0	1000.698	0.317
308.15	0.0102	0	994.384	0.315
308.15	0.02022	0	994.74	0.31
308.15	0.03015	0	995.091	0.315
308.15	0.04016	0	995.442	0.316
308.15	0.05133	0	995.831	0.316
308.15	0.05853	0	996.081	0.318
308.15	0.06998	0	996.479	0.318
308.15	0.07996	0	996.823	0.319
308.15	0.09018	0	997.173	0.32
308.15	0.10009	0	997.513	0.314
318.15	0.0102	0	990.561	0.315
318.15	0.02022	0	990.892	0.315
318.15	0.03015	0	991.213	0.315
318.15	0.04016	0	991.538	0.316
318.15	0.05133	0	991.898	0.316
318.15	0.05853	0	992.131	0.317
318.15	0.06998	0	992.506	0.318
318.15	0.07996	0	992.828	0.319
318.15	0.09018	0	993.165	0.32
318.15	0.10009	0	993.48	0.321

System: 2-diphenylmethoxy-N,N-dimethylethanamine hydrochloride + 4-O-.beta.-D-galactopyranosyl-D-glucose + water; phases: Liquid
Fixed: Pressure, kPa = 85.7
Fixed: Frequency, MHz = 3
Property: Speed of sound, m/s (Liquid); method: Single path-length method
Temperature, K	Molality, mol/kg of 2-diphenylmethoxy-N,N-dimethylethanamine hydrochloride	Solvent: Molality, mol/kg of 4-O-.beta.-D-galactopyranosyl-D-glucose	Speed of sound, m/s	uncertainty
288.15	0	0.05	1472.28	1.18
288.15	0.01075	0.05	1474.51	1.18
288.15	0.02027	0.05	1476.54	1.18
288.15	0.03056	0.05	1478.71	1.18
288.15	0.04058	0.05	1480.78	1.19
288.15	0.05058	0.05	1482.8	1.19
288.15	0.06008	0.05	1484.66	1.2
288.15	0.06966	0.05	1486.55	1.21
288.15	0.0803	0.05	1488.6	1.21
288.15	0.09994	0.05	1492.22	1.23
288.15	0.12034	0.05	1495.93	1.25
288.15	0	0.1	1478.23	1.19
288.15	0.01018	0.1	1480.33	1.19
288.15	0.02031	0.1	1482.45	1.19
288.15	0.03007	0.1	1484.48	1.19
288.15	0.04077	0.1	1486.7	1.2
288.15	0.05029	0.1	1488.64	1.21
288.15	0.06168	0.1	1490.95	1.21
288.15	0.06996	0.1	1492.57	1.22
288.15	0.08127	0.1	1494.77	1.23
288.15	0.09979	0.1	1498.24	1.25
288.15	0.12009	0.1	1502	1.25
288.15	0	0.15	1483.01	1.2
288.15	0.01009	0.15	1485.08	1.2
288.15	0.02009	0.15	1487.22	1.21
288.15	0.03028	0.15	1489.37	1.21
288.15	0.04079	0.15	1491.54	1.22
288.15	0.05041	0.15	1493.5	1.22
288.15	0.05992	0.15	1495.46	1.23
288.15	0.06827	0.15	1497.12	1.23
288.15	0.08092	0.15	1499.56	1.24
288.15	0.10175	0.15	1503.43	1.26
288.15	0.12017	0.15	1506.64	1.27
293.15	0	0.05	1488.24	1.18
293.15	0.01075	0.05	1490.31	1.17
293.15	0.02027	0.05	1492.18	1.18
293.15	0.03056	0.05	1494.2	1.18
293.15	0.04058	0.05	1496.13	1.18
293.15	0.05058	0.05	1498.01	1.19
293.15	0.06008	0.05	1499.72	1.19
293.15	0.06966	0.05	1501.45	1.2
293.15	0.0803	0.05	1503.34	1.21
293.15	0.09994	0.05	1506.59	1.22
293.15	0.12034	0.05	1509.87	1.22
293.15	0	0.1	1493.67	1.19
293.15	0.01018	0.1	1495.63	1.19
293.15	0.02031	0.1	1497.67	1.19
293.15	0.03007	0.1	1499.64	1.19
293.15	0.04077	0.1	1501.71	1.2
293.15	0.05029	0.1	1503.53	1.2
293.15	0.06168	0.1	1505.68	1.21
293.15	0.06996	0.1	1507.18	1.22
293.15	0.08127	0.1	1509.21	1.22
293.15	0.09979	0.1	1512.27	1.23
293.15	0.12009	0.1	1515.55	1.23
293.15	0	0.15	1498.38	1.19
293.15	0.01009	0.15	1500.33	1.2
293.15	0.02009	0.15	1502.33	1.2
293.15	0.03028	0.15	1504.37	1.2
293.15	0.04079	0.15	1506.45	1.21
293.15	0.05041	0.15	1508.35	1.21
293.15	0.05992	0.15	1510.16	1.22
293.15	0.06827	0.15	1511.68	1.22
293.15	0.08092	0.15	1513.9	1.23
293.15	0.10175	0.15	1517.41	1.24
293.15	0.12017	0.15	1520.34	1.23
298.15	0	0.05	1502.27	1.18
298.15	0.01075	0.05	1504.11	1.17
298.15	0.02027	0.05	1505.83	1.18
298.15	0.03056	0.05	1507.68	1.18
298.15	0.04058	0.05	1509.48	1.18
298.15	0.05058	0.05	1511.22	1.19
298.15	0.06008	0.05	1512.83	1.19
298.15	0.06966	0.05	1514.46	1.2
298.15	0.0803	0.05	1516.25	1.21
298.15	0.09994	0.05	1519.41	1.22
298.15	0.12034	0.05	1522.66	1.2
298.15	0	0.1	1507.5	1.18
298.15	0.01018	0.1	1509.24	1.18
298.15	0.02031	0.1	1511.06	1.19
298.15	0.03007	0.1	1512.87	1.19
298.15	0.04077	0.1	1514.79	1.19
298.15	0.05029	0.1	1516.5	1.2
298.15	0.06168	0.1	1518.45	1.2
298.15	0.06996	0.1	1519.84	1.21
298.15	0.08127	0.1	1521.71	1.21
298.15	0.09979	0.1	1524.53	1.22
298.15	0.12009	0.1	1527.6	1.22
298.15	0	0.15	1511.92	1.18
298.15	0.01009	0.15	1513.62	1.19
298.15	0.02009	0.15	1515.45	1.19
298.15	0.03028	0.15	1517.38	1.19
298.15	0.04079	0.15	1519.32	1.2
298.15	0.05041	0.15	1521.06	1.2
298.15	0.05992	0.15	1522.71	1.21
298.15	0.06827	0.15	1524.08	1.21
298.15	0.08092	0.15	1526.11	1.22
298.15	0.10175	0.15	1529.38	1.23
298.15	0.12017	0.15	1532.13	1.21
308.15	0	0.05	1524.38	1.18
308.15	0.01075	0.05	1526	1.17
308.15	0.02027	0.05	1527.49	1.17
308.15	0.03056	0.05	1529.1	1.18
308.15	0.04058	0.05	1530.68	1.18
308.15	0.05058	0.05	1532.25	1.18
308.15	0.06008	0.05	1533.7	1.19
308.15	0.06966	0.05	1535.1	1.19
308.15	0.0803	0.05	1536.63	1.2
308.15	0.09994	0.05	1539.29	1.2
308.15	0.12034	0.05	1542.07	1.18
308.15	0	0.1	1529.4	1.18
308.15	0.01018	0.1	1530.86	1.18
308.15	0.02031	0.1	1532.47	1.18
308.15	0.03007	0.1	1534.02	1.18
308.15	0.04077	0.1	1535.69	1.19
308.15	0.05029	0.1	1537.16	1.19
308.15	0.06168	0.1	1538.91	1.19
308.15	0.06996	0.1	1540.11	1.2
308.15	0.08127	0.1	1541.73	1.21
308.15	0.09979	0.1	1544.39	1.21
308.15	0.12009	0.1	1547.08	1.19
308.15	0	0.15	1533.21	1.17
308.15	0.01009	0.15	1534.54	1.18
308.15	0.02009	0.15	1536.07	1.18
308.15	0.03028	0.15	1537.7	1.18
308.15	0.04079	0.15	1539.41	1.18
308.15	0.05041	0.15	1540.83	1.19
308.15	0.05992	0.15	1542.28	1.19
308.15	0.06827	0.15	1543.5	1.2
308.15	0.08092	0.15	1545.31	1.2
308.15	0.10175	0.15	1548.17	1.21
308.15	0.12017	0.15	1550.64	1.18
318.15	0	0.05	1540.25	1.17
318.15	0.01075	0.05	1541.58	1.17
318.15	0.02027	0.05	1542.85	1.17
318.15	0.03056	0.05	1544.2	1.17
318.15	0.04058	0.05	1545.54	1.18
318.15	0.05058	0.05	1546.87	1.18
318.15	0.06008	0.05	1548.08	1.18
318.15	0.06966	0.05	1549.32	1.18
318.15	0.0803	0.05	1550.59	1.19
318.15	0.09994	0.05	1552.93	1.2
318.15	0.12034	0.05	1555.45	1.21
318.15	0	0.1	1544.9	1.18
318.15	0.01018	0.1	1546.16	1.18
318.15	0.02031	0.1	1547.51	1.18
318.15	0.03007	0.1	1548.84	1.18
318.15	0.04077	0.1	1550.26	1.19
318.15	0.05029	0.1	1551.53	1.19
318.15	0.06168	0.1	1553.01	1.19
318.15	0.06996	0.1	1554.09	1.2
318.15	0.08127	0.1	1555.58	1.2
318.15	0.09979	0.1	1557.79	1.21
318.15	0.12009	0.1	1560.33	1.21
318.15	0	0.15	1548.71	1.19
318.15	0.01009	0.15	1549.9	1.19
318.15	0.02009	0.15	1551.26	1.19
318.15	0.03028	0.15	1552.72	1.19
318.15	0.04079	0.15	1554.14	1.2
318.15	0.05041	0.15	1555.4	1.2
318.15	0.05992	0.15	1556.58	1.2
318.15	0.06827	0.15	1557.68	1.2
318.15	0.08092	0.15	1559.26	1.2
318.15	0.10175	0.15	1561.77	1.21
318.15	0.12017	0.15	1564.05	1.23
288.15	0.0102	0	1468.67	1.17
288.15	0.02022	0	1470.8	1.17
288.15	0.03015	0	1472.88	1.18
288.15	0.04016	0	1474.97	1.18
288.15	0.05133	0	1477.17	1.19
288.15	0.05853	0	1478.61	1.19
288.15	0.06998	0	1480.93	1.2
288.15	0.07996	0	1482.65	1.21
288.15	0.09018	0	1484.66	1.22
288.15	0.10009	0	1486.46	1.22
293.15	0.0102	0	1484.62	1.17
293.15	0.02022	0	1486.62	1.17
293.15	0.03015	0	1488.56	1.17
293.15	0.04016	0	1490.48	1.18
293.15	0.05133	0	1492.58	1.18
293.15	0.05853	0	1493.89	1.19
293.15	0.06998	0	1495.97	1.19
293.15	0.07996	0	1497.74	1.2
293.15	0.09018	0	1499.51	1.21
293.15	0.10009	0	1501.22	1.19
298.15	0.0102	0	1498.72	1.17
298.15	0.02022	0	1500.49	1.17
298.15	0.03015	0	1502.23	1.17
298.15	0.04016	0	1504.03	1.18
298.15	0.05133	0	1505.98	1.18
298.15	0.05853	0	1507.19	1.19
298.15	0.06998	0	1509.16	1.19
298.15	0.07996	0	1510.78	1.2
298.15	0.09018	0	1512.44	1.2
298.15	0.10009	0	1513.95	1.17
308.15	0.0102	0	1520.98	1.17
308.15	0.02022	0	1522.58	1.17
308.15	0.03015	0	1524.16	1.17
308.15	0.04016	0	1525.72	1.17
308.15	0.05133	0	1527.38	1.17
308.15	0.05853	0	1528.46	1.19
308.15	0.06998	0	1530.07	1.18
308.15	0.07996	0	1531.5	1.19
308.15	0.09018	0	1532.86	1.19
308.15	0.10009	0	1534.22	1.17
318.15	0.0102	0	1537.3	1.17
318.15	0.02022	0	1538.58	1.17
318.15	0.03015	0	1539.89	1.17
318.15	0.04016	0	1541.25	1.17
318.15	0.05133	0	1542.69	1.18
318.15	0.05853	0	1543.65	1.18
318.15	0.06998	0	1545.13	1.18
318.15	0.07996	0	1546.37	1.18
318.15	0.09018	0	1547.58	1.19
318.15	0.10009	0	1548.8	1.19

System: 2-diphenylmethoxy-N,N-dimethylethanamine hydrochloride + 4-O-.beta.-D-galactopyranosyl-D-glucose + water; phases: Liquid
Fixed: Pressure, kPa = 85.7
Property: Viscosity, Pa*s (Liquid); method: Falling or rolling sphere viscometry
Temperature, K	Molality, mol/kg of 2-diphenylmethoxy-N,N-dimethylethanamine hydrochloride	Solvent: Molality, mol/kg of 4-O-.beta.-D-galactopyranosyl-D-glucose	Viscosity, Pa*s	uncertainty
288.15	0	0.05	0.001186	1.5e-05
288.15	0.01075	0.05	0.001196	1.5e-05
288.15	0.02027	0.05	0.001205	1.5e-05
288.15	0.03056	0.05	0.001217	1.5e-05
288.15	0.04058	0.05	0.001226	1.5e-05
288.15	0.05058	0.05	0.001237	1.5e-05
288.15	0.06008	0.05	0.001246	1.6e-05
288.15	0.06966	0.05	0.001257	1.6e-05
288.15	0.0803	0.05	0.00127	1.6e-05
288.15	0.09994	0.05	0.001293	1.6e-05
288.15	0.12034	0.05	0.001314	1.6e-05
288.15	0	0.1	0.001257	1.6e-05
288.15	0.01018	0.1	0.001268	1.6e-05
288.15	0.02031	0.1	0.001282	1.6e-05
288.15	0.03007	0.1	0.00129	1.6e-05
288.15	0.04077	0.1	0.001302	1.6e-05
288.15	0.05029	0.1	0.001313	1.6e-05
288.15	0.06168	0.1	0.001325	1.6e-05
288.15	0.06996	0.1	0.001336	1.6e-05
288.15	0.08127	0.1	0.001349	1.6e-05
288.15	0.09979	0.1	0.001368	1.6e-05
288.15	0.12009	0.1	0.001388	1.7e-05
288.15	0	0.15	0.001333	1.6e-05
288.15	0.01009	0.15	0.00135	1.7e-05
288.15	0.02009	0.15	0.001359	1.7e-05
288.15	0.03028	0.15	0.001369	1.7e-05
288.15	0.04079	0.15	0.001384	1.7e-05
288.15	0.05041	0.15	0.001396	1.7e-05
288.15	0.05992	0.15	0.001409	1.7e-05
288.15	0.06827	0.15	0.00142	1.7e-05
288.15	0.08092	0.15	0.001434	1.7e-05
288.15	0.10175	0.15	0.001457	1.7e-05
288.15	0.12017	0.15	0.001476	1.8e-05
293.15	0	0.05	0.001046	1.5e-05
293.15	0.01075	0.05	0.001055	1.5e-05
293.15	0.02027	0.05	0.001063	1.5e-05
293.15	0.03056	0.05	0.00107	1.5e-05
293.15	0.04058	0.05	0.00108	1.5e-05
293.15	0.05058	0.05	0.001091	1.5e-05
293.15	0.06008	0.05	0.0011	1.5e-05
293.15	0.06966	0.05	0.001109	1.5e-05
293.15	0.0803	0.05	0.00112	1.5e-05
293.15	0.09994	0.05	0.001135	1.5e-05
293.15	0.12034	0.05	0.001151	1.5e-05
293.15	0	0.1	0.001101	1.5e-05
293.15	0.01018	0.1	0.001114	1.5e-05
293.15	0.02031	0.1	0.001123	1.5e-05
293.15	0.03007	0.1	0.001133	1.5e-05
293.15	0.04077	0.1	0.001143	1.5e-05
293.15	0.05029	0.1	0.001154	1.5e-05
293.15	0.06168	0.1	0.001162	1.5e-05
293.15	0.06996	0.1	0.001172	1.5e-05
293.15	0.08127	0.1	0.001183	1.5e-05
293.15	0.09979	0.1	0.001199	1.6e-05
293.15	0.12009	0.1	0.001214	1.6e-05
293.15	0	0.15	0.001171	1.6e-05
293.15	0.01009	0.15	0.001182	1.6e-05
293.15	0.02009	0.15	0.001191	1.6e-05
293.15	0.03028	0.15	0.001198	1.6e-05
293.15	0.04079	0.15	0.001208	1.6e-05
293.15	0.05041	0.15	0.001218	1.6e-05
293.15	0.05992	0.15	0.001228	1.6e-05
293.15	0.06827	0.15	0.001239	1.6e-05
293.15	0.08092	0.15	0.001254	1.6e-05
293.15	0.10175	0.15	0.001275	1.6e-05
293.15	0.12017	0.15	0.001298	1.7e-05
298.15	0	0.05	0.000952	1.4e-05
298.15	0.01075	0.05	0.00096	1.4e-05
298.15	0.02027	0.05	0.000967	1.4e-05
298.15	0.03056	0.05	0.000974	1.4e-05
298.15	0.04058	0.05	0.000982	1.4e-05
298.15	0.05058	0.05	0.00099	1.4e-05
298.15	0.06008	0.05	0.000997	1.4e-05
298.15	0.06966	0.05	0.001004	1.4e-05
298.15	0.0803	0.05	0.001013	1.4e-05
298.15	0.09994	0.05	0.001025	1.4e-05
298.15	0.12034	0.05	0.001037	1.5e-05
298.15	0	0.1	0.000999	1.4e-05
298.15	0.01018	0.1	0.001011	1.4e-05
298.15	0.02031	0.1	0.001018	1.4e-05
298.15	0.03007	0.1	0.001026	1.5e-05
298.15	0.04077	0.1	0.001036	1.5e-05
298.15	0.05029	0.1	0.001044	1.5e-05
298.15	0.06168	0.1	0.001054	1.5e-05
298.15	0.06996	0.1	0.001061	1.5e-05
298.15	0.08127	0.1	0.00107	1.5e-05
298.15	0.09979	0.1	0.001084	1.5e-05
298.15	0.12009	0.1	0.001099	1.5e-05
298.15	0	0.15	0.001045	1.5e-05
298.15	0.01009	0.15	0.001054	1.5e-05
298.15	0.02009	0.15	0.001059	1.5e-05
298.15	0.03028	0.15	0.001066	1.5e-05
298.15	0.04079	0.15	0.001075	1.5e-05
298.15	0.05041	0.15	0.001082	1.5e-05
298.15	0.05992	0.15	0.001091	1.5e-05
298.15	0.06827	0.15	0.001099	1.5e-05
298.15	0.08092	0.15	0.001111	1.5e-05
298.15	0.10175	0.15	0.001131	1.5e-05
298.15	0.12017	0.15	0.001147	1.6e-05
308.15	0	0.05	0.000771	1.3e-05
308.15	0.01075	0.05	0.000775	1.3e-05
308.15	0.02027	0.05	0.000779	1.3e-05
308.15	0.03056	0.05	0.000785	1.4e-05
308.15	0.04058	0.05	0.000791	1.4e-05
308.15	0.05058	0.05	0.000795	1.4e-05
308.15	0.06008	0.05	0.000801	1.4e-05
308.15	0.06966	0.05	0.000805	1.4e-05
308.15	0.0803	0.05	0.000813	1.4e-05
308.15	0.09994	0.05	0.000821	1.4e-05
308.15	0.12034	0.05	0.000833	1.4e-05
308.15	0	0.1	0.000809	1.4e-05
308.15	0.01018	0.1	0.000816	1.4e-05
308.15	0.02031	0.1	0.000819	1.4e-05
308.15	0.03007	0.1	0.000826	1.4e-05
308.15	0.04077	0.1	0.000832	1.4e-05
308.15	0.05029	0.1	0.000839	1.4e-05
308.15	0.06168	0.1	0.000846	1.4e-05
308.15	0.06996	0.1	0.000851	1.4e-05
308.15	0.08127	0.1	0.000859	1.4e-05
308.15	0.09979	0.1	0.000871	1.4e-05
308.15	0.12009	0.1	0.000883	1.4e-05
308.15	0	0.15	0.000834	1.4e-05
308.15	0.01009	0.15	0.000841	1.4e-05
308.15	0.02009	0.15	0.000845	1.4e-05
308.15	0.03028	0.15	0.000848	1.4e-05
308.15	0.04079	0.15	0.000858	1.4e-05
308.15	0.05041	0.15	0.000863	1.4e-05
308.15	0.05992	0.15	0.00087	1.4e-05
308.15	0.06827	0.15	0.000878	1.4e-05
308.15	0.08092	0.15	0.000888	1.4e-05
308.15	0.10175	0.15	0.000904	1.4e-05
308.15	0.12017	0.15	0.000917	1.5e-05
318.15	0	0.05	0.000625	1.3e-05
318.15	0.01075	0.05	0.000635	1.3e-05
318.15	0.02027	0.05	0.000639	1.3e-05
318.15	0.03056	0.05	0.000646	1.3e-05
318.15	0.04058	0.05	0.000652	1.3e-05
318.15	0.05058	0.05	0.000658	1.3e-05
318.15	0.06008	0.05	0.000664	1.3e-05
318.15	0.06966	0.05	0.000668	1.3e-05
318.15	0.0803	0.05	0.000675	1.3e-05
318.15	0.09994	0.05	0.000686	1.3e-05
318.15	0.12034	0.05	0.000695	1.3e-05
318.15	0	0.1	0.000665	1.3e-05
318.15	0.01018	0.1	0.000671	1.3e-05
318.15	0.02031	0.1	0.000678	1.3e-05
318.15	0.03007	0.1	0.000681	1.3e-05
318.15	0.04077	0.1	0.000686	1.3e-05
318.15	0.05029	0.1	0.000691	1.3e-05
318.15	0.06168	0.1	0.000698	1.3e-05
318.15	0.06996	0.1	0.000704	1.3e-05
318.15	0.08127	0.1	0.000711	1.3e-05
318.15	0.09979	0.1	0.000721	1.3e-05
318.15	0.12009	0.1	0.000734	1.3e-05
318.15	0	0.15	0.000682	1.3e-05
318.15	0.01009	0.15	0.000688	1.3e-05
318.15	0.02009	0.15	0.000693	1.3e-05
318.15	0.03028	0.15	0.000695	1.3e-05
318.15	0.04079	0.15	0.000702	1.3e-05
318.15	0.05041	0.15	0.000707	1.3e-05
318.15	0.05992	0.15	0.000712	1.3e-05
318.15	0.06827	0.15	0.000717	1.3e-05
318.15	0.08092	0.15	0.000723	1.3e-05
318.15	0.10175	0.15	0.000732	1.3e-05
318.15	0.12017	0.15	0.000742	1.3e-05
288.15	0.0102	0	0.00115	1.5e-05
288.15	0.02022	0	0.001162	1.5e-05
288.15	0.03015	0	0.001171	1.5e-05
288.15	0.04016	0	0.001181	1.5e-05
288.15	0.05133	0	0.001191	1.5e-05
288.15	0.05853	0	0.001199	1.5e-05
288.15	0.06998	0	0.00121	1.5e-05
288.15	0.07996	0	0.001222	1.5e-05
288.15	0.09018	0	0.001232	1.5e-05
288.15	0.10009	0	0.00124	1.5e-05
293.15	0.0102	0	0.001012	1.4e-05
293.15	0.02022	0	0.001023	1.4e-05
293.15	0.03015	0	0.001031	1.4e-05
293.15	0.04016	0	0.001039	1.4e-05
293.15	0.05133	0	0.001046	1.5e-05
293.15	0.05853	0	0.001054	1.5e-05
293.15	0.06998	0	0.001063	1.5e-05
293.15	0.07996	0	0.001073	1.5e-05
293.15	0.09018	0	0.001084	1.5e-05
293.15	0.10009	0	0.001089	1.5e-05
298.15	0.0102	0	0.0009	1.4e-05
298.15	0.02022	0	0.000909	1.4e-05
298.15	0.03015	0	0.000919	1.4e-05
298.15	0.04016	0	0.000927	1.4e-05
298.15	0.05133	0	0.000934	1.4e-05
298.15	0.05853	0	0.000939	1.4e-05
298.15	0.06998	0	0.000949	1.4e-05
298.15	0.07996	0	0.000957	1.4e-05
298.15	0.09018	0	0.000965	1.4e-05
298.15	0.10009	0	0.00097	1.5e-05
308.15	0.0102	0	0.000732	1.3e-05
308.15	0.02022	0	0.000739	1.3e-05
308.15	0.03015	0	0.000744	1.3e-05
308.15	0.04016	0	0.000749	1.3e-05
308.15	0.05133	0	0.000754	1.3e-05
308.15	0.05853	0	0.000758	1.3e-05
308.15	0.06998	0	0.000765	1.3e-05
308.15	0.07996	0	0.000773	1.3e-05
308.15	0.09018	0	0.00078	1.4e-05
308.15	0.10009	0	0.000788	1.5e-05
318.15	0.0102	0	0.000609	1.3e-05
318.15	0.02022	0	0.000619	1.3e-05
318.15	0.03015	0	0.000626	1.3e-05
318.15	0.04016	0	0.000635	1.3e-05
318.15	0.05133	0	0.00064	1.3e-05
318.15	0.05853	0	0.000645	1.3e-05
318.15	0.06998	0	0.000654	1.3e-05
318.15	0.07996	0	0.00066	1.3e-05
318.15	0.09018	0	0.000666	1.3e-05
318.15	0.10009	0	0.000674	1.3e-05

System: 2-diphenylmethoxy-N,N-dimethylethanamine hydrochloride + water; phases: Liquid
Fixed: Pressure, kPa = 85.7
Property: Mass density, kg/m3 (Liquid); method: Vibrating tube method
Temperature, K	Molality, mol/kg of 2-diphenylmethoxy-N,N-dimethylethanamine hydrochloride	Mass density, kg/m3	uncertainty
288.15	0.0102	999.49	0.302
288.15	0.02022	999.881	0.303
288.15	0.03015	1000.272	0.303
288.15	0.04016	1000.668	0.304
288.15	0.05133	1001.102	0.305
288.15	0.05853	1001.382	0.306
288.15	0.06998	1001.821	0.307
288.15	0.07996	1002.203	0.308
288.15	0.09018	1002.592	0.31
288.15	0.10009	1002.965	0.312
293.15	0.0102	998.589	0.302
293.15	0.02022	998.969	0.303
293.15	0.03015	999.348	0.303
293.15	0.04016	999.727	0.304
293.15	0.05133	1000.15	0.304
293.15	0.05853	1000.419	0.306
293.15	0.06998	1000.847	0.307
293.15	0.07996	1001.22	0.308
293.15	0.09018	1001.598	0.309
293.15	0.10009	1001.963	0.307
298.15	0.0102	997.415	0.302
298.15	0.02022	997.78	0.303
298.15	0.03015	998.15	0.303
298.15	0.04016	998.524	0.304
298.15	0.05133	998.933	0.304
298.15	0.05853	999.199	0.306
298.15	0.06998	999.615	0.306
298.15	0.07996	999.973	0.308
298.15	0.09018	1000.34	0.309
298.15	0.10009	1000.698	0.305
308.15	0.0102	994.384	0.303
308.15	0.02022	994.74	0.3
308.15	0.03015	995.091	0.303
308.15	0.04016	995.442	0.304
308.15	0.05133	995.831	0.304
308.15	0.05853	996.081	0.306
308.15	0.06998	996.479	0.306
308.15	0.07996	996.823	0.307
308.15	0.09018	997.173	0.309
308.15	0.10009	997.513	0.303
318.15	0.0102	990.561	0.303
318.15	0.02022	990.892	0.303
318.15	0.03015	991.213	0.303
318.15	0.04016	991.538	0.304
318.15	0.05133	991.898	0.304
318.15	0.05853	992.131	0.305
318.15	0.06998	992.506	0.306
318.15	0.07996	992.828	0.307
318.15	0.09018	993.165	0.308
318.15	0.10009	993.48	0.309

System: 2-diphenylmethoxy-N,N-dimethylethanamine hydrochloride + water; phases: Liquid
Fixed: Pressure, kPa = 85.7
Fixed: Frequency, MHz = 3
Property: Speed of sound, m/s (Liquid); method: Single path-length method
Temperature, K	Molality, mol/kg of 2-diphenylmethoxy-N,N-dimethylethanamine hydrochloride	Speed of sound, m/s	uncertainty
288.15	0.0102	1468.67	1.02
288.15	0.02022	1470.8	1.03
288.15	0.03015	1472.88	1.03
288.15	0.04016	1474.97	1.04
288.15	0.05133	1477.17	1.04
288.15	0.05853	1478.61	1.05
288.15	0.06998	1480.93	1.06
288.15	0.07996	1482.65	1.07
288.15	0.09018	1484.66	1.08
288.15	0.10009	1486.46	1.09
293.15	0.0102	1484.62	1.02
293.15	0.02022	1486.62	1.03
293.15	0.03015	1488.56	1.03
293.15	0.04016	1490.48	1.04
293.15	0.05133	1492.58	1.04
293.15	0.05853	1493.89	1.05
293.15	0.06998	1495.97	1.05
293.15	0.07996	1497.74	1.06
293.15	0.09018	1499.51	1.07
293.15	0.10009	1501.22	1.05
298.15	0.0102	1498.72	1.02
298.15	0.02022	1500.49	1.03
298.15	0.03015	1502.23	1.03
298.15	0.04016	1504.03	1.03
298.15	0.05133	1505.98	1.04
298.15	0.05853	1507.19	1.05
298.15	0.06998	1509.16	1.05
298.15	0.07996	1510.78	1.06
298.15	0.09018	1512.44	1.06
298.15	0.10009	1513.95	1.03
308.15	0.0102	1520.98	1.02
308.15	0.02022	1522.58	1.02
308.15	0.03015	1524.16	1.03
308.15	0.04016	1525.72	1.03
308.15	0.05133	1527.38	1.03
308.15	0.05853	1528.46	1.04
308.15	0.06998	1530.07	1.04
308.15	0.07996	1531.5	1.05
308.15	0.09018	1532.86	1.05
308.15	0.10009	1534.22	1.03
318.15	0.0102	1537.3	1.02
318.15	0.02022	1538.58	1.02
318.15	0.03015	1539.89	1.03
318.15	0.04016	1541.25	1.03
318.15	0.05133	1542.69	1.03
318.15	0.05853	1543.65	1.03
318.15	0.06998	1545.13	1.04
318.15	0.07996	1546.37	1.04
318.15	0.09018	1547.58	1.05
318.15	0.10009	1548.8	1.05

System: 2-diphenylmethoxy-N,N-dimethylethanamine hydrochloride + water; phases: Liquid
Fixed: Pressure, kPa = 85.7
Property: Viscosity, Pa*s (Liquid); method: Falling or rolling sphere viscometry
Temperature, K	Molality, mol/kg of 2-diphenylmethoxy-N,N-dimethylethanamine hydrochloride	Viscosity, Pa*s	uncertainty
288.15	0.0102	0.00115	1.5e-05
288.15	0.02022	0.001162	1.5e-05
288.15	0.03015	0.001171	1.5e-05
288.15	0.04016	0.001181	1.5e-05
288.15	0.05133	0.001191	1.5e-05
288.15	0.05853	0.001199	1.5e-05
288.15	0.06998	0.00121	1.5e-05
288.15	0.07996	0.001222	1.5e-05
288.15	0.09018	0.001232	1.5e-05
288.15	0.10009	0.00124	1.5e-05
293.15	0.0102	0.001012	1.4e-05
293.15	0.02022	0.001023	1.4e-05
293.15	0.03015	0.001031	1.4e-05
293.15	0.04016	0.001039	1.4e-05
293.15	0.05133	0.001046	1.4e-05
293.15	0.05853	0.001054	1.4e-05
293.15	0.06998	0.001063	1.4e-05
293.15	0.07996	0.001073	1.4e-05
293.15	0.09018	0.001084	1.4e-05
293.15	0.10009	0.001089	1.5e-05
298.15	0.0102	0.0009	1.4e-05
298.15	0.02022	0.000909	1.4e-05
298.15	0.03015	0.000919	1.4e-05
298.15	0.04016	0.000927	1.4e-05
298.15	0.05133	0.000934	1.4e-05
298.15	0.05853	0.000939	1.4e-05
298.15	0.06998	0.000949	1.4e-05
298.15	0.07996	0.000957	1.4e-05
298.15	0.09018	0.000965	1.4e-05
298.15	0.10009	0.00097	1.4e-05
308.15	0.0102	0.000732	1.3e-05
308.15	0.02022	0.000739	1.3e-05
308.15	0.03015	0.000744	1.3e-05
308.15	0.04016	0.000749	1.3e-05
308.15	0.05133	0.000754	1.3e-05
308.15	0.05853	0.000758	1.3e-05
308.15	0.06998	0.000765	1.3e-05
308.15	0.07996	0.000773	1.3e-05
308.15	0.09018	0.00078	1.3e-05
308.15	0.10009	0.000788	1.5e-05
318.15	0.0102	0.000609	1.3e-05
318.15	0.02022	0.000619	1.3e-05
318.15	0.03015	0.000626	1.3e-05
318.15	0.04016	0.000635	1.3e-05
318.15	0.05133	0.00064	1.3e-05
318.15	0.05853	0.000645	1.3e-05
318.15	0.06998	0.000654	1.3e-05
318.15	0.07996	0.00066	1.3e-05
318.15	0.09018	0.000666	1.3e-05
318.15	0.10009	0.000674	1.3e-05

System: D-fructose + water; phases: Liquid
Fixed: Pressure, kPa = 85.7
Property: Mass density, kg/m3 (Liquid); method: Vibrating tube method
Temperature, K	Molality, mol/kg of D-fructose	Mass density, kg/m3	uncertainty
288.15	0.05	1002.769	0.314
288.15	0.1	1006.98	0.343
288.15	0.15	1010.844	0.381
293.15	0.05	1001.858	0.313
293.15	0.1	1005.745	0.341
293.15	0.15	1009.726	0.383
298.15	0.05	1000.691	0.31
298.15	0.1	1004.034	0.34
298.15	0.15	1008.415	0.394
308.15	0.05	997.612	0.31
308.15	0.1	1000.885	0.336
308.15	0.15	1004.981	0.375
318.15	0.05	993.835	0.309
318.15	0.1	997.071	0.329
318.15	0.15	1000.355	0.361

System: D-fructose + water; phases: Liquid
Fixed: Pressure, kPa = 85.7
Fixed: Frequency, MHz = 3
Property: Speed of sound, m/s (Liquid); method: Single path-length method
Temperature, K	Molality, mol/kg of D-fructose	Speed of sound, m/s	uncertainty
288.15	0.05	1470.38	1.03
288.15	0.1	1473.8	1.04
288.15	0.15	1477.31	1.05
293.15	0.05	1486.37	1.03
293.15	0.1	1489.52	1.03
293.15	0.15	1492.74	1.04
298.15	0.05	1500.38	1.03
298.15	0.1	1503.48	1.03
298.15	0.15	1506.3	1.03
308.15	0.05	1522.67	1.03
308.15	0.1	1525.32	1.03
308.15	0.15	1528.23	1.03
318.15	0.05	1538.7	1.02
318.15	0.1	1541.11	1.03
318.15	0.15	1543.92	1.04

System: D-fructose + water; phases: Liquid
Fixed: Pressure, kPa = 85.7
Property: Viscosity, Pa*s (Liquid); method: Falling or rolling sphere viscometry
Temperature, K	Molality, mol/kg of D-fructose	Viscosity, Pa*s	uncertainty
288.15	0.05	0.00116	1.5e-05
288.15	0.1	0.001205	1.5e-05
288.15	0.15	0.001225	1.5e-05
293.15	0.05	0.001029	1.4e-05
293.15	0.1	0.001052	1.4e-05
293.15	0.15	0.001083	1.5e-05
298.15	0.05	0.000912	1.4e-05
298.15	0.1	0.000939	1.4e-05
298.15	0.15	0.000958	1.4e-05
308.15	0.05	0.000743	1.3e-05
308.15	0.1	0.000755	1.3e-05
308.15	0.15	0.000775	1.3e-05
318.15	0.05	0.000622	1.3e-05
318.15	0.1	0.000641	1.3e-05
318.15	0.15	0.000643	1.3e-05

System: (+)-galactose + water; phases: Liquid
Fixed: Pressure, kPa = 85.7
Property: Mass density, kg/m3 (Liquid); method: Vibrating tube method
Temperature, K	Molality, mol/kg of (+)-galactose	Mass density, kg/m3	uncertainty
288.15	0.05	1002.98	0.357
288.15	0.15	1009.304	0.645
293.15	0.05	1001.914	0.361
293.15	0.15	1008.374	0.649
298.15	0.05	1000.545	0.363
298.15	0.15	1007.179	0.657
308.15	0.05	997.499	0.366
308.15	0.15	1004.068	0.644
318.15	0.05	993.633	0.361
318.15	0.15	1000.172	0.662

System: (+)-galactose + water; phases: Liquid
Fixed: Pressure, kPa = 85.7
Fixed: Frequency, MHz = 3
Property: Speed of sound, m/s (Liquid); method: Single path-length method
Temperature, K	Molality, mol/kg of (+)-galactose	Speed of sound, m/s	uncertainty
288.15	0.05	1470.01	1.05
288.15	0.15	1476.77	1.2
293.15	0.05	1486.09	1.05
293.15	0.15	1492.32	1.16
298.15	0.05	1500.02	1.05
298.15	0.15	1506.12	1.13
308.15	0.05	1522.4	1.05
308.15	0.15	1528.18	1.09
318.15	0.05	1538.53	1.04
318.15	0.15	1543.82	1.14

System: (+)-galactose + water; phases: Liquid
Fixed: Pressure, kPa = 85.7
Property: Viscosity, Pa*s (Liquid); method: Falling or rolling sphere viscometry
Temperature, K	Molality, mol/kg of (+)-galactose	Viscosity, Pa*s	uncertainty
288.15	0.05	0.001171	1.5e-05
288.15	0.15	0.001249	1.7e-05
293.15	0.05	0.001028	1.4e-05
293.15	0.15	0.001089	1.6e-05
298.15	0.05	0.000914	1.4e-05
298.15	0.15	0.000973	1.5e-05
308.15	0.05	0.000731	1.3e-05
308.15	0.15	0.000781	1.5e-05
318.15	0.05	0.000619	1.3e-05
318.15	0.15	0.000658	1.3e-05

System: 4-O-.beta.-D-galactopyranosyl-D-glucose + water; phases: Liquid
Fixed: Pressure, kPa = 85.7
Property: Mass density, kg/m3 (Liquid); method: Vibrating tube method
Temperature, K	Molality, mol/kg of 4-O-.beta.-D-galactopyranosyl-D-glucose	Mass density, kg/m3	uncertainty
288.15	0.05	1005.762	0.33
288.15	0.1	1012.376	0.387
288.15	0.15	1017.811	0.445
293.15	0.05	1004.835	0.33
293.15	0.1	1011.405	0.386
293.15	0.15	1016.834	0.441
298.15	0.05	1003.639	0.331
298.15	0.1	1010.174	0.386
298.15	0.15	1015.586	0.438
308.15	0.05	1000.573	0.331
308.15	0.1	1007.024	0.384
308.15	0.15	1012.387	0.433
318.15	0.05	996.706	0.329
318.15	0.1	1003.215	0.385
318.15	0.15	1008.578	0.442

System: 4-O-.beta.-D-galactopyranosyl-D-glucose + water; phases: Liquid
Fixed: Pressure, kPa = 85.7
Fixed: Frequency, MHz = 3
Property: Speed of sound, m/s (Liquid); method: Single path-length method
Temperature, K	Molality, mol/kg of 4-O-.beta.-D-galactopyranosyl-D-glucose	Speed of sound, m/s	uncertainty
288.15	0.05	1472.28	1.03
288.15	0.1	1478.23	1.05
288.15	0.15	1483.01	1.07
293.15	0.05	1488.24	1.03
293.15	0.1	1493.67	1.05
293.15	0.15	1498.38	1.06
298.15	0.05	1502.27	1.03
298.15	0.1	1507.5	1.05
298.15	0.15	1511.92	1.05
308.15	0.05	1524.38	1.03
308.15	0.1	1529.4	1.04
308.15	0.15	1533.21	1.04
318.15	0.05	1540.25	1.03
318.15	0.1	1544.9	1.04
318.15	0.15	1548.71	1.05

System: 4-O-.beta.-D-galactopyranosyl-D-glucose + water; phases: Liquid
Fixed: Pressure, kPa = 85.7
Property: Viscosity, Pa*s (Liquid); method: Falling or rolling sphere viscometry
Temperature, K	Molality, mol/kg of 4-O-.beta.-D-galactopyranosyl-D-glucose	Viscosity, Pa*s	uncertainty
288.15	0.05	0.001186	1.5e-05
288.15	0.1	0.001257	1.5e-05
288.15	0.15	0.001333	1.6e-05
293.15	0.05	0.001046	1.4e-05
293.15	0.1	0.001101	1.5e-05
293.15	0.15	0.001171	1.6e-05
298.15	0.05	0.000952	1.4e-05
298.15	0.1	0.000999	1.4e-05
298.15	0.15	0.001045	1.5e-05
308.15	0.05	0.000771	1.3e-05
308.15	0.1	0.000809	1.3e-05
308.15	0.15	0.000834	1.4e-05
318.15	0.05	0.000625	1.3e-05
318.15	0.1	0.000665	1.3e-05
318.15	0.15	0.000682	1.3e-05
