Measured thermophysical data. Calorimetric studies of Cu Li, Li Sn, and Cu Li Sn
Source: J. Chem. Thermodyn., 2013, 10.1016/j.jct.2013.01.030
Compound 1: copper, Cu, InChI=1S/Cu, purity 99.98%
Compound 2: lithium, Li, InChI=1S/Li, purity 99.8%
Compound 3: tin, Sn, InChI=1S/Sn, purity 99.9985%

System: lithium + copper; phases: Liquid
Fixed: Temperature, K = 1073
Fixed: Pressure, kPa = 101
Property: Molar enthalpy of solution, kJ/mol (Liquid); method: Calvet calorimetry
Mole fraction of copper	Molar enthalpy of solution, kJ/mol	uncertainty
0.0086	23.124	0.93
0.0179	22.843	0.924
0.0273	22.47	0.916
0.037	22.088	0.908
0.0471	21.623	0.897
0.0576	21.196	0.889
0.0683	20.852	0.88
0.0793	20.474	0.872
0.0904	20.144	0.866
0.1017	19.8	0.858
0.1134	19.502	0.851
0.1252	19.283	0.847
0.137	19.045	0.843
0.149	18.805	0.837
0.1612	18.527	0.83
0.1734	18.304	0.826
0.1855	18.03	0.82
0.1978	17.739	0.814
0.2099	17.465	0.808
0.2221	17.186	0.801
0.2341	16.888	0.795
0.2464	16.601	0.789
0.2585	16.322	0.783
0.2705	16.06	0.778
0.2824	15.836	0.772

System: lithium + tin; phases: Liquid
Fixed: Pressure, kPa = 101
Property: Molar enthalpy of solution, kJ/mol (Liquid); method: Calvet calorimetry
Temperature, K	Mole fraction of tin	Molar enthalpy of solution, kJ/mol	uncertainty
1073	0.0291	-183.228	8.154
1073	0.0575	-186.122	8.307
1073	0.0857	-189.663	8.493
1073	0.1134	-193.435	8.692
1073	0.1674	-200.688	9.074
1073	0.1935	-190.688	8.547
1073	0.2435	-153.267	6.574
1073	0.2674	-139.809	5.864
1073	0.2906	-127.942	5.239
1073	0.3132	-117.386	4.737
1073	0.3349	-108.048	4.344
1073	0.356	-99.667	4.03
1073	0.3763	-92.159	3.777
1073	0.3959	-85.397	3.567
1073	0.4147	-79.327	3.397
1073	0.4329	-73.82	3.25
1073	0.4502	-68.905	3.13
1073	0.4672	-64.323	3.022
1073	0.4837	-60.165	2.929
1073	0.4996	-56.341	2.848
1073	0.5146	-52.905	2.777
1073	0.5292	-49.716	2.715
1073	0.5433	-46.77	2.659
773	0.001	-166.064	2.607
773	0.0023	-163.05	2.555
773	0.0038	-162.272	2.542
773	0.0054	-163.314	2.559
773	0.0073	-163.517	2.564
773	0.0094	-163.592	2.566
773	0.0117	-166.746	2.62
773	0.0142	-171.233	2.699
773	0.0168	-175.579	2.775
773	0.0196	-178.741	2.83

System: lithium + tin; phases: Liquid
Fixed: Pressure, kPa = 101
Property: Molar enthalpy of solution, kJ/mol (Liquid); method: Calvet calorimetry
Temperature, K	Mole fraction of lithium	Molar enthalpy of solution, kJ/mol	uncertainty
1073	0.0167	-60.939	0.666
1073	0.0349	-60.007	0.653
1073	0.0551	-59.581	0.646
1073	0.0774	-58.925	0.636
1073	0.1037	-58.764	0.633
1073	0.1299	-58.299	0.627
1073	0.1586	-57.867	0.619
1073	0.1881	-57.924	0.62
1073	0.2164	-57.509	0.614
1073	0.2454	-57.362	0.612
1073	0.2735	-57.1	0.608
1073	0.3016	-56.851	0.603
1073	0.3296	-56.794	0.603
1073	0.3578	-56.666	0.601
1073	0.3851	-56.549	0.599
1073	0.4111	-56.417	0.597
1073	0.4358	-56.247	0.595
1073	0.4597	-56.086	0.592
1073	0.4833	-55.924	0.589
1073	0.5056	-55.756	0.586
1073	0.5269	-55.62	0.584
1073	0.5472	-55.388	0.582
1073	0.5664	-55.095	0.576
1073	0.5845	-54.784	0.571
1073	0.6019	-54.458	0.567
773	0.0155	-72.564	1.45
773	0.0366	-61.672	1.174
773	0.0606	-61.223	1.164
773	0.0867	-60.629	1.149
773	0.1145	-60.368	1.141
773	0.1443	-60.016	1.133
773	0.1751	-59.893	1.13
773	0.2056	-59.597	1.122
773	0.2369	-59.198	1.112
773	0.268	-59.101	1.11
773	0.299	-59.104	1.11
773	0.3297	-59.048	1.108
773	0.3592	-59.013	1.108
773	0.3882	-58.986	1.108
773	0.4158	-58.915	1.106
773	0.4422	-58.817	1.103
773	0.4676	-58.578	1.097
773	0.492	-58.102	1.085

System: lithium + tin + copper; phases: Liquid
Fixed: Pressure, kPa = 101
Fixed: Temperature, K = 1073
Property: Molar enthalpy of solution, kJ/mol (Liquid); method: Calvet calorimetry
Solvent: Mole fraction of tin	Mole fraction of lithium	Molar enthalpy of solution, kJ/mol	uncertainty
0.499	0.0184	-66.515	1.88
0.499	0.0421	-65.271	1.823
0.499	0.0686	-64.709	1.799
0.499	0.0958	-63.413	1.743
0.499	0.1246	-62.295	1.692
0.499	0.1554	-61.663	1.664
0.499	0.188	-60.577	1.616
0.499	0.2187	-59.329	1.559
0.499	0.2515	-58.712	1.533
0.499	0.284	-57.8	1.493
0.499	0.3161	-56.928	1.455
0.499	0.3476	-55.785	1.403
0.499	0.3777	-54.582	1.35
0.499	0.4058	-53.346	1.296
0.499	0.4334	-52.123	1.242
0.499	0.4598	-50.793	1.184
0.499	0.4852	-49.5	1.126
0.499	0.509	-48.239	1.07
0.499	0.5325	-46.878	1.01
0.499	0.5543	-45.5	0.95
0.499	0.5753	-44.026	0.886
0.499	0.5951	-42.485	0.825
0.499	0.6135	-40.973	0.776
0.499	0.6312	-39.311	0.746
0.499	0.6477	-37.615	0.726
0.59	0.0379	-62.861	1.31
0.59	0.0771	-63.63	1.336
0.59	0.116	-62.596	1.302
0.59	0.1542	-61.848	1.275
0.59	0.1922	-61.069	1.251
0.59	0.2289	-60.946	1.247
0.59	0.2648	-60.15	1.221
0.59	0.2986	-59.298	1.192
0.59	0.3319	-58.484	1.164
0.59	0.3633	-57.646	1.138
0.59	0.3938	-56.753	1.107
0.59	0.4229	-55.995	1.083
0.59	0.4501	-55.087	1.053
0.59	0.476	-54.128	1.02
0.59	0.5009	-53.034	0.984
0.59	0.5243	-51.944	0.948
0.59	0.5459	-50.857	0.912
0.59	0.5671	-49.728	0.876
0.799	0.0556	-60.926	0.691
0.799	0.1129	-58.697	0.661
0.799	0.1671	-57.903	0.639
0.799	0.2236	-57.711	0.639
0.799	0.2739	-57.41	0.636
0.799	0.3214	-57.169	0.632
0.799	0.3649	-56.792	0.623
0.799	0.41	-56.207	0.614
0.799	0.4517	-55.615	0.605
0.799	0.4906	-55.057	0.597
0.799	0.5259	-54.329	0.586
0.799	0.5577	-53.564	0.573
0.799	0.5876	-52.682	0.558
0.799	0.6144	-51.749	0.545
0.799	0.6402	-50.687	0.528
0.799	0.663	-49.65	0.512
0.799	0.6843	-48.566	0.493
0.799	0.7036	-47.493	0.476
0.799	0.7218	-46.349	0.459
0.799	0.7385	-45.23	0.441
0.799	0.7537	-43.945	0.421
0.799	0.7679	-42.429	0.397
0.799	0.7808	-40.588	0.37
0.799	0.7931	-38.564	0.339
0.799	0.8043	-36.478	0.31

System: lithium + tin + copper; phases: Liquid
Fixed: Pressure, kPa = 101
Fixed: Temperature, K = 1073
Property: Molar enthalpy of solution, kJ/mol (Liquid); method: Calvet calorimetry
Solvent: Mole fraction of tin	Mole fraction of copper	Molar enthalpy of solution, kJ/mol	uncertainty
0.8	0.0772	0.248	0.232
0.8	0.1459	-0.494	0.226
0.8	0.2104	-1.118	0.222
0.8	0.2694	-1.567	0.22
0.8	0.3226	-2.348	0.215
0.8	0.3714	-3.055	0.211
0.8	0.4158	-3.643	0.208
0.8	0.4562	-4.168	0.204
0.8	0.4925	-4.657	0.201
0.8	0.5258	-5.078	0.199
0.8	0.5557	-5.44	0.198
0.8	0.5832	-5.772	0.196
0.8	0.6083	-6.083	0.195
0.8	0.631	-6.279	0.193
0.8	0.6517	-6.455	0.192
0.8	0.6708	-6.548	0.192
0.8	0.6883	-6.576	0.192
0.8	0.7046	-6.56	0.192
0.8	0.7197	-6.475	0.192
0.8	0.7337	-6.37	0.193
0.8	0.7468	-6.202	0.195
0.5	0.046	-2.428	0.338
0.5	0.0899	-2.936	0.333
0.5	0.1341	-3.285	0.329
0.5	0.1763	-3.526	0.327
0.5	0.2194	-3.722	0.325
0.5	0.2601	-3.903	0.323
0.5	0.2983	-4.063	0.321
0.5	0.3351	-4.172	0.321
0.5	0.3691	-4.211	0.321
0.5	0.4017	-4.206	0.321
0.5	0.4325	-4.152	0.321
0.5	0.461	-4.04	0.323
0.5	0.4884	-3.911	0.323
0.5	0.514	-3.689	0.325
0.5	0.5387	-3.474	0.329
0.5	0.5615	-3.247	0.331
0.5	0.5829	-3.013	0.333
0.5	0.6032	-2.79	0.335
0.5	0.6224	-2.581	0.336
0.5	0.6398	-2.423	0.338
