Measured thermophysical data. Gas solubility of carbon dioxide and of oxygen in cyclohexanol by experiment and molecular simulation
Source: J. Chem. Thermodyn., 2012, 10.1016/j.jct.2012.01.017
Compound 1: oxygen, O2, InChI=1S/O2/c1-2, purity 99.995%
Compound 2: carbon dioxide, CO2, InChI=1S/CO2/c2-1-3, purity 99.995%
Compound 3: cyclohexanol, C6H12O, InChI=1S/C6H12O/c7-6-4-2-1-3-5-6/h6-7H,1-5H2, purity 99%

System: cyclohexanol + oxygen; phases: Liquid, Gas
Fixed: Mole fraction of oxygen = 0
Property: Henry's Law constant (mole fraction scale), kPa of oxygen (Liquid); method: gravimetric method
Temperature, K	Henry's Law constant (mole fraction scale), kPa of oxygen	uncertainty
303.8	197000	20000
313.6	201000	20000
352.9	174000	18000

System: cyclohexanol + oxygen; phases: Liquid, Gas
Property: Vapor or sublimation pressure, kPa (Liquid); method: Closed cell (Static) method
Temperature, K	Mole fraction of oxygen	Vapor or sublimation pressure, kPa	uncertainty
303.8	0.013	2690	200
303.8	0.022	4470	220
303.8	0.025	5280	230
303.8	0.034	7270	230
303.8	0.038	8210	240
303.8	0.046	10080	240
313.6	0.016	2770	230
313.6	0.022	4490	260
313.6	0.026	5320	230
313.6	0.029	6070	250
313.6	0.033	7070	230
313.6	0.037	7890	200
352.9	0.012	2170	190
352.9	0.019	3480	190
352.9	0.025	4570	190
352.9	0.027	4980	190
352.9	0.032	5890	200
352.9	0.034	6340	230

System: cyclohexanol + carbon dioxide; phases: Liquid, Gas
Fixed: Mole fraction of carbon dioxide = 0
Property: Henry's Law constant (mole fraction scale), kPa of carbon dioxide (Liquid); method: gravimetric method
Temperature, K	Henry's Law constant (mole fraction scale), kPa of carbon dioxide	uncertainty
303.8	22800	2300
313.6	27100	2700
352.9	33200	3400
392	37000	3700

System: cyclohexanol + carbon dioxide; phases: Liquid, Gas
Property: Vapor or sublimation pressure, kPa (Liquid); method: Closed cell (Static) method
Temperature, K	Mole fraction of carbon dioxide	Vapor or sublimation pressure, kPa	uncertainty
303.8	0.049	1090	50
303.8	0.081	1790	50
303.8	0.115	2520	50
303.8	0.145	3170	50
303.8	0.17	3690	50
303.8	0.197	4190	50
303.8	0.225	4690	50
303.8	0.263	5350	50
303.8	0.297	5910	50
303.8	0.347	6850	50
313.6	0.049	1260	50
313.6	0.078	2000	50
313.6	0.092	2280	50
313.6	0.115	2780	50
313.6	0.141	3350	50
313.6	0.166	3910	50
313.6	0.189	4440	50
313.6	0.219	5050	50
313.6	0.245	5590	50
313.6	0.277	6260	50
313.6	0.308	6870	50
352.9	0.043	1400	50
352.9	0.064	2000	50
352.9	0.082	2580	50
352.9	0.104	3220	50
352.9	0.124	3770	50
352.9	0.144	4380	50
352.9	0.164	4980	50
352.9	0.186	5650	50
352.9	0.206	6250	50
352.9	0.229	6920	60
352.9	0.244	7350	60
392	0.041	1480	50
392	0.046	1650	50
392	0.059	2090	50
392	0.06	2130	50
392	0.078	2760	50
392	0.096	3360	50
392	0.115	3960	50
392	0.132	4600	60
392	0.15	5170	60
392	0.171	5900	60
392	0.187	6450	60
392	0.206	7070	60
392	0.223	7690	60
