Measured thermophysical data. Experimental result and data correlation of liquid-liquid equilibrium for methyl isopropyl ketone + o, m, p-dihydroxybenzene + water at 333.15 K, 343.15 K and 353.15 K
Source: J. Chem. Thermodyn., 2019, 10.1016/j.jct.2018.08.041
Compound 1: 1,2-benzenediol, C6H6O2, InChI=1S/C6H6O2/c7-5-3-1-2-4-6(5)8/h1-4,7-8H, purity 99%
Compound 2: 1,3-benzenediol, C6H6O2, InChI=1S/C6H6O2/c7-5-2-1-3-6(8)4-5/h1-4,7-8H, purity 99%
Compound 3: 1,4-benzenediol, C6H6O2, InChI=1S/C6H6O2/c7-5-1-2-6(8)4-3-5/h1-4,7-8H, purity 99%
Compound 4: 3-methyl-2-butanone, C5H10O, InChI=1S/C5H10O/c1-4(2)5(3)6/h4H,1-3H3, purity 99%
Compound 5: water, H2O, InChI=1S/H2O/h1H2, purity 99.8%

System: 3-methyl-2-butanone + 1,2-benzenediol + water; phases: Liquid mixture 2, Liquid mixture 1
Fixed: Pressure, kPa = 101.3
Property: Mass fraction of 1,2-benzenediol (Liquid mixture 2); method: Chromatography
Property: Mass fraction of 1,2-benzenediol (Liquid mixture 1); method: Chromatography
Property: Mass fraction of 3-methyl-2-butanone (Liquid mixture 1); method: Chromatography
Temperature, K	Mass fraction of 3-methyl-2-butanone	Mass fraction of 1,2-benzenediol	uncertainty	Mass fraction of 1,2-benzenediol	uncertainty	Mass fraction of 3-methyl-2-butanone	uncertainty
333.15	0.0437	0.0025	0.0025	0.0598	0.0356	0.8879	
333.15	0.042	0.0041	0.0026	0.0868	0.0345	0.8589	
333.15	0.0403	0.0052	0.0027	0.1057	0.0346	0.8367	
333.15	0.0376	0.0075	0.0027	0.1323	0.0342	0.8054	
333.15	0.035	0.0095	0.0026	0.1623	0.0346	0.771	
333.15	0.0331	0.0111	0.0026	0.189	0.0351	0.7412	
333.15	0.0309	0.0128	0.0026	0.2135	0.035	0.7141	
333.15	0.0289	0.0142	0.0025	0.2348	0.0352	0.6909	
343.15	0.0432	0.0029	0.0027	0.0599	0.0357	0.886	
343.15	0.0411	0.0047	0.0025	0.0879	0.0345	0.8562	
343.15	0.0395	0.0059	0.0026	0.1071	0.0347	0.8336	
343.15	0.0365	0.0081	0.0026	0.1345	0.0344	0.8016	
343.15	0.0338	0.0103	0.0027	0.1656	0.0347	0.7663	
343.15	0.0313	0.0123	0.0026	0.1912	0.035	0.7376	
343.15	0.029	0.0141	0.0026	0.2155	0.035	0.711	
343.15	0.0266	0.0158	0.0025	0.2366	0.0351	0.6875	
353.15	0.0426	0.0033	0.0026	0.0612	0.0357	0.8832	
353.15	0.04	0.0054	0.0026	0.0886	0.0345	0.854	
353.15	0.0384	0.0067	0.0026	0.1084	0.0346	0.8307	
353.15	0.0356	0.0089	0.0026	0.1365	0.0343	0.7979	
353.15	0.0322	0.0117	0.0027	0.1668	0.0348	0.7634	
353.15	0.0297	0.0137	0.0025	0.1926	0.0349	0.735	
353.15	0.027	0.0155	0.0024	0.2161	0.0351	0.7091	
353.15	0.0249	0.0172	0.0025	0.2378	0.0348	0.6843	

System: 3-methyl-2-butanone + 1,3-benzenediol + water; phases: Liquid mixture 2, Liquid mixture 1
Fixed: Pressure, kPa = 101.3
Property: Mass fraction of 3-methyl-2-butanone (Liquid mixture 2); method: Chromatography
Property: Mass fraction of 3-methyl-2-butanone (Liquid mixture 1); method: Chromatography
Property: Mass fraction of 1,3-benzenediol (Liquid mixture 1); method: Chromatography
Temperature, K	Mass fraction of 1,3-benzenediol	Mass fraction of 3-methyl-2-butanone	uncertainty	Mass fraction of 3-methyl-2-butanone	uncertainty	Mass fraction of 1,3-benzenediol	uncertainty
333.15	0.0021	0.044	0.0019	0.9282	0.0412	0.0214	
333.15	0.0059	0.042	0.0019	0.8968	0.0444	0.0473	
333.15	0.0116	0.0426	0.0019	0.8541	0.0443	0.0788	
333.15	0.0172	0.0405	0.0027	0.8215	0.0447	0.1059	
333.15	0.0221	0.0377	0.0021	0.791	0.0446	0.1272	
333.15	0.0292	0.0372	0.0023	0.7459	0.0473	0.1618	
333.15	0.0326	0.0347	0.0022	0.729	0.0453	0.1734	
333.15	0.0352	0.033	0.0035	0.7037	0.0518	0.1865	
343.15	0.0025	0.0419	0.0023	0.9256	0.0414	0.0221	
343.15	0.0072	0.0396	0.0024	0.894	0.0447	0.0487	
343.15	0.0135	0.0376	0.0019	0.8506	0.0442	0.0796	
343.15	0.0207	0.0384	0.0018	0.8138	0.0446	0.1113	
343.15	0.0261	0.0377	0.0023	0.7835	0.0445	0.1299	
343.15	0.0348	0.034	0.0031	0.7426	0.0465	0.1632	
343.15	0.0381	0.033	0.0027	0.7261	0.0443	0.1741	
343.15	0.0413	0.0285	0.004	0.7005	0.0535	0.1874	
353.15	0.0029	0.0407	0.0026	0.923	0.0416	0.0229	
353.15	0.0085	0.0371	0.0021	0.892	0.0444	0.0496	
353.15	0.0159	0.0373	0.0019	0.8469	0.0447	0.0819	
353.15	0.0249	0.035	0.0018	0.8065	0.0448	0.1149	
353.15	0.0296	0.0381	0.0024	0.7773	0.0448	0.1328	
353.15	0.0392	0.0306	0.0027	0.735	0.0433	0.1673	
353.15	0.0431	0.0301	0.0031	0.7086	0.048	0.1786	
353.15	0.0459	0.0306	0.0018	0.6963	0.0469	0.1892	

System: 3-methyl-2-butanone + 1,4-benzenediol + water; phases: Liquid mixture 2, Liquid mixture 1
Fixed: Pressure, kPa = 101.3
Property: Mass fraction of 3-methyl-2-butanone (Liquid mixture 2); method: Chromatography
Property: Mass fraction of 1,4-benzenediol (Liquid mixture 1); method: Chromatography
Property: Mass fraction of 3-methyl-2-butanone (Liquid mixture 1); method: Chromatography
Temperature, K	Mass fraction of 1,4-benzenediol	Mass fraction of 3-methyl-2-butanone	uncertainty	Mass fraction of 1,4-benzenediol	uncertainty	Mass fraction of 3-methyl-2-butanone	uncertainty
333.15	0.0031	0.0455	0.0018	0.0291	0.0237	0.9237	
333.15	0.0057	0.0447	0.0015	0.0497	0.023	0.8971	
333.15	0.0081	0.0437	0.0018	0.0651	0.0231	0.8775	
333.15	0.0094	0.0442	0.0022	0.0724	0.0234	0.8642	
333.15	0.0116	0.0423	0.0023	0.0869	0.0232	0.8445	
333.15	0.0156	0.039	0.002	0.111	0.0229	0.8156	
333.15	0.0182	0.039	0.002	0.1269	0.023	0.7943	
333.15	0.0227	0.0367	0.002	0.1539	0.0217	0.7525	
343.15	0.0035	0.0454	0.0016	0.0296	0.0236	0.9226	
343.15	0.0066	0.0448	0.0016	0.0506	0.0229	0.8951	
343.15	0.0093	0.0439	0.002	0.0664	0.0229	0.875	
343.15	0.0106	0.0439	0.0022	0.0738	0.023	0.8614	
343.15	0.0132	0.04	0.0023	0.0878	0.0226	0.8409	
343.15	0.0174	0.0389	0.0018	0.113	0.0228	0.8094	
343.15	0.0198	0.0383	0.0017	0.1278	0.023	0.7901	
343.15	0.0241	0.0362	0.0019	0.1544	0.0219	0.749	
353.15	0.0038	0.0455	0.0014	0.0299	0.0236	0.9214	
353.15	0.0073	0.0454	0.0016	0.0518	0.0238	0.8927	
353.15	0.0107	0.0435	0.0021	0.0698	0.0217	0.8703	
353.15	0.0122	0.0423	0.0021	0.0773	0.0219	0.8549	
353.15	0.0149	0.0412	0.0022	0.0919	0.0236	0.8315	
353.15	0.0201	0.0381	0.0019	0.119	0.0231	0.7999	
353.15	0.0221	0.0381	0.0019	0.1296	0.0233	0.7837	
353.15	0.0268	0.0361	0.0019	0.1559	0.0223	0.7452	
