Measured thermophysical data. Experimental determination of thermodynamic characteristics of smithsonite
Source: J. Chem. Thermodyn., 2012, 10.1016/j.jct.2012.02.028
Compound 1: zinc(II) carbonate, CO3Zn, InChI=1S/CH2O3.Zn/c2-1(3)4;/h(H2,2,3,4);/q;+2/p-2

System: zinc(II) carbonate; phases: Crystal
Fixed: Pressure, kPa = 101.325
Property: Molar heat capacity at constant pressure, J/K/mol (Crystal); method: Vacuum adiabatic calorimetry
Temperature, K	Molar heat capacity at constant pressure, J/K/mol	uncertainty
4.3969	0.009408	0.007812
4.3988	0.007545	0.007799
4.7567	0.006774	0.007793
4.7741	0.006545	0.007791
5.1011	0.008038	0.007801
5.1554	0.008164	0.007802
5.3459	0.010836	0.00782
5.4234	0.0117	0.007826
5.5819	0.011315	0.007823
5.6879	0.00813	0.007801
5.8165	0.014085	0.007841
5.9458	0.013175	0.007835
6.0604	0.0142	0.007842
6.2854	0.01382	0.007838
6.3976	0.015847	0.007852
6.7229	0.016014	0.007852
6.8237	0.019611	0.007875
7.156	0.023262	0.007898
7.2539	0.023315	0.007898
7.6015	0.02683	0.00792
7.6916	0.02785	0.007926
8.0543	0.030963	0.007944
8.1338	0.032045	0.00795
8.5087	0.035158	0.007968
8.5758	0.037742	0.007984
8.9611	0.041027	0.008002
9.0211	0.04305	0.008015
9.4117	0.047904	0.008042
9.4676	0.050131	0.008056
9.8621	0.055473	0.008085
9.9152	0.058293	0.008102
10.54	0.072942	0.008183
10.593	0.074766	0.008193
11.452	0.093577	0.008292
11.5	0.096044	0.008306
12.369	0.11933	0.00842
12.413	0.12148	0.00845
13.291	0.15172	0.00896
13.333	0.15302	0.00898
14.218	0.19277	0.00973
14.257	0.19302	0.00974
15.146	0.24496	0.01082
15.184	0.24461	0.01081
16.082	0.29916	0.01203
16.116	0.29856	0.01202
17.024	0.35951	0.01347
17.055	0.36077	0.0135
17.967	0.44614	0.01563
17.993	0.44629	0.01563
18.908	0.53504	0.01792
18.932	0.54069	0.01807
19.853	0.63053	0.02046
19.88	0.63464	0.02057
21.265	0.8212	0.02563
21.294	0.82431	0.02571
23.139	1.09127	0.03309
23.168	1.0958	0.0332
25.058	1.4387	0.0428
26.95	1.8415	0.0541
28.853	2.3099	0.0674
30.766	2.8361	0.0874
32.689	3.4015	0.1028
34.617	4.0376	0.1204
36.325	4.6071	0.1363
36.556	4.711	0.1392
38.498	5.4456	0.1599
38.575	5.4657	0.1605
40.516	6.2527	0.0471
42.462	7.0472	0.0503
44.411	7.863	0.0537
46.364	8.6994	0.0572
48.322	9.5725	0.0609
50.28	10.503	0.065
52.242	11.482	0.069
54.206	12.473	0.074
56.176	13.401	0.078
58.151	14.278	0.082
60.126	15.336	0.087
62.102	16.363	0.091
64.083	17.362	0.096
66.067	18.358	0.1
68.033	19.3	0.105
69.939	20.267	0.109
72.363	21.492	0.115
75.352	22.967	0.122
78.352	24.458	0.129
79.923	25.189	0.132
83.206	26.771	0.089
86.229	28.213	0.092
89.263	29.611	0.096
92.302	31.005	0.179
95.352	32.37	0.18
98.413	33.682	0.181
101.48	34.994	0.183
104.55	36.233	0.185
107.64	37.467	0.187
110.74	38.65	0.189
113.84	39.826	0.191
116.95	40.982	0.193
120.07	42.091	0.195
123.2	43.184	0.196
126.34	44.262	0.198
129.51	45.308	0.2
132.66	46.33	0.202
135.83	47.337	0.204
139	48.318	0.205
142.19	49.323	0.207
145.38	50.234	0.209
148.58	51.144	0.21
151.79	52.145	0.212
155.01	53.016	0.214
158.25	53.931	0.215
161.49	54.752	0.217
164.72	55.638	0.218
167.92	56.449	0.22
171.08	57.17	0.221
174.21	57.906	0.222
177.3	58.715	0.224
180.39	59.373	0.225
183.43	60.038	0.226
186.44	60.809	0.228
189.44	61.494	0.229
192.42	62.167	0.23
195.37	62.725	0.231
198.3	63.332	0.233
201.2	63.907	0.234
204.09	64.502	0.235
206.97	65.04	0.236
209.83	65.682	0.237
212.67	66.316	0.238
215.51	66.8	0.239
218.32	67.426	0.24
221.12	67.908	0.241
223.9	68.468	0.242
226.71	68.961	0.243
229.46	69.587	0.245
232.21	70.185	0.246
234.93	70.685	0.247
237.65	71.17	0.248
240.37	71.483	0.248
243.07	71.892	0.249
245.76	72.452	0.25
248.45	72.824	0.251
251.12	73.384	0.252
253.79	73.809	0.253
256.45	74.149	0.253
259.09	74.663	0.254
261.74	75.209	0.255
264.38	75.754	0.257
267.01	76.21	0.257
269.71	76.368	0.258
272.34	76.67	0.258
274.96	77.023	0.259
277.57	77.355	0.26
280.18	77.766	0.26
282.78	78.17	0.261
285.37	78.557	0.262
287.95	78.938	0.263
290.53	79.312	0.264
293.11	79.672	0.264
295.68	80.035	0.265
298.24	80.384	0.266
300.8	80.738	0.266
303.36	81.104	0.267
305.91	81.417	0.268
308.46	81.767	0.268
311.15	82.055	0.269
313.7	82.398	0.27
316.26	82.709	0.27
318.8	82.997	0.271
321.35	83.284	0.271

System: zinc(II) carbonate; phases: Crystal
Fixed: Pressure, kPa = 101.325
Property: Molar heat capacity at constant pressure, J/K/mol (Crystal); method: Vacuum adiabatic calorimetry
Temperature, K	Molar heat capacity at constant pressure, J/K/mol	uncertainty
5	0.00773	0.01007
10	0.05961	0.01047
15	0.2346	0.0116
20	0.6547	0.0137
25	1.427	0.017
30	2.613	0.045
35	4.162	0.048
40	6.03	0.052
45	8.122	0.056
50	10.39	0.06
55	12.79	0.07
60	15.28	0.07
65	17.8	0.08
70	20.32	0.08
75	22.79	0.09
80	25.24	0.09
85	27.63	0.1
90	29.96	0.23
95	32.21	0.23
100	34.37	0.23
105	36.41	0.24
110	38.38	0.24
115	40.26	0.24
120	42.07	0.24
130	45.47	0.25
140	48.63	0.25
150	51.6	0.25
160	54.36	0.25
170	56.93	0.26
180	59.33	0.26
190	61.57	0.26
200	63.68	0.26
210	65.75	0.27
220	67.73	0.27
230	69.62	0.27
240	71.45	0.27
250	73.2	0.27
260	74.88	0.27
270	76.38	0.28
273.15	76.84	0.28
280	77.83	0.28
290	79.24	0.28
298.15	80.36	0.28
300	80.6	0.28
310	81.91	0.28
320	83.17	0.28

System: zinc(II) carbonate; phases: Crystal
Fixed: Pressure, kPa = 101.325
Property: Molar enthalpy, kJ/mol (Crystal); method: Vacuum adiabatic calorimetry
Temperature, K	Molar enthalpy, kJ/mol	uncertainty
5	9.66e-06	5.009e-05
10	0.0001495	0.0001012
15	0.0008083	0.0001554
20	0.00289	0.000216
25	0.007932	0.000286
30	0.01788	0.00124
35	0.03467	0.00147
40	0.06003	0.00172
45	0.09533	0.00199
50	0.1415	0.0023
55	0.1995	0.0026
60	0.2696	0.0029
65	0.3523	0.0033
70	0.4476	0.0037
75	0.5554	0.0041
80	0.6755	0.0046
85	0.8077	0.005
90	0.9517	0.019
95	1.1071	0.0201
100	1.2736	0.0213
105	1.4506	0.0225
110	1.6376	0.0236
115	1.8342	0.0248
120	2.0401	0.026
130	2.478	0.0285
140	2.9487	0.031
150	3.4501	0.0335
160	3.9801	0.036
170	4.5367	0.0385
180	5.1182	0.0411
190	5.7228	0.0437
200	6.3492	0.0464
210	6.9964	0.049
220	7.6639	0.0517
230	8.3507	0.0544
240	9.0561	0.0571
250	9.7794	0.0598
260	10.52	0.063
270	11.276	0.065
273.15	11.518	0.066
280	12.047	0.068
290	12.833	0.071
298.15	13.483	0.073
300	13.632	0.074
310	14.445	0.076
320	15.27	0.079

System: zinc(II) carbonate; phases: Crystal
Fixed: Pressure, kPa = 101.325
Property: Molar entropy, J/K/mol (Crystal); method: Vacuum adiabatic calorimetry
Temperature, K	Molar entropy, J/K/mol	uncertainty
5	0.00258	0.01503
10	0.02006	0.01523
15	0.07123	0.01572
20	0.1881	0.0166
25	0.41	0.0178
30	0.7694	0.0623
35	1.284	0.064
40	1.959	0.066
45	2.788	0.068
50	3.759	0.071
55	4.862	0.075
60	6.081	0.078
65	7.403	0.082
70	8.815	0.086
75	10.3	0.09
80	11.85	0.1
85	13.45	0.1
90	15.1	0.32
95	16.78	0.33
100	18.49	0.33
105	20.21	0.33
110	21.95	0.33
115	23.7	0.34
120	25.45	0.34
130	28.95	0.34
140	32.44	0.35
150	35.9	0.35
160	39.32	0.36
170	42.69	0.36
180	46.02	0.37
190	49.28	0.37
200	52.5	0.38
210	55.65	0.38
220	58.75	0.39
230	61.8	0.39
240	64.79	0.4
250	67.73	0.4
260	70.62	0.41
270	73.48	0.41
273.15	74.37	0.41
280	76.29	0.41
290	79.055	0.419
298.15	81.28	0.42
300	81.78	0.42
310	84.45	0.43
320	87.09	0.43
