Measured thermophysical data. Standard molar enthalpy of combustion and formation of enantiomers: (S)-(+)-3,5-Dinitro-N-(1-phenylethyl)benzamide and (R)-(-)-3,5-Dinitro-N-(1-phenylethyl)benzamide
Source: J. Chem. Thermodyn., 2013, 10.1016/j.jct.2013.05.010
Compound 1: carbon dioxide, CO2, InChI=1S/CO2/c2-1-3
Compound 2: nitrogen, N2, InChI=1S/N2/c1-2
Compound 3: water, H2O, InChI=1S/H2O/h1H2
Compound 4: (S)-(+)-3,5-dinitro-N-(1-phenylethyl)benzamide, C15H13N3O5, InChI=1S/C15H13N3O5/c1-10(11-5-3-2-4-6-11)16-15(19)12-7-13(17(20)21)9-14(8-12)18(22)23/h2-10H,1H3,(H,16,19)/t10-/m0/s1, purity 98%
Compound 5: (R)-(-)-3,5-dinitro-N-(1-phenylethyl)benzamide, C15H13N3O5, InChI=1S/C15H13N3O5/c1-10(11-5-3-2-4-6-11)16-15(19)12-7-13(17(20)21)9-14(8-12)18(22)23/h2-10H,1H3,(H,16,19)/t10-/m1/s1, purity 99%
Compound 6: oxygen, O2, InChI=1S/O2/c1-2, purity 99.999%

System: (S)-(+)-3,5-dinitro-N-(1-phenylethyl)benzamide; phases: Crystal
Property: Mass density, kg/m3 (Crystal); method: OTHER: mass to volumesMethod:from the ratio mass/volume of a pelletFP
Temperature, K	Pressure, kPa	Mass density, kg/m3	uncertainty
298.15	101.325	1430	290

System: (R)-(-)-3,5-dinitro-N-(1-phenylethyl)benzamide; phases: Crystal
Property: Mass density, kg/m3 (Crystal); method: OTHER: mass to volumesMethod
Temperature, K	Pressure, kPa	Mass density, kg/m3	uncertainty
298.15	101.325	1410	280

Reaction: -1 (S)-(+)-3,5-dinitro-N-(1-phenylethyl)benzamide + 15 carbon dioxide + 1.5 nitrogen + 6.5 water + -15.75 oxygen
Property: Specific internal energy of reaction at constant volume, J/g
-24535.8

Reaction: -1 (R)-(-)-3,5-dinitro-N-(1-phenylethyl)benzamide + 15 carbon dioxide + 1.5 nitrogen + 6.5 water + -15.75 oxygen
Property: Specific internal energy of reaction at constant volume, J/g
-24541.2
