Measured thermophysical data. Apparent molar volumes and apparent molar heat capacities of aqueous barium nitrate at temperatures from (278.15 to 393.15) K and at the pressure 0.35 MPa
Source: J. Chem. Thermodyn., 2004, 10.1016/j.jct.2004.01.003
Compound 1: water, H2O, InChI=1S/H2O/h1H2
Compound 2: barium dinitrate, BaN2O6, InChI=1S/Ba.2NO3/c;2*2-1(3)4/q+2;2*-1

System: water + barium dinitrate; phases: Liquid
Fixed: Pressure, kPa = 350
Property: Apparent molar heat capacity, J/K/mol (Liquid); method: DIFFLOW:UFactor:0.5
Temperature, K	Molality, mol/kg of barium dinitrate	Apparent molar heat capacity, J/K/mol	uncertainty
278.15	0.00258	-324.9	65.2
278.15	0.00508	-328.5	33.5
278.15	0.01114	-319.4	14.8
278.15	0.02026	-297.1	8.4
278.15	0.02886	-284.3	6.2
278.15	0.03945	-264.8	5
278.15	0.05028	-249.3	11
278.15	0.07046	-226.9	8.3
278.15	0.10046	-196.7	6.3
278.15	0.18986	-123.6	3.4
283.15	0.00258	-280.4	65.7
283.15	0.00508	-281	33.7
283.15	0.01114	-271.1	15
283.15	0.02026	-250.8	8.5
283.15	0.02886	-239.4	6.3
283.15	0.03945	-222.5	5.1
283.15	0.05028	-209	7.9
283.15	0.07046	-189.2	6.1
283.15	0.10046	-163.1	5
283.15	0.18986	-99.3	3.4
288.15	0.00258	-240.3	65
288.15	0.00508	-244.8	33.1
288.15	0.01114	-232.3	14.8
288.15	0.02026	-214.2	8.4
288.15	0.02886	-204.7	6.3
288.15	0.03945	-189.8	5
288.15	0.05028	-177.9	5.5
288.15	0.07046	-160.3	4.6
288.15	0.10046	-137.3	4
288.15	0.18986	-81.2	3.3
293.15	0.00258	-213.3	65.5
293.15	0.00508	-218.5	33.5
293.15	0.01114	-202.4	15
293.15	0.02026	-186.6	8.6
293.15	0.02886	-177.2	6.3
293.15	0.03945	-164.2	5.1
293.15	0.05028	-153.5	5.1
293.15	0.07046	-137.6	4.2
293.15	0.10046	-117.2	3.8
293.15	0.18986	-67.1	3.2
298.15	0.00258	-188.3	65.4
298.15	0.00508	-192.7	33.3
298.15	0.01114	-180.1	15
298.15	0.02026	-165	8.5
298.15	0.02886	-156.4	6.3
298.15	0.03945	-144.2	5.1
298.15	0.05028	-134.3	4.9
298.15	0.07046	-119.7	4.1
298.15	0.10046	-101.3	3.6
298.15	0.18986	-56.1	3.2
303.15	0.00257	-170.7	65.4
303.15	0.00507	-174.8	33.3
303.15	0.0111	-161.8	15
303.15	0.02018	-147	8.6
303.15	0.02875	-139.4	6.4
303.15	0.0393	-127.8	5.1
303.15	0.05009	-118.5	4.8
303.15	0.07018	-105	4
303.15	0.10007	-88.2	3.7
303.15	0.1891	-47	3.2
308.15	0.00257	-154.4	65.7
308.15	0.00507	-158.4	33.5
308.15	0.0111	-145.5	15.1
308.15	0.02018	-131.9	8.6
308.15	0.02875	-125.4	6.5
308.15	0.0393	-114.1	5.1
308.15	0.05009	-105.6	4.7
308.15	0.07018	-93.2	4
308.15	0.10007	-77.7	3.6
308.15	0.1891	-39.9	3.3
313.15	0.00257	-138.6	66.4
313.15	0.00507	-146.5	33.7
313.15	0.0111	-132.7	15.2
313.15	0.02018	-121.2	8.6
313.15	0.02875	-114.4	6.4
313.15	0.0393	-103.7	5.2
313.15	0.05009	-95.8	4.7
313.15	0.07018	-83.9	4
313.15	0.10007	-69.5	3.6
313.15	0.1891	-34.4	3.2
318.15	0.00257	-126.1	66.4
318.15	0.00507	-135.2	33.8
318.15	0.0111	-123.5	15.3
318.15	0.02018	-110.9	8.6
318.15	0.02875	-106.1	6.5
318.15	0.0393	-96	5.2
318.15	0.05009	-88.3	4.7
318.15	0.07018	-77.1	4
318.15	0.10007	-63.4	3.6
318.15	0.1891	-30.6	3.2
323.15	0.00257	-119	66.1
323.15	0.00507	-127.6	33.5
323.15	0.0111	-116	15.1
323.15	0.02018	-104	8.6
323.15	0.02875	-99.7	6.5
323.15	0.0393	-89.8	5.3
323.15	0.05009	-82.3	4.7
323.15	0.07018	-71.4	4
323.15	0.10007	-58.3	3.6
323.15	0.1891	-27.5	3.2
328.15	0.00258	-117.1	65.7
328.15	0.00508	-122.1	33.7
328.15	0.01114	-111.5	15.2
328.15	0.02026	-99.4	8.6
328.15	0.02886	-94.9	6.6
328.15	0.03945	-85.2	5.3
328.15	0.05028	-77.7	4.7
328.15	0.07046	-67.4	4
328.15	0.10046	-54.9	3.6
328.15	0.18986	-25.5	3.2
333.15	0.00258	-112.5	65.6
333.15	0.00508	-117	33.7
333.15	0.01114	-107.4	15.2
333.15	0.02026	-95.4	8.7
333.15	0.02886	-91.1	6.7
333.15	0.03945	-81.3	5.3
333.15	0.05028	-74.1	4.7
333.15	0.07046	-64.3	4
333.15	0.10046	-52.1	3.6
333.15	0.18986	-24.1	3.2
338.15	0.00258	-114.9	65.4
338.15	0.00508	-113.1	33.4
338.15	0.01114	-104.4	15.1
338.15	0.02026	-92.8	8.6
338.15	0.02886	-88.8	6.5
338.15	0.03945	-79.3	5.2
338.15	0.05028	-72.3	4.6
338.15	0.07046	-62.6	3.9
338.15	0.10046	-50.8	3.5
338.15	0.18986	-23.8	3.2
343.15	0.00258	-111.7	65.4
343.15	0.00508	-113.6	33.4
343.15	0.01114	-104	15.1
343.15	0.02026	-92.4	8.6
343.15	0.02886	-88	6.6
343.15	0.03945	-78.6	5.3
343.15	0.05028	-71.7	4.6
343.15	0.07046	-62	4
343.15	0.10046	-50.5	3.5
343.15	0.18986	-24.4	3.2
348.15	0.00258	-114.3	65.6
348.15	0.00508	-114.1	33.7
348.15	0.01114	-104.5	15.2
348.15	0.02026	-92.3	8.6
348.15	0.02886	-88.4	6.6
348.15	0.03945	-78.9	5.3
348.15	0.05028	-71.8	4.6
348.15	0.07046	-62.5	4
348.15	0.10046	-51.1	3.5
348.15	0.18986	-25.6	3.3
353.15	0.00258	-109.1	65.8
353.15	0.00508	-113.7	33.6
353.15	0.01114	-104.8	15.1
353.15	0.02026	-93.1	8.6
353.15	0.02886	-89.2	6.5
353.15	0.03945	-79.9	5.2
353.15	0.05028	-72.7	4.6
353.15	0.07046	-63.6	4
353.15	0.10046	-52.1	3.6
353.15	0.18986	-27.3	3.3
358.15	0.00258	-112.6	65.8
358.15	0.00508	-114.6	33.5
358.15	0.01114	-106	15.1
358.15	0.02026	-94.6	8.6
358.15	0.02886	-90.6	6.6
358.15	0.03945	-81.5	5.2
358.15	0.05028	-74.5	4.7
358.15	0.07046	-65.1	4
358.15	0.10046	-53.7	3.6
358.15	0.18986	-29.3	3.3
363.15	0.00258	-117.5	65.8
363.15	0.00508	-117	33.6
363.15	0.01114	-108.7	15.2
363.15	0.02026	-97.9	8.6
363.15	0.02886	-93.7	6.6
363.15	0.03945	-84.3	5.2
363.15	0.05028	-77.3	4.6
363.15	0.07046	-67.6	3.9
363.15	0.10046	-56.3	3.6
363.15	0.18986	-32.2	3.2
368.15	0.00258	-117.6	65.8
368.15	0.00508	-122	33.6
368.15	0.01114	-113	15.1
368.15	0.02026	-102.1	8.6
368.15	0.02886	-97.7	6.5
368.15	0.03945	-88.1	5.2
368.15	0.05028	-80.9	4.6
368.15	0.07046	-71.2	3.9
368.15	0.10046	-59.9	3.6
368.15	0.18986	-35.9	3.2
373.15	0.00258	-125.6	66.1
373.15	0.00508	-126.4	33.5
373.15	0.01114	-119.2	15.1
373.15	0.02026	-107.4	8.6
373.15	0.02886	-102.9	6.5
373.15	0.03945	-92.9	5.2
373.15	0.05028	-85.4	4.6
373.15	0.07046	-75.6	3.9
373.15	0.10046	-64.3	3.5
373.15	0.18986	-40.3	3.3
378.15	0.00258	-131.1	66
378.15	0.00508	-133.6	33.5
378.15	0.01114	-126.9	15
378.15	0.02026	-114.2	8.5
378.15	0.02886	-109	6.4
378.15	0.03945	-98.8	5.1
378.15	0.05028	-91.3	4.6
378.15	0.07046	-81.1	3.9
378.15	0.10046	-69.5	3.5
378.15	0.18986	-45.5	3.3
383.15	0.00258	-142.4	66.2
383.15	0.00508	-141.1	33.6
383.15	0.01114	-134.4	15
383.15	0.02026	-120.7	8.5
383.15	0.02886	-116.1	6.6
383.15	0.03945	-105.4	5.2
383.15	0.05028	-98	4.6
383.15	0.07046	-87.2	3.9
383.15	0.10046	-75.4	3.5
383.15	0.18986	-51.3	3.2
388.15	0.00258	-144.1	66.7
388.15	0.00508	-150.6	33.8
388.15	0.01114	-144.3	15.1
388.15	0.02026	-129	8.5
388.15	0.02886	-123.8	6.6
388.15	0.03945	-112.8	5.2
388.15	0.05028	-105.3	4.6
388.15	0.07046	-94	4
388.15	0.10046	-82.1	3.5
388.15	0.18986	-57.9	3.3
393.15	0.00258	-151.7	67.2
393.15	0.00508	-162.2	35.3
393.15	0.01114	-154.6	15.8
393.15	0.02026	-137.4	8.9
393.15	0.02886	-132.3	7
393.15	0.03945	-121.1	5.5
393.15	0.05028	-113.3	4.9
393.15	0.07046	-101.8	4
393.15	0.10046	-89.7	3.6
393.15	0.18986	-65.4	3.3

System: water + barium dinitrate; phases: Liquid
Fixed: Pressure, kPa = 350
Property: Apparent molar volume, m3/mol (Liquid); method: SAME:UFactor:0.5
Temperature, K	Molality, mol/kg of barium dinitrate	Apparent molar volume, m3/mol	uncertainty
278.15	0.02026	3.67e-05	2.7e-06
278.15	0.0208	3.55e-05	1.8e-06
278.15	0.03085	3.91e-05	1.4e-06
278.15	0.0401	3.99e-05	1e-06
278.15	0.05028	3.81e-05	3.6e-06
278.15	0.07046	4.19e-05	2.6e-06
278.15	0.10046	4.18e-05	1.9e-06
278.15	0.19312	4.43e-05	9e-07
283.15	0.02026	3.99e-05	2.4e-06
283.15	0.0208	3.77e-05	1.1e-06
283.15	0.03085	4.13e-05	1.5e-06
283.15	0.0401	4.27e-05	1e-06
283.15	0.05028	4.16e-05	2.5e-06
283.15	0.07046	4.41e-05	1.9e-06
283.15	0.10046	4.44e-05	1.5e-06
283.15	0.19312	4.63e-05	9e-07
288.15	0.02026	4.18e-05	1.6e-06
288.15	0.0208	4.07e-05	9e-07
288.15	0.03085	4.28e-05	1.3e-06
288.15	0.0401	4.4e-05	1e-06
288.15	0.05028	4.39e-05	1.4e-06
288.15	0.07046	4.53e-05	1.2e-06
288.15	0.10046	4.59e-05	1e-06
288.15	0.19312	4.77e-05	9e-07
298.15	0.02026	4.32e-05	2.1e-06
298.15	0.0208	4.44e-05	1e-06
298.15	0.03085	4.64e-05	1.1e-06
298.15	0.0401	4.8e-05	1.2e-06
298.15	0.05028	4.82e-05	9e-07
298.15	0.07046	4.84e-05	9e-07
298.15	0.10046	4.9e-05	9e-07
298.15	0.19312	5.08e-05	9e-07
308.15	0.02026	4.53e-05	1.6e-06
308.15	0.0208	4.61e-05	1e-06
308.15	0.03085	4.89e-05	1.1e-06
308.15	0.0401	5.05e-05	9e-07
308.15	0.05028	5.07e-05	9e-07
308.15	0.07046	5.07e-05	9e-07
308.15	0.10046	5.12e-05	9e-07
308.15	0.19312	5.3e-05	8e-07
318.15	0.02026	4.89e-05	1.6e-06
318.15	0.0208	4.77e-05	2.9e-06
318.15	0.03085	4.97e-05	1.4e-06
318.15	0.0401	5.24e-05	9e-07
318.15	0.05028	5.25e-05	1e-06
318.15	0.07046	5.26e-05	9e-07
318.15	0.10046	5.27e-05	9e-07
318.15	0.19312	5.48e-05	8e-07
328.15	0.02026	5.14e-05	1.1e-06
328.15	0.0208	5.01e-05	1.2e-06
328.15	0.03085	5.17e-05	1.1e-06
328.15	0.0401	5.39e-05	9e-07
328.15	0.05028	5.38e-05	1.1e-06
328.15	0.07046	5.39e-05	1e-06
328.15	0.10046	5.38e-05	9e-07
328.15	0.19312	5.57e-05	8e-07
338.15	0.02026	5.31e-05	1.9e-06
338.15	0.0208	5.15e-05	1.1e-06
338.15	0.03085	5.29e-05	1.2e-06
338.15	0.0401	5.46e-05	9e-07
338.15	0.05028	5.43e-05	1.2e-06
338.15	0.07046	5.46e-05	1e-06
338.15	0.10046	5.47e-05	9e-07
338.15	0.19312	5.66e-05	8e-07
348.15	0.02026	5.4e-05	2.7e-06
348.15	0.0208	5.21e-05	9e-07
348.15	0.03085	5.35e-05	1.2e-06
348.15	0.0401	5.52e-05	9e-07
348.15	0.05028	5.49e-05	1e-06
348.15	0.07046	5.51e-05	9e-07
348.15	0.10046	5.52e-05	9e-07
348.15	0.19312	5.71e-05	9e-07
358.15	0.02026	5.5e-05	2.1e-06
358.15	0.0208	5.21e-05	9e-07
358.15	0.03085	5.38e-05	1.1e-06
358.15	0.0401	5.49e-05	1.1e-06
358.15	0.05028	5.53e-05	1.3e-06
358.15	0.07046	5.51e-05	1.1e-06
358.15	0.10046	5.54e-05	1e-06
358.15	0.19312	5.73e-05	8e-07
368.15	0.02026	4.76e-05	8e-06
368.15	0.0208	5.17e-05	9e-07
368.15	0.03085	5.39e-05	1.4e-06
368.15	0.0401	5.44e-05	9e-07
368.15	0.05028	5.5e-05	9e-07
368.15	0.07046	5.46e-05	8e-07
368.15	0.10046	5.5e-05	8e-07
368.15	0.19312	5.71e-05	9e-07
