Measured thermophysical data. Solvation of alkaline earth metal ions in N,N-dimethylformamide and N,N-dimethylacetamide - A volumetric and acoustic study
Source: J. Chem. Thermodyn., 2016, 10.1016/j.jct.2015.08.033
Compound 1: dimethylformamide, C3H7NO, InChI=1S/C3H7NO/c1-4(2)3-5/h3H,1-2H3, purity 99.5%
Compound 2: N,N-dimethylethanamide, C4H9NO, InChI=1S/C4H9NO/c1-4(6)5(2)3/h1-3H3, purity 99.5%
Compound 3: magnesium triflate, C2F6MgO6S2, InChI=1S/2CHF3O3S.Mg/c2*2-1(3,4)8(5,6)7;/h2*(H,5,6,7);/q;;+2/p-2, purity 98%
Compound 4: strontium trifluoromethanesulfonate, C2F6O6S2Sr, InChI=1S/2CHF3O3S.Sr/c2*2-1(3,4)8(5,6)7;/h2*(H,5,6,7);/q;;+2/p-2, purity 98%
Compound 5: calcium trifluoromethanesulfonate, C2CaF6O6S2, InChI=1S/2CHF3O3S.Ca/c2*2-1(3,4)8(5,6)7;/h2*(H,5,6,7);/q;;+2/p-2, purity 99.9%
Compound 6: barium perchlorate, BaCl2O8, InChI=1S/Ba.2ClHO4/c;2*2-1(3,4)5/h;2*(H,2,3,4,5)/q+2;;/p-2, purity 99.5%

System: dimethylformamide; phases: Liquid
Fixed: Pressure, kPa = 100
Property: Mass density, kg/m3 (Liquid); method: Vibrating tube method
Temperature, K	Mass density, kg/m3	uncertainty
298.15	943.913	0.135
303.15	939.139	0.135
308.15	934.354	0.136
313.15	929.554	0.137
318.15	924.744	0.138

System: dimethylformamide; phases: Liquid
Fixed: Pressure, kPa = 100
Fixed: Frequency, MHz = 3
Property: Speed of sound, m/s (Liquid); method: Sing-around technique in a fixed-path interferometer
Temperature, K	Speed of sound, m/s	uncertainty
298.15	1457.17	1.3
303.15	1437.9	1.3
308.15	1418.53	1.3
313.15	1399.26	1.29
318.15	1380.03	1.29

System: N,N-dimethylethanamide; phases: Liquid
Fixed: Pressure, kPa = 100
Property: Mass density, kg/m3 (Liquid); method: Vibrating tube method
Temperature, K	Mass density, kg/m3	uncertainty
298.15	936.281	0.136
303.15	931.672	0.137
308.15	927.055	0.138
313.15	922.422	0.138
318.15	917.788	0.139

System: N,N-dimethylethanamide; phases: Liquid
Fixed: Pressure, kPa = 100
Fixed: Frequency, MHz = 3
Property: Speed of sound, m/s (Liquid); method: Sing-around technique in a fixed-path interferometer
Temperature, K	Speed of sound, m/s	uncertainty
298.15	1455.82	1.3
303.15	1435.98	1.3
308.15	1416.14	1.3
313.15	1396.47	1.29
318.15	1376.87	1.29

System: dimethylformamide + magnesium triflate; phases: Liquid
Fixed: Pressure, kPa = 100
Property: Mass density, kg/m3 (Liquid); method: Vibrating tube method
Temperature, K	Molality, mol/kg of magnesium triflate	Mass density, kg/m3	uncertainty
298.15	0.01036	946.019	0.428
298.15	0.01706	947.369	0.424
298.15	0.0217	948.297	0.421
298.15	0.03662	951.268	0.419
298.15	0.0512	954.144	0.416
298.15	0.06466	956.788	0.413
298.15	0.082	960.152	0.411
298.15	0.102	964.032	0.408
298.15	0.1234	968.107	0.407
298.15	0.1544	974.074	0.409
298.15	0	943.905	0.43
303.15	0.01036	941.245	0.43
303.15	0.01706	942.601	0.426
303.15	0.0217	943.537	0.422
303.15	0.03662	946.512	0.42
303.15	0.0512	949.392	0.417
303.15	0.06466	952.038	0.413
303.15	0.082	955.393	0.412
303.15	0.102	959.291	0.409
303.15	0.1234	963.366	0.408
303.15	0.1544	969.343	0.41
303.15	0	939.125	0.431
308.15	0.01036	936.47	0.431
308.15	0.01706	937.828	0.427
308.15	0.0217	938.762	0.423
308.15	0.03662	941.741	0.421
308.15	0.0512	944.627	0.418
308.15	0.06466	947.275	0.413
308.15	0.082	950.635	0.413
308.15	0.102	954.537	0.409
308.15	0.1234	958.615	0.409
308.15	0.1544	964.6	0.41
308.15	0	934.34	0.434
313.15	0.01036	931.673	0.432
313.15	0.01706	933.038	0.428
313.15	0.0217	933.973	0.423
313.15	0.03662	936.956	0.421
313.15	0.0512	939.848	0.419
313.15	0.06466	942.499	0.414
313.15	0.082	945.853	0.413
313.15	0.102	949.768	0.411
313.15	0.1234	953.853	0.409
313.15	0.1544	959.846	0.411
313.15	0	929.543	0.434
318.15	0.01036	926.87	0.433
318.15	0.01706	928.233	0.429
318.15	0.0217	929.172	0.424
318.15	0.03662	932.159	0.422
318.15	0.0512	935.055	0.42
318.15	0.06466	937.711	0.415
318.15	0.082	941.072	0.414
318.15	0.102	944.991	0.411
318.15	0.1234	949.079	0.41
318.15	0.1544	955.083	0.412
318.15	0	924.732	0.435

System: dimethylformamide + magnesium triflate; phases: Liquid
Fixed: Pressure, kPa = 100
Fixed: Frequency, MHz = 3
Property: Speed of sound, m/s (Liquid); method: Sing-around technique in a fixed-path interferometer
Temperature, K	Molality, mol/kg of magnesium triflate	Speed of sound, m/s	uncertainty
298.15	0.01706	1457.37	1.31
298.15	0.0217	1457.35	1.31
298.15	0.03662	1457.33	1.31
298.15	0.0512	1457.31	1.31
298.15	0.06466	1457.22	1.31
298.15	0.082	1457.08	1.32
298.15	0.102	1456.89	1.32
298.15	0.1234	1456.71	1.33
298.15	0.1544	1456.38	1.33
298.15	0	1457.12	1.3
303.15	0.01706	1438.17	1.3
303.15	0.0217	1438.19	1.3
303.15	0.03662	1438.24	1.31
303.15	0.0512	1438.24	1.31
303.15	0.06466	1438.19	1.31
303.15	0.082	1438.12	1.31
303.15	0.102	1438.02	1.32
303.15	0.1234	1437.88	1.32
303.15	0.1544	1437.62	1.33
303.15	0	1437.89	1.3
308.15	0.01706	1418.86	1.3
308.15	0.0217	1418.93	1.3
308.15	0.03662	1419.08	1.3
308.15	0.0512	1419.11	1.31
308.15	0.06466	1419.13	1.31
308.15	0.082	1419.13	1.31
308.15	0.102	1419.1	1.32
308.15	0.1234	1419.04	1.32
308.15	0.1544	1418.86	1.32
308.15	0	1418.5	1.3
313.15	0.01706	1399.66	1.3
313.15	0.0217	1399.75	1.3
313.15	0.03662	1399.97	1.3
313.15	0.0512	1400.08	1.3
313.15	0.06466	1400.15	1.3
313.15	0.082	1400.2	1.31
313.15	0.102	1400.24	1.31
313.15	0.1234	1400.26	1.32
313.15	0.1544	1400.16	1.32
313.15	0	1399.22	1.29
318.15	0.01706	1380.53	1.29
318.15	0.0217	1380.65	1.29
318.15	0.03662	1380.93	1.3
318.15	0.0512	1381.09	1.3
318.15	0.06466	1381.21	1.3
318.15	0.082	1381.33	1.3
318.15	0.102	1381.46	1.31
318.15	0.1234	1381.55	1.31
318.15	0.1544	1381.57	1.32
318.15	0	1379.97	1.29

System: dimethylformamide + strontium trifluoromethanesulfonate; phases: Liquid
Fixed: Pressure, kPa = 100
Property: Mass density, kg/m3 (Liquid); method: Vibrating tube method
Temperature, K	Molality, mol/kg of strontium trifluoromethanesulfonate	Mass density, kg/m3	uncertainty
298.15	0.01062	946.522	0.508
298.15	0.01763	948.231	0.504
298.15	0.02656	950.395	0.5
298.15	0.03847	953.244	0.497
298.15	0.04908	955.781	0.495
298.15	0.06765	960.189	0.491
298.15	0.08503	964.269	0.489
298.15	0.1067	969.35	0.485
298.15	0.1286	974.403	0.479
298.15	0.1612	981.851	0.478
298.15	0	943.913	0.509
303.15	0.01062	941.756	0.509
303.15	0.01763	943.466	0.504
303.15	0.02656	945.626	0.5
303.15	0.03847	948.482	0.497
303.15	0.04908	951.013	0.495
303.15	0.06765	955.42	0.492
303.15	0.08503	959.5	0.488
303.15	0.1067	964.567	0.485
303.15	0.1286	969.629	0.479
303.15	0.1612	977.074	0.477
303.15	0	939.144	0.511
308.15	0.01062	936.972	0.509
308.15	0.01763	938.685	0.505
308.15	0.02656	940.844	0.501
308.15	0.03847	943.704	0.498
308.15	0.04908	946.233	0.495
308.15	0.06765	950.641	0.492
308.15	0.08503	954.718	0.488
308.15	0.1067	959.781	0.485
308.15	0.1286	964.845	0.479
308.15	0.1612	972.285	0.477
308.15	0	934.36	0.511
313.15	0.01062	932.186	0.51
313.15	0.01763	933.888	0.504
313.15	0.02656	936.049	0.501
313.15	0.03847	938.91	0.498
313.15	0.04908	941.439	0.495
313.15	0.06765	945.845	0.492
313.15	0.08503	949.923	0.488
313.15	0.1067	954.985	0.485
313.15	0.1286	960.047	0.479
313.15	0.1612	967.485	0.477
313.15	0	929.56	0.514
318.15	0.01062	927.378	0.511
318.15	0.01763	929.08	0.504
318.15	0.02656	931.241	0.502
318.15	0.03847	934.105	0.499
318.15	0.04908	936.634	0.495
318.15	0.06765	941.04	0.492
318.15	0.08503	945.118	0.489
318.15	0.1067	950.18	0.485
318.15	0.1286	955.242	0.48
318.15	0.1612	962.676	0.478
318.15	0	924.748	0.514

System: dimethylformamide + strontium trifluoromethanesulfonate; phases: Liquid
Fixed: Pressure, kPa = 100
Fixed: Frequency, MHz = 3
Property: Speed of sound, m/s (Liquid); method: Sing-around technique in a fixed-path interferometer
Temperature, K	Molality, mol/kg of strontium trifluoromethanesulfonate	Speed of sound, m/s	uncertainty
298.15	0.01062	1457.2	1.31
298.15	0.01763	1457.17	1.31
298.15	0.02656	1457.1	1.31
298.15	0.03847	1456.99	1.31
298.15	0.04908	1456.82	1.31
298.15	0.06765	1456.53	1.32
298.15	0.08503	1456.23	1.32
298.15	0.1067	1456.12	1.33
298.15	0.1286	1455.42	1.33
298.15	0.1612	1454.71	1.34
298.15	0	1457.22	1.3
303.15	0.01062	1437.98	1.3
303.15	0.01763	1437.98	1.3
303.15	0.02656	1437.96	1.31
303.15	0.03847	1437.87	1.31
303.15	0.04908	1437.75	1.31
303.15	0.06765	1437.56	1.31
303.15	0.08503	1437.32	1.32
303.15	0.1067	1437.08	1.32
303.15	0.1286	1436.67	1.33
303.15	0.1612	1436.07	1.34
303.15	0	1437.98	1.3
308.15	0.01062	1418.72	1.3
308.15	0.01763	1418.73	1.3
308.15	0.02656	1418.74	1.3
308.15	0.03847	1418.73	1.3
308.15	0.04908	1418.64	1.31
308.15	0.06765	1418.52	1.31
308.15	0.08503	1418.35	1.32
308.15	0.1067	1418.19	1.32
308.15	0.1286	1417.89	1.32
308.15	0.1612	1417.41	1.33
308.15	0	1418.6	1.3
313.15	0.01062	1399.48	1.3
313.15	0.01763	1399.56	1.3
313.15	0.02656	1399.6	1.3
313.15	0.03847	1399.63	1.3
313.15	0.04908	1399.6	1.3
313.15	0.06765	1399.54	1.31
313.15	0.08503	1399.46	1.31
313.15	0.1067	1399.35	1.32
313.15	0.1286	1399.14	1.32
313.15	0.1612	1398.8	1.33
313.15	0	1399.34	1.29
318.15	0.01062	1380.33	1.29
318.15	0.01763	1380.43	1.29
318.15	0.02656	1380.52	1.3
318.15	0.03847	1380.6	1.3
318.15	0.04908	1380.62	1.3
318.15	0.06765	1380.65	1.3
318.15	0.08503	1380.62	1.31
318.15	0.1067	1380.59	1.31
318.15	0.1286	1380.48	1.32
318.15	0.1612	1380.25	1.33
318.15	0	1380.13	1.29

System: dimethylformamide + calcium trifluoromethanesulfonate; phases: Liquid
Fixed: Pressure, kPa = 100
Property: Mass density, kg/m3 (Liquid); method: Vibrating tube method
Temperature, K	Molality, mol/kg of calcium trifluoromethanesulfonate	Mass density, kg/m3	uncertainty
298.15	0.01106	946.239	0.44
298.15	0.01878	947.845	0.436
298.15	0.02772	949.696	0.432
298.15	0.03952	952.113	0.428
298.15	0.05628	955.509	0.426
298.15	0.06961	958.2	0.421
298.15	0.08918	962.098	0.418
298.15	0.1114	966.493	0.415
298.15	0.1344	971.012	0.41
298.15	0.1671	977.356	0.408
298.15	0	943.915	0.441
303.15	0.01106	941.472	0.44
303.15	0.01878	943.075	0.436
303.15	0.02772	944.925	0.434
303.15	0.03952	947.355	0.429
303.15	0.05628	950.747	0.426
303.15	0.06961	953.444	0.422
303.15	0.08918	957.344	0.418
303.15	0.1114	961.744	0.415
303.15	0.1344	966.262	0.41
303.15	0.1671	972.601	0.408
303.15	0	939.142	0.443
308.15	0.01106	936.692	0.442
308.15	0.01878	938.305	0.439
308.15	0.02772	940.169	0.434
308.15	0.03952	942.581	0.428
308.15	0.05628	945.976	0.427
308.15	0.06961	948.677	0.423
308.15	0.08918	952.579	0.419
308.15	0.1114	956.98	0.416
308.15	0.1344	961.501	0.411
308.15	0.1671	967.839	0.408
308.15	0	934.356	0.445
313.15	0.01106	931.892	0.443
313.15	0.01878	933.505	0.438
313.15	0.02772	935.363	0.435
313.15	0.03952	937.793	0.43
313.15	0.05628	941.193	0.427
313.15	0.06961	943.893	0.423
313.15	0.08918	947.802	0.419
313.15	0.1114	952.205	0.416
313.15	0.1344	956.728	0.411
313.15	0.1671	963.068	0.409
313.15	0	929.553	0.445
318.15	0.01106	927.09	0.444
318.15	0.01878	928.705	0.439
318.15	0.02772	930.568	0.435
318.15	0.03952	932.985	0.43
318.15	0.05628	936.398	0.429
318.15	0.06961	939.103	0.424
318.15	0.08918	943.015	0.42
318.15	0.1114	947.419	0.417
318.15	0.1344	951.947	0.412
318.15	0.1671	958.29	0.409
318.15	0	924.746	0.446

System: dimethylformamide + calcium trifluoromethanesulfonate; phases: Liquid
Fixed: Pressure, kPa = 100
Fixed: Frequency, MHz = 3
Property: Speed of sound, m/s (Liquid); method: Sing-around technique in a fixed-path interferometer
Temperature, K	Molality, mol/kg of calcium trifluoromethanesulfonate	Speed of sound, m/s	uncertainty
298.15	0.01106	1457.34	1.3
298.15	0.01878	1457.39	1.3
298.15	0.02772	1457.4	1.3
298.15	0.03952	1457.42	1.3
298.15	0.05628	1457.47	1.3
298.15	0.06961	1457.29	1.3
298.15	0.08918	1457.1	1.3
298.15	0.1114	1456.78	1.3
298.15	0.1344	1456.62	1.3
298.15	0.1671	1456.38	1.29
298.15	0	1457.18	1.3
303.15	0.01106	1438.07	1.3
303.15	0.01878	1438.2	1.3
303.15	0.02772	1438.26	1.3
303.15	0.03952	1438.34	1.3
303.15	0.05628	1438.34	1.3
303.15	0.06961	1438.29	1.3
303.15	0.08918	1438.16	1.29
303.15	0.1114	1437.98	1.29
303.15	0.1344	1437.84	1.29
303.15	0.1671	1437.56	1.29
303.15	0	1437.89	1.3
308.15	0.01106	1418.77	1.3
308.15	0.01878	1418.9	1.3
308.15	0.02772	1419	1.29
308.15	0.03952	1419.2	1.29
308.15	0.05628	1419.22	1.29
308.15	0.06961	1419.26	1.29
308.15	0.08918	1419.2	1.29
308.15	0.1114	1419.12	1.29
308.15	0.1344	1419.04	1.29
308.15	0.1671	1418.85	1.29
308.15	0	1418.51	1.3
313.15	0.01106	1399.56	1.29
313.15	0.01878	1399.7	1.29
313.15	0.02772	1399.9	1.29
313.15	0.03952	1400.08	1.29
313.15	0.05628	1400.2	1.29
313.15	0.06961	1400.27	1.29
313.15	0.08918	1400.31	1.29
313.15	0.1114	1400.31	1.29
313.15	0.1344	1400.3	1.29
313.15	0.1671	1400.19	1.28
313.15	0	1399.24	1.29
318.15	0.01106	1380.35	1.29
318.15	0.01878	1380.6	1.29
318.15	0.02772	1380.76	1.29
318.15	0.03952	1381.1	1.29
318.15	0.05628	1381.22	1.29
318.15	0.06961	1381.36	1.29
318.15	0.08918	1381.46	1.28
318.15	0.1114	1381.57	1.28
318.15	0.1344	1381.64	1.28
318.15	0.1671	1381.63	1.28
318.15	0	1380	1.29

System: dimethylformamide + barium perchlorate; phases: Liquid
Fixed: Pressure, kPa = 100
Property: Mass density, kg/m3 (Liquid); method: Vibrating tube method
Temperature, K	Molality, mol/kg of barium perchlorate	Mass density, kg/m3	uncertainty
298.15	0.01339	947.432	0.541
298.15	0.02254	949.821	0.537
298.15	0.0331	952.562	0.534
298.15	0.04712	956.179	0.532
298.15	0.06582	960.992	0.529
298.15	0.08395	965.617	0.525
298.15	0.1061	971.226	0.523
298.15	0.1322	977.835	0.52
298.15	0.1588	984.508	0.515
298.15	0.1995	994.63	0.513
298.15	0	943.919	0.542
303.15	0.01339	942.667	0.542
303.15	0.02254	945.058	0.539
303.15	0.0331	947.81	0.535
303.15	0.04712	951.422	0.532
303.15	0.06582	956.235	0.53
303.15	0.08395	960.865	0.525
303.15	0.1061	966.477	0.523
303.15	0.1322	973.089	0.521
303.15	0.1588	979.766	0.515
303.15	0.1995	989.888	0.513
303.15	0	939.144	0.544
308.15	0.01339	937.889	0.543
308.15	0.02254	940.281	0.539
308.15	0.0331	943.03	0.535
308.15	0.04712	946.652	0.533
308.15	0.06582	951.468	0.53
308.15	0.08395	956.099	0.526
308.15	0.1061	961.715	0.524
308.15	0.1322	968.33	0.521
308.15	0.1588	975.008	0.516
308.15	0.1995	985.134	0.514
308.15	0	934.36	0.545
313.15	0.01339	933.096	0.544
313.15	0.02254	935.489	0.54
313.15	0.0331	938.243	0.536
313.15	0.04712	941.866	0.533
313.15	0.06582	946.686	0.531
313.15	0.08395	951.321	0.526
313.15	0.1061	956.94	0.524
313.15	0.1322	963.559	0.522
313.15	0.1588	970.24	0.516
313.15	0.1995	980.371	0.514
313.15	0	929.56	0.546
318.15	0.01339	928.287	0.545
318.15	0.02254	930.686	0.541
318.15	0.0331	933.442	0.537
318.15	0.04712	937.07	0.53
318.15	0.06582	941.893	0.531
318.15	0.08395	946.53	0.53
318.15	0.1061	952.153	0.525
318.15	0.1322	958.776	0.522
318.15	0.1588	965.461	0.517
318.15	0.1995	975.596	0.515
318.15	0	924.748	0.546

System: dimethylformamide + barium perchlorate; phases: Liquid
Fixed: Pressure, kPa = 100
Fixed: Frequency, MHz = 3
Property: Speed of sound, m/s (Liquid); method: Sing-around technique in a fixed-path interferometer
Temperature, K	Molality, mol/kg of barium perchlorate	Speed of sound, m/s	uncertainty
298.15	0.01339	1458.12	1.31
298.15	0.02254	1458.65	1.31
298.15	0.0331	1459.51	1.31
298.15	0.04712	1459.92	1.31
298.15	0.06582	1460.94	1.31
298.15	0.08395	1461.79	1.31
298.15	0.1061	1462.84	1.31
298.15	0.1322	1464.14	1.31
298.15	0.1588	1465.44	1.31
298.15	0.1995	1467.42	1.31
298.15	0	1457.17	1.31
303.15	0.01339	1438.9	1.31
303.15	0.02254	1439.46	1.31
303.15	0.0331	1440.15	1.3
303.15	0.04712	1440.86	1.3
303.15	0.06582	1441.88	1.3
303.15	0.08395	1442.84	1.3
303.15	0.1061	1443.99	1.3
303.15	0.1322	1445.38	1.3
303.15	0.1588	1446.76	1.3
303.15	0.1995	1448.86	1.31
303.15	0	1437.84	1.31
308.15	0.01339	1419.63	1.31
308.15	0.02254	1420.23	1.3
308.15	0.0331	1420.94	1.3
308.15	0.04712	1421.74	1.3
308.15	0.06582	1422.83	1.3
308.15	0.08395	1423.85	1.3
308.15	0.1061	1425.1	1.3
308.15	0.1322	1426.58	1.3
308.15	0.1588	1428.05	1.3
308.15	0.1995	1430.29	1.3
308.15	0	1418.51	1.31
313.15	0.01339	1400.42	1.3
313.15	0.02254	1401.06	1.3
313.15	0.0331	1401.81	1.3
313.15	0.04712	1402.68	1.3
313.15	0.06582	1403.84	1.3
313.15	0.08395	1404.95	1.3
313.15	0.1061	1406.27	1.3
313.15	0.1322	1407.85	1.3
313.15	0.1588	1409.42	1.3
313.15	0.1995	1411.79	1.3
313.15	0	1399.25	1.3
318.15	0.01339	1381.27	1.3
318.15	0.02254	1381.94	1.3
318.15	0.0331	1382.73	1.3
318.15	0.04712	1383.67	1.3
318.15	0.06582	1384.93	1.3
318.15	0.08395	1386.11	1.3
318.15	0.1061	1387.5	1.3
318.15	0.1322	1389.16	1.3
318.15	0.1588	1390.85	1.3
318.15	0.1995	1393.34	1.3
318.15	0	1380.03	1.3

System: N,N-dimethylethanamide + magnesium triflate; phases: Liquid
Fixed: Pressure, kPa = 100
Property: Mass density, kg/m3 (Liquid); method: Vibrating tube method
Temperature, K	Molality, mol/kg of magnesium triflate	Mass density, kg/m3	uncertainty
298.15	0.009142	938.272	0.454
298.15	0.01469	939.459	0.449
298.15	0.02251	941.134	0.446
298.15	0.03194	943.119	0.44
298.15	0.04489	945.817	0.434
298.15	0.05714	948.308	0.434
298.15	0.07138	951.266	0.43
298.15	0.08889	954.777	0.426
298.15	0.1071	958.463	0.421
298.15	0.1341	963.77	0.417
298.15	0	936.279	0.457
303.15	0.009142	933.667	0.456
303.15	0.01469	934.86	0.453
303.15	0.02251	936.55	0.447
303.15	0.03194	938.53	0.442
303.15	0.04489	941.246	0.434
303.15	0.05714	943.72	0.435
303.15	0.07138	946.705	0.431
303.15	0.08889	950.211	0.426
303.15	0.1071	953.905	0.416
303.15	0.1341	959.1	0.411
303.15	0	931.67	0.459
308.15	0.009142	929.056	0.458
308.15	0.01469	930.249	0.454
308.15	0.02251	931.947	0.448
308.15	0.03194	933.932	0.443
308.15	0.04489	936.655	0.435
308.15	0.05714	939.134	0.436
308.15	0.07138	942.126	0.432
308.15	0.08889	945.637	0.427
308.15	0.1071	949.338	0.415
308.15	0.1341	954.5	0.409
308.15	0	927.047	0.461
313.15	0.009142	924.433	0.46
313.15	0.01469	925.632	0.456
313.15	0.02251	927.333	0.45
313.15	0.03194	929.324	0.444
313.15	0.04489	932.054	0.437
313.15	0.05714	934.538	0.437
313.15	0.07138	937.537	0.433
313.15	0.08889	941.054	0.429
313.15	0.1071	944.772	0.419
313.15	0.1341	950	0.41
313.15	0	922.416	0.463
318.15	0.009142	919.8	0.461
318.15	0.01469	921.007	0.458
318.15	0.02251	922.714	0.451
318.15	0.03194	924.71	0.445
318.15	0.04489	927.445	0.438
318.15	0.05714	929.945	0.438
318.15	0.07138	932.941	0.434
318.15	0.08889	936.462	0.425
318.15	0.1071	940.1	0.42
318.15	0.1341	945.4	0.417
318.15	0	917.78	0.463

System: N,N-dimethylethanamide + magnesium triflate; phases: Liquid
Fixed: Pressure, kPa = 100
Fixed: Frequency, MHz = 3
Property: Speed of sound, m/s (Liquid); method: Sing-around technique in a fixed-path interferometer
Temperature, K	Molality, mol/kg of magnesium triflate	Speed of sound, m/s	uncertainty
298.15	0.009142	1456.42	1.31
298.15	0.01469	1456.66	1.31
298.15	0.02251	1457.02	1.31
298.15	0.03194	1457.42	1.31
298.15	0.04489	1457.9	1.31
298.15	0.05714	1458.35	1.32
298.15	0.07138	1458.86	1.32
298.15	0.08889	1459.45	1.32
298.15	0.1071	1460.03	1.32
298.15	0.1341	1460.72	1.33
298.15	0	1455.93	1.31
303.15	0.009142	1436.65	1.31
303.15	0.01469	1436.93	1.31
303.15	0.02251	1437.33	1.31
303.15	0.03194	1437.8	1.31
303.15	0.04489	1438.33	1.31
303.15	0.05714	1438.84	1.31
303.15	0.07138	1439.4	1.32
303.15	0.08889	1440.06	1.32
303.15	0.1071	1440.69	1.32
303.15	0.1341	1441.51	1.33
303.15	0	1436.03	1.31
308.15	0.009142	1416.88	1.31
308.15	0.01469	1417.2	1.3
308.15	0.02251	1417.65	1.3
308.15	0.03194	1418.16	1.31
308.15	0.04489	1418.76	1.31
308.15	0.05714	1419.32	1.31
308.15	0.07138	1419.94	1.31
308.15	0.08889	1420.66	1.32
308.15	0.1071	1421.35	1.32
308.15	0.1341	1422.3	1.32
308.15	0	1416.17	1.3
313.15	0.009142	1397.24	1.3
313.15	0.01469	1397.61	1.3
313.15	0.02251	1398.09	1.3
313.15	0.03194	1398.64	1.3
313.15	0.04489	1399.3	1.3
313.15	0.05714	1399.88	1.31
313.15	0.07138	1400.58	1.31
313.15	0.08889	1401	1.31
313.15	0.1071	1401.87	1.32
313.15	0.1341	1403.16	1.32
313.15	0	1396.49	1.3
318.15	0.009142	1377.72	1.3
318.15	0.01469	1378.1	1.3
318.15	0.02251	1378.61	1.3
318.15	0.03194	1379.22	1.3
318.15	0.04489	1379.92	1.3
318.15	0.05714	1380.58	1.3
318.15	0.07138	1381.31	1.31
318.15	0.08889	1382.1	1.31
318.15	0.1071	1382.78	1.31
318.15	0.1341	1384.15	1.32
318.15	0	1376.88	1.3

System: N,N-dimethylethanamide + calcium trifluoromethanesulfonate; phases: Liquid
Fixed: Pressure, kPa = 100
Property: Mass density, kg/m3 (Liquid); method: Vibrating tube method
Temperature, K	Molality, mol/kg of calcium trifluoromethanesulfonate	Mass density, kg/m3	uncertainty
298.15	0.02187	940.927	0.444
298.15	0.03271	943.201	0.438
298.15	0.04637	946.038	0.433
298.15	0.06551	949.951	0.429
298.15	0.08271	953.447	0.425
298.15	0.1052	957.976	0.422
298.15	0.1305	963.026	0.418
298.15	0.1577	968.401	0.413
298.15	0.1977	976.212	0.41
298.15	0	936.279	0.446
303.15	0.02187	936.332	0.446
303.15	0.03271	938.61	0.439
303.15	0.04637	941.451	0.433
303.15	0.06551	945.373	0.43
303.15	0.08271	948.878	0.426
303.15	0.1052	953.415	0.422
303.15	0.1305	958.471	0.418
303.15	0.1577	963.856	0.413
303.15	0.1977	971.679	0.411
303.15	0	931.67	0.448
308.15	0.02187	931.736	0.447
308.15	0.03271	934.019	0.439
308.15	0.04637	936.856	0.434
308.15	0.06551	940.788	0.431
308.15	0.08271	944.3	0.427
308.15	0.1052	948.847	0.423
308.15	0.1305	953.91	0.419
308.15	0.1577	959.304	0.414
308.15	0.1977	967.14	0.412
308.15	0	927.058	0.45
313.15	0.02187	927.121	0.449
313.15	0.03271	929.41	0.44
313.15	0.04637	932.246	0.435
313.15	0.06551	936.196	0.433
313.15	0.08271	939.716	0.428
313.15	0.1052	944.27	0.424
313.15	0.1305	949.342	0.42
313.15	0.1577	954.745	0.415
313.15	0.1977	962.594	0.413
313.15	0	922.429	0.451
318.15	0.02187	922.5	0.5
318.15	0.03271	924.794	0.441
318.15	0.04637	927.636	0.437
318.15	0.06551	931.596	0.434
318.15	0.08271	935.124	0.429
318.15	0.1052	939.688	0.425
318.15	0.1305	944.771	0.421
318.15	0.1577	950.183	0.416
318.15	0.1977	958.045	0.414
318.15	0	917.793	0.452

System: N,N-dimethylethanamide + calcium trifluoromethanesulfonate; phases: Liquid
Fixed: Pressure, kPa = 100
Fixed: Frequency, MHz = 3
Property: Speed of sound, m/s (Liquid); method: Sing-around technique in a fixed-path interferometer
Temperature, K	Molality, mol/kg of calcium trifluoromethanesulfonate	Speed of sound, m/s	uncertainty
298.15	0.02187	1456.96	1.31
298.15	0.03271	1457.41	1.3
298.15	0.04637	1458	1.3
298.15	0.06551	1458.5	1.3
298.15	0.08271	1459.01	1.3
298.15	0.1052	1459.62	1.3
298.15	0.1305	1460.29	1.3
298.15	0.1577	1460.93	1.3
298.15	0.1977	1461.81	1.29
298.15	0	1455.72	1.31
303.15	0.02187	1437.29	1.3
303.15	0.03271	1437.85	1.3
303.15	0.04637	1438.55	1.3
303.15	0.06551	1439.02	1.3
303.15	0.08271	1439.61	1.3
303.15	0.1052	1440.31	1.3
303.15	0.1305	1441.05	1.29
303.15	0.1577	1441.79	1.29
303.15	0.1977	1442.83	1.29
303.15	0	1435.93	1.31
308.15	0.02187	1417.62	1.3
308.15	0.03271	1418.23	1.3
308.15	0.04637	1419	1.3
308.15	0.06551	1419.53	1.29
308.15	0.08271	1420.21	1.29
308.15	0.1052	1421.01	1.29
308.15	0.1305	1421.83	1.29
308.15	0.1577	1422.69	1.29
308.15	0.1977	1423.86	1.29
308.15	0	1416.12	1.3
313.15	0.02187	1398.05	1.3
313.15	0.03271	1398.71	1.3
313.15	0.04637	1399.36	1.29
313.15	0.06551	1400.17	1.29
313.15	0.08271	1400.91	1.29
313.15	0.1052	1401.79	1.29
313.15	0.1305	1402.7	1.29
313.15	0.1577	1403.66	1.29
313.15	0.1977	1405	1.29
313.15	0	1396.46	1.3
318.15	0.02187	1378.57	1.3
318.15	0.03271	1379.28	1.29
318.15	0.04637	1379.99	1.29
318.15	0.06551	1380.9	1.29
318.15	0.08271	1381.74	1.29
318.15	0.1052	1382.69	1.29
318.15	0.1305	1383.71	1.29
318.15	0.1577	1384.79	1.28
318.15	0.1977	1386.25	1.28
318.15	0	1376.87	1.3

System: N,N-dimethylethanamide + strontium trifluoromethanesulfonate; phases: Liquid
Fixed: Pressure, kPa = 100
Property: Mass density, kg/m3 (Liquid); method: Vibrating tube method
Temperature, K	Molality, mol/kg of strontium trifluoromethanesulfonate	Mass density, kg/m3	uncertainty
298.15	0.009611	938.686	0.516
298.15	0.01616	940.308	0.511
298.15	0.02452	942.361	0.508
298.15	0.0346	944.817	0.503
298.15	0.04877	948.237	0.501
298.15	0.06177	951.363	0.498
298.15	0.07813	955.261	0.495
298.15	0.09814	960.007	0.492
298.15	0.1176	964.581	0.487
298.15	0.1476	971.566	0.486
298.15	0	936.29	0.517
303.15	0.009611	934.078	0.516
303.15	0.01616	935.702	0.512
303.15	0.02452	937.757	0.508
303.15	0.0346	940.215	0.504
303.15	0.04877	943.637	0.501
303.15	0.06177	946.763	0.498
303.15	0.07813	950.663	0.495
303.15	0.09814	955.407	0.492
303.15	0.1176	959.98	0.487
303.15	0.1476	966.955	0.486
303.15	0	931.679	0.518
308.15	0.009611	929.46	0.517
308.15	0.01616	931.087	0.513
308.15	0.02452	933.142	0.509
308.15	0.0346	935.603	0.504
308.15	0.04877	939.026	0.502
308.15	0.06177	942.151	0.498
308.15	0.07813	946.052	0.495
308.15	0.09814	950.795	0.492
308.15	0.1176	955.367	0.487
308.15	0.1476	962.34	0.486
308.15	0	927.058	0.519
313.15	0.009611	924.833	0.519
313.15	0.01616	926.462	0.513
313.15	0.02452	928.518	0.509
313.15	0.0346	930.982	0.505
313.15	0.04877	934.407	0.502
313.15	0.06177	937.533	0.498
313.15	0.07813	941.432	0.495
313.15	0.09814	946.177	0.492
313.15	0.1176	950.748	0.487
313.15	0.1476	957.717	0.486
313.15	0	922.423	0.52
318.15	0.009611	920.199	0.519
318.15	0.01616	921.831	0.514
318.15	0.02452	923.888	0.51
318.15	0.0346	926.353	0.506
318.15	0.04877	929.78	0.502
318.15	0.06177	932.906	0.499
318.15	0.07813	936.806	0.496
318.15	0.09814	941.551	0.493
318.15	0.1176	946.121	0.488
318.15	0.1476	953.091	0.486
318.15	0	917.79	0.52

System: N,N-dimethylethanamide + strontium trifluoromethanesulfonate; phases: Liquid
Fixed: Pressure, kPa = 100
Fixed: Frequency, MHz = 3
Property: Speed of sound, m/s (Liquid); method: Sing-around technique in a fixed-path interferometer
Temperature, K	Molality, mol/kg of strontium trifluoromethanesulfonate	Speed of sound, m/s	uncertainty
298.15	0.009611	1456.31	1.31
298.15	0.01616	1456.49	1.31
298.15	0.02452	1456.8	1.31
298.15	0.0346	1456.93	1.31
298.15	0.04877	1457.06	1.31
298.15	0.06177	1457.3	1.32
298.15	0.07813	1457.47	1.32
298.15	0.09814	1457.73	1.33
298.15	0.1176	1458.02	1.33
298.15	0.1476	1458.27	1.34
298.15	0	1455.93	1.31
303.15	0.009611	1436.48	1.31
303.15	0.01616	1436.75	1.31
303.15	0.02452	1437.1	1.31
303.15	0.0346	1437.21	1.31
303.15	0.04877	1437.54	1.31
303.15	0.06177	1437.8	1.31
303.15	0.07813	1438.07	1.32
303.15	0.09814	1438.42	1.32
303.15	0.1176	1438.76	1.33
303.15	0.1476	1439.02	1.33
303.15	0	1435.93	1.3
308.15	0.009611	1416.68	1.3
308.15	0.01616	1417	1.3
308.15	0.02452	1417.44	1.3
308.15	0.0346	1417.54	1.3
308.15	0.04877	1418	1.31
308.15	0.06177	1418.32	1.31
308.15	0.07813	1418.66	1.31
308.15	0.09814	1419.07	1.32
308.15	0.1176	1419.48	1.32
308.15	0.1476	1419.84	1.33
308.15	0	1416.12	1.3
313.15	0.009611	1397.01	1.3
313.15	0.01616	1397.33	1.3
313.15	0.02452	1397.84	1.3
313.15	0.0346	1397.99	1.3
313.15	0.04877	1398.57	1.31
313.15	0.06177	1398.94	1.31
313.15	0.07813	1399.35	1.31
313.15	0.09814	1399.85	1.32
313.15	0.1176	1400.33	1.32
313.15	0.1476	1400.8	1.33
313.15	0	1396.46	1.3
318.15	0.009611	1377.48	1.3
318.15	0.01616	1377.84	1.3
318.15	0.02452	1378.34	1.3
318.15	0.0346	1378.62	1.3
318.15	0.04877	1379.22	1.3
318.15	0.06177	1379.65	1.3
318.15	0.07813	1380.12	1.31
318.15	0.09814	1380.72	1.31
318.15	0.1176	1381.26	1.32
318.15	0.1476	1381.84	1.32
318.15	0	1376.87	1.29

System: N,N-dimethylethanamide + barium perchlorate; phases: Liquid
Fixed: Pressure, kPa = 100
Property: Mass density, kg/m3 (Liquid); method: Vibrating tube method
Temperature, K	Molality, mol/kg of barium perchlorate	Mass density, kg/m3	uncertainty
298.15	0.01314	939.723	0.54
298.15	0.02301	942.289	0.536
298.15	0.03274	944.807	0.533
298.15	0.04665	948.382	0.529
298.15	0.06587	953.282	0.526
298.15	0.08329	957.7	0.524
298.15	0.1042	963.001	0.52
298.15	0.1312	969.764	0.517
298.15	0.1609	977.195	0.511
298.15	0.1965	985.908	0.506
298.15	0	936.277	0.542
303.15	0.01314	935.116	0.541
303.15	0.02301	937.692	0.538
303.15	0.03274	940.214	0.533
303.15	0.04665	943.793	0.53
303.15	0.06587	948.701	0.527
303.15	0.08329	953.122	0.524
303.15	0.1042	958.419	0.521
303.15	0.1312	965.202	0.518
303.15	0.1609	972.637	0.511
303.15	0.1965	981.362	0.506
303.15	0	931.67	0.542
308.15	0.01314	930.504	0.541
308.15	0.02301	933.085	0.539
308.15	0.03274	935.612	0.534
308.15	0.04665	939.196	0.531
308.15	0.06587	944.112	0.527
308.15	0.08329	948.539	0.525
308.15	0.1042	953.839	0.522
308.15	0.1312	960.631	0.519
308.15	0.1609	968.076	0.512
308.15	0.1965	976.808	0.507
308.15	0	927.058	0.543
313.15	0.01314	925.882	0.543
313.15	0.02301	928.469	0.54
313.15	0.03274	931.002	0.536
313.15	0.04665	934.591	0.532
313.15	0.06587	939.515	0.531
313.15	0.08329	943.99	0.525
313.15	0.1042	949.253	0.521
313.15	0.1312	956.055	0.52
313.15	0.1609	963.509	0.513
313.15	0.1965	972.249	0.508
313.15	0	922.423	0.544
318.15	0.01314	921.254	0.545
318.15	0.02301	923.849	0.541
318.15	0.03274	926.384	0.537
318.15	0.04665	929.98	0.53
318.15	0.06587	934.912	0.532
318.15	0.08329	939.4	0.526
318.15	0.1042	944.664	0.522
318.15	0.1312	951.474	0.521
318.15	0.1609	958.937	0.514
318.15	0.1965	967.689	0.509
318.15	0	917.79	0.545

System: N,N-dimethylethanamide + barium perchlorate; phases: Liquid
Fixed: Pressure, kPa = 100
Fixed: Frequency, MHz = 3
Property: Speed of sound, m/s (Liquid); method: Sing-around technique in a fixed-path interferometer
Temperature, K	Molality, mol/kg of barium perchlorate	Speed of sound, m/s	uncertainty
298.15	0.01314	1457.2	1.31
298.15	0.02301	1457.96	1.31
298.15	0.03274	1458.79	1.31
298.15	0.04665	1459.94	1.31
298.15	0.06587	1461.39	1.31
298.15	0.08329	1462.67	1.31
298.15	0.1042	1464.54	1.31
298.15	0.1312	1466.25	1.31
298.15	0.1609	1468.42	1.31
298.15	0.1965	1470.76	1.31
298.15	0	1455.93	1.32
303.15	0.01314	1437.46	1.31
303.15	0.02301	1438.29	1.31
303.15	0.03274	1439.18	1.31
303.15	0.04665	1440.36	1.31
303.15	0.06587	1441.91	1.31
303.15	0.08329	1443.28	1.31
303.15	0.1042	1445.02	1.31
303.15	0.1312	1447.04	1.31
303.15	0.1609	1449.33	1.31
303.15	0.1965	1451.86	1.31
303.15	0	1436.03	1.32
308.15	0.01314	1417.7	1.31
308.15	0.02301	1418.61	1.31
308.15	0.03274	1419.55	1.31
308.15	0.04665	1420.81	1.31
308.15	0.06587	1422.45	1.31
308.15	0.08329	1423.89	1.31
308.15	0.1042	1425.71	1.31
308.15	0.1312	1427.85	1.31
308.15	0.1609	1430.27	1.31
308.15	0.1965	1432.91	1.31
308.15	0	1416.15	1.32
313.15	0.01314	1398.07	1.31
313.15	0.02301	1399.06	1.31
313.15	0.03274	1400.05	1.31
313.15	0.04665	1401.36	1.31
313.15	0.06587	1403.09	1.31
313.15	0.08329	1405	1.31
313.15	0.1042	1406.5	1.3
313.15	0.1312	1408.78	1.31
313.15	0.1609	1411.3	1.3
313.15	0.1965	1414.1	1.3
313.15	0	1396.48	1.31
318.15	0.01314	1378.56	1.31
318.15	0.02301	1379.59	1.31
318.15	0.03274	1380.63	1.31
318.15	0.04665	1382.03	1.3
318.15	0.06587	1383.83	1.31
318.15	0.08329	1385.83	1.3
318.15	0.1042	1387.39	1.3
318.15	0.1312	1389.8	1.3
318.15	0.1609	1392.45	1.3
318.15	0.1965	1395.36	1.3
318.15	0	1376.87	1.31
