Measured thermophysical data. Solubility of RbCl and CsCl in pure water at subzero temperatures, heat capacity of RbCl(aq) and CsCl(aq) at T = 298.15 K, and thermodynamic modeling of RbCl + H2O and CsCl + H2O systems
Source: J. Chem. Thermodyn., 2017, 10.1016/j.jct.2016.09.031
Compound 1: sodium chloride, ClNa, InChI=1S/ClH.Na/h1H;/q;+1/p-1, purity 99.99%
Compound 2: rubidium chloride, ClRb, InChI=1S/ClH.Rb/h1H;/q;+1/p-1, purity 99.95%
Compound 3: cesium chloride, ClCs, InChI=1S/ClH.Cs/h1H;/q;+1/p-1, purity 99.99%
Compound 4: water, H2O, InChI=1S/H2O/h1H2

System: water; phases: Liquid
Property: Molar heat capacity at constant pressure, J/K/mol (Liquid); method: Flow calorimetry
Temperature, K	Pressure, kPa	Molar heat capacity at constant pressure, J/K/mol	uncertainty
298.15	101.325	75.11470996	1.506077408

System: water + rubidium chloride; phases: Liquid, Crystal
Fixed: Pressure, kPa = 100
Property: Molality, mol/kg of rubidium chloride (Liquid); method: gravimetric method
Temperature, K	Molality, mol/kg of rubidium chloride	uncertainty
298.15	7.722	0.023
270.15	6.232	0.019
267.15	6.059	0.019
264.15	5.837	0.019
261.15	5.621	0.018
258.15	5.421	0.017

System: water + rubidium chloride; phases: Liquid
Fixed: Temperature, K = 298.15
Fixed: Pressure, kPa = 100
Property: Molar heat capacity at constant pressure, J/K/mol (Liquid); method: Flow calorimetry
Molality, mol/kg of rubidium chloride	Molar heat capacity at constant pressure, J/K/mol	uncertainty
5.8403	66.1751349811893	1.32939877788554
4.8883	67.0061363138436	1.34354745508395
4.2132	67.5625095981387	1.35473813716667
3.3881	68.4613863395605	1.37387112396978
2.4096	69.9129361531348	1.40245046690655
1.5146	71.655171639318	1.43787560289699
0.8703	73.2025273752931	1.46832417460953
0.4938	73.8910454985293	1.48164328472812
0	75.11470996	1.506077408

System: cesium chloride + water; phases: Liquid, Crystal
Fixed: Pressure, kPa = 100
Property: Molality, mol/kg of cesium chloride (Liquid); method: gravimetric method
Temperature, K	Molality, mol/kg of cesium chloride	uncertainty
273.15	9.641	0.029
269.15	9.35	0.028
265.15	9.013	0.027
261.15	8.716	0.026
257.15	8.427	0.026
253.15	8.018	0.026

System: cesium chloride + water; phases: Liquid
Fixed: Temperature, K = 298.15
Fixed: Pressure, kPa = 100
Property: Molar heat capacity at constant pressure, J/K/mol (Liquid); method: Flow calorimetry
Molality, mol/kg of cesium chloride	Molar heat capacity at constant pressure, J/K/mol	uncertainty
6.8225	65.6263117836294	1.3168006671576
5.6743	66.0072956064635	1.32628196362363
3.8765	67.7114368543553	1.3580691786168
3.0202	68.2992094390916	1.37113884609799
2.0175	70.1317382858552	1.40659372155592
1.0657	72.4819734284428	1.45305842957963
0.5336	73.516524966233	1.47406427691262
0.2644	74.1947346352795	1.48887634184939
0	75.11470996	1.506077408

System: sodium chloride + water; phases: Liquid
Property: Molar heat capacity at constant pressure, J/K/mol (Liquid); method: Flow calorimetry
Molality, mol/kg of sodium chloride	Temperature, K	Pressure, kPa	Molar heat capacity at constant pressure, J/K/mol	uncertainty
2.05	298.15	100	72.3186238815126	1.45135299191888
