Measured thermophysical data. Solute partitioning between an ionic liquid and high-pressure CO2 studied with in situ FTIR spectroscopy
Source: J. Chem. Thermodyn., 2005, 10.1016/j.jct.2005.03.022
Compound 1: 1-butyl-3-methylimidazolium hexafluorophosphate, C8H15F6N2P, InChI=1S/C8H15N2.F6P/c1-3-4-5-10-7-6-9(2)8-10;1-7(2,3,4,5)6/h6-8H,3-5H2,1-2H3;/q+1;-1
Compound 2: 1,2-diphenylethanedione, C14H10O2, InChI=1S/C14H10O2/c15-13(11-7-3-1-4-8-11)14(16)12-9-5-2-6-10-12/h1-10H
Compound 3: carbon dioxide, CO2, InChI=1S/CO2/c2-1-3

System: carbon dioxide + 1,2-diphenylethanedione + 1-butyl-3-methylimidazolium hexafluorophosphate; phases: Liquid, Gas
Property: Amount concentration (molarity), mol/dm3 of 1,2-diphenylethanedione (Liquid); method: attenuated total reflectance infrared spectroscopy with transmission spectroscopy
Temperature, K	Pressure, kPa	Amount concentration (molarity), mol/dm3 of 1,2-diphenylethanedione	Amount concentration (molarity), mol/dm3 of 1,2-diphenylethanedione	uncertainty
313.15	10500	0	43.8	10
