Measured thermophysical data. Density measurements under pressure for the binary system (ethanol + methylcyclohexane)
Source: J. Chem. Thermodyn., 2005, 10.1016/j.jct.2005.03.016
Compound 1: ethanol, C2H6O, InChI=1S/C2H6O/c1-2-3/h3H,2H2,1H3, purity 99.9%
Compound 2: methylcyclohexane, C7H14, InChI=1S/C7H14/c1-7-5-3-2-4-6-7/h7H,2-6H2,1H3, purity 99%

System: ethanol; phases: Liquid
Property: Mass density, kg/m3 (Liquid); method: Vibrating tube method
Temperature, K	Pressure, kPa	Mass density, kg/m3	uncertainty
283.15	100	798	0.2
283.15	5000	802	0.2
283.15	10000	805.9	0.2
283.15	15000	809.5	0.3
283.15	20000	813	0.3
283.15	25000	816.4	0.4
283.15	30000	819.7	0.4
283.15	35000	822.8	0.4
283.15	40000	825.9	0.5
283.15	45000	828.8	0.5
293.15	100	789.5	0.2
293.15	5000	793.7	0.2
293.15	10000	797.8	0.3
293.15	15000	801.6	0.3
293.15	20000	805.3	0.3
293.15	25000	808.9	0.4
293.15	30000	812.3	0.4
293.15	35000	815.6	0.5
293.15	40000	818.7	0.5
293.15	45000	821.8	0.5
303.15	100	780.9	0.2
303.15	5000	785.3	0.2
303.15	10000	789.6	0.3
303.15	15000	793.7	0.3
303.15	20000	797.5	0.4
303.15	25000	801.3	0.4
303.15	30000	804.8	0.4
303.15	35000	808.2	0.5
303.15	40000	811.5	0.5
303.15	45000	814.7	0.6
313.15	100	772.1	0.2
313.15	5000	776.8	0.2
313.15	10000	781.3	0.3
313.15	15000	785.6	0.3
313.15	20000	789.6	0.4
313.15	25000	793.5	0.4
313.15	30000	797.2	0.5
313.15	35000	800.8	0.5
313.15	40000	804.2	0.5
313.15	45000	807.6	0.6
323.15	100	763.3	0.2
323.15	5000	768.3	0.2
323.15	10000	773	0.3
323.15	15000	777.6	0.3
323.15	20000	781.8	0.4
323.15	25000	785.9	0.4
323.15	30000	789.7	0.5
323.15	35000	793.5	0.5
323.15	40000	797.1	0.6
323.15	45000	800.5	0.6
333.15	100	754	0.2
333.15	5000	759.3	0.2
333.15	10000	764.3	0.3
333.15	15000	769.1	0.3
333.15	20000	773.6	0.4
333.15	25000	777.8	0.4
333.15	30000	781.9	0.5
333.15	35000	785.8	0.5
333.15	40000	789.5	0.6
333.15	45000	793.1	0.6
343.15	100	744.5	0.2
343.15	5000	750.1	0.2
343.15	10000	755.5	0.3
343.15	15000	760.5	0.3
343.15	20000	765.3	0.4
343.15	25000	769.8	0.5
343.15	30000	774	0.5
343.15	35000	778.1	0.5
343.15	40000	782	0.6
343.15	45000	785.7	0.6
353.15	5000	740.6	0.2
353.15	10000	746.4	0.3
353.15	15000	751.7	0.4
353.15	20000	756.7	0.4
353.15	25000	761.5	0.5
353.15	30000	766	0.5
353.15	35000	770.2	0.6
353.15	40000	774.3	0.6
353.15	45000	778.2	0.7

System: methylcyclohexane; phases: Liquid
Property: Mass density, kg/m3 (Liquid); method: Vibrating tube method
Temperature, K	Pressure, kPa	Mass density, kg/m3	uncertainty
283.15	100	777.6	0.5
283.15	5000	781.4	0.5
283.15	10000	785.2	0.5
283.15	15000	788.7	0.5
283.15	20000	792.1	0.5
283.15	25000	795.3	0.5
283.15	30000	798.5	0.6
283.15	35000	801.5	0.6
283.15	40000	804.4	0.6
283.15	45000	807.3	0.6
293.15	100	769	0.5
293.15	5000	773	0.5
293.15	10000	777	0.5
293.15	15000	780.7	0.5
293.15	20000	784.3	0.5
293.15	25000	787.8	0.5
293.15	30000	791.1	0.6
293.15	35000	794.2	0.6
293.15	40000	797.3	0.6
293.15	45000	800.2	0.6
303.15	100	760.4	0.5
303.15	5000	764.7	0.5
303.15	10000	768.9	0.5
303.15	15000	772.8	0.5
303.15	20000	776.6	0.5
303.15	25000	780.2	0.5
303.15	30000	783.7	0.6
303.15	35000	787	0.6
303.15	40000	790.2	0.6
303.15	45000	793.3	0.6
313.15	100	751.7	0.4
313.15	5000	756.2	0.5
313.15	10000	760.7	0.5
313.15	15000	764.8	0.5
313.15	20000	768.8	0.5
313.15	25000	772.7	0.5
313.15	30000	776.3	0.6
313.15	35000	779.8	0.6
313.15	40000	783.1	0.6
313.15	45000	786.4	0.6
323.15	100	742.9	0.4
323.15	5000	747.7	0.5
323.15	10000	752.5	0.5
323.15	15000	756.9	0.5
323.15	20000	761.1	0.5
323.15	25000	765.1	0.5
323.15	30000	769	0.6
323.15	35000	772.6	0.6
323.15	40000	776.1	0.6
323.15	45000	779.5	0.6
333.15	100	733.9	0.4
333.15	5000	739	0.5
333.15	10000	744.1	0.5
333.15	15000	748.8	0.5
333.15	20000	753.3	0.5
333.15	25000	757.5	0.5
333.15	30000	761.5	0.6
333.15	35000	765.4	0.6
333.15	40000	769	0.6
333.15	45000	772.5	0.7
343.15	100	724.8	0.4
343.15	5000	730.4	0.5
343.15	10000	735.8	0.5
343.15	15000	740.8	0.5
343.15	20000	745.6	0.5
343.15	25000	750	0.6
343.15	30000	754.2	0.6
343.15	35000	758.2	0.6
343.15	40000	762.1	0.6
343.15	45000	765.7	0.7
353.15	100	715.7	0.4
353.15	5000	721.7	0.5
353.15	10000	727.4	0.5
353.15	15000	732.8	0.5
353.15	20000	737.8	0.5
353.15	25000	742.5	0.6
353.15	30000	747	0.6
353.15	35000	751.2	0.6
353.15	40000	755.2	0.6
353.15	45000	759	0.7

System: ethanol + methylcyclohexane; phases: Liquid
Property: Mass density, kg/m3 (Liquid); method: Vibrating tube method
Mole fraction of ethanol	Temperature, K	Pressure, kPa	Mass density, kg/m3	uncertainty
0	283.15	100	777.6	0.3
0	283.15	5000	781.4	0.4
0	283.15	10000	785.2	0.4
0	283.15	15000	788.7	0.5
0	283.15	20000	792.1	0.5
0	283.15	25000	795.3	0.6
0	283.15	30000	798.5	0.6
0	283.15	35000	801.5	0.7
0	283.15	40000	804.4	0.7
0	283.15	45000	807.3	0.7
0	293.15	100	769	0.3
0	293.15	5000	773	0.4
0	293.15	10000	777	0.4
0	293.15	15000	780.7	0.5
0	293.15	20000	784.3	0.5
0	293.15	25000	787.8	0.6
0	293.15	30000	791.1	0.6
0	293.15	35000	794.2	0.7
0	293.15	40000	797.3	0.7
0	293.15	45000	800.2	0.8
0	303.15	100	760.4	0.3
0	303.15	5000	764.7	0.4
0	303.15	10000	768.9	0.4
0	303.15	15000	772.8	0.5
0	303.15	20000	776.6	0.5
0	303.15	25000	780.2	0.6
0	303.15	30000	783.7	0.6
0	303.15	35000	787	0.7
0	303.15	40000	790.2	0.7
0	303.15	45000	793.3	0.8
0	313.15	100	751.7	0.3
0	313.15	5000	756.2	0.4
0	313.15	10000	760.7	0.4
0	313.15	15000	764.8	0.5
0	313.15	20000	768.8	0.5
0	313.15	25000	772.7	0.6
0	313.15	30000	776.3	0.6
0	313.15	35000	779.8	0.7
0	313.15	40000	783.1	0.7
0	313.15	45000	786.4	0.8
0	323.15	100	742.9	0.3
0	323.15	5000	747.7	0.4
0	323.15	10000	752.5	0.4
0	323.15	15000	756.9	0.5
0	323.15	20000	761.1	0.6
0	323.15	25000	765.1	0.6
0	323.15	30000	769	0.7
0	323.15	35000	772.6	0.7
0	323.15	40000	776.1	0.8
0	323.15	45000	779.5	0.8
0	333.15	100	733.9	0.3
0	333.15	5000	739	0.4
0	333.15	10000	744.1	0.4
0	333.15	15000	748.8	0.5
0	333.15	20000	753.3	0.6
0	333.15	25000	757.5	0.6
0	333.15	30000	761.5	0.7
0	333.15	35000	765.4	0.7
0	333.15	40000	769	0.8
0	333.15	45000	772.5	0.8
0	343.15	100	724.8	0.3
0	343.15	5000	730.4	0.4
0	343.15	10000	735.8	0.4
0	343.15	15000	740.8	0.5
0	343.15	20000	745.6	0.6
0	343.15	25000	750	0.6
0	343.15	30000	754.2	0.7
0	343.15	35000	758.2	0.7
0	343.15	40000	762.1	0.8
0	343.15	45000	765.7	0.8
0	353.15	100	715.7	0.3
0	353.15	5000	721.7	0.4
0	353.15	10000	727.4	0.5
0	353.15	15000	732.8	0.5
0	353.15	20000	737.8	0.6
0	353.15	25000	742.5	0.6
0	353.15	30000	747	0.7
0	353.15	35000	751.2	0.8
0	353.15	40000	755.2	0.8
0	353.15	45000	759	0.9
0.052	283.15	100	777.6	0.3
0.052	283.15	5000	781.4	0.4
0.052	283.15	10000	785.1	0.4
0.052	283.15	15000	788.7	0.5
0.052	283.15	20000	792.1	0.5
0.052	283.15	25000	795.4	0.5
0.052	283.15	30000	798.5	0.6
0.052	283.15	35000	801.6	0.6
0.052	283.15	40000	804.5	0.7
0.052	283.15	45000	807.4	0.7
0.052	293.15	100	768.8	0.3
0.052	293.15	5000	772.8	0.4
0.052	293.15	10000	776.8	0.4
0.052	293.15	15000	780.6	0.5
0.052	293.15	20000	784.2	0.5
0.052	293.15	25000	787.6	0.6
0.052	293.15	30000	790.9	0.6
0.052	293.15	35000	794.1	0.7
0.052	293.15	40000	797.2	0.7
0.052	293.15	45000	800.2	0.7
0.052	303.15	100	760.1	0.3
0.052	303.15	5000	764.4	0.4
0.052	303.15	10000	768.6	0.4
0.052	303.15	15000	772.6	0.5
0.052	303.15	20000	776.5	0.5
0.052	303.15	25000	780.1	0.6
0.052	303.15	30000	783.6	0.6
0.052	303.15	35000	786.9	0.7
0.052	303.15	40000	790.1	0.7
0.052	303.15	45000	793.2	0.8
0.052	313.15	100	751.1	0.3
0.052	313.15	5000	755.7	0.4
0.052	313.15	10000	760.1	0.4
0.052	313.15	15000	764.4	0.5
0.052	313.15	20000	768.4	0.5
0.052	313.15	25000	772.2	0.6
0.052	313.15	30000	775.9	0.6
0.052	313.15	35000	779.4	0.7
0.052	313.15	40000	782.8	0.7
0.052	313.15	45000	786.1	0.8
0.052	323.15	100	742	0.3
0.052	323.15	5000	746.9	0.4
0.052	323.15	10000	751.7	0.4
0.052	323.15	15000	756.3	0.5
0.052	323.15	20000	760.5	0.5
0.052	323.15	25000	764.5	0.6
0.052	323.15	30000	768.4	0.6
0.052	323.15	35000	772.1	0.7
0.052	323.15	40000	775.6	0.7
0.052	323.15	45000	779.1	0.8
0.052	333.15	100	732.8	0.3
0.052	333.15	5000	738.1	0.4
0.052	333.15	10000	743.2	0.4
0.052	333.15	15000	748	0.5
0.052	333.15	20000	752.5	0.5
0.052	333.15	25000	756.8	0.6
0.052	333.15	30000	760.9	0.7
0.052	333.15	35000	764.7	0.7
0.052	333.15	40000	768.5	0.8
0.052	333.15	45000	772	0.8
0.052	343.15	100	723.4	0.3
0.052	343.15	5000	729.1	0.4
0.052	343.15	10000	734.6	0.4
0.052	343.15	15000	739.7	0.5
0.052	343.15	20000	744.5	0.6
0.052	343.15	25000	749	0.6
0.052	343.15	30000	753.3	0.7
0.052	343.15	35000	757.4	0.7
0.052	343.15	40000	761.3	0.8
0.052	343.15	45000	765	0.8
0.052	353.15	5000	720.2	0.4
0.052	353.15	10000	726	0.4
0.052	353.15	15000	731.5	0.5
0.052	353.15	20000	736.6	0.6
0.052	353.15	25000	741.3	0.6
0.052	353.15	30000	745.8	0.7
0.052	353.15	35000	750.1	0.7
0.052	353.15	40000	754.2	0.8
0.052	353.15	45000	758	0.8
0.125	283.15	100	777.7	0.3
0.125	283.15	5000	781.6	0.3
0.125	283.15	10000	785.3	0.4
0.125	283.15	15000	788.9	0.4
0.125	283.15	20000	792.4	0.5
0.125	283.15	25000	795.6	0.5
0.125	283.15	30000	798.8	0.6
0.125	283.15	35000	801.9	0.6
0.125	283.15	40000	804.8	0.7
0.125	283.15	45000	807.7	0.7
0.125	293.15	100	768.9	0.3
0.125	293.15	5000	772.9	0.3
0.125	293.15	10000	776.9	0.4
0.125	293.15	15000	780.7	0.4
0.125	293.15	20000	784.4	0.5
0.125	293.15	25000	787.8	0.5
0.125	293.15	30000	791.2	0.6
0.125	293.15	35000	794.4	0.6
0.125	293.15	40000	797.5	0.7
0.125	293.15	45000	800.5	0.7
0.125	303.15	100	760.1	0.3
0.125	303.15	5000	764.4	0.3
0.125	303.15	10000	768.6	0.4
0.125	303.15	15000	772.7	0.4
0.125	303.15	20000	776.5	0.5
0.125	303.15	25000	780.2	0.6
0.125	303.15	30000	783.6	0.6
0.125	303.15	35000	787	0.6
0.125	303.15	40000	790.3	0.7
0.125	303.15	45000	793.4	0.7
0.125	313.15	100	751	0.3
0.125	313.15	5000	755.7	0.3
0.125	313.15	10000	760.2	0.4
0.125	313.15	15000	764.5	0.5
0.125	313.15	20000	768.5	0.5
0.125	313.15	25000	772.4	0.6
0.125	313.15	30000	776.1	0.6
0.125	313.15	35000	779.6	0.7
0.125	313.15	40000	783	0.7
0.125	313.15	45000	786.3	0.8
0.125	323.15	100	741.9	0.3
0.125	323.15	5000	746.8	0.3
0.125	323.15	10000	751.7	0.4
0.125	323.15	15000	756.2	0.5
0.125	323.15	20000	760.5	0.5
0.125	323.15	25000	764.6	0.6
0.125	323.15	30000	768.5	0.6
0.125	323.15	35000	772.2	0.7
0.125	323.15	40000	775.7	0.7
0.125	323.15	45000	779.2	0.8
0.125	333.15	100	732.4	0.3
0.125	333.15	5000	737.8	0.4
0.125	333.15	10000	742.9	0.4
0.125	333.15	15000	747.8	0.5
0.125	333.15	20000	752.3	0.5
0.125	333.15	25000	756.6	0.6
0.125	333.15	30000	760.7	0.6
0.125	333.15	35000	764.6	0.7
0.125	333.15	40000	768.4	0.7
0.125	333.15	45000	771.9	0.8
0.125	343.15	100	722.8	0.3
0.125	343.15	5000	728.6	0.4
0.125	343.15	10000	734.1	0.4
0.125	343.15	15000	739.3	0.5
0.125	343.15	20000	744.2	0.5
0.125	343.15	25000	748.7	0.6
0.125	343.15	30000	753	0.7
0.125	343.15	35000	757.1	0.7
0.125	343.15	40000	761	0.8
0.125	343.15	45000	764.8	0.8
0.125	353.15	5000	719.3	0.4
0.125	353.15	10000	725.3	0.4
0.125	353.15	15000	730.8	0.5
0.125	353.15	20000	736	0.6
0.125	353.15	25000	740.8	0.6
0.125	353.15	30000	745.3	0.7
0.125	353.15	35000	749.6	0.7
0.125	353.15	40000	753.7	0.8
0.125	353.15	45000	757.7	0.8
0.25	283.15	100	778.5	0.3
0.25	283.15	5000	782.4	0.3
0.25	283.15	10000	786.2	0.4
0.25	283.15	15000	789.8	0.4
0.25	283.15	20000	793.2	0.5
0.25	283.15	25000	796.6	0.5
0.25	283.15	30000	799.7	0.5
0.25	283.15	35000	802.8	0.6
0.25	283.15	40000	805.8	0.6
0.25	283.15	45000	808.7	0.7
0.25	293.15	100	769.6	0.3
0.25	293.15	5000	773.7	0.3
0.25	293.15	10000	777.8	0.4
0.25	293.15	15000	781.6	0.4
0.25	293.15	20000	785.2	0.5
0.25	293.15	25000	788.7	0.5
0.25	293.15	30000	792.1	0.6
0.25	293.15	35000	795.3	0.6
0.25	293.15	40000	798.4	0.6
0.25	293.15	45000	801.5	0.7
0.25	303.15	100	760.7	0.3
0.25	303.15	5000	765.1	0.3
0.25	303.15	10000	769.4	0.4
0.25	303.15	15000	773.4	0.4
0.25	303.15	20000	777.3	0.5
0.25	303.15	25000	781	0.5
0.25	303.15	30000	784.5	0.6
0.25	303.15	35000	787.9	0.6
0.25	303.15	40000	791.2	0.7
0.25	303.15	45000	794.3	0.7
0.25	313.15	100	751.6	0.3
0.25	313.15	5000	756.3	0.3
0.25	313.15	10000	760.9	0.4
0.25	313.15	15000	765.2	0.4
0.25	313.15	20000	769.3	0.5
0.25	313.15	25000	773.2	0.5
0.25	313.15	30000	776.9	0.6
0.25	313.15	35000	780.5	0.6
0.25	313.15	40000	783.9	0.7
0.25	313.15	45000	787.2	0.7
0.25	323.15	100	742.4	0.3
0.25	323.15	5000	747.4	0.3
0.25	323.15	10000	752.3	0.4
0.25	323.15	15000	756.8	0.4
0.25	323.15	20000	761.2	0.5
0.25	323.15	25000	765.3	0.5
0.25	323.15	30000	769.2	0.6
0.25	323.15	35000	772.9	0.6
0.25	323.15	40000	776.5	0.7
0.25	323.15	45000	780	0.7
0.25	333.15	100	732.7	0.3
0.25	333.15	5000	738.1	0.3
0.25	333.15	10000	743.3	0.4
0.25	333.15	15000	748.2	0.4
0.25	333.15	20000	752.8	0.5
0.25	333.15	25000	757.1	0.6
0.25	333.15	30000	761.3	0.6
0.25	333.15	35000	765.2	0.7
0.25	333.15	40000	769	0.7
0.25	333.15	45000	772.6	0.8
0.25	343.15	100	722.9	0.3
0.25	343.15	5000	728.7	0.3
0.25	343.15	10000	734.3	0.4
0.25	343.15	15000	739.6	0.5
0.25	343.15	20000	744.5	0.5
0.25	343.15	25000	749.1	0.6
0.25	343.15	30000	753.5	0.6
0.25	343.15	35000	757.6	0.7
0.25	343.15	40000	761.5	0.7
0.25	343.15	45000	765.3	0.8
0.25	353.15	5000	719.2	0.3
0.25	353.15	10000	725.2	0.4
0.25	353.15	15000	730.8	0.5
0.25	353.15	20000	736	0.5
0.25	353.15	25000	740.9	0.6
0.25	353.15	30000	745.5	0.6
0.25	353.15	35000	749.9	0.7
0.25	353.15	40000	754	0.8
0.25	353.15	45000	758	0.8
0.375	283.15	100	779.8	0.2
0.375	283.15	5000	783.6	0.3
0.375	283.15	10000	787.4	0.3
0.375	283.15	15000	791.1	0.4
0.375	283.15	20000	794.6	0.4
0.375	283.15	25000	797.9	0.5
0.375	283.15	30000	801.1	0.5
0.375	283.15	35000	804.2	0.6
0.375	283.15	40000	807.2	0.6
0.375	283.15	45000	810.1	0.6
0.375	293.15	100	770.8	0.2
0.375	293.15	5000	774.9	0.3
0.375	293.15	10000	779	0.3
0.375	293.15	15000	782.8	0.4
0.375	293.15	20000	786.5	0.4
0.375	293.15	25000	790	0.5
0.375	293.15	30000	793.4	0.5
0.375	293.15	35000	796.7	0.6
0.375	293.15	40000	799.8	0.6
0.375	293.15	45000	802.8	0.7
0.375	303.15	100	761.9	0.2
0.375	303.15	5000	766.3	0.3
0.375	303.15	10000	770.6	0.3
0.375	303.15	15000	774.7	0.4
0.375	303.15	20000	778.6	0.4
0.375	303.15	25000	782.3	0.5
0.375	303.15	30000	785.8	0.5
0.375	303.15	35000	789.2	0.6
0.375	303.15	40000	792.5	0.6
0.375	303.15	45000	795.7	0.7
0.375	313.15	100	752.7	0.2
0.375	313.15	5000	757.4	0.3
0.375	313.15	10000	762	0.3
0.375	313.15	15000	766.4	0.4
0.375	313.15	20000	770.5	0.5
0.375	313.15	25000	774.4	0.5
0.375	313.15	30000	778.1	0.6
0.375	313.15	35000	781.7	0.6
0.375	313.15	40000	785.2	0.7
0.375	313.15	45000	788.5	0.7
0.375	323.15	100	743.4	0.2
0.375	323.15	5000	748.5	0.3
0.375	323.15	10000	753.4	0.4
0.375	323.15	15000	758	0.4
0.375	323.15	20000	762.4	0.5
0.375	323.15	25000	766.5	0.5
0.375	323.15	30000	770.4	0.6
0.375	323.15	35000	774.2	0.6
0.375	323.15	40000	777.8	0.7
0.375	323.15	45000	781.2	0.7
0.375	333.15	100	733.7	0.2
0.375	333.15	5000	739.1	0.3
0.375	333.15	10000	744.4	0.4
0.375	333.15	15000	749.3	0.4
0.375	333.15	20000	753.9	0.5
0.375	333.15	25000	758.3	0.5
0.375	333.15	30000	762.4	0.6
0.375	333.15	35000	766.4	0.6
0.375	333.15	40000	770.2	0.7
0.375	333.15	45000	773.8	0.7
0.375	343.15	100	723.8	0.2
0.375	343.15	5000	729.6	0.3
0.375	343.15	10000	735.3	0.4
0.375	343.15	15000	740.5	0.4
0.375	343.15	20000	745.5	0.5
0.375	343.15	25000	750.1	0.5
0.375	343.15	30000	754.5	0.6
0.375	343.15	35000	758.6	0.7
0.375	343.15	40000	762.6	0.7
0.375	343.15	45000	766.4	0.8
0.375	353.15	5000	719.9	0.3
0.375	353.15	10000	726	0.4
0.375	353.15	15000	731.7	0.4
0.375	353.15	20000	736.9	0.5
0.375	353.15	25000	741.8	0.6
0.375	353.15	30000	746.4	0.6
0.375	353.15	35000	750.8	0.7
0.375	353.15	40000	755	0.7
0.375	353.15	45000	759	0.8
0.5	283.15	100	781.4	0.2
0.5	283.15	5000	785.3	0.3
0.5	283.15	10000	789.1	0.3
0.5	283.15	15000	792.8	0.4
0.5	283.15	20000	796.3	0.4
0.5	283.15	25000	799.6	0.4
0.5	283.15	30000	802.8	0.5
0.5	283.15	35000	806	0.5
0.5	283.15	40000	809	0.6
0.5	283.15	45000	811.9	0.6
0.5	293.15	100	772.5	0.2
0.5	293.15	5000	776.6	0.3
0.5	293.15	10000	780.7	0.3
0.5	293.15	15000	784.5	0.4
0.5	293.15	20000	788.2	0.4
0.5	293.15	25000	791.8	0.5
0.5	293.15	30000	795.2	0.5
0.5	293.15	35000	798.4	0.5
0.5	293.15	40000	801.6	0.6
0.5	293.15	45000	804.6	0.6
0.5	303.15	100	763.6	0.2
0.5	303.15	5000	768	0.3
0.5	303.15	10000	772.3	0.3
0.5	303.15	15000	776.4	0.4
0.5	303.15	20000	780.3	0.4
0.5	303.15	25000	784	0.5
0.5	303.15	30000	787.6	0.5
0.5	303.15	35000	791	0.6
0.5	303.15	40000	794.3	0.6
0.5	303.15	45000	797.4	0.7
0.5	313.15	100	754.4	0.2
0.5	313.15	5000	759.1	0.3
0.5	313.15	10000	763.7	0.3
0.5	313.15	15000	768.1	0.4
0.5	313.15	20000	772.2	0.4
0.5	313.15	25000	776.1	0.5
0.5	313.15	30000	779.9	0.5
0.5	313.15	35000	783.5	0.6
0.5	313.15	40000	786.9	0.6
0.5	313.15	45000	790.2	0.7
0.5	323.15	100	745	0.2
0.5	323.15	5000	750.1	0.3
0.5	323.15	10000	755	0.3
0.5	323.15	15000	759.6	0.4
0.5	323.15	20000	764	0.4
0.5	323.15	25000	768.2	0.5
0.5	323.15	30000	772.1	0.5
0.5	323.15	35000	775.9	0.6
0.5	323.15	40000	779.5	0.6
0.5	323.15	45000	783	0.7
0.5	333.15	100	735.3	0.2
0.5	333.15	5000	740.7	0.3
0.5	333.15	10000	746	0.3
0.5	333.15	15000	750.9	0.4
0.5	333.15	20000	755.6	0.5
0.5	333.15	25000	759.9	0.5
0.5	333.15	30000	764.1	0.6
0.5	333.15	35000	768.1	0.6
0.5	333.15	40000	771.9	0.7
0.5	333.15	45000	775.5	0.7
0.5	343.15	100	725.3	0.2
0.5	343.15	5000	731.2	0.3
0.5	343.15	10000	736.9	0.4
0.5	343.15	15000	742.1	0.4
0.5	343.15	20000	747.1	0.5
0.5	343.15	25000	751.7	0.5
0.5	343.15	30000	756.1	0.6
0.5	343.15	35000	760.3	0.6
0.5	343.15	40000	764.3	0.7
0.5	343.15	45000	768.1	0.7
0.5	353.15	5000	721.4	0.3
0.5	353.15	10000	727.5	0.4
0.5	353.15	15000	733.1	0.4
0.5	353.15	20000	738.4	0.5
0.5	353.15	25000	743.4	0.5
0.5	353.15	30000	748	0.6
0.5	353.15	35000	752.4	0.6
0.5	353.15	40000	756.6	0.7
0.5	353.15	45000	760.6	0.8
0.625	283.15	100	783.5	0.2
0.625	283.15	5000	787.4	0.2
0.625	283.15	10000	791.3	0.3
0.625	283.15	15000	794.9	0.3
0.625	283.15	20000	798.5	0.4
0.625	283.15	25000	801.8	0.4
0.625	283.15	30000	805.1	0.5
0.625	283.15	35000	808.2	0.5
0.625	283.15	40000	811.3	0.6
0.625	283.15	45000	814.2	0.6
0.625	293.15	100	774.6	0.2
0.625	293.15	5000	778.8	0.2
0.625	293.15	10000	782.9	0.3
0.625	293.15	15000	786.8	0.3
0.625	293.15	20000	790.5	0.4
0.625	293.15	25000	794	0.4
0.625	293.15	30000	797.4	0.5
0.625	293.15	35000	800.7	0.5
0.625	293.15	40000	803.9	0.6
0.625	293.15	45000	806.9	0.6
0.625	303.15	100	765.8	0.2
0.625	303.15	5000	770.2	0.3
0.625	303.15	10000	774.5	0.3
0.625	303.15	15000	778.6	0.4
0.625	303.15	20000	782.5	0.4
0.625	303.15	25000	786.3	0.5
0.625	303.15	30000	789.9	0.5
0.625	303.15	35000	793.3	0.5
0.625	303.15	40000	796.6	0.6
0.625	303.15	45000	799.8	0.6
0.625	313.15	100	756.7	0.2
0.625	313.15	5000	761.4	0.3
0.625	313.15	10000	766	0.3
0.625	313.15	15000	770.4	0.4
0.625	313.15	20000	774.5	0.4
0.625	313.15	25000	778.4	0.5
0.625	313.15	30000	782.2	0.5
0.625	313.15	35000	785.8	0.6
0.625	313.15	40000	789.3	0.6
0.625	313.15	45000	792.6	0.7
0.625	323.15	100	747.4	0.2
0.625	323.15	5000	752.4	0.3
0.625	323.15	10000	757.4	0.3
0.625	323.15	15000	762	0.4
0.625	323.15	20000	766.4	0.4
0.625	323.15	25000	770.5	0.5
0.625	323.15	30000	774.5	0.5
0.625	323.15	35000	778.2	0.6
0.625	323.15	40000	781.9	0.6
0.625	323.15	45000	785.3	0.7
0.625	333.15	100	737.6	0.2
0.625	333.15	5000	743	0.3
0.625	333.15	10000	748.3	0.3
0.625	333.15	15000	753.3	0.4
0.625	333.15	20000	757.9	0.4
0.625	333.15	25000	762.3	0.5
0.625	333.15	30000	766.4	0.5
0.625	333.15	35000	770.4	0.6
0.625	333.15	40000	774.2	0.6
0.625	333.15	45000	777.9	0.7
0.625	343.15	100	727.6	0.2
0.625	343.15	5000	733.5	0.3
0.625	343.15	10000	739.2	0.3
0.625	343.15	15000	744.4	0.4
0.625	343.15	20000	749.4	0.4
0.625	343.15	25000	754	0.5
0.625	343.15	30000	758.4	0.6
0.625	343.15	35000	762.6	0.6
0.625	343.15	40000	766.6	0.7
0.625	343.15	45000	770.4	0.7
0.625	353.15	5000	723.7	0.3
0.625	353.15	10000	729.8	0.3
0.625	353.15	15000	735.4	0.4
0.625	353.15	20000	740.7	0.5
0.625	353.15	25000	745.6	0.5
0.625	353.15	30000	750.3	0.6
0.625	353.15	35000	754.6	0.6
0.625	353.15	40000	758.8	0.7
0.625	353.15	45000	762.8	0.7
0.75	283.15	100	786.4	0.2
0.75	283.15	5000	790.4	0.2
0.75	283.15	10000	794.3	0.3
0.75	283.15	15000	797.9	0.3
0.75	283.15	20000	801.5	0.4
0.75	283.15	25000	804.9	0.4
0.75	283.15	30000	808.1	0.4
0.75	283.15	35000	811.3	0.5
0.75	283.15	40000	814.3	0.5
0.75	283.15	45000	817.2	0.6
0.75	293.15	100	777.7	0.2
0.75	293.15	5000	781.8	0.2
0.75	293.15	10000	785.9	0.3
0.75	293.15	15000	789.9	0.3
0.75	293.15	20000	793.6	0.4
0.75	293.15	25000	797.1	0.4
0.75	293.15	30000	800.5	0.5
0.75	293.15	35000	803.8	0.5
0.75	293.15	40000	807	0.5
0.75	293.15	45000	810	0.6
0.75	303.15	100	768.9	0.2
0.75	303.15	5000	773.3	0.2
0.75	303.15	10000	777.7	0.3
0.75	303.15	15000	781.8	0.3
0.75	303.15	20000	785.7	0.4
0.75	303.15	25000	789.4	0.4
0.75	303.15	30000	793.1	0.5
0.75	303.15	35000	796.5	0.5
0.75	303.15	40000	799.8	0.6
0.75	303.15	45000	803	0.6
0.75	313.15	100	759.9	0.2
0.75	313.15	5000	764.6	0.2
0.75	313.15	10000	769.2	0.3
0.75	313.15	15000	773.6	0.3
0.75	313.15	20000	777.7	0.4
0.75	313.15	25000	781.6	0.4
0.75	313.15	30000	785.4	0.5
0.75	313.15	35000	789	0.5
0.75	313.15	40000	792.5	0.6
0.75	313.15	45000	795.8	0.6
0.75	323.15	100	750.7	0.2
0.75	323.15	5000	755.7	0.2
0.75	323.15	10000	760.6	0.3
0.75	323.15	15000	765.2	0.4
0.75	323.15	20000	769.6	0.4
0.75	323.15	25000	773.7	0.5
0.75	323.15	30000	777.7	0.5
0.75	323.15	35000	781.5	0.6
0.75	323.15	40000	785.1	0.6
0.75	323.15	45000	788.6	0.7
0.75	333.15	100	741	0.2
0.75	333.15	5000	746.4	0.3
0.75	333.15	10000	751.6	0.3
0.75	333.15	15000	756.6	0.4
0.75	333.15	20000	761.2	0.4
0.75	333.15	25000	765.5	0.5
0.75	333.15	30000	769.7	0.5
0.75	333.15	35000	773.7	0.6
0.75	333.15	40000	777.5	0.6
0.75	333.15	45000	781.1	0.7
0.75	343.15	100	731.1	0.2
0.75	343.15	5000	736.9	0.3
0.75	343.15	10000	742.5	0.3
0.75	343.15	15000	747.8	0.4
0.75	343.15	20000	752.7	0.4
0.75	343.15	25000	757.3	0.5
0.75	343.15	30000	761.7	0.5
0.75	343.15	35000	765.9	0.6
0.75	343.15	40000	769.8	0.6
0.75	343.15	45000	773.6	0.7
0.75	353.15	5000	727.1	0.3
0.75	353.15	10000	733.2	0.3
0.75	353.15	15000	738.8	0.4
0.75	353.15	20000	744	0.4
0.75	353.15	25000	748.9	0.5
0.75	353.15	30000	753.6	0.6
0.75	353.15	35000	757.9	0.6
0.75	353.15	40000	762.1	0.7
0.75	353.15	45000	766.1	0.7
0.875	283.15	100	790.9	0.2
0.875	283.15	5000	794.8	0.2
0.875	283.15	10000	798.7	0.3
0.875	283.15	15000	802.4	0.3
0.875	283.15	20000	805.9	0.3
0.875	283.15	25000	809.3	0.4
0.875	283.15	30000	812.6	0.4
0.875	283.15	35000	815.8	0.5
0.875	283.15	40000	818.8	0.5
0.875	283.15	45000	821.8	0.6
0.875	293.15	100	782.2	0.2
0.875	293.15	5000	786.4	0.2
0.875	293.15	10000	790.5	0.3
0.875	293.15	15000	794.4	0.3
0.875	293.15	20000	798.1	0.4
0.875	293.15	25000	801.7	0.4
0.875	293.15	30000	805.1	0.4
0.875	293.15	35000	808.4	0.5
0.875	293.15	40000	811.6	0.5
0.875	293.15	45000	814.6	0.6
0.875	303.15	100	773.5	0.2
0.875	303.15	5000	777.9	0.2
0.875	303.15	10000	782.3	0.3
0.875	303.15	15000	786.4	0.3
0.875	303.15	20000	790.3	0.4
0.875	303.15	25000	794	0.4
0.875	303.15	30000	797.6	0.5
0.875	303.15	35000	801.1	0.5
0.875	303.15	40000	804.4	0.5
0.875	303.15	45000	807.6	0.6
0.875	313.15	100	764.7	0.2
0.875	313.15	5000	769.3	0.2
0.875	313.15	10000	773.9	0.3
0.875	313.15	15000	778.3	0.3
0.875	313.15	20000	782.4	0.4
0.875	313.15	25000	786.3	0.4
0.875	313.15	30000	790.1	0.5
0.875	313.15	35000	793.7	0.5
0.875	313.15	40000	797.1	0.6
0.875	313.15	45000	800.4	0.6
0.875	323.15	100	755.6	0.2
0.875	323.15	5000	760.6	0.2
0.875	323.15	10000	765.5	0.3
0.875	323.15	15000	770.1	0.3
0.875	323.15	20000	774.4	0.4
0.875	323.15	25000	778.5	0.4
0.875	323.15	30000	782.4	0.5
0.875	323.15	35000	786.2	0.5
0.875	323.15	40000	789.8	0.6
0.875	323.15	45000	793.3	0.6
0.875	333.15	100	746	0.2
0.875	333.15	5000	751.4	0.2
0.875	333.15	10000	756.6	0.3
0.875	333.15	15000	761.5	0.4
0.875	333.15	20000	766	0.4
0.875	333.15	25000	770.4	0.5
0.875	333.15	30000	774.5	0.5
0.875	333.15	35000	778.4	0.6
0.875	333.15	40000	782.2	0.6
0.875	333.15	45000	785.9	0.7
0.875	343.15	100	736.3	0.2
0.875	343.15	5000	742.1	0.3
0.875	343.15	10000	747.6	0.3
0.875	343.15	15000	752.8	0.4
0.875	343.15	20000	757.7	0.4
0.875	343.15	25000	762.3	0.5
0.875	343.15	30000	766.6	0.5
0.875	343.15	35000	770.8	0.6
0.875	343.15	40000	774.7	0.6
0.875	343.15	45000	778.4	0.7
0.875	353.15	5000	732.5	0.3
0.875	353.15	10000	738.4	0.3
0.875	353.15	15000	743.9	0.4
0.875	353.15	20000	749.1	0.4
0.875	353.15	25000	753.9	0.5
0.875	353.15	30000	758.5	0.5
0.875	353.15	35000	762.9	0.6
0.875	353.15	40000	767	0.6
0.875	353.15	45000	771	0.7
1	283.15	100	798	0.2
1	283.15	5000	802	0.2
1	283.15	10000	805.9	0.2
1	283.15	15000	809.5	0.3
1	283.15	20000	813	0.3
1	283.15	25000	816.4	0.4
1	283.15	30000	819.7	0.4
1	283.15	35000	822.8	0.4
1	283.15	40000	825.9	0.5
1	283.15	45000	828.8	0.5
1	293.15	100	789.5	0.2
1	293.15	5000	793.7	0.2
1	293.15	10000	797.8	0.3
1	293.15	15000	801.6	0.3
1	293.15	20000	805.3	0.3
1	293.15	25000	808.9	0.4
1	293.15	30000	812.3	0.4
1	293.15	35000	815.6	0.5
1	293.15	40000	818.7	0.5
1	293.15	45000	821.8	0.5
1	303.15	100	780.9	0.2
1	303.15	5000	785.3	0.2
1	303.15	10000	789.6	0.3
1	303.15	15000	793.7	0.3
1	303.15	20000	797.5	0.4
1	303.15	25000	801.3	0.4
1	303.15	30000	804.8	0.4
1	303.15	35000	808.2	0.5
1	303.15	40000	811.5	0.5
1	303.15	45000	814.7	0.6
1	313.15	100	772.1	0.2
1	313.15	5000	776.8	0.2
1	313.15	10000	781.3	0.3
1	313.15	15000	785.6	0.3
1	313.15	20000	789.6	0.4
1	313.15	25000	793.5	0.4
1	313.15	30000	797.2	0.5
1	313.15	35000	800.8	0.5
1	313.15	40000	804.2	0.5
1	313.15	45000	807.6	0.6
1	323.15	100	763.3	0.2
1	323.15	5000	768.3	0.2
1	323.15	10000	773	0.3
1	323.15	15000	777.6	0.3
1	323.15	20000	781.8	0.4
1	323.15	25000	785.9	0.4
1	323.15	30000	789.7	0.5
1	323.15	35000	793.5	0.5
1	323.15	40000	797.1	0.6
1	323.15	45000	800.5	0.6
1	333.15	100	754	0.2
1	333.15	5000	759.3	0.2
1	333.15	10000	764.3	0.3
1	333.15	15000	769.1	0.3
1	333.15	20000	773.6	0.4
1	333.15	25000	777.8	0.4
1	333.15	30000	781.9	0.5
1	333.15	35000	785.8	0.5
1	333.15	40000	789.5	0.6
1	333.15	45000	793.1	0.6
1	343.15	100	744.5	0.2
1	343.15	5000	750.1	0.2
1	343.15	10000	755.5	0.3
1	343.15	15000	760.5	0.3
1	343.15	20000	765.3	0.4
1	343.15	25000	769.8	0.5
1	343.15	30000	774	0.5
1	343.15	35000	778.1	0.5
1	343.15	40000	782	0.6
1	343.15	45000	785.7	0.6
1	353.15	5000	740.6	0.2
1	353.15	10000	746.4	0.3
1	353.15	15000	751.7	0.4
1	353.15	20000	756.7	0.4
1	353.15	25000	761.5	0.5
1	353.15	30000	766	0.5
1	353.15	35000	770.2	0.6
1	353.15	40000	774.3	0.6
1	353.15	45000	778.2	0.7
