Measured thermophysical data. Experimental and Nitta-Chao model prediction of high pressure density of p-xylene with dialkyl carbonates or n-alkanes
Source: J. Chem. Thermodyn., 2014, 10.1016/j.jct.2013.09.039
Compound 1: dimethyl carbonate, C3H6O3, InChI=1S/C3H6O3/c1-5-3(4)6-2/h1-2H3, purity 99%
Compound 2: diethyl carbonate, C5H10O3, InChI=1S/C5H10O3/c1-3-7-5(6)8-4-2/h3-4H2,1-2H3, purity 99.5%
Compound 3: octane, C8H18, InChI=1S/C8H18/c1-3-5-7-8-6-4-2/h3-8H2,1-2H3, purity 99%
Compound 4: decane, C10H22, InChI=1S/C10H22/c1-3-5-7-9-10-8-6-4-2/h3-10H2,1-2H3, purity 99%
Compound 5: 1,4-dimethylbenzene, C8H10, InChI=1S/C8H10/c1-7-3-5-8(2)6-4-7/h3-6H,1-2H3, purity 99%

System: 1,4-dimethylbenzene; phases: Liquid
Property: Mass density, kg/m3 (Liquid); method: Vibrating tube method
Temperature, K	Pressure, kPa	Mass density, kg/m3	uncertainty
288.15	100	864.9	2
298.15	100	856.2	2
308.15	100	847.5	2
288.15	5000	868.3	2
298.15	5000	860.2	2
308.15	5000	851.4	2
288.15	10000	871.8	2
298.15	10000	863.5	2
308.15	10000	855.2	2
288.15	20000	878.1	2
298.15	20000	870.1	2
308.15	20000	862.1	2
288.15	30000	884	2
298.15	30000	876.5	2
308.15	30000	868.6	2
288.15	40000	889.7	2
298.15	40000	882.2	2
308.15	40000	874.8	2

System: 1,4-dimethylbenzene + dimethyl carbonate; phases: Liquid
Property: Mass density, kg/m3 (Liquid); method: Vibrating tube method
Temperature, K	Pressure, kPa	Mole fraction of dimethyl carbonate	Mass density, kg/m3	uncertainty
288.15	100	0.0432	871.8	4
288.15	100	0.195	894.2	4
288.15	100	0.3968	924.2	4
288.15	100	0.4933	944.9	4
288.15	100	0.5296	953.3	4
288.15	100	0.5993	968.4	4
288.15	100	0.7034	992.3	4
288.15	100	0.8023	1010.6	4
288.15	100	0.8921	1038.1	4
288.15	100	0.9478	1052.9	4
288.15	5000	0.0432	875.5	4
288.15	5000	0.195	897.8	4
288.15	5000	0.3968	931.9	4
288.15	5000	0.4933	950.4	4
288.15	5000	0.5296	957.3	4
288.15	5000	0.5993	972.4	4
288.15	5000	0.7034	996.2	4
288.15	5000	0.8023	1014.9	4
288.15	5000	0.8921	1042.5	4
288.15	5000	0.9478	1057.2	4
288.15	10000	0.0432	879.1	4
288.15	10000	0.195	901.3	4
288.15	10000	0.3968	935.7	4
288.15	10000	0.4933	954.1	4
288.15	10000	0.5296	961.2	4
288.15	10000	0.5993	976.3	4
288.15	10000	0.7034	1000.3	4
288.15	10000	0.8023	1019	4
288.15	10000	0.8921	1046.6	4
288.15	10000	0.9478	1061.4	4
288.15	20000	0.0432	885.4	4
288.15	20000	0.195	907.8	4
288.15	20000	0.3968	942.5	4
288.15	20000	0.4933	961.4	4
288.15	20000	0.5296	968.3	4
288.15	20000	0.5993	983.7	4
288.15	20000	0.7034	1007.8	4
288.15	20000	0.8023	1026.8	4
288.15	20000	0.8921	1054.5	4
288.15	20000	0.9478	1069.4	4
288.15	30000	0.0432	891.3	4
288.15	30000	0.195	914	4
288.15	30000	0.3968	949	4
288.15	30000	0.4933	967.9	4
288.15	30000	0.5296	974.9	4
288.15	30000	0.5993	990.5	4
288.15	30000	0.7034	1014.7	4
288.15	30000	0.8023	1033.9	4
288.15	30000	0.8921	1061.5	4
288.15	30000	0.9478	1076.7	4
288.15	40000	0.0432	897.1	4
288.15	40000	0.195	920.1	4
288.15	40000	0.3968	955.3	4
288.15	40000	0.4933	974.3	4
288.15	40000	0.5296	980.9	4
288.15	40000	0.5993	997.1	4
288.15	40000	0.7034	1021.4	4
288.15	40000	0.8023	1040.7	4
288.15	40000	0.8921	1068.7	4
288.15	40000	0.9478	1083.8	4
298.15	100	0.0432	863	4
298.15	100	0.195	884.5	4
298.15	100	0.3968	917.8	4
298.15	100	0.4933	935.8	4
298.15	100	0.5296	942.5	4
298.15	100	0.5993	957.3	4
298.15	100	0.7034	980.5	4
298.15	100	0.8023	998.4	4
298.15	100	0.8921	1025.5	4
298.15	100	0.9478	1040	4
298.15	5000	0.0432	867.3	4
298.15	5000	0.195	888.3	4
298.15	5000	0.3968	922.5	4
298.15	5000	0.4933	940.6	4
298.15	5000	0.5296	947.1	4
298.15	5000	0.5993	962	4
298.15	5000	0.7034	985.4	4
298.15	5000	0.8023	1003.4	4
298.15	5000	0.8921	1030.6	4
298.15	5000	0.9478	1044.9	4
298.15	10000	0.0432	870.4	4
298.15	10000	0.195	892.1	4
298.15	10000	0.3968	925.8	4
298.15	10000	0.4933	944	4
298.15	10000	0.5296	950.7	4
298.15	10000	0.5993	965.7	4
298.15	10000	0.7034	989.1	4
298.15	10000	0.8023	1007.3	4
298.15	10000	0.8921	1034.7	4
298.15	10000	0.9478	1049	4
298.15	20000	0.0432	877.1	4
298.15	20000	0.195	899.2	4
298.15	20000	0.3968	933.2	4
298.15	20000	0.4933	951.6	4
298.15	20000	0.5296	958.2	4
298.15	20000	0.5993	973.4	4
298.15	20000	0.7034	997	4
298.15	20000	0.8023	1015.5	4
298.15	20000	0.8921	1042.9	4
298.15	20000	0.9478	1057.5	4
298.15	30000	0.0432	883.4	4
298.15	30000	0.195	905.5	4
298.15	30000	0.3968	939.9	4
298.15	30000	0.4933	958.7	4
298.15	30000	0.5296	965.4	4
298.15	30000	0.5993	980.5	4
298.15	30000	0.7034	1004.4	4
298.15	30000	0.8023	1022.7	4
298.15	30000	0.8921	1050.6	4
298.15	30000	0.9478	1065	4
298.15	40000	0.0432	889.1	4
298.15	40000	0.195	911.7	4
298.15	40000	0.3968	946.5	4
298.15	40000	0.4933	965.1	4
298.15	40000	0.5296	972	4
298.15	40000	0.5993	987.3	4
298.15	40000	0.7034	1011.2	4
298.15	40000	0.8023	1030.1	4
298.15	40000	0.8921	1057.9	4
298.15	40000	0.9478	1072.7	4
308.15	100	0.0432	854.3	4
308.15	100	0.195	875.2	4
308.15	100	0.3968	907.6	4
308.15	100	0.4933	925.2	4
308.15	100	0.5296	931.7	4
308.15	100	0.5993	946.3	4
308.15	100	0.7034	969	4
308.15	100	0.8023	986.4	4
308.15	100	0.8921	1013.1	4
308.15	100	0.9478	1027.2	4
308.15	5000	0.0432	858.1	4
308.15	5000	0.195	879.3	4
308.15	5000	0.3968	912.1	4
308.15	5000	0.4933	929.7	4
308.15	5000	0.5296	936.2	4
308.15	5000	0.5993	950.8	4
308.15	5000	0.7034	973.7	4
308.15	5000	0.8023	991	4
308.15	5000	0.8921	1018	4
308.15	5000	0.9478	1032.1	4
308.15	10000	0.0432	862	4
308.15	10000	0.195	883.3	4
308.15	10000	0.3968	916.2	4
308.15	10000	0.4933	934.1	4
308.15	10000	0.5296	940.4	4
308.15	10000	0.5993	955.2	4
308.15	10000	0.7034	978.2	4
308.15	10000	0.8023	995.6	4
308.15	10000	0.8921	1022.7	4
308.15	10000	0.9478	1036.8	4
308.15	20000	0.0432	869.1	4
308.15	20000	0.195	890.7	4
308.15	20000	0.3968	924	4
308.15	20000	0.4933	941.8	4
308.15	20000	0.5296	948.4	4
308.15	20000	0.5993	958.3	4
308.15	20000	0.7034	986.4	4
308.15	20000	0.8023	1004.4	4
308.15	20000	0.8921	1031.5	4
308.15	20000	0.9478	1045.7	4
308.15	30000	0.0432	875.7	4
308.15	30000	0.195	897.5	4
308.15	30000	0.3968	931.2	4
308.15	30000	0.4933	949.4	4
308.15	30000	0.5296	956	4
308.15	30000	0.5993	970.9	4
308.15	30000	0.7034	994.2	4
308.15	30000	0.8023	1012.2	4
308.15	30000	0.8921	1039.7	4
308.15	30000	0.9478	1054	4
308.15	40000	0.0432	881.7	4
308.15	40000	0.195	904	4
308.15	40000	0.3968	937.9	4
308.15	40000	0.4933	956.3	4
308.15	40000	0.5296	963	4
308.15	40000	0.5993	978.1	4
308.15	40000	0.7034	1001.5	4
308.15	40000	0.8023	1019.8	4
308.15	40000	0.8921	1047.4	4
308.15	40000	0.9478	1061.7	4

System: diethyl carbonate + 1,4-dimethylbenzene; phases: Liquid
Property: Mass density, kg/m3 (Liquid); method: Vibrating tube method
Temperature, K	Pressure, kPa	Mole fraction of diethyl carbonate	Mass density, kg/m3	uncertainty
288.15	100	0.1014	876.7	2
288.15	100	0.1346	879.5	2
288.15	100	0.1949	887.5	2
288.15	100	0.2767	898.3	2
288.15	100	0.386	909.2	2
288.15	100	0.4858	920.7	2
288.15	100	0.5444	928.4	2
288.15	100	0.5923	933.9	2
288.15	100	0.6718	942.3	2
288.15	100	0.7676	953.2	2
288.15	100	0.8313	960.6	2
288.15	100	0.9044	968.7	2
288.15	5000	0.1014	880.1	2
288.15	5000	0.1346	884.1	2
288.15	5000	0.1949	891.2	2
288.15	5000	0.2767	900.9	2
288.15	5000	0.386	913.4	2
288.15	5000	0.4858	924.7	2
288.15	5000	0.5444	931.5	2
288.15	5000	0.5923	937	2
288.15	5000	0.6718	946.4	2
288.15	5000	0.7676	957.4	2
288.15	5000	0.8313	964.8	2
288.15	5000	0.9044	973.1	2
288.15	10000	0.1014	883.7	2
288.15	10000	0.1346	887.8	2
288.15	10000	0.1949	894.8	2
288.15	10000	0.2767	904.5	2
288.15	10000	0.386	917.2	2
288.15	10000	0.4858	928.5	2
288.15	10000	0.5444	935.3	2
288.15	10000	0.5923	941	2
288.15	10000	0.6718	950.3	2
288.15	10000	0.7676	961.3	2
288.15	10000	0.8313	968.9	2
288.15	10000	0.9044	977.2	2
288.15	20000	0.1014	890.3	2
288.15	20000	0.1346	894.3	2
288.15	20000	0.1949	901.3	2
288.15	20000	0.2767	911.3	2
288.15	20000	0.386	924.1	2
288.15	20000	0.4858	935.5	2
288.15	20000	0.5444	942.5	2
288.15	20000	0.5923	948	2
288.15	20000	0.6718	957.5	2
288.15	20000	0.7676	968.7	2
288.15	20000	0.8313	976.4	2
288.15	20000	0.9044	984.7	2
288.15	30000	0.1014	896.1	2
288.15	30000	0.1346	900.3	2
288.15	30000	0.1949	907.5	2
288.15	30000	0.2767	917.4	2
288.15	30000	0.386	930.4	2
288.15	30000	0.4858	941.9	2
288.15	30000	0.5444	949.1	2
288.15	30000	0.5923	954.7	2
288.15	30000	0.6718	964.3	2
288.15	30000	0.7676	975.6	2
288.15	30000	0.8313	983.3	2
288.15	30000	0.9044	991.9	2
288.15	40000	0.1014	902.1	2
288.15	40000	0.1346	906.3	2
288.15	40000	0.1949	913.4	2
288.15	40000	0.2767	923.5	2
288.15	40000	0.386	936.6	2
288.15	40000	0.4858	948.3	2
288.15	40000	0.5444	955.4	2
288.15	40000	0.5923	961.2	2
288.15	40000	0.6718	970.9	2
288.15	40000	0.7676	982.3	2
288.15	40000	0.8313	990.1	2
288.15	40000	0.9044	998.6	2
298.15	100	0.1014	867.6	2
298.15	100	0.1346	871.5	2
298.15	100	0.1949	878.1	2
298.15	100	0.2767	887.5	2
298.15	100	0.386	899.8	2
298.15	100	0.4858	910.7	2
298.15	100	0.5444	916.8	2
298.15	100	0.5923	922.8	2
298.15	100	0.6718	931.7	2
298.15	100	0.7676	942.4	2
298.15	100	0.8313	949.8	2
298.15	100	0.9044	957.6	2
298.15	5000	0.1014	871.9	2
298.15	5000	0.1346	875.8	2
298.15	5000	0.1949	882.4	2
298.15	5000	0.2767	892	2
298.15	5000	0.386	904.4	2
298.15	5000	0.4858	915.2	2
298.15	5000	0.5444	922	2
298.15	5000	0.5923	927.4	2
298.15	5000	0.6718	936.5	2
298.15	5000	0.7676	947.3	2
298.15	5000	0.8313	954.7	2
298.15	5000	0.9044	962.7	2
298.15	10000	0.1014	875.1	2
298.15	10000	0.1346	879	2
298.15	10000	0.1949	885.8	2
298.15	10000	0.2767	895.4	2
298.15	10000	0.386	907.7	2
298.15	10000	0.4858	918.8	2
298.15	10000	0.5444	925.6	2
298.15	10000	0.5923	931.1	2
298.15	10000	0.6718	940.3	2
298.15	10000	0.7676	951	2
298.15	10000	0.8313	958.4	2
298.15	10000	0.9044	966.6	2
298.15	20000	0.1014	882	2
298.15	20000	0.1346	885.9	2
298.15	20000	0.1949	892.7	2
298.15	20000	0.2767	902.5	2
298.15	20000	0.386	915	2
298.15	20000	0.4858	926.3	2
298.15	20000	0.5444	933.2	2
298.15	20000	0.5923	938.5	2
298.15	20000	0.6718	947.8	2
298.15	20000	0.7676	959	2
298.15	20000	0.8313	966.4	2
298.15	20000	0.9044	974.7	2
298.15	30000	0.1014	888.2	2
298.15	30000	0.1346	892.3	2
298.15	30000	0.1949	899.3	2
298.15	30000	0.2767	909.1	2
298.15	30000	0.386	921.9	2
298.15	30000	0.4858	933.2	2
298.15	30000	0.5444	940.2	2
298.15	30000	0.5923	945.8	2
298.15	30000	0.6718	955.1	2
298.15	30000	0.7676	966.3	2
298.15	30000	0.8313	973.8	2
298.15	30000	0.9044	982.2	2
298.15	40000	0.1014	894.3	2
298.15	40000	0.1346	898.4	2
298.15	40000	0.1949	905.3	2
298.15	40000	0.2767	915.3	2
298.15	40000	0.386	928.2	2
298.15	40000	0.4858	939.6	2
298.15	40000	0.5444	946.6	2
298.15	40000	0.5923	952.3	2
298.15	40000	0.6718	961.8	2
298.15	40000	0.7676	973.1	2
298.15	40000	0.8313	980.8	2
298.15	40000	0.9044	989.1	2
308.15	100	0.1014	858.7	2
308.15	100	0.1346	862.5	2
308.15	100	0.1949	868.9	2
308.15	100	0.2767	878.2	2
308.15	100	0.386	890.1	2
308.15	100	0.4858	900.7	2
308.15	100	0.5444	907.2	2
308.15	100	0.5923	912.6	2
308.15	100	0.6718	921.3	2
308.15	100	0.7676	931.8	2
308.15	100	0.8313	939	2
308.15	100	0.9044	946.7	2
308.15	5000	0.1014	862.8	2
308.15	5000	0.1346	866.7	2
308.15	5000	0.1949	873	2
308.15	5000	0.2767	882.4	2
308.15	5000	0.386	894.5	2
308.15	5000	0.4858	905.2	2
308.15	5000	0.5444	911.7	2
308.15	5000	0.5923	916.9	2
308.15	5000	0.6718	925.7	2
308.15	5000	0.7676	936.5	2
308.15	5000	0.8313	943.6	2
308.15	5000	0.9044	951.5	2
308.15	10000	0.1014	866.6	2
308.15	10000	0.1346	870.4	2
308.15	10000	0.1949	876.5	2
308.15	10000	0.2767	886.5	2
308.15	10000	0.386	898.5	2
308.15	10000	0.4858	909.2	2
308.15	10000	0.5444	916	2
308.15	10000	0.5923	921.4	2
308.15	10000	0.6718	930.3	2
308.15	10000	0.7676	940.9	2
308.15	10000	0.8313	948.1	2
308.15	10000	0.9044	956.2	2
308.15	20000	0.1014	873.8	2
308.15	20000	0.1346	877.7	2
308.15	20000	0.1949	884.2	2
308.15	20000	0.2767	893.8	2
308.15	20000	0.386	906.2	2
308.15	20000	0.4858	917.2	2
308.15	20000	0.5444	923.9	2
308.15	20000	0.5923	929.4	2
308.15	20000	0.6718	938.4	2
308.15	20000	0.7676	949.2	2
308.15	20000	0.8313	956.6	2
308.15	20000	0.9044	964.5	2
308.15	30000	0.1014	880.4	2
308.15	30000	0.1346	884.5	2
308.15	30000	0.1949	891.1	2
308.15	30000	0.2767	900.8	2
308.15	30000	0.386	913.3	2
308.15	30000	0.4858	924.5	2
308.15	30000	0.5444	931.3	2
308.15	30000	0.5923	936.8	2
308.15	30000	0.6718	945.9	2
308.15	30000	0.7676	957	2
308.15	30000	0.8313	964.2	2
308.15	30000	0.9044	972.6	2
308.15	40000	0.1014	886.6	2
308.15	40000	0.1346	890.8	2
308.15	40000	0.1949	897.5	2
308.15	40000	0.2767	907.3	2
308.15	40000	0.386	919.9	2
308.15	40000	0.4858	931.2	2
308.15	40000	0.5444	938.1	2
308.15	40000	0.5923	943.7	2
308.15	40000	0.6718	952.9	2
308.15	40000	0.7676	964.1	2
308.15	40000	0.8313	971.6	2
308.15	40000	0.9044	979.9	2

System: 1,4-dimethylbenzene + octane; phases: Liquid
Property: Mass density, kg/m3 (Liquid); method: Vibrating tube method
Temperature, K	Pressure, kPa	Mole fraction of octane	Mass density, kg/m3	uncertainty
288.15	100	0.0509	854.9	2
288.15	5000	0.0509	858.3	2
288.15	10000	0.0509	861.8	2
288.15	20000	0.0509	868.3	2
288.15	30000	0.0509	874.2	2
288.15	40000	0.0509	880	2
298.15	100	0.0509	846.1	2
298.15	5000	0.0509	850.4	2
298.15	10000	0.0509	853.4	2
298.15	20000	0.0509	860.3	2
298.15	30000	0.0509	866.3	2
298.15	40000	0.0509	872.5	2
308.15	100	0.0509	837.4	2
308.15	5000	0.0509	841.4	2
308.15	10000	0.0509	845.2	2
308.15	20000	0.0509	852.1	2
308.15	30000	0.0509	858.9	2
308.15	40000	0.0509	865	2
288.15	10000	0.0993	852.5	2
288.15	20000	0.0993	858.8	2
288.15	30000	0.0993	864.8	2
288.15	40000	0.0993	870.6	2
298.15	100	0.0993	836.5	2
298.15	5000	0.0993	840.8	2
298.15	10000	0.0993	844	2
298.15	20000	0.0993	850.7	2
298.15	30000	0.0993	857.1	2
288.15	100	0.0993	845.1	2
298.15	40000	0.0993	863.1	2
288.15	5000	0.0993	849	2
308.15	100	0.0993	828	2
308.15	5000	0.0993	832	2
308.15	10000	0.0993	835.8	2
308.15	20000	0.0993	842.9	2
308.15	30000	0.0993	849.6	2
308.15	40000	0.0993	855.8	2
288.15	30000	0.1981	846.4	2
288.15	40000	0.1981	852.2	2
288.15	100	0.1981	826.4	2
298.15	100	0.1981	817.9	2
298.15	5000	0.1981	822.3	2
288.15	10000	0.1981	833.7	2
298.15	10000	0.1981	825.5	2
298.15	20000	0.1981	832.4	2
298.15	30000	0.1981	838.9	2
298.15	40000	0.1981	844.9	2
308.15	100	0.1981	809.3	2
288.15	5000	0.1981	830.2	2
308.15	5000	0.1981	813.5	2
308.15	10000	0.1981	817.5	2
308.15	20000	0.1981	824.5	2
308.15	30000	0.1981	831.4	2
288.15	20000	0.1981	840.4	2
308.15	40000	0.1981	837.7	2.1
288.15	40000	0.2961	834.9	2.1
298.15	100	0.2961	800.2	2
298.15	5000	0.2961	804.6	2
298.15	10000	0.2961	808	2
288.15	10000	0.2961	816.2	2
298.15	20000	0.2961	815	2
298.15	30000	0.2961	821.5	2
298.15	40000	0.2961	827.5	2.1
288.15	20000	0.2961	822.9	2
308.15	100	0.2961	791.6	2
288.15	30000	0.2961	829	2
308.15	5000	0.2961	796	2
288.15	5000	0.2961	812.6	2
308.15	10000	0.2961	800	2
288.15	100	0.2961	808.8	2
308.15	20000	0.2961	807.3	2
308.15	30000	0.2961	814.2	2
308.15	40000	0.2961	820.5	2.1
298.15	5000	0.3989	787.4	2
288.15	20000	0.3989	805.6	2
298.15	10000	0.3989	790.9	2
288.15	40000	0.3989	817.8	2.1
298.15	20000	0.3989	798	2
288.15	10000	0.3989	798.9	2
288.15	100	0.3989	791.4	2
298.15	30000	0.3989	804.5	2
298.15	40000	0.3989	810.7	2.1
308.15	100	0.3989	774.4	2
288.15	30000	0.3989	811.9	2
308.15	5000	0.3989	778.8	2
308.15	10000	0.3989	783	2
288.15	5000	0.3989	795.2	2
308.15	20000	0.3989	790.3	2
298.15	100	0.3989	782.9	2
308.15	30000	0.3989	797.2	2
308.15	40000	0.3989	803.7	2.1
298.15	10000	0.4891	776.6	2
298.15	20000	0.4891	784	2
288.15	40000	0.4891	803.8	2.1
298.15	30000	0.4891	790.7	2
288.15	10000	0.4891	784.6	2
298.15	40000	0.4891	796.8	2.1
308.15	100	0.4891	760.3	2
298.15	5000	0.4891	773.3	2
308.15	5000	0.4891	764.7	2
288.15	30000	0.4891	797.8	2
288.15	20000	0.4891	791.3	2
308.15	10000	0.4891	768.9	2
288.15	100	0.4891	776.6	2
308.15	20000	0.4891	776.4	2
288.15	5000	0.4891	780.8	2
308.15	30000	0.4891	783.4	2.1
298.15	100	0.4891	768.7	2
308.15	40000	0.4891	789.7	2.1
298.15	30000	0.5473	781.9	2.1
298.15	10000	0.5473	768	2
288.15	10000	0.5473	775.7	2
288.15	40000	0.5473	795.1	2.1
298.15	40000	0.5473	787.9	2.1
298.15	100	0.5473	760.7	2
308.15	100	0.5473	752.4	2
298.15	5000	0.5473	764.4	2
308.15	5000	0.5473	755.9	2
288.15	100	0.5473	768.3	2
308.15	10000	0.5473	760.1	2
288.15	20000	0.5473	782.7	2
288.15	30000	0.5473	789.1	2.1
308.15	20000	0.5473	767.7	2
298.15	20000	0.5473	775.2	2
308.15	30000	0.5473	774.6	2.1
288.15	5000	0.5473	772	2
308.15	40000	0.5473	781.2	2.1
298.15	10000	0.6039	759.5	2
288.15	5000	0.6039	763.5	2
298.15	40000	0.6039	779.4	2.1
288.15	10000	0.6039	767.2	2
288.15	40000	0.6039	786.5	2.1
288.15	20000	0.6039	774.2	2
308.15	100	0.6039	743.9	2
308.15	5000	0.6039	747.2	2
298.15	30000	0.6039	773.3	2.1
298.15	5000	0.6039	755.9	2
308.15	10000	0.6039	751.6	2
308.15	20000	0.6039	759.3	2
298.15	100	0.6039	752.1	2
288.15	30000	0.6039	780.5	2.1
308.15	30000	0.6039	766.3	2.1
288.15	100	0.6039	760.1	2
298.15	20000	0.6039	766.8	2
308.15	40000	0.6039	772.7	2.1
288.15	100	0.8031	731.5	2
288.15	5000	0.8031	735.9	2
288.15	10000	0.8031	739.8	2
288.15	20000	0.8031	746.9	2
288.15	30000	0.8031	753.3	2.1
288.15	40000	0.8031	759.8	2.1
298.15	100	0.8031	723.7	2
298.15	5000	0.8031	728.5	2
298.15	10000	0.8031	732.1	2
298.15	20000	0.8031	739.3	2
298.15	30000	0.8031	746.2	2.1
298.15	40000	0.8031	752.5	2.1
308.15	100	0.8031	716.1	2
308.15	5000	0.8031	719.9	2
308.15	10000	0.8031	724.2	2
308.15	20000	0.8031	732.1	2
308.15	30000	0.8031	739.2	2.1
308.15	40000	0.8031	745.9	2.1
298.15	20000	0.8963	727.3	2
308.15	10000	0.8963	712.4	2
288.15	10000	0.8963	727.5	2
298.15	30000	0.8963	734.1	2.1
298.15	100	0.8963	712.2	2
298.15	5000	0.8963	716.5	2
298.15	10000	0.8963	720	2
308.15	5000	0.8963	708.1	2
308.15	20000	0.8963	720.1	2
298.15	40000	0.8963	740.5	2.1
288.15	5000	0.8963	723.8	2
288.15	100	0.8963	719.7	2
308.15	30000	0.8963	727.4	2.1
308.15	100	0.8963	704.2	2
288.15	30000	0.8963	741.1	2.1
288.15	20000	0.8963	734.8	2
288.15	40000	0.8963	747.2	2.1
308.15	40000	0.8963	734	2.1
288.15	10000	0.946	720.8	2
288.15	100	0.946	712.7	2
308.15	10000	0.946	705.5	2
298.15	30000	0.946	727.5	2.1
288.15	30000	0.946	734.2	2.1
298.15	100	0.946	704.7	2
308.15	30000	0.946	720.7	2.1
308.15	20000	0.946	713.4	2
288.15	40000	0.946	740.3	2.1
298.15	40000	0.946	733.8	2.1
308.15	100	0.946	697.5	2
288.15	20000	0.946	727.6	2
308.15	5000	0.946	701.3	2
288.15	5000	0.946	716.7	2
298.15	20000	0.946	720.7	2
298.15	10000	0.946	713.2	2
298.15	5000	0.946	709.5	2
308.15	40000	0.946	727.3	2.1

System: 1,4-dimethylbenzene + decane; phases: Liquid
Property: Mass density, kg/m3 (Liquid); method: Vibrating tube method
Temperature, K	Pressure, kPa	Mole fraction of decane	Mass density, kg/m3	uncertainty
288.15	100	0.0513	854	4
288.15	100	0.0971	845.3	4
288.15	100	0.1962	828.2	4
288.15	100	0.2932	812.1	4
288.15	100	0.3942	799.8	4
288.15	100	0.4987	784.1	4
288.15	100	0.5563	777.2	4
288.15	100	0.5965	773.9	4
288.15	100	0.7018	761	4
288.15	100	0.8047	750.8	4
288.15	100	0.8975	741	4
288.15	100	0.9474	738	4
288.15	5000	0.0513	858	4
288.15	5000	0.0971	849.4	4
288.15	5000	0.1962	831.6	4
288.15	5000	0.2932	815.9	4
288.15	5000	0.3942	803.5	4
288.15	5000	0.4987	787.7	4
288.15	5000	0.5563	780.7	4
288.15	5000	0.5965	777	4
288.15	5000	0.7018	764.7	4
288.15	5000	0.8047	754.4	4
288.15	5000	0.8975	745.1	4
288.15	5000	0.9474	741.8	4
288.15	10000	0.0513	861.4	4
288.15	10000	0.0971	852.8	4
288.15	10000	0.1962	835	4
288.15	10000	0.2932	819.4	4
288.15	10000	0.3942	806.9	4
288.15	10000	0.4987	791.4	4
288.15	10000	0.5563	784.2	4
288.15	10000	0.5965	779.5	4
288.15	10000	0.7018	768.4	4
288.15	10000	0.8047	757.9	4
288.15	10000	0.8975	748.6	4
288.15	10000	0.9474	745.2	4
288.15	20000	0.0513	867.9	4
288.15	20000	0.0971	859.2	4
288.15	20000	0.1962	841.5	4
288.15	20000	0.2932	825.7	4
288.15	20000	0.3942	813.5	4
288.15	20000	0.4987	797.7	4
288.15	20000	0.5563	790.8	4
288.15	20000	0.5965	786	4
288.15	20000	0.7018	774.8	4
288.15	20000	0.8047	764.3	4
288.15	20000	0.8975	755.6	4
288.15	20000	0.9474	751.5	4
288.15	30000	0.0513	873.8	4
288.15	30000	0.0971	865	4
288.15	30000	0.1962	847.4	4
288.15	30000	0.2932	831.8	4
288.15	30000	0.3942	819.4	4
288.15	30000	0.4987	803.8	4
288.15	30000	0.5563	796.7	4
288.15	30000	0.5965	792	4
288.15	30000	0.7018	780.7	4
288.15	30000	0.8047	770.4	4
288.15	30000	0.8975	761.9	4
288.15	30000	0.9474	757.6	4
288.15	40000	0.0513	879.5	4
288.15	40000	0.0971	870.8	4
288.15	40000	0.1962	853.3	4
288.15	40000	0.2932	837.6	4
288.15	40000	0.3942	825.1	4
288.15	40000	0.4987	809.4	4
288.15	40000	0.5563	802.5	4
288.15	40000	0.5965	798.1	4
288.15	40000	0.7018	786.3	4
288.15	40000	0.8047	776	4
288.15	40000	0.8975	768.1	4
288.15	40000	0.9474	763.2	4
298.15	100	0.0513	845.7	4
298.15	100	0.0971	837.1	4
298.15	100	0.1962	819.6	4
298.15	100	0.2932	804	4
298.15	100	0.3942	791.6	4
298.15	100	0.4987	776	4
298.15	100	0.5563	769	4
298.15	100	0.5965	765	4
298.15	100	0.7018	753.2	4
298.15	100	0.8047	742.9	4
298.15	100	0.8975	734.6	4
298.15	100	0.9474	730.4	4
298.15	5000	0.0513	850.1	4
298.15	5000	0.0971	841.3	4
298.15	5000	0.1962	823.7	4
298.15	5000	0.2932	808.2	4
298.15	5000	0.3942	795.8	4
298.15	5000	0.4987	780.5	4
298.15	5000	0.5563	773.4	4
298.15	5000	0.5965	768.7	4
298.15	5000	0.7018	757.6	4
298.15	5000	0.8047	747.2	4
298.15	5000	0.8975	738.6	4
298.15	5000	0.9474	734.6	4
298.15	10000	0.0513	853.3	4
298.15	10000	0.0971	844.4	4
298.15	10000	0.1962	827	4
298.15	10000	0.2932	811.4	4
298.15	10000	0.3942	799.2	4
298.15	10000	0.4987	783.6	4
298.15	10000	0.5563	776.7	4
298.15	10000	0.5965	771.9	4
298.15	10000	0.7018	760.8	4
298.15	10000	0.8047	750.5	4
298.15	10000	0.8975	741.8	4
298.15	10000	0.9474	738	4
298.15	20000	0.0513	860	4
298.15	20000	0.0971	851.2	4
298.15	20000	0.1962	833.8	4
298.15	20000	0.2932	818.4	4
298.15	20000	0.3942	806	4
298.15	20000	0.4987	790.4	4
298.15	20000	0.5563	783.6	4
298.15	20000	0.5965	778.8	4
298.15	20000	0.7018	767.7	4
298.15	20000	0.8047	757.4	4
298.15	20000	0.8975	748.2	4
298.15	20000	0.9474	744.7	4
298.15	30000	0.0513	866.2	4
298.15	30000	0.0971	857.6	4
298.15	30000	0.1962	840.2	4
298.15	30000	0.2932	824.7	4
298.15	30000	0.3942	812.4	4
298.15	30000	0.4987	796.8	4
298.15	30000	0.5563	789.9	4
298.15	30000	0.5965	785.2	4
298.15	30000	0.7018	774	4
298.15	30000	0.8047	763.7	4
298.15	30000	0.8975	755.2	4
298.15	30000	0.9474	750.9	4
298.15	40000	0.0513	872.1	4
298.15	40000	0.0971	863.4	4
298.15	40000	0.1962	846	4
298.15	40000	0.2932	830.4	4
298.15	40000	0.3942	818.2	4
298.15	40000	0.4987	802.6	4
298.15	40000	0.5563	795.7	4
298.15	40000	0.5965	791.1	4
298.15	40000	0.7018	779.8	4
298.15	40000	0.8047	769.5	4
298.15	40000	0.8975	761.6	4
298.15	40000	0.9474	757.2	4
308.15	100	0.0513	837.2	4
308.15	100	0.0971	828.6	4
308.15	100	0.1962	811.1	4
308.15	100	0.2932	795.7	4
308.15	100	0.3942	783.5	4
308.15	100	0.4987	768.1	4
308.15	100	0.5563	761	4
308.15	100	0.5965	757	4
308.15	100	0.7018	746.3	4
308.15	100	0.8047	736.1	4
308.15	100	0.8975	727.9	4
308.15	100	0.9474	723.2	4
308.15	5000	0.0513	841.3	4
308.15	5000	0.0971	832.6	4
308.15	5000	0.1962	815.2	4
308.15	5000	0.2932	799.9	4
308.15	5000	0.3942	787.7	4
308.15	5000	0.4987	772.1	4
308.15	5000	0.5563	765.2	4
308.15	5000	0.5965	760.6	4
308.15	5000	0.7018	749.6	4
308.15	5000	0.8047	739.4	4
308.15	5000	0.8975	731.3	4
308.15	5000	0.9474	726.8	4
308.15	10000	0.0513	844.9	4
308.15	10000	0.0971	836.5	4
308.15	10000	0.1962	819.1	4
308.15	10000	0.2932	803.7	4
308.15	10000	0.3942	791.4	4
308.15	10000	0.4987	776.1	4
308.15	10000	0.5563	769.3	4
308.15	10000	0.5965	764.5	4
308.15	10000	0.7018	753.5	4
308.15	10000	0.8047	743.3	4
308.15	10000	0.8975	734.8	4
308.15	10000	0.9474	730.9	4
308.15	20000	0.0513	851.9	4
308.15	20000	0.0971	843.4	4
308.15	20000	0.1962	826	4
308.15	20000	0.2932	810.6	4
308.15	20000	0.3942	798.6	4
308.15	20000	0.4987	783.3	4
308.15	20000	0.5563	776.4	4
308.15	20000	0.5965	771.7	4
308.15	20000	0.7018	760.6	4
308.15	20000	0.8047	750.3	4
308.15	20000	0.8975	741.9	4
308.15	20000	0.9474	737.9	4
308.15	30000	0.0513	858.8	4
308.15	30000	0.0971	849.8	4
308.15	30000	0.1962	832.7	4
308.15	30000	0.2932	817.4	4
308.15	30000	0.3942	805.2	4
308.15	30000	0.4987	789.9	4
308.15	30000	0.5563	783	4
308.15	30000	0.5965	778.2	4
308.15	30000	0.7018	767	4
308.15	30000	0.8047	757	4
308.15	30000	0.8975	748.5	4
308.15	30000	0.9474	744.4	4
308.15	40000	0.0513	865.1	4
308.15	40000	0.0971	856	4
308.15	40000	0.1962	838.9	4
308.15	40000	0.2932	823.6	4
308.15	40000	0.3942	811.3	4
308.15	40000	0.4987	795.9	4
308.15	40000	0.5563	789.1	4
308.15	40000	0.5965	785	4
308.15	40000	0.7018	773.3	4
308.15	40000	0.8047	763.1	4
308.15	40000	0.8975	755.1	4
308.15	40000	0.9474	750.9	4
