Measured thermophysical data. Mineral solubilities of salts in the three quaternary systems: LiCl-NaCl-MgCl2-H2O, LiCl-KCl-MgCl2-H2O and Li2SO4-K2SO4-MgSO4-H2O at 288.15 K
Source: J. Chem. Thermodyn., 2019, 10.1016/j.jct.2018.12.011
Compound 1: water, H2O, InChI=1S/H2O/h1H2, purity 99.9%
Compound 2: lithium chloride, ClLi, InChI=1S/ClH.Li/h1H;/q;+1/p-1, purity 99%
Compound 3: sodium chloride, ClNa, InChI=1S/ClH.Na/h1H;/q;+1/p-1, purity 99.5%
Compound 4: magnesium chloride, Cl2Mg, InChI=1S/2ClH.Mg/h2*1H;/q;;+2/p-2, purity 99%
Compound 5: potassium chloride, ClK, InChI=1S/ClH.K/h1H;/q;+1/p-1, purity 99.5%
Compound 6: lithium sulfate, Li2O4S, InChI=1S/2Li.H2O4S/c;;1-5(2,3)4/h;;(H2,1,2,3,4)/q2*+1;/p-2, purity 99.5%
Compound 7: potassium sulfate, K2O4S, InChI=1S/2K.H2O4S/c;;1-5(2,3)4/h;;(H2,1,2,3,4)/q2*+1;/p-2, purity 99.5%
Compound 8: magnesium sulfate, MgO4S, InChI=1S/Mg.H2O4S/c;1-5(2,3)4/h;(H2,1,2,3,4)/q+2;/p-2, purity 99.5%

System: sodium chloride + magnesium chloride + water; phases: Liquid, Crystal, Crystal of intercomponent compound 1
Property: Mass fraction of sodium chloride (Liquid); method: Hg(NO3)2 volumetric method
Temperature, K	Pressure, kPa	Mass fraction of sodium chloride	uncertainty
288.15	96	0.0044	0.0001

System: sodium chloride + magnesium chloride + water; phases: Liquid, Crystal, Crystal of intercomponent compound 1
Property: Mass fraction of magnesium chloride (Liquid); method: EDTA volumetric method
Temperature, K	Pressure, kPa	Mass fraction of magnesium chloride	uncertainty
288.15	96	0.3453	0.0022

System: lithium chloride + sodium chloride + water; phases: Liquid, Crystal, Crystal of intercomponent compound 1
Property: Mass fraction of lithium chloride (Liquid); method: ICP-OES
Temperature, K	Pressure, kPa	Mass fraction of lithium chloride	uncertainty
288.15	96	0.4309	0.0044

System: lithium chloride + sodium chloride + water; phases: Liquid, Crystal, Crystal of intercomponent compound 1
Property: Mass fraction of sodium chloride (Liquid); method: Hg(NO3)2 volumetric method
Temperature, K	Pressure, kPa	Mass fraction of sodium chloride	uncertainty
288.15	96	0.0037	0.0001

System: lithium chloride + magnesium chloride + water; phases: Liquid, Crystal of intercomponent compound 1, Crystal of intercomponent compound 2
Property: Mass fraction of lithium chloride (Liquid); method: ICP-OES
Temperature, K	Pressure, kPa	Mass fraction of lithium chloride	uncertainty
288.15	96	0.2741	0.0028

System: lithium chloride + magnesium chloride + water; phases: Liquid, Crystal of intercomponent compound 1, Crystal of intercomponent compound 2
Property: Mass fraction of magnesium chloride (Liquid); method: EDTA volumetric method
Temperature, K	Pressure, kPa	Mass fraction of magnesium chloride	uncertainty
288.15	96	0.1406	0.0009

System: lithium chloride + magnesium chloride + water; phases: Liquid, Crystal of intercomponent compound 3, Crystal of intercomponent compound 2
Property: Mass fraction of lithium chloride (Liquid); method: ICP-OES
Temperature, K	Pressure, kPa	Mass fraction of lithium chloride	uncertainty
288.15	96	0.399	0.0041

System: lithium chloride + magnesium chloride + water; phases: Liquid, Crystal of intercomponent compound 3, Crystal of intercomponent compound 2
Property: Mass fraction of magnesium chloride (Liquid); method: EDTA volumetric method
Temperature, K	Pressure, kPa	Mass fraction of magnesium chloride	uncertainty
288.15	96	0.0529	0.0003

System: potassium chloride + magnesium chloride + water; phases: Liquid, Crystal, Crystal of intercomponent compound 1
Property: Mass fraction of potassium chloride (Liquid); method: Titration method
Temperature, K	Pressure, kPa	Mass fraction of potassium chloride	uncertainty
288.15	96	0.0285	0.0003

System: potassium chloride + magnesium chloride + water; phases: Liquid, Crystal, Crystal of intercomponent compound 1
Property: Mass fraction of magnesium chloride (Liquid); method: EDTA volumetric method
Temperature, K	Pressure, kPa	Mass fraction of magnesium chloride	uncertainty
288.15	96	0.2668	0.0017

System: potassium chloride + magnesium chloride + water; phases: Liquid, Crystal of intercomponent compound 2, Crystal of intercomponent compound 1
Property: Mass fraction of potassium chloride (Liquid); method: Titration method
Temperature, K	Pressure, kPa	Mass fraction of potassium chloride	uncertainty
288.15	96	0.0017	0.0001

System: potassium chloride + magnesium chloride + water; phases: Liquid, Crystal of intercomponent compound 2, Crystal of intercomponent compound 1
Property: Mass fraction of magnesium chloride (Liquid); method: EDTA volumetric method
Temperature, K	Pressure, kPa	Mass fraction of magnesium chloride	uncertainty
288.15	96	0.3522	0.0022

System: lithium chloride + potassium chloride + water; phases: Liquid, Crystal, Crystal of intercomponent compound 1
Property: Mass fraction of lithium chloride (Liquid); method: ICP-OES
Temperature, K	Pressure, kPa	Mass fraction of lithium chloride	uncertainty
288.15	96	0.4339	0.0044

System: lithium chloride + potassium chloride + water; phases: Liquid, Crystal, Crystal of intercomponent compound 1
Property: Mass fraction of potassium chloride (Liquid); method: Titration method
Temperature, K	Pressure, kPa	Mass fraction of potassium chloride	uncertainty
288.15	96	0.0198	0.0002

System: potassium sulfate + magnesium sulfate + water; phases: Liquid, Crystal of intercomponent compound 1, Crystal
Property: Mass fraction of potassium sulfate (Liquid); method: Titration method
Temperature, K	Pressure, kPa	Mass fraction of potassium sulfate	uncertainty
288.15	96	0.1081	0.0011

System: potassium sulfate + magnesium sulfate + water; phases: Liquid, Crystal of intercomponent compound 1, Crystal
Property: Mass fraction of magnesium sulfate (Liquid); method: EDTA volumetric method
Temperature, K	Pressure, kPa	Mass fraction of magnesium sulfate	uncertainty
288.15	96	0.112	0.0007

System: potassium sulfate + magnesium sulfate + water; phases: Liquid, Crystal of intercomponent compound 1, Crystal of intercomponent compound 2
Property: Mass fraction of potassium sulfate (Liquid); method: Titration method
Temperature, K	Pressure, kPa	Mass fraction of potassium sulfate	uncertainty
288.15	96	0.0493	0.0005

System: potassium sulfate + magnesium sulfate + water; phases: Liquid, Crystal of intercomponent compound 1, Crystal of intercomponent compound 2
Property: Mass fraction of magnesium sulfate (Liquid); method: EDTA volumetric method
Temperature, K	Pressure, kPa	Mass fraction of magnesium sulfate	uncertainty
288.15	96	0.2348	0.0015

System: lithium sulfate + magnesium sulfate + water; phases: Liquid, Crystal of intercomponent compound 1, Crystal of intercomponent compound 2
Property: Mass fraction of lithium sulfate (Liquid); method: ICP-OES
Temperature, K	Pressure, kPa	Mass fraction of lithium sulfate	uncertainty
288.15	96	0.1637	0.0017

System: lithium sulfate + magnesium sulfate + water; phases: Liquid, Crystal of intercomponent compound 1, Crystal of intercomponent compound 2
Property: Mass fraction of magnesium sulfate (Liquid); method: EDTA volumetric method
Temperature, K	Pressure, kPa	Mass fraction of magnesium sulfate	uncertainty
288.15	96	0.1514	0.001

System: lithium sulfate + potassium sulfate + water; phases: Liquid, Crystal of intercomponent compound 2, Crystal of intercomponent compound 1
Property: Mass fraction of lithium sulfate (Liquid); method: ICP-OES
Temperature, K	Pressure, kPa	Mass fraction of lithium sulfate	uncertainty
288.15	96	0.2603	0.0027

System: lithium sulfate + potassium sulfate + water; phases: Liquid, Crystal of intercomponent compound 2, Crystal of intercomponent compound 1
Property: Mass fraction of potassium sulfate (Liquid); method: Titration method
Temperature, K	Pressure, kPa	Mass fraction of potassium sulfate	uncertainty
288.15	96	0.0238	0.0002

System: lithium sulfate + potassium sulfate + water; phases: Liquid, Crystal, Crystal of intercomponent compound 1
Property: Mass fraction of potassium sulfate (Liquid); method: Titration method
Temperature, K	Pressure, kPa	Mass fraction of potassium sulfate	uncertainty
288.15	96	0.0876	0.0009

System: lithium sulfate + potassium sulfate + water; phases: Liquid, Crystal, Crystal of intercomponent compound 1
Property: Mass fraction of lithium sulfate (Liquid); method: ICP-OES
Temperature, K	Pressure, kPa	Mass fraction of lithium sulfate	uncertainty
288.15	96	0.1212	0.0012
