Measured thermophysical data. Thermodynamic properties of paracetamol impurities 4-nitrophenol and 4'-chloroacetanilide and the impact of such impurities on the crystallisation of paracetamol from solution
Source: J. Chem. Thermodyn., 2019, 10.1016/j.jct.2019.02.004
Compound 1: N(4-chlorophenyl)ethanamide, C8H8ClNO, InChI=1S/C8H8ClNO/c1-6(11)10-8-4-2-7(9)3-5-8/h2-5H,1H3,(H,10,11), purity 97%
Compound 2: 4-nitrophenol, C6H5NO3, InChI=1S/C6H5NO3/c8-6-3-1-5(2-4-6)7(9)10/h1-4,8H, purity 99%
Compound 3: ethanol, C2H6O, InChI=1S/C2H6O/c1-2-3/h3H,2H2,1H3, purity 99%
Compound 4: propan-2-ol, C3H8O, InChI=1S/C3H8O/c1-3(2)4/h3-4H,1-2H3, purity 99%
Compound 5: pentan-1-ol, C5H12O, InChI=1S/C5H12O/c1-2-3-4-5-6/h6H,2-5H2,1H3, purity 99%
Compound 6: butan-1-ol, C4H10O, InChI=1S/C4H10O/c1-2-3-4-5/h5H,2-4H2,1H3, purity 99%

System: N(4-chlorophenyl)ethanamide; phases: Crystal, Liquid, Air at 1 atmosphere
Property: Normal melting temperature, K (Crystal); method: DTA
Normal melting temperature, K	uncertainty
448.8	1.06

System: N(4-chlorophenyl)ethanamide; phases: Crystal, Liquid, Air at 1 atmosphere
Property: Molar enthalpy of transition or fusion, kJ/mol (Crystal); method: DSC
Molar enthalpy of transition or fusion, kJ/mol	uncertainty
27.14	0.98

System: N(4-chlorophenyl)ethanamide + ethanol; phases: Liquid, Crystal
Fixed: Pressure, kPa = 100
Property: Mass fraction of N(4-chlorophenyl)ethanamide (Liquid); method: Gravimetric
Temperature, K	Mass fraction of N(4-chlorophenyl)ethanamide	uncertainty
278.15	0.031286	0.001199
283.15	0.03509	0.001353
288.15	0.040611	0.001558
293.15	0.045181	0.00175
298.15	0.05332	0.002073
303.15	0.060802	0.002349
308.15	0.069872	0.002686
313.15	0.07863	0.003007
318.15	0.088453	0.003388
323.15	0.10002	0.00383
328.15	0.1127	0.0043

System: N(4-chlorophenyl)ethanamide + propan-2-ol; phases: Liquid, Crystal
Fixed: Pressure, kPa = 100
Property: Mass fraction of N(4-chlorophenyl)ethanamide (Liquid); method: Gravimetric
Temperature, K	Mass fraction of N(4-chlorophenyl)ethanamide	uncertainty
278.15	0.025394	0.000981
283.15	0.028862	0.001118
288.15	0.033542	0.001284
293.15	0.036948	0.001403
298.15	0.041179	0.001584
303.15	0.047568	0.001835
308.15	0.053885	0.002084
313.15	0.062465	0.002412
318.15	0.070797	0.002709
323.15	0.079325	0.003062
328.15	0.092231	0.003571

System: N(4-chlorophenyl)ethanamide + butan-1-ol; phases: Liquid, Crystal
Fixed: Pressure, kPa = 100
Property: Mass fraction of N(4-chlorophenyl)ethanamide (Liquid); method: Gravimetric
Temperature, K	Mass fraction of N(4-chlorophenyl)ethanamide	uncertainty
278.15	0.024777	0.000942
283.15	0.027409	0.001057
288.15	0.032125	0.001236
293.15	0.035739	0.00136
298.15	0.039858	0.001535
303.15	0.046137	0.001782
308.15	0.052414	0.002022
313.15	0.060165	0.002324
318.15	0.068769	0.002631
323.15	0.076476	0.002927
328.15	0.086995	0.003332

System: N(4-chlorophenyl)ethanamide + pentan-1-ol; phases: Liquid, Crystal
Fixed: Pressure, kPa = 100
Property: Mass fraction of N(4-chlorophenyl)ethanamide (Liquid); method: Gravimetric
Temperature, K	Mass fraction of N(4-chlorophenyl)ethanamide	uncertainty
278.15	0.023267	0.000903
283.15	0.026636	0.001028
288.15	0.030405	0.001166
293.15	0.034112	0.001307
298.15	0.038711	0.001481
303.15	0.043265	0.001674
308.15	0.050696	0.001974
313.15	0.058409	0.002251
318.15	0.06613	0.002535
323.15	0.074642	0.002852
328.15	0.083528	0.003176

System: 4-nitrophenol + ethanol; phases: Liquid, Crystal
Fixed: Pressure, kPa = 100
Property: Mass fraction of 4-nitrophenol (Liquid); method: Gravimetric
Temperature, K	Mass fraction of 4-nitrophenol	uncertainty
278.15	0.57556	0.01582
283.15	0.59359	0.01514
288.15	0.60494	0.01474
293.15	0.62732	0.01395
298.15	0.64581	0.01329
303.15	0.67025	0.01239
308.15	0.68605	0.01181
313.15	0.70944	0.01099
318.15	0.72928	0.01021
323.15	0.74059	0.00976
328.15	0.75096	0.00939

System: 4-nitrophenol + propan-2-ol; phases: Liquid, Crystal
Fixed: Pressure, kPa = 100
Property: Mass fraction of 4-nitrophenol (Liquid); method: Gravimetric
Temperature, K	Mass fraction of 4-nitrophenol	uncertainty
278.15	0.53226	0.01742
283.15	0.55214	0.01665
288.15	0.56122	0.01632
293.15	0.58247	0.01562
298.15	0.60968	0.01462
303.15	0.62875	0.0139
308.15	0.65018	0.01308
313.15	0.66048	0.01269
318.15	0.67905	0.01201
323.15	0.68855	0.01166
328.15	0.70552	0.01108

System: 4-nitrophenol + butan-1-ol; phases: Liquid, Crystal
Fixed: Pressure, kPa = 100
Property: Mass fraction of 4-nitrophenol (Liquid); method: Gravimetric
Temperature, K	Mass fraction of 4-nitrophenol	uncertainty
278.15	0.42218	0.01583
283.15	0.45204	0.01684
288.15	0.46577	0.01728
293.15	0.47392	0.01761
298.15	0.49771	0.01853
303.15	0.51812	0.01799
308.15	0.55125	0.01674
313.15	0.56238	0.01628
318.15	0.58111	0.01563
323.15	0.60215	0.01489
328.15	0.6277	0.01399

System: 4-nitrophenol + pentan-1-ol; phases: Liquid, Crystal
Fixed: Pressure, kPa = 100
Property: Mass fraction of 4-nitrophenol (Liquid); method: Gravimetric
Temperature, K	Mass fraction of 4-nitrophenol	uncertainty
278.15	0.37694	0.01401
283.15	0.39026	0.01455
288.15	0.41567	0.01547
293.15	0.42428	0.01577
298.15	0.44659	0.01666
303.15	0.47194	0.01755
308.15	0.48344	0.01796
313.15	0.50371	0.01845
318.15	0.51784	0.01797
323.15	0.55035	0.0168
328.15	0.56924	0.01606
