Measured thermophysical data. Physical properties of the binary systems methylcyclopentane with ketones (acetone, butanone and 2-pentanone) at T = (293.15, 298.15, and 303.15) K. New UNIFAC-VISCO interaction parameters
Source: J. Chem. Thermodyn., 2006, 10.1016/j.jct.2005.08.002
Compound 1: methylcyclopentane, C6H12, InChI=1S/C6H12/c1-6-4-2-3-5-6/h6H,2-5H2,1H3
Compound 2: acetone, C3H6O, InChI=1S/C3H6O/c1-3(2)4/h1-2H3
Compound 3: butanone, C4H8O, InChI=1S/C4H8O/c1-3-4(2)5/h3H2,1-2H3
Compound 4: pentan-2-one, C5H10O, InChI=1S/C5H10O/c1-3-4-5(2)6/h3-4H2,1-2H3

System: methylcyclopentane; phases: Liquid
Fixed: Pressure, kPa = 101
Property: Viscosity, Pa*s (Liquid); method: Capillary tube (Ostwald; Ubbelohde) method
Temperature, K	Viscosity, Pa*s	uncertainty
293.15	0.000504	1.6e-05
298.15	0.000476	1.6e-05
303.15	0.00045	1.5e-05

System: methylcyclopentane; phases: Liquid
Fixed: Pressure, kPa = 101
Property: Speed of sound, m/s (Liquid); method: Sing-around technique in a fixed-path interferometer
Temperature, K	Speed of sound, m/s	uncertainty
293.15	1197	5
298.15	1174	5
303.15	1150	5

System: methylcyclopentane; phases: Liquid
Fixed: Pressure, kPa = 101
Property: Mass density, kg/m3 (Liquid); method: Vibrating tube method
Temperature, K	Mass density, kg/m3	uncertainty
293.15	746.64	1.97
298.15	741.94	1.96
303.15	737.21	1.95

System: acetone; phases: Liquid
Fixed: Pressure, kPa = 101
Property: Viscosity, Pa*s (Liquid); method: Capillary tube (Ostwald; Ubbelohde) method
Temperature, K	Viscosity, Pa*s	uncertainty
293.15	0.00032	7e-06
298.15	0.000306	7e-06
303.15	0.000292	6e-06

System: acetone; phases: Liquid
Fixed: Pressure, kPa = 101
Property: Speed of sound, m/s (Liquid); method: Sing-around technique in a fixed-path interferometer
Temperature, K	Speed of sound, m/s	uncertainty
293.15	1185	2
298.15	1162	2
303.15	1140	2

System: acetone; phases: Liquid
Fixed: Pressure, kPa = 101
Property: Mass density, kg/m3 (Liquid); method: Vibrating tube method
Temperature, K	Mass density, kg/m3	uncertainty
293.15	791.11	0.15
298.15	785.41	0.15
303.15	779.66	0.15

System: butanone; phases: Liquid
Fixed: Pressure, kPa = 101
Property: Viscosity, Pa*s (Liquid); method: Capillary tube (Ostwald; Ubbelohde) method
Temperature, K	Viscosity, Pa*s	uncertainty
293.15	0.000398	9e-06
298.15	0.000378	8e-06
303.15	0.00036	8e-06

System: butanone; phases: Liquid
Fixed: Pressure, kPa = 101
Property: Speed of sound, m/s (Liquid); method: Sing-around technique in a fixed-path interferometer
Temperature, K	Speed of sound, m/s	uncertainty
293.15	1213	2
298.15	1192	2
303.15	1171	2

System: butanone; phases: Liquid
Fixed: Pressure, kPa = 101
Property: Mass density, kg/m3 (Liquid); method: Vibrating tube method
Temperature, K	Mass density, kg/m3	uncertainty
293.15	804.95	0.23
298.15	799.74	0.23
303.15	794.48	0.23

System: pentan-2-one; phases: Liquid
Fixed: Pressure, kPa = 101
Property: Viscosity, Pa*s (Liquid); method: Capillary tube (Ostwald; Ubbelohde) method
Temperature, K	Viscosity, Pa*s	uncertainty
293.15	0.000496	1.1e-05
298.15	0.000469	1e-05
303.15	0.000444	9e-06

System: pentan-2-one; phases: Liquid
Fixed: Pressure, kPa = 101
Property: Speed of sound, m/s (Liquid); method: Sing-around technique in a fixed-path interferometer
Temperature, K	Speed of sound, m/s	uncertainty
293.15	1233	2
298.15	1213	2
303.15	1192	2

System: pentan-2-one; phases: Liquid
Fixed: Pressure, kPa = 101
Property: Mass density, kg/m3 (Liquid); method: Vibrating tube method
Temperature, K	Mass density, kg/m3	uncertainty
293.15	806.26	0.23
298.15	801.42	0.23
303.15	796.58	0.23

System: acetone + methylcyclopentane; phases: Liquid
Fixed: Pressure, kPa = 101
Property: Viscosity, Pa*s (Liquid); method: Capillary tube (Ostwald; Ubbelohde) method
Temperature, K	Mole fraction of methylcyclopentane	Viscosity, Pa*s	uncertainty
293.15	0	0.00032	7e-06
293.15	0.05	0.000323	7e-06
293.15	0.0985	0.000323	7e-06
293.15	0.2004	0.000333	7e-06
293.15	0.3009	0.000347	8e-06
293.15	0.4024	0.000361	9e-06
293.15	0.5029	0.000378	9e-06
293.15	0.6052	0.000396	1e-05
293.15	0.7112	0.000418	1.2e-05
293.15	0.8139	0.000438	1.3e-05
293.15	0.9084	0.000467	1.5e-05
293.15	0.954	0.000482	1.5e-05
293.15	1	0.000504	1.6e-05
298.15	0	0.000306	7e-06
298.15	0.05	0.000308	7e-06
298.15	0.0985	0.000308	7e-06
298.15	0.2004	0.000317	7e-06
298.15	0.3009	0.00033	8e-06
298.15	0.4024	0.000344	8e-06
298.15	0.5029	0.000359	9e-06
298.15	0.6052	0.000375	1e-05
298.15	0.7112	0.000395	1.1e-05
298.15	0.8139	0.000415	1.2e-05
298.15	0.9084	0.000442	1.4e-05
298.15	0.954	0.000457	1.5e-05
298.15	1	0.000476	1.6e-05
303.15	0	0.000292	6e-06
303.15	0.05	0.000294	6e-06
303.15	0.0985	0.000294	6e-06
303.15	0.2004	0.000302	7e-06
303.15	0.3009	0.000316	7e-06
303.15	0.4024	0.000328	8e-06
303.15	0.5029	0.000341	9e-06
303.15	0.6052	0.000355	9e-06
303.15	0.7112	0.000374	1e-05
303.15	0.8139	0.000393	1.2e-05
303.15	0.9084	0.000418	1.3e-05
303.15	0.954	0.000432	1.4e-05
303.15	1	0.00045	1.5e-05

System: acetone + methylcyclopentane; phases: Liquid
Fixed: Pressure, kPa = 101
Property: Speed of sound, m/s (Liquid); method: Sing-around technique in a fixed-path interferometer
Temperature, K	Mole fraction of methylcyclopentane	Speed of sound, m/s	uncertainty
293.15	0	1185	2
293.15	0.05	1177	2
293.15	0.0985	1171	2
293.15	0.2004	1162	2
293.15	0.3009	1157	3
293.15	0.4024	1156	3
293.15	0.5029	1157	3
293.15	0.6052	1161	4
293.15	0.7112	1166	4
293.15	0.8139	1174	5
293.15	0.9084	1184	5
293.15	0.954	1190	5
293.15	1	1197	5
298.15	0	1162	2
298.15	0.05	1155	2
298.15	0.0985	1148	2
298.15	0.2004	1139	2
298.15	0.3009	1134	3
298.15	0.4024	1133	3
298.15	0.5029	1134	3
298.15	0.6052	1137	4
298.15	0.7112	1143	4
298.15	0.8139	1151	5
298.15	0.9084	1161	5
298.15	0.954	1167	5
298.15	1	1174	5
303.15	0	1140	2
303.15	0.05	1132	2
303.15	0.0985	1126	2
303.15	0.2004	1116	2
303.15	0.3009	1111	3
303.15	0.4024	1110	3
303.15	0.5029	1111	3
303.15	0.6052	1114	4
303.15	0.7112	1120	4
303.15	0.8139	1127	5
303.15	0.9084	1137	5
303.15	0.954	1143	5
303.15	1	1150	5

System: acetone + methylcyclopentane; phases: Liquid
Fixed: Pressure, kPa = 101
Property: Mass density, kg/m3 (Liquid); method: Vibrating tube method
Mole fraction of methylcyclopentane	Temperature, K	Mass density, kg/m3	uncertainty
0	293.15	791.11	0.15
0	298.15	785.41	0.15
0	303.15	779.66	0.15
0.05	293.15	785.97	0.21
0.05	298.15	780.3	0.21
0.05	303.15	774.59	0.21
0.0985	293.15	781.33	0.29
0.0985	298.15	775.71	0.29
0.0985	303.15	770.04	0.29
0.2004	293.15	773.02	0.47
0.2004	298.15	767.49	0.47
0.2004	303.15	761.9	0.47
0.3009	293.15	766.13	0.65
0.3009	298.15	760.68	0.65
0.3009	303.15	755.18	0.65
0.4024	293.15	760.79	0.84
0.4024	298.15	755.43	0.83
0.4024	303.15	750.02	0.83
0.5029	293.15	756.32	1.02
0.5029	298.15	751.06	1.02
0.5029	303.15	745.74	1.01
0.6052	293.15	752.71	1.21
0.6052	298.15	747.55	1.21
0.6052	303.15	742.34	1.2
0.7112	293.15	749.82	1.41
0.7112	298.15	744.77	1.4
0.7112	303.15	739.67	1.39
0.8139	293.15	747.82	1.61
0.8139	298.15	742.89	1.6
0.8139	303.15	737.92	1.59
0.9084	293.15	746.75	1.79
0.9084	298.15	741.94	1.78
0.9084	303.15	737.09	1.77
0.954	293.15	746.58	1.88
0.954	298.15	741.83	1.87
0.954	303.15	737.04	1.85
1	293.15	746.64	1.97
1	298.15	741.94	1.96
1	303.15	737.21	1.95

System: butanone + methylcyclopentane; phases: Liquid
Fixed: Pressure, kPa = 101
Property: Viscosity, Pa*s (Liquid); method: Capillary tube (Ostwald; Ubbelohde) method
Temperature, K	Mole fraction of methylcyclopentane	Viscosity, Pa*s	uncertainty
293.15	0	0.000398	9e-06
293.15	0.048	0.000397	9e-06
293.15	0.0982	0.000396	9e-06
293.15	0.1942	0.000397	9e-06
293.15	0.2911	0.000402	9e-06
293.15	0.398	0.000408	1e-05
293.15	0.5036	0.000416	1.1e-05
293.15	0.6033	0.000427	1.1e-05
293.15	0.6993	0.000439	1.2e-05
293.15	0.8045	0.000455	1.3e-05
293.15	0.906	0.000475	1.5e-05
293.15	0.9517	0.000487	1.6e-05
293.15	1	0.000504	1.6e-05
298.15	0	0.000378	8e-06
298.15	0.048	0.000378	8e-06
298.15	0.0982	0.000376	8e-06
298.15	0.1942	0.000377	8e-06
298.15	0.2911	0.000383	9e-06
298.15	0.398	0.000386	9e-06
298.15	0.5036	0.000394	1e-05
298.15	0.6033	0.000404	1.1e-05
298.15	0.6993	0.000415	1.2e-05
298.15	0.8045	0.000431	1.3e-05
298.15	0.906	0.000448	1.4e-05
298.15	0.9517	0.00046	1.5e-05
298.15	1	0.000476	1.6e-05
303.15	0	0.00036	8e-06
303.15	0.048	0.00036	8e-06
303.15	0.0982	0.000358	8e-06
303.15	0.1942	0.000358	8e-06
303.15	0.2911	0.000364	8e-06
303.15	0.398	0.000367	9e-06
303.15	0.5036	0.000374	9e-06
303.15	0.6033	0.000383	1e-05
303.15	0.6993	0.000394	1.1e-05
303.15	0.8045	0.000409	1.2e-05
303.15	0.906	0.000425	1.3e-05
303.15	0.9517	0.000436	1.4e-05
303.15	1	0.00045	1.5e-05

System: butanone + methylcyclopentane; phases: Liquid
Fixed: Pressure, kPa = 101
Property: Speed of sound, m/s (Liquid); method: Sing-around technique in a fixed-path interferometer
Temperature, K	Mole fraction of methylcyclopentane	Speed of sound, m/s	uncertainty
293.15	0	1213	2
293.15	0.048	1208	2
293.15	0.0982	1203	2
293.15	0.1942	1195	3
293.15	0.2911	1188	3
293.15	0.398	1183	3
293.15	0.5036	1181	4
293.15	0.6033	1180	4
293.15	0.6993	1181	4
293.15	0.8045	1184	5
293.15	0.906	1189	5
293.15	0.9517	1193	5
293.15	1	1197	5
298.15	0	1192	2
298.15	0.048	1187	2
298.15	0.0982	1181	2
298.15	0.1942	1173	3
298.15	0.2911	1166	3
298.15	0.398	1161	3
298.15	0.5036	1158	4
298.15	0.6033	1157	4
298.15	0.6993	1158	4
298.15	0.8045	1161	5
298.15	0.906	1166	5
298.15	0.9517	1169	5
298.15	1	1174	5
303.15	0	1171	2
303.15	0.048	1165	2
303.15	0.0982	1160	2
303.15	0.1942	1151	3
303.15	0.2911	1144	3
303.15	0.398	1139	3
303.15	0.5036	1136	4
303.15	0.6033	1135	4
303.15	0.6993	1135	4
303.15	0.8045	1138	5
303.15	0.906	1143	5
303.15	0.9517	1146	5
303.15	1	1150	5

System: butanone + methylcyclopentane; phases: Liquid
Fixed: Pressure, kPa = 101
Property: Mass density, kg/m3 (Liquid); method: Vibrating tube method
Mole fraction of methylcyclopentane	Temperature, K	Mass density, kg/m3	uncertainty
0	293.15	804.95	0.23
0	298.15	799.74	0.23
0	303.15	794.48	0.23
0.048	293.15	800.42	0.31
0.048	298.15	795.21	0.31
0.048	303.15	789.96	0.31
0.0982	293.15	795.99	0.4
0.0982	298.15	790.8	0.4
0.0982	303.15	785.57	0.39
0.1942	293.15	787.99	0.56
0.1942	298.15	782.84	0.56
0.1942	303.15	777.64	0.56
0.2911	293.15	780.72	0.73
0.2911	298.15	775.6	0.73
0.2911	303.15	770.44	0.72
0.398	293.15	773.4	0.92
0.398	298.15	768.32	0.91
0.398	303.15	763.2	0.9
0.5036	293.15	766.98	1.1
0.5036	298.15	761.95	1.09
0.5036	303.15	756.87	1.09
0.6033	293.15	761.6	1.27
0.6033	298.15	756.62	1.26
0.6033	303.15	751.6	1.26
0.6993	293.15	757.02	1.44
0.6993	298.15	752.08	1.43
0.6993	303.15	747.11	1.42
0.8045	293.15	752.53	1.62
0.8045	298.15	747.68	1.61
0.8045	303.15	742.78	1.6
0.906	293.15	749.02	1.8
0.906	298.15	744.24	1.79
0.906	303.15	739.42	1.78
0.9517	293.15	747.8	1.88
0.9517	298.15	743.03	1.87
0.9517	303.15	738.24	1.86
1	293.15	746.64	1.97
1	298.15	741.94	1.96
1	303.15	737.21	1.95

System: methylcyclopentane + pentan-2-one; phases: Liquid
Fixed: Pressure, kPa = 101
Property: Viscosity, Pa*s (Liquid); method: Capillary tube (Ostwald; Ubbelohde) method
Temperature, K	Mole fraction of methylcyclopentane	Viscosity, Pa*s	uncertainty
293.15	0	0.000496	1.1e-05
293.15	0.0493	0.00049	1.1e-05
293.15	0.0981	0.000485	1.1e-05
293.15	0.1993	0.000479	1.1e-05
293.15	0.3038	0.000473	1.1e-05
293.15	0.3972	0.00047	1.1e-05
293.15	0.5007	0.000469	1.2e-05
293.15	0.6069	0.000468	1.2e-05
293.15	0.6989	0.00047	1.3e-05
293.15	0.8052	0.000477	1.4e-05
293.15	0.9039	0.000487	1.5e-05
293.15	0.9508	0.000493	1.6e-05
293.15	1	0.000504	1.6e-05
298.15	0	0.000469	1e-05
298.15	0.0493	0.000462	1e-05
298.15	0.0981	0.000459	1e-05
298.15	0.1993	0.000452	1e-05
298.15	0.3038	0.000449	1e-05
298.15	0.3972	0.000444	1.1e-05
298.15	0.5007	0.000444	1.1e-05
298.15	0.6069	0.000442	1.2e-05
298.15	0.6989	0.000444	1.2e-05
298.15	0.8052	0.000451	1.3e-05
298.15	0.9039	0.000458	1.4e-05
298.15	0.9508	0.000466	1.5e-05
298.15	1	0.000476	1.6e-05
303.15	0	0.000444	9e-06
303.15	0.0493	0.000439	9e-06
303.15	0.0981	0.000434	9e-06
303.15	0.1993	0.00043	1e-05
303.15	0.3038	0.000425	1e-05
303.15	0.3972	0.000421	1e-05
303.15	0.5007	0.00042	1.1e-05
303.15	0.6069	0.000419	1.1e-05
303.15	0.6989	0.000422	1.2e-05
303.15	0.8052	0.000427	1.3e-05
303.15	0.9039	0.000433	1.3e-05
303.15	0.9508	0.00044	1.4e-05
303.15	1	0.00045	1.5e-05

System: methylcyclopentane + pentan-2-one; phases: Liquid
Fixed: Pressure, kPa = 101
Property: Speed of sound, m/s (Liquid); method: Sing-around technique in a fixed-path interferometer
Temperature, K	Mole fraction of methylcyclopentane	Speed of sound, m/s	uncertainty
293.15	0	1233	2
293.15	0.0493	1228	2
293.15	0.0981	1224	2
293.15	0.1993	1216	3
293.15	0.3038	1207	3
293.15	0.3972	1201	3
293.15	0.5007	1196	4
293.15	0.6069	1193	4
293.15	0.6989	1191	4
293.15	0.8052	1190	5
293.15	0.9039	1193	5
293.15	0.9508	1195	5
293.15	1	1197	5
298.15	0	1213	2
298.15	0.0493	1207	2
298.15	0.0981	1203	2
298.15	0.1993	1194	3
298.15	0.3038	1185	3
298.15	0.3972	1179	3
298.15	0.5007	1174	4
298.15	0.6069	1171	4
298.15	0.6989	1168	4
298.15	0.8052	1168	5
298.15	0.9039	1170	5
298.15	0.9508	1172	5
298.15	1	1174	5
303.15	0	1192	2
303.15	0.0493	1187	2
303.15	0.0981	1182	2
303.15	0.1993	1173	3
303.15	0.3038	1164	3
303.15	0.3972	1157	3
303.15	0.5007	1152	4
303.15	0.6069	1148	4
303.15	0.6989	1146	4
303.15	0.8052	1145	5
303.15	0.9039	1147	5
303.15	0.9508	1148	5
303.15	1	1150	5

System: methylcyclopentane + pentan-2-one; phases: Liquid
Fixed: Pressure, kPa = 101
Property: Mass density, kg/m3 (Liquid); method: Vibrating tube method
Mole fraction of methylcyclopentane	Temperature, K	Mass density, kg/m3	uncertainty
0	293.15	806.26	0.23
0	298.15	801.42	0.23
0	303.15	796.58	0.23
0.0493	293.15	802.59	0.31
0.0493	298.15	797.76	0.31
0.0493	303.15	792.9	0.31
0.0981	293.15	798.89	0.4
0.0981	298.15	794.06	0.4
0.0981	303.15	789.19	0.39
0.1993	293.15	791.61	0.57
0.1993	298.15	786.76	0.57
0.1993	303.15	781.89	0.57
0.3038	293.15	784.4	0.76
0.3038	298.15	779.56	0.75
0.3038	303.15	774.7	0.75
0.3972	293.15	778.23	0.92
0.3972	298.15	773.38	0.91
0.3972	303.15	768.51	0.91
0.5007	293.15	771.75	1.1
0.5007	298.15	766.91	1.09
0.5007	303.15	762.04	1.09
0.6069	293.15	765.58	1.28
0.6069	298.15	760.74	1.28
0.6069	303.15	755.87	1.27
0.6989	293.15	760.33	1.44
0.6989	298.15	755.52	1.44
0.6989	303.15	750.68	1.43
0.8052	293.15	754.83	1.63
0.8052	298.15	750.05	1.62
0.8052	303.15	745.24	1.61
0.9039	293.15	750.38	1.8
0.9039	298.15	745.64	1.79
0.9039	303.15	740.86	1.78
0.9508	293.15	748.6	1.88
0.9508	298.15	743.88	1.87
0.9508	303.15	739.12	1.86
1	293.15	746.64	1.97
1	298.15	741.94	1.96
1	303.15	737.21	1.95
