Measured thermophysical data. Ternary liquid-liquid phase equilibria of {ionic liquid + thiophene + (octane/hexadecane)}
Source: J. Chem. Thermodyn., 2019, 10.1016/j.jct.2019.03.017
Compound 1: 1,3-dihydroxyimidazolium bis(trifluoromethylsulfonyl)imide, C5H5F6N3O6S2, InChI=1S/C3H5N2O2.C2F6NO4S2/c6-4-1-2-5(7)3-4;3-1(4,5)14(10,11)9-15(12,13)2(6,7)8/h1-3,6-7H;/q+1;-1, purity 98%
Compound 2: 1-butyl-3-methylimidazolium trifluoromethanesulfonate, C9H15F3N2O3S, InChI=1S/C8H15N2.CHF3O3S/c1-3-4-5-10-7-6-9(2)8-10;2-1(3,4)8(5,6)7/h6-8H,3-5H2,1-2H3;(H,5,6,7)/q+1;/p-1, purity 98%
Compound 3: octane, C8H18, InChI=1S/C8H18/c1-3-5-7-8-6-4-2/h3-8H2,1-2H3
Compound 4: hexadecane, C16H34, InChI=1S/C16H34/c1-3-5-7-9-11-13-15-16-14-12-10-8-6-4-2/h3-16H2,1-2H3
Compound 5: thiophene, C4H4S, InChI=1S/C4H4S/c1-2-4-5-3-1/h1-4H

System: 1,3-dihydroxyimidazolium bis(trifluoromethylsulfonyl)imide + thiophene + octane; phases: Liquid mixture 2, Liquid mixture 1
Fixed: Temperature, K = 308.15
Fixed: Pressure, kPa = 101.3
Property: Mole fraction of 1,3-dihydroxyimidazolium bis(trifluoromethylsulfonyl)imide (Liquid mixture 2); method: Chromatography
Property: Mole fraction of 1,3-dihydroxyimidazolium bis(trifluoromethylsulfonyl)imide (Liquid mixture 1); method: Chromatography
Property: Mole fraction of thiophene (Liquid mixture 1); method: Chromatography
Mole fraction of thiophene	Mole fraction of 1,3-dihydroxyimidazolium bis(trifluoromethylsulfonyl)imide	uncertainty	Mole fraction of 1,3-dihydroxyimidazolium bis(trifluoromethylsulfonyl)imide	uncertainty	Mole fraction of thiophene	uncertainty
0	0.992	0.008	0		0	
0.018	0.971	0.014	0		0.033	
0.086	0.906	0.014	0		0.152	
0.137	0.858	0.014	0		0.255	
0.213	0.781	0.014	0		0.369	
0.221	0.772	0.014	0		0.454	
0.242	0.752	0.014	0		0.511	
0.266	0.728	0.014	0		0.574	
0.296	0.697	0.014	0		0.617	
0.328	0.666	0.014	0		0.759	
0.397	0.597	0.014	0		0.883	
0.473	0.527	0.014	0		1	

System: 1-butyl-3-methylimidazolium trifluoromethanesulfonate + thiophene + octane; phases: Liquid mixture 2, Liquid mixture 1
Fixed: Temperature, K = 308.15
Fixed: Pressure, kPa = 101.3
Property: Mole fraction of 1-butyl-3-methylimidazolium trifluoromethanesulfonate (Liquid mixture 2); method: Chromatography
Property: Mole fraction of 1-butyl-3-methylimidazolium trifluoromethanesulfonate (Liquid mixture 1); method: Chromatography
Property: Mole fraction of thiophene (Liquid mixture 1); method: Chromatography
Mole fraction of thiophene	Mole fraction of 1-butyl-3-methylimidazolium trifluoromethanesulfonate	uncertainty	Mole fraction of 1-butyl-3-methylimidazolium trifluoromethanesulfonate	uncertainty	Mole fraction of thiophene	uncertainty
0	0.975	0.025	0		0	
0.737	0.245	0.141	0		0.815	
0.812	0.175	0.14	0		0.916	
0.828	0.172	0.135	0		1	
0.02	0.956	0.044	0		0.008	
0.158	0.817	0.141	0		0.07	
0.337	0.642	0.14	0		0.201	
0.471	0.509	0.141	0		0.323	
0.48	0.505	0.141	0		0.458	
0.545	0.436	0.141	0		0.536	
0.555	0.427	0.141	0		0.609	
0.659	0.324	0.14	0		0.776	

System: 1,3-dihydroxyimidazolium bis(trifluoromethylsulfonyl)imide + thiophene + hexadecane; phases: Liquid mixture 2, Liquid mixture 1
Fixed: Temperature, K = 308.15
Fixed: Pressure, kPa = 101.3
Property: Mole fraction of 1,3-dihydroxyimidazolium bis(trifluoromethylsulfonyl)imide (Liquid mixture 2); method: Chromatography
Property: Mole fraction of 1,3-dihydroxyimidazolium bis(trifluoromethylsulfonyl)imide (Liquid mixture 1); method: Chromatography
Property: Mole fraction of thiophene (Liquid mixture 1); method: Chromatography
Mole fraction of thiophene	Mole fraction of 1,3-dihydroxyimidazolium bis(trifluoromethylsulfonyl)imide	uncertainty	Mole fraction of 1,3-dihydroxyimidazolium bis(trifluoromethylsulfonyl)imide	uncertainty	Mole fraction of thiophene	uncertainty
0	0.996	0.004	0		0	
0.027	0.966	0.014	0		0.094	
0.053	0.941	0.015	0		0.139	
0.088	0.902	0.014	0		0.233	
0.123	0.874	0.013	0		0.287	
0.153	0.845	0.014	0		0.385	
0.215	0.78	0.014	0		0.549	
0.267	0.732	0.014	0		0.695	
0.299	0.699	0.014	0		0.758	
0.348	0.651	0.014	0		0.781	
0.4	0.599	0.014	0		0.912	
0.473	0.527	0.014	0		1	

System: 1-butyl-3-methylimidazolium trifluoromethanesulfonate + thiophene + hexadecane; phases: Liquid mixture 2, Liquid mixture 1
Fixed: Temperature, K = 308.15
Fixed: Pressure, kPa = 101.3
Property: Mole fraction of 1-butyl-3-methylimidazolium trifluoromethanesulfonate (Liquid mixture 2); method: Chromatography
Property: Mole fraction of 1-butyl-3-methylimidazolium trifluoromethanesulfonate (Liquid mixture 1); method: Chromatography
Property: Mole fraction of thiophene (Liquid mixture 1); method: Chromatography
Mole fraction of thiophene	Mole fraction of 1-butyl-3-methylimidazolium trifluoromethanesulfonate	uncertainty	Mole fraction of 1-butyl-3-methylimidazolium trifluoromethanesulfonate	uncertainty	Mole fraction of thiophene	uncertainty
0	0.981	0.019	0		0	
0.082	0.916	0.084	0		0.065	
0.107	0.884	0.116	0		0.114	
0.211	0.782	0.139	0		0.184	
0.267	0.731	0.14	0		0.265	
0.27	0.728	0.14	0		0.319	
0.359	0.639	0.141	0		0.419	
0.416	0.581	0.142	0		0.525	
0.551	0.446	0.141	0		0.6	
0.628	0.369	0.141	0		0.767	
0.68	0.318	0.141	0		0.876	
0.828	0.172	0.14	0		1	

System: 1,3-dihydroxyimidazolium bis(trifluoromethylsulfonyl)imide + octane; phases: Liquid mixture 2, Liquid mixture 1
Property: Mole fraction of 1,3-dihydroxyimidazolium bis(trifluoromethylsulfonyl)imide (Liquid mixture 2); method: Chromatography
Temperature, K	Pressure, kPa	Mole fraction of 1,3-dihydroxyimidazolium bis(trifluoromethylsulfonyl)imide	uncertainty
308.15	101.3	0.992	0.008

System: 1,3-dihydroxyimidazolium bis(trifluoromethylsulfonyl)imide + thiophene; phases: Liquid mixture 2, Liquid mixture 1
Property: Mole fraction of 1,3-dihydroxyimidazolium bis(trifluoromethylsulfonyl)imide (Liquid mixture 2); method: Chromatography
Temperature, K	Pressure, kPa	Mole fraction of 1,3-dihydroxyimidazolium bis(trifluoromethylsulfonyl)imide	uncertainty
308.15	101.3	0.527	0.014

System: 1-butyl-3-methylimidazolium trifluoromethanesulfonate + octane; phases: Liquid mixture 2, Liquid mixture 1
Property: Mole fraction of 1-butyl-3-methylimidazolium trifluoromethanesulfonate (Liquid mixture 2); method: Chromatography
Temperature, K	Pressure, kPa	Mole fraction of 1-butyl-3-methylimidazolium trifluoromethanesulfonate	uncertainty
308.15	101.3	0.975	0.025

System: 1-butyl-3-methylimidazolium trifluoromethanesulfonate + thiophene; phases: Liquid mixture 2, Liquid mixture 1
Property: Mole fraction of 1-butyl-3-methylimidazolium trifluoromethanesulfonate (Liquid mixture 2); method: Chromatography
Temperature, K	Pressure, kPa	Mole fraction of 1-butyl-3-methylimidazolium trifluoromethanesulfonate	uncertainty
308.15	101.3	0.172	0.135

System: 1,3-dihydroxyimidazolium bis(trifluoromethylsulfonyl)imide + hexadecane; phases: Liquid mixture 2, Liquid mixture 1
Property: Mole fraction of 1,3-dihydroxyimidazolium bis(trifluoromethylsulfonyl)imide (Liquid mixture 2); method: Chromatography
Temperature, K	Pressure, kPa	Mole fraction of 1,3-dihydroxyimidazolium bis(trifluoromethylsulfonyl)imide	uncertainty
308.15	101.3	0.996	0.004

System: 1-butyl-3-methylimidazolium trifluoromethanesulfonate + hexadecane; phases: Liquid mixture 2, Liquid mixture 1
Property: Mole fraction of 1-butyl-3-methylimidazolium trifluoromethanesulfonate (Liquid mixture 2); method: Chromatography
Temperature, K	Pressure, kPa	Mole fraction of 1-butyl-3-methylimidazolium trifluoromethanesulfonate	uncertainty
308.15	101.3	0.981	0.019
