Measured thermophysical data. Deuterium isotope differences in 2-propanone, (CH3)2CO/(CD3)2CO: A high-pressure sound-speed, density, and heat capacities study
Source: J. Chem. Thermodyn., 2005, 10.1016/j.jct.2004.11.001
Compound 1: (D6)-2-propanone, C3D6O, InChI=1S/C3H6O/c1-3(2)4/h1-2H3/i1D3,2D3

System: (D6)-2-propanone; phases: Liquid
Property: Speed of sound, m/s (Liquid); method: non intrusive technique with two piezoelectric transducers based on the time of flight
Temperature, K	Pressure, kPa	Speed of sound, m/s	uncertainty
288.2	100	1110.6	4.5
288.2	5020	1140.7	4.6
288.2	10060	1168.2	4.7
288.2	20010	1218.6	4.9
288.2	30090	1264.4	5.1
288.2	40050	1302.9	5.2
288.2	49940	1345.4	5.4
288.2	60000	1382.2	5.5
288.2	70020	1417.2	5.7
288.2	80060	1450.1	5.8
288.2	90030	1481.9	5.9
288.2	100110	1512.5	6.1
288.2	110100	1540.4	6.2
288.2	120100	1568.3	6.3
288.2	130120	1595.5	6.4
288.2	140000	1620.6	6.5
288.2	150150	1640.3	6.6
288.2	160030	1664	6.7
298.25	100	1071.6	4.3
298.25	5080	1103.4	4.4
298.25	10170	1131.8	4.5
298.25	20270	1183.7	4.8
298.25	30000	1229.6	4.9
298.25	40010	1272.1	5.1
298.25	50020	1312	5.3
298.25	60450	1350.7	5.4
298.25	70020	1383.8	5.6
298.25	80010	1416.9	5.7
298.25	90200	1443.5	5.8
298.25	100040	1478.7	5.9
298.25	110070	1507.6	6.1
298.25	120040	1535.4	6.2
298.25	130020	1561.1	6.3
298.25	140020	1586.5	6.4
298.25	150120	1611.2	6.5
298.25	159970	1634.8	6.6
308.22	100	1033.3	4.2
308.22	5040	1063.2	4.3
308.22	10000	1093.5	4.4
308.22	20090	1147.9	4.6
308.22	29990	1196.3	4.8
308.22	40040	1240.8	5
308.22	50090	1281.7	5.1
308.22	60060	1319.5	5.3
308.22	70070	1355	5.4
308.22	80090	1388.6	5.6
308.22	89970	1420.3	5.7
308.22	100070	1450.8	5.8
308.22	110070	1479.7	5.9
308.22	120060	1507.5	6.1
308.22	130120	1534.3	6.2
308.22	140080	1559.4	6.3
308.22	150120	1584	6.4
308.22	160000	1607.2	6.5
318.22	100	991.2	4
318.22	4980	1022.9	4.1
318.22	10070	1053.8	4.2
318.22	19990	1109.8	4.5
318.22	30040	1161.1	4.7
318.22	40070	1207.9	4.9
318.22	50060	1250.3	5
318.22	60010	1289.3	5.2
318.22	70120	1326.3	5.3
318.22	80030	1360.3	5.5
318.22	90090	1393	5.6
318.22	100300	1424.8	5.7
318.22	110120	1453.2	5.8
318.22	120030	1481	5.9
318.22	129970	1507.9	6.1
318.22	140110	1534.2	6.2
318.22	150060	1558.7	6.3
318.22	160060	1582.6	6.4
328.68	100	941.9	3.8
328.68	5090	977.6	3.9
328.68	10030	1009.5	4.1
328.68	20070	1068.8	4.3
328.68	30010	1121.9	4.5
328.68	40010	1171.1	4.7
328.68	50070	1215.9	4.9
328.68	60000	1256.7	5
328.68	70030	1294.8	5.2
328.68	80090	1330.4	5.3
328.68	90100	1364	5.5
328.68	100060	1396.1	5.6
328.68	110140	1426.4	5.7
328.68	120100	1454.7	5.8
328.68	130000	1481.9	6
328.68	140020	1508.4	6.1
328.68	150040	1533.8	6.2
328.68	160100	1557.9	6.3
338.72	100	888.6	3.6
338.72	5050	927.2	3.7
338.72	10020	962.5	3.9
338.72	20030	1025.1	4.1
338.72	30050	1081.4	4.3
338.72	40010	1132.6	4.6
338.72	49990	1179.8	4.7
338.72	60050	1223.2	4.9
338.72	70040	1262.8	5.1
338.72	79970	1299.3	5.2
338.72	90070	1334.7	5.4
338.72	100040	1367.5	5.5
338.72	110020	1398.5	5.6
338.72	119960	1428.5	5.7
338.72	130000	1456.6	5.9
338.72	140080	1484.3	6
338.72	150050	1510.5	6.1
338.72	159910	1535.5	6.2

System: (D6)-2-propanone; phases: Liquid
Property: Mass density, kg/m3 (Liquid); method: VIBTUB:mpoint:UFactor:2
Temperature, K	Pressure, kPa	Mass density, kg/m3	uncertainty
298.15	100	868	0.22
298.15	5000	873.51	0.24
298.15	9920	878.81	0.25
298.15	14840	883.83	0.27
298.15	19760	888.58	0.29
298.15	24670	893.11	0.31
298.15	29590	897.46	0.33
298.15	34510	901.62	0.35
298.15	39430	905.63	0.38
298.15	44340	909.51	0.4
298.15	49260	913.26	0.42
298.15	54180	916.86	0.44
298.15	59100	920.33	0.47
303.16	100	861.61	0.22
303.16	5000	867.3	0.23
303.16	9920	872.78	0.25
303.16	14840	877.94	0.27
303.16	19760	882.84	0.29
303.16	24670	887.5	0.31
303.16	29590	891.96	0.33
303.16	34510	896.23	0.35
303.16	39430	900.35	0.38
303.16	44340	904.3	0.4
303.16	49260	908.1	0.42
303.16	54180	911.79	0.44
303.16	59100	915.34	0.47
308.2	100	855.39	0.22
308.2	5000	861.42	0.23
308.2	9920	867.11	0.25
308.2	14840	872.49	0.27
308.2	19760	877.58	0.29
308.2	24670	882.42	0.31
308.2	29590	887.02	0.33
308.2	34510	891.38	0.35
308.2	39430	895.65	0.38
308.2	44340	899.72	0.4
308.2	49260	903.62	0.42
308.2	54180	907.33	0.44
308.2	59100	910.94	0.47
313.21	100	848.68	0.22
313.21	5000	855	0.23
313.21	9920	860.92	0.25
313.21	14840	866.48	0.27
313.21	19760	871.75	0.29
313.21	24670	876.72	0.31
313.21	29590	881.49	0.33
313.21	34510	886.02	0.35
313.21	39430	890.35	0.38
313.21	44340	894.51	0.4
313.21	49260	898.52	0.42
313.21	54180	902.37	0.44
313.21	59100	906.07	0.47
318.11	100	842.15	0.22
318.11	5000	848.68	0.23
318.11	9920	854.81	0.25
318.11	14840	860.56	0.27
318.11	19760	865.99	0.29
318.11	24670	871.14	0.31
318.11	29590	876.06	0.33
318.11	34510	880.71	0.35
318.11	39430	885.18	0.37
318.11	44340	889.44	0.4
318.11	49260	893.55	0.42
318.11	54180	897.49	0.44
318.11	59100	901.28	0.47
323.12	100	835.37	0.21
323.12	5000	842.13	0.23
323.12	9920	848.49	0.25
323.12	14840	854.44	0.27
323.12	19760	860.07	0.29
323.12	24670	865.35	0.31
323.12	29590	870.38	0.33
323.12	34510	875.18	0.35
323.12	39430	879.78	0.37
323.12	44340	884.16	0.4
323.12	49260	888.38	0.42
323.12	54180	892.45	0.44
323.12	59100	896.36	0.46
328	100	828.68	0.21
328	5000	835.72	0.23
328	9920	842.33	0.25
328	14840	848.48	0.27
328	19760	854.24	0.29
328	24670	859.71	0.31
328	29590	864.88	0.33
328	34510	869.82	0.35
328	39430	874.55	0.37
328	44340	879.05	0.4
328	49260	883.39	0.42
328	54180	887.57	0.44
328	59100	891.6	0.46
332.91	5000	829.26	0.23
332.91	9920	836.08	0.25
332.91	14840	842.42	0.27
332.91	19760	848.36	0.29
332.91	24670	853.96	0.31
332.91	29590	859.28	0.33
332.91	34510	864.37	0.35
332.91	39430	869.21	0.37
332.91	44340	873.86	0.4
332.91	49260	878.33	0.42
332.91	54180	882.64	0.44
332.91	59100	886.8	0.46
