Measured thermophysical data. Liquid density of oxygenated additives to biofuels: 2-Butanol at pressures up to 140 MPa and temperatures from (293.15 to 393.27) K
Source: J. Chem. Thermodyn., 2015, 10.1016/j.jct.2015.05.027
Compound 1: butan-2-ol, C4H10O, InChI=1S/C4H10O/c1-3-4(2)5/h4-5H,3H2,1-2H3, purity 99.5%

System: butan-2-ol; phases: Liquid
Property: Mass density, kg/m3 (Liquid); method: Vibrating tube method
Temperature, K	Pressure, kPa	Mass density, kg/m3	uncertainty
293.15	100	806.7	0.7
293.15	1000	807.4	0.7
293.15	5000	810.4	0.7
293.15	10000	814	0.7
293.15	15000	817.4	0.7
293.15	20000	820.7	0.7
293.15	25000	823.9	0.8
293.15	30000	826.9	0.8
293.15	35000	829.9	0.8
293.15	40000	832.7	0.8
293.15	45000	835.4	0.8
293.15	50000	838.1	0.8
293.15	55000	840.6	0.8
293.15	60000	843.2	0.8
293.15	65000	845.7	0.8
293.15	70000	848	0.9
293.15	80000	852.6	0.9
293.15	90000	857.1	0.9
293.15	100000	861.2	0.9
293.15	110000	865.3	0.9
293.15	120000	869.2	1
293.15	130000	873	1
293.15	140000	876.6	1
298.15	100	802.6	0.7
298.15	1000	803.3	0.7
298.15	5000	806.4	0.7
298.15	10000	810.1	0.7
298.15	15000	813.6	0.7
298.15	20000	817	0.7
298.15	25000	820.2	0.8
298.15	30000	823.4	0.8
298.15	35000	826.3	0.8
298.15	40000	829.2	0.8
298.15	45000	832	0.8
298.15	50000	834.7	0.8
298.15	55000	837.4	0.8
298.15	60000	839.9	0.8
298.15	65000	842.4	0.8
298.15	70000	844.8	0.9
298.15	80000	849.5	0.9
298.15	90000	854	0.9
298.15	100000	858.2	0.9
298.15	110000	862.4	1
298.15	120000	866.2	1
298.15	130000	870.1	1
298.15	140000	873.7	1
313.15	100	789.5	0.7
313.15	1000	790.3	0.7
313.15	5000	793.6	0.7
313.15	10000	797.7	0.7
313.15	15000	801.6	0.7
313.15	20000	805.2	0.8
313.15	25000	808.5	0.8
313.15	30000	812.1	0.8
313.15	35000	815.3	0.8
313.15	40000	818.4	0.8
313.15	45000	821.3	0.8
313.15	50000	824.2	0.8
313.15	55000	827	0.8
313.15	60000	829.8	0.9
313.15	65000	832.5	0.9
313.15	70000	835	0.9
313.15	80000	839.9	0.9
313.15	90000	844.7	0.9
313.15	100000	849.1	1
313.15	110000	853.4	1
313.15	120000	857.5	1
313.15	130000	861.5	1
313.15	140000	865.4	1
333.15	100	770.8	0.7
333.15	1000	771.7	0.7
333.15	5000	775.6	0.7
333.15	10000	780.2	0.7
333.15	15000	784.6	0.7
333.15	20000	788.8	0.8
333.15	25000	792.6	0.8
333.15	30000	796.3	0.8
333.15	35000	800	0.8
333.15	40000	803.4	0.8
333.15	45000	806.6	0.8
333.15	50000	809.7	0.8
333.15	55000	812.8	0.9
333.15	60000	815.8	0.9
333.15	65000	818.7	0.9
333.15	70000	821.4	0.9
333.15	80000	826.7	0.9
333.15	90000	831.9	1
333.15	100000	836.7	1
333.15	110000	841.2	1
333.15	120000	845.5	1
333.15	130000	849.8	1.1
333.15	140000	853.8	1.1
353.21	100	750.3	0.7
353.21	1000	751.4	0.7
353.21	5000	756	0.7
353.21	10000	761.3	0.7
353.21	15000	766.4	0.8
353.21	20000	771	0.8
353.21	25000	775.4	0.8
353.21	30000	779.5	0.8
353.21	35000	783.5	0.8
353.21	40000	787.2	0.8
353.21	45000	790.8	0.8
353.21	50000	794.5	0.9
353.21	55000	797.7	0.9
353.21	60000	801	0.9
353.21	65000	804.1	0.9
353.21	70000	807.2	0.9
353.21	80000	812.9	1
353.21	90000	818.3	1
353.21	100000	823.5	1
353.21	110000	828.5	1.1
353.21	120000	833.1	1.1
353.21	130000	837.6	1.1
353.21	140000	842	1.1
373.24	1000	729.1	0.7
373.24	5000	734.5	0.7
373.24	10000	740.8	0.7
373.24	15000	746.6	0.8
373.24	20000	751.9	0.8
373.24	25000	757	0.8
373.24	30000	761.6	0.8
373.24	35000	766.1	0.8
373.24	40000	770.4	0.8
373.24	45000	774.4	0.9
373.24	50000	778.1	0.9
373.24	55000	781.9	0.9
373.24	60000	785.4	0.9
373.24	65000	788.8	0.9
373.24	70000	792.1	1
373.24	80000	798.5	1
373.24	90000	804.3	1
373.24	100000	809.8	1.1
373.24	110000	815.1	1.1
373.24	120000	820.1	1.1
373.24	130000	824.9	1.2
373.24	140000	829.5	1.2
393.27	1000	704.8	0.7
393.27	5000	711.4	0.7
393.27	10000	718.8	0.7
393.27	15000	725.6	0.8
393.27	20000	731.7	0.8
393.27	25000	737.4	0.8
393.27	30000	742.7	0.8
393.27	35000	747.8	0.8
393.27	40000	752.5	0.9
393.27	45000	757	0.9
393.27	50000	761.2	0.9
393.27	55000	765.4	0.9
393.27	60000	769.2	0.9
393.27	65000	773	1
393.27	70000	776.6	1
393.27	80000	783.4	1
393.27	90000	789.8	1.1
393.27	100000	795.8	1.1
393.27	110000	801.5	1.1
393.27	120000	806.8	1.2
393.27	130000	811.9	1.2
393.27	140000	816.8	1.2
