Measured thermophysical data. Study on properties of ionic liquid based on ZnCl2 with 1-butyl-3-methylimidazolium chloride
Source: J. Chem. Thermodyn., 2008, 10.1016/j.jct.2007.11.003
Compound 1: 1-butyl-3-methylimidazolium chloride, C8H15ClN2, InChI=1S/C8H15N2.ClH/c1-3-4-5-10-7-6-9(2)8-10;/h6-8H,3-5H2,1-2H3;1H/q+1;/p-1
Compound 2: zinc chloride, Cl2Zn, InChI=1S/2ClH.Zn/h2*1H;/q;;+2/p-2, purity 99.99%

System: zinc chloride + 1-butyl-3-methylimidazolium chloride; phases: Liquid, Air at 1 atmosphere
Fixed: Mole fraction of zinc chloride = 0.5
Property: Surface tension liquid-gas, N/m (Liquid); method: Maximal bubble pressure
Temperature, K	Surface tension liquid-gas, N/m	uncertainty
313.2	0.05749	0.00081
318.2	0.0569	0.0008
323.2	0.05662	0.0008
328.2	0.05616	0.00079
333.2	0.0557	0.00079
338.2	0.0554	0.00078
343.2	0.05479	0.00078

System: zinc chloride + 1-butyl-3-methylimidazolium chloride; phases: Liquid
Fixed: Pressure, kPa = 101
Fixed: Mole fraction of zinc chloride = 0.5
Property: Mass density, kg/m3 (Liquid); method: Westphal method
Temperature, K	Mass density, kg/m3	uncertainty
313.2	1431.9	2.6
318.2	1428.1	2.6
323.2	1424.8	2.6
328.2	1420.7	2.6
333.2	1416.5	2.6
338.2	1412.8	2.6
343.2	1409.3	2.5
