Measured thermophysical data. Experimental thermochemical study of the three methyl substituted 2-acetylthiophene isomers
Source: J. Chem. Thermodyn., 2008, 10.1016/j.jct.2008.03.008
Compound 1: sulfuric acid, H2O4S, InChI=1S/H2O4S/c1-5(2,3)4/h(H2,1,2,3,4)
Compound 2: carbon dioxide, CO2, InChI=1S/CO2/c2-1-3
Compound 3: water, H2O, InChI=1S/H2O/h1H2
Compound 4: oxygen, O2, InChI=1S/O2/c1-2
Compound 5: 2-acetyl-3-methylthiophene, C7H8OS, InChI=1S/C7H8OS/c1-5-3-4-9-7(5)6(2)8/h3-4H,1-2H3, purity 97%
Compound 6: 2-acetyl-4-methylthiophene, C7H8OS, InChI=1S/C7H8OS/c1-5-3-7(6(2)8)9-4-5/h3-4H,1-2H3, purity 98%
Compound 7: 2-acetyl-5-methylthiophene, C7H8OS, InChI=1S/C7H8OS/c1-5-3-4-7(9-5)6(2)8/h3-4H,1-2H3, purity 98%

System: 2-acetyl-3-methylthiophene; phases: Liquid, Gas
Property: Molar enthalpy of vaporization or sublimation, kJ/mol (Liquid); method: Vacuum sublimation drop method
Temperature, K	Molar enthalpy of vaporization or sublimation, kJ/mol	uncertainty
298.15	57.1	4.8

System: 2-acetyl-3-methylthiophene; phases: Gas
Property: Molar enthalpy, kJ/mol (Gas); method: vacuum microcalorimetry
Temperature, K	Pressure, kPa	Molar enthalpy, kJ/mol	uncertainty
365.1	100	68.7	0.4

System: 2-acetyl-4-methylthiophene; phases: Liquid, Gas
Property: Molar enthalpy of vaporization or sublimation, kJ/mol (Liquid); method: Flow calorimetry
Temperature, K	Molar enthalpy of vaporization or sublimation, kJ/mol	uncertainty
298.15	63	5.2

System: 2-acetyl-4-methylthiophene; phases: Gas
Property: Molar enthalpy, kJ/mol (Gas); method: vacuum microcalorimetry
Temperature, K	Pressure, kPa	Molar enthalpy, kJ/mol	uncertainty
365.1	100	74.6	0.2

System: 2-acetyl-5-methylthiophene; phases: Liquid, Gas
Property: Molar enthalpy of vaporization or sublimation, kJ/mol (Liquid); method: Flow calorimetry
Temperature, K	Molar enthalpy of vaporization or sublimation, kJ/mol	uncertainty
298.15	62	5.2

System: 2-acetyl-5-methylthiophene; phases: Gas
Property: Molar enthalpy, kJ/mol (Gas); method: vacuum microcalorimetry
Temperature, K	Pressure, kPa	Molar enthalpy, kJ/mol	uncertainty
365.1	100	73.6	0.4

Reaction: 1 sulfuric acid + -1 2-acetyl-3-methylthiophene + 7 carbon dioxide + 3 water + -10 oxygen
Property: Specific internal energy of reaction at constant volume, J/g
-30987.5

Reaction: 1 sulfuric acid + -1 2-acetyl-4-methylthiophene + 7 carbon dioxide + 3 water + -10 oxygen
Property: Specific internal energy of reaction at constant volume, J/g
-30934.6

Reaction: 1 sulfuric acid + -1 2-acetyl-5-methylthiophene + 7 carbon dioxide + 3 water + -10 oxygen
Property: Specific internal energy of reaction at constant volume, J/g
-30916
