Measured thermophysical data. Thermochemical studies of three N-thiocarbamoylbenzamidines
Source: J. Chem. Thermodyn., 2004, 10.1016/j.jct.2004.03.015
Compound 1: sulfuric acid, H2O4S, InChI=1S/H2O4S/c1-5(2,3)4/h(H2,1,2,3,4)
Compound 2: carbon dioxide, CO2, InChI=1S/CO2/c2-1-3
Compound 3: nitrogen, N2, InChI=1S/N2/c1-2
Compound 4: water, H2O, InChI=1S/H2O/h1H2
Compound 5: oxygen, O2, InChI=1S/O2/c1-2
Compound 6: N-(diethylaminothiocarbonyl)benzamidine, C12H17N3S, InChI=1S/C12H17N3S/c1-3-15(4-2)12(16)14-11(13)10-8-6-5-7-9-10/h5-9H,3-4H2,1-2H3,(H2,13,14,16)
Compound 7: N-(diethylaminothiocarbonyl)-N',N'-diethylbenzamidine, C16H25N3S, InChI=1S/C16H25N3S/c1-5-18(6-2)15(14-12-10-9-11-13-14)17-16(20)19(7-3)8-4/h9-13H,5-8H2,1-4H3
Compound 8: N-(diethylaminothiocarbonyl)-N'-phenylbenzamidine, C18H21N3S, InChI=1S/C18H21N3S/c1-3-21(4-2)18(22)20-17(15-11-7-5-8-12-15)19-16-13-9-6-10-14-16/h5-14H,3-4H2,1-2H3,(H,19,20,22)

System: N-(diethylaminothiocarbonyl)benzamidine; phases: Gas
Property: Molar enthalpy, kJ/mol (Gas); method: Drop calorimetry
Temperature, K	Pressure, kPa	Molar enthalpy, kJ/mol	uncertainty
427.5	100	164	3.8

System: N-(diethylaminothiocarbonyl)-N',N'-diethylbenzamidine; phases: Gas
Property: Molar enthalpy, kJ/mol (Gas); method: Drop calorimetry
Temperature, K	Pressure, kPa	Molar enthalpy, kJ/mol	uncertainty
427.5	100	172.8	4

System: N-(diethylaminothiocarbonyl)-N'-phenylbenzamidine; phases: Gas
Property: Molar enthalpy, kJ/mol (Gas); method: Drop calorimetry
Temperature, K	Pressure, kPa	Molar enthalpy, kJ/mol	uncertainty
427.5	100	223.5	5.2

Reaction: 1 sulfuric acid + -1 N-(diethylaminothiocarbonyl)benzamidine + 12 carbon dioxide + 1.5 nitrogen + 7.5 water + -17.75 oxygen
Property: Specific internal energy of reaction at constant volume, J/g
-32895

Reaction: 1 sulfuric acid + -1 N-(diethylaminothiocarbonyl)-N',N'-diethylbenzamidine + 16 carbon dioxide + 1.5 nitrogen + 11.5 water + -23.75 oxygen
Property: Specific internal energy of reaction at constant volume, J/g
-35749.6

Reaction: 1 sulfuric acid + -1 N-(diethylaminothiocarbonyl)-N'-phenylbenzamidine + 18 carbon dioxide + 1.5 nitrogen + 9.5 water + -24.75 oxygen
Property: Specific internal energy of reaction at constant volume, J/g
-34637.1
