Measured thermophysical data. Apparent molar volumes and apparent molar heat capacities of aqueous magnesium nitrate, strontium nitrate, and manganese nitrate at temperatures from 278.15 K to 393.15 K and at the pressure 0.35 MPa
Source: J. Chem. Thermodyn., 2007, 10.1016/j.jct.2006.09.008
Compound 1: magnesium nitrate, MgN2O6, InChI=1S/Mg.2NO3/c;2*2-1(3)4/q+2;2*-1, purity 99.999%
Compound 2: strontium nitrate, N2O6Sr, InChI=1S/2NO3.Sr/c2*2-1(3)4;/q2*-1;+2, purity 99%
Compound 3: manganese nitrate, MnN2O6, InChI=1S/Mn.2NO3/c;2*2-1(3)4/q+2;2*-1, purity 99.99%
Compound 4: water, H2O, InChI=1S/H2O/h1H2

System: water + magnesium nitrate; phases: Liquid
Fixed: Pressure, kPa = 350
Property: Molar heat capacity at constant pressure, J/K/mol (Liquid); method: LDSC:UFactor:0.2
Temperature, K	Molality, mol/kg of magnesium nitrate	Molar heat capacity at constant pressure, J/K/mol	uncertainty
278.15	0.0228	75.5817	0.3017
278.15	0.0567	75.39687	0.3013
278.15	0.1086	75.14148	0.3015
278.15	0.2145	74.65441	0.2981
278.15	0.3197	74.23902	0.2964
278.15	0.4749	73.71563	0.2945
278.15	0.6211	73.31438	0.2938
278.15	0.811	72.90468	0.2924
278.15	1.0141	72.59323	0.291
283.15	0.0228	75.42992	0.3017
283.15	0.0567	75.26075	0.3013
283.15	0.1086	75.03735	0.2996
283.15	0.2145	74.61367	0.2981
283.15	0.3197	74.2484	0.2964
283.15	0.4749	73.78829	0.2945
283.15	0.6211	73.43112	0.2938
283.15	0.811	73.06779	0.2924
283.15	1.0141	72.79269	0.291
288.15	0.0228	75.32874	0.3017
288.15	0.0567	75.17364	0.3013
288.15	0.1086	74.97523	0.2996
288.15	0.2145	74.60071	0.2981
288.15	0.3197	74.27655	0.2964
288.15	0.4749	73.86286	0.2964
288.15	0.6211	73.54397	0.2938
288.15	0.811	73.21897	0.2924
288.15	1.0141	72.9718	0.291
293.15	0.0228	75.26188	0.3017
293.15	0.0567	75.1192	0.3013
293.15	0.1086	74.93869	0.2996
293.15	0.2145	74.60441	0.2981
293.15	0.3197	74.31032	0.2964
293.15	0.4749	73.93743	0.2964
293.15	0.6211	73.65099	0.2938
293.15	0.811	73.35224	0.2944
293.15	1.0141	73.12445	0.2931
298.15	0.0228	75.21671	0.3017
298.15	0.0567	75.08653	0.2994
298.15	0.1086	74.92225	0.2996
298.15	0.2145	74.61737	0.2981
298.15	0.3197	74.34971	0.2983
298.15	0.4749	74.00627	0.2964
298.15	0.6211	73.74438	0.2957
298.15	0.811	73.4696	0.2944
298.15	1.0141	73.26081	0.2931
303.15	0.0228	75.18961	0.2999
303.15	0.0567	75.0702	0.2994
303.15	0.1086	74.91677	0.2996
303.15	0.2145	74.63589	0.2981
303.15	0.3197	74.38724	0.2983
303.15	0.4749	74.07128	0.2964
303.15	0.6211	73.82805	0.2957
303.15	0.811	73.57503	0.2944
303.15	1.0141	73.3809	0.2931
308.15	0.0228	75.17877	0.2999
308.15	0.0567	75.06657	0.2994
308.15	0.1086	74.92407	0.2996
308.15	0.2145	74.65996	0.2981
308.15	0.3197	74.42851	0.2983
308.15	0.4749	74.13246	0.2964
308.15	0.6211	73.90588	0.2957
308.15	0.811	73.66653	0.2944
308.15	1.0141	73.4847	0.2931
313.15	0.0228	75.18057	0.2999
313.15	0.0567	75.07201	0.2994
313.15	0.1086	74.93686	0.2996
313.15	0.2145	74.68774	0.2981
313.15	0.3197	74.46979	0.2983
313.15	0.4749	74.18982	0.2964
313.15	0.6211	73.97592	0.2957
313.15	0.811	73.75008	0.2944
313.15	1.0141	73.57628	0.2951
318.15	0.0228	75.19503	0.2999
318.15	0.0567	75.09198	0.3013
318.15	0.1086	74.96244	0.2996
318.15	0.2145	74.72477	0.2981
318.15	0.3197	74.51669	0.2983
318.15	0.4749	74.2491	0.2964
318.15	0.6211	74.04402	0.2957
318.15	0.811	73.82765	0.2944
318.15	1.0141	73.6638	0.2951
323.15	0.0228	75.21671	0.3017
323.15	0.0567	75.11738	0.3013
323.15	0.1086	74.99167	0.2996
323.15	0.2145	74.76366	0.3
323.15	0.3197	74.56172	0.2983
323.15	0.4749	74.30455	0.2964
323.15	0.6211	74.10823	0.2957
323.15	0.811	73.89926	0.2964
323.15	1.0141	73.74114	0.2951
328.15	0.0228	75.24923	0.3017
328.15	0.0567	75.15368	0.3013
328.15	0.1086	75.03004	0.2996
328.15	0.2145	74.80624	0.3
328.15	0.3197	74.61238	0.2983
328.15	0.4749	74.36191	0.2983
328.15	0.6211	74.17049	0.2957
328.15	0.811	73.96689	0.2964
328.15	1.0141	73.81645	0.2951
333.15	0.0228	75.28899	0.3017
333.15	0.0567	75.19361	0.3013
333.15	0.1086	75.07206	0.2996
333.15	0.2145	74.85439	0.3
333.15	0.3197	74.66303	0.2983
333.15	0.4749	74.41927	0.2983
333.15	0.6211	74.23275	0.2977
333.15	0.811	74.03254	0.2964
333.15	1.0141	73.88565	0.2951
338.15	0.0228	75.33596	0.3017
338.15	0.0567	75.24261	0.3013
338.15	0.1086	75.12139	0.2996
338.15	0.2145	74.90624	0.3
338.15	0.3197	74.71932	0.2983
338.15	0.4749	74.47855	0.2983
338.15	0.6211	74.29502	0.2977
338.15	0.811	74.10017	0.2964
338.15	1.0141	73.95282	0.2951
343.15	0.0228	75.39378	0.3017
343.15	0.0567	75.30068	0.3013
343.15	0.1086	75.17802	0.3015
343.15	0.2145	74.96364	0.3
343.15	0.3197	74.7756	0.2983
343.15	0.4749	74.53782	0.2983
343.15	0.6211	74.35533	0.2977
343.15	0.811	74.15984	0.2964
343.15	1.0141	74.01591	0.2951
348.15	0.0228	75.45703	0.3017
348.15	0.0567	75.36238	0.3013
348.15	0.1086	75.24014	0.3015
348.15	0.2145	75.02474	0.3
348.15	0.3197	74.83751	0.3002
348.15	0.4749	74.59901	0.2983
348.15	0.6211	74.4176	0.2977
348.15	0.811	74.2235	0.2964
348.15	1.0141	74.07697	0.2972
353.15	0.0228	75.52749	0.3017
353.15	0.0567	75.43135	0.3013
353.15	0.1086	75.30774	0.3015
353.15	0.2145	75.08955	0.3
353.15	0.3197	74.9013	0.3002
353.15	0.4749	74.66019	0.2983
353.15	0.6211	74.47986	0.2977
353.15	0.811	74.28317	0.2964
353.15	1.0141	74.13803	0.2972
358.15	0.0228	75.60519	0.3017
358.15	0.0567	75.50939	0.3013
358.15	0.1086	75.38264	0.3015
358.15	0.2145	75.16177	0.3
358.15	0.3197	74.97259	0.3002
358.15	0.4749	74.73094	0.2983
358.15	0.6211	74.54601	0.2977
358.15	0.811	74.3508	0.2984
358.15	1.0141	74.20316	0.2972
363.15	0.0228	75.69011	0.3036
363.15	0.0567	75.59105	0.3031
363.15	0.1086	75.4612	0.3015
363.15	0.2145	75.23584	0.3018
363.15	0.3197	75.04389	0.3002
363.15	0.4749	74.79977	0.2983
363.15	0.6211	74.61411	0.2977
363.15	0.811	74.41644	0.2984
363.15	1.0141	74.26829	0.2972
368.15	0.0228	75.78226	0.3036
368.15	0.0567	75.67998	0.3031
368.15	0.1086	75.54707	0.3015
368.15	0.2145	75.31731	0.3018
368.15	0.3197	75.12269	0.3002
368.15	0.4749	74.87243	0.3002
368.15	0.6211	74.68221	0.2996
368.15	0.811	74.4801	0.2984
368.15	1.0141	74.33138	0.2972
373.15	0.0228	75.88345	0.3036
373.15	0.0567	75.77616	0.3031
373.15	0.1086	75.64025	0.3033
373.15	0.2145	75.40249	0.3018
373.15	0.3197	75.21087	0.3002
373.15	0.4749	74.95274	0.3002
373.15	0.6211	74.75615	0.2996
373.15	0.811	74.55171	0.2984
373.15	1.0141	74.40058	0.2972
378.15	0.0228	75.99367	0.3036
378.15	0.0567	75.88324	0.3031
378.15	0.1086	75.74256	0.3033
378.15	0.2145	75.49692	0.3018
378.15	0.3197	75.32156	0.3021
378.15	0.4749	75.05025	0.3002
378.15	0.6211	74.83398	0.2996
378.15	0.811	74.6273	0.2984
378.15	1.0141	74.47385	0.2972
383.15	0.0228	76.11112	0.3036
383.15	0.0567	75.99757	0.3049
383.15	0.1086	75.85035	0.3033
383.15	0.2145	75.59691	0.3018
383.15	0.3197	75.41536	0.3021
383.15	0.4749	75.14012	0.3002
383.15	0.6211	74.92154	0.2996
383.15	0.811	74.70686	0.2984
383.15	1.0141	74.54916	0.2992
388.15	0.0228	76.2394	0.3054
388.15	0.0567	76.11917	0.3049
388.15	0.1086	75.96727	0.3033
388.15	0.2145	75.70431	0.3037
388.15	0.3197	75.51855	0.3021
388.15	0.4749	75.23572	0.3002
388.15	0.6211	75.03244	0.2996
388.15	0.811	74.7924	0.2984
388.15	1.0141	74.63464	0.2992
393.15	0.0228	76.37853	0.3054
393.15	0.0567	76.25165	0.3049
393.15	0.1086	76.09333	0.3051
393.15	0.2145	75.82282	0.3037
393.15	0.3197	75.633	0.3021
393.15	0.4749	75.34471	0.3021
393.15	0.6211	75.15308	0.3016
393.15	0.811	74.88589	0.3004
393.15	1.0141	74.72623	0.2992

System: water + magnesium nitrate; phases: Liquid
Fixed: Pressure, kPa = 350
Property: Mass density, kg/m3 (Liquid); method: VIBTUB:UFactor:2
Temperature, K	Molality, mol/kg of magnesium nitrate	Mass density, kg/m3	uncertainty
278.15	0.0228	1002.6	0.14
278.15	0.0567	1006.37	0.14
278.15	0.1086	1012.2	0.14
278.15	0.2145	1023.83	0.15
278.15	0.3197	1035.31	0.16
278.15	0.4749	1051.77	0.17
278.15	0.6211	1066.82	0.18
278.15	0.811	1086.01	0.2
278.15	1.0003	1104.79	0.21
278.15	1.0141	1106.04	0.21
283.15	0.0228	1002.29	0.14
283.15	0.0567	1005.98	0.14
283.15	0.1086	1011.77	0.14
283.15	0.2145	1023.21	0.15
283.15	0.3197	1034.48	0.16
283.15	0.4749	1050.8	0.17
283.15	0.6211	1065.63	0.18
283.15	0.811	1084.59	0.2
283.15	1.0003	1103.2	0.21
283.15	1.0141	1104.4	0.21
288.15	0.0228	1001.64	0.14
288.15	0.0567	1005.28	0.14
288.15	0.1086	1011.01	0.14
288.15	0.2145	1022.29	0.15
288.15	0.3197	1033.42	0.16
288.15	0.4749	1049.55	0.17
288.15	0.6211	1064.22	0.18
288.15	0.811	1082.99	0.19
288.15	1.0003	1101.41	0.21
288.15	1.0141	1102.61	0.2
298.15	0.0228	999.48	0.14
298.15	0.0567	1003.07	0.14
298.15	0.1086	1008.68	0.14
298.15	0.2145	1019.73	0.15
298.15	0.3197	1030.65	0.15
298.15	0.4749	1046.49	0.16
298.15	0.6211	1060.93	0.17
298.15	0.811	1079.39	0.19
298.15	1.0003	1097.46	0.21
298.15	1.0141	1098.71	0.2
308.15	0.0228	996.42	0.14
308.15	0.0567	999.96	0.13
308.15	0.1086	1005.49	0.14
308.15	0.2145	1016.39	0.14
308.15	0.3197	1027.14	0.15
308.15	0.4749	1042.74	0.16
308.15	0.6211	1056.98	0.17
308.15	0.811	1075.19	0.19
308.15	1.0003	1093.03	0.2
308.15	1.0141	1094.27	0.2
318.15	0.0228	992.59	0.14
318.15	0.0567	996.09	0.14
318.15	0.1086	1001.54	0.13
318.15	0.2145	1012.32	0.14
318.15	0.3197	1022.97	0.15
318.15	0.4749	1038.38	0.16
318.15	0.6211	1052.47	0.17
318.15	0.811	1070.47	0.18
318.15	1.0003	1088.14	0.2
318.15	1.0141	1089.36	0.19
328.15	0.0228	988.06	0.14
328.15	0.0567	991.53	0.14
328.15	0.1086	996.93	0.13
328.15	0.2145	1007.61	0.14
328.15	0.3197	1018.17	0.14
328.15	0.4749	1033.44	0.15
328.15	0.6211	1047.38	0.16
328.15	0.811	1065.25	0.18
328.15	1.0003	1082.78	0.19
328.15	1.0141	1083.97	0.19
338.15	0.0228	982.92	0.15
338.15	0.0567	986.36	0.14
338.15	0.1086	991.75	0.14
338.15	0.2145	1002.35	0.13
338.15	0.3197	1012.86	0.14
338.15	0.4749	1027.99	0.15
338.15	0.6211	1041.88	0.16
338.15	0.811	1059.64	0.17
338.15	1.0003	1077.04	0.19
338.15	1.0141	1078.2	0.18
348.15	0.0228	977.2	0.15
348.15	0.0567	980.38	0.14
348.15	0.1086	985.71	0.14
348.15	0.2145	996.29	0.14
348.15	0.3197	1007.11	0.14
348.15	0.4749	1022.17	0.14
348.15	0.6211	1035.94	0.15
348.15	0.811	1053.67	0.17
348.15	1.0003	1071	0.17
348.15	1.0141	1071.85	0.17
358.15	0.0228	970.99	0.16
358.15	0.0567	974.49	0.15
358.15	0.1086	979.87	0.15
358.15	0.2145	990.4	0.14
358.15	0.3197	1000.85	0.13
358.15	0.4749	1015.92	0.14
358.15	0.6211	1029.76	0.15
358.15	0.811	1047.38	0.16
358.15	1.0003	1064.73	0.18
358.15	1.0141	1065.89	0.17
368.15	0.0228	964.33	0.16
368.15	0.0567	967.8	0.16
368.15	0.1086	973.17	0.15
368.15	0.2145	983.77	0.14
368.15	0.3197	994.23	0.14
368.15	0.4749	1009.33	0.14
368.15	0.6211	1023.17	0.15
368.15	0.811	1040.85	0.16
368.15	1.0003	1058.19	0.17
368.15	1.0141	1059.34	0.17

System: water + strontium nitrate; phases: Liquid
Fixed: Pressure, kPa = 350
Property: Molar heat capacity at constant pressure, J/K/mol (Liquid); method: LDSC:UFactor:0.2
Temperature, K	Molality, mol/kg of strontium nitrate	Molar heat capacity at constant pressure, J/K/mol	uncertainty
278.15	0.0499	75.39777	0.3019
278.15	0.1006	75.14812	0.3012
278.15	0.2005	74.7474	0.2994
278.15	0.4995	74.09965	0.2961
278.15	0.7992	73.96317	0.2948
278.15	0.9995	74.05768	0.2959
278.15	1.502	74.65628	0.2982
278.15	2.0034	75.64602	0.3021
278.15	3.0014	77.88046	0.3102
283.15	0.0499	75.26681	0.3019
283.15	0.1006	75.04711	0.2994
283.15	0.2005	74.69688	0.2994
283.15	0.4995	74.13914	0.2961
283.15	0.7992	74.03584	0.2969
283.15	0.9995	74.14129	0.2959
283.15	1.502	74.75568	0.2982
283.15	2.0034	75.75744	0.3021
283.15	3.0014	77.98386	0.313
288.15	0.0499	75.18314	0.3001
288.15	0.1006	74.9865	0.2994
288.15	0.2005	74.67629	0.2994
288.15	0.4995	74.18652	0.2961
288.15	0.7992	74.11059	0.2969
288.15	0.9995	74.22491	0.2959
288.15	1.502	74.84352	0.3005
288.15	2.0034	75.8441	0.3045
288.15	3.0014	78.05932	0.313
293.15	0.0499	75.12857	0.3001
293.15	0.1006	74.95161	0.2994
293.15	0.2005	74.67255	0.2994
293.15	0.4995	74.23785	0.2961
293.15	0.7992	74.18119	0.2969
293.15	0.9995	74.29995	0.298
293.15	1.502	74.92442	0.3005
293.15	2.0034	75.92333	0.3045
293.15	3.0014	78.1208	0.313
298.15	0.0499	75.09765	0.3001
298.15	0.1006	74.93508	0.2994
298.15	0.2005	74.68191	0.2994
298.15	0.4995	74.28918	0.2981
298.15	0.7992	74.24555	0.2969
298.15	0.9995	74.36856	0.298
298.15	1.502	74.99146	0.3005
298.15	2.0034	75.98771	0.3045
298.15	3.0014	78.16831	0.313
303.15	0.0499	75.0831	0.3001
303.15	0.1006	74.92957	0.2994
303.15	0.2005	74.69688	0.2994
303.15	0.4995	74.33853	0.2981
303.15	0.7992	74.30784	0.2969
303.15	0.9995	74.43288	0.298
303.15	1.502	75.05156	0.3005
303.15	2.0034	76.04218	0.3045
303.15	3.0014	78.21023	0.313
308.15	0.0499	75.07946	0.3001
308.15	0.1006	74.93691	0.2994
308.15	0.2005	74.7212	0.2994
308.15	0.4995	74.38986	0.2981
308.15	0.7992	74.36806	0.2969
308.15	0.9995	74.49291	0.298
308.15	1.502	75.10473	0.3005
308.15	2.0034	76.0917	0.3045
308.15	3.0014	78.24097	0.313
313.15	0.0499	75.08674	0.3001
313.15	0.1006	74.95344	0.2994
313.15	0.2005	74.74927	0.2994
313.15	0.4995	74.43922	0.2981
313.15	0.7992	74.42412	0.2969
313.15	0.9995	74.54865	0.298
313.15	1.502	75.15328	0.3005
313.15	2.0034	76.13131	0.3045
313.15	3.0014	78.26613	0.313
318.15	0.0499	75.10856	0.3001
318.15	0.1006	74.97915	0.2994
318.15	0.2005	74.7867	0.2994
318.15	0.4995	74.49252	0.2981
318.15	0.7992	74.48226	0.2969
318.15	0.9995	74.60439	0.298
318.15	1.502	75.20182	0.3005
318.15	2.0034	76.16845	0.3045
318.15	3.0014	78.28848	0.313
323.15	0.0499	75.13585	0.3001
323.15	0.1006	75.01221	0.2994
323.15	0.2005	74.82786	0.2994
323.15	0.4995	74.54582	0.2981
323.15	0.7992	74.53624	0.299
323.15	0.9995	74.65799	0.298
323.15	1.502	75.24574	0.3005
323.15	2.0034	76.20312	0.3045
323.15	3.0014	78.30525	0.313
328.15	0.0499	75.17223	0.3001
328.15	0.1006	75.05078	0.2994
328.15	0.2005	74.87277	0.2994
328.15	0.4995	74.60308	0.2981
328.15	0.7992	74.5923	0.299
328.15	0.9995	74.70945	0.298
328.15	1.502	75.28504	0.3005
328.15	2.0034	76.2353	0.3045
328.15	3.0014	78.31923	0.313
333.15	0.0499	75.21406	0.3001
333.15	0.1006	75.09669	0.3012
333.15	0.2005	74.92329	0.2994
333.15	0.4995	74.66033	0.2981
333.15	0.7992	74.64836	0.299
333.15	0.9995	74.76305	0.298
333.15	1.502	75.32896	0.3005
333.15	2.0034	76.26749	0.3045
333.15	3.0014	78.33879	0.313
338.15	0.0499	75.26499	0.3019
338.15	0.1006	75.14995	0.3012
338.15	0.2005	74.9813	0.2994
338.15	0.4995	74.72153	0.2981
338.15	0.7992	74.70858	0.299
338.15	0.9995	74.81879	0.3002
338.15	1.502	75.37288	0.3005
338.15	2.0034	76.30216	0.3045
338.15	3.0014	78.36394	0.313
343.15	0.0499	75.3232	0.3019
343.15	0.1006	75.20872	0.3012
343.15	0.2005	75.04118	0.2994
343.15	0.4995	74.78273	0.3001
343.15	0.7992	74.76671	0.299
343.15	0.9995	74.87454	0.3002
343.15	1.502	75.41449	0.3005
343.15	2.0034	76.33187	0.3045
343.15	3.0014	78.38071	0.313
348.15	0.0499	75.38686	0.3019
348.15	0.1006	75.27484	0.3012
348.15	0.2005	75.10667	0.3013
348.15	0.4995	74.8459	0.3001
348.15	0.7992	74.82693	0.299
348.15	0.9995	74.92814	0.3002
348.15	1.502	75.4561	0.3028
348.15	2.0034	76.36406	0.3045
348.15	3.0014	78.40586	0.313
353.15	0.0499	75.4578	0.3019
353.15	0.1006	75.34463	0.3012
353.15	0.2005	75.17591	0.3013
353.15	0.4995	74.91303	0.3001
353.15	0.7992	74.88714	0.299
353.15	0.9995	74.98388	0.3002
353.15	1.502	75.50002	0.3028
353.15	2.0034	76.39872	0.3045
353.15	3.0014	78.43381	0.313
358.15	0.0499	75.53783	0.3019
358.15	0.1006	75.4236	0.3012
358.15	0.2005	75.25263	0.3013
358.15	0.4995	74.98212	0.3001
358.15	0.7992	74.95151	0.299
358.15	0.9995	75.04391	0.3002
358.15	1.502	75.54625	0.3028
358.15	2.0034	76.43586	0.3045
358.15	3.0014	78.47014	0.313
363.15	0.0499	75.6215	0.3019
363.15	0.1006	75.50441	0.3012
363.15	0.2005	75.33309	0.3013
363.15	0.4995	75.05912	0.3001
363.15	0.7992	75.02003	0.3011
363.15	0.9995	75.10823	0.3002
363.15	1.502	75.59942	0.3028
363.15	2.0034	76.4829	0.307
363.15	3.0014	78.52045	0.313
368.15	0.0499	75.71244	0.3038
368.15	0.1006	75.5944	0.303
368.15	0.2005	75.41916	0.3013
368.15	0.4995	75.13611	0.3001
368.15	0.7992	75.09062	0.3011
368.15	0.9995	75.17255	0.3002
368.15	1.502	75.65259	0.3028
368.15	2.0034	76.52995	0.307
368.15	3.0014	78.57075	0.313
373.15	0.0499	75.81067	0.3038
373.15	0.1006	75.6899	0.303
373.15	0.2005	75.51085	0.3013
373.15	0.4995	75.21903	0.3001
373.15	0.7992	75.16537	0.3011
373.15	0.9995	75.2433	0.3002
373.15	1.502	75.71269	0.3028
373.15	2.0034	76.58689	0.307
373.15	3.0014	78.64341	0.3158
378.15	0.0499	75.9198	0.3038
378.15	0.1006	75.79642	0.303
378.15	0.2005	75.6119	0.3031
378.15	0.4995	75.30589	0.3021
378.15	0.7992	75.24635	0.3011
378.15	0.9995	75.31834	0.3023
378.15	1.502	75.77973	0.3028
378.15	2.0034	76.64879	0.307
378.15	3.0014	78.72446	0.3158
383.15	0.0499	76.03621	0.3038
383.15	0.1006	75.90661	0.303
383.15	0.2005	75.71669	0.3031
383.15	0.4995	75.39868	0.3021
383.15	0.7992	75.3294	0.3011
383.15	0.9995	75.39767	0.3023
383.15	1.502	75.85139	0.3028
383.15	2.0034	76.7206	0.307
383.15	3.0014	78.82228	0.3158
388.15	0.0499	76.16172	0.3038
388.15	0.1006	76.02783	0.3049
388.15	0.2005	75.83083	0.3031
388.15	0.4995	75.49936	0.3021
388.15	0.7992	75.42076	0.3011
388.15	0.9995	75.48557	0.3023
388.15	1.502	75.9346	0.3028
388.15	2.0034	76.8023	0.307
388.15	3.0014	78.93965	0.3158
393.15	0.0499	76.29632	0.3056
393.15	0.1006	76.15822	0.3049
393.15	0.2005	75.95433	0.3031
393.15	0.4995	75.60794	0.3021
393.15	0.7992	75.52042	0.3011
393.15	0.9995	75.57991	0.3023
393.15	1.502	76.02245	0.3051
393.15	2.0034	76.89391	0.307
393.15	3.0014	79.07101	0.3158

System: water + strontium nitrate; phases: Liquid
Fixed: Pressure, kPa = 350
Property: Mass density, kg/m3 (Liquid); method: VIBTUB:UFactor:2
Temperature, K	Molality, mol/kg of strontium nitrate	Mass density, kg/m3	uncertainty
278.15	0.0499	1009	0.18
278.15	0.1006	1017.14	0.2
278.15	0.2005	1034.72	0.2
278.15	0.4995	1082.77	0.23
278.15	0.7992	1130.52	0.27
278.15	0.9995	1158.71	0.29
278.15	1.502	1231.7	0.37
278.15	2.0034	1297.55	0.44
278.15	3.0014	1414.38	0.6
283.15	0.0499	1008.59	0.19
283.15	0.1006	1017.1	0.2
283.15	0.2005	1033.98	0.2
283.15	0.4995	1082.1	0.23
283.15	0.7992	1128.88	0.27
283.15	0.9995	1157.52	0.29
283.15	1.502	1229.46	0.37
283.15	2.0034	1295.12	0.44
283.15	3.0014	1411.42	0.6
288.15	0.0499	1007.84	0.19
288.15	0.1006	1016.26	0.19
288.15	0.2005	1032.93	0.2
288.15	0.4995	1080.71	0.23
288.15	0.7992	1126.92	0.27
288.15	0.9995	1155.34	0.29
288.15	1.502	1226.86	0.37
288.15	2.0034	1292.1	0.44
288.15	3.0014	1407.51	0.59
298.15	0.0499	1005.56	0.19
298.15	0.1006	1013.81	0.19
298.15	0.2005	1030.24	0.19
298.15	0.4995	1077.19	0.23
298.15	0.7992	1122.76	0.26
298.15	0.9995	1150.87	0.29
298.15	1.502	1221.49	0.36
298.15	2.0034	1286.04	0.43
298.15	3.0014	1400.33	0.58
308.15	0.0499	1002.4	0.19
308.15	0.1006	1010.56	0.19
308.15	0.2005	1026.7	0.19
308.15	0.4995	1073.1	0.22
308.15	0.7992	1117.95	0.26
308.15	0.9995	1146.06	0.28
308.15	1.502	1215.55	0.35
308.15	2.0034	1279.41	0.43
308.15	3.0014	1393.17	0.58
318.15	0.0499	998.47	0.18
318.15	0.1006	1006.61	0.18
318.15	0.2005	1022.45	0.19
318.15	0.4995	1068.41	0.22
318.15	0.7992	1112.6	0.25
318.15	0.9995	1140.61	0.27
318.15	1.502	1209.17	0.35
318.15	2.0034	1272.01	0.42
318.15	3.0014	1385.59	0.57
328.15	0.0499	993.97	0.19
328.15	0.1006	1001.97	0.18
328.15	0.2005	1017.66	0.18
328.15	0.4995	1063.12	0.21
328.15	0.7992	1106.82	0.25
328.15	0.9995	1134.72	0.27
328.15	1.502	1201.99	0.34
328.15	2.0034	1264.61	0.41
328.15	3.0014	1377.87	0.56
338.15	0.0499	988.74	0.19
338.15	0.1006	996.66	0.18
338.15	0.2005	1012.18	0.18
338.15	0.4995	1057.26	0.21
338.15	0.7992	1100.32	0.24
338.15	0.9995	1128.27	0.26
338.15	1.502	1194.55	0.33
338.15	2.0034	1256.5	0.4
338.15	3.0014	1369.7	0.55
348.15	0.0499	983.02	0.19
348.15	0.1006	990.85	0.18
348.15	0.2005	1006.4	0.18
348.15	0.4995	1051.04	0.2
348.15	0.7992	1094.06	0.24
348.15	0.9995	1121.59	0.26
348.15	1.502	1188.05	0.33
348.15	2.0034	1249.78	0.39
348.15	3.0014	1361.53	0.54
358.15	0.0499	976.66	0.19
358.15	0.1006	984.57	0.19
358.15	0.2005	999.95	0.17
358.15	0.4995	1044.34	0.2
358.15	0.7992	1087.19	0.23
358.15	0.9995	1114.51	0.25
358.15	1.502	1180.88	0.32
358.15	2.0034	1242.32	0.39
358.15	3.0014	1353.05	0.53
368.15	0.0499	969.9	0.2
368.15	0.1006	977.81	0.19
368.15	0.2005	993.09	0.18
368.15	0.4995	1037.31	0.19
368.15	0.7992	1079.94	0.22
368.15	0.9995	1107.09	0.25
368.15	1.502	1173.15	0.31
368.15	2.0034	1234.38	0.38
368.15	3.0014	1344.4	0.52

System: water + manganese nitrate; phases: Liquid
Fixed: Pressure, kPa = 350
Property: Molar heat capacity at constant pressure, J/K/mol (Liquid); method: LDSC:UFactor:0.2
Temperature, K	Molality, mol/kg of manganese nitrate	Molar heat capacity at constant pressure, J/K/mol	uncertainty
278.15	0.0132	75.6317	0.3033
278.15	0.0248	75.56449	0.3021
278.15	0.0503	75.41892	0.3015
278.15	0.0825	75.25258	0.3012
278.15	0.0836	75.24561	0.3012
278.15	0.1542	74.9004	0.2991
278.15	0.3085	74.26733	0.2968
278.15	0.5132	73.62175	0.2943
283.15	0.0132	75.46741	0.3015
283.15	0.0248	75.40894	0.3021
283.15	0.0503	75.28271	0.3015
283.15	0.0825	75.13758	0.3012
283.15	0.0836	75.13058	0.3012
283.15	0.1542	74.8284	0.2991
283.15	0.3085	74.273	0.2968
283.15	0.5132	73.7075	0.2943
288.15	0.0132	75.35729	0.3015
288.15	0.0248	75.30585	0.3021
288.15	0.0503	75.19372	0.3015
288.15	0.0825	75.06639	0.2994
288.15	0.0836	75.05938	0.2994
288.15	0.1542	74.79148	0.2991
288.15	0.3085	74.30136	0.2968
288.15	0.5132	73.79521	0.2943
293.15	0.0132	75.28507	0.3015
293.15	0.0248	75.23711	0.3002
293.15	0.0503	75.13561	0.2997
293.15	0.0825	75.02258	0.2994
293.15	0.0836	75.01739	0.2994
293.15	0.1542	74.77671	0.2991
293.15	0.3085	74.33538	0.2968
293.15	0.5132	73.88096	0.2962
298.15	0.0132	75.23813	0.3015
298.15	0.0248	75.19551	0.3002
298.15	0.0503	75.10292	0.2997
298.15	0.0825	75.00067	0.2994
298.15	0.0836	74.99548	0.2994
298.15	0.1542	74.77671	0.2991
298.15	0.3085	74.37697	0.2968
298.15	0.5132	73.96282	0.2962
303.15	0.0132	75.21105	0.3015
303.15	0.0248	75.17019	0.3002
303.15	0.0503	75.08476	0.2997
303.15	0.0825	74.99155	0.2994
303.15	0.0836	74.98635	0.2994
303.15	0.1542	74.78409	0.2991
303.15	0.3085	74.41856	0.2968
303.15	0.5132	74.04077	0.2962
308.15	0.0132	75.19841	0.3015
308.15	0.0248	75.16115	0.3002
308.15	0.0503	75.08294	0.2997
308.15	0.0825	74.99337	0.2994
308.15	0.0836	74.99	0.2994
308.15	0.1542	74.80255	0.2991
308.15	0.3085	74.46394	0.2987
308.15	0.5132	74.11483	0.2962
313.15	0.0132	75.20022	0.3015
313.15	0.0248	75.16477	0.3002
313.15	0.0503	75.08839	0.2997
313.15	0.0825	75.00615	0.2994
313.15	0.0836	75.00278	0.2994
313.15	0.1542	74.82655	0.2991
313.15	0.3085	74.50931	0.2987
313.15	0.5132	74.18305	0.2962
318.15	0.0132	75.21466	0.3015
318.15	0.0248	75.18104	0.3002
318.15	0.0503	75.10837	0.2997
318.15	0.0825	75.02805	0.2994
318.15	0.0836	75.02652	0.2994
318.15	0.1542	74.85794	0.2991
318.15	0.3085	74.55846	0.2987
318.15	0.5132	74.25126	0.2962
323.15	0.0132	75.23813	0.3015
323.15	0.0248	75.20456	0.3002
323.15	0.0503	75.13561	0.2997
323.15	0.0825	75.05909	0.2994
323.15	0.0836	75.05573	0.2994
323.15	0.1542	74.89486	0.2991
323.15	0.3085	74.6095	0.2987
323.15	0.5132	74.31753	0.2982
328.15	0.0132	75.27063	0.3015
328.15	0.0248	75.23892	0.3002
328.15	0.0503	75.17011	0.3015
328.15	0.0825	75.09742	0.3012
328.15	0.0836	75.09407	0.3012
328.15	0.1542	74.93916	0.2991
328.15	0.3085	74.66433	0.2987
328.15	0.5132	74.38574	0.2982
333.15	0.0132	75.31215	0.3015
333.15	0.0248	75.27872	0.3002
333.15	0.0503	75.2137	0.3015
333.15	0.0825	75.14123	0.3012
333.15	0.0836	75.13789	0.3012
333.15	0.1542	74.98716	0.2991
333.15	0.3085	74.72104	0.2987
333.15	0.5132	74.452	0.2982
338.15	0.0132	75.3609	0.3015
338.15	0.0248	75.32936	0.3021
338.15	0.0503	75.26273	0.3015
338.15	0.0825	75.19234	0.3012
338.15	0.0836	75.18901	0.3012
338.15	0.1542	75.0407	0.3009
338.15	0.3085	74.77965	0.2987
338.15	0.5132	74.52022	0.2982
343.15	0.0132	75.41867	0.3015
343.15	0.0248	75.38543	0.3021
343.15	0.0503	75.32085	0.3015
343.15	0.0825	75.25075	0.3012
343.15	0.0836	75.24743	0.3012
343.15	0.1542	75.09978	0.3009
343.15	0.3085	74.84392	0.2987
343.15	0.5132	74.59038	0.2982
348.15	0.0132	75.48185	0.3015
348.15	0.0248	75.45054	0.3021
348.15	0.0503	75.38441	0.3015
348.15	0.0825	75.31282	0.3012
348.15	0.0836	75.31133	0.3012
348.15	0.1542	75.16439	0.3009
348.15	0.3085	74.91009	0.3006
348.15	0.5132	74.66054	0.2982
353.15	0.0132	75.55407	0.3015
353.15	0.0248	75.52108	0.3021
353.15	0.0503	75.45524	0.3015
353.15	0.0825	75.38401	0.3012
353.15	0.0836	75.38071	0.3012
353.15	0.1542	75.23454	0.3009
353.15	0.3085	74.98193	0.3006
353.15	0.5132	74.7346	0.2982
358.15	0.0132	75.6317	0.3033
358.15	0.0248	75.59886	0.3021
358.15	0.0503	75.53152	0.3015
358.15	0.0825	75.45885	0.3012
358.15	0.0836	75.45739	0.3012
358.15	0.1542	75.30839	0.3009
358.15	0.3085	75.05755	0.3006
358.15	0.5132	74.81061	0.3001
363.15	0.0132	75.71836	0.3033
363.15	0.0248	75.68387	0.3021
363.15	0.0503	75.61506	0.3033
363.15	0.0825	75.541	0.303
363.15	0.0836	75.53955	0.3031
363.15	0.1542	75.38962	0.3009
363.15	0.3085	75.13505	0.3006
363.15	0.5132	74.88857	0.3001
368.15	0.0132	75.81223	0.3033
368.15	0.0248	75.77611	0.3039
368.15	0.0503	75.70768	0.3033
368.15	0.0825	75.63044	0.303
368.15	0.0836	75.62901	0.3031
368.15	0.1542	75.47638	0.3028
368.15	0.3085	75.22013	0.3006
368.15	0.5132	74.97043	0.3001
373.15	0.0132	75.91153	0.3033
373.15	0.0248	75.87559	0.3039
373.15	0.0503	75.80575	0.3033
373.15	0.0825	75.72719	0.303
373.15	0.0836	75.72577	0.3031
373.15	0.1542	75.56869	0.3028
373.15	0.3085	75.31087	0.3006
373.15	0.5132	75.05813	0.3001
378.15	0.0132	76.02346	0.3033
378.15	0.0248	75.98592	0.3039
378.15	0.0503	75.9129	0.3033
378.15	0.0825	75.83306	0.303
378.15	0.0836	75.83166	0.3031
378.15	0.1542	75.67022	0.3028
378.15	0.3085	75.40539	0.3025
378.15	0.5132	75.15168	0.3001
383.15	0.0132	76.14261	0.3051
383.15	0.0248	76.10349	0.3039
383.15	0.0503	76.02731	0.3033
383.15	0.0825	75.94441	0.303
383.15	0.0836	75.94303	0.3031
383.15	0.1542	75.7773	0.3028
383.15	0.3085	75.50748	0.3025
383.15	0.5132	75.25108	0.3001
388.15	0.0132	76.2726	0.3051
388.15	0.0248	76.2301	0.3057
388.15	0.0503	76.15262	0.3051
388.15	0.0825	76.06671	0.3048
388.15	0.0836	76.06536	0.3049
388.15	0.1542	75.8936	0.3028
388.15	0.3085	75.61713	0.3025
388.15	0.5132	75.35632	0.3021
393.15	0.0132	76.41161	0.3051
393.15	0.0248	76.36937	0.3057
393.15	0.0503	76.28883	0.3051
393.15	0.0825	76.19814	0.3048
393.15	0.0836	76.19864	0.3049
393.15	0.1542	76.02283	0.3046
393.15	0.3085	75.73812	0.3025
393.15	0.5132	75.47326	0.3021

System: water + manganese nitrate; phases: Liquid
Fixed: Pressure, kPa = 350
Property: Mass density, kg/m3 (Liquid); method: VIBTUB:UFactor:2
Temperature, K	Molality, mol/kg of manganese nitrate	Mass density, kg/m3	uncertainty
278.15	0.0248	1003.65	0.16
278.15	0.0503	1007.23	0.17
278.15	0.0836	1011.97	0.17
278.15	0.5132	1069.81	0.2
278.15	0.5132	1069.71	0.2
283.15	0.0248	1003.3	0.17
283.15	0.0503	1006.89	0.17
283.15	0.0836	1011.53	0.16
283.15	0.5132	1068.8	0.2
283.15	0.5132	1068.6	0.2
288.15	0.0248	1002.66	0.17
288.15	0.0503	1006.23	0.16
288.15	0.0836	1010.8	0.16
288.15	0.5132	1067.5	0.2
288.15	0.5132	1067.36	0.2
298.15	0.0248	1000.56	0.17
298.15	0.0503	1004.07	0.16
298.15	0.0836	1008.54	0.15
298.15	0.5132	1064.29	0.2
298.15	0.5132	1064.16	0.2
308.15	0.0248	997.52	0.17
308.15	0.0503	1000.98	0.16
308.15	0.0836	1005.36	0.15
308.15	0.5132	1060.4	0.19
308.15	0.5132	1060.29	0.19
318.15	0.0248	993.61	0.17
318.15	0.0503	997.07	0.16
318.15	0.0836	1001.42	0.15
318.15	0.5132	1055.86	0.19
318.15	0.5132	1055.72	0.19
328.15	0.0248	988.96	0.17
328.15	0.0503	992.44	0.16
328.15	0.0836	996.79	0.15
328.15	0.5132	1050.75	0.18
328.15	0.5132	1050.71	0.18
338.15	0.0248	983.93	0.17
338.15	0.0503	987.31	0.16
338.15	0.0836	991.63	0.15
338.15	0.5132	1045.39	0.18
338.15	0.5132	1045.24	0.18
348.15	0.0248	978.24	0.18
348.15	0.0503	981.59	0.17
348.15	0.0836	985.88	0.16
348.15	0.5132	1039.4	0.18
348.15	0.5132	1039.32	0.18
358.15	0.0248	972	0.18
358.15	0.0503	975.36	0.17
358.15	0.0836	979.63	0.16
358.15	0.5132	1033.07	0.17
358.15	0.5132	1032.97	0.17
368.15	0.0248	965.29	0.18
368.15	0.0503	968.63	0.18
368.15	0.0836	972.92	0.17
368.15	0.5132	1026.26	0.17
368.15	0.5132	1026.2	0.17
