Measured thermophysical data. Determination and correlation thermodynamic models for solid liquid equilibrium of the Nifedipine in pure and mixture organic solvents
Source: J. Chem. Thermodyn., 2016, 10.1016/j.jct.2016.07.035
Compound 1: dimethyl 4-(2-nitrophenyl)-2,6-dimethyl-1,4-dihydropyridine-3,5-dicarboxylate, C17H18N2O6, InChI=1S/C17H18N2O6/c1-9-13(16(20)24-3)15(14(10(2)18-9)17(21)25-4)11-7-5-6-8-12(11)19(22)23/h5-8,15,18H,1-4H3, purity 98%
Compound 2: methanol, CH4O, InChI=1S/CH4O/c1-2/h2H,1H3, purity 99.5%
Compound 3: ethanol, C2H6O, InChI=1S/C2H6O/c1-2-3/h3H,2H2,1H3, purity 99.7%
Compound 4: butan-1-ol, C4H10O, InChI=1S/C4H10O/c1-2-3-4-5/h5H,2-4H2,1H3, purity 99%
Compound 5: acetone, C3H6O, InChI=1S/C3H6O/c1-3(2)4/h1-2H3, purity 99.5%
Compound 6: acetonitrile, C2H3N, InChI=1S/C2H3N/c1-2-3/h1H3, purity 99.9%
Compound 7: ethyl acetate, C4H8O2, InChI=1S/C4H8O2/c1-3-6-4(2)5/h3H2,1-2H3, purity 99.7%
Compound 8: tetrahydrofuran, C4H8O, InChI=1S/C4H8O/c1-2-4-5-3-1/h1-4H2, purity 99%

System: dimethyl 4-(2-nitrophenyl)-2,6-dimethyl-1,4-dihydropyridine-3,5-dicarboxylate; phases: Crystal, Liquid, Air at 1 atmosphere
Property: Normal melting temperature, K (Crystal); method: VISOBS
Normal melting temperature, K	uncertainty
446.65	2.14

System: methanol + dimethyl 4-(2-nitrophenyl)-2,6-dimethyl-1,4-dihydropyridine-3,5-dicarboxylate; phases: Liquid, Crystal
Fixed: Pressure, kPa = 100
Property: Mole fraction of dimethyl 4-(2-nitrophenyl)-2,6-dimethyl-1,4-dihydropyridine-3,5-dicarboxylate (Liquid); method: Gravimetric method
Temperature, K	Mole fraction of dimethyl 4-(2-nitrophenyl)-2,6-dimethyl-1,4-dihydropyridine-3,5-dicarboxylate	uncertainty
278.15	0.000857	3.5e-05
283.15	0.001237	5e-05
288.15	0.00166	6.7e-05
293.15	0.002196	8.9e-05
298.15	0.002963	0.00012
303.15	0.004061	0.000165
308.15	0.005472	0.000221
313.15	0.00719	0.00029
318.15	0.009009	0.000363
323.15	0.01103	0.00044
328.15	0.01388	0.00056

System: ethanol + dimethyl 4-(2-nitrophenyl)-2,6-dimethyl-1,4-dihydropyridine-3,5-dicarboxylate; phases: Liquid, Crystal
Fixed: Pressure, kPa = 100
Property: Mole fraction of dimethyl 4-(2-nitrophenyl)-2,6-dimethyl-1,4-dihydropyridine-3,5-dicarboxylate (Liquid); method: Gravimetric method
Temperature, K	Mole fraction of dimethyl 4-(2-nitrophenyl)-2,6-dimethyl-1,4-dihydropyridine-3,5-dicarboxylate	uncertainty
278.15	0.002141	8.6e-05
283.15	0.002655	0.000107
288.15	0.002984	0.00012
293.15	0.0036	0.000145
298.15	0.004153	0.000167
303.15	0.004972	0.0002
308.15	0.005957	0.000239
313.15	0.007027	0.000282
318.15	0.008056	0.000323
323.15	0.009	0.000361
328.15	0.01017	0.00041

System: butan-1-ol + dimethyl 4-(2-nitrophenyl)-2,6-dimethyl-1,4-dihydropyridine-3,5-dicarboxylate; phases: Liquid, Crystal
Fixed: Pressure, kPa = 100
Property: Mole fraction of dimethyl 4-(2-nitrophenyl)-2,6-dimethyl-1,4-dihydropyridine-3,5-dicarboxylate (Liquid); method: Gravimetric method
Temperature, K	Mole fraction of dimethyl 4-(2-nitrophenyl)-2,6-dimethyl-1,4-dihydropyridine-3,5-dicarboxylate	uncertainty
278.15	0.002518	0.000101
283.15	0.00302	0.000121
288.15	0.003497	0.00014
293.15	0.00405	0.000163
298.15	0.00476	0.000191
303.15	0.00579	0.000233
308.15	0.006805	0.000274
313.15	0.008097	0.000325
318.15	0.009387	0.000377
323.15	0.01054	0.00042
328.15	0.01211	0.00049

System: acetone + dimethyl 4-(2-nitrophenyl)-2,6-dimethyl-1,4-dihydropyridine-3,5-dicarboxylate; phases: Liquid, Crystal
Fixed: Pressure, kPa = 100
Property: Mole fraction of dimethyl 4-(2-nitrophenyl)-2,6-dimethyl-1,4-dihydropyridine-3,5-dicarboxylate (Liquid); method: Gravimetric method
Temperature, K	Mole fraction of dimethyl 4-(2-nitrophenyl)-2,6-dimethyl-1,4-dihydropyridine-3,5-dicarboxylate	uncertainty
278.15	0.01609	0.00065
283.15	0.02052	0.00083
288.15	0.02395	0.00096
293.15	0.02804	0.00113
298.15	0.03437	0.00138
303.15	0.04033	0.00162
308.15	0.04947	0.00199
313.15	0.05769	0.00232
318.15	0.06716	0.0027
323.15	0.08128	0.00327
328.15	0.09444	0.00379

System: acetonitrile + dimethyl 4-(2-nitrophenyl)-2,6-dimethyl-1,4-dihydropyridine-3,5-dicarboxylate; phases: Liquid, Crystal
Fixed: Pressure, kPa = 100
Property: Mole fraction of dimethyl 4-(2-nitrophenyl)-2,6-dimethyl-1,4-dihydropyridine-3,5-dicarboxylate (Liquid); method: Gravimetric method
Temperature, K	Mole fraction of dimethyl 4-(2-nitrophenyl)-2,6-dimethyl-1,4-dihydropyridine-3,5-dicarboxylate	uncertainty
278.15	0.006099	0.000246
283.15	0.007411	0.000299
288.15	0.009574	0.000385
293.15	0.01118	0.00045
298.15	0.01311	0.00053
303.15	0.01586	0.00064
308.15	0.0188	0.00076
313.15	0.02213	0.00089
318.15	0.02654	0.00107
323.15	0.03138	0.00126
328.15	0.03704	0.00149

System: ethyl acetate + dimethyl 4-(2-nitrophenyl)-2,6-dimethyl-1,4-dihydropyridine-3,5-dicarboxylate; phases: Liquid, Crystal
Fixed: Pressure, kPa = 100
Property: Mole fraction of dimethyl 4-(2-nitrophenyl)-2,6-dimethyl-1,4-dihydropyridine-3,5-dicarboxylate (Liquid); method: Gravimetric method
Temperature, K	Mole fraction of dimethyl 4-(2-nitrophenyl)-2,6-dimethyl-1,4-dihydropyridine-3,5-dicarboxylate	uncertainty
278.15	0.01044	0.00042
283.15	0.01164	0.00047
288.15	0.01382	0.00055
293.15	0.01529	0.00061
298.15	0.01708	0.00069
303.15	0.01887	0.00076
308.15	0.02155	0.00086
313.15	0.02381	0.00095
318.15	0.0263	0.00106
323.15	0.03043	0.00122
328.15	0.0334	0.00134

System: tetrahydrofuran + dimethyl 4-(2-nitrophenyl)-2,6-dimethyl-1,4-dihydropyridine-3,5-dicarboxylate; phases: Liquid, Crystal
Fixed: Pressure, kPa = 100
Property: Mole fraction of dimethyl 4-(2-nitrophenyl)-2,6-dimethyl-1,4-dihydropyridine-3,5-dicarboxylate (Liquid); method: Gravimetric method
Temperature, K	Mole fraction of dimethyl 4-(2-nitrophenyl)-2,6-dimethyl-1,4-dihydropyridine-3,5-dicarboxylate	uncertainty
278.15	0.0283	0.00114
283.15	0.03224	0.00129
288.15	0.03511	0.00141
293.15	0.04097	0.00164
298.15	0.04631	0.00186
303.15	0.05215	0.00209
308.15	0.05968	0.0024
313.15	0.06789	0.00272
318.15	0.07471	0.003
323.15	0.0851	0.00342
328.15	0.09895	0.00397

System: acetonitrile + tetrahydrofuran + dimethyl 4-(2-nitrophenyl)-2,6-dimethyl-1,4-dihydropyridine-3,5-dicarboxylate; phases: Liquid, Crystal
Fixed: Pressure, kPa = 100
Property: Mole fraction of dimethyl 4-(2-nitrophenyl)-2,6-dimethyl-1,4-dihydropyridine-3,5-dicarboxylate (Liquid); method: Gravimetric method
Temperature, K	Solvent: Mole fraction of tetrahydrofuran	Mole fraction of dimethyl 4-(2-nitrophenyl)-2,6-dimethyl-1,4-dihydropyridine-3,5-dicarboxylate	uncertainty
278.15	0	0.006099	0.000246
278.15	0.1017	0.008984	0.000379
278.15	0.2157	0.01209	0.00054
278.15	0.3443	0.01564	0.00072
278.15	0.4905	0.01897	0.00088
278.15	0.6581	0.02253	0.00103
278.15	0.8524	0.02586	0.00119
278.15	1	0.0283	0.00114
283.15	0	0.007411	0.000299
283.15	0.1017	0.01064	0.00045
283.15	0.2157	0.01412	0.00063
283.15	0.3443	0.01809	0.00082
283.15	0.4905	0.02181	0.001
283.15	0.6581	0.02578	0.00118
283.15	0.8524	0.02951	0.00135
283.15	1	0.03224	0.00129
288.15	0	0.009574	0.000385
288.15	0.1017	0.01289	0.00053
288.15	0.2157	0.01647	0.00072
288.15	0.3443	0.02056	0.00091
288.15	0.4905	0.02439	0.0011
288.15	0.6581	0.02847	0.00128
288.15	0.8524	0.0323	0.00146
288.15	1	0.03511	0.00141
293.15	0	0.01118	0.00045
293.15	0.1017	0.01505	0.00062
293.15	0.2157	0.01922	0.00083
293.15	0.3443	0.02399	0.00107
293.15	0.4905	0.02846	0.00128
293.15	0.6581	0.03323	0.00149
293.15	0.8524	0.03769	0.0017
293.15	1	0.04097	0.00164
298.15	0	0.01311	0.00053
298.15	0.1017	0.01742	0.00072
298.15	0.2157	0.02207	0.00095
298.15	0.3443	0.02739	0.00121
298.15	0.4905	0.03237	0.00145
298.15	0.6581	0.03768	0.00169
298.15	0.8524	0.04266	0.00192
298.15	1	0.04631	0.00186
303.15	0	0.01586	0.00064
303.15	0.1017	0.02058	0.00085
303.15	0.2157	0.02566	0.0011
303.15	0.3443	0.03147	0.00138
303.15	0.4905	0.03691	0.00164
303.15	0.6581	0.04272	0.0019
303.15	0.8524	0.04816	0.00215
303.15	1	0.05215	0.00209
308.15	0	0.0188	0.00076
308.15	0.1017	0.02411	0.00099
308.15	0.2157	0.02983	0.00128
308.15	0.3443	0.03638	0.00159
308.15	0.4905	0.04251	0.00188
308.15	0.6581	0.04905	0.00217
308.15	0.8524	0.05518	0.00246
308.15	1	0.05968	0.0024
313.15	0	0.02213	0.00089
313.15	0.1017	0.02808	0.00115
313.15	0.2157	0.03448	0.00147
313.15	0.3443	0.04181	0.00182
313.15	0.4905	0.04867	0.00214
313.15	0.6581	0.05599	0.00247
313.15	0.8524	0.06285	0.00279
313.15	1	0.06789	0.00272
318.15	0	0.02654	0.00107
318.15	0.1017	0.0328	0.00134
318.15	0.2157	0.03955	0.00167
318.15	0.3443	0.04725	0.00204
318.15	0.4905	0.05448	0.00238
318.15	0.6581	0.06219	0.00272
318.15	0.8524	0.06942	0.00306
318.15	1	0.07471	0.003
323.15	0	0.03138	0.00126
323.15	0.1017	0.03836	0.00157
323.15	0.2157	0.04588	0.00193
323.15	0.3443	0.05448	0.00234
323.15	0.4905	0.06254	0.00272
323.15	0.6581	0.07114	0.0031
323.15	0.8524	0.07919	0.00348
323.15	1	0.0851	0.00342
328.15	0	0.03704	0.00149
328.15	0.1017	0.04509	0.00184
328.15	0.2157	0.05376	0.00226
328.15	0.3443	0.06366	0.00273
328.15	0.4905	0.07295	0.00317
328.15	0.6581	0.08285	0.00361
328.15	0.8524	0.09214	0.00403
328.15	1	0.09895	0.00397
