Measured thermophysical data. Measurement and correlation of the excess molar enthalpy of (1-nonanol, or 1-decanol + acetonitrile) mixtures at (298.15, 303.15, and 308.15) K and atmospheric pressure
Source: J. Chem. Thermodyn., 2012, 10.1016/j.jct.2011.09.011
Compound 1: acetonitrile, C2H3N, InChI=1S/C2H3N/c1-2-3/h1H3, purity 99.99%
Compound 2: nonan-1-ol, C9H20O, InChI=1S/C9H20O/c1-2-3-4-5-6-7-8-9-10/h10H,2-9H2,1H3, purity 99%
Compound 3: decan-1-ol, C10H22O, InChI=1S/C10H22O/c1-2-3-4-5-6-7-8-9-10-11/h11H,2-10H2,1H3, purity 99%

System: acetonitrile + nonan-1-ol; phases: Liquid
Fixed: Pressure, kPa = 101
Property: Excess molar enthalpy (molar enthalpy of mixing), kJ/mol (Liquid); method: Parr 1455 solution calorimeter
Temperature, K	Mole fraction of nonan-1-ol	Excess molar enthalpy (molar enthalpy of mixing), kJ/mol	uncertainty
298.15	0.0899	1.063	0.045
298.15	0.1141	1.266	0.053
298.15	0.1501	1.526	0.063
298.15	0.1975	1.813	0.075
298.15	0.2673	2.156	0.089
298.15	0.3318	2.397	0.099
298.15	0.4217	2.618	0.107
298.15	0.443	2.644	0.108
298.15	0.4659	2.663	0.109
298.15	0.4906	2.672	0.109
298.15	0.5175	2.666	0.109
298.15	0.5468	2.641	0.108
298.15	0.5787	2.591	0.106
298.15	0.6138	2.513	0.103
298.15	0.6524	2.396	0.098
298.15	0.695	2.235	0.091
298.15	0.7425	2.018	0.082
298.15	0.7955	1.732	0.071
298.15	0.8552	1.352	0.056
298.15	0.9228	0.823	0.035
303.15	0.0899	1.244	0.052
303.15	0.1141	1.465	0.06
303.15	0.1501	1.757	0.072
303.15	0.1975	2.094	0.086
303.15	0.2673	2.481	0.101
303.15	0.3318	2.721	0.111
303.15	0.4217	2.962	0.121
303.15	0.443	2.97	0.121
303.15	0.4659	2.966	0.121
303.15	0.4906	2.952	0.12
303.15	0.5175	2.932	0.119
303.15	0.5468	2.885	0.117
303.15	0.5787	2.81	0.114
303.15	0.6138	2.707	0.11
303.15	0.6524	2.576	0.105
303.15	0.695	2.399	0.098
303.15	0.7425	2.153	0.088
303.15	0.7955	1.826	0.075
303.15	0.8552	1.425	0.059
303.15	0.9228	0.878	0.037
308.15	0.0899	1.286	0.053
308.15	0.1141	1.523	0.063
308.15	0.1501	1.844	0.076
308.15	0.1975	2.198	0.09
308.15	0.2673	2.623	0.107
308.15	0.3318	2.884	0.117
308.15	0.4217	3.116	0.127
308.15	0.443	3.105	0.126
308.15	0.4659	3.087	0.126
308.15	0.4906	3.055	0.124
308.15	0.5175	3.011	0.122
308.15	0.5468	2.948	0.12
308.15	0.5787	2.866	0.117
308.15	0.6138	2.758	0.112
308.15	0.6524	2.617	0.107
308.15	0.695	2.44	0.099
308.15	0.7425	2.214	0.09
308.15	0.7955	1.904	0.078
308.15	0.8552	1.486	0.061
308.15	0.9228	0.902	0.038

System: acetonitrile + decan-1-ol; phases: Liquid
Fixed: Pressure, kPa = 101
Property: Excess molar enthalpy (molar enthalpy of mixing), kJ/mol (Liquid); method: Parr 1455 solution calorimeter
Temperature, K	Mole fraction of decan-1-ol	Excess molar enthalpy (molar enthalpy of mixing), kJ/mol	uncertainty
298.15	0.0436	0.717	0.033
298.15	0.0542	0.863	0.038
298.15	0.0678	1.037	0.044
298.15	0.079	1.167	0.049
298.15	0.0919	1.311	0.055
298.15	0.1077	1.47	0.061
298.15	0.127	1.646	0.068
298.15	0.1509	1.839	0.075
298.15	0.181	2.053	0.084
298.15	0.2197	2.286	0.093
298.15	0.271	2.54	0.103
298.15	0.3415	2.806	0.114
298.15	0.3857	2.924	0.119
298.15	0.4394	3.012	0.123
298.15	0.5058	3.029	0.123
298.15	0.5895	2.902	0.118
298.15	0.6985	2.493	0.102
298.15	0.78	2.017	0.083
298.15	0.8433	1.557	0.064
298.15	0.9159	0.928	0.039
303.15	0.0586	1.026	0.043
303.15	0.0678	1.145	0.048
303.15	0.079	1.282	0.054
303.15	0.0919	1.431	0.059
303.15	0.1077	1.588	0.065
303.15	0.127	1.755	0.072
303.15	0.1509	1.932	0.079
303.15	0.181	2.118	0.086
303.15	0.2197	2.34	0.095
303.15	0.271	2.602	0.106
303.15	0.3415	2.882	0.117
303.15	0.3857	2.982	0.121
303.15	0.4394	3.061	0.125
303.15	0.5058	3.078	0.125
303.15	0.5895	2.975	0.121
303.15	0.6985	2.629	0.107
303.15	0.78	2.142	0.087
303.15	0.8433	1.658	0.068
303.15	0.9159	1.017	0.042
308.15	0.0748	1.166	0.049
308.15	0.1008	1.45	0.06
308.15	0.1409	1.83	0.075
308.15	0.1866	2.193	0.09
308.15	0.2546	2.667	0.109
308.15	0.3186	2.987	0.122
308.15	0.4096	3.323	0.136
308.15	0.4314	3.33	0.136
308.15	0.455	3.322	0.135
308.15	0.4807	3.296	0.134
308.15	0.5088	3.263	0.133
308.15	0.5395	3.209	0.131
308.15	0.5734	3.139	0.128
308.15	0.6109	3.03	0.123
308.15	0.6525	2.872	0.117
308.15	0.6991	2.659	0.108
308.15	0.7515	2.373	0.097
308.15	0.8108	1.971	0.081
308.15	0.8785	1.404	0.058
308.15	0.9566	0.593	0.026
