Measured thermophysical data. Isobaric specific heat capacity of typical lithium chloride liquid desiccants using scanning calorimetry
Source: J. Chem. Thermodyn., 2014, 10.1016/j.jct.2013.10.028
Compound 1: triethylene glycol, C6H14O4, InChI=1S/C6H14O4/c7-1-3-9-5-6-10-4-2-8/h7-8H,1-6H2
Compound 2: 1,2-propanediol, C3H8O2, InChI=1S/C3H8O2/c1-3(5)2-4/h3-5H,2H2,1H3
Compound 3: water, H2O, InChI=1S/H2O/h1H2
Compound 4: lithium chloride, ClLi, InChI=1S/ClH.Li/h1H;/q;+1/p-1, purity 99.9%

System: water; phases: Liquid
Fixed: Pressure, kPa = 100
Property: Molar heat capacity at constant pressure, J/K/mol (Liquid); method: Large sample (1 g) DSC
Temperature, K	Molar heat capacity at constant pressure, J/K/mol	uncertainty
308.15	75.46600792	3.20671984
313.15	75.42997736	3.20671984
318.15	75.41196208	3.20671984
323.15	75.42997736	3.20671984
328.15	75.44799264	3.20671984
333.15	75.46600792	3.20671984
338.15	75.46600792	3.20671984
343.15	75.46600792	3.20671984

System: lithium chloride + water; phases: Liquid
Fixed: Pressure, kPa = 100
Property: Molar heat capacity at constant pressure, J/K/mol (Liquid); method: Large sample (1 g) DSC
Temperature, K	Mass fraction of lithium chloride	Molar heat capacity at constant pressure, J/K/mol	uncertainty
308.15	0.15	68.8874267168204	2.91795625474797
313.15	0.15	68.9662903993811	2.91795625474797
318.15	0.15	69.0648700025821	2.93767217538816
323.15	0.15	69.1831655264232	2.93767217538816
328.15	0.15	69.2817451296242	2.93767217538816
333.15	0.15	69.3606088121849	2.93767217538816
338.15	0.15	69.3606088121849	2.93767217538816
343.15	0.15	69.4197565741055	2.93767217538816
308.15	0.2001	67.4046527395088	2.85009102492638
313.15	0.2001	67.5471572907551	2.87044881796156
318.15	0.2001	67.6489462559311	2.87044881796156
323.15	0.2001	67.7914508071774	2.87044881796156
328.15	0.2001	67.9339553584237	2.89080661099675
333.15	0.2001	68.0153865305645	2.89080661099675
338.15	0.2001	68.07645990967	2.89080661099675
343.15	0.2001	68.0561021166348	2.89080661099675
308.15	0.2501	66.112242736756	2.79851313939801
313.15	0.2501	66.2595329019875	2.81955459157394
318.15	0.2501	66.4278645193949	2.81955459157394
323.15	0.2501	66.5961961368023	2.81955459157394
328.15	0.2501	66.7645277542097	2.84059604374986
333.15	0.2501	66.9328593716171	2.84059604374986
338.15	0.2501	67.0170251803208	2.84059604374986
343.15	0.2501	67.1222324412004	2.84059604374986
308.15	0.3	65.1391652790009	2.76493114653513
313.15	0.3	65.4439608384614	2.78670225792517
318.15	0.3	65.6616719523618	2.78670225792517
323.15	0.3	65.9011541776523	2.78670225792517
328.15	0.3	66.1406364029427	2.80847336931521
333.15	0.3	66.3365764054531	2.80847336931521
338.15	0.3	66.4889741851834	2.83024448070525
343.15	0.3	66.5760586307435	2.83024448070525
308.15	0.3499	64.8404316140786	2.75148961979742
313.15	0.3499	65.1561763245471	2.77404281340232
318.15	0.3499	65.404261454201	2.77404281340232
323.15	0.3499	65.6523465838549	2.79659600700722
328.15	0.3499	65.9229849071136	2.79659600700722
333.15	0.3499	66.1485168431626	2.79659600700722
338.15	0.3499	66.3289423920018	2.81914920061211
343.15	0.3499	66.4868147472361	2.81914920061211
308.15	0.3998	64.5662225521486	2.7370463907976
313.15	0.3998	64.8937323766884	2.76043994969331
318.15	0.3998	65.1744550834369	2.76043994969331
323.15	0.3998	65.4785713490811	2.78383350858901
328.15	0.3998	65.7826876147253	2.78383350858901
333.15	0.3998	66.040016762578	2.80722706748472
338.15	0.3998	66.2505587926394	2.80722706748472
343.15	0.3998	66.3909201460136	2.80722706748472
308.15	0.4502	64.3929559725332	2.72254098487117
313.15	0.4502	64.7575819972927	2.7468493865218
318.15	0.4502	65.0492828171003	2.77115778817244
323.15	0.4502	65.3652920385586	2.77115778817244
328.15	0.4502	65.6813012600169	2.79546618982307
333.15	0.4502	65.9486936781738	2.79546618982307
338.15	0.4502	66.1674692930296	2.79546618982307
343.15	0.4502	66.337628104584	2.81977459147371

System: 1,2-propanediol + lithium chloride + water; phases: Liquid
Fixed: Pressure, kPa = 100
Property: Molar heat capacity at constant pressure, J/K/mol (Liquid); method: Large sample (1 g) DSC
Temperature, K	Mass fraction of lithium chloride	Mass fraction of 1,2-propanediol	Molar heat capacity at constant pressure, J/K/mol	uncertainty
308.15	0.1	0.202	81.1045660754154	3.45077190120815
313.15	0.1	0.202	81.401652398036	3.45077190120815
318.15	0.1	0.202	81.6301803385134	3.47362469525589
323.15	0.1	0.202	81.835855484943	3.47362469525589
328.15	0.1	0.202	82.0186778373249	3.47362469525589
333.15	0.1	0.202	82.1557946016113	3.49647748930362
338.15	0.1	0.202	82.2472057778022	3.49647748930362
343.15	0.1	0.202	82.27005857185	3.49647748930362
308.15	0.133	0.267	82.8762783068861	3.50428238084085
313.15	0.133	0.267	83.3017983102739	3.52931296927543
318.15	0.133	0.267	83.5521041946197	3.55434355771
323.15	0.133	0.267	83.8524712558346	3.55434355771
328.15	0.133	0.267	84.127807728615	3.57937414614458
333.15	0.133	0.267	84.3280524360916	3.57937414614458
338.15	0.133	0.267	84.5032665551336	3.57937414614458
343.15	0.133	0.267	84.6033889088719	3.57937414614458
308.15	0.167	0.333	85.3072374137741	3.63186483627053
313.15	0.167	0.333	85.6953756405511	3.63186483627053
318.15	0.167	0.333	86.0280655492171	3.65958899532603
323.15	0.167	0.333	86.3884796169386	3.65958899532603
328.15	0.167	0.333	86.7766178437156	3.68731315438153
333.15	0.167	0.333	87.0815835933261	3.68731315438153
338.15	0.167	0.333	87.3311010248256	3.71503731343703
343.15	0.167	0.333	87.5528942972696	3.71503731343703
308.15	0.2	0.4	88.5707018773157	3.76037014987902
313.15	0.2	0.4	89.0990183446541	3.79144758913422
318.15	0.2	0.4	89.5651799334821	3.79144758913422
323.15	0.2	0.4	90.0313415223101	3.82252502838942
328.15	0.2	0.4	90.5285805503932	3.85360246764461
333.15	0.2	0.4	90.963664699966	3.85360246764461
338.15	0.2	0.4	91.3365939710284	3.88467990689981
343.15	0.2	0.4	91.6473683635804	3.88467990689981
308.15	0.233	0.467	94.1463708627952	3.99494551539461
313.15	0.233	0.467	94.8180873653836	4.03029901553085
318.15	0.233	0.467	95.3837433675634	4.03029901553085
323.15	0.233	0.467	96.0201063700156	4.06565251566708
328.15	0.233	0.467	96.6211158723316	4.10100601580332
333.15	0.233	0.467	97.2221253746476	4.13635951593955
338.15	0.233	0.467	97.7170743765549	4.13635951593955
343.15	0.233	0.467	98.1059628780535	4.17171301607579

System: triethylene glycol + lithium chloride + water; phases: Liquid
Fixed: Pressure, kPa = 100
Property: Molar heat capacity at constant pressure, J/K/mol (Liquid); method: Large sample (1 g) DSC
Temperature, K	Mass fraction of lithium chloride	Mass fraction of triethylene glycol	Molar heat capacity at constant pressure, J/K/mol	uncertainty
308.15	0.1	0.2	81.0171575484509	3.43153611896543
313.15	0.1	0.2	81.3462089571188	3.45503979101313
318.15	0.1	0.2	81.5577420055481	3.45503979101313
323.15	0.1	0.2	81.7457713819298	3.47854346306084
328.15	0.1	0.2	81.9573044303592	3.47854346306084
333.15	0.1	0.2	82.0748227905977	3.47854346306084
338.15	0.1	0.2	82.1218301346931	3.47854346306084
343.15	0.1	0.2	82.1453338067409	3.47854346306084
308.15	0.133	0.267	83.9345205630387	3.55832132062758
313.15	0.133	0.267	84.326982473402	3.58448544798513
318.15	0.133	0.267	84.6147878743351	3.58448544798513
323.15	0.133	0.267	84.9025932752682	3.61064957534269
328.15	0.133	0.267	85.2165628035589	3.61064957534269
333.15	0.133	0.267	85.3997116950618	3.61064957534269
338.15	0.133	0.267	85.5566964592071	3.63681370270024
343.15	0.133	0.267	85.6090247139223	3.63681370270024
308.15	0.167	0.333	88.3196191062235	3.74510571836073
313.15	0.167	0.333	88.7914434486942	3.77459473976515
318.15	0.167	0.333	89.2337787697604	3.77459473976515
323.15	0.167	0.333	89.6466250694222	3.80408376116956
328.15	0.167	0.333	90.059471369084	3.83357278257398
333.15	0.167	0.333	90.413339625937	3.83357278257398
338.15	0.167	0.333	90.6492517971723	3.83357278257398
343.15	0.167	0.333	90.8556749470032	3.86306180397839
308.15	0.2	0.4	94.3732597392142	3.98855467379201
313.15	0.2	0.4	95.083087265906	4.02235598458685
318.15	0.2	0.4	95.6239082386236	4.0561572953817
323.15	0.2	0.4	96.1647292113411	4.08995860617655
328.15	0.2	0.4	96.7055501840587	4.08995860617655
333.15	0.2	0.4	97.1787685351866	4.1237599169714
338.15	0.2	0.4	97.5843842647247	4.1237599169714
343.15	0.2	0.4	97.8885960618784	4.15756122776624
308.15	0.233	0.467	104.519776562288	4.43417233900614
313.15	0.233	0.467	105.272002226941	4.47376316346156
318.15	0.233	0.467	105.984637067138	4.51335398791697
323.15	0.233	0.467	106.65768108288	4.51335398791697
328.15	0.233	0.467	107.330725098622	4.55294481237238
333.15	0.233	0.467	107.964178289909	4.59253563682779
338.15	0.233	0.467	108.55804065674	4.59253563682779
343.15	0.233	0.467	108.953948901294	4.6321264612832
