Measured thermophysical data. Physicochemical properties of fatty acid based ionic liquids
Source: J. Chem. Thermodyn., 2016, 10.1016/j.jct.2016.04.021
Compound 1: tetraoctylammonium oleate, C50H101NO2, InChI=1S/C32H68N.C18H34O2/c1-5-9-13-17-21-25-29-33(30-26-22-18-14-10-6-2,31-27-23-19-15-11-7-3)32-28-24-20-16-12-8-4;1-2-3-4-5-6-7-8-9-10-11-12-13-14-15-16-17-18(19)20/h5-32H2,1-4H3;9-10H,2-8,11-17H2,1H3,(H,19,20)/q+1;/p-1/b;10-9-
Compound 2: tetrahexylammonium oleate, C42H85NO2, InChI=1S/C24H52N.C18H34O2/c1-5-9-13-17-21-25(22-18-14-10-6-2,23-19-15-11-7-3)24-20-16-12-8-4;1-2-3-4-5-6-7-8-9-10-11-12-13-14-15-16-17-18(19)20/h5-24H2,1-4H3;9-10H,2-8,11-17H2,1H3,(H,19,20)/q+1;/p-1/b;10-9-
Compound 3: methyltrioctylammonium oleate, C43H87NO2, InChI=1S/C25H54N.C18H34O2/c1-5-8-11-14-17-20-23-26(4,24-21-18-15-12-9-6-2)25-22-19-16-13-10-7-3;1-2-3-4-5-6-7-8-9-10-11-12-13-14-15-16-17-18(19)20/h5-25H2,1-4H3;9-10H,2-8,11-17H2,1H3,(H,19,20)/q+1;/p-1/b;10-9-
Compound 4: methyltrioctylammonium 4-ethyloctanoate, C35H73NO2, InChI=1S/C25H54N.C10H20O2/c1-5-8-11-14-17-20-23-26(4,24-21-18-15-12-9-6-2)25-22-19-16-13-10-7-3;1-3-5-6-9(4-2)7-8-10(11)12/h5-25H2,1-4H3;9H,3-8H2,1-2H3,(H,11,12)/q+1;/p-1

System: tetraoctylammonium oleate; phases: Glass, Liquid, Air at 1 atmosphere
Property: Triple point temperature, K (Glass); method: DSC
Triple point temperature, K	uncertainty
193.3	1.5

System: tetraoctylammonium oleate; phases: Crystal, Liquid, Air at 1 atmosphere
Property: Normal melting temperature, K (Crystal); method: DTA
Normal melting temperature, K	uncertainty
243.6	0.7

System: tetraoctylammonium oleate; phases: Liquid
Fixed: Pressure, kPa = 101.325
Property: Mass density, kg/m3 (Liquid); method: Vibrating tube method
Temperature, K	Mass density, kg/m3	uncertainty
293.15	878.4	7.4
298.15	875.3	7.4
303.15	872.3	7.4
308.15	869.2	7.4
313.15	866.1	7.3
318.15	863.1	7.3
323.15	860.1	7.3
328.15	857.1	7.2
333.15	854.1	7.2
338.15	851.1	7.2
343.15	848.2	7.2
348.15	845.2	7.1
353.15	842.2	7.1
358.15	839.2	7.1
363.15	836.1	7.1

System: tetraoctylammonium oleate; phases: Liquid
Fixed: Pressure, kPa = 101.325
Property: Viscosity, Pa*s (Liquid); method: Concentric cylinders viscometry
Temperature, K	Viscosity, Pa*s	uncertainty
293.15	1.6893	0.1295
298.15	1.1534	0.0855
303.15	0.8048	0.0579
308.15	0.5754	0.0403
313.15	0.4208	0.0288
318.15	0.3144	0.0211
323.15	0.2394	0.0158
328.15	0.1854	0.0121
333.15	0.1462	0.0095
338.15	0.117	0.0075
343.15	0.0949	0.0061
348.15	0.0779	0.0049
353.15	0.0641	0.0041
358.15	0.0535	0.0034
363.15	0.0443	0.0028

System: tetrahexylammonium oleate; phases: Glass, Liquid, Air at 1 atmosphere
Property: Triple point temperature, K (Glass); method: DSC
Triple point temperature, K	uncertainty
189.9	0.8

System: tetrahexylammonium oleate; phases: Liquid
Fixed: Pressure, kPa = 101.325
Property: Mass density, kg/m3 (Liquid); method: Vibrating tube method
Temperature, K	Mass density, kg/m3	uncertainty
293.15	889.9	5.5
298.15	886.9	5.5
303.15	883.9	5.5
308.15	880.9	5.5
313.15	877.8	5.4
318.15	874.8	5.4
323.15	871.8	5.4
328.15	868.8	5.4
333.15	865.8	5.4
338.15	862.9	5.3
343.15	859.9	5.3
348.15	857	5.3
353.15	854	5.3
358.15	851	5.3
363.15	847.9	5.3

System: tetrahexylammonium oleate; phases: Liquid
Fixed: Pressure, kPa = 101.325
Property: Viscosity, Pa*s (Liquid); method: Concentric cylinders viscometry
Temperature, K	Viscosity, Pa*s	uncertainty
293.15	2.5099	0.1968
298.15	1.6237	0.1222
303.15	1.0866	0.0789
308.15	0.749	0.0527
313.15	0.5309	0.0363
318.15	0.3849	0.0257
323.15	0.2853	0.0187
328.15	0.2155	0.0139
333.15	0.1654	0.0105
338.15	0.1295	0.0082
343.15	0.1029	0.0064
348.15	0.0828	0.0051
353.15	0.0675	0.0042
358.15	0.0555	0.0034
363.15	0.0455	0.0028

System: methyltrioctylammonium oleate; phases: Glass, Liquid, Air at 1 atmosphere
Property: Triple point temperature, K (Glass); method: DSC
Triple point temperature, K	uncertainty
216.8	1.2

System: methyltrioctylammonium oleate; phases: Crystal, Liquid, Air at 1 atmosphere
Property: Normal melting temperature, K (Crystal); method: DTA
Normal melting temperature, K	uncertainty
267.2	0.5

System: methyltrioctylammonium oleate; phases: Liquid
Fixed: Pressure, kPa = 101.325
Property: Mass density, kg/m3 (Liquid); method: Vibrating tube method
Temperature, K	Mass density, kg/m3	uncertainty
293.15	890.5	7.6
298.15	887.5	7.5
303.15	884.5	7.5
308.15	881.5	7.5
313.15	878.5	7.4
318.15	875.5	7.4
323.15	872.5	7.4
328.15	869.5	7.4
333.15	866.6	7.3
338.15	863.6	7.3
343.15	860.7	7.3
348.15	857.8	7.3
353.15	854.9	7.2
358.15	852	7.2
363.15	849.1	7.2

System: methyltrioctylammonium oleate; phases: Liquid
Fixed: Pressure, kPa = 101.325
Property: Viscosity, Pa*s (Liquid); method: Concentric cylinders viscometry
Temperature, K	Viscosity, Pa*s	uncertainty
293.15	2.934	0.2367
298.15	1.9714	0.1533
303.15	1.3546	0.1019
308.15	0.9577	0.0699
313.15	0.6927	0.0492
318.15	0.5113	0.0355
323.15	0.3844	0.0262
328.15	0.2938	0.0197
333.15	0.2279	0.015
338.15	0.1792	0.0117
343.15	0.1427	0.0092
348.15	0.1143	0.0073
353.15	0.0923	0.0059
358.15	0.0749	0.0048
363.15	0.0618	0.0039

System: methyltrioctylammonium 4-ethyloctanoate; phases: Glass, Liquid, Air at 1 atmosphere
Property: Triple point temperature, K (Glass); method: DSC
Triple point temperature, K	uncertainty
196.5	1

System: methyltrioctylammonium 4-ethyloctanoate; phases: Liquid
Fixed: Pressure, kPa = 101.325
Property: Mass density, kg/m3 (Liquid); method: Vibrating tube method
Temperature, K	Mass density, kg/m3	uncertainty
293.15	893.1	17.9
298.15	890.1	17.8
303.15	887.1	17.7
308.15	884	17.6
313.15	881	17.5
318.15	877.9	17.5
323.15	874.9	17.4
328.15	871.8	17.3
333.15	868.8	17.2
338.15	865.8	17.1
343.15	862.8	17.1
348.15	859.8	17
353.15	856.8	16.9
358.15	853.9	16.8
363.15	850.9	16.8

System: methyltrioctylammonium 4-ethyloctanoate; phases: Liquid
Fixed: Pressure, kPa = 101.325
Property: Viscosity, Pa*s (Liquid); method: Concentric cylinders viscometry
Temperature, K	Viscosity, Pa*s	uncertainty
293.15	5.7434	0.8001
298.15	3.7334	0.5122
303.15	2.4681	0.3339
308.15	1.6723	0.2236
313.15	1.1593	0.1534
318.15	0.8204	0.1076
323.15	0.5921	0.077
328.15	0.4347	0.0562
333.15	0.3249	0.0418
338.15	0.2463	0.0315
343.15	0.1892	0.0241
348.15	0.1474	0.0188
353.15	0.1161	0.0147
358.15	0.0924	0.0117
363.15	0.0741	0.0094
