Measured thermophysical data. PVT properties for binary ionic liquids of 1-methyl-1-propylpiperidinium bis(trifluoromethylsulfonyl)imide with anisole or acetophenone at pressures up to 50 MPa
Source: J. Chem. Thermodyn., 2012, 10.1016/j.jct.2012.01.008
Compound 1: anisole, C7H8O, InChI=1S/C7H8O/c1-8-7-5-3-2-4-6-7/h2-6H,1H3, purity 99%
Compound 2: acetophenone, C8H8O, InChI=1S/C8H8O/c1-7(9)8-5-3-2-4-6-8/h2-6H,1H3, purity 99%
Compound 3: 1-methyl-1-propylpiperidinium bis(trifluoromethylsulfonyl)imide, C11H20F6N2O4S2, InChI=1S/C9H20N.C2F6NO4S2/c1-3-7-10(2)8-5-4-6-9-10;3-1(4,5)14(10,11)9-15(12,13)2(6,7)8/h3-9H2,1-2H3;/q+1;-1, purity 99%

System: anisole; phases: Liquid
Property: Mass density, kg/m3 (Liquid); method: Vibrating tube method
Temperature, K	Pressure, kPa	Mass density, kg/m3	uncertainty
298.15	100	989.2	0.3
298.15	10000	995.6	0.3
298.15	15000	998.5	0.3
298.15	20000	1001.4	0.3
298.15	25000	1004.1	0.3
298.15	30000	1006.9	0.3
298.15	35000	1009.7	0.3
298.15	40000	1012.5	0.3
298.15	45000	1015.2	0.3
298.15	50000	1017.5	0.3
318.15	100	969.9	0.3
318.15	10000	977.3	0.3
318.15	15000	980.4	0.3
318.15	20000	983.6	0.3
318.15	25000	986.9	0.3
318.15	30000	989.8	0.3
318.15	35000	992.9	0.3
318.15	40000	995.7	0.3
318.15	45000	998.6	0.3
318.15	50000	1001.5	0.3
348.15	100	941.3	0.3
348.15	10000	949.8	0.3
348.15	15000	953.5	0.3
348.15	20000	957.3	0.3
348.15	25000	961.1	0.3
348.15	30000	964.5	0.3
348.15	35000	967.9	0.3
348.15	40000	971	0.3
348.15	45000	974.5	0.3
348.15	50000	977.8	0.3

System: acetophenone; phases: Liquid
Property: Mass density, kg/m3 (Liquid); method: Vibrating tube method
Temperature, K	Pressure, kPa	Mass density, kg/m3	uncertainty
298.15	100	1023.4	0.3
298.15	10000	1029	0.3
298.15	15000	1031.7	0.3
298.15	20000	1034.3	0.3
298.15	25000	1036.8	0.3
298.15	30000	1039.3	0.4
298.15	35000	1041.8	0.4
298.15	40000	1044.4	0.4
298.15	45000	1046.7	0.4
298.15	50000	1049	0.4
318.15	100	1005.9	0.3
318.15	10000	1012.2	0.3
318.15	15000	1015.2	0.3
318.15	20000	1018.1	0.3
318.15	25000	1020.9	0.3
318.15	30000	1023.6	0.3
318.15	35000	1026.4	0.3
318.15	40000	1028.8	0.4
318.15	45000	1031.5	0.4
318.15	50000	1034	0.4
348.15	100	979.6	0.3
348.15	10000	987.1	0.3
348.15	15000	990.5	0.3
348.15	20000	993.6	0.3
348.15	25000	996.9	0.3
348.15	30000	1000.1	0.3
348.15	35000	1003.1	0.3
348.15	40000	1006.1	0.3
348.15	45000	1009	0.3
348.15	50000	1011.7	0.3

System: 1-methyl-1-propylpiperidinium bis(trifluoromethylsulfonyl)imide; phases: Liquid
Property: Mass density, kg/m3 (Liquid); method: Vibrating tube method
Temperature, K	Pressure, kPa	Mass density, kg/m3	uncertainty
298.15	100	1408.9	0.6
298.15	10000	1415.4	0.8
298.15	15000	1418.7	0.8
298.15	20000	1421.9	0.9
298.15	25000	1424.8	1
298.15	30000	1427.7	1.1
298.15	35000	1430.4	1.2
298.15	40000	1433.2	1.3
298.15	45000	1436.1	1.4
298.15	50000	1438.8	1.5
318.15	100	1392.1	0.6
318.15	10000	1398.9	0.7
318.15	15000	1402.4	0.8
318.15	20000	1405.4	0.9
318.15	25000	1408.6	1
318.15	30000	1411.8	1.1
318.15	35000	1414.7	1.2
318.15	40000	1417.6	1.2
318.15	45000	1420.5	1.3
318.15	50000	1423.3	1.4
348.15	100	1366.3	0.6
348.15	10000	1373.5	0.7
348.15	15000	1377.2	0.8
348.15	20000	1380.8	0.9
348.15	25000	1384.1	0.9
348.15	30000	1387.6	1
348.15	35000	1390.7	1.1
348.15	40000	1393.8	1.2
348.15	45000	1397	1.3
348.15	50000	1399.9	1.4

System: anisole + 1-methyl-1-propylpiperidinium bis(trifluoromethylsulfonyl)imide; phases: Liquid
Property: Mass density, kg/m3 (Liquid); method: Vibrating tube method
Mole fraction of anisole	Temperature, K	Pressure, kPa	Mass density, kg/m3	uncertainty
0.1015	298.15	100	1393.9	0.6
0.1015	298.15	10000	1400.6	0.7
0.1015	298.15	15000	1403.7	0.8
0.1015	298.15	20000	1406.9	0.9
0.1015	298.15	25000	1409.8	1
0.1015	298.15	30000	1412.7	1.1
0.1015	298.15	35000	1415.3	1.2
0.1015	298.15	40000	1418.1	1.2
0.1015	298.15	45000	1420.9	1.3
0.1015	298.15	50000	1423.5	1.4
0.1015	318.15	100	1377.3	0.6
0.1015	318.15	10000	1384.1	0.7
0.1015	318.15	15000	1387.6	0.8
0.1015	318.15	20000	1390.6	0.9
0.1015	318.15	25000	1393.7	1
0.1015	318.15	30000	1396.8	1
0.1015	318.15	35000	1399.9	1.1
0.1015	318.15	40000	1402.8	1.2
0.1015	318.15	45000	1405.7	1.3
0.1015	318.15	50000	1408.4	1.4
0.1015	348.15	100	1351.4	0.5
0.1015	348.15	10000	1358.7	0.7
0.1015	348.15	15000	1362.3	0.8
0.1015	348.15	20000	1366	0.8
0.1015	348.15	25000	1369.4	0.9
0.1015	348.15	30000	1372.6	1
0.1015	348.15	35000	1375.9	1.1
0.1015	348.15	40000	1378.9	1.1
0.1015	348.15	45000	1382.1	1.2
0.1015	348.15	50000	1384.8	1.3
0.201	298.15	100	1376.9	0.6
0.201	298.15	10000	1383.6	0.7
0.201	298.15	15000	1386.7	0.8
0.201	298.15	20000	1389.9	0.9
0.201	298.15	25000	1392.8	1
0.201	298.15	30000	1395.6	1
0.201	298.15	35000	1398.2	1.1
0.201	298.15	40000	1401	1.2
0.201	298.15	45000	1403.8	1.3
0.201	298.15	50000	1406.4	1.4
0.201	318.15	100	1360	0.5
0.201	318.15	10000	1366.8	0.7
0.201	318.15	15000	1370.3	0.8
0.201	318.15	20000	1373.3	0.8
0.201	318.15	25000	1376.4	0.9
0.201	318.15	30000	1379.5	1
0.201	318.15	35000	1382.6	1.1
0.201	318.15	40000	1385.4	1.2
0.201	318.15	45000	1388.3	1.2
0.201	318.15	50000	1391	1.3
0.201	348.15	100	1333.7	0.5
0.201	348.15	10000	1341.1	0.7
0.201	348.15	15000	1344.8	0.7
0.201	348.15	20000	1348.5	0.8
0.201	348.15	25000	1352	0.9
0.201	348.15	30000	1355.3	1
0.201	348.15	35000	1358.4	1
0.201	348.15	40000	1361.5	1.1
0.201	348.15	45000	1364.6	1.2
0.201	348.15	50000	1367.5	1.3
0.3001	298.15	100	1356.9	0.5
0.3001	298.15	10000	1363.7	0.7
0.3001	298.15	15000	1366.6	0.8
0.3001	298.15	20000	1369.8	0.8
0.3001	298.15	25000	1372.7	0.9
0.3001	298.15	30000	1375.6	1
0.3001	298.15	35000	1378.4	1.1
0.3001	298.15	40000	1381.2	1.2
0.3001	298.15	45000	1383.9	1.2
0.3001	298.15	50000	1386.5	1.3
0.3001	318.15	100	1339.7	0.5
0.3001	318.15	10000	1346.6	0.7
0.3001	318.15	15000	1350	0.7
0.3001	318.15	20000	1353	0.8
0.3001	318.15	25000	1356.1	0.9
0.3001	318.15	30000	1359.2	1
0.3001	318.15	35000	1362.3	1
0.3001	318.15	40000	1365.2	1.1
0.3001	318.15	45000	1368.1	1.2
0.3001	318.15	50000	1370.8	1.3
0.3001	348.15	100	1313	0.5
0.3001	348.15	10000	1320.5	0.6
0.3001	348.15	15000	1324.2	0.7
0.3001	348.15	20000	1328	0.8
0.3001	348.15	25000	1331.5	0.8
0.3001	348.15	30000	1334.8	0.9
0.3001	348.15	35000	1338.1	1
0.3001	348.15	40000	1341.2	1.1
0.3001	348.15	45000	1344.4	1.1
0.3001	348.15	50000	1347.3	1.2
0.4102	298.15	100	1330.3	0.5
0.4102	298.15	10000	1337.1	0.7
0.4102	298.15	15000	1340.2	0.7
0.4102	298.15	20000	1343.3	0.8
0.4102	298.15	25000	1346.2	0.9
0.4102	298.15	30000	1349.1	0.9
0.4102	298.15	35000	1351.9	1
0.4102	298.15	40000	1354.7	1.1
0.4102	298.15	45000	1357.6	1.2
0.4102	298.15	50000	1360.2	1.2
0.4102	318.15	100	1312.9	0.5
0.4102	318.15	10000	1319.9	0.6
0.4102	318.15	15000	1323.3	0.7
0.4102	318.15	20000	1326.4	0.8
0.4102	318.15	25000	1329.6	0.8
0.4102	318.15	30000	1332.7	0.9
0.4102	318.15	35000	1335.9	1
0.4102	318.15	40000	1338.8	1
0.4102	318.15	45000	1341.7	1.1
0.4102	318.15	50000	1344.5	1.2
0.4102	348.15	100	1285.7	0.5
0.4102	348.15	10000	1293.4	0.6
0.4102	348.15	15000	1297.2	0.7
0.4102	348.15	20000	1301	0.7
0.4102	348.15	25000	1304.6	0.8
0.4102	348.15	30000	1308	0.9
0.4102	348.15	35000	1311.3	0.9
0.4102	348.15	40000	1314.5	1
0.4102	348.15	45000	1317.7	1.1
0.4102	348.15	50000	1320.7	1.1
0.5003	298.15	100	1304.5	0.5
0.5003	298.15	10000	1311.4	0.6
0.5003	298.15	15000	1314.4	0.7
0.5003	298.15	20000	1317.5	0.8
0.5003	298.15	25000	1320.4	0.8
0.5003	298.15	30000	1323.3	0.9
0.5003	298.15	35000	1326.2	1
0.5003	298.15	40000	1329.1	1
0.5003	298.15	45000	1331.9	1.1
0.5003	298.15	50000	1334.5	1.2
0.5003	318.15	100	1286.7	0.5
0.5003	318.15	10000	1293.8	0.6
0.5003	318.15	15000	1297.3	0.7
0.5003	318.15	20000	1300.4	0.7
0.5003	318.15	25000	1303.6	0.8
0.5003	318.15	30000	1306.7	0.9
0.5003	318.15	35000	1309.9	0.9
0.5003	318.15	40000	1312.8	1
0.5003	318.15	45000	1315.7	1.1
0.5003	318.15	50000	1318.5	1.1
0.5003	348.15	100	1259.5	0.5
0.5003	348.15	10000	1267.3	0.6
0.5003	348.15	15000	1271	0.6
0.5003	348.15	20000	1274.7	0.7
0.5003	348.15	25000	1278.4	0.7
0.5003	348.15	30000	1281.8	0.8
0.5003	348.15	35000	1285.2	0.9
0.5003	348.15	40000	1288.4	0.9
0.5003	348.15	45000	1291.6	1
0.5003	348.15	50000	1294.6	1.1
0.6003	298.15	100	1269.5	0.5
0.6003	298.15	10000	1276.3	0.6
0.6003	298.15	15000	1279.4	0.6
0.6003	298.15	20000	1282.6	0.7
0.6003	298.15	25000	1285.5	0.8
0.6003	298.15	30000	1288.4	0.8
0.6003	298.15	35000	1291.3	0.9
0.6003	298.15	40000	1294	0.9
0.6003	298.15	45000	1296.7	1
0.6003	298.15	50000	1299.3	1.1
0.6003	318.15	100	1251.6	0.5
0.6003	318.15	10000	1258.8	0.6
0.6003	318.15	15000	1262.2	0.6
0.6003	318.15	20000	1265.4	0.7
0.6003	318.15	25000	1268.7	0.7
0.6003	318.15	30000	1271.8	0.8
0.6003	318.15	35000	1275	0.8
0.6003	318.15	40000	1277.9	0.9
0.6003	318.15	45000	1280.8	1
0.6003	318.15	50000	1283.5	1
0.6003	348.15	100	1224.1	0.5
0.6003	348.15	10000	1232.1	0.5
0.6003	348.15	15000	1235.9	0.6
0.6003	348.15	20000	1239.6	0.6
0.6003	348.15	25000	1243.2	0.7
0.6003	348.15	30000	1246.6	0.7
0.6003	348.15	35000	1250.1	0.8
0.6003	348.15	40000	1253.3	0.8
0.6003	348.15	45000	1256.5	0.9
0.6003	348.15	50000	1259.6	1
0.7003	298.15	100	1225.7	0.4
0.7003	298.15	10000	1232.4	0.5
0.7003	298.15	15000	1235.5	0.6
0.7003	298.15	20000	1238.6	0.6
0.7003	298.15	25000	1241.5	0.7
0.7003	298.15	30000	1244.4	0.7
0.7003	298.15	35000	1247.3	0.8
0.7003	298.15	40000	1250.1	0.8
0.7003	298.15	45000	1252.8	0.9
0.7003	298.15	50000	1255.3	0.9
0.7003	318.15	100	1207.7	0.4
0.7003	318.15	10000	1215	0.5
0.7003	318.15	15000	1218.3	0.6
0.7003	318.15	20000	1221.5	0.6
0.7003	318.15	25000	1224.8	0.6
0.7003	318.15	30000	1227.8	0.7
0.7003	318.15	35000	1231	0.7
0.7003	318.15	40000	1233.9	0.8
0.7003	318.15	45000	1236.8	0.9
0.7003	318.15	50000	1239.5	0.9
0.7003	348.15	100	1179.9	0.4
0.7003	348.15	10000	1188.1	0.5
0.7003	348.15	15000	1191.9	0.5
0.7003	348.15	20000	1195.6	0.6
0.7003	348.15	25000	1199.3	0.6
0.7003	348.15	30000	1202.6	0.6
0.7003	348.15	35000	1206.1	0.7
0.7003	348.15	40000	1209.4	0.7
0.7003	348.15	45000	1212.7	0.8
0.7003	348.15	50000	1215.8	0.8
0.8	298.15	100	1169.1	0.4
0.8	298.15	10000	1175.8	0.5
0.8	298.15	15000	1178.9	0.5
0.8	298.15	20000	1182	0.5
0.8	298.15	25000	1184.8	0.6
0.8	298.15	30000	1187.7	0.6
0.8	298.15	35000	1190.6	0.7
0.8	298.15	40000	1193.3	0.7
0.8	298.15	45000	1196.1	0.7
0.8	298.15	50000	1198.6	0.8
0.8	318.15	100	1150.9	0.4
0.8	318.15	10000	1158.4	0.5
0.8	318.15	15000	1161.7	0.5
0.8	318.15	20000	1164.8	0.5
0.8	318.15	25000	1168.1	0.6
0.8	318.15	30000	1171.1	0.6
0.8	318.15	35000	1174.2	0.6
0.8	318.15	40000	1177.1	0.7
0.8	318.15	45000	1180.1	0.7
0.8	318.15	50000	1182.9	0.8
0.8	348.15	100	1122.6	0.4
0.8	348.15	10000	1130.9	0.4
0.8	348.15	15000	1134.8	0.5
0.8	348.15	20000	1138.7	0.5
0.8	348.15	25000	1142.5	0.5
0.8	348.15	30000	1145.9	0.5
0.8	348.15	35000	1149.4	0.6
0.8	348.15	40000	1152.8	0.6
0.8	348.15	45000	1156	0.7
0.8	348.15	50000	1159.2	0.7
0.9	298.15	100	1093.1	0.4
0.9	298.15	10000	1099.7	0.4
0.9	298.15	15000	1102.6	0.4
0.9	298.15	20000	1105.7	0.5
0.9	298.15	25000	1108.4	0.5
0.9	298.15	30000	1111.3	0.5
0.9	298.15	35000	1114.1	0.5
0.9	298.15	40000	1117	0.5
0.9	298.15	45000	1119.8	0.6
0.9	298.15	50000	1122.2	0.6
0.9	318.15	100	1074.5	0.4
0.9	318.15	10000	1082	0.4
0.9	318.15	15000	1085.2	0.4
0.9	318.15	20000	1088.4	0.4
0.9	318.15	25000	1091.8	0.4
0.9	318.15	30000	1094.8	0.5
0.9	318.15	35000	1098	0.5
0.9	318.15	40000	1100.8	0.5
0.9	318.15	45000	1103.7	0.5
0.9	318.15	50000	1106.6	0.6
0.9	348.15	100	1046	0.4
0.9	348.15	10000	1054.5	0.4
0.9	348.15	15000	1058.3	0.4
0.9	348.15	20000	1062.2	0.4
0.9	348.15	25000	1066	0.4
0.9	348.15	30000	1069.5	0.4
0.9	348.15	35000	1073	0.4
0.9	348.15	40000	1076.5	0.5
0.9	348.15	45000	1079.7	0.5
0.9	348.15	50000	1083	0.5

System: acetophenone + 1-methyl-1-propylpiperidinium bis(trifluoromethylsulfonyl)imide; phases: Liquid
Property: Mass density, kg/m3 (Liquid); method: Vibrating tube method
Mole fraction of acetophenone	Temperature, K	Pressure, kPa	Mass density, kg/m3	uncertainty
0.1024	298.15	100	1393.3	0.6
0.1024	298.15	10000	1399.9	0.7
0.1024	298.15	15000	1402.9	0.8
0.1024	298.15	20000	1406	0.9
0.1024	298.15	25000	1408.8	1
0.1024	298.15	30000	1411.6	1.1
0.1024	298.15	35000	1414.3	1.2
0.1024	298.15	40000	1417.1	1.2
0.1024	298.15	45000	1419.8	1.3
0.1024	298.15	50000	1422.4	1.4
0.1024	318.15	100	1376.7	0.6
0.1024	318.15	10000	1383.4	0.7
0.1024	318.15	15000	1386.8	0.8
0.1024	318.15	20000	1389.8	0.9
0.1024	318.15	25000	1392.8	1
0.1024	318.15	30000	1395.8	1
0.1024	318.15	35000	1398.8	1.1
0.1024	318.15	40000	1401.6	1.2
0.1024	318.15	45000	1404.5	1.3
0.1024	318.15	50000	1407.1	1.4
0.1024	348.15	100	1350.8	0.5
0.1024	348.15	10000	1357.9	0.7
0.1024	348.15	15000	1361.5	0.8
0.1024	348.15	20000	1365.1	0.8
0.1024	348.15	25000	1368.5	0.9
0.1024	348.15	30000	1371.7	1
0.1024	348.15	35000	1374.9	1.1
0.1024	348.15	40000	1377.9	1.1
0.1024	348.15	45000	1381	1.2
0.1024	348.15	50000	1383.8	1.3
0.2007	298.15	100	1376	0.6
0.2007	298.15	10000	1382.5	0.7
0.2007	298.15	15000	1385.4	0.8
0.2007	298.15	20000	1388.5	0.9
0.2007	298.15	25000	1391.3	0.9
0.2007	298.15	30000	1394.1	1
0.2007	298.15	35000	1396.8	1.1
0.2007	298.15	40000	1399.5	1.2
0.2007	298.15	45000	1402.2	1.3
0.2007	298.15	50000	1404.8	1.4
0.2007	318.15	100	1359	0.5
0.2007	318.15	10000	1365.7	0.7
0.2007	318.15	15000	1369.1	0.8
0.2007	318.15	20000	1372.1	0.8
0.2007	318.15	25000	1375.1	0.9
0.2007	318.15	30000	1378.1	1
0.2007	318.15	35000	1381.1	1.1
0.2007	318.15	40000	1383.9	1.2
0.2007	318.15	45000	1386.7	1.2
0.2007	318.15	50000	1389.3	1.3
0.2007	348.15	100	1333	0.5
0.2007	348.15	10000	1340.3	0.7
0.2007	348.15	15000	1344	0.7
0.2007	348.15	20000	1347.5	0.8
0.2007	348.15	25000	1350.9	0.9
0.2007	348.15	30000	1354.1	0.9
0.2007	348.15	35000	1357.4	1
0.2007	348.15	40000	1360.4	1.1
0.2007	348.15	45000	1363.4	1.2
0.2007	348.15	50000	1366.2	1.3
0.3001	298.15	100	1355.5	0.5
0.3001	298.15	10000	1361.8	0.7
0.3001	298.15	15000	1364.8	0.8
0.3001	298.15	20000	1367.9	0.8
0.3001	298.15	25000	1370.7	0.9
0.3001	298.15	30000	1373.5	1
0.3001	298.15	35000	1376.2	1.1
0.3001	298.15	40000	1379	1.1
0.3001	298.15	45000	1381.7	1.2
0.3001	298.15	50000	1384.3	1.3
0.3001	318.15	100	1338.4	0.5
0.3001	318.15	10000	1345.1	0.7
0.3001	318.15	15000	1348.5	0.7
0.3001	318.15	20000	1351.5	0.8
0.3001	318.15	25000	1354.5	0.9
0.3001	318.15	30000	1357.5	1
0.3001	318.15	35000	1360.5	1
0.3001	318.15	40000	1363.3	1.1
0.3001	318.15	45000	1366.1	1.2
0.3001	318.15	50000	1368.7	1.3
0.3001	348.15	100	1312.4	0.5
0.3001	348.15	10000	1319.7	0.6
0.3001	348.15	15000	1323.4	0.7
0.3001	348.15	20000	1327	0.8
0.3001	348.15	25000	1330.4	0.8
0.3001	348.15	30000	1333.7	0.9
0.3001	348.15	35000	1336.8	1
0.3001	348.15	40000	1339.9	1.1
0.3001	348.15	45000	1342.8	1.1
0.3001	348.15	50000	1345.6	1.2
0.4001	298.15	100	1331.8	0.5
0.4001	298.15	10000	1338	0.7
0.4001	298.15	15000	1341	0.7
0.4001	298.15	20000	1344.1	0.8
0.4001	298.15	25000	1346.9	0.9
0.4001	298.15	30000	1349.7	0.9
0.4001	298.15	35000	1352.4	1
0.4001	298.15	40000	1355.1	1.1
0.4001	298.15	45000	1357.8	1.2
0.4001	298.15	50000	1360.4	1.2
0.4001	318.15	100	1314.6	0.5
0.4001	318.15	10000	1321.3	0.6
0.4001	318.15	15000	1324.7	0.7
0.4001	318.15	20000	1327.7	0.8
0.4001	318.15	25000	1330.7	0.8
0.4001	318.15	30000	1333.7	0.9
0.4001	318.15	35000	1336.5	1
0.4001	318.15	40000	1339.3	1
0.4001	318.15	45000	1342.1	1.1
0.4001	318.15	50000	1344.8	1.2
0.4001	348.15	100	1288.5	0.5
0.4001	348.15	10000	1295.8	0.6
0.4001	348.15	15000	1299.5	0.7
0.4001	348.15	20000	1303	0.7
0.4001	348.15	25000	1306.4	0.8
0.4001	348.15	30000	1309.6	0.9
0.4001	348.15	35000	1312.8	0.9
0.4001	348.15	40000	1315.8	1
0.4001	348.15	45000	1318.8	1.1
0.4001	348.15	50000	1321.6	1.1
0.5008	298.15	100	1303.8	0.5
0.5008	298.15	10000	1309.9	0.6
0.5008	298.15	15000	1312.8	0.7
0.5008	298.15	20000	1315.8	0.7
0.5008	298.15	25000	1318.5	0.8
0.5008	298.15	30000	1321.3	0.9
0.5008	298.15	35000	1324	0.9
0.5008	298.15	40000	1326.6	1
0.5008	298.15	45000	1329.3	1.1
0.5008	298.15	50000	1331.8	1.2
0.5008	318.15	100	1286.6	0.5
0.5008	318.15	10000	1293.1	0.6
0.5008	318.15	15000	1296.5	0.7
0.5008	318.15	20000	1299.5	0.7
0.5008	318.15	25000	1302.4	0.8
0.5008	318.15	30000	1305.4	0.8
0.5008	318.15	35000	1308.2	0.9
0.5008	318.15	40000	1310.9	1
0.5008	318.15	45000	1313.7	1
0.5008	318.15	50000	1316.3	1.1
0.5008	348.15	100	1260.2	0.5
0.5008	348.15	10000	1267.6	0.6
0.5008	348.15	15000	1271.2	0.6
0.5008	348.15	20000	1274.6	0.7
0.5008	348.15	25000	1277.9	0.7
0.5008	348.15	30000	1281.2	0.8
0.5008	348.15	35000	1284.3	0.9
0.5008	348.15	40000	1287.3	0.9
0.5008	348.15	45000	1290.3	1
0.5008	348.15	50000	1293.1	1
0.6001	298.15	100	1270.5	0.5
0.6001	298.15	10000	1276.6	0.6
0.6001	298.15	15000	1279.5	0.6
0.6001	298.15	20000	1282.5	0.7
0.6001	298.15	25000	1285.2	0.8
0.6001	298.15	30000	1287.9	0.8
0.6001	298.15	35000	1290.5	0.9
0.6001	298.15	40000	1293.2	0.9
0.6001	298.15	45000	1295.7	1
0.6001	298.15	50000	1298.2	1.1
0.6001	318.15	100	1253.2	0.5
0.6001	318.15	10000	1259.8	0.6
0.6001	318.15	15000	1263.1	0.6
0.6001	318.15	20000	1266.1	0.7
0.6001	318.15	25000	1269	0.7
0.6001	318.15	30000	1271.9	0.8
0.6001	318.15	35000	1274.8	0.8
0.6001	318.15	40000	1277.4	0.9
0.6001	318.15	45000	1280.2	1
0.6001	318.15	50000	1282.8	1
0.6001	348.15	100	1226.6	0.5
0.6001	348.15	10000	1234.1	0.5
0.6001	348.15	15000	1237.7	0.6
0.6001	348.15	20000	1241.1	0.6
0.6001	348.15	25000	1244.4	0.7
0.6001	348.15	30000	1247.7	0.7
0.6001	348.15	35000	1250.8	0.8
0.6001	348.15	40000	1253.8	0.8
0.6001	348.15	45000	1256.8	0.9
0.6001	348.15	50000	1259.6	1
0.7003	298.15	100	1229.4	0.5
0.7003	298.15	10000	1235.5	0.5
0.7003	298.15	15000	1238.3	0.6
0.7003	298.15	20000	1241.2	0.6
0.7003	298.15	25000	1243.9	0.7
0.7003	298.15	30000	1246.5	0.7
0.7003	298.15	35000	1249.1	0.8
0.7003	298.15	40000	1251.7	0.8
0.7003	298.15	45000	1254.2	0.9
0.7003	298.15	50000	1256.7	0.9
0.7003	318.15	100	1212	0.4
0.7003	318.15	10000	1218.5	0.5
0.7003	318.15	15000	1221.8	0.6
0.7003	318.15	20000	1224.7	0.6
0.7003	318.15	25000	1227.7	0.7
0.7003	318.15	30000	1230.6	0.7
0.7003	318.15	35000	1233.4	0.8
0.7003	318.15	40000	1236	0.8
0.7003	318.15	45000	1238.7	0.9
0.7003	318.15	50000	1241.3	0.9
0.7003	348.15	100	1185.5	0.4
0.7003	348.15	10000	1193	0.5
0.7003	348.15	15000	1196.6	0.5
0.7003	348.15	20000	1199.9	0.6
0.7003	348.15	25000	1203.2	0.6
0.7003	348.15	30000	1206.5	0.7
0.7003	348.15	35000	1209.6	0.7
0.7003	348.15	40000	1212.6	0.7
0.7003	348.15	45000	1215.6	0.8
0.7003	348.15	50000	1218.4	0.8
0.7999	298.15	100	1178	0.4
0.7999	298.15	10000	1184	0.5
0.7999	298.15	15000	1186.8	0.5
0.7999	298.15	20000	1189.7	0.6
0.7999	298.15	25000	1192.3	0.6
0.7999	298.15	30000	1194.9	0.6
0.7999	298.15	35000	1197.5	0.7
0.7999	298.15	40000	1200.1	0.7
0.7999	298.15	45000	1202.6	0.8
0.7999	298.15	50000	1205	0.8
0.7999	318.15	100	1160.6	0.4
0.7999	318.15	10000	1167.1	0.5
0.7999	318.15	15000	1170.2	0.5
0.7999	318.15	20000	1173.1	0.5
0.7999	318.15	25000	1176	0.6
0.7999	318.15	30000	1178.8	0.6
0.7999	318.15	35000	1181.7	0.6
0.7999	318.15	40000	1184.2	0.7
0.7999	318.15	45000	1186.9	0.7
0.7999	318.15	50000	1189.5	0.8
0.7999	348.15	100	1134.2	0.4
0.7999	348.15	10000	1141.7	0.4
0.7999	348.15	15000	1145.2	0.5
0.7999	348.15	20000	1148.6	0.5
0.7999	348.15	25000	1151.8	0.5
0.7999	348.15	30000	1155.1	0.6
0.7999	348.15	35000	1158.2	0.6
0.7999	348.15	40000	1161.2	0.6
0.7999	348.15	45000	1164.2	0.7
0.7999	348.15	50000	1167	0.7
0.8998	298.15	100	1111.5	0.4
0.8998	298.15	10000	1117.3	0.4
0.8998	298.15	15000	1120	0.4
0.8998	298.15	20000	1122.7	0.5
0.8998	298.15	25000	1125.2	0.5
0.8998	298.15	30000	1127.8	0.5
0.8998	298.15	35000	1130.4	0.5
0.8998	298.15	40000	1133	0.6
0.8998	298.15	45000	1135.4	0.6
0.8998	298.15	50000	1137.8	0.6
0.8998	318.15	100	1093.9	0.4
0.8998	318.15	10000	1100.3	0.4
0.8998	318.15	15000	1103.4	0.4
0.8998	318.15	20000	1106.3	0.4
0.8998	318.15	25000	1109.2	0.5
0.8998	318.15	30000	1112	0.5
0.8998	318.15	35000	1114.9	0.5
0.8998	318.15	40000	1117.4	0.5
0.8998	318.15	45000	1120.1	0.6
0.8998	318.15	50000	1122.6	0.6
0.8998	348.15	100	1067.9	0.4
0.8998	348.15	10000	1075.4	0.4
0.8998	348.15	15000	1078.9	0.4
0.8998	348.15	20000	1082.1	0.4
0.8998	348.15	25000	1085.4	0.4
0.8998	348.15	30000	1088.6	0.5
0.8998	348.15	35000	1091.7	0.5
0.8998	348.15	40000	1094.7	0.5
0.8998	348.15	45000	1097.7	0.5
0.8998	348.15	50000	1100.4	0.5
