Measured thermophysical data. Solid-liquid phase equilibrium and mixing properties of 2-Cyano-4'-methylbiphenyl in pure solvents
Source: J. Chem. Thermodyn., 2016, 10.1016/j.jct.2016.07.050
Compound 1: 2-cyano-4'-methylbiphenyl, C14H11N, InChI=1S/C14H11N/c1-11-6-8-12(9-7-11)14-5-3-2-4-13(14)10-15/h2-9H,1H3, purity 99.41%
Compound 2: propan-2-ol, C3H8O, InChI=1S/C3H8O/c1-3(2)4/h3-4H,1-2H3, purity 99.5%
Compound 3: R(-)-2-butanol, C4H10O, InChI=1S/C4H10O/c1-3-4(2)5/h4-5H,3H2,1-2H3/t4-/m1/s1, purity 99.5%
Compound 4: methyl ethanoate, C3H6O2, InChI=1S/C3H6O2/c1-3(4)5-2/h1-2H3, purity 99.5%
Compound 5: ethyl acetate, C4H8O2, InChI=1S/C4H8O2/c1-3-6-4(2)5/h3H2,1-2H3, purity 99.5%
Compound 6: propyl ethanoate, C5H10O2, InChI=1S/C5H10O2/c1-3-4-7-5(2)6/h3-4H2,1-2H3, purity 99.5%
Compound 7: butyl ethanoate, C6H12O2, InChI=1S/C6H12O2/c1-3-4-5-8-6(2)7/h3-5H2,1-2H3, purity 99.5%
Compound 8: acetone, C3H6O, InChI=1S/C3H6O/c1-3(2)4/h1-2H3, purity 99.5%
Compound 9: acetonitrile, C2H3N, InChI=1S/C2H3N/c1-2-3/h1H3, purity 99.5%

System: 2-cyano-4'-methylbiphenyl; phases: Crystal, Liquid, Air at 1 atmosphere
Property: Normal melting temperature, K (Crystal); method: DTA
Normal melting temperature, K	uncertainty
324.55	1.06

System: 2-cyano-4'-methylbiphenyl; phases: Crystal, Liquid, Air at 1 atmosphere
Property: Molar enthalpy of transition or fusion, kJ/mol (Crystal); method: DSC
Molar enthalpy of transition or fusion, kJ/mol	uncertainty
18.73	0.5

System: propan-2-ol + 2-cyano-4'-methylbiphenyl; phases: Liquid, Crystal
Fixed: Pressure, kPa = 101.3
Property: Mole fraction of 2-cyano-4'-methylbiphenyl (Liquid); method: UV spectrophotometry
Temperature, K	Mole fraction of 2-cyano-4'-methylbiphenyl	uncertainty
268.05	0.0086	0.00035
273.05	0.0108	0.0004
278.05	0.0131	0.0005
283.15	0.0177	0.0007
288.15	0.0242	0.001
293.25	0.0357	0.0015
297.95	0.055	0.0023
303.25	0.0938	0.0038

System: R(-)-2-butanol + 2-cyano-4'-methylbiphenyl; phases: Liquid, Crystal
Fixed: Pressure, kPa = 101.3
Property: Mole fraction of 2-cyano-4'-methylbiphenyl (Liquid); method: UV spectrophotometry
Temperature, K	Mole fraction of 2-cyano-4'-methylbiphenyl	uncertainty
268.05	0.0151	0.0006
273.05	0.0171	0.0007
278.05	0.0222	0.0009
283.15	0.0295	0.0012
288.15	0.0407	0.0017
293.25	0.0565	0.0023
297.95	0.0852	0.0035
303.25	0.142	0.006

System: methyl ethanoate + 2-cyano-4'-methylbiphenyl; phases: Liquid, Crystal
Fixed: Pressure, kPa = 101.3
Property: Mole fraction of 2-cyano-4'-methylbiphenyl (Liquid); method: UV spectrophotometry
Temperature, K	Mole fraction of 2-cyano-4'-methylbiphenyl	uncertainty
268.05	0.161	0.007
273.05	0.198	0.008
278.05	0.243	0.01
283.15	0.293	0.012
288.15	0.353	0.014
293.25	0.426	0.017
297.95	0.493	0.02
303.25	0.589	0.024

System: ethyl acetate + 2-cyano-4'-methylbiphenyl; phases: Liquid, Crystal
Fixed: Pressure, kPa = 101.3
Property: Mole fraction of 2-cyano-4'-methylbiphenyl (Liquid); method: UV spectrophotometry
Temperature, K	Mole fraction of 2-cyano-4'-methylbiphenyl	uncertainty
268.05	0.163	0.007
273.05	0.196	0.008
278.05	0.237	0.01
283.15	0.284	0.011
288.15	0.342	0.014
293.25	0.411	0.017
297.95	0.482	0.019
303.25	0.573	0.023

System: propyl ethanoate + 2-cyano-4'-methylbiphenyl; phases: Liquid, Crystal
Fixed: Pressure, kPa = 101.3
Property: Mole fraction of 2-cyano-4'-methylbiphenyl (Liquid); method: UV spectrophotometry
Temperature, K	Mole fraction of 2-cyano-4'-methylbiphenyl	uncertainty
268.05	0.16	0.006
273.05	0.192	0.008
278.05	0.23	0.009
283.15	0.277	0.011
288.15	0.332	0.013
293.25	0.4	0.016
297.95	0.474	0.019
303.25	0.566	0.023

System: butyl ethanoate + 2-cyano-4'-methylbiphenyl; phases: Liquid, Crystal
Fixed: Pressure, kPa = 101.3
Property: Mole fraction of 2-cyano-4'-methylbiphenyl (Liquid); method: UV spectrophotometry
Temperature, K	Mole fraction of 2-cyano-4'-methylbiphenyl	uncertainty
268.05	0.121	0.005
273.05	0.15	0.006
278.05	0.186	0.008
283.15	0.226	0.009
288.15	0.282	0.011
293.25	0.354	0.014
297.95	0.44	0.018
303.25	0.562	0.023

System: acetone + 2-cyano-4'-methylbiphenyl; phases: Liquid, Crystal
Fixed: Pressure, kPa = 101.3
Property: Mole fraction of 2-cyano-4'-methylbiphenyl (Liquid); method: UV spectrophotometry
Temperature, K	Mole fraction of 2-cyano-4'-methylbiphenyl	uncertainty
268.05	0.185	0.007
273.05	0.224	0.009
278.05	0.269	0.011
283.15	0.322	0.013
288.15	0.381	0.015
293.25	0.449	0.018
297.95	0.513	0.021
303.25	0.595	0.024

System: acetonitrile + 2-cyano-4'-methylbiphenyl; phases: Liquid, Crystal
Fixed: Pressure, kPa = 101.3
Property: Mole fraction of 2-cyano-4'-methylbiphenyl (Liquid); method: UV spectrophotometry
Temperature, K	Mole fraction of 2-cyano-4'-methylbiphenyl	uncertainty
268.05	0.0878	0.0036
273.05	0.124	0.005
278.05	0.18	0.007
283.15	0.239	0.01
288.15	0.315	0.013
293.25	0.398	0.016
297.95	0.481	0.019
303.25	0.588	0.024
