Measured thermophysical data. Critical parameters for ammonia
Source: J. Chem. Thermodyn., 2005, 10.1016/j.jct.2004.12.016
Compound 1: ammonia, H3N, InChI=1S/H3N/h1H3, purity 99.9995%

System: ammonia; phases: Liquid, Gas
Property: Critical temperature, K (Liquid); method: Visual observation in an unstirred cell
Critical temperature, K	uncertainty
405.56	0.06

System: ammonia; phases: Liquid, Gas
Property: Critical density, kg/m3 (Liquid); method: metal-bellows volumometer
Critical density, kg/m3	uncertainty
244	2

System: ammonia; phases: Liquid, Gas
Property: Vapor or sublimation pressure, kPa (Liquid); method: Closed cell (Static) method
Temperature, K	Vapor or sublimation pressure, kPa	uncertainty
310	1423.6	2.9
310	1423.3	2.9
310	1423.1	2.9
310	1422.9	2.9
310	1423.3	2.9
310	1423.6	2.9
310	1423.8	2.9
310	1424	2.9
350	3866.7	6.3
350	3867.2	6.3
350	3867	6.3
350	3866.8	6.3
350	3867.4	6.3
350	3867.2	6.3
400	10301.2	16.2
400	10301.6	16.2
400	10303.7	16.2
400	10302.8	16.2

System: ammonia; phases: Liquid, Gas
Property: Vapor or sublimation pressure, kPa (Liquid); method: Closed cell (Static) method
Temperature, K	Vapor or sublimation pressure, kPa	uncertainty
404.5	11147.8	0.0325
404.5	11150.6	0.0325
404.5	11150.4	0.0325
404.5	11151	0.0325
404.5	11151.2	0.0325
405.5	11343.1	0.0331
405.53	11350.7	0.0332
405.54	11354.5	0.0328
405.54	11354.4	0.0328
405.54	11353.6	0.0328
405.54	11352.4	0.0328
405.54	11354	0.0328
405.54	11352.6	0.0328
405.55	11353.6	0.0328
405.55	11354.7	0.0327
405.55	11355.7	0.0328
405.55	11358.5	0.0337
405.55	11357.8	0.0334

System: ammonia; phases: Fluid (supercritical or subcritical phases)
Property: Mass density, kg/m3 (Fluid (supercritical or subcritical phases)); method: ISOCHOR
Temperature, K	Pressure, kPa	Mass density, kg/m3	uncertainty
405.55	11351.3	235.01	2
405.55	11354.9	249.99	2
405.55	11358.9	255.19	2
405.56	11355.8	241.93	2
405.56	11355.3	242.91	2
405.56	11359.2	244	2
405.56	11355	244.06	2
405.56	11357.5	244.95	2
405.565	11356.2	242.97	2
405.565	11358	243.49	2
405.565	11357.4	244.01	2
405.57	11360.1	241.94	2
405.57	11370.2	242.83	2
405.57	11357.8	242.95	2
405.57	11360.7	243.96	2
405.57	11359.5	244.1	2
405.57	11360.3	245.04	2
405.58	11361.6	242.02	2
405.58	11359.9	243.01	2
405.58	11362.5	244.08	2
405.58	11362.5	244.99	2
405.6	11355.4	224.92	2
405.6	11356.1	229.9	2
405.6	11361.7	235.14	2
405.6	11363	239.9	2
405.6	11367.2	245.12	2
