Measured thermophysical data. Heat capacity and standard molar enthalpy of formation of crystalline 2,6-dicarboxypyridine (C7H5NO4)
Source: J. Chem. Thermodyn., 2006, 10.1016/j.jct.2006.03.007
Compound 1: carbon dioxide, CO2, InChI=1S/CO2/c2-1-3
Compound 2: nitrogen, N2, InChI=1S/N2/c1-2
Compound 3: water, H2O, InChI=1S/H2O/h1H2
Compound 4: oxygen, O2, InChI=1S/O2/c1-2
Compound 5: pyridine-2,6-dicarboxylic acid, C7H5NO4, InChI=1S/C7H5NO4/c9-6(10)4-2-1-3-5(8-4)7(11)12/h1-3H,(H,9,10)(H,11,12), purity 98%

System: pyridine-2,6-dicarboxylic acid; phases: Crystal
Fixed: Pressure, kPa = 101.325
Property: Molar heat capacity at constant pressure, J/K/mol (Crystal); method: VADIAC:UFactor:100
Temperature, K	Molar heat capacity at constant pressure, J/K/mol	uncertainty
84.05	56.423	15.285
86.4	56.444	15.289
88.71	56.499	15.3
90.97	56.587	25.659
93.19	56.706	25.671
95.37	56.854	25.685
97.51	57.029	25.703
99.63	57.231	25.723
101.72	57.457	25.746
103.77	57.706	25.771
105.81	57.978	25.798
107.81	58.272	25.827
109.8	58.586	25.859
111.76	58.921	25.892
113.7	59.273	25.927
115.63	59.645	25.965
117.53	60.034	26.003
119.42	60.441	26.044
121.29	60.864	26.086
123.15	61.305	26.131
124.99	61.759	26.176
126.82	62.23	26.223
128.63	62.715	26.272
130.43	63.215	26.322
132.22	63.729	26.373
133.99	64.255	26.426
135.76	64.796	26.48
137.51	65.348	26.535
139.25	65.914	26.591
140.98	66.491	26.649
142.69	67.08	26.708
144.4	67.681	26.768
146.1	68.291	26.829
147.79	68.914	26.891
149.46	69.546	26.955
151.13	70.19	27.019
152.79	70.842	27.084
154.44	71.505	27.151
156.08	72.177	27.218
157.72	72.859	27.286
159.35	73.55	27.355
160.97	74.252	27.425
162.58	74.962	27.496
164.18	75.676	27.568
165.77	76.399	27.64
167.35	77.128	27.713
168.92	77.865	27.787
170.49	78.607	27.861
172.04	79.359	27.936
173.59	80.114	28.011
175.13	80.877	28.088
176.66	81.647	28.165
178.19	82.423	28.242
179.71	83.204	28.32
181.22	83.993	28.399
182.72	84.785	28.479
184.23	85.587	28.559
185.73	86.394	28.639
187.22	87.209	28.721
188.71	88.027	28.803
190.19	88.851	28.885
191.66	89.68	28.968
193.13	90.516	29.052
194.59	91.353	29.135
196.06	92.199	29.22
197.5	93.042	29.304
200.08	94.567	29.457
204.09	96.99	29.699
207.23	98.921	29.892
209.37	100.26	30.03
211.49	101.59	30.16
213.62	102.95	30.3
217.8	105.66	30.57
219.85	107.01	30.7
221.9	108.37	30.84
223.94	109.74	30.97
225.95	111.1	31.11
227.91	112.43	31.24
229.9	113.8	31.38
231.78	115.1	31.51
233.73	116.46	31.65
235.64	117.81	31.78
237.61	119.2	31.92
239.52	120.56	32.06
241.4	121.91	32.19
243.27	123.26	32.33
245.17	124.63	32.46
247.09	126.04	32.6
248.98	127.43	32.74
250.89	128.84	32.88
252.77	130.24	33.02
254.65	131.65	33.17
256.51	133.04	33.3
258.38	134.45	33.45
260.23	135.86	33.59
262.08	137.27	33.73
263.92	138.68	33.87
265.74	140.08	34.01
267.58	141.5	34.15
269.4	142.91	34.29
271.2	144.31	34.43
273	145.72	34.57
274.79	147.12	34.71
276.55	148.51	34.85
278.32	149.91	34.99
280.09	151.31	35.13
281.85	152.71	35.27
283.59	154.09	35.41
285.32	155.48	35.55
287.04	156.85	35.69
288.74	158.22	35.82
290.44	159.59	35.96
292.1	160.93	36.09
293.75	162.27	36.23
295.39	163.6	36.36
297.06	164.95	36.5
298.72	166.31	36.63
300.37	167.65	36.77
302.01	168.99	36.9
303.64	170.32	37.03
305.27	171.65	37.17
306.88	172.98	37.3
310.09	175.62	37.56
311.68	176.93	37.69
313.25	178.21	37.82
314.76	179.47	37.95
316.65	181.03	38.1
319.26	183.18	38.32
322.04	185.48	38.55
324.78	187.75	38.78
327.48	189.98	39
330.16	192.2	39.22
332.81	194.4	39.44
335.45	196.59	39.66
338.09	198.77	39.88
340.74	200.97	40.1
343.44	203.2	40.32
346.14	205.43	40.54
348.74	207.58	40.76
351.31	209.7	40.97
353.85	211.78	41.18
356.38	213.86	41.39
358.86	215.9	41.59
361.34	217.92	41.79
363.79	219.91	41.99
366.21	221.88	42.19
368.6	223.82	42.38
370.97	225.73	42.57
375.64	229.5	42.95
378	231.38	43.14

Reaction: -1 pyridine-2,6-dicarboxylic acid + 7 carbon dioxide + .5 nitrogen + 2.5 water + -6.25 oxygen
Property: Molar internal energy of reaction at constant volume, kJ/mol
-2744.51
