Measured thermophysical data. High pressure densities of two nanostructured liquids based on the bis(trifluoromethylsulfonyl)imide anion from (278 to 398) K and up to 120 MPa
Source: J. Chem. Thermodyn., 2018, 10.1016/j.jct.2017.10.012
Compound 1: butyltrimethylammonium bis(trifluoromethylsulfonyl)imide, C9H18F6N2O4S2, InChI=1S/C7H18N.C2F6NO4S2/c1-5-6-7-8(2,3)4;3-1(4,5)14(10,11)9-15(12,13)2(6,7)8/h5-7H2,1-4H3;/q+1;-1
Compound 2: 1-butyl-3-methylpyridinium 1,1,1-trifluoro-N-[(trifluoromethyl)sulfonyl]methanesulfonamide, C12H16F6N2O4S2, InChI=1S/C10H16N.C2F6NO4S2/c1-3-4-7-11-8-5-6-10(2)9-11;3-1(4,5)14(10,11)9-15(12,13)2(6,7)8/h5-6,8-9H,3-4,7H2,1-2H3;/q+1;-1

System: butyltrimethylammonium bis(trifluoromethylsulfonyl)imide; phases: Liquid
Property: Mass density, kg/m3 (Liquid); method: Vibrating tube method
Temperature, K	Pressure, kPa	Mass density, kg/m3	uncertainty
278.15	100	1411.9	0.8
278.15	1000	1412.6	0.8
278.15	10000	1419	0.9
278.15	20000	1425.6	1
278.15	40000	1438.3	1.3
278.15	60000	1450	1.6
278.15	80000	1460.7	1.9
278.15	100000	1470.6	2.3
278.15	120000	1480.6	2.7
298.15	100	1394	0.8
298.15	1000	1394.7	0.8
298.15	10000	1401.2	0.9
298.15	20000	1408.2	1
298.15	40000	1421.2	1.2
298.15	60000	1433.1	1.5
298.15	80000	1444.1	1.8
298.15	100000	1454.5	2.2
298.15	120000	1464.3	2.6
313.15	100	1380.9	0.8
313.15	1000	1381.6	0.8
313.15	10000	1388.4	0.9
313.15	20000	1395.7	1
313.15	40000	1409.2	1.2
313.15	60000	1421.7	1.5
313.15	80000	1433	1.8
313.15	100000	1443.7	2.2
313.15	120000	1453.7	2.6
333.15	100	1363.4	0.8
333.15	1000	1364.2	0.8
333.15	10000	1371.6	0.9
333.15	20000	1379.3	1
333.15	40000	1393.4	1.2
333.15	60000	1406.4	1.4
333.15	80000	1418.3	1.7
333.15	100000	1429.5	2.1
333.15	120000	1439.8	2.5
348.15	100	1350.3	0.8
348.15	1000	1351	0.8
348.15	10000	1358.7	0.9
348.15	20000	1366.7	0.9
348.15	40000	1381.5	1.2
348.15	60000	1394.9	1.4
348.15	80000	1407.1	1.7
348.15	100000	1418.6	2.1
348.15	120000	1429.3	2.5
373.15	100	1329.5	5
373.15	1000	1329.7	3
373.15	10000	1338	3
373.15	20000	1346.6	3.1
373.15	40000	1362.3	3.1
373.15	60000	1376.5	3.2
373.15	80000	1389.5	3.4
373.15	100000	1401.5	3.5
373.15	120000	1412.7	3.7
398.15	100	1309.1	5
398.15	1000	1308.9	3
398.15	10000	1317.8	3
398.15	20000	1327	3.1
398.15	40000	1343.7	3.1
398.15	60000	1358.6	3.2
398.15	80000	1372.3	3.3
398.15	100000	1384.8	3.5
398.15	120000	1396.6	3.6

System: butyltrimethylammonium bis(trifluoromethylsulfonyl)imide; phases: Liquid
Fixed: Pressure, kPa = 101.325
Property: Mass density, kg/m3 (Liquid); method: Vibrating tube method
Temperature, K	Mass density, kg/m3	uncertainty
278.15	1411.6	0.6
279.15	1410.6	0.6
280.15	1409.6	0.6
281.15	1408.6	0.6
282.15	1407.7	0.6
283.15	1406.7	0.6
284.15	1405.7	0.6
285.15	1404.8	0.6
286.15	1403.8	0.6
287.15	1402.9	0.6
288.15	1402	0.6
289.15	1401	0.6
290.15	1400.1	0.6
291.15	1399.2	0.6
292.15	1398.3	0.6
293.15	1397.4	0.6
294.15	1396.5	0.6
295.15	1395.6	0.6
296.15	1394.7	0.6
297.15	1393.8	0.6
298.15	1392.9	0.6
299.15	1392	0.6
300.15	1391.1	0.6
301.15	1390.2	0.6
302.15	1389.4	0.6
303.15	1388.5	0.6
304.15	1387.6	0.6
305.15	1386.7	0.6
306.15	1385.8	0.6
307.15	1385	0.6
308.15	1384.1	0.6
309.15	1383.2	0.6
310.15	1382.4	0.6
311.15	1381.5	0.6
312.15	1380.6	0.6
313.15	1379.7	0.6
314.15	1378.9	0.6
315.15	1378	0.6
316.15	1377.1	0.6
317.15	1376.3	0.6
318.15	1375.4	0.6
319.15	1374.5	0.6
320.15	1373.7	0.6
321.15	1372.8	0.6
322.15	1372	0.6
323.15	1371.1	0.6
324.15	1370.3	0.6
325.15	1369.4	0.6
326.15	1368.6	0.6
327.15	1367.7	0.6
328.15	1366.8	0.6
329.15	1366	0.6
330.15	1365.1	0.6
331.15	1364.3	0.6
332.15	1363.4	0.6
333.15	1362.6	0.6
334.15	1361.7	0.6
335.15	1360.9	0.6
336.15	1360	0.6
337.15	1359.2	0.6
338.15	1358.3	0.6
339.15	1357.5	0.6
340.15	1356.7	0.6
341.15	1355.9	0.6
342.15	1355	0.6
343.15	1354.1	0.6
344.15	1353.3	0.6
345.15	1352.6	0.6
346.15	1351.6	0.6
347.15	1350.8	0.6
348.15	1349.9	0.6
349.15	1349.2	0.6
350.15	1348.3	0.6
351.15	1347.4	0.6
352.15	1346.6	0.6
353.15	1345.7	0.6
354.15	1344.9	0.6
355.15	1344	0.6
356.15	1343.2	0.6
357.15	1342.3	0.6
358.15	1341.5	0.6
359.15	1340.6	0.6
360.15	1339.8	0.6
361.15	1338.9	0.6
362.15	1338	0.6
363.15	1337	0.6
364.15	1336.1	0.6
365.15	1335.2	0.6
366.15	1334.3	0.6
367.15	1333.4	0.6
368.15	1332.5	0.6
369.15	1331.7	0.6
370.15	1330.9	0.6
371.15	1330.1	0.6
372.15	1329.2	0.6
373.15	1328.4	0.6

System: 1-butyl-3-methylpyridinium 1,1,1-trifluoro-N-[(trifluoromethyl)sulfonyl]methanesulfonamide; phases: Liquid
Property: Mass density, kg/m3 (Liquid); method: Vibrating tube method
Temperature, K	Pressure, kPa	Mass density, kg/m3	uncertainty
278.15	100	1431.5	0.7
278.15	1000	1432.1	0.7
278.15	10000	1438.3	0.8
278.15	20000	1444.9	0.9
278.15	40000	1457.2	1.1
278.15	60000	1468.5	1.4
278.15	80000	1479.1	1.7
278.15	100000	1488.9	2.1
278.15	120000	1498.1	2.6
298.15	100	1413.3	0.7
298.15	1000	1414	0.7
298.15	10000	1420.4	0.8
298.15	20000	1427.3	0.9
298.15	40000	1440.1	1.1
298.15	60000	1452	1.4
298.15	80000	1463	1.7
298.15	100000	1473.5	2.1
298.15	120000	1483.1	2.5
313.15	100	1399.8	0.7
313.15	1000	1400.5	0.7
313.15	10000	1407.3	0.8
313.15	20000	1414.5	0.9
313.15	40000	1428	1.1
313.15	60000	1440.3	1.3
313.15	80000	1451.7	1.6
313.15	100000	1462.4	2
313.15	120000	1472.1	2.4
333.15	100	1381.5	0.7
333.15	1000	1382.2	0.7
333.15	10000	1389.6	0.8
333.15	20000	1397.2	0.8
333.15	40000	1411.4	1
333.15	60000	1424.4	1.3
333.15	80000	1436.3	1.6
333.15	100000	1447.5	2
333.15	120000	1457.6	2.4
348.15	100	1367.9	0.7
348.15	1000	1368.7	0.7
348.15	10000	1376.4	0.8
348.15	20000	1384.4	0.8
348.15	40000	1399.2	1
348.15	60000	1412.7	1.3
348.15	80000	1425	1.6
348.15	100000	1436.5	1.9
348.15	120000	1446.9	2.3
373.15	100	1346.3	5
373.15	1000	1346.5	3
373.15	10000	1354.8	3
373.15	20000	1363.4	3
373.15	40000	1379.2	3.1
373.15	60000	1393.5	3.2
373.15	80000	1406.6	3.3
373.15	100000	1418.7	3.4
373.15	120000	1429.9	3.6
398.15	100	1324.8	5
398.15	1000	1324.6	3
398.15	10000	1333.5	3
398.15	20000	1342.9	3
398.15	40000	1359.8	3.1
398.15	60000	1374.9	3.2
398.15	80000	1388.7	3.3
398.15	100000	1401.4	3.4
398.15	120000	1413.4	3.6

System: 1-butyl-3-methylpyridinium 1,1,1-trifluoro-N-[(trifluoromethyl)sulfonyl]methanesulfonamide; phases: Liquid
Fixed: Pressure, kPa = 101.325
Property: Mass density, kg/m3 (Liquid); method: Vibrating tube method
Temperature, K	Mass density, kg/m3	uncertainty
278.15	1430.9	0.5
279.15	1429.9	0.5
280.15	1428.9	0.5
281.15	1427.9	0.5
282.15	1427	0.5
283.15	1426	0.5
284.15	1425	0.5
285.15	1424	0.5
286.15	1423.1	0.5
287.15	1422.1	0.5
288.15	1421.2	0.5
289.15	1420.2	0.5
290.15	1419.3	0.5
291.15	1418.3	0.5
292.15	1417.4	0.5
293.15	1416.5	0.5
294.15	1415.6	0.5
295.15	1414.6	0.5
296.15	1413.7	0.5
297.15	1412.8	0.5
298.15	1411.9	0.5
299.15	1410.9	0.5
300.15	1410	0.5
301.15	1409.1	0.5
302.15	1408.2	0.5
303.15	1407.3	0.5
304.15	1406.4	0.5
305.15	1405.4	0.5
306.15	1404.5	0.5
307.15	1403.6	0.5
308.15	1402.7	0.5
309.15	1401.8	0.5
310.15	1400.9	0.5
311.15	1399.9	0.5
312.15	1399	0.5
313.15	1398.1	0.5
314.15	1397.2	0.5
315.15	1396.3	0.5
316.15	1395.4	0.5
317.15	1394.5	0.5
318.15	1393.6	0.5
319.15	1392.7	0.5
320.15	1391.8	0.5
321.15	1390.9	0.5
322.15	1390	0.5
323.15	1389.2	0.5
324.15	1388.2	0.5
325.15	1387.4	0.5
326.15	1386.5	0.5
327.15	1385.6	0.5
328.15	1384.7	0.5
329.15	1383.8	0.5
330.15	1382.9	0.5
331.15	1382.1	0.5
332.15	1381.3	0.5
333.15	1380.4	0.5
334.15	1379.4	0.5
335.15	1378.5	0.5
336.15	1377.6	0.5
337.15	1376.7	0.5
338.15	1375.8	0.5
339.15	1374.9	0.5
340.15	1374.1	0.5
341.15	1373.3	0.5
342.15	1372.4	0.5
343.15	1371.4	0.5
344.15	1370.5	0.5
345.15	1369.7	0.5
346.15	1368.7	0.5
347.15	1367.8	0.5
348.15	1366.9	0.5
349.15	1366	0.5
350.15	1364.9	0.5
351.15	1364	0.5
352.15	1363	0.5
353.15	1362.2	0.5
354.15	1361.2	0.5
355.15	1360.4	0.5
356.15	1359.4	0.5
357.15	1358.6	0.5
358.15	1357.7	0.5
359.15	1356.8	0.5
360.15	1356	0.5
361.15	1355.1	0.5
362.15	1354.3	0.5
363.15	1353.4	0.5
364.15	1352.6	0.5
365.15	1351.7	0.5
366.15	1350.9	0.5
367.15	1350	0.5
368.15	1349.2	0.5
369.15	1348.3	0.5
370.15	1347.5	0.5
371.15	1346.7	0.5
372.15	1345.8	0.5
373.15	1345	0.5
