Measured thermophysical data. A force field for MD simulations on rhenium organometallic compounds developed from enthalpy of sublimation and X-ray diffraction measurements
Source: J. Chem. Thermodyn., 2019, 10.1016/j.jct.2019.01.016
Compound 1: methyltrioxorhenium, CH3O3Re, InChI=1S/CH3.3O.Re/h1H3;;;;, purity 98%
Compound 2: decacarbonyldirhenium, C10O10Re2, InChI=1S/10CO.2Re/c10*1-2;;, purity 98%

System: methyltrioxorhenium; phases: Crystal, Liquid, Air at 1 atmosphere
Property: Normal melting temperature, K (Crystal); method: DTA
Normal melting temperature, K	uncertainty
385.74	0.39

System: methyltrioxorhenium; phases: Crystal, Liquid, Air at 1 atmosphere
Property: Molar enthalpy of transition or fusion, kJ/mol (Crystal); method: DSC
Molar enthalpy of transition or fusion, kJ/mol	uncertainty
19.7622173988	0.5383577952

System: methyltrioxorhenium; phases: Crystal, Gas
Property: Molar enthalpy of vaporization or sublimation, kJ/mol (Crystal); method: Static calorimetry
Temperature, K	Molar enthalpy of vaporization or sublimation, kJ/mol	uncertainty
298	70.24	0.52

System: methyltrioxorhenium; phases: Crystal
Fixed: Pressure, kPa = 101.325
Property: Mass density, kg/m3 (Crystal); method: X-ray diffraction
Temperature, K	Mass density, kg/m3	uncertainty
167	4254	7
214	4199	6
296	4124	80
296	4132	19

System: decacarbonyldirhenium; phases: Crystal 2, Crystal 1, Air at 1 atmosphere
Property: Triple point temperature, K (Crystal 2); method: DSC
Triple point temperature, K	uncertainty
366.75	0.92

System: decacarbonyldirhenium; phases: Crystal 1, Liquid, Air at 1 atmosphere
Property: Normal melting temperature, K (Crystal 1); method: DTA
Normal melting temperature, K	uncertainty
455.16	1.66

System: decacarbonyldirhenium; phases: Crystal 2, Crystal 1, Air at 1 atmosphere
Property: Molar enthalpy of transition or fusion, kJ/mol (Crystal 2); method: DSC
Molar enthalpy of transition or fusion, kJ/mol	uncertainty
15.296909145	0.38367882

System: decacarbonyldirhenium; phases: Crystal 1, Liquid, Air at 1 atmosphere
Property: Molar enthalpy of transition or fusion, kJ/mol (Crystal 1); method: DSC
Molar enthalpy of transition or fusion, kJ/mol	uncertainty
4.18262115	1.1353761

System: decacarbonyldirhenium; phases: Crystal 2, Gas
Property: Molar enthalpy of vaporization or sublimation, kJ/mol (Crystal 2); method: Static calorimetry
Temperature, K	Molar enthalpy of vaporization or sublimation, kJ/mol	uncertainty
332.8	96.05	0.98

System: decacarbonyldirhenium; phases: Crystal 2
Fixed: Pressure, kPa = 101.325
Property: Molar heat capacity at constant pressure, J/K/mol (Crystal 2); method: DSC
Temperature, K	Molar heat capacity at constant pressure, J/K/mol	uncertainty
298.15	391.8	52.7
303.15	396.5	49.6
308.15	401.1	46.6
313.15	405.5	43.8
318.15	409.8	41
323.15	413.9	38.7
328.15	417.9	36.2
333.15	421.8	34.2
338.15	425.5	32.3

System: decacarbonyldirhenium; phases: Crystal
Property: Mass density, kg/m3 (Crystal); method: X-ray diffraction
Temperature, K	Pressure, kPa	Mass density, kg/m3	uncertainty
293	101.325	2932	41
