Measured thermophysical data. Measurement and thermodynamic modelling of ternary liquid-liquid equilibrium for extraction of thioglycolic acid from aqueous solution with different solvents
Source: J. Chem. Thermodyn., 2017, 10.1016/j.jct.2017.06.015
Compound 1: 2-mercaptoacetic acid, C2H4O2S, InChI=1S/C2H4O2S/c3-2(4)1-5/h5H,1H2,(H,3,4), purity 99%
Compound 2: butyl ethanoate, C6H12O2, InChI=1S/C6H12O2/c1-3-4-5-8-6(2)7/h3-5H2,1-2H3, purity 99%
Compound 3: 1-methylethyl ethanoate, C5H10O2, InChI=1S/C5H10O2/c1-4(2)7-5(3)6/h4H,1-3H3, purity 99%
Compound 4: water, H2O, InChI=1S/H2O/h1H2, purity 99.8%
Compound 5: 2-methylpropyl ethanoate, C6H12O2, InChI=1S/C6H12O2/c1-5(2)4-8-6(3)7/h5H,4H2,1-3H3, purity 99%

System: butyl ethanoate + 2-mercaptoacetic acid + water; phases: Liquid mixture 1, Liquid mixture 2
Fixed: Pressure, kPa = 101.3
Fixed: Temperature, K = 293.15
Property: Mass fraction of 2-mercaptoacetic acid (Liquid mixture 1); method: Titration method
Mass fraction of butyl ethanoate	Mass fraction of 2-mercaptoacetic acid	uncertainty
0.9275	0.0529	0.0026
0.844	0.1235	0.0041
0.7649	0.1898	0.0059
0.6886	0.2517	0.0078
0.6054	0.3127	0.0097
0.4912	0.3858	0.012
0.3309	0.447	0.0139
0.2182	0.4522	0.014
0.1244	0.4338	0.0134
0.0602	0.3937	0.0122
0.0285	0.3384	0.0108
0.0158	0.2724	0.0112
0.0112	0.2008	0.025
0.0087	0.0922	0.017
0.0009	0.0096	0.0096

System: butyl ethanoate + 2-mercaptoacetic acid + water; phases: Liquid mixture 2, Liquid mixture 1
Fixed: Temperature, K = 293.15
Fixed: Pressure, kPa = 101.3
Property: Mass fraction of butyl ethanoate (Liquid mixture 2); method: Chromatography
Property: Mass fraction of butyl ethanoate (Liquid mixture 1); method: Chromatography
Property: Mass fraction of 2-mercaptoacetic acid (Liquid mixture 1); method: Chromatography
Mass fraction of 2-mercaptoacetic acid	Mass fraction of butyl ethanoate	uncertainty	Mass fraction of butyl ethanoate	uncertainty	Mass fraction of 2-mercaptoacetic acid	uncertainty
0.1432	0.8212	0.0034	0.0022	0.002	0.088	
0.1814	0.7752	0.0035	0.0026	0.002	0.1026	
0.2262	0.7197	0.0038	0.0034	0.002	0.1256	
0.2576	0.6798	0.004	0.0039	0.002	0.138	
0.297	0.6276	0.0043	0.005	0.002	0.16	
0.3169	0.6001	0.0045	0.0059	0.002	0.1749	
0.355	0.5441	0.0048	0.008	0.002	0.2032	

System: 2-methylpropyl ethanoate + 2-mercaptoacetic acid + water; phases: Liquid mixture 1, Liquid mixture 2
Fixed: Pressure, kPa = 101.3
Fixed: Temperature, K = 293.15
Property: Mass fraction of 2-mercaptoacetic acid (Liquid mixture 1); method: Titration method
Mass fraction of 2-methylpropyl ethanoate	Mass fraction of 2-mercaptoacetic acid	uncertainty
0.9516	0.0316	0.0024
0.8827	0.094	0.0034
0.8179	0.1471	0.0047
0.6229	0.3038	0.0094
0.4906	0.3861	0.012
0.4014	0.4264	0.0132
0.3317	0.4469	0.0138
0.273	0.4533	0.014
0.2168	0.4536	0.0141
0.1628	0.4512	0.014
0.0589	0.3992	0.0124
0.0214	0.3166	0.0104
0.0116	0.2177	0.0474
0.0094	0.1144	0.0471
0.0006	0.0041	0.0041

System: 2-methylpropyl ethanoate + 2-mercaptoacetic acid + water; phases: Liquid mixture 2, Liquid mixture 1
Fixed: Temperature, K = 293.15
Fixed: Pressure, kPa = 101.3
Property: Mass fraction of 2-methylpropyl ethanoate (Liquid mixture 2); method: Chromatography
Property: Mass fraction of 2-methylpropyl ethanoate (Liquid mixture 1); method: Chromatography
Property: Mass fraction of 2-mercaptoacetic acid (Liquid mixture 1); method: Chromatography
Mass fraction of 2-mercaptoacetic acid	Mass fraction of 2-methylpropyl ethanoate	uncertainty	Mass fraction of 2-methylpropyl ethanoate	uncertainty	Mass fraction of 2-mercaptoacetic acid	uncertainty
0.1279	0.8417	0.0033	0.0016	0.0016	0.0833	
0.1731	0.7881	0.0035	0.0021	0.002	0.1015	
0.2093	0.7442	0.0037	0.0026	0.002	0.1211	
0.2452	0.6993	0.0039	0.0033	0.002	0.1402	
0.2817	0.652	0.0041	0.004	0.002	0.157	
0.3058	0.6193	0.0044	0.0048	0.002	0.1741	
0.3406	0.5691	0.0047	0.006	0.002	0.1932	
0.3629	0.5342	0.005	0.0077	0.002	0.2161	

System: 1-methylethyl ethanoate + 2-mercaptoacetic acid + water; phases: Liquid mixture 1, Liquid mixture 2
Fixed: Pressure, kPa = 101.3
Fixed: Temperature, K = 293.15
Property: Mass fraction of 2-mercaptoacetic acid (Liquid mixture 1); method: Titration method
Mass fraction of 1-methylethyl ethanoate	Mass fraction of 2-mercaptoacetic acid	uncertainty
0.9611	0.0191	0.0022
0.8677	0.0966	0.0035
0.6788	0.2458	0.0077
0.5135	0.3574	0.0111
0.421	0.3995	0.0124
0.3549	0.4096	0.0127
0.2904	0.4193	0.013
0.2328	0.4172	0.0129
0.1767	0.411	0.0127
0.0987	0.358	0.0111
0.0669	0.3214	0.01
0.0428	0.2888	0.0093
0.0289	0.2138	0.0087
0.0117	0.1123	0.0091
0.0047	0.001	0.001

System: 1-methylethyl ethanoate + 2-mercaptoacetic acid + water; phases: Liquid mixture 2, Liquid mixture 1
Fixed: Temperature, K = 293.15
Fixed: Pressure, kPa = 101.3
Property: Mass fraction of 1-methylethyl ethanoate (Liquid mixture 2); method: Chromatography
Property: Mass fraction of 1-methylethyl ethanoate (Liquid mixture 1); method: Chromatography
Property: Mass fraction of 2-mercaptoacetic acid (Liquid mixture 1); method: Chromatography
Mass fraction of 2-mercaptoacetic acid	Mass fraction of 1-methylethyl ethanoate	uncertainty	Mass fraction of 1-methylethyl ethanoate	uncertainty	Mass fraction of 2-mercaptoacetic acid	uncertainty
0.0889	0.8765	0.0033	0.0076	0.002	0.0605	
0.3676	0.4963	0.0058	0.0218	0.002	0.1901	
0.3917	0.4401	0.006	0.0264	0.002	0.2144	
0.1323	0.8228	0.0034	0.0086	0.002	0.075	
0.1702	0.7755	0.0036	0.01	0.002	0.093	
0.2093	0.726	0.0038	0.0112	0.002	0.1069	
0.2461	0.6782	0.004	0.0126	0.002	0.1216	
0.2799	0.6329	0.0043	0.0142	0.002	0.1367	
0.3248	0.5685	0.0047	0.0164	0.002	0.1545	
0.3468	0.5335	0.0051	0.0187	0.002	0.1711	
