Measured thermophysical data. Heat capacities and thermal diffusivities of some n-alkanoic acid methyl esters
Source: J. Chem. Thermodyn., 2019, 10.1016/j.jct.2018.09.024
Compound 1: methyl hexanoate, C7H14O2, InChI=1S/C7H14O2/c1-3-4-5-6-7(8)9-2/h3-6H2,1-2H3, purity 99.9%
Compound 2: methyl heptanoate, C8H16O2, InChI=1S/C8H16O2/c1-3-4-5-6-7-8(9)10-2/h3-7H2,1-2H3, purity 99.8%
Compound 3: methyl octanoate, C9H18O2, InChI=1S/C9H18O2/c1-3-4-5-6-7-8-9(10)11-2/h3-8H2,1-2H3, purity 99.1%
Compound 4: methyl nonanoate, C10H20O2, InChI=1S/C10H20O2/c1-3-4-5-6-7-8-9-10(11)12-2/h3-9H2,1-2H3, purity 98.9%
Compound 5: methyl decanoate, C11H22O2, InChI=1S/C11H22O2/c1-3-4-5-6-7-8-9-10-11(12)13-2/h3-10H2,1-2H3, purity 99.9%
Compound 6: methyl undecanoate, C12H24O2, InChI=1S/C12H24O2/c1-3-4-5-6-7-8-9-10-11-12(13)14-2/h3-11H2,1-2H3, purity 98.6%
Compound 7: methyl dodecanoate, C13H26O2, InChI=1S/C13H26O2/c1-3-4-5-6-7-8-9-10-11-12-13(14)15-2/h3-12H2,1-2H3, purity 99.1%

System: methyl hexanoate; phases: Liquid
Fixed: Pressure, kPa = 101.325
Property: Molar heat capacity at constant pressure, J/K/mol (Liquid); method: DSC
Temperature, K	Molar heat capacity at constant pressure, J/K/mol	uncertainty
303.15	246.4	10
313.15	248.8	10.1
323.15	251.5	10.2
333.15	254.6	10.3
343.15	257.9	10.5
353.15	261.5	10.6
363.15	265.5	10.8
373.15	269.6	11

System: methyl hexanoate; phases: Liquid
Fixed: Pressure, kPa = 101.325
Property: Thermal diffusivity, m2/s (Liquid); method: Laser flash apparatus
Temperature, K	Thermal diffusivity, m2/s	uncertainty
303.15	7.76e-08	4.1e-09
313.15	7.66e-08	4.1e-09
323.15	7.56e-08	4e-09
333.15	7.46e-08	4e-09

System: methyl heptanoate; phases: Liquid
Fixed: Pressure, kPa = 101.325
Property: Molar heat capacity at constant pressure, J/K/mol (Liquid); method: DSC
Temperature, K	Molar heat capacity at constant pressure, J/K/mol	uncertainty
303.15	289.2	11.7
313.15	292.5	11.9
323.15	296.2	12
333.15	300.1	12.2
343.15	304.3	12.4
353.15	308.6	12.5
363.15	312.8	12.7
373.15	316.9	12.9

System: methyl heptanoate; phases: Liquid
Fixed: Pressure, kPa = 101.325
Property: Thermal diffusivity, m2/s (Liquid); method: Laser flash apparatus
Temperature, K	Thermal diffusivity, m2/s	uncertainty
303.15	7.82e-08	4.2e-09
313.15	7.71e-08	4.1e-09
323.15	7.59e-08	4.1e-09
333.15	7.48e-08	4e-09
343.15	7.36e-08	3.9e-09
353.15	7.25e-08	3.9e-09
363.15	7.14e-08	3.8e-09

System: methyl octanoate; phases: Liquid
Fixed: Pressure, kPa = 101.325
Property: Molar heat capacity at constant pressure, J/K/mol (Liquid); method: DSC
Temperature, K	Molar heat capacity at constant pressure, J/K/mol	uncertainty
303.15	316.6	12.9
313.15	320.5	13
323.15	324.4	13.2
333.15	328.7	13.4
343.15	333.2	13.5
353.15	337.8	13.7
363.15	342.8	13.9
373.15	347	14.1

System: methyl octanoate; phases: Liquid
Fixed: Pressure, kPa = 101.325
Property: Thermal diffusivity, m2/s (Liquid); method: Laser flash apparatus
Temperature, K	Thermal diffusivity, m2/s	uncertainty
303.15	7.92e-08	4.2e-09
313.15	7.81e-08	4.2e-09
323.15	7.69e-08	4.1e-09
333.15	7.57e-08	4e-09
343.15	7.46e-08	4e-09
353.15	7.34e-08	3.9e-09
363.15	7.22e-08	3.9e-09
373.15	7.11e-08	3.8e-09
383.15	6.99e-08	3.7e-09

System: methyl nonanoate; phases: Liquid
Fixed: Pressure, kPa = 101.325
Property: Molar heat capacity at constant pressure, J/K/mol (Liquid); method: DSC
Temperature, K	Molar heat capacity at constant pressure, J/K/mol	uncertainty
303.15	351.7	14.3
313.15	354.7	14.4
323.15	358.6	14.6
333.15	363.1	14.7
343.15	367.9	14.9
353.15	372.8	15.1
363.15	377.6	15.3
373.15	382	15.5

System: methyl nonanoate; phases: Liquid
Fixed: Pressure, kPa = 101.325
Property: Thermal diffusivity, m2/s (Liquid); method: Laser flash apparatus
Temperature, K	Thermal diffusivity, m2/s	uncertainty
303.15	8.01e-08	4.3e-09
313.15	7.89e-08	4.2e-09
323.15	7.78e-08	4.2e-09
333.15	7.66e-08	4.1e-09
343.15	7.54e-08	4e-09
353.15	7.43e-08	4e-09
363.15	7.31e-08	3.9e-09
373.15	7.19e-08	3.9e-09
383.15	7.08e-08	3.8e-09

System: methyl decanoate; phases: Liquid
Fixed: Pressure, kPa = 101.325
Property: Molar heat capacity at constant pressure, J/K/mol (Liquid); method: DSC
Temperature, K	Molar heat capacity at constant pressure, J/K/mol	uncertainty
303.15	384.7	15.6
313.15	387.6	15.7
323.15	391.8	15.9
333.15	396.7	16.1
343.15	401.9	16.3
353.15	407.3	16.5
363.15	412.4	16.8
373.15	417.2	16.9

System: methyl decanoate; phases: Liquid
Fixed: Pressure, kPa = 101.325
Property: Thermal diffusivity, m2/s (Liquid); method: Laser flash apparatus
Temperature, K	Thermal diffusivity, m2/s	uncertainty
303.15	8.1e-08	4.3e-09
313.15	7.99e-08	4.3e-09
323.15	7.87e-08	4.2e-09
333.15	7.75e-08	4.1e-09
343.15	7.64e-08	4.1e-09
353.15	7.52e-08	4e-09
363.15	7.4e-08	4e-09
373.15	7.28e-08	3.9e-09
383.15	7.17e-08	3.8e-09
393.15	7.05e-08	3.8e-09
403.15	6.93e-08	3.7e-09

System: methyl undecanoate; phases: Liquid
Fixed: Pressure, kPa = 101.325
Property: Molar heat capacity at constant pressure, J/K/mol (Liquid); method: DSC
Temperature, K	Molar heat capacity at constant pressure, J/K/mol	uncertainty
303.15	411.4	16.7
313.15	415.9	16.9
323.15	420.9	17.1
333.15	426.1	17.3
343.15	431.4	17.5
353.15	436.7	17.7
363.15	441.8	17.9
373.15	446.5	18.1

System: methyl undecanoate; phases: Liquid
Fixed: Pressure, kPa = 101.325
Property: Thermal diffusivity, m2/s (Liquid); method: Laser flash apparatus
Temperature, K	Thermal diffusivity, m2/s	uncertainty
303.15	8.22e-08	4.4e-09
313.15	8.1e-08	4.3e-09
323.15	7.98e-08	4.3e-09
333.15	7.86e-08	4.2e-09
343.15	7.74e-08	4.1e-09
353.15	7.62e-08	4.1e-09
363.15	7.5e-08	4e-09
373.15	7.38e-08	4e-09
383.15	7.26e-08	3.9e-09
393.15	7.14e-08	3.8e-09
403.15	7.02e-08	3.8e-09
413.15	6.9e-08	3.7e-09
423.15	6.78e-08	3.6e-09

System: methyl dodecanoate; phases: Liquid
Fixed: Pressure, kPa = 101.325
Property: Molar heat capacity at constant pressure, J/K/mol (Liquid); method: DSC
Temperature, K	Molar heat capacity at constant pressure, J/K/mol	uncertainty
303.15	449	18.2
313.15	452.8	18.4
323.15	457.4	18.6
333.15	462.6	18.8
343.15	468.4	19
353.15	474.5	19.3
363.15	480.7	19.5
373.15	486.8	19.8

System: methyl dodecanoate; phases: Liquid
Fixed: Pressure, kPa = 101.325
Property: Thermal diffusivity, m2/s (Liquid); method: Laser flash apparatus
Temperature, K	Thermal diffusivity, m2/s	uncertainty
303.15	8.27e-08	4.4e-09
313.15	8.15e-08	4.3e-09
323.15	8.03e-08	4.3e-09
333.15	7.91e-08	4.2e-09
343.15	7.79e-08	4.2e-09
353.15	7.67e-08	4.1e-09
363.15	7.55e-08	4e-09
373.15	7.43e-08	4e-09
383.15	7.3e-08	3.9e-09
393.15	7.18e-08	3.8e-09
403.15	7.06e-08	3.8e-09
413.15	6.94e-08	3.7e-09
423.15	6.82e-08	3.7e-09
