Measured thermophysical data. The measurements of coexistence curves and light scattering for {xC6H5CN+(1-x)CH3(CH2)10CH3} in the critical region
Source: J. Chem. Thermodyn., 2008, 10.1016/j.jct.2007.09.010
Compound 1: benzonitrile, C7H5N, InChI=1S/C7H5N/c8-6-7-4-2-1-3-5-7/h1-5H, purity 99%
Compound 2: dodecane, C12H26, InChI=1S/C12H26/c1-3-5-7-9-11-12-10-8-6-4-2/h3-12H2,1-2H3, purity 99%

System: benzonitrile; phases: Liquid
Fixed: Pressure, kPa = 101.32
Fixed: Wavelength, nm = 632.8
Property: Refractive index (other wavelength) (Liquid); method: Standard Abbe refractometry
Temperature, K	Refractive index (other wavelength)	uncertainty
283.929	1.5294	0.0004
285.769	1.5285	0.0004
287.734	1.5276	0.0004
289.735	1.5266	0.0004
291.662	1.5256	0.0004
293.646	1.5247	0.0004

System: dodecane; phases: Liquid
Fixed: Pressure, kPa = 101.32
Fixed: Wavelength, nm = 632.8
Property: Refractive index (other wavelength) (Liquid); method: Standard Abbe refractometry
Temperature, K	Refractive index (other wavelength)	uncertainty
282.185	1.4249	0.0004
284.236	1.424	0.0004
286.064	1.4233	0.0004
288.085	1.4225	0.0004
289.91	1.4217	0.0004
291.909	1.4207	0.0004
293.945	1.4199	0.0004

System: benzonitrile + dodecane; phases: Liquid
Fixed: Temperature, K = 293.6
Fixed: Pressure, kPa = 101.32
Fixed: Wavelength, nm = 632.8
Property: Refractive index (other wavelength) (Liquid); method: ABBE:UFactor:2
Mole fraction of benzonitrile	Refractive index (other wavelength)	uncertainty
0.0994	1.4247	0.0007
0.195	1.4302	0.0007
0.2945	1.436	0.0007
0.3954	1.4434	0.0007
0.4923	1.4507	0.0007
0.5859	1.4608	0.0007
0.6782	1.4711	0.0007
0.768	1.4832	0.0007
0.8871	1.5022	0.0007

System: benzonitrile + dodecane; phases: Liquid mixture 1, Liquid mixture 2
Fixed: Pressure, kPa = 101.32
Fixed: Wavelength, nm = 632.8
Property: Refractive index (other wavelength) (Liquid mixture 1); method: Standard Abbe refractometry
Temperature, K	Refractive index (other wavelength)	uncertainty
282.157	1.4963	0.0004
284.352	1.493	0.0004
285.677	1.4907	0.0004
286.81	1.4885	0.0004
287.761	1.4867	0.0004
288.693	1.4845	0.0004
289.464	1.4828	0.0004
290.08	1.4811	0.0004
290.583	1.4796	0.0004
291.027	1.4782	0.0004
291.446	1.4766	0.0004
291.781	1.4751	0.0004
292.062	1.4742	0.0006
292.086	1.4737	0.0006
292.307	1.4725	0.0004
292.479	1.4715	0.0004
292.617	1.4704	0.0004
292.72	1.4694	0.0005
292.815	1.4683	0.0005
292.882	1.4672	0.0005
292.916	1.4665	0.0006
292.946	1.4658	0.0008
292.968	1.465	0.0011
292.986	1.4642	0.0009
292.996	1.4633	0.0013
292.997	1.4626	0.0017
292.998	1.4623	0.0018

System: benzonitrile + dodecane; phases: Liquid mixture 2, Liquid mixture 1
Fixed: Pressure, kPa = 101.32
Fixed: Wavelength, nm = 632.8
Property: Refractive index (other wavelength) (Liquid mixture 2); method: Standard Abbe refractometry
Temperature, K	Refractive index (other wavelength)	uncertainty
282.157	1.4394	0.0004
284.352	1.4401	0.0004
285.677	1.4408	0.0004
286.81	1.4413	0.0004
287.761	1.4421	0.0004
288.693	1.4428	0.0004
289.464	1.4437	0.0004
290.08	1.4446	0.0004
290.583	1.4455	0.0004
291.027	1.4462	0.0004
291.446	1.4472	0.0004
291.781	1.448	0.0004
292.062	1.449	0.0005
292.086	1.4493	0.0005
292.307	1.4502	0.0004
292.479	1.4509	0.0004
292.617	1.4518	0.0004
292.72	1.4526	0.0004
292.815	1.4537	0.0005
292.882	1.4546	0.0005
292.916	1.4553	0.0006
292.946	1.456	0.0008
292.968	1.4567	0.0009
292.986	1.4575	0.0009
292.996	1.4583	0.0012
292.997	1.4588	0.0015
292.998	1.4589	0.0015

System: benzonitrile + dodecane; phases: Liquid mixture 1, Liquid mixture 2
Fixed: Pressure, kPa = 101.32
Property: Mole fraction of benzonitrile (Liquid mixture 1); method: Index of refraction calibration data
Temperature, K	Mole fraction of benzonitrile	uncertainty
282.157	0.82	0.002
284.352	0.805	0.002
285.677	0.794	0.002
286.81	0.783	0.002
287.761	0.774	0.002
288.693	0.762	0.002
289.464	0.752	0.002
290.08	0.742	0.002
290.583	0.733	0.002
291.027	0.724	0.002
291.446	0.713	0.002
291.781	0.703	0.002
292.062	0.696	0.003
292.086	0.693	0.003
292.307	0.684	0.002
292.479	0.676	0.002
292.617	0.668	0.002
292.72	0.66	0.003
292.815	0.651	0.003
292.882	0.642	0.004
292.916	0.636	0.004
292.946	0.63	0.006
292.968	0.623	0.009
292.986	0.616	0.007
292.996	0.607	0.012
292.997	0.602	0.015
292.998	0.598	0.017

System: benzonitrile + dodecane; phases: Liquid mixture 2, Liquid mixture 1
Fixed: Pressure, kPa = 101.32
Property: Mole fraction of benzonitrile (Liquid mixture 2); method: Index of refraction calibration data
Temperature, K	Mole fraction of benzonitrile	uncertainty
282.157	0.266	0.002
284.352	0.292	0.002
285.677	0.312	0.002
286.81	0.326	0.002
287.761	0.343	0.002
288.693	0.359	0.002
289.464	0.375	0.002
290.08	0.39	0.002
290.583	0.405	0.002
291.027	0.416	0.002
291.446	0.43	0.002
291.781	0.442	0.002
292.062	0.455	0.004
292.086	0.459	0.004
292.307	0.47	0.002
292.479	0.479	0.002
292.617	0.49	0.003
292.72	0.5	0.003
292.815	0.512	0.003
292.882	0.522	0.004
292.916	0.529	0.005
292.946	0.537	0.007
292.968	0.544	0.009
292.986	0.552	0.008
292.996	0.56	0.012
292.997	0.566	0.015
292.998	0.566	0.015
