Measured thermophysical data. (Liquid + liquid) equilibrium for ternary mixtures of {heptane + aromatic  compounds + [EMpy][ESO4]} at T = 298.15 K
Source: J. Chem. Thermodyn., 2011, 10.1016/j.jct.2011.05.009
Compound 1: heptane, C7H16, InChI=1S/C7H16/c1-3-5-7-6-4-2/h3-7H2,1-2H3, purity 99%
Compound 2: toluene, C7H8, InChI=1S/C7H8/c1-7-5-3-2-4-6-7/h2-6H,1H3, purity 99.9%
Compound 3: benzene, C6H6, InChI=1S/C6H6/c1-2-4-6-5-3-1/h1-6H, purity 99.8%
Compound 4: 1-ethyl-3-methylpyridinium ethylsulfate, C10H17NO4S, InChI=1S/C8H12N.C2H6O4S/c1-3-9-6-4-5-8(2)7-9;1-2-6-7(3,4)5/h4-7H,3H2,1-2H3;2H2,1H3,(H,3,4,5)/q+1;/p-1, purity 99%

System: toluene + heptane + 1-ethyl-3-methylpyridinium ethylsulfate; phases: Liquid mixture 1, Liquid mixture 2
Fixed: Temperature, K = 298.15
Fixed: Pressure, kPa = 101
Property: Mole fraction of heptane (Liquid mixture 1); method: Proton NMR spectrometry
Property: Mole fraction of heptane (Liquid mixture 2); method: Proton NMR spectrometry
Property: Mole fraction of toluene (Liquid mixture 2); method: Proton NMR spectrometry
Mole fraction of toluene	Mole fraction of heptane	uncertainty	Mole fraction of heptane	uncertainty	Mole fraction of toluene	uncertainty
0.14	0.86	0.01	0.016	0.004	0.047	
0.231	0.769	0.006	0.014	0.004	0.087	
0.333	0.667	0.006	0.005	0.004	0.121	
0.439	0.561	0.006	0.007	0.004	0.151	
0.521	0.479	0.006	0.005	0.004	0.171	
0.712	0.288	0.006	0.004	0.004	0.257	
0.808	0.192	0.004	0.003	0.003	0.285	

System: benzene + heptane + 1-ethyl-3-methylpyridinium ethylsulfate; phases: Liquid mixture 1, Liquid mixture 2
Fixed: Temperature, K = 298.15
Fixed: Pressure, kPa = 101
Property: Mole fraction of heptane (Liquid mixture 1); method: Proton NMR spectrometry
Property: Mole fraction of heptane (Liquid mixture 2); method: Proton NMR spectrometry
Property: Mole fraction of benzene (Liquid mixture 2); method: Proton NMR spectrometry
Mole fraction of benzene	Mole fraction of heptane	uncertainty	Mole fraction of heptane	uncertainty	Mole fraction of benzene	uncertainty
0.097	0.903	0.004	0.004	0.004	0.56	
0.198	0.802	0.006	0.004	0.004	0.129	
0.299	0.701	0.006	0.005	0.004	0.179	
0.388	0.612	0.006	0.005	0.004	0.26	
0.487	0.513	0.006	0.004	0.004	0.293	
0.576	0.424	0.006	0.005	0.004	0.334	
0.672	0.328	0.006	0.003	0.003	0.384	
0.775	0.225	0.004	0.003	0.003	0.437	
