Measured thermophysical data. Ternary liquid-liquid equilibria for systems containing (dimethyl carbonate or methyl acetate  +  methanol  +  1-methylmidazole hydrogen sulfate) at 298.15  K and 318.15  K
Source: J. Chem. Thermodyn., 2018, 10.1016/j.jct.2018.02.012
Compound 1: methyl ethanoate, C3H6O2, InChI=1S/C3H6O2/c1-3(4)5-2/h1-2H3, purity 99%
Compound 2: dimethyl carbonate, C3H6O3, InChI=1S/C3H6O3/c1-5-3(4)6-2/h1-2H3, purity 99.5%
Compound 3: methanol, CH4O, InChI=1S/CH4O/c1-2/h2H,1H3, purity 99.8%
Compound 4: 1-methylimidazolium hydrogen sulfate, C4H8N2O4S, InChI=1S/C4H6N2.H2O4S/c1-6-3-2-5-4-6;1-5(2,3)4/h2-4H,1H3;(H2,1,2,3,4), purity 98%

System: methyl ethanoate + methanol + 1-methylimidazolium hydrogen sulfate; phases: Liquid mixture 2, Liquid mixture 1
Fixed: Pressure, kPa = 100
Property: Mole fraction of methyl ethanoate (Liquid mixture 2); method: Chromatography
Property: Mole fraction of methanol (Liquid mixture 1); method: Chromatography
Property: Mole fraction of methyl ethanoate (Liquid mixture 1); method: Chromatography
Temperature, K	Mole fraction of methanol	Mole fraction of methyl ethanoate	uncertainty	Mole fraction of methanol	uncertainty	Mole fraction of methyl ethanoate	uncertainty
298.15	0.1582	0.0826	0.006	0.0575	0.0085	0.9425	
298.15	0.313	0.0934	0.0061	0.1515	0.0085	0.8485	
298.15	0.4249	0.1098	0.0061	0.2247	0.0085	0.7734	
298.15	0.4755	0.118	0.0064	0.2876	0.0085	0.7087	
298.15	0.5131	0.142	0.0074	0.3423	0.0085	0.6502	
298.15	0.5393	0.1626	0.0077	0.3952	0.0086	0.5901	
298.15	0.5437	0.2378	0.0198	0.4663	0.008	0.4863	
318.15	0.1571	0.0959	0.0061	0.0597	0.0085	0.9396	
318.15	0.2478	0.1018	0.0061	0.1025	0.0085	0.8966	
318.15	0.3221	0.1049	0.006	0.1574	0.0085	0.8411	
318.15	0.3739	0.106	0.0061	0.1957	0.0081	0.8016	
318.15	0.454	0.1197	0.0062	0.2471	0.008	0.7394	
318.15	0.5	0.1369	0.0075	0.3033	0.008	0.6706	
318.15	0.5468	0.187	0.0089	0.4234	0.0082	0.5175	

System: dimethyl carbonate + methanol + 1-methylimidazolium hydrogen sulfate; phases: Liquid mixture 2, Liquid mixture 1
Fixed: Pressure, kPa = 100
Property: Mole fraction of dimethyl carbonate (Liquid mixture 2); method: Chromatography
Property: Mole fraction of methanol (Liquid mixture 1); method: Chromatography
Property: Mole fraction of dimethyl carbonate (Liquid mixture 1); method: Chromatography
Temperature, K	Mole fraction of methanol	Mole fraction of dimethyl carbonate	uncertainty	Mole fraction of methanol	uncertainty	Mole fraction of dimethyl carbonate	uncertainty
298.15	0.1277	0.0839	0.0061	0.0442	0.0084	0.9558	
298.15	0.2487	0.099	0.0061	0.0863	0.0085	0.9129	
298.15	0.3472	0.1181	0.0062	0.1264	0.0086	0.8736	
298.15	0.4466	0.1456	0.0065	0.2009	0.0085	0.7991	
298.15	0.4925	0.175	0.0074	0.2323	0.0084	0.765	
298.15	0.5389	0.2094	0.0088	0.2986	0.0085	0.6957	
298.15	0.5671	0.2546	0.0115	0.3601	0.0083	0.6283	
298.15	0.5692	0.3038	0.0197	0.438	0.0088	0.5347	
318.15	0.0921	0.093	0.0062	0.0371	0.0085	0.9623	
318.15	0.1843	0.1119	0.0061	0.075	0.0085	0.9242	
318.15	0.2931	0.1211	0.0061	0.1197	0.0085	0.8794	
318.15	0.375	0.1325	0.0063	0.161	0.0084	0.8381	
318.15	0.4694	0.171	0.0072	0.2544	0.0083	0.7389	
318.15	0.5444	0.2386	0.0083	0.3487	0.0083	0.6286	
