Measured thermophysical data. A new theoretical model - The ionic molar surface Gibbs free energy and its application
Source: J. Chem. Thermodyn., 2018, 10.1016/j.jct.2017.08.035
Compound 1: 1-ethyl-3-(2-methoxyethyl)imidazolium acetate, C10H18N2O3, InChI=1S/C8H15N2O.C2H4O2/c1-3-9-4-5-10(8-9)6-7-11-2;1-2(3)4/h4-5,8H,3,6-7H2,1-2H3;1H3,(H,3,4)/q+1;/p-1, purity 99%
Compound 2: 1-ethyl-3-(2-methoxyethyl)imidazolium thiocyanate, C9H15N3OS, InChI=1S/C8H15N2O.CHNS/c1-3-9-4-5-10(8-9)6-7-11-2;2-1-3/h4-5,8H,3,6-7H2,1-2H3;3H/q+1;/p-1, purity 99%
Compound 3: 1-ethyl-3-(2-methoxyethyl)imidazolium trifluoromethanesulfonate, C9H15F3N2O4S, InChI=1S/C8H15N2O.CHF3O3S/c1-3-9-4-5-10(8-9)6-7-11-2;2-1(3,4)8(5,6)7/h4-5,8H,3,6-7H2,1-2H3;(H,5,6,7)/q+1;/p-1, purity 99%
Compound 4: 1-ethyl-3-(2-methoxyethyl)imidazolium dicyanamide, C10H15N5O, InChI=1S/C8H15N2O.C2N3/c1-3-9-4-5-10(8-9)6-7-11-2;3-1-5-2-4/h4-5,8H,3,6-7H2,1-2H3;/q+1;-1, purity 99%
Compound 5: 1-ethyl-3-(2-methoxyethyl)imidazolium bis(trifluoromethylsulfonyl)imide, C10H15F6N3O5S2, InChI=1S/C8H15N2O.C2F6NO4S2/c1-3-9-4-5-10(8-9)6-7-11-2;3-1(4,5)14(10,11)9-15(12,13)2(6,7)8/h4-5,8H,3,6-7H2,1-2H3;/q+1;-1, purity 99%
Compound 6: water, H2O, InChI=1S/H2O/h1H2

System: 1-ethyl-3-(2-methoxyethyl)imidazolium acetate; phases: Liquid
Fixed: Pressure, kPa = 100
Property: Mass density, kg/m3 (Liquid); method: Vibrating tube method
Temperature, K	Mass density, kg/m3	uncertainty
298.15	1192.38	4.61
303.15	1189.07	4.61
308.15	1185.74	4.61
313.15	1182.43	4.61
318.15	1179.14	4.61
323.15	1175.86	4.61
328.15	1172.58	4.61
333.15	1169.35	4.61
338.15	1166.13	4.61

System: 1-ethyl-3-(2-methoxyethyl)imidazolium acetate; phases: Liquid, Air at 1 atmosphere
Property: Surface tension liquid-gas, N/m (Liquid); method: Maximal bubble pressure
Temperature, K	Surface tension liquid-gas, N/m	uncertainty
298.15	0.046	0.0005
303.15	0.0457	0.0005
308.15	0.0454	0.0005
313.15	0.0451	0.0005
318.15	0.0448	0.0005
323.15	0.0445	0.0005
328.15	0.0443	0.0005
333.15	0.0441	0.0005
338.15	0.0439	0.0005

System: 1-ethyl-3-(2-methoxyethyl)imidazolium thiocyanate; phases: Liquid
Fixed: Pressure, kPa = 100
Property: Mass density, kg/m3 (Liquid); method: Vibrating tube method
Temperature, K	Mass density, kg/m3	uncertainty
298.15	1122.107	4.61
303.15	1118.89	4.61
308.15	1115.693	4.609
313.15	1112.521	4.609
318.15	1109.369	4.609
323.15	1106.232	4.609
328.15	1103.117	4.609
333.15	1100.013	4.609
338.15	1096.922	4.609

System: 1-ethyl-3-(2-methoxyethyl)imidazolium thiocyanate; phases: Liquid, Air at 1 atmosphere
Property: Surface tension liquid-gas, N/m (Liquid); method: Maximal bubble pressure
Temperature, K	Surface tension liquid-gas, N/m	uncertainty
298.15	0.049	0.0005
303.15	0.0487	0.0005
308.15	0.0484	0.0005
313.15	0.048	0.0005
318.15	0.0477	0.0005
323.15	0.0475	0.0005
328.15	0.0473	0.0005
333.15	0.0471	0.0005
338.15	0.0467	0.0005

System: 1-ethyl-3-(2-methoxyethyl)imidazolium trifluoromethanesulfonate; phases: Liquid
Fixed: Pressure, kPa = 100
Property: Mass density, kg/m3 (Liquid); method: Vibrating tube method
Temperature, K	Mass density, kg/m3	uncertainty
298.15	1355.886	4.626
303.15	1351.613	4.625
308.15	1347.353	4.625
313.15	1343.108	4.625
318.15	1338.885	4.624
323.15	1334.675	4.624
328.15	1330.476	4.624
333.15	1326.296	4.623
338.15	1322.116	4.623

System: 1-ethyl-3-(2-methoxyethyl)imidazolium trifluoromethanesulfonate; phases: Liquid, Air at 1 atmosphere
Property: Surface tension liquid-gas, N/m (Liquid); method: Maximal bubble pressure
Temperature, K	Surface tension liquid-gas, N/m	uncertainty
298.15	0.038	0.0004
303.15	0.0377	0.0004
308.15	0.0374	0.0004
313.15	0.0371	0.0004
318.15	0.0369	0.0004
323.15	0.0365	0.0004
328.15	0.0363	0.0004
333.15	0.0361	0.0004
338.15	0.0358	0.0004

System: 1-ethyl-3-(2-methoxyethyl)imidazolium dicyanamide; phases: Liquid
Fixed: Pressure, kPa = 100
Property: Mass density, kg/m3 (Liquid); method: Vibrating tube method
Temperature, K	Mass density, kg/m3	uncertainty
298.15	1113.6	4.61
303.15	1110.21	4.61
308.15	1106.83	4.61
313.15	1103.48	4.61
318.15	1100.15	4.61
323.15	1096.84	4.61
328.15	1093.53	4.61
333.15	1090.26	4.61
338.15	1087	4.61

System: 1-ethyl-3-(2-methoxyethyl)imidazolium dicyanamide; phases: Liquid, Air at 1 atmosphere
Property: Surface tension liquid-gas, N/m (Liquid); method: Maximal bubble pressure
Temperature, K	Surface tension liquid-gas, N/m	uncertainty
298.15	0.0446	0.0005
303.15	0.0443	0.0005
308.15	0.044	0.0005
313.15	0.0437	0.0005
318.15	0.0434	0.0005
323.15	0.0431	0.0005
328.15	0.0429	0.0005
333.15	0.0427	0.0004
338.15	0.0424	0.0004

System: 1-ethyl-3-(2-methoxyethyl)imidazolium bis(trifluoromethylsulfonyl)imide; phases: Liquid, Air at 1 atmosphere
Property: Surface tension liquid-gas, N/m (Liquid); method: Maximal bubble pressure
Temperature, K	Surface tension liquid-gas, N/m	uncertainty
298.15	0.036	0.0004
303.15	0.0358	0.0004
308.15	0.0355	0.0004
313.15	0.0352	0.0004
318.15	0.035	0.0004
323.15	0.0347	0.0004
328.15	0.0344	0.0004
333.15	0.0341	0.0004
338.15	0.0339	0.0004

System: 1-ethyl-3-(2-methoxyethyl)imidazolium bis(trifluoromethylsulfonyl)imide; phases: Liquid
Fixed: Pressure, kPa = 100
Property: Mass density, kg/m3 (Liquid); method: Vibrating tube method
Temperature, K	Mass density, kg/m3	uncertainty
298.15	1463.127	2.372
303.15	1458.114	2.371
308.15	1453.107	2.37
313.15	1448.125	2.369
318.15	1443.16	2.368
323.15	1438.215	2.367
328.15	1433.293	2.366
333.15	1428.389	2.365
338.15	1423.506	2.364

System: 1-ethyl-3-(2-methoxyethyl)imidazolium acetate + water; phases: Liquid
Fixed: Pressure, kPa = 100
Property: Mass density, kg/m3 (Liquid); method: Vibrating tube method
Mass fraction of water	Temperature, K	Mass density, kg/m3	uncertainty
0.00822	298.15	1193.01	2.33
0.00822	303.15	1189.68	2.33
0.00822	308.15	1186.36	2.33
0.00822	313.15	1183.05	2.33
0.00822	318.15	1179.76	2.33
0.00822	323.15	1176.48	2.33
0.00822	328.15	1173.21	2.32
0.00822	333.15	1169.97	2.32
0.00822	338.15	1166.74	2.32
0.00966	298.15	1193.1	2.33
0.00966	303.15	1189.78	2.33
0.00966	308.15	1186.45	2.33
0.00966	313.15	1183.14	2.33
0.00966	318.15	1179.85	2.33
0.00966	323.15	1176.57	2.33
0.00966	328.15	1173.31	2.33
0.00966	333.15	1170.06	2.32
0.00966	338.15	1166.82	2.32
0.01112	298.15	1193.21	2.33
0.01112	303.15	1189.89	2.33
0.01112	308.15	1186.56	2.33
0.01112	313.15	1183.25	2.33
0.01112	318.15	1179.96	2.33
0.01112	323.15	1176.68	2.33
0.01112	328.15	1173.42	2.32
0.01112	333.15	1170.17	2.32
0.01112	338.15	1166.93	2.32
0.01254	298.15	1193.32	2.33
0.01254	303.15	1189.98	2.33
0.01254	308.15	1186.66	2.33
0.01254	313.15	1183.35	2.33
0.01254	318.15	1180.06	2.33
0.01254	323.15	1176.78	2.33
0.01254	328.15	1173.52	2.33
0.01254	333.15	1170.27	2.32
0.01254	338.15	1167.03	2.32
0.01399	298.15	1193.44	2.33
0.01399	303.15	1190.11	2.33
0.01399	308.15	1186.79	2.33
0.01399	313.15	1183.48	2.33
0.01399	318.15	1180.19	2.33
0.01399	323.15	1176.91	2.33
0.01399	328.15	1173.65	2.33
0.01399	333.15	1170.4	2.32
0.01399	338.15	1167.16	2.32

System: 1-ethyl-3-(2-methoxyethyl)imidazolium acetate + water; phases: Liquid, Air at 1 atmosphere
Property: Surface tension liquid-gas, N/m (Liquid); method: Maximal bubble pressure
Mass fraction of water	Temperature, K	Surface tension liquid-gas, N/m	uncertainty
0.00188	298.15	0.0463	0.0005
0.00188	303.15	0.046	0.0005
0.00188	308.15	0.0457	0.0005
0.00188	313.15	0.0454	0.0005
0.00188	318.15	0.0451	0.0005
0.00188	323.15	0.0448	0.0005
0.00188	328.15	0.0446	0.0005
0.00188	333.15	0.0444	0.0005
0.00188	338.15	0.0442	0.0005
0.0034	298.15	0.0465	0.0005
0.0034	303.15	0.0462	0.0005
0.0034	308.15	0.0459	0.0005
0.0034	313.15	0.0457	0.0005
0.0034	318.15	0.0453	0.0005
0.0034	323.15	0.0451	0.0005
0.0034	328.15	0.0449	0.0005
0.0034	333.15	0.0447	0.0005
0.0034	338.15	0.0445	0.0005
0.00488	298.15	0.0467	0.0005
0.00488	303.15	0.0464	0.0005
0.00488	308.15	0.0462	0.0005
0.00488	313.15	0.0459	0.0005
0.00488	318.15	0.0456	0.0005
0.00488	323.15	0.0453	0.0005
0.00488	328.15	0.0451	0.0005
0.00488	333.15	0.0448	0.0005
0.00488	338.15	0.0446	0.0005
0.00638	298.15	0.047	0.0005
0.00638	303.15	0.0467	0.0005
0.00638	308.15	0.0464	0.0005
0.00638	313.15	0.0461	0.0005
0.00638	318.15	0.0458	0.0005
0.00638	323.15	0.0455	0.0005
0.00638	328.15	0.0453	0.0005
0.00638	333.15	0.0451	0.0005
0.00638	338.15	0.0449	0.0005
0.00792	298.15	0.0473	0.0005
0.00792	303.15	0.047	0.0005
0.00792	308.15	0.0467	0.0005
0.00792	313.15	0.0464	0.0005
0.00792	318.15	0.0461	0.0005
0.00792	323.15	0.0458	0.0005
0.00792	328.15	0.0456	0.0005
0.00792	333.15	0.0453	0.0005
0.00792	338.15	0.0451	0.0005

System: 1-ethyl-3-(2-methoxyethyl)imidazolium thiocyanate + water; phases: Liquid
Fixed: Pressure, kPa = 100
Property: Mass density, kg/m3 (Liquid); method: Vibrating tube method
Mass fraction of water	Temperature, K	Mass density, kg/m3	uncertainty
0.00246	298.15	1121.777	2.32
0.00246	303.15	1118.56	2.319
0.00246	308.15	1115.361	2.319
0.00246	313.15	1112.185	2.319
0.00246	318.15	1109.026	2.319
0.00246	323.15	1105.883	2.318
0.00246	328.15	1102.76	2.318
0.00246	333.15	1099.648	2.318
0.00246	338.15	1096.55	2.317
0.00426	298.15	1121.542	2.32
0.00426	303.15	1118.322	2.319
0.00426	308.15	1115.121	2.319
0.00426	313.15	1111.939	2.319
0.00426	318.15	1108.774	2.318
0.00426	323.15	1105.626	2.318
0.00426	328.15	1102.497	2.318
0.00426	333.15	1099.38	2.318
0.00426	338.15	1096.279	2.317
0.00608	298.15	1121.291	2.32
0.00608	303.15	1118.079	2.319
0.00608	308.15	1114.88	2.319
0.00608	313.15	1111.701	2.319
0.00608	318.15	1108.537	2.318
0.00608	323.15	1105.386	2.318
0.00608	328.15	1102.25	2.318
0.00608	333.15	1099.128	2.318
0.00608	338.15	1096.016	2.317
0.00832	298.15	1120.964	2.319
0.00832	303.15	1117.748	2.319
0.00832	308.15	1114.544	2.319
0.00832	313.15	1111.354	2.318
0.00832	318.15	1108.178	2.318
0.00832	323.15	1105.017	2.318
0.00832	328.15	1101.871	2.318
0.00832	333.15	1098.74	2.317
0.00832	338.15	1095.624	2.317
0.00975	298.15	1120.818	2.319
0.00975	303.15	1117.599	2.319
0.00975	308.15	1114.396	2.318
0.00975	313.15	1111.207	2.318
0.00975	318.15	1108.03	2.318
0.00975	323.15	1104.869	2.318
0.00975	328.15	1101.723	2.317
0.00975	333.15	1098.59	2.317
0.00975	338.15	1095.472	2.317

System: 1-ethyl-3-(2-methoxyethyl)imidazolium thiocyanate + water; phases: Liquid, Air at 1 atmosphere
Property: Surface tension liquid-gas, N/m (Liquid); method: Maximal bubble pressure
Mass fraction of water	Temperature, K	Surface tension liquid-gas, N/m	uncertainty
0.00382	298.15	0.0493	0.0005
0.00382	303.15	0.049	0.0005
0.00382	308.15	0.0487	0.0005
0.00382	313.15	0.0484	0.0005
0.00382	318.15	0.0481	0.0005
0.00382	323.15	0.0478	0.0005
0.00382	328.15	0.0476	0.0005
0.00382	333.15	0.0474	0.0005
0.00382	338.15	0.0471	0.0005
0.00528	298.15	0.0494	0.0005
0.00528	303.15	0.0491	0.0005
0.00528	308.15	0.0488	0.0005
0.00528	313.15	0.0485	0.0005
0.00528	318.15	0.0482	0.0005
0.00528	323.15	0.0479	0.0005
0.00528	328.15	0.0477	0.0005
0.00528	333.15	0.0475	0.0005
0.00528	338.15	0.0472	0.0005
0.00668	298.15	0.0495	0.0005
0.00668	303.15	0.0492	0.0005
0.00668	308.15	0.0489	0.0005
0.00668	313.15	0.0486	0.0005
0.00668	318.15	0.0483	0.0005
0.00668	323.15	0.048	0.0005
0.00668	328.15	0.0478	0.0005
0.00668	333.15	0.0476	0.0005
0.00668	338.15	0.0473	0.0005
0.00811	298.15	0.0496	0.0005
0.00811	303.15	0.0493	0.0005
0.00811	308.15	0.049	0.0005
0.00811	313.15	0.0488	0.0005
0.00811	318.15	0.0485	0.0005
0.00811	323.15	0.0481	0.0005
0.00811	328.15	0.0479	0.0005
0.00811	333.15	0.0477	0.0005
0.00811	338.15	0.0475	0.0005
0.00956	298.15	0.0497	0.0005
0.00956	303.15	0.0494	0.0005
0.00956	308.15	0.0491	0.0005
0.00956	313.15	0.0489	0.0005
0.00956	318.15	0.0486	0.0005
0.00956	323.15	0.0482	0.0005
0.00956	328.15	0.048	0.0005
0.00956	333.15	0.0478	0.0005
0.00956	338.15	0.0476	0.0005

System: 1-ethyl-3-(2-methoxyethyl)imidazolium dicyanamide + water; phases: Liquid
Fixed: Pressure, kPa = 100
Property: Mass density, kg/m3 (Liquid); method: Vibrating tube method
Mass fraction of water	Temperature, K	Mass density, kg/m3	uncertainty
0.00148	298.15	1113.35	2.32
0.00148	303.15	1109.96	2.32
0.00148	308.15	1106.58	2.32
0.00148	313.15	1103.23	2.32
0.00148	318.15	1099.89	2.32
0.00148	323.15	1096.58	2.32
0.00148	328.15	1093.27	2.32
0.00148	333.15	1090	2.32
0.00148	338.15	1086.74	2.32
0.00277	298.15	1113.18	2.32
0.00277	303.15	1109.78	2.32
0.00277	308.15	1106.41	2.32
0.00277	313.15	1103.05	2.32
0.00277	318.15	1099.72	2.32
0.00277	323.15	1096.4	2.32
0.00277	328.15	1093.1	2.32
0.00277	333.15	1089.82	2.32
0.00277	338.15	1086.56	2.32
0.00434	298.15	1112.96	2.32
0.00434	303.15	1109.57	2.32
0.00434	308.15	1106.19	2.32
0.00434	313.15	1102.83	2.32
0.00434	318.15	1099.5	2.32
0.00434	323.15	1096.18	2.32
0.00434	328.15	1092.88	2.32
0.00434	333.15	1089.59	2.32
0.00434	338.15	1086.33	2.32
0.0055	298.15	1112.77	2.32
0.0055	303.15	1109.37	2.32
0.0055	308.15	1106	2.32
0.0055	313.15	1102.64	2.32
0.0055	318.15	1099.3	2.32
0.0055	323.15	1095.98	2.32
0.0055	328.15	1092.68	2.32
0.0055	333.15	1089.4	2.32
0.0055	338.15	1086.13	2.32
0.00719	298.15	1112.46	2.32
0.00719	303.15	1109.06	2.32
0.00719	308.15	1105.69	2.32
0.00719	313.15	1102.33	2.32
0.00719	318.15	1098.99	2.32
0.00719	323.15	1095.66	2.32
0.00719	328.15	1092.36	2.32
0.00719	333.15	1089.08	2.32
0.00719	338.15	1085.81	2.32

System: 1-ethyl-3-(2-methoxyethyl)imidazolium dicyanamide + water; phases: Liquid, Air at 1 atmosphere
Property: Surface tension liquid-gas, N/m (Liquid); method: Maximal bubble pressure
Mass fraction of water	Temperature, K	Surface tension liquid-gas, N/m	uncertainty
0.00031	298.15	0.0447	0.0005
0.00031	303.15	0.0444	0.0005
0.00031	308.15	0.0441	0.0005
0.00031	313.15	0.0438	0.0005
0.00031	318.15	0.0435	0.0005
0.00031	323.15	0.0432	0.0005
0.00031	328.15	0.043	0.0005
0.00031	333.15	0.0427	0.0004
0.00031	338.15	0.0424	0.0004
0.00175	298.15	0.0449	0.0005
0.00175	303.15	0.0447	0.0005
0.00175	308.15	0.0444	0.0005
0.00175	313.15	0.0441	0.0005
0.00175	318.15	0.0438	0.0005
0.00175	323.15	0.0435	0.0005
0.00175	328.15	0.0433	0.0005
0.00175	333.15	0.0431	0.0005
0.00175	338.15	0.0428	0.0004
0.00317	298.15	0.0453	0.0005
0.00317	303.15	0.045	0.0005
0.00317	308.15	0.0447	0.0005
0.00317	313.15	0.0444	0.0005
0.00317	318.15	0.0441	0.0005
0.00317	323.15	0.0438	0.0005
0.00317	328.15	0.0436	0.0005
0.00317	333.15	0.0434	0.0005
0.00317	338.15	0.0431	0.0005
0.00461	298.15	0.0456	0.0005
0.00461	303.15	0.0453	0.0005
0.00461	308.15	0.045	0.0005
0.00461	313.15	0.0447	0.0005
0.00461	318.15	0.0444	0.0005
0.00461	323.15	0.0442	0.0005
0.00461	328.15	0.044	0.0005
0.00461	333.15	0.0437	0.0005
0.00461	338.15	0.0434	0.0005
0.00609	298.15	0.0459	0.0005
0.00609	303.15	0.0456	0.0005
0.00609	308.15	0.0453	0.0005
0.00609	313.15	0.045	0.0005
0.00609	318.15	0.0447	0.0005
0.00609	323.15	0.0444	0.0005
0.00609	328.15	0.0442	0.0005
0.00609	333.15	0.044	0.0005
0.00609	338.15	0.0437	0.0005

System: 1-ethyl-3-(2-methoxyethyl)imidazolium trifluoromethanesulfonate + water; phases: Liquid
Fixed: Pressure, kPa = 100
Property: Mass density, kg/m3 (Liquid); method: Vibrating tube method
Mass fraction of water	Temperature, K	Mass density, kg/m3	uncertainty
0.00185	298.15	1355.321	2.352
0.00185	303.15	1351.044	2.351
0.00185	308.15	1346.782	2.35
0.00185	313.15	1342.536	2.35
0.00185	318.15	1338.311	2.349
0.00185	323.15	1334.1	2.348
0.00185	328.15	1329.901	2.347
0.00185	333.15	1325.721	2.347
0.00185	338.15	1321.543	2.346
0.0038	298.15	1354.725	2.351
0.0038	303.15	1350.445	2.351
0.0038	308.15	1346.18	2.35
0.0038	313.15	1341.932	2.349
0.0038	318.15	1337.705	2.349
0.0038	323.15	1333.493	2.348
0.0038	328.15	1329.296	2.347
0.0038	333.15	1325.114	2.346
0.0038	338.15	1320.939	2.346
0.00537	298.15	1354.287	2.351
0.00537	303.15	1349.996	2.351
0.00537	308.15	1345.721	2.35
0.00537	313.15	1341.46	2.349
0.00537	318.15	1337.219	2.348
0.00537	323.15	1332.996	2.348
0.00537	328.15	1328.791	2.347
0.00537	333.15	1324.603	2.346
0.00537	338.15	1320.427	2.345
0.00665	298.15	1353.788	2.351
0.00665	303.15	1349.515	2.35
0.00665	308.15	1345.263	2.349
0.00665	313.15	1341.03	2.349
0.00665	318.15	1336.817	2.348
0.00665	323.15	1332.621	2.347
0.00665	328.15	1328.438	2.347
0.00665	333.15	1324.264	2.346
0.00665	338.15	1320.097	2.345
0.00891	298.15	1353.187	2.35
0.00891	303.15	1348.893	2.35
0.00891	308.15	1344.618	2.349
0.00891	313.15	1340.359	2.348
0.00891	318.15	1336.119	2.348
0.00891	323.15	1331.899	2.347
0.00891	328.15	1327.699	2.346
0.00891	333.15	1323.512	2.346
0.00891	338.15	1319.342	2.345

System: 1-ethyl-3-(2-methoxyethyl)imidazolium trifluoromethanesulfonate + water; phases: Liquid, Air at 1 atmosphere
Property: Surface tension liquid-gas, N/m (Liquid); method: Maximal bubble pressure
Mass fraction of water	Temperature, K	Surface tension liquid-gas, N/m	uncertainty
0.0016	298.15	0.0382	0.0004
0.0016	303.15	0.0379	0.0004
0.0016	308.15	0.0376	0.0004
0.0016	313.15	0.0373	0.0004
0.0016	318.15	0.0371	0.0004
0.0016	323.15	0.0368	0.0004
0.0016	328.15	0.0365	0.0004
0.0016	333.15	0.0363	0.0004
0.0016	338.15	0.036	0.0004
0.00284	298.15	0.0384	0.0004
0.00284	303.15	0.0381	0.0004
0.00284	308.15	0.0378	0.0004
0.00284	313.15	0.0375	0.0004
0.00284	318.15	0.0373	0.0004
0.00284	323.15	0.037	0.0004
0.00284	328.15	0.0367	0.0004
0.00284	333.15	0.0365	0.0004
0.00284	338.15	0.0362	0.0004
0.00419	298.15	0.0386	0.0004
0.00419	303.15	0.0383	0.0004
0.00419	308.15	0.0379	0.0004
0.00419	313.15	0.0377	0.0004
0.00419	318.15	0.0375	0.0004
0.00419	323.15	0.0372	0.0004
0.00419	328.15	0.0369	0.0004
0.00419	333.15	0.0367	0.0004
0.00419	338.15	0.0363	0.0004
0.0056	298.15	0.0388	0.0004
0.0056	303.15	0.0384	0.0004
0.0056	308.15	0.0381	0.0004
0.0056	313.15	0.0379	0.0004
0.0056	318.15	0.0377	0.0004
0.0056	323.15	0.0375	0.0004
0.0056	328.15	0.0371	0.0004
0.0056	333.15	0.0369	0.0004
0.0056	338.15	0.0365	0.0004
0.007	298.15	0.039	0.0004
0.007	303.15	0.0386	0.0004
0.007	308.15	0.0383	0.0004
0.007	313.15	0.0381	0.0004
0.007	318.15	0.0379	0.0004
0.007	323.15	0.0377	0.0004
0.007	328.15	0.0373	0.0004
0.007	333.15	0.0371	0.0004
0.007	338.15	0.0367	0.0004
