Measured thermophysical data. Solubility modelling, solvent effect and preferential solvation of 6-chloropurine in several aqueous co-solvent mixtures between 283.15 K and 328.15 K
Source: J. Chem. Thermodyn., 2018, 10.1016/j.jct.2018.07.028
Compound 1: 6-chloropurine, C5H3ClN4, InChI=1S/C5H3ClN4/c6-4-3-5(9-1-7-3)10-2-8-4/h1-2H,(H,7,8,9,10), purity 98%
Compound 2: methanol, CH4O, InChI=1S/CH4O/c1-2/h2H,1H3
Compound 3: ethanol, C2H6O, InChI=1S/C2H6O/c1-2-3/h3H,2H2,1H3
Compound 4: dimethylformamide, C3H7NO, InChI=1S/C3H7NO/c1-4(2)3-5/h3H,1-2H3
Compound 5: N,N-dimethylethanamide, C4H9NO, InChI=1S/C4H9NO/c1-4(6)5(2)3/h1-3H3
Compound 6: water, H2O, InChI=1S/H2O/h1H2

System: 6-chloropurine + methanol + water; phases: Liquid, Crystal
Fixed: Pressure, kPa = 101.2
Property: Mole fraction of 6-chloropurine (Liquid); method: Chromatography
Solvent: Mass fraction of methanol	Temperature, K	Mole fraction of 6-chloropurine	uncertainty
0	283.15	0.0005099	4.28e-05
0	288.15	0.0005553	4.67e-05
0	293.15	0.0006005	5.05e-05
0	298.15	0.000658	5.53e-05
0	303.15	0.0007088	5.96e-05
0	308.15	0.0007606	6.39e-05
0	313.15	0.0008148	6.85e-05
0	318.15	0.0008735	7.34e-05
0	323.15	0.0009347	7.85e-05
0	328.15	0.0009938	8.35e-05
0.1	283.15	0.001485	0.000125
0.1	288.15	0.001648	0.000138
0.1	293.15	0.00182	0.000153
0.1	298.15	0.001998	0.000168
0.1	303.15	0.002177	0.000183
0.1	308.15	0.002364	0.000199
0.1	313.15	0.002556	0.000215
0.1	318.15	0.002749	0.000231
0.1	323.15	0.002959	0.000249
0.1	328.15	0.003174	0.000267
0.2	283.15	0.002972	0.00025
0.2	288.15	0.003348	0.000281
0.2	293.15	0.003689	0.00031
0.2	298.15	0.004041	0.00034
0.2	303.15	0.004396	0.000369
0.2	308.15	0.004762	0.0004
0.2	313.15	0.005145	0.000432
0.2	318.15	0.005527	0.000464
0.2	323.15	0.006052	0.000509
0.2	328.15	0.006485	0.000545
0.3	283.15	0.004643	0.00039
0.3	288.15	0.005261	0.000442
0.3	293.15	0.005789	0.000486
0.3	298.15	0.00644	0.000541
0.3	303.15	0.00694	0.000583
0.3	308.15	0.007597	0.000638
0.3	313.15	0.008237	0.000692
0.3	318.15	0.008894	0.000747
0.3	323.15	0.009528	0.000801
0.3	328.15	0.01003	0.00084
0.4	283.15	0.006002	0.000504
0.4	288.15	0.006729	0.000565
0.4	293.15	0.007398	0.000622
0.4	298.15	0.008269	0.000695
0.4	303.15	0.009032	0.000759
0.4	308.15	0.009822	0.000825
0.4	313.15	0.01067	0.0009
0.4	318.15	0.01151	0.00097
0.4	323.15	0.01255	0.00105
0.4	328.15	0.01376	0.00116
0.5	283.15	0.006932	0.000583
0.5	288.15	0.007696	0.000647
0.5	293.15	0.008709	0.000732
0.5	298.15	0.009579	0.000805
0.5	303.15	0.01057	0.00089
0.5	308.15	0.01174	0.00099
0.5	313.15	0.01301	0.00109
0.5	318.15	0.01398	0.00117
0.5	323.15	0.0153	0.00129
0.5	328.15	0.0167	0.0014
0.6	283.15	0.00759	0.000638
0.6	288.15	0.008664	0.000728
0.6	293.15	0.009822	0.000825
0.6	298.15	0.01109	0.00093
0.6	303.15	0.0121	0.00102
0.6	308.15	0.01367	0.00115
0.6	313.15	0.01519	0.00128
0.6	318.15	0.01651	0.00139
0.6	323.15	0.01842	0.00155
0.6	328.15	0.02013	0.00169
0.7	283.15	0.008698	0.000731
0.7	288.15	0.009927	0.000834
0.7	293.15	0.01132	0.00095
0.7	298.15	0.01283	0.00108
0.7	303.15	0.01443	0.00121
0.7	308.15	0.01593	0.00134
0.7	313.15	0.01778	0.00149
0.7	318.15	0.0199	0.00167
0.7	323.15	0.02205	0.00185
0.7	328.15	0.02433	0.00204
0.8	283.15	0.009784	0.000822
0.8	288.15	0.0112	0.00094
0.8	293.15	0.01292	0.00109
0.8	298.15	0.01466	0.00123
0.8	303.15	0.01673	0.00141
0.8	308.15	0.01876	0.00158
0.8	313.15	0.02135	0.00179
0.8	318.15	0.0238	0.002
0.8	323.15	0.02652	0.00223
0.8	328.15	0.02952	0.00248
0.9	283.15	0.01069	0.0009
0.9	288.15	0.01246	0.00105
0.9	293.15	0.01453	0.00122
0.9	298.15	0.01665	0.0014
0.9	303.15	0.01911	0.00161
0.9	308.15	0.02185	0.00184
0.9	313.15	0.02477	0.00208
0.9	318.15	0.02774	0.00233
0.9	323.15	0.03114	0.00262
0.9	328.15	0.03496	0.00294
1	283.15	0.01122	0.00094
1	288.15	0.01319	0.00111
1	293.15	0.01532	0.00129
1	298.15	0.01783	0.0015
1	303.15	0.0204	0.00171
1	308.15	0.02344	0.00197
1	313.15	0.02683	0.00225
1	318.15	0.03042	0.00256
1	323.15	0.0345	0.0029
1	328.15	0.03891	0.00327

System: 6-chloropurine + ethanol + water; phases: Liquid, Crystal
Fixed: Pressure, kPa = 101.2
Property: Mole fraction of 6-chloropurine (Liquid); method: Chromatography
Solvent: Mass fraction of ethanol	Temperature, K	Mole fraction of 6-chloropurine	uncertainty
0	283.15	0.0005099	4.28e-05
0	288.15	0.0005553	4.67e-05
0	293.15	0.0006005	5.05e-05
0	298.15	0.000658	5.53e-05
0	303.15	0.0007088	5.96e-05
0	308.15	0.0007606	6.39e-05
0	313.15	0.0008148	6.85e-05
0	318.15	0.0008735	7.34e-05
0	323.15	0.0009347	7.85e-05
0	328.15	0.0009938	8.35e-05
0.1	283.15	0.001568	0.000132
0.1	288.15	0.001724	0.000145
0.1	293.15	0.001885	0.000158
0.1	298.15	0.00205	0.000172
0.1	303.15	0.002233	0.000188
0.1	308.15	0.002425	0.000204
0.1	313.15	0.002583	0.000217
0.1	318.15	0.002753	0.000231
0.1	323.15	0.002928	0.000246
0.1	328.15	0.003097	0.00026
0.2	283.15	0.002915	0.000245
0.2	288.15	0.003265	0.000274
0.2	293.15	0.003585	0.000301
0.2	298.15	0.003904	0.000328
0.2	303.15	0.004338	0.000365
0.2	308.15	0.004673	0.000393
0.2	313.15	0.004993	0.00042
0.2	318.15	0.005333	0.000448
0.2	323.15	0.005683	0.000478
0.2	328.15	0.006027	0.000506
0.3	283.15	0.004015	0.000337
0.3	288.15	0.004449	0.000374
0.3	293.15	0.004931	0.000414
0.3	298.15	0.0055	0.000462
0.3	303.15	0.006055	0.000509
0.3	308.15	0.006629	0.000557
0.3	313.15	0.007134	0.000599
0.3	318.15	0.007666	0.000644
0.3	323.15	0.008206	0.00069
0.3	328.15	0.00887	0.000745
0.4	283.15	0.004932	0.000414
0.4	288.15	0.005583	0.000469
0.4	293.15	0.006257	0.000526
0.4	298.15	0.006908	0.00058
0.4	303.15	0.007574	0.000636
0.4	308.15	0.008278	0.000696
0.4	313.15	0.008979	0.000755
0.4	318.15	0.009815	0.000825
0.4	323.15	0.01057	0.00089
0.4	328.15	0.01133	0.00095
0.5	283.15	0.005601	0.000471
0.5	288.15	0.006275	0.000527
0.5	293.15	0.007182	0.000604
0.5	298.15	0.008036	0.000675
0.5	303.15	0.008876	0.000746
0.5	308.15	0.009842	0.000827
0.5	313.15	0.01078	0.00091
0.5	318.15	0.01181	0.00099
0.5	323.15	0.01294	0.00109
0.5	328.15	0.01427	0.0012
0.6	283.15	0.006166	0.000518
0.6	288.15	0.00702	0.00059
0.6	293.15	0.008061	0.000677
0.6	298.15	0.009015	0.000758
0.6	303.15	0.01013	0.00085
0.6	308.15	0.01117	0.00094
0.6	313.15	0.01244	0.00105
0.6	318.15	0.01372	0.00115
0.6	323.15	0.01518	0.00128
0.6	328.15	0.01646	0.00138
0.7	283.15	0.006853	0.000576
0.7	288.15	0.007957	0.000669
0.7	293.15	0.009221	0.000775
0.7	298.15	0.0104	0.00087
0.7	303.15	0.01187	0.001
0.7	308.15	0.01338	0.00112
0.7	313.15	0.01491	0.00125
0.7	318.15	0.01667	0.0014
0.7	323.15	0.01853	0.00156
0.7	328.15	0.02077	0.00175
0.8	283.15	0.00781	0.000656
0.8	288.15	0.009053	0.000761
0.8	293.15	0.01061	0.00089
0.8	298.15	0.01227	0.00103
0.8	303.15	0.01415	0.00119
0.8	308.15	0.01589	0.00134
0.8	313.15	0.01799	0.00151
0.8	318.15	0.02019	0.0017
0.8	323.15	0.02276	0.00191
0.8	328.15	0.02537	0.00213
0.9	283.15	0.008366	0.000703
0.9	288.15	0.009872	0.00083
0.9	293.15	0.01164	0.00098
0.9	298.15	0.01373	0.00115
0.9	303.15	0.01599	0.00134
0.9	308.15	0.01828	0.00154
0.9	313.15	0.02106	0.00177
0.9	318.15	0.02397	0.00201
0.9	323.15	0.02704	0.00227
0.9	328.15	0.03055	0.00257
1	283.15	0.008704	0.000731
1	288.15	0.01026	0.00086
1	293.15	0.01219	0.00102
1	298.15	0.01437	0.00121
1	303.15	0.01684	0.00142
1	308.15	0.01952	0.00164
1	313.15	0.0226	0.0019
1	318.15	0.02597	0.00218
1	323.15	0.02965	0.00249
1	328.15	0.03383	0.00284

System: 6-chloropurine + dimethylformamide + water; phases: Liquid, Crystal
Fixed: Pressure, kPa = 101.2
Property: Mole fraction of 6-chloropurine (Liquid); method: Chromatography
Solvent: Mass fraction of dimethylformamide	Temperature, K	Mole fraction of 6-chloropurine	uncertainty
0	283.15	0.0005099	4.28e-05
0	288.15	0.0005553	4.67e-05
0	293.15	0.0006005	5.05e-05
0	298.15	0.000658	5.53e-05
0	303.15	0.0007088	5.96e-05
0	308.15	0.0007606	6.39e-05
0	313.15	0.0008148	6.85e-05
0	318.15	0.0008735	7.34e-05
0	323.15	0.0009347	7.85e-05
0	328.15	0.0009938	8.35e-05
0.1	283.15	0.004317	0.000363
0.1	288.15	0.004746	0.000399
0.1	293.15	0.0052	0.000437
0.1	298.15	0.005697	0.000479
0.1	303.15	0.006138	0.000516
0.1	308.15	0.006513	0.000547
0.1	313.15	0.007012	0.000589
0.1	318.15	0.00755	0.000634
0.1	323.15	0.008009	0.000673
0.1	328.15	0.008688	0.000731
0.2	283.15	0.01349	0.00113
0.2	288.15	0.01501	0.00126
0.2	293.15	0.01651	0.00139
0.2	298.15	0.01782	0.0015
0.2	303.15	0.01924	0.00162
0.2	308.15	0.02085	0.00175
0.2	313.15	0.02259	0.0019
0.2	318.15	0.02396	0.00201
0.2	323.15	0.02542	0.00214
0.2	328.15	0.02708	0.00228
0.3	283.15	0.02292	0.00193
0.3	288.15	0.02485	0.00209
0.3	293.15	0.02782	0.00234
0.3	298.15	0.0302	0.00254
0.3	303.15	0.03254	0.00273
0.3	308.15	0.03524	0.00296
0.3	313.15	0.03771	0.00317
0.3	318.15	0.04042	0.0034
0.3	323.15	0.04292	0.00361
0.3	328.15	0.04617	0.00388
0.4	283.15	0.02727	0.00229
0.4	288.15	0.02967	0.00249
0.4	293.15	0.03286	0.00276
0.4	298.15	0.03625	0.00305
0.4	303.15	0.03959	0.00333
0.4	308.15	0.0424	0.00356
0.4	313.15	0.04521	0.0038
0.4	318.15	0.04827	0.00406
0.4	323.15	0.0518	0.00435
0.4	328.15	0.05516	0.00463
0.5	283.15	0.02998	0.00252
0.5	288.15	0.03279	0.00276
0.5	293.15	0.03572	0.003
0.5	298.15	0.03904	0.00328
0.5	303.15	0.04264	0.00358
0.5	308.15	0.04599	0.00386
0.5	313.15	0.0493	0.00414
0.5	318.15	0.05292	0.00445
0.5	323.15	0.05701	0.00479
0.5	328.15	0.06089	0.00512
0.6	283.15	0.0322	0.00271
0.6	288.15	0.03533	0.00297
0.6	293.15	0.03919	0.00329
0.6	298.15	0.04367	0.00367
0.6	303.15	0.0479	0.00403
0.6	308.15	0.05199	0.00437
0.6	313.15	0.05684	0.00478
0.6	318.15	0.06153	0.00517
0.6	323.15	0.06723	0.00565
0.6	328.15	0.07262	0.0061
0.7	283.15	0.03792	0.00319
0.7	288.15	0.04272	0.00359
0.7	293.15	0.04757	0.004
0.7	298.15	0.05366	0.00451
0.7	303.15	0.05897	0.00496
0.7	308.15	0.0648	0.00545
0.7	313.15	0.0718	0.00603
0.7	318.15	0.07889	0.00663
0.7	323.15	0.08605	0.00723
0.7	328.15	0.09422	0.00792
0.8	283.15	0.04809	0.00404
0.8	288.15	0.05384	0.00452
0.8	293.15	0.06133	0.00515
0.8	298.15	0.06912	0.00581
0.8	303.15	0.0774	0.0065
0.8	308.15	0.08648	0.00727
0.8	313.15	0.09584	0.00805
0.8	318.15	0.1064	0.0089
0.8	323.15	0.1176	0.0099
0.8	328.15	0.1288	0.0108
0.9	283.15	0.05849	0.00492
0.9	288.15	0.06598	0.00554
0.9	293.15	0.07565	0.00636
0.9	298.15	0.087	0.00731
0.9	303.15	0.09824	0.00826
0.9	308.15	0.1103	0.0093
0.9	313.15	0.1235	0.0104
0.9	318.15	0.1382	0.0116
0.9	323.15	0.155	0.013
0.9	328.15	0.1729	0.0145
1	283.15	0.05552	0.00467
1	288.15	0.06446	0.00542
1	293.15	0.07497	0.0063
1	298.15	0.08706	0.00732
1	303.15	0.09955	0.00837
1	308.15	0.1138	0.0096
1	313.15	0.1292	0.0109
1	318.15	0.1466	0.0123
1	323.15	0.1652	0.0139
1	328.15	0.1863	0.0157

System: 6-chloropurine + N,N-dimethylethanamide + water; phases: Liquid, Crystal
Fixed: Pressure, kPa = 101.2
Property: Mole fraction of 6-chloropurine (Liquid); method: Chromatography
Solvent: Mass fraction of N,N-dimethylethanamide	Temperature, K	Mole fraction of 6-chloropurine	uncertainty
0	283.15	0.0005099	4.28e-05
0	288.15	0.0005553	4.67e-05
0	293.15	0.0006005	5.05e-05
0	298.15	0.000658	5.53e-05
0	303.15	0.0007088	5.96e-05
0	308.15	0.0007606	6.39e-05
0	313.15	0.0008148	6.85e-05
0	318.15	0.0008735	7.34e-05
0	323.15	0.0009347	7.85e-05
0	328.15	0.0009938	8.35e-05
0.1	283.15	0.001896	0.000159
0.1	288.15	0.002099	0.000176
0.1	293.15	0.002308	0.000194
0.1	298.15	0.002519	0.000212
0.1	303.15	0.002766	0.000232
0.1	308.15	0.002961	0.000249
0.1	313.15	0.003163	0.000266
0.1	318.15	0.003384	0.000284
0.1	323.15	0.003613	0.000304
0.1	328.15	0.003835	0.000322
0.2	283.15	0.004229	0.000355
0.2	288.15	0.004704	0.000395
0.2	293.15	0.005309	0.000446
0.2	298.15	0.00571	0.00048
0.2	303.15	0.006306	0.00053
0.2	308.15	0.006795	0.000571
0.2	313.15	0.007301	0.000613
0.2	318.15	0.007858	0.00066
0.2	323.15	0.008439	0.000709
0.2	328.15	0.009008	0.000757
0.3	283.15	0.006912	0.000581
0.3	288.15	0.007622	0.00064
0.3	293.15	0.008346	0.000701
0.3	298.15	0.009278	0.00078
0.3	303.15	0.01016	0.00085
0.3	308.15	0.01108	0.00093
0.3	313.15	0.01203	0.00101
0.3	318.15	0.0131	0.0011
0.3	323.15	0.01422	0.00119
0.3	328.15	0.01535	0.00129
0.4	283.15	0.008597	0.000722
0.4	288.15	0.009629	0.000809
0.4	293.15	0.0107	0.0009
0.4	298.15	0.01208	0.00102
0.4	303.15	0.01343	0.00113
0.4	308.15	0.01488	0.00125
0.4	313.15	0.01639	0.00138
0.4	318.15	0.0181	0.00152
0.4	323.15	0.01993	0.00167
0.4	328.15	0.0218	0.00183
0.5	283.15	0.009768	0.000821
0.5	288.15	0.01113	0.00094
0.5	293.15	0.01258	0.00106
0.5	298.15	0.01444	0.00121
0.5	303.15	0.01633	0.00137
0.5	308.15	0.01838	0.00154
0.5	313.15	0.02067	0.00174
0.5	318.15	0.02317	0.00195
0.5	323.15	0.02589	0.00218
0.5	328.15	0.02882	0.00242
0.6	283.15	0.01097	0.00092
0.6	288.15	0.01271	0.00107
0.6	293.15	0.01461	0.00123
0.6	298.15	0.01706	0.00143
0.6	303.15	0.01962	0.00165
0.6	308.15	0.02247	0.00189
0.6	313.15	0.02555	0.00215
0.6	318.15	0.02911	0.00245
0.6	323.15	0.03304	0.00278
0.6	328.15	0.03723	0.00313
0.7	283.15	0.01263	0.00106
0.7	288.15	0.01488	0.00125
0.7	293.15	0.01739	0.00146
0.7	298.15	0.02064	0.00173
0.7	303.15	0.02415	0.00203
0.7	308.15	0.02811	0.00236
0.7	313.15	0.03246	0.00273
0.7	318.15	0.03773	0.00317
0.7	323.15	0.04343	0.00365
0.7	328.15	0.04996	0.0042
0.8	283.15	0.01485	0.00125
0.8	288.15	0.01779	0.0015
0.8	293.15	0.02112	0.00177
0.8	298.15	0.02549	0.00214
0.8	303.15	0.03032	0.00255
0.8	308.15	0.03586	0.00301
0.8	313.15	0.04204	0.00353
0.8	318.15	0.04962	0.00417
0.8	323.15	0.05796	0.00487
0.8	328.15	0.06788	0.0057
0.9	283.15	0.01704	0.00143
0.9	288.15	0.02077	0.00175
0.9	293.15	0.02507	0.00211
0.9	298.15	0.03075	0.00258
0.9	303.15	0.0372	0.00313
0.9	308.15	0.04472	0.00376
0.9	313.15	0.05325	0.00448
0.9	318.15	0.06353	0.00534
0.9	323.15	0.07537	0.00633
0.9	328.15	0.08871	0.00745
1	283.15	0.0175	0.00147
1	288.15	0.02173	0.00183
1	293.15	0.02671	0.00224
1	298.15	0.03338	0.00281
1	303.15	0.04113	0.00346
1	308.15	0.05036	0.00423
1	313.15	0.06099	0.00513
1	318.15	0.07402	0.00622
1	323.15	0.08927	0.0075
1	328.15	0.1068	0.009

System: 6-chloropurine + water; phases: Liquid, Crystal
Fixed: Pressure, kPa = 101.2
Property: Mole fraction of 6-chloropurine (Liquid); method: Chromatography
Temperature, K	Mole fraction of 6-chloropurine	uncertainty
283.15	0.0005099	4.28e-05
288.15	0.0005553	4.67e-05
293.15	0.0006005	5.05e-05
298.15	0.000658	5.53e-05
303.15	0.0007088	5.96e-05
308.15	0.0007606	6.39e-05
313.15	0.0008148	6.85e-05
318.15	0.0008735	7.34e-05
323.15	0.0009347	7.85e-05
328.15	0.0009938	8.35e-05

System: 6-chloropurine + methanol; phases: Liquid, Crystal
Fixed: Pressure, kPa = 101.2
Property: Mole fraction of 6-chloropurine (Liquid); method: Chromatography
Temperature, K	Mole fraction of 6-chloropurine	uncertainty
283.15	0.01122	0.00094
288.15	0.01319	0.00111
293.15	0.01532	0.00129
298.15	0.01783	0.0015
303.15	0.0204	0.00171
308.15	0.02344	0.00197
313.15	0.02683	0.00225
318.15	0.03042	0.00256
323.15	0.0345	0.0029
328.15	0.03891	0.00327

System: 6-chloropurine + ethanol; phases: Liquid, Crystal
Fixed: Pressure, kPa = 101.2
Property: Mole fraction of 6-chloropurine (Liquid); method: Chromatography
Temperature, K	Mole fraction of 6-chloropurine	uncertainty
283.15	0.008704	0.000731
288.15	0.01026	0.00086
293.15	0.01219	0.00102
298.15	0.01437	0.00121
303.15	0.01684	0.00142
308.15	0.01952	0.00164
313.15	0.0226	0.0019
318.15	0.02597	0.00218
323.15	0.02965	0.00249
328.15	0.03383	0.00284

System: 6-chloropurine + dimethylformamide; phases: Liquid, Crystal
Fixed: Pressure, kPa = 101.2
Property: Mole fraction of 6-chloropurine (Liquid); method: Chromatography
Temperature, K	Mole fraction of 6-chloropurine	uncertainty
283.15	0.05552	0.00467
288.15	0.06446	0.00542
293.15	0.07497	0.0063
298.15	0.08706	0.00732
303.15	0.09955	0.00837
308.15	0.1138	0.0096
313.15	0.1292	0.0109
318.15	0.1466	0.0123
323.15	0.1652	0.0139
328.15	0.1863	0.0157

System: 6-chloropurine + N,N-dimethylethanamide; phases: Liquid, Crystal
Fixed: Pressure, kPa = 101.2
Property: Mole fraction of 6-chloropurine (Liquid); method: Chromatography
Temperature, K	Mole fraction of 6-chloropurine	uncertainty
283.15	0.0175	0.00147
288.15	0.02173	0.00183
293.15	0.02671	0.00224
298.15	0.03338	0.00281
303.15	0.04113	0.00346
308.15	0.05036	0.00423
313.15	0.06099	0.00513
318.15	0.07402	0.00622
323.15	0.08927	0.0075
328.15	0.1068	0.009
