Measured thermophysical data. Thermodynamics of complexation of aqueous 18-crown-6 with rubidium and cesium ions: Apparent molar volumes and apparent molar heat capacities of aqueous (18-crown-6 + rubidium chloride) and (18-crown-6 + cesium chloride) at temperatures (278.15 to 393.15) K, at molalities (0.02 to 0.33) mol.kg-1, and at the pressure 0.35 MPa
Source: J. Chem. Thermodyn., 2006, 10.1016/j.jct.2005.05.005
Compound 1: 1,4,7,10,13,16-hexaoxacyclooctadecane, C12H24O6, InChI=1S/C12H24O6/c1-2-14-5-6-16-9-10-18-12-11-17-8-7-15-4-3-13-1/h1-12H2, purity 99.99%
Compound 2: rubidium chloride, ClRb, InChI=1S/ClH.Rb/h1H;/q;+1/p-1, purity 99.99%
Compound 3: cesium chloride, ClCs, InChI=1S/ClH.Cs/h1H;/q;+1/p-1, purity 99.99%
Compound 4: water, H2O, InChI=1S/H2O/h1H2

System: water + rubidium chloride + 1,4,7,10,13,16-hexaoxacyclooctadecane; phases: Liquid
Fixed: Pressure, kPa = 350
Property: Apparent molar heat capacity, J/K/mol (Liquid); method: Extra sensitive DSC
Temperature, K	Molality, mol/kg of 1,4,7,10,13,16-hexaoxacyclooctadecane	Molality, mol/kg of rubidium chloride	Apparent molar heat capacity, J/K/mol	uncertainty
278.15	0.01988	0.0199	709	42.1
278.15	0.02996	0.02999	709.4	28.7
278.15	0.04044	0.04048	719.8	22.1
278.15	0.0599	0.05996	725.6	15.6
278.15	0.0793	0.07938	722.5	12.4
278.15	0.0999	0.1	721.6	10.3
278.15	0.1495	0.14992	726.1	8.4
278.15	0.2499	0.2506	716.6	5.6
278.15	0.3285	0.32942	708.3	4.9
283.15	0.01988	0.0199	733	42.1
283.15	0.02996	0.02999	735.2	28.8
283.15	0.04044	0.04048	746.2	22
283.15	0.0599	0.05996	750.4	15.5
283.15	0.0793	0.07938	748.8	12.4
283.15	0.0999	0.1	748.2	10.3
283.15	0.1495	0.14992	748.6	8.4
283.15	0.2499	0.2506	740.2	5.6
283.15	0.3285	0.32942	732.7	4.8
288.15	0.01988	0.0199	751	42.2
288.15	0.02996	0.02999	752.6	28.9
288.15	0.04044	0.04048	763.4	22
288.15	0.0599	0.05996	768	15.5
288.15	0.0793	0.07938	766.4	12.4
288.15	0.0999	0.1	766	10.3
288.15	0.1495	0.14992	766.6	8.5
288.15	0.2499	0.2506	758.7	5.6
288.15	0.3285	0.32942	751.8	4.8
293.15	0.01988	0.0199	764	42.2
293.15	0.02996	0.02999	766.5	28.9
293.15	0.04044	0.04048	778.4	22.1
293.15	0.0599	0.05996	781.9	15.7
293.15	0.0793	0.07938	781.7	12.5
293.15	0.0999	0.1	781.3	10.4
293.15	0.1495	0.14992	781.2	8.5
293.15	0.2499	0.2506	774.3	5.6
293.15	0.3285	0.32942	767.8	4.8
298.15	0.01988	0.0199	778	42.2
298.15	0.02996	0.02999	779.9	29
298.15	0.04044	0.04048	791.9	22.1
298.15	0.0599	0.05996	794.9	15.7
298.15	0.0793	0.07938	795.5	12.5
298.15	0.0999	0.1	795.1	10.4
298.15	0.1495	0.14992	794.7	8.5
298.15	0.2499	0.2506	788.1	5.8
298.15	0.3285	0.32942	782	4.9
303.15	0.01988	0.0199	791	42.3
303.15	0.02996	0.02999	793.3	29.1
303.15	0.04044	0.04048	804.4	22.1
303.15	0.0599	0.05996	807.2	15.7
303.15	0.0793	0.07938	808	12.5
303.15	0.0999	0.1	807.6	10.4
303.15	0.1495	0.14992	807.4	8.5
303.15	0.2499	0.2506	801.2	5.8
303.15	0.3285	0.32942	795.3	4.9
308.15	0.01988	0.0199	805	42.3
308.15	0.02996	0.02999	805.3	29.1
308.15	0.04044	0.04048	816.3	22.1
308.15	0.0599	0.05996	819	15.7
308.15	0.0793	0.07938	820.1	12.5
308.15	0.0999	0.1	819.7	10.4
308.15	0.1495	0.14992	819.1	8.6
308.15	0.2499	0.2506	813.3	5.8
308.15	0.3285	0.32942	807.7	4.9
313.15	0.01988	0.0199	817	42.3
313.15	0.02996	0.02999	817.4	29.1
313.15	0.04044	0.04048	827.3	22.2
313.15	0.0599	0.05996	830.6	15.7
313.15	0.0793	0.07938	831.2	12.6
313.15	0.0999	0.1	831	10.5
313.15	0.1495	0.14992	830.8	8.6
313.15	0.2499	0.2506	825.1	5.8
313.15	0.3285	0.32942	819.7	4.9
318.15	0.01988	0.0199	828	43.3
318.15	0.02996	0.02999	828	29
318.15	0.04044	0.04048	838.1	22.2
318.15	0.0599	0.05996	841.2	15.8
318.15	0.0793	0.07938	842.3	12.6
318.15	0.0999	0.1	842.1	10.5
318.15	0.1495	0.14992	841.8	8.6
318.15	0.2499	0.2506	836.4	5.8
318.15	0.3285	0.32942	831.2	4.9
323.15	0.01988	0.0199	838	43.3
323.15	0.02996	0.02999	838.9	29.3
323.15	0.04044	0.04048	848	22.3
323.15	0.0599	0.05996	851.9	15.8
323.15	0.0793	0.07938	852.8	12.6
323.15	0.0999	0.1	852.8	10.5
323.15	0.1495	0.14992	852.4	8.7
323.15	0.2499	0.2506	847.3	5.9
323.15	0.3285	0.32942	842.2	5
328.15	0.01988	0.0199	846	43.3
328.15	0.02996	0.02999	848.6	29.3
328.15	0.04044	0.04048	857.2	22.3
328.15	0.0599	0.05996	861.6	15.8
328.15	0.0793	0.07938	862.5	12.6
328.15	0.0999	0.1	862.5	10.5
328.15	0.1495	0.14992	862.6	8.8
328.15	0.2499	0.2506	857.8	5.9
328.15	0.3285	0.32942	852.8	5
333.15	0.01988	0.0199	855	43.4
333.15	0.02996	0.02999	856.7	29.4
333.15	0.04044	0.04048	865.7	22.3
333.15	0.0599	0.05996	871	15.8
333.15	0.0793	0.07938	871.6	12.6
333.15	0.0999	0.1	871.9	10.5
333.15	0.1495	0.14992	872.4	8.8
333.15	0.2499	0.2506	867.9	5.9
333.15	0.3285	0.32942	863.1	5
338.15	0.01988	0.0199	862	43.4
338.15	0.02996	0.02999	864.5	29.4
338.15	0.04044	0.04048	873.3	22.4
338.15	0.0599	0.05996	879.2	15.9
338.15	0.0793	0.07938	880	12.6
338.15	0.0999	0.1	880.5	10.6
338.15	0.1495	0.14992	881.6	8.7
338.15	0.2499	0.2506	877.5	5.9
338.15	0.3285	0.32942	873	5
343.15	0.01988	0.0199	868	43.4
343.15	0.02996	0.02999	870.8	29.5
343.15	0.04044	0.04048	879.5	22.5
343.15	0.0599	0.05996	886.3	15.9
343.15	0.0793	0.07938	887.2	12.7
343.15	0.0999	0.1	888.1	10.6
343.15	0.1495	0.14992	889.5	8.7
343.15	0.2499	0.2506	886.1	5.9
343.15	0.3285	0.32942	881.8	5
348.15	0.01988	0.0199	872	43.4
348.15	0.02996	0.02999	874.8	29.6
348.15	0.04044	0.04048	884.4	22.5
348.15	0.0599	0.05996	891.9	16
348.15	0.0793	0.07938	893.3	12.7
348.15	0.0999	0.1	894.6	10.6
348.15	0.1495	0.14992	896.6	8.7
348.15	0.2499	0.2506	893.9	5.9
348.15	0.3285	0.32942	889.9	5
353.15	0.01988	0.0199	874	43.4
353.15	0.02996	0.02999	878.2	29.5
353.15	0.04044	0.04048	887.9	22.6
353.15	0.0599	0.05996	896	16.1
353.15	0.0793	0.07938	898.2	12.8
353.15	0.0999	0.1	899.7	10.7
353.15	0.1495	0.14992	902.6	8.7
353.15	0.2499	0.2506	900.7	6
353.15	0.3285	0.32942	897.2	5
358.15	0.01988	0.0199	877	43.4
358.15	0.02996	0.02999	881.2	29.6
358.15	0.04044	0.04048	890.7	22.6
358.15	0.0599	0.05996	899.5	16.1
358.15	0.0793	0.07938	901.8	12.8
358.15	0.0999	0.1	904	10.7
358.15	0.1495	0.14992	907.7	8.7
358.15	0.2499	0.2506	906.7	6
358.15	0.3285	0.32942	903.6	5.1
363.15	0.01988	0.0199	878	43.4
363.15	0.02996	0.02999	882.3	29.6
363.15	0.04044	0.04048	892.2	22.7
363.15	0.0599	0.05996	901.8	16.1
363.15	0.0793	0.07938	904.3	12.8
363.15	0.0999	0.1	907	10.7
363.15	0.1495	0.14992	911.7	8.7
363.15	0.2499	0.2506	911.7	6
363.15	0.3285	0.32942	909.2	5.1
368.15	0.01988	0.0199	878	43.4
368.15	0.02996	0.02999	882.3	29.6
368.15	0.04044	0.04048	892.2	22.7
368.15	0.0599	0.05996	902.5	16.1
368.15	0.0793	0.07938	905.6	12.9
368.15	0.0999	0.1	908.5	10.7
368.15	0.1495	0.14992	914.1	8.8
368.15	0.2499	0.2506	915.4	6
368.15	0.3285	0.32942	913.3	5.1
373.15	0.01988	0.0199	877	43.4
373.15	0.02996	0.02999	881.4	29.8
373.15	0.04044	0.04048	891.4	22.7
373.15	0.0599	0.05996	901.8	16.1
373.15	0.0793	0.07938	905.7	12.9
373.15	0.0999	0.1	909.2	10.7
373.15	0.1495	0.14992	915.5	8.8
373.15	0.2499	0.2506	918	6
373.15	0.3285	0.32942	916.6	5.1
378.15	0.01988	0.0199	874	43.4
378.15	0.02996	0.02999	878.6	29.7
378.15	0.04044	0.04048	888.9	22.8
378.15	0.0599	0.05996	899.5	16.2
378.15	0.0793	0.07938	904.4	12.9
378.15	0.0999	0.1	908.4	10.7
378.15	0.1495	0.14992	915.5	8.8
378.15	0.2499	0.2506	919.4	6
378.15	0.3285	0.32942	918.6	5.1
383.15	0.01988	0.0199	871	43.4
383.15	0.02996	0.02999	875	29.8
383.15	0.04044	0.04048	885.5	22.8
383.15	0.0599	0.05996	896.3	16.2
383.15	0.0793	0.07938	901.7	12.9
383.15	0.0999	0.1	906.3	10.8
383.15	0.1495	0.14992	914.5	8.8
383.15	0.2499	0.2506	919.7	6
383.15	0.3285	0.32942	919.6	5.2
388.15	0.01988	0.0199	867	44.4
388.15	0.02996	0.02999	870.9	30
388.15	0.04044	0.04048	881.4	22.9
388.15	0.0599	0.05996	891.8	16.3
388.15	0.0793	0.07938	898.2	12.9
388.15	0.0999	0.1	903.4	10.8
388.15	0.1495	0.14992	912.6	8.8
388.15	0.2499	0.2506	919.2	6
388.15	0.3285	0.32942	919.5	5.2
393.15	0.01988	0.0199	862	44.4
393.15	0.02996	0.02999	865.6	30.5
393.15	0.04044	0.04048	876.5	22.9
393.15	0.0599	0.05996	886.4	16.5
393.15	0.0793	0.07938	893.9	12.9
393.15	0.0999	0.1	899.1	10.8
393.15	0.1495	0.14992	909.9	9
393.15	0.2499	0.2506	918.2	6.1
393.15	0.3285	0.32942	918.8	5.2

System: water + rubidium chloride + 1,4,7,10,13,16-hexaoxacyclooctadecane; phases: Liquid
Fixed: Pressure, kPa = 350
Property: Apparent molar volume, m3/mol (Liquid); method: Calculated with densities of this investigation
Temperature, K	Molality, mol/kg of 1,4,7,10,13,16-hexaoxacyclooctadecane	Molality, mol/kg of rubidium chloride	Apparent molar volume, m3/mol	uncertainty
278.15	0.01988	0.0199	0.0002522	1.68e-05
278.15	0.02996	0.02999	0.0002516	7.52e-06
278.15	0.04044	0.04048	0.0002553	8.32e-06
278.15	0.0599	0.05996	0.0002538	3.85e-06
278.15	0.0793	0.07938	0.0002524	4.26e-06
278.15	0.0999	0.1	0.00025483	2.34e-06
278.15	0.1495	0.14992	0.00025468	2.18e-06
278.15	0.2499	0.2506	0.00025588	1.5e-06
278.15	0.3285	0.32942	0.00025594	1.28e-06
283.15	0.01988	0.0199	0.0002523	1.58e-05
283.15	0.02996	0.02999	0.0002538	6.81e-06
283.15	0.04044	0.04048	0.0002554	7.82e-06
283.15	0.0599	0.05996	0.00025473	3.47e-06
283.15	0.0793	0.07938	0.0002542	4.1e-06
283.15	0.0999	0.1	0.00025588	2.14e-06
283.15	0.1495	0.14992	0.00025659	1.69e-06
283.15	0.2499	0.2506	0.00025778	1.13e-06
283.15	0.3285	0.32942	0.00025782	9.4e-07
288.15	0.01988	0.0199	0.0002527	1.614e-05
288.15	0.02996	0.02999	0.0002557	6.64e-06
288.15	0.04044	0.04048	0.0002562	7.99e-06
288.15	0.0599	0.05996	0.00025621	3.34e-06
288.15	0.0793	0.07938	0.0002559	4.11e-06
288.15	0.0999	0.1	0.00025865	2.04e-06
288.15	0.1495	0.14992	0.00025837	1.6e-06
288.15	0.2499	0.2506	0.00025902	1.07e-06
288.15	0.3285	0.32942	0.00025926	8.9e-07
298.15	0.01988	0.0199	0.0002539	1.684e-05
298.15	0.02996	0.02999	0.00025881	6.74e-06
298.15	0.04044	0.04048	0.000258	8.35e-06
298.15	0.0599	0.05996	0.00025863	3.38e-06
298.15	0.0793	0.07938	0.0002589	4.29e-06
298.15	0.0999	0.1	0.00026063	2.05e-06
298.15	0.1495	0.14992	0.00026068	1.56e-06
298.15	0.2499	0.2506	0.00026147	1.04e-06
298.15	0.3285	0.32942	0.0002617	8.7e-07
308.15	0.01988	0.0199	0.0002565	1.542e-05
308.15	0.02996	0.02999	0.00026105	6.8e-06
308.15	0.04044	0.04048	0.0002604	7.72e-06
308.15	0.0599	0.05996	0.00026097	3.41e-06
308.15	0.0793	0.07938	0.0002613	3.98e-06
308.15	0.0999	0.1	0.00026225	2.07e-06
308.15	0.1495	0.14992	0.00026292	1.52e-06
308.15	0.2499	0.2506	0.00026376	1.02e-06
308.15	0.3285	0.32942	0.00026404	8.4e-07
318.15	0.01988	0.0199	0.0002586	1.437e-05
318.15	0.02996	0.02999	0.00026365	6.88e-06
318.15	0.04044	0.04048	0.0002629	7.28e-06
318.15	0.0599	0.05996	0.00026297	3.45e-06
318.15	0.0793	0.07938	0.0002639	3.68e-06
318.15	0.0999	0.1	0.0002641	2.09e-06
318.15	0.1495	0.14992	0.00026505	1.56e-06
318.15	0.2499	0.2506	0.00026591	1.03e-06
318.15	0.3285	0.32942	0.00026625	8.5e-07
328.15	0.01988	0.0199	0.000262	1.273e-05
328.15	0.02996	0.02999	0.00026427	6.9e-06
328.15	0.04044	0.04048	0.0002657	6.31e-06
328.15	0.0599	0.05996	0.00026504	3.48e-06
328.15	0.0793	0.07938	0.0002654	3.26e-06
328.15	0.0999	0.1	0.00026593	2.1e-06
328.15	0.1495	0.14992	0.00026682	1.66e-06
328.15	0.2499	0.2506	0.00026802	1.11e-06
338.15	0.01988	0.0199	0.0002667	1.211e-05
338.15	0.02996	0.02999	0.00026571	6.95e-06
338.15	0.04044	0.04048	0.0002684	6.09e-06
338.15	0.0599	0.05996	0.00026682	3.5e-06
338.15	0.0793	0.07938	0.00026725	3.13e-06
338.15	0.0999	0.1	0.00026749	2.12e-06
338.15	0.1495	0.14992	0.0002678	3.83e-06
338.15	0.2499	0.2506	0.0002695	2.34e-06
338.15	0.3285	0.32942	0.00026841	9.3e-07
338.15	0.3285	0.32942	0.00027007	1.88e-06
348.15	0.01988	0.0199	0.000266	1.234e-05
348.15	0.02996	0.02999	0.00026807	7.02e-06
348.15	0.04044	0.04048	0.0002706	6.25e-06
348.15	0.0599	0.05996	0.0002692	3.54e-06
348.15	0.0793	0.07938	0.0002685	3.16e-06
348.15	0.0999	0.1	0.0002693	2.13e-06
348.15	0.1495	0.14992	0.0002686	2.73e-06
348.15	0.2499	0.2506	0.00027166	1.74e-06
348.15	0.3285	0.32942	0.00027234	1.37e-06
358.15	0.01988	0.0199	0.0002676	1.278e-05
358.15	0.02996	0.02999	0.0002682	7.02e-06
358.15	0.04044	0.04048	0.0002711	6.39e-06
358.15	0.0599	0.05996	0.00027026	3.56e-06
358.15	0.0793	0.07938	0.00027	3.3e-06
358.15	0.0999	0.1	0.00027114	2.18e-06
358.15	0.1495	0.14992	0.00027142	1.77e-06
358.15	0.2499	0.2506	0.00027284	1.18e-06
358.15	0.3285	0.32942	0.00027367	9.8e-07
368.15	0.01988	0.0199	0.0002701	1.873e-05
368.15	0.02996	0.02999	0.000269	7.28e-06
368.15	0.04044	0.04048	0.000273	9.36e-06
368.15	0.0599	0.05996	0.00027179	3.7e-06
368.15	0.0793	0.07938	0.0002719	4.88e-06
368.15	0.0999	0.1	0.0002727	2.27e-06
368.15	0.1495	0.14992	0.0002722	2.74e-06
368.15	0.2499	0.2506	0.00027369	1.76e-06
368.15	0.3285	0.32942	0.00027475	1.42e-06

System: cesium chloride + water + 1,4,7,10,13,16-hexaoxacyclooctadecane; phases: Liquid
Fixed: Pressure, kPa = 350
Property: Apparent molar heat capacity, J/K/mol (Liquid); method: Extra sensitive DSC
Temperature, K	Molality, mol/kg of 1,4,7,10,13,16-hexaoxacyclooctadecane	Molality, mol/kg of cesium chloride	Apparent molar heat capacity, J/K/mol	uncertainty
278.15	0.0211	0.02111	624	46
278.15	0.02994	0.02996	642	33.3
278.15	0.04	0.04002	651.3	25.7
278.15	0.04972	0.04975	659.7	20.8
278.15	0.05983	0.05987	663.8	17.9
278.15	0.07913	0.07918	671.1	14.1
278.15	0.1006	0.10066	676.3	11.5
278.15	0.1499	0.15017	691.5	8.8
278.15	0.2501	0.25055	691.2	6
278.15	0.3298	0.33039	687.5	5.1
283.15	0.0211	0.02111	656	46
283.15	0.02994	0.02996	671	33.3
283.15	0.04	0.04002	679.6	25.7
283.15	0.04972	0.04975	687	20.8
283.15	0.05983	0.05987	691	17.9
283.15	0.07913	0.07918	697.6	14
283.15	0.1006	0.10066	702.4	11.4
283.15	0.1499	0.15017	712.4	8.8
283.15	0.2501	0.25055	712.5	6
283.15	0.3298	0.33039	709.1	5.1
288.15	0.0211	0.02111	680	46.1
288.15	0.02994	0.02996	693	33.4
288.15	0.04	0.04002	700.9	25.6
288.15	0.04972	0.04975	707.6	20.8
288.15	0.05983	0.05987	711.1	17.8
288.15	0.07913	0.07918	717.2	14.1
288.15	0.1006	0.10066	721.7	11.4
288.15	0.1499	0.15017	730.7	8.8
288.15	0.2501	0.25055	731	5.9
288.15	0.3298	0.33039	727.7	5.2
293.15	0.0211	0.02111	700	46.1
293.15	0.02994	0.02996	713	33.4
293.15	0.04	0.04002	720.3	25.5
293.15	0.04972	0.04975	726.2	20.7
293.15	0.05983	0.05987	729.6	17.8
293.15	0.07913	0.07918	735.1	14
293.15	0.1006	0.10066	739.2	11.5
293.15	0.1499	0.15017	747.3	8.8
293.15	0.2501	0.25055	747.4	6
293.15	0.3298	0.33039	744.2	5.2
298.15	0.0211	0.02111	720	46.1
298.15	0.02994	0.02996	732	33.4
298.15	0.04	0.04002	738.6	25.4
298.15	0.04972	0.04975	743.9	20.7
298.15	0.05983	0.05987	746.9	17.7
298.15	0.07913	0.07918	752.1	14
298.15	0.1006	0.10066	755.8	11.5
298.15	0.1499	0.15017	762.8	8.9
298.15	0.2501	0.25055	762.8	6
298.15	0.3298	0.33039	759.7	5.2
303.15	0.0211	0.02111	739	46.2
303.15	0.02994	0.02996	750	33.5
303.15	0.04	0.04002	755.6	25.4
303.15	0.04972	0.04975	760.2	20.7
303.15	0.05983	0.05987	763.1	17.8
303.15	0.07913	0.07918	767.8	14
303.15	0.1006	0.10066	771.2	11.5
303.15	0.1499	0.15017	777.9	8.9
303.15	0.2501	0.25055	777.8	6
303.15	0.3298	0.33039	774.5	5.1
308.15	0.0211	0.02111	756	46.2
308.15	0.02994	0.02996	766	33.5
308.15	0.04	0.04002	771.9	25.3
308.15	0.04972	0.04975	775.8	20.6
308.15	0.05983	0.05987	778.6	17.8
308.15	0.07913	0.07918	783	14
308.15	0.1006	0.10066	786.3	11.4
308.15	0.1499	0.15017	792.2	8.9
308.15	0.2501	0.25055	792	6
308.15	0.3298	0.33039	788.8	5.1
313.15	0.0211	0.02111	772	46.2
313.15	0.02994	0.02996	781	32.2
313.15	0.04	0.04002	786.8	25.4
313.15	0.04972	0.04975	790.3	20.7
313.15	0.05983	0.05987	793.1	17.7
313.15	0.07913	0.07918	797.3	13.9
313.15	0.1006	0.10066	800.2	11.4
313.15	0.1499	0.15017	806.3	8.9
313.15	0.2501	0.25055	806	6.1
313.15	0.3298	0.33039	802.7	5.1
318.15	0.0211	0.02111	787	45
318.15	0.02994	0.02996	796	32.2
318.15	0.04	0.04002	801	25.1
318.15	0.04972	0.04975	804.3	20.7
318.15	0.05983	0.05987	807.1	17.7
318.15	0.07913	0.07918	811	13.9
318.15	0.1006	0.10066	813.9	11.5
318.15	0.1499	0.15017	819.7	9
318.15	0.2501	0.25055	819.5	6.1
318.15	0.3298	0.33039	816.2	5.2
323.15	0.0211	0.02111	801	45
323.15	0.02994	0.02996	809	32.3
323.15	0.04	0.04002	814.3	25.3
323.15	0.04972	0.04975	817.3	20.7
323.15	0.05983	0.05987	820	17.7
323.15	0.07913	0.07918	823.9	14
323.15	0.1006	0.10066	826.9	11.5
323.15	0.1499	0.15017	832.5	9
323.15	0.2501	0.25055	832.3	6.1
323.15	0.3298	0.33039	829.1	5.2
328.15	0.0211	0.02111	813	45
328.15	0.02994	0.02996	821	32.3
328.15	0.04	0.04002	826.4	25.3
328.15	0.04972	0.04975	829.1	20.6
328.15	0.05983	0.05987	832	17.7
328.15	0.07913	0.07918	835.8	14
328.15	0.1006	0.10066	838.7	11.5
328.15	0.1499	0.15017	844.6	9
328.15	0.2501	0.25055	844.7	6.1
328.15	0.3298	0.33039	841.5	5.2
333.15	0.0211	0.02111	824	45
333.15	0.02994	0.02996	832	32.3
333.15	0.04	0.04002	837.5	25.3
333.15	0.04972	0.04975	840.1	20.6
333.15	0.05983	0.05987	843.2	17.8
333.15	0.07913	0.07918	846.9	14
333.15	0.1006	0.10066	849.8	11.5
333.15	0.1499	0.15017	856	9
333.15	0.2501	0.25055	856.4	6.1
333.15	0.3298	0.33039	853.4	5.2
338.15	0.0211	0.02111	834	45
338.15	0.02994	0.02996	842	32.3
338.15	0.04	0.04002	847.5	25.3
338.15	0.04972	0.04975	849.9	20.6
338.15	0.05983	0.05987	853.1	17.8
338.15	0.07913	0.07918	857	14
338.15	0.1006	0.10066	859.9	11.5
338.15	0.1499	0.15017	866.4	9
338.15	0.2501	0.25055	867.4	6.1
338.15	0.3298	0.33039	864.5	5.2
343.15	0.0211	0.02111	843	45.1
343.15	0.02994	0.02996	851	32.3
343.15	0.04	0.04002	855.7	25.3
343.15	0.04972	0.04975	858.2	20.6
343.15	0.05983	0.05987	861.5	17.8
343.15	0.07913	0.07918	865.4	14
343.15	0.1006	0.10066	868.5	11.6
343.15	0.1499	0.15017	875.5	9
343.15	0.2501	0.25055	876.9	6.2
343.15	0.3298	0.33039	874.3	5.3
348.15	0.0211	0.02111	850	45.1
348.15	0.02994	0.02996	857	32.3
348.15	0.04	0.04002	862.2	25.4
348.15	0.04972	0.04975	865.5	20.7
348.15	0.05983	0.05987	868.4	17.8
348.15	0.07913	0.07918	872.6	14
348.15	0.1006	0.10066	875.9	11.6
348.15	0.1499	0.15017	883.3	8.9
348.15	0.2501	0.25055	885.4	6.2
348.15	0.3298	0.33039	883.1	5.3
353.15	0.0211	0.02111	855	45.1
353.15	0.02994	0.02996	863	32.4
353.15	0.04	0.04002	867.7	25.4
353.15	0.04972	0.04975	870.7	20.7
353.15	0.05983	0.05987	874.1	17.8
353.15	0.07913	0.07918	878.3	14.1
353.15	0.1006	0.10066	881.8	11.6
353.15	0.1499	0.15017	889.7	8.9
353.15	0.2501	0.25055	892.6	6.2
353.15	0.3298	0.33039	890.6	5.3
358.15	0.0211	0.02111	859	45.1
358.15	0.02994	0.02996	867	32.4
358.15	0.04	0.04002	871.3	25.2
358.15	0.04972	0.04975	874.5	20.5
358.15	0.05983	0.05987	878.3	17.7
358.15	0.07913	0.07918	882.9	14.1
358.15	0.1006	0.10066	886.5	11.6
358.15	0.1499	0.15017	895	8.9
358.15	0.2501	0.25055	898.7	6.2
358.15	0.3298	0.33039	897.1	5.3
363.15	0.0211	0.02111	862	45.1
363.15	0.02994	0.02996	869	32.4
363.15	0.04	0.04002	874.3	25.2
363.15	0.04972	0.04975	877.3	20.6
363.15	0.05983	0.05987	881.2	17.7
363.15	0.07913	0.07918	885.9	14.1
363.15	0.1006	0.10066	889.8	11.6
363.15	0.1499	0.15017	899	8.9
363.15	0.2501	0.25055	903.6	6.2
363.15	0.3298	0.33039	902.4	5.3
368.15	0.0211	0.02111	864	45.1
368.15	0.02994	0.02996	871	32.4
368.15	0.04	0.04002	875.5	25.2
368.15	0.04972	0.04975	878.9	20.6
368.15	0.05983	0.05987	882.5	17.7
368.15	0.07913	0.07918	887.2	14.1
368.15	0.1006	0.10066	891.5	11.6
368.15	0.1499	0.15017	901.2	8.9
368.15	0.2501	0.25055	906.7	6.2
368.15	0.3298	0.33039	906	5.3
373.15	0.0211	0.02111	864	45.1
373.15	0.02994	0.02996	871	32.4
373.15	0.04	0.04002	875.6	25.2
373.15	0.04972	0.04975	879.5	20.6
373.15	0.05983	0.05987	883	17.7
373.15	0.07913	0.07918	888	14.1
373.15	0.1006	0.10066	892.4	11.6
373.15	0.1499	0.15017	902.4	8.9
373.15	0.2501	0.25055	908.7	6.2
373.15	0.3298	0.33039	908.5	5.3
378.15	0.0211	0.02111	863	45.1
378.15	0.02994	0.02996	871	32.4
378.15	0.04	0.04002	874.8	25.2
378.15	0.04972	0.04975	878.6	20.6
378.15	0.05983	0.05987	882	17.7
378.15	0.07913	0.07918	887.3	13.9
378.15	0.1006	0.10066	891.7	11.6
378.15	0.1499	0.15017	902.1	8.9
378.15	0.2501	0.25055	909.3	6.2
378.15	0.3298	0.33039	909.5	5.3
383.15	0.0211	0.02111	862	45.1
383.15	0.02994	0.02996	869	32.4
383.15	0.04	0.04002	872.5	25.2
383.15	0.04972	0.04975	876.5	20.6
383.15	0.05983	0.05987	879.8	17.7
383.15	0.07913	0.07918	885.4	13.9
383.15	0.1006	0.10066	889.9	11.6
383.15	0.1499	0.15017	900.7	8.9
383.15	0.2501	0.25055	908.7	6.2
383.15	0.3298	0.33039	909.3	5.3
388.15	0.0211	0.02111	859	45.1
388.15	0.02994	0.02996	866	32.4
388.15	0.04	0.04002	869.6	25.2
388.15	0.04972	0.04975	874	20.5
388.15	0.05983	0.05987	876.9	17.7
388.15	0.07913	0.07918	882.9	13.9
388.15	0.1006	0.10066	887.1	11.6
388.15	0.1499	0.15017	898.4	8.9
388.15	0.2501	0.25055	907.1	6.2
388.15	0.3298	0.33039	908.1	5.3
388.15	0.0211	0.02111	856	45.1
393.15	0.02994	0.02996	862	32.4
393.15	0.04	0.04002	865.7	25.1
393.15	0.04972	0.04975	871	20.5
393.15	0.05983	0.05987	872.8	17.7
393.15	0.07913	0.07918	878.4	13.9
393.15	0.1006	0.10066	883.2	11.6
393.15	0.1499	0.15017	895.5	8.9
393.15	0.2501	0.25055	904.7	6.2
393.15	0.3298	0.33039	906	5.3

System: cesium chloride + water + 1,4,7,10,13,16-hexaoxacyclooctadecane; phases: Liquid
Fixed: Pressure, kPa = 350
Property: Apparent molar volume, m3/mol (Liquid); method: Calculated with densities of this investigation
Temperature, K	Molality, mol/kg of 1,4,7,10,13,16-hexaoxacyclooctadecane	Molality, mol/kg of cesium chloride	Apparent molar volume, m3/mol	uncertainty
278.15	0.0211	0.02111	0.0002541	7.82e-06
278.15	0.02994	0.02996	0.0002546	1.194e-05
278.15	0.04	0.04002	0.0002582	4.21e-06
278.15	0.04972	0.04975	0.0002573	7.25e-06
278.15	0.05983	0.05987	0.0002593	5.99e-06
278.15	0.07913	0.07918	0.0002605	4.13e-06
278.15	0.1006	0.10066	0.0002606	3.26e-06
278.15	0.1499	0.15017	0.0002599	2.18e-06
278.15	0.2501	0.25055	0.00026076	1.63e-06
278.15	0.3298	0.33039	0.00026043	1.5e-06
283.15	0.0211	0.02111	0.0002566	7.48e-06
283.15	0.02994	0.02996	0.000257	1.047e-05
283.15	0.04	0.04002	0.0002599	4.1e-06
283.15	0.04972	0.04975	0.0002592	6.33e-06
283.15	0.05983	0.05987	0.000261	5.44e-06
283.15	0.07913	0.07918	0.0002634	3.42e-06
283.15	0.1006	0.10066	0.0002624	2.72e-06
283.15	0.1499	0.15017	0.00026206	1.68e-06
283.15	0.2501	0.25055	0.00026273	1.19e-06
283.15	0.3298	0.33039	0.00026262	1.17e-06
288.15	0.0211	0.02111	0.0002583	6.57e-06
288.15	0.02994	0.02996	0.0002578	1.066e-05
288.15	0.04	0.04002	0.00026149	3.63e-06
288.15	0.04972	0.04975	0.0002603	6.52e-06
288.15	0.05983	0.05987	0.0002622	5.44e-06
288.15	0.07913	0.07918	0.000265	3.6e-06
288.15	0.1006	0.10066	0.0002641	2.91e-06
288.15	0.1499	0.15017	0.00026333	1.47e-06
288.15	0.2501	0.25055	0.00026394	1.06e-06
288.15	0.3298	0.33039	0.00026394	1.08e-06
298.15	0.0211	0.02111	0.0002622	6.67e-06
298.15	0.02994	0.02996	0.0002605	1.216e-05
298.15	0.04	0.04002	0.00026435	3.64e-06
298.15	0.04972	0.04975	0.0002624	7.46e-06
298.15	0.05983	0.05987	0.0002647	6.19e-06
298.15	0.07913	0.07918	0.0002675	4.15e-06
298.15	0.1006	0.10066	0.0002671	3.27e-06
298.15	0.1499	0.15017	0.00026595	1.79e-06
298.15	0.2501	0.25055	0.00026665	1.23e-06
298.15	0.3298	0.33039	0.0002663	1.12e-06
308.15	0.0211	0.02111	0.0002655	7.44e-06
308.15	0.02994	0.02996	0.0002669	9.64e-06
308.15	0.04	0.04002	0.0002668	4.05e-06
308.15	0.04972	0.04975	0.0002645	5.82e-06
308.15	0.05983	0.05987	0.0002672	4.92e-06
308.15	0.07913	0.07918	0.00027	4.9e-06
308.15	0.1006	0.10066	0.0002697	3.84e-06
308.15	0.1499	0.15017	0.00026837	1.54e-06
308.15	0.2501	0.25055	0.00026895	1.09e-06
308.15	0.3298	0.33039	0.00026862	1.05e-06
318.15	0.0211	0.02111	0.0002681	8.91e-06
318.15	0.02994	0.02996	0.0002711	9.5e-06
318.15	0.04	0.04002	0.0002691	4.74e-06
318.15	0.04972	0.04975	0.0002667	5.83e-06
318.15	0.05983	0.05987	0.0002687	4.92e-06
318.15	0.07913	0.07918	0.0002722	6.24e-06
318.15	0.1006	0.10066	0.0002726	4.98e-06
318.15	0.1499	0.15017	0.00027081	1.22e-06
318.15	0.2501	0.25055	0.00027094	9.2e-07
318.15	0.3298	0.33039	0.0002709	9.4e-07
328.15	0.0211	0.02111	0.0002698	1.015e-05
328.15	0.02994	0.02996	0.0002728	6.85e-06
328.15	0.04	0.04002	0.0002712	5.52e-06
328.15	0.04972	0.04975	0.0002691	4.16e-06
328.15	0.05983	0.05987	0.0002712	3.43e-06
328.15	0.07913	0.07918	0.0002744	5.29e-06
328.15	0.1006	0.10066	0.0002739	4.22e-06
328.15	0.1499	0.15017	0.00027256	1.41e-06
328.15	0.2501	0.25055	0.00027314	1.04e-06
328.15	0.3298	0.33039	0.00027314	9.8e-07
338.15	0.0211	0.02111	0.0002736	8.47e-06
338.15	0.02994	0.02996	0.0002744	6.58e-06
338.15	0.04	0.04002	0.0002734	4.5e-06
338.15	0.04972	0.04975	0.0002712	4.02e-06
338.15	0.05983	0.05987	0.0002732	3.29e-06
338.15	0.07913	0.07918	0.0002762	5.29e-06
338.15	0.1006	0.10066	0.0002759	4.23e-06
338.15	0.1499	0.15017	0.0002731	4.69e-06
338.15	0.2501	0.25055	0.0002745	2.86e-06
338.15	0.3298	0.33039	0.00027547	1.95e-06
348.15	0.0211	0.02111	0.0002767	9.07e-06
348.15	0.02994	0.02996	0.0002745	5.89e-06
348.15	0.04	0.04002	0.0002759	4.8e-06
348.15	0.04972	0.04975	0.0002742	3.62e-06
348.15	0.05983	0.05987	0.0002759	3.03e-06
348.15	0.07913	0.07918	0.0002775	5.1e-06
348.15	0.1006	0.10066	0.0002772	4.04e-06
348.15	0.1499	0.15017	0.00027501	1.79e-06
348.15	0.2501	0.25055	0.0002773	1.2e-06
348.15	0.3298	0.33039	0.00027669	9.3e-07
358.15	0.0211	0.02111	0.0002766	7.91e-06
358.15	0.02994	0.02996	0.0002762	6.75e-06
358.15	0.04	0.04002	0.0002772	4.29e-06
358.15	0.04972	0.04975	0.0002771	4.07e-06
358.15	0.05983	0.05987	0.0002778	3.47e-06
358.15	0.07913	0.07918	0.0002782	4.18e-06
358.15	0.1006	0.10066	0.0002782	3.3e-06
358.15	0.1499	0.15017	0.0002767	2.57e-06
358.15	0.2501	0.25055	0.00027843	1.72e-06
358.15	0.3298	0.33039	0.00027854	1.11e-06
368.15	0.0211	0.02111	0.0002781	7.09e-06
368.15	0.02994	0.02996	0.000278	1.045e-05
368.15	0.04	0.04002	0.00027963	3.77e-06
368.15	0.04972	0.04975	0.0002807	6.44e-06
368.15	0.05983	0.05987	0.0002808	5.33e-06
368.15	0.07913	0.07918	0.0002783	4.55e-06
368.15	0.1006	0.10066	0.0002793	3.67e-06
368.15	0.1499	0.15017	0.00027868	1.52e-06
368.15	0.2501	0.25055	0.00028048	1.17e-06
368.15	0.3298	0.33039	0.00028016	1.24e-06
