Measured thermophysical data. High-pressure liquid densities and derived thermodynamic properties for methyl laurate and ethyl laurate
Source: J. Chem. Thermodyn., 2016, 10.1016/j.jct.2016.08.027
Compound 1: methyl dodecanoate, C13H26O2, InChI=1S/C13H26O2/c1-3-4-5-6-7-8-9-10-11-12-13(14)15-2/h3-12H2,1-2H3, purity 99%
Compound 2: ethyl dodecanoate, C14H28O2, InChI=1S/C14H28O2/c1-3-5-6-7-8-9-10-11-12-13-14(15)16-4-2/h3-13H2,1-2H3, purity 99%

System: methyl dodecanoate; phases: Liquid
Property: Mass density, kg/m3 (Liquid); method: Vibrating tube method
Pressure, kPa	Temperature, K	Mass density, kg/m3	uncertainty
100	283.15	876.58	0.9
1000	283.15	877.29	0.9
3000	283.15	879.12	0.91
5000	283.15	880.29	0.91
10000	283.15	883.41	0.92
15000	283.15	886.29	0.93
20000	283.15	889.1	0.94
25000	283.15	891.75	0.94
30000	283.15	894.31	0.95
35000	283.15	896.95	0.96
40000	283.15	899.33	0.97
50000	283.15	904.05	0.98
60000	283.15	909.85	0.99
100	293.15	869.3	0.9
1000	293.15	869.79	0.9
3000	293.15	871.19	0.9
5000	293.15	872.09	0.9
10000	293.15	875.46	0.91
15000	293.15	878.42	0.92
20000	293.15	881.47	0.93
25000	293.15	884.32	0.94
30000	293.15	887.1	0.95
35000	293.15	889.69	0.96
40000	293.15	892.27	0.96
50000	293.15	897.52	0.98
60000	293.15	901.95	0.99
100	303.15	860.98	0.89
1000	303.15	861.67	0.89
3000	303.15	863.19	0.89
5000	303.15	864.57	0.9
10000	303.15	867.78	0.91
15000	303.15	871.1	0.92
20000	303.15	874.06	0.92
25000	303.15	876.92	0.93
30000	303.15	879.85	0.94
35000	303.15	882.66	0.95
40000	303.15	885.34	0.96
50000	303.15	890.6	0.98
60000	303.15	895.49	0.99
100	313.15	853.31	0.88
1000	313.15	853.78	0.88
3000	313.15	855.32	0.89
5000	313.15	856.78	0.89
10000	313.15	860.3	0.9
15000	313.15	863.63	0.91
20000	313.15	866.74	0.92
25000	313.15	870.04	0.93
30000	313.15	872.94	0.94
35000	313.15	875.68	0.95
40000	313.15	878.33	0.96
50000	313.15	883.95	0.98
60000	313.15	888.91	0.99
100	323.15	845.42	0.87
1000	323.15	846.17	0.87
3000	323.15	847.65	0.88
5000	323.15	849.19	0.88
10000	323.15	852.91	0.89
15000	323.15	856.38	0.9
20000	323.15	859.88	0.91
25000	323.15	863.01	0.93
30000	323.15	866.2	0.94
35000	323.15	869.19	0.95
40000	323.15	872.15	0.96
50000	323.15	877.67	0.98
60000	323.15	883.06	1
100	333.15	837.89	0.87
1000	333.15	838.44	0.87
3000	333.15	840.13	0.87
5000	333.15	841.69	0.88
10000	333.15	845.49	0.89
15000	333.15	849.14	0.9
20000	333.15	852.7	0.91
25000	333.15	856.12	0.92
30000	333.15	859.27	0.93
35000	333.15	862.4	0.94
40000	333.15	865.66	0.95
50000	333.15	871.36	0.98
60000	333.15	876.77	1
100	343.15	829.64	0.86
1000	343.15	830.6	0.86
3000	343.15	832.28	0.86
5000	343.15	834.04	0.87
10000	343.15	837.93	0.88
15000	343.15	841.71	0.89
20000	343.15	845.7	0.91
25000	343.15	848.98	0.92
30000	343.15	852.48	0.93
35000	343.15	855.72	0.94
40000	343.15	858.94	0.95
50000	343.15	864.79	0.98
60000	343.15	870.31	1
100	353.15	821.96	0.85
1000	353.15	822.7	0.85
3000	353.15	824.65	0.86
5000	353.15	826.36	0.86
10000	353.15	830.59	0.88
15000	353.15	834.55	0.89
20000	353.15	838.32	0.9
25000	353.15	842.04	0.91
30000	353.15	845.62	0.93
35000	353.15	849.06	0.94
40000	353.15	853.14	0.95
50000	353.15	858.49	0.98
60000	353.15	864.35	1
100	363.15	813.95	0.84
1000	363.15	814.97	0.85
3000	363.15	816.88	0.85
5000	363.15	818.64	0.86
10000	363.15	822.93	0.87
15000	363.15	827.44	0.88
20000	363.15	831.22	0.9
25000	363.15	834.95	0.91
30000	363.15	838.64	0.92
35000	363.15	842.26	0.94
40000	363.15	845.87	0.95
50000	363.15	852.24	0.98
60000	363.15	858.43	1

System: ethyl dodecanoate; phases: Liquid
Property: Mass density, kg/m3 (Liquid); method: Vibrating tube method
Pressure, kPa	Temperature, K	Mass density, kg/m3	uncertainty
100	283.15	869.69	0.9
1000	283.15	870.36	0.9
3000	283.15	871.92	0.9
5000	283.15	872.91	0.9
10000	283.15	876.08	0.91
15000	283.15	878.96	0.92
20000	283.15	881.89	0.93
25000	283.15	884.58	0.94
30000	283.15	887.29	0.95
35000	283.15	890.05	0.96
40000	283.15	892.47	0.96
50000	283.15	897.22	0.98
60000	283.15	901.93	0.99
100	293.15	862.5	0.89
1000	293.15	863	0.89
3000	293.15	864.24	0.89
5000	293.15	865.2	0.9
10000	293.15	868.58	0.91
15000	293.15	871.64	0.92
20000	293.15	874.58	0.92
25000	293.15	877.55	0.93
30000	293.15	880.26	0.94
35000	293.15	882.89	0.95
40000	293.15	885.52	0.96
50000	293.15	890.85	0.98
60000	293.15	895.29	0.99
100	303.15	854.28	0.88
1000	303.15	855.02	0.88
3000	303.15	856.39	0.89
5000	303.15	857.69	0.89
10000	303.15	860.98	0.9
15000	303.15	864.33	0.91
20000	303.15	867.23	0.92
25000	303.15	870.25	0.93
30000	303.15	873.21	0.94
35000	303.15	876.08	0.95
40000	303.15	878.71	0.96
50000	303.15	883.88	0.98
60000	303.15	888.85	0.99
100	313.15	846.91	0.87
1000	313.15	847.32	0.88
3000	313.15	848.68	0.88
5000	313.15	850.07	0.88
10000	313.15	853.51	0.89
15000	313.15	856.86	0.9
20000	313.15	860.1	0.91
25000	313.15	863.29	0.93
30000	313.15	866.24	0.94
35000	313.15	869.1	0.95
40000	313.15	871.83	0.96
50000	313.15	877.43	0.98
60000	313.15	882.35	1
100	323.15	838.9	0.87
1000	323.15	839.64	0.87
3000	323.15	841.1	0.87
5000	323.15	842.59	0.88
10000	323.15	846.29	0.89
15000	323.15	849.77	0.9
20000	323.15	853.3	0.91
25000	323.15	856.35	0.92
30000	323.15	859.5	0.93
35000	323.15	862.45	0.94
40000	323.15	865.48	0.95
50000	323.15	871.16	0.98
60000	323.15	876.11	1
100	333.15	831.05	0.86
1000	333.15	831.72	0.86
3000	333.15	833.53	0.87
5000	333.15	835.15	0.87
10000	333.15	838.84	0.88
15000	333.15	842.47	0.89
20000	333.15	846.07	0.91
25000	333.15	849.47	0.92
30000	333.15	852.73	0.93
35000	333.15	855.75	0.94
40000	333.15	859.06	0.95
50000	333.15	864.9	0.98
60000	333.15	870.44	1
100	343.15	823.11	0.85
1000	343.15	824.13	0.85
3000	343.15	825.84	0.86
5000	343.15	827.55	0.86
10000	343.15	831.53	0.88
15000	343.15	835.33	0.89
20000	343.15	839.18	0.9
25000	343.15	842.57	0.91
30000	343.15	846.08	0.93
35000	343.15	849.44	0.94
40000	343.15	852.46	0.95
50000	343.15	858.61	0.98
60000	343.15	864.08	1
100	353.15	815.47	0.84
1000	353.15	816.33	0.85
3000	353.15	818.26	0.85
5000	353.15	819.99	0.86
10000	353.15	824.24	0.87
15000	353.15	828.35	0.88
20000	353.15	832.01	0.9
25000	353.15	835.81	0.91
30000	353.15	839.36	0.92
35000	353.15	842.72	0.94
40000	353.15	846.01	0.95
50000	353.15	852.29	0.98
60000	353.15	858.27	1
100	363.15	807.52	0.84
1000	363.15	808.53	0.84
3000	363.15	810.45	0.84
5000	363.15	812.32	0.85
10000	363.15	816.46	0.86
15000	363.15	821.01	0.88
20000	363.15	824.82	0.89
25000	363.15	828.56	0.91
30000	363.15	832.36	0.92
35000	363.15	835.98	0.93
40000	363.15	839.55	0.95
50000	363.15	845.99	0.98
60000	363.15	852.14	1
