Measured thermophysical data. Measurement and correlation of ternary phase equilibrium of (hexane + ethyl acetate) with four ILs
Source: J. Chem. Thermodyn., 2018, 10.1016/j.jct.2017.08.022
Compound 1: ethyl acetate, C4H8O2, InChI=1S/C4H8O2/c1-3-6-4(2)5/h3H2,1-2H3, purity 99.8%
Compound 2: hexane, C6H14, InChI=1S/C6H14/c1-3-5-6-4-2/h3-6H2,1-2H3, purity 99.5%
Compound 3: 1-hexyl-3-methylimidazolium tetrafluoroborate, C10H19BF4N2, InChI=1S/C10H19N2.BF4/c1-3-4-5-6-7-12-9-8-11(2)10-12;2-1(3,4)5/h8-10H,3-7H2,1-2H3;/q+1;-1, purity 99%
Compound 4: 1-hexyl-3-methylimidazolium trifluoromethanesulfonate, C11H19F3N2O3S, InChI=1S/C10H19N2.CHF3O3S/c1-3-4-5-6-7-12-9-8-11(2)10-12;2-1(3,4)8(5,6)7/h8-10H,3-7H2,1-2H3;(H,5,6,7)/q+1;/p-1, purity 99%
Compound 5: 1-methyl-3-octylimidazolium tetrafluoroborate, C12H23BF4N2, InChI=1S/C12H23N2.BF4/c1-3-4-5-6-7-8-9-14-11-10-13(2)12-14;2-1(3,4)5/h10-12H,3-9H2,1-2H3;/q+1;-1, purity 99%
Compound 6: 1-octyl-3-methylimidazolium trifluoromethanesulfonate, C13H23F3N2O3S, InChI=1S/C12H23N2.CHF3O3S/c1-3-4-5-6-7-8-9-14-11-10-13(2)12-14;2-1(3,4)8(5,6)7/h10-12H,3-9H2,1-2H3;(H,5,6,7)/q+1;/p-1, purity 99%

System: hexane + ethyl acetate + 1-hexyl-3-methylimidazolium tetrafluoroborate; phases: Liquid mixture 1, Liquid mixture 2
Property: Mole fraction of ethyl acetate (Liquid mixture 1); method: Titration method
Mole fraction of hexane	Pressure, kPa	Temperature, K	Mole fraction of ethyl acetate	uncertainty
0.242	100	298.15	0.674	0.026

System: hexane + ethyl acetate + 1-hexyl-3-methylimidazolium tetrafluoroborate; phases: Liquid mixture 2, Liquid mixture 1
Fixed: Pressure, kPa = 100
Property: Mole fraction of hexane (Liquid mixture 2); method: Chromatography
Property: Mole fraction of ethyl acetate (Liquid mixture 1); method: Chromatography
Property: Mole fraction of hexane (Liquid mixture 1); method: Chromatography
Temperature, K	Mole fraction of ethyl acetate	Mole fraction of hexane	uncertainty	Mole fraction of ethyl acetate	uncertainty	Mole fraction of hexane	uncertainty
298.15	0	0.06	0.024	0		1	
288.15	0.025	0.03	0.024	0.031	0.031	0.968	
288.15	0.191	0.061	0.024	0.209	0.034	0.791	
288.15	0.338	0.064	0.024	0.343	0.034	0.657	
288.15	0.387	0.065	0.024	0.471	0.034	0.529	
288.15	0.474	0.071	0.024	0.578	0.034	0.421	
308.15	0.009	0.01	0.01	0.046	0.034	0.952	
308.15	0.131	0.045	0.024	0.163	0.034	0.837	
308.15	0.256	0.057	0.024	0.346	0.034	0.653	
308.15	0.339	0.056	0.024	0.483	0.034	0.517	
308.15	0.412	0.057	0.024	0.586	0.034	0.413	
298.15	0.027	0.03	0.03	0.042	0.034	0.957	
298.15	0.141	0.061	0.024	0.159	0.034	0.841	
298.15	0.235	0.065	0.024	0.255	0.034	0.745	
298.15	0.309	0.063	0.024	0.347	0.034	0.653	
298.15	0.35	0.068	0.024	0.412	0.034	0.587	
298.15	0.388	0.072	0.024	0.493	0.034	0.507	
298.15	0.453	0.068	0.024	0.58	0.034	0.419	
298.15	0.48	0.071	0.024	0.615	0.034	0.384	

System: hexane + ethyl acetate + 1-methyl-3-octylimidazolium tetrafluoroborate; phases: Liquid mixture 2, Liquid mixture 1
Fixed: Temperature, K = 298.15
Fixed: Pressure, kPa = 100
Property: Mole fraction of hexane (Liquid mixture 2); method: Chromatography
Property: Mole fraction of ethyl acetate (Liquid mixture 1); method: Chromatography
Property: Mole fraction of hexane (Liquid mixture 1); method: Chromatography
Mole fraction of ethyl acetate	Mole fraction of hexane	uncertainty	Mole fraction of ethyl acetate	uncertainty	Mole fraction of hexane	uncertainty
0	0.101	0.024	0		1	
0.056	0.108	0.024	0.046	0.034	0.954	
0.224	0.114	0.024	0.15	0.034	0.85	
0.31	0.129	0.024	0.254	0.034	0.746	
0.408	0.133	0.024	0.413	0.034	0.586	
0.485	0.13	0.024	0.462	0.034	0.537	
0.529	0.13	0.024	0.573	0.024	0.427	

System: hexane + ethyl acetate + 1-methyl-3-octylimidazolium tetrafluoroborate; phases: Liquid mixture 1, Liquid mixture 2
Property: Mole fraction of ethyl acetate (Liquid mixture 1); method: Titration method
Mole fraction of hexane	Pressure, kPa	Temperature, K	Mole fraction of ethyl acetate	uncertainty
0.208	100	298.15	0.728	0.025

System: hexane + ethyl acetate + 1-hexyl-3-methylimidazolium trifluoromethanesulfonate; phases: Liquid mixture 2, Liquid mixture 1
Fixed: Temperature, K = 298.15
Fixed: Pressure, kPa = 100
Property: Mole fraction of hexane (Liquid mixture 2); method: Chromatography
Property: Mole fraction of ethyl acetate (Liquid mixture 1); method: Chromatography
Property: Mole fraction of hexane (Liquid mixture 1); method: Chromatography
Mole fraction of ethyl acetate	Mole fraction of hexane	uncertainty	Mole fraction of ethyl acetate	uncertainty	Mole fraction of hexane	uncertainty
0	0.08	0.024	0		1	
0.064	0.078	0.024	0.051	0.034	0.948	
0.21	0.107	0.024	0.151	0.034	0.849	
0.333	0.109	0.024	0.251	0.034	0.748	
0.408	0.111	0.024	0.333	0.034	0.667	
0.466	0.109	0.024	0.399	0.034	0.601	
0.512	0.112	0.025	0.455	0.034	0.545	
0.559	0.131	0.024	0.513	0.024	0.487	

System: hexane + ethyl acetate + 1-hexyl-3-methylimidazolium trifluoromethanesulfonate; phases: Liquid mixture 1, Liquid mixture 2
Property: Mole fraction of ethyl acetate (Liquid mixture 1); method: Titration method
Mole fraction of hexane	Pressure, kPa	Temperature, K	Mole fraction of ethyl acetate	uncertainty
0.259	100	298.15	0.67	0.026

System: hexane + ethyl acetate + 1-octyl-3-methylimidazolium trifluoromethanesulfonate; phases: Liquid mixture 2, Liquid mixture 1
Fixed: Temperature, K = 298.15
Fixed: Pressure, kPa = 100
Property: Mole fraction of hexane (Liquid mixture 2); method: Chromatography
Property: Mole fraction of ethyl acetate (Liquid mixture 1); method: Chromatography
Property: Mole fraction of hexane (Liquid mixture 1); method: Chromatography
Mole fraction of ethyl acetate	Mole fraction of hexane	uncertainty	Mole fraction of ethyl acetate	uncertainty	Mole fraction of hexane	uncertainty
0	0.119	0.024	0		1	
0.102	0.128	0.025	0.044	0.034	0.956	
0.245	0.173	0.025	0.147	0.034	0.853	
0.357	0.192	0.024	0.237	0.034	0.763	
0.434	0.193	0.024	0.323	0.034	0.677	
0.485	0.19	0.024	0.409	0.034	0.59	
0.531	0.196	0.024	0.483	0.034	0.516	
0.569	0.199	0.025	0.536	0.034	0.462	
0.634	0.217	0.024	0.565	0.024	0.431	

System: hexane + ethyl acetate + 1-octyl-3-methylimidazolium trifluoromethanesulfonate; phases: Liquid mixture 1, Liquid mixture 2
Property: Mole fraction of ethyl acetate (Liquid mixture 1); method: Titration method
Mole fraction of hexane	Pressure, kPa	Temperature, K	Mole fraction of ethyl acetate	uncertainty
0.199	100	298.15	0.75	0.025

System: hexane + 1-octyl-3-methylimidazolium trifluoromethanesulfonate; phases: Liquid mixture 2, Liquid mixture 1
Property: Mole fraction of hexane (Liquid mixture 2); method: Chromatography
Temperature, K	Pressure, kPa	Mole fraction of hexane	uncertainty
298.15	100	0.119	0.024

System: hexane + 1-hexyl-3-methylimidazolium tetrafluoroborate; phases: Liquid mixture 2, Liquid mixture 1
Property: Mole fraction of hexane (Liquid mixture 2); method: Chromatography
Temperature, K	Pressure, kPa	Mole fraction of hexane	uncertainty
298.15	100	0.06	0.024

System: hexane + 1-methyl-3-octylimidazolium tetrafluoroborate; phases: Liquid mixture 2, Liquid mixture 1
Property: Mole fraction of hexane (Liquid mixture 2); method: Chromatography
Temperature, K	Pressure, kPa	Mole fraction of hexane	uncertainty
298.15	100	0.101	0.024

System: hexane + 1-hexyl-3-methylimidazolium trifluoromethanesulfonate; phases: Liquid mixture 2, Liquid mixture 1
Property: Mole fraction of hexane (Liquid mixture 2); method: Chromatography
Temperature, K	Pressure, kPa	Mole fraction of hexane	uncertainty
298.15	100	0.08	0.024
