Measured thermophysical data. A thermodynamic study of sublimation, dissolution and distribution processes of anti-inflammatory drug Clonixin
Source: J. Chem. Thermodyn., 2019, 10.1016/j.jct.2019.01.006
Compound 1: 2-(2-methyl-3-chloroanilino)nicotinic acid, C13H11ClN2O2, InChI=1S/C13H11ClN2O2/c1-8-10(14)5-2-6-11(8)16-12-9(13(17)18)4-3-7-15-12/h2-7H,1H3,(H,15,16)(H,17,18), purity 98%
Compound 2: octan-1-ol, C8H18O, InChI=1S/C8H18O/c1-2-3-4-5-6-7-8-9/h9H,2-8H2,1H3, purity 99%
Compound 3: hexane, C6H14, InChI=1S/C6H14/c1-3-5-6-4-2/h3-6H2,1-2H3, purity 97%

System: 2-(2-methyl-3-chloroanilino)nicotinic acid; phases: Crystal, Liquid, Air at 1 atmosphere
Property: Normal melting temperature, K (Crystal); method: DTA
Normal melting temperature, K	uncertainty
505.75	0.5

System: 2-(2-methyl-3-chloroanilino)nicotinic acid; phases: Crystal, Gas
Property: Vapor or sublimation pressure, kPa (Crystal); method: Transpiration method
Temperature, K	Vapor or sublimation pressure, kPa	uncertainty
419.15	0.000753	0.000124
421.15	0.000867	0.000125
423.15	0.000966	0.000126
425.15	0.001118	0.000129
427.15	0.001294	0.000131
429.15	0.001475	0.000134
431.15	0.001694	0.000139
433.15	0.001933	0.000143
435.15	0.002207	0.000149
437.15	0.002483	0.000157
439.15	0.002882	0.000166
441.15	0.003179	0.000177
443.15	0.003735	0.000197

System: octan-1-ol; phases: Liquid
Fixed: Pressure, kPa = 101.325
Property: Mass density, kg/m3 (Liquid); method: Vibrating tube method
Temperature, K	Mass density, kg/m3	uncertainty
293.15	825.1	4
298.15	821.7	4
303.15	818.3	4
308.15	814.8	4
313.15	811.4	4

System: hexane; phases: Liquid
Fixed: Pressure, kPa = 101.325
Property: Mass density, kg/m3 (Liquid); method: Vibrating tube method
Temperature, K	Mass density, kg/m3	uncertainty
293.15	659.4	4.1
298.15	654.8	4.1
303.15	650.2	4.1
308.15	645.4	4.1
313.15	640.7	4.1

System: 2-(2-methyl-3-chloroanilino)nicotinic acid + octan-1-ol; phases: Liquid, Crystal
Fixed: Pressure, kPa = 100
Property: Mole fraction of 2-(2-methyl-3-chloroanilino)nicotinic acid (Liquid); method: spectrophotometer
Temperature, K	Mole fraction of 2-(2-methyl-3-chloroanilino)nicotinic acid	uncertainty
293.15	0.0075	0.00068
298.15	0.0086	0.00078
303.15	0.0099	0.0009
308.15	0.0114	0.00103
313.15	0.013	0.0012

System: 2-(2-methyl-3-chloroanilino)nicotinic acid + hexane; phases: Liquid, Crystal
Fixed: Pressure, kPa = 100
Property: Mole fraction of 2-(2-methyl-3-chloroanilino)nicotinic acid (Liquid); method: spectrophotometer
Temperature, K	Mole fraction of 2-(2-methyl-3-chloroanilino)nicotinic acid	uncertainty
293.15	1.78e-05	1.6e-06
298.15	2.41e-05	2.2e-06
303.15	3.18e-05	2.9e-06
308.15	4.44e-05	4.1e-06
313.15	5.82e-05	5.3e-06
