Measured thermophysical data. (Liquid + liquid) phase equilibria of 1-alkyl-3-methylimidazolium methylsulfate with alcohols, or ethers, or ketones
Source: J. Chem. Thermodyn., 2006, 10.1016/j.jct.2005.07.024
Compound 1: 1,3-dimethylimidazolium methylsulfate, C6H12N2O4S, InChI=1S/C5H9N2.CH4O4S/c1-6-3-4-7(2)5-6;1-5-6(2,3)4/h3-5H,1-2H3;1H3,(H,2,3,4)/q+1;/p-1, purity 98%
Compound 2: 1-butyl-3-methylimidazolium methyl sulfate, C9H18N2O4S, InChI=1S/C8H15N2.CH4O4S/c1-3-4-5-10-7-6-9(2)8-10;1-5-6(2,3)4/h6-8H,3-5H2,1-2H3;1H3,(H,2,3,4)/q+1;/p-1, purity 98%
Compound 3: hexan-1-ol, C6H14O, InChI=1S/C6H14O/c1-2-3-4-5-6-7/h7H,2-6H2,1H3
Compound 4: octan-1-ol, C8H18O, InChI=1S/C8H18O/c1-2-3-4-5-6-7-8-9/h9H,2-8H2,1H3
Compound 5: nonan-1-ol, C9H20O, InChI=1S/C9H20O/c1-2-3-4-5-6-7-8-9-10/h10H,2-9H2,1H3
Compound 6: decan-1-ol, C10H22O, InChI=1S/C10H22O/c1-2-3-4-5-6-7-8-9-10-11/h11H,2-10H2,1H3
Compound 7: dipropyl ether, C6H14O, InChI=1S/C6H14O/c1-3-5-7-6-4-2/h3-6H2,1-2H3
Compound 8: dibutyl ether, C8H18O, InChI=1S/C8H18O/c1-3-5-7-9-8-6-4-2/h3-8H2,1-2H3
Compound 9: 2-methoxy-2-methylpropane, C5H12O, InChI=1S/C5H12O/c1-5(2,3)6-4/h1-4H3
Compound 10: 2-methoxy-2-methylbutane, C6H14O, InChI=1S/C6H14O/c1-5-6(2,3)7-4/h5H2,1-4H3
Compound 11: pentan-2-one, C5H10O, InChI=1S/C5H10O/c1-3-4-5(2)6/h3-4H2,1-2H3
Compound 12: pentan-3-one, C5H10O, InChI=1S/C5H10O/c1-3-5(6)4-2/h3-4H2,1-2H3
Compound 13: 2-hexanone, C6H12O, InChI=1S/C6H12O/c1-3-4-5-6(2)7/h3-5H2,1-2H3
Compound 14: 4-heptanone, C7H14O, InChI=1S/C7H14O/c1-3-5-7(8)6-4-2/h3-6H2,1-2H3
Compound 15: cyclopentanone, C5H8O, InChI=1S/C5H8O/c6-5-3-1-2-4-5/h1-4H2
Compound 16: heptan-1-ol, C7H16O, InChI=1S/C7H16O/c1-2-3-4-5-6-7-8/h8H,2-7H2,1H3

System: heptan-1-ol + 1,3-dimethylimidazolium methylsulfate; phases: Liquid, Crystal
Fixed: Pressure, kPa = 101
Property: Solid-liquid equilibrium temperature, K (Liquid); method: VISOBS:UFactor:8
Mole fraction of 1,3-dimethylimidazolium methylsulfate	Solid-liquid equilibrium temperature, K	uncertainty
0.2414	289.03	1.24
0.2731	291.2	1.24
0.3371	293.53	1.24
0.3783	295.47	1.24
0.4497	297.28	1.24
0.5021	298.82	1.24
0.563	300.2	1.24
0.6348	301.67	1.24
0.7247	303.64	1.24
0.7997	305.12	1.24
0.8967	307.6	1.24
0.9599	308.4	1.24
1	308.9	1.24

System: hexan-1-ol + 1,3-dimethylimidazolium methylsulfate; phases: Liquid, Crystal
Fixed: Pressure, kPa = 101
Property: Solid-liquid equilibrium temperature, K (Liquid); method: VISOBS:UFactor:8
Mole fraction of 1,3-dimethylimidazolium methylsulfate	Solid-liquid equilibrium temperature, K	uncertainty
0.2855	290.35	1.24
0.3275	292.19	1.24
0.3845	294.53	1.24
0.4212	295.36	1.24
0.4502	296	1.24
0.4769	296.8	1.24
0.4963	297.24	1.24
0.514	297.73	1.24
0.5552	298.76	1.24
0.6161	299.89	1.24
0.6677	300.76	1.24
0.7673	303.46	1.24
0.8453	305.05	1.24
0.9105	306.84	1.24
0.9551	307.98	1.24
1	308.9	1.24

System: octan-1-ol + 1,3-dimethylimidazolium methylsulfate; phases: Liquid mixture 1, Liquid mixture 2
Fixed: Pressure, kPa = 101
Property: Liquid-liquid equilibrium temperature, K (Liquid mixture 1); method: VISOBS:UFactor:16
Mole fraction of 1,3-dimethylimidazolium methylsulfate	Liquid-liquid equilibrium temperature, K	uncertainty
0.278	322.33	2.48
0.296	325.69	2.48
0.314	329.33	2.48
0.3296	332.45	2.48
0.3555	337.03	2.48
0.3873	339.47	2.48
0.4159	341.56	2.48
0.4409	342.87	2.48
0.4425	342.97	2.48
0.4439	343.22	2.48
0.4465	342.97	2.48
0.4537	343.2	2.48
0.4704	344.18	2.48
0.4716	344.62	2.48
0.4858	344.82	2.48
0.5047	345.85	2.48
0.5792	345.83	2.48
0.5827	345.47	2.48
0.6276	342.59	2.48
0.668	341.56	2.48
0.6948	340.35	2.48
0.744	335.96	2.48
0.755	335.47	2.48
0.7872	333.47	2.48
0.8072	332.04	2.48
0.8469	330.49	2.48
0.8675	328.15	2.48
0.8949	325.37	2.48
0.9233	323.08	2.48
0.9491	319.26	2.48

System: nonan-1-ol + 1,3-dimethylimidazolium methylsulfate; phases: Liquid mixture 1, Liquid mixture 2
Fixed: Pressure, kPa = 101
Property: Liquid-liquid equilibrium temperature, K (Liquid mixture 1); method: VISOBS:UFactor:16
Mole fraction of 1,3-dimethylimidazolium methylsulfate	Liquid-liquid equilibrium temperature, K	uncertainty
0.3755	351.23	2.48
0.4158	352.83	2.48
0.4355	354.26	2.48
0.4586	354.49	2.48
0.477	355.42	2.48
0.512	354.5	2.48
0.5369	353.76	2.48
0.5799	353.48	2.48
0.615	353.82	2.48
0.6546	352.38	2.48
0.7042	351.71	2.48
0.7628	350.57	2.48
0.7975	348.92	2.48
0.8319	349.63	2.48
0.8745	347.57	2.48
0.9216	341.35	2.48
0.9519	327.8	2.48

System: decan-1-ol + 1,3-dimethylimidazolium methylsulfate; phases: Liquid mixture 1, Liquid mixture 2
Fixed: Pressure, kPa = 101
Property: Liquid-liquid equilibrium temperature, K (Liquid mixture 1); method: VISOBS:UFactor:16
Mole fraction of 1,3-dimethylimidazolium methylsulfate	Liquid-liquid equilibrium temperature, K	uncertainty
0.1589	311.36	2.48
0.2042	314.24	2.48
0.2354	319.14	2.48
0.2599	322.25	2.48
0.2828	325.63	2.48
0.3023	329.25	2.48
0.3411	332.76	2.48
0.371	338.1	2.48
0.4079	343.28	2.48
0.45	349.18	2.48
0.5019	353.45	2.48
0.5288	355.85	2.48
0.5981	356.55	2.48
0.6836	355.45	2.48
0.7181	354.65	2.48
0.7559	354.65	2.48
0.7787	353.33	2.48
0.7994	353.98	2.48
0.8256	352.75	2.48
0.8592	351.37	2.48
0.8964	349.19	2.48
0.9304	346.65	2.48
0.9679	331.13	2.48

System: dipropyl ether + 1,3-dimethylimidazolium methylsulfate; phases: Liquid mixture 1, Liquid mixture 2
Fixed: Pressure, kPa = 101
Property: Liquid-liquid equilibrium temperature, K (Liquid mixture 1); method: VISOBS:UFactor:16
Mole fraction of 1,3-dimethylimidazolium methylsulfate	Liquid-liquid equilibrium temperature, K	uncertainty
0.5698	359.36	2.48
0.5865	356.97	2.48
0.6	355.48	2.48
0.6081	354.39	2.48
0.6209	353.28	2.48
0.6409	352.2	2.48
0.652	350.02	2.48
0.668	347.74	2.48
0.672	348.06	2.48
0.6969	345.13	2.48
0.7167	342.66	2.48
0.7394	340.49	2.48
0.7509	338.02	2.48
0.7653	335.8	2.48
0.782	333.88	2.48
0.7977	331.8	2.48
0.8228	328.86	2.48
0.8381	325.97	2.48
0.8454	324.62	2.48
0.8507	324.01	2.48
0.8726	321.07	2.48
0.8968	317.68	2.48
0.9187	315.67	2.48
0.9417	310.92	2.48
0.9631	304.48	2.48

System: dibutyl ether + 1,3-dimethylimidazolium methylsulfate; phases: Liquid mixture 1, Liquid mixture 2
Fixed: Pressure, kPa = 101
Property: Liquid-liquid equilibrium temperature, K (Liquid mixture 1); method: VISOBS:UFactor:16
Mole fraction of 1,3-dimethylimidazolium methylsulfate	Liquid-liquid equilibrium temperature, K	uncertainty
0.7662	407.12	2.48
0.7795	401.51	2.48
0.7888	394.64	2.48
0.8115	380.97	2.48
0.8435	368.38	2.48
0.8571	365.51	2.48
0.8725	361.36	2.48
0.8851	358.4	2.48
0.9056	354.69	2.48
0.9286	350.16	2.48
0.9362	349.17	2.48
0.9614	344.77	2.48
0.98	341.67	2.48

System: 2-methoxy-2-methylpropane + 1,3-dimethylimidazolium methylsulfate; phases: Liquid mixture 1, Liquid mixture 2
Fixed: Pressure, kPa = 101
Property: Liquid-liquid equilibrium temperature, K (Liquid mixture 1); method: VISOBS:UFactor:16
Mole fraction of 1,3-dimethylimidazolium methylsulfate	Liquid-liquid equilibrium temperature, K	uncertainty
0.6872	324.13	2.48
0.7155	322.95	2.48
0.7423	321.87	2.48
0.756	321.33	2.48
0.7759	320.38	2.48
0.7927	319.76	2.48
0.8094	318.56	2.48
0.813	318.17	2.48
0.8407	315.68	2.48
0.8654	312.43	2.48
0.8774	309.71	2.48
0.9247	304.12	2.48
0.9334	301.88	2.48
0.9404	299.52	2.48
0.972	296.71	2.48

System: 2-methoxy-2-methylbutane + 1,3-dimethylimidazolium methylsulfate; phases: Liquid mixture 1, Liquid mixture 2
Fixed: Pressure, kPa = 101
Property: Liquid-liquid equilibrium temperature, K (Liquid mixture 1); method: VISOBS:UFactor:16
Mole fraction of 1,3-dimethylimidazolium methylsulfate	Liquid-liquid equilibrium temperature, K	uncertainty
0.9654	302.77	2.48
0.9421	316.82	2.48
0.9232	321.23	2.48
0.8988	325.57	2.48
0.8717	331.16	2.48
0.865	333.13	2.48
0.8444	336.71	2.48
0.8078	341.62	2.48
0.7696	344.82	2.48
0.744	347.98	2.48
0.7134	350.66	2.48
0.6913	353.17	2.48
0.6521	356.76	2.48

System: pentan-2-one + 1,3-dimethylimidazolium methylsulfate; phases: Liquid mixture 1, Liquid mixture 2
Fixed: Pressure, kPa = 101
Property: Liquid-liquid equilibrium temperature, K (Liquid mixture 1); method: VISOBS:UFactor:16
Mole fraction of 1,3-dimethylimidazolium methylsulfate	Liquid-liquid equilibrium temperature, K	uncertainty
0.5846	368.81	2.48
0.6498	365.9	2.48
0.6636	364.63	2.48
0.6922	361.96	2.48
0.7213	356.61	2.48
0.7457	352.02	2.48
0.7819	344.07	2.48
0.8118	330.6	2.48
0.8455	320.92	2.48
0.8909	311.04	2.48
0.9465	305.4	2.48

System: pentan-3-one + 1,3-dimethylimidazolium methylsulfate; phases: Liquid mixture 1, Liquid mixture 2
Fixed: Pressure, kPa = 101
Property: Liquid-liquid equilibrium temperature, K (Liquid mixture 1); method: VISOBS:UFactor:16
Mole fraction of 1,3-dimethylimidazolium methylsulfate	Liquid-liquid equilibrium temperature, K	uncertainty
0.6186	367.51	2.48
0.6556	364.49	2.48
0.6888	361.77	2.48
0.7128	359.18	2.48
0.735	355.8	2.48
0.7615	348.34	2.48
0.7789	343.36	2.48
0.791	339.51	2.48
0.8066	334.83	2.48
0.8295	327.53	2.48
0.8526	322.09	2.48
0.8871	312.85	2.48
0.9402	306.96	2.48

System: 2-hexanone + 1,3-dimethylimidazolium methylsulfate; phases: Liquid mixture 1, Liquid mixture 2
Fixed: Pressure, kPa = 101
Property: Liquid-liquid equilibrium temperature, K (Liquid mixture 1); method: VISOBS:UFactor:16
Mole fraction of 1,3-dimethylimidazolium methylsulfate	Liquid-liquid equilibrium temperature, K	uncertainty
0.6758	394.01	2.48
0.702	389.37	2.48
0.7386	381.51	2.48
0.7828	374.57	2.48
0.8079	367.71	2.48
0.8336	360.97	2.48
0.8386	359.6	2.48
0.8569	354.59	2.48
0.8717	346.17	2.48
0.8859	338.91	2.48
0.9146	325.93	2.48
0.9554	296.99	2.48

System: 4-heptanone + 1,3-dimethylimidazolium methylsulfate; phases: Liquid mixture 1, Liquid mixture 2
Fixed: Pressure, kPa = 101
Property: Liquid-liquid equilibrium temperature, K (Liquid mixture 1); method: VISOBS:UFactor:16
Mole fraction of 1,3-dimethylimidazolium methylsulfate	Liquid-liquid equilibrium temperature, K	uncertainty
0.7473	405.46	2.48
0.7748	399.01	2.48
0.7915	393.39	2.48
0.8208	385.38	2.48
0.8413	380.4	2.48
0.8646	373.28	2.48
0.8799	367.62	2.48
0.8977	358.97	2.48
0.9153	349.64	2.48
0.9408	338.76	2.48
0.9746	322.38	2.48

System: cyclopentanone + 1,3-dimethylimidazolium methylsulfate; phases: Liquid mixture 1, Liquid mixture 2
Fixed: Pressure, kPa = 101
Property: Liquid-liquid equilibrium temperature, K (Liquid mixture 1); method: VISOBS:UFactor:16
Mole fraction of 1,3-dimethylimidazolium methylsulfate	Liquid-liquid equilibrium temperature, K	uncertainty
0.3944	396.8	2.48
0.4337	387.43	2.48
0.4522	382.27	2.48
0.4722	376.39	2.48
0.4925	371.32	2.48
0.5164	364.98	2.48
0.5397	358.17	2.48
0.5685	349.63	2.48
0.6031	336.33	2.48

System: dibutyl ether + 1-butyl-3-methylimidazolium methyl sulfate; phases: Liquid mixture 1, Liquid mixture 2
Fixed: Pressure, kPa = 101
Property: Liquid-liquid equilibrium temperature, K (Liquid mixture 1); method: VISOBS:UFactor:16
Mole fraction of 1-butyl-3-methylimidazolium methyl sulfate	Liquid-liquid equilibrium temperature, K	uncertainty
0.6816	407.85	2.48
0.6904	398.18	2.48
0.7053	392.06	2.48
0.7175	385.78	2.48
0.7307	380.42	2.48
0.7439	374.37	2.48
0.7545	369.73	2.48
0.7658	363.62	2.48
0.7999	349.37	2.48
0.828	337.66	2.48
0.8688	321.88	2.48
0.8821	317.59	2.48
0.8974	311.66	2.48

System: 2-methoxy-2-methylpropane + 1-butyl-3-methylimidazolium methyl sulfate; phases: Liquid mixture 1, Liquid mixture 2
Fixed: Pressure, kPa = 101
Property: Liquid-liquid equilibrium temperature, K (Liquid mixture 1); method: VISOBS:UFactor:16
Mole fraction of 1-butyl-3-methylimidazolium methyl sulfate	Liquid-liquid equilibrium temperature, K	uncertainty
0.6844	352.1	2.48
0.6947	346.95	2.48
0.7065	339.59	2.48
0.7164	329.55	2.48
0.7219	323.2	2.48
0.7295	313.76	2.48
0.7342	308.72	2.48
0.7386	303.17	2.48
0.7414	297.78	2.48
0.7449	292.44	2.48

System: 2-methoxy-2-methylbutane + 1-butyl-3-methylimidazolium methyl sulfate; phases: Liquid mixture 1, Liquid mixture 2
Fixed: Pressure, kPa = 101
Property: Liquid-liquid equilibrium temperature, K (Liquid mixture 1); method: VISOBS:UFactor:32
Mole fraction of 1-butyl-3-methylimidazolium methyl sulfate	Liquid-liquid equilibrium temperature, K	uncertainty
0.42	467.14	4.96
0.4481	465.33	4.96
0.4731	461.71	4.96
0.4892	460.39	4.96
0.5073	458.1	4.96
0.5515	448.57	4.96
0.5707	443.8	4.96
0.6525	421.87	4.96
0.6782	415.29	4.96
0.7168	396.5	4.96
0.7506	381.71	4.96
0.8057	363.59	4.96
0.8546	342.51	4.96
0.8865	324.08	4.96
0.9251	297.06	4.96

System: pentan-2-one + 1-butyl-3-methylimidazolium methyl sulfate; phases: Liquid mixture 1, Liquid mixture 2
Fixed: Pressure, kPa = 101
Property: Liquid-liquid equilibrium temperature, K (Liquid mixture 1); method: VISOBS:UFactor:16
Mole fraction of 1-butyl-3-methylimidazolium methyl sulfate	Liquid-liquid equilibrium temperature, K	uncertainty
0.4323	377.09	2.48
0.4388	365.5	2.48
0.4499	350.92	2.48
0.4566	339.82	2.48
0.4646	327.3	2.48
0.4704	318.83	2.48
0.4747	313.81	2.48
0.4818	302.42	2.48
0.4884	293.35	2.48
0.4982	281.2	2.48

System: pentan-3-one + 1-butyl-3-methylimidazolium methyl sulfate; phases: Liquid mixture 1, Liquid mixture 2
Fixed: Pressure, kPa = 101
Property: Liquid-liquid equilibrium temperature, K (Liquid mixture 1); method: VISOBS:UFactor:32
Mole fraction of 1-butyl-3-methylimidazolium methyl sulfate	Liquid-liquid equilibrium temperature, K	uncertainty
0.432	372.7	4.96
0.4435	360.52	4.96
0.451	349.7	4.96
0.4652	326.6	4.96
0.4761	313.19	4.96
0.4782	306.7	4.96
0.4861	292.2	4.96
0.5022	276.5	4.96

System: 2-hexanone + 1-butyl-3-methylimidazolium methyl sulfate; phases: Liquid mixture 1, Liquid mixture 2
Fixed: Pressure, kPa = 101
Property: Liquid-liquid equilibrium temperature, K (Liquid mixture 1); method: VISOBS:UFactor:32
Mole fraction of 1-butyl-3-methylimidazolium methyl sulfate	Liquid-liquid equilibrium temperature, K	uncertainty
0.5182	436.17	4.96
0.5395	399.32	4.96
0.5544	373.48	4.96
0.5759	345.1	4.96
0.5881	330.79	4.96
0.6071	305.9	4.96
0.6184	294.23	4.96

System: 4-heptanone + 1-butyl-3-methylimidazolium methyl sulfate; phases: Liquid mixture 1, Liquid mixture 2
Fixed: Pressure, kPa = 101
Property: Liquid-liquid equilibrium temperature, K (Liquid mixture 1); method: VISOBS:UFactor:64
Mole fraction of 1-butyl-3-methylimidazolium methyl sulfate	Liquid-liquid equilibrium temperature, K	uncertainty
0.7196	451.3	9.91
0.7306	420.37	9.91
0.7649	385.06	9.91
0.7939	363	9.91
0.8259	322.61	9.91
0.8892	295.76	9.91
