Measured thermophysical data. (Liquid + liquid) equilibrium for the ternary systems {heptane + toluene + 1-allyl-3-methylimidazolium bis(trifluoromethylsulfonyl)imide} and {heptane + toluene + 1-methyl-3-propylimidazolium bis(trifluoromethylsulfonyl)imide} ionic liquids
Source: J. Chem. Thermodyn., 2011, 10.1016/j.jct.2011.05.025
Compound 1: 1-methyl-3-propylimidazolium bis[(trifluoromethyl)sulfonyl]imide, C9H13F6N3O4S2, InChI=1S/C7H13N2.C2F6NO4S2/c1-3-4-9-6-5-8(2)7-9;3-1(4,5)14(10,11)9-15(12,13)2(6,7)8/h5-7H,3-4H2,1-2H3;/q+1;-1, purity 99%
Compound 2: 1-allyl-3-methyl-1H-imidazolium bis((trifluoromethyl)sulfonyl)amide, C9H11F6N3O4S2, InChI=1S/C7H11N2.C2F6NO4S2/c1-3-4-9-6-5-8(2)7-9;3-1(4,5)14(10,11)9-15(12,13)2(6,7)8/h3,5-7H,1,4H2,2H3;/q+1;-1, purity 99%
Compound 3: heptane, C7H16, InChI=1S/C7H16/c1-3-5-7-6-4-2/h3-7H2,1-2H3, purity 99.5%
Compound 4: toluene, C7H8, InChI=1S/C7H8/c1-7-5-3-2-4-6-7/h2-6H,1H3, purity 99.7%

System: toluene + heptane + 1-allyl-3-methyl-1H-imidazolium bis((trifluoromethyl)sulfonyl)amide; phases: Liquid mixture 1, Liquid mixture 2
Fixed: Temperature, K = 313.2
Fixed: Pressure, kPa = 101.3
Property: Mole fraction of heptane (Liquid mixture 1); method: Chromatography
Property: Mole fraction of heptane (Liquid mixture 2); method: Chromatography
Property: Mole fraction of toluene (Liquid mixture 2); method: Chromatography
Mole fraction of toluene	Mole fraction of heptane	uncertainty	Mole fraction of heptane	uncertainty	Mole fraction of toluene	uncertainty
0	1		0.0323	0.002	0	
0.0289	0.9711	0.0028	0.0269	0.002	0.0246	
0.0603	0.9397	0.0029	0.0275	0.002	0.0511	
0.1274	0.8726	0.003	0.0271	0.002	0.1052	
0.2039	0.7961	0.0032	0.0289	0.002	0.1673	
0.3344	0.6656	0.0037	0.0274	0.002	0.2496	
0.4366	0.5634	0.0042	0.0269	0.002	0.3184	
0.5112	0.4888	0.0045	0.025	0.002	0.3633	
0.6142	0.3858	0.0039	0.0255	0.002	0.4325	
0.7232	0.2768	0.0034	0.0224	0.002	0.508	
0.8297	0.1703	0.0031	0.0182	0.002	0.5564	
1	0		0		0.6315	

System: toluene + heptane + 1-methyl-3-propylimidazolium bis[(trifluoromethyl)sulfonyl]imide; phases: Liquid mixture 1, Liquid mixture 2
Fixed: Temperature, K = 313.2
Fixed: Pressure, kPa = 101.3
Property: Mole fraction of heptane (Liquid mixture 1); method: Chromatography
Property: Mole fraction of heptane (Liquid mixture 2); method: Chromatography
Property: Mole fraction of toluene (Liquid mixture 2); method: Chromatography
Mole fraction of toluene	Mole fraction of heptane	uncertainty	Mole fraction of heptane	uncertainty	Mole fraction of toluene	uncertainty
0	1		0.0409	0.002	0	
0.0277	0.9723	0.0028	0.0421	0.002	0.0281	
0.057	0.943	0.0029	0.0365	0.002	0.0542	
0.1211	0.8789	0.003	0.04	0.002	0.1133	
0.1841	0.8159	0.0031	0.0386	0.002	0.1661	
0.3117	0.6883	0.0036	0.0387	0.002	0.2615	
0.4003	0.5997	0.004	0.0377	0.002	0.3382	
0.4942	0.5058	0.0045	0.0356	0.002	0.3965	
0.6109	0.3891	0.0039	0.032	0.002	0.4561	
0.7314	0.2686	0.0034	0.0279	0.002	0.5182	
0.8334	0.1666	0.0031	0.0218	0.002	0.5819	
1	0		0		0.675	
