Measured thermophysical data. Bubble point measurements of binary mixtures formed by ethyl benzene with selected compounds at 95.35 kPa
Source: J. Chem. Thermodyn., 2008, 10.1016/j.jct.2008.05.002
Compound 1: ethylbenzene, C8H10, InChI=1S/C8H10/c1-2-8-6-4-3-5-7-8/h3-7H,2H2,1H3
Compound 2: 2,4-pentanedione, C5H8O2, InChI=1S/C5H8O2/c1-4(6)3-5(2)7/h3H2,1-2H3
Compound 3: 2-methylphenol, C7H8O, InChI=1S/C7H8O/c1-6-4-2-3-5-7(6)8/h2-5,8H,1H3
Compound 4: 4-methylphenol, C7H8O, InChI=1S/C7H8O/c1-6-2-4-7(8)5-3-6/h2-5,8H,1H3
Compound 5: hexan-1-ol, C6H14O, InChI=1S/C6H14O/c1-2-3-4-5-6-7/h7H,2-6H2,1H3
Compound 6: tetraethoxysilane, C8H20O4Si, InChI=1S/C8H20O4Si/c1-5-9-13(10-6-2,11-7-3)12-8-4/h5-8H2,1-4H3

System: ethylbenzene; phases: Liquid
Property: Mass density, kg/m3 (Liquid); method: VIBTUB:UFactor:16
Temperature, K	Pressure, kPa	Mass density, kg/m3	uncertainty
298.15	101.325	862.5	1.8

System: ethylbenzene; phases: Liquid, Gas
Property: Vapor or sublimation pressure, kPa (Liquid); method: EBULLIO:UFactor:12
Temperature, K	Vapor or sublimation pressure, kPa	uncertainty
407.25	95.35	8

System: 2,4-pentanedione; phases: Liquid
Property: Mass density, kg/m3 (Liquid); method: VIBTUB:UFactor:16
Temperature, K	Pressure, kPa	Mass density, kg/m3	uncertainty
298.15	101.325	972	0.9

System: 2,4-pentanedione; phases: Liquid, Gas
Property: Vapor or sublimation pressure, kPa (Liquid); method: EBULLIO:UFactor:12
Temperature, K	Vapor or sublimation pressure, kPa	uncertainty
409.35	95.35	8

System: 2-methylphenol; phases: Liquid
Property: Mass density, kg/m3 (Liquid); method: VIBTUB:UFactor:16
Temperature, K	Pressure, kPa	Mass density, kg/m3	uncertainty
293.15	101.325	1046	1

System: 2-methylphenol; phases: Liquid, Gas
Property: Vapor or sublimation pressure, kPa (Liquid); method: EBULLIO:UFactor:12
Temperature, K	Vapor or sublimation pressure, kPa	uncertainty
461.95	95.35	8

System: 4-methylphenol; phases: Liquid
Property: Mass density, kg/m3 (Liquid); method: VIBTUB:UFactor:16
Temperature, K	Pressure, kPa	Mass density, kg/m3	uncertainty
298.15	101.325	1154	1.9

System: 4-methylphenol; phases: Liquid, Gas
Property: Vapor or sublimation pressure, kPa (Liquid); method: EBULLIO:UFactor:16
Temperature, K	Vapor or sublimation pressure, kPa	uncertainty
472.85	95.35	8

System: hexan-1-ol; phases: Liquid
Property: Mass density, kg/m3 (Liquid); method: VIBTUB:UFactor:16
Temperature, K	Pressure, kPa	Mass density, kg/m3	uncertainty
298.15	101.325	815.3	2.2

System: hexan-1-ol; phases: Liquid, Gas
Property: Vapor or sublimation pressure, kPa (Liquid); method: EBULLIO:UFactor:12
Temperature, K	Vapor or sublimation pressure, kPa	uncertainty
428.25	95.35	8

System: tetraethoxysilane; phases: Liquid
Property: Mass density, kg/m3 (Liquid); method: VIBTUB:UFactor:16
Temperature, K	Pressure, kPa	Mass density, kg/m3	uncertainty
293.15	101.325	1032	0.9

System: tetraethoxysilane; phases: Liquid, Gas
Property: Vapor or sublimation pressure, kPa (Liquid); method: EBULLIO:UFactor:12
Temperature, K	Vapor or sublimation pressure, kPa	uncertainty
439.55	95.35	8

System: ethylbenzene + 2,4-pentanedione; phases: Liquid, Gas
Fixed: Pressure, kPa = 95.35
Property: Boiling temperature at pressure P, K (Liquid); method: EBULLIO:UFactor:12
Mole fraction of ethylbenzene	Boiling temperature at pressure P, K	uncertainty
0	409.35	1.03
0.0508	408.95	1.03
0.1008	408.45	1.03
0.1501	408.15	1.03
0.2002	407.95	1.03
0.2501	407.75	1.03
0.311	407.55	1.03
0.3502	407.45	1.03
0.45	407.35	1.03
0.5002	407.25	1.03
0.609	407.15	1.03
0.7004	407.15	1.03
0.8005	407.15	1.03
0.9502	407.15	1.03
1	407.25	1.03

System: 2-methylphenol + ethylbenzene; phases: Liquid, Gas
Fixed: Pressure, kPa = 95.35
Property: Boiling temperature at pressure P, K (Liquid); method: EBULLIO:UFactor:12
Mole fraction of ethylbenzene	Boiling temperature at pressure P, K	uncertainty
0	461.95	1.03
0.0571	454.75	1.03
0.1001	450.15	1.03
0.133	446.85	1.03
0.2002	441.15	1.03
0.3003	434.15	1.03
0.349	431.25	1.03
0.4004	428.55	1.03
0.479	424.75	1.03
0.5501	421.75	1.03
0.6146	419.25	1.03
0.736	415.05	1.03
0.8502	411.65	1.03
0.9177	409.55	1.03
0.9501	408.65	1.03
1	407.25	1.03

System: ethylbenzene + 4-methylphenol; phases: Liquid, Gas
Fixed: Pressure, kPa = 95.35
Property: Boiling temperature at pressure P, K (Liquid); method: EBULLIO:UFactor:16
Mole fraction of ethylbenzene	Boiling temperature at pressure P, K	uncertainty
0	472.85	1.37
0.0751	453.75	1.39
0.1175	448.35	1.37
0.2002	441.35	1.37
0.2502	437.05	1.37
0.3183	434.15	1.37
0.464	427.05	1.37
0.5002	425.45	1.37
0.5502	423.35	1.37
0.6616	418.85	1.37
0.738	416.05	1.37
0.8002	413.75	1.37
0.8755	411.25	1.37
0.9185	409.75	1.37
0.9501	408.75	1.37
1	407.25	1.37

System: ethylbenzene + hexan-1-ol; phases: Liquid, Gas
Fixed: Pressure, kPa = 95.35
Property: Boiling temperature at pressure P, K (Liquid); method: EBULLIO:UFactor:12
Mole fraction of ethylbenzene	Boiling temperature at pressure P, K	uncertainty
0	428.25	1.03
0.0755	425.95	1.03
0.1801	422.95	1.03
0.2602	420.75	1.03
0.3303	419.05	1.03
0.3804	417.85	1.03
0.516	414.85	1.03
0.5805	413.55	1.03
0.608	413.05	1.03
0.7192	411.15	1.03
0.7606	410.45	1.03
0.8307	409.35	1.03
0.879	408.75	1.03
0.9133	408.25	1.03
0.959	407.75	1.03
1	407.25	1.03

System: tetraethoxysilane + ethylbenzene; phases: Liquid, Gas
Fixed: Pressure, kPa = 95.35
Property: Boiling temperature at pressure P, K (Liquid); method: EBULLIO:UFactor:12
Mole fraction of ethylbenzene	Boiling temperature at pressure P, K	uncertainty
0	439.55	1.03
0.0751	434.95	1.03
0.1228	432.55	1.03
0.2001	429.05	1.03
0.275	426.15	1.03
0.2959	425.45	1.03
0.3502	423.55	1.03
0.4002	421.95	1.03
0.4503	420.45	1.03
0.495	419.55	1.03
0.5502	417.65	1.03
0.675	414.45	1.03
0.747	412.75	1.03
0.8555	410.25	1.03
0.9592	408.15	1.03
1	407.25	1.03
