Measured thermophysical data. Thermochemistry of phenylacetic and monochlorophenylacetic acids
Source: J. Chem. Thermodyn., 2008, 10.1016/j.jct.2007.07.010
Compound 1: hydrogen chloride, ClH, InChI=1S/ClH/h1H
Compound 2: carbon dioxide, CO2, InChI=1S/CO2/c2-1-3
Compound 3: water, H2O, InChI=1S/H2O/h1H2
Compound 4: oxygen, O2, InChI=1S/O2/c1-2
Compound 5: phenylacetic acid, C8H8O2, InChI=1S/C8H8O2/c9-8(10)6-7-4-2-1-3-5-7/h1-5H,6H2,(H,9,10), purity 99%
Compound 6: (2-chlorophenyl)ethanoic acid, C8H7ClO2, InChI=1S/C8H7ClO2/c9-7-4-2-1-3-6(7)5-8(10)11/h1-4H,5H2,(H,10,11), purity 99%
Compound 7: (3-chlorophenyl)ethanoic acid, C8H7ClO2, InChI=1S/C8H7ClO2/c9-7-3-1-2-6(4-7)5-8(10)11/h1-4H,5H2,(H,10,11), purity 99%
Compound 8: (4-chlorophenyl)ethanoic acid, C8H7ClO2, InChI=1S/C8H7ClO2/c9-7-3-1-6(2-4-7)5-8(10)11/h1-4H,5H2,(H,10,11), purity 99%

System: (2-chlorophenyl)ethanoic acid; phases: Crystal, Liquid, Air at 1 atmosphere
Property: Molar enthalpy of transition or fusion, kJ/mol (Crystal); method: DSC
Molar enthalpy of transition or fusion, kJ/mol	uncertainty
24.33	0.58

System: (2-chlorophenyl)ethanoic acid; phases: Crystal, Liquid, Air at 1 atmosphere
Property: Normal melting temperature, K (Crystal); method: DTA
Normal melting temperature, K	uncertainty
367.39	0.39

System: (2-chlorophenyl)ethanoic acid; phases: Crystal, Gas
Property: Vapor or sublimation pressure, kPa (Crystal); method: Calculated from knudsen effusion weight loss
Temperature, K	Vapor or sublimation pressure, kPa	uncertainty
322.2	0.000151	8e-06
322.2	0.000151	8e-06
322.2	0.000153	8e-06
322.2	0.000153	8e-06
322.2	0.000152	8e-06
322.2	0.000152	8e-06
324.14	0.000198	1e-05
324.14	0.000198	1e-05
324.14	0.000197	1e-05
324.14	0.000197	1e-05
324.14	0.000196	1e-05
324.14	0.000196	1e-05
326.11	0.00025	1.3e-05
326.11	0.00025	1.3e-05
326.11	0.000251	1.3e-05
326.11	0.000251	1.3e-05
326.11	0.000255	1.3e-05
326.11	0.000255	1.3e-05
328.2	0.000315	1.6e-05
328.2	0.00032	1.6e-05
328.2	0.000316	1.6e-05
330.13	0.000401	2e-05
330.13	0.000406	2e-05
330.13	0.000402	2e-05
332.19	0.000518	2.6e-05
332.19	0.000512	2.6e-05
334.12	0.00065	3.3e-05
334.12	0.00065	3.3e-05
334.12	0.000639	3.2e-05
336.11	0.000837	4.2e-05
336.11	0.000813	4.1e-05
336.11	0.000829	4.2e-05
338.11	0.00105	0.000106
338.11	0.00103	0.000104
338.11	0.00103	0.000104

System: (3-chlorophenyl)ethanoic acid; phases: Crystal, Liquid, Air at 1 atmosphere
Property: Molar enthalpy of transition or fusion, kJ/mol (Crystal); method: DSC
Molar enthalpy of transition or fusion, kJ/mol	uncertainty
22.6	0.59

System: (3-chlorophenyl)ethanoic acid; phases: Crystal, Liquid, Air at 1 atmosphere
Property: Normal melting temperature, K (Crystal); method: DTA
Normal melting temperature, K	uncertainty
349.78	0.39

System: (3-chlorophenyl)ethanoic acid; phases: Crystal, Gas
Property: Vapor or sublimation pressure, kPa (Crystal); method: Calculated from knudsen effusion weight loss
Temperature, K	Vapor or sublimation pressure, kPa	uncertainty
319.2	0.000131	7e-06
319.2	0.000131	7e-06
319.2	0.000132	7e-06
319.2	0.000132	7e-06
319.2	0.000133	7e-06
319.2	0.000133	7e-06
321.13	0.000172	9e-06
321.13	0.000172	9e-06
321.13	0.000174	9e-06
321.13	0.000174	9e-06
321.13	0.000172	9e-06
321.13	0.000172	9e-06
323.11	0.000226	1.1e-05
323.11	0.000226	1.1e-05
323.11	0.000216	1.1e-05
323.11	0.000216	1.1e-05
323.11	0.000224	1.1e-05
323.11	0.000224	1.1e-05
325.2	0.000281	1.4e-05
325.2	0.000281	1.4e-05
325.2	0.000279	1.4e-05
327.12	0.000356	1.8e-05
327.12	0.00036	1.8e-05
327.12	0.000356	1.8e-05
329.11	0.000468	2.3e-05
329.11	0.000453	2.3e-05
329.11	0.00046	2.3e-05
331.19	0.000576	2.9e-05
331.19	0.000578	2.9e-05
331.19	0.000567	2.8e-05
333.11	0.000733	3.7e-05
333.11	0.000733	3.7e-05
333.11	0.000713	3.6e-05
335.11	0.00092	4.6e-05
335.11	0.00092	4.6e-05

System: (4-chlorophenyl)ethanoic acid; phases: Crystal, Liquid, Air at 1 atmosphere
Property: Molar enthalpy of transition or fusion, kJ/mol (Crystal); method: DSC
Molar enthalpy of transition or fusion, kJ/mol	uncertainty
23.57	0.56

System: (4-chlorophenyl)ethanoic acid; phases: Crystal, Liquid, Air at 1 atmosphere
Property: Normal melting temperature, K (Crystal); method: DTA
Normal melting temperature, K	uncertainty
377.9	0.39

System: (4-chlorophenyl)ethanoic acid; phases: Crystal, Gas
Property: Vapor or sublimation pressure, kPa (Crystal); method: Calculated from knudsen effusion weight loss
Temperature, K	Vapor or sublimation pressure, kPa	uncertainty
325.2	0.000154	8e-06
325.2	0.000154	8e-06
325.2	0.000156	8e-06
325.2	0.000156	8e-06
325.2	0.000153	8e-06
325.2	0.000153	8e-06
327.15	0.000199	1e-05
327.15	0.000199	1e-05
327.15	0.000197	1e-05
327.15	0.000197	1e-05
327.15	0.000194	1e-05
327.15	0.000194	1e-05
329.12	0.000252	1.3e-05
329.12	0.000252	1.3e-05
329.12	0.00025	1.3e-05
329.12	0.00025	1.3e-05
331.19	0.000318	1.6e-05
331.19	0.000318	1.6e-05
331.19	0.000312	1.6e-05
333.14	0.000401	2e-05
333.14	0.000398	2e-05
333.14	0.000394	2e-05
335.12	0.000506	2.5e-05
335.12	0.000502	2.5e-05
337.2	0.000631	3.2e-05
337.2	0.000634	3.2e-05
339.13	0.000788	3.9e-05
339.13	0.000793	4e-05
339.13	0.000775	3.9e-05
341.11	0.001	5e-05
341.11	0.00099	5e-05
341.11	0.00098	4.9e-05

Reaction: -1 (2-chlorophenyl)ethanoic acid + 1 hydrogen chloride + 8 carbon dioxide + 3 water + -8.5 oxygen
Property: Specific internal energy of reaction at constant volume, J/g
-21822.3

Reaction: -1 (3-chlorophenyl)ethanoic acid + 1 hydrogen chloride + 8 carbon dioxide + 3 water + -8.5 oxygen
Property: Specific internal energy of reaction at constant volume, J/g
-21836.8

Reaction: -1 (4-chlorophenyl)ethanoic acid + 1 hydrogen chloride + 8 carbon dioxide + 3 water + -8.5 oxygen
Property: Specific internal energy of reaction at constant volume, J/g
-21851.8

Reaction: -1 phenylacetic acid + 8 carbon dioxide + 4 water + -9 oxygen
Property: Specific internal energy of reaction at constant volume, J/g
-28553.9
