Measured thermophysical data. Measurement and prediction of phase behaviour for 1-alkyl-3-methylimidazolium tetrafluoroborate and carbon dioxide: Effect of alkyl chain length in imidazolium cation
Source: J. Chem. Thermodyn., 2011, 10.1016/j.jct.2010.10.005
Compound 1: carbon dioxide, CO2, InChI=1S/CO2/c2-1-3, purity 99.999%
Compound 2: 1-ethyl-3-methylimidazolium tetrafluoroborate, C6H11BF4N2, InChI=1S/C6H11N2.BF4/c1-3-8-5-4-7(2)6-8;2-1(3,4)5/h4-6H,3H2,1-2H3;/q+1;-1, purity 99%
Compound 3: 1-hexyl-3-methylimidazolium tetrafluoroborate, C10H19BF4N2, InChI=1S/C10H19N2.BF4/c1-3-4-5-6-7-12-9-8-11(2)10-12;2-1(3,4)5/h8-10H,3-7H2,1-2H3;/q+1;-1, purity 99%

System: carbon dioxide + 1-ethyl-3-methylimidazolium tetrafluoroborate; phases: Liquid, Gas
Property: Vapor or sublimation pressure, kPa (Liquid); method: Closed cell (Static) method
Temperature, K	Mole fraction of carbon dioxide	Vapor or sublimation pressure, kPa	uncertainty
293.2	0.153	2620	50
298.2	0.153	2800	110
303.2	0.153	2860	110
308.2	0.153	2970	120
298.2	0.241	3990	110
303.2	0.241	4120	140
308.2	0.241	4280	140
313.2	0.241	4360	260
318.2	0.241	4470	260
323.2	0.241	4550	270
308.2	0.278	5390	80
313.2	0.278	5560	70
318.2	0.278	5660	80
303.2	0.278	5210	90
323.2	0.278	5810	110
303.2	0.356	5540	90
308.2	0.356	5700	90
313.2	0.356	5870	100
318.2	0.356	6170	210
323.2	0.356	6360	110
308.2	0.407	7020	70
303.2	0.407	6810	70
313.2	0.407	7180	80
318.2	0.407	7400	70
323.2	0.407	7660	70
313.2	0.473	7280	60
303.2	0.473	6820	50
318.2	0.473	7500	50
308.2	0.473	7100	50
323.2	0.473	7760	70
308.2	0.497	7260	90
313.2	0.497	7340	70
318.2	0.497	7530	80
303.2	0.497	6960	140
323.2	0.497	7800	110
308.2	0.578	8280	40
318.2	0.578	9080	90
303.2	0.578	7830	30
313.2	0.578	8640	80
323.2	0.578	9250	100

System: carbon dioxide + 1-ethyl-3-methylimidazolium tetrafluoroborate; phases: Liquid mixture 1, Liquid mixture 2, Gas
Property: Vapor or sublimation pressure, kPa (Liquid mixture 1); method: Closed cell (Static) method
Temperature, K	Vapor or sublimation pressure, kPa	uncertainty
305.2	7350	30
300.2	6700	20
298.2	6350	30
303.2	7140	30
308.2	7620	30
298.2	6390	20
305.2	7460	30
300.2	6570	30
303.2	7100	40

System: carbon dioxide + 1-hexyl-3-methylimidazolium tetrafluoroborate; phases: Liquid, Gas
Property: Vapor or sublimation pressure, kPa (Liquid); method: Closed cell (Static) method
Temperature, K	Mole fraction of carbon dioxide	Vapor or sublimation pressure, kPa	uncertainty
303.2	0.314	2360	170
303.2	0.36	3300	160
303.2	0.414	3720	100
303.2	0.496	5250	60
303.2	0.511	5190	40
308.2	0.314	2550	160
308.2	0.36	3430	180
308.2	0.414	4040	110
308.2	0.496	5680	100
308.2	0.511	5440	60
313.2	0.314	2850	170
313.2	0.36	3780	180
313.2	0.414	4390	110
313.2	0.496	6040	70
313.2	0.511	6070	110
313.2	0.593	8890	440
318.2	0.314	3070	180
318.2	0.36	4080	190
318.2	0.414	4680	110
318.2	0.496	6410	190
318.2	0.511	6840	290
318.2	0.593	9610	460
323.2	0.314	3340	160
323.2	0.36	4240	210
323.2	0.414	5100	130
323.2	0.496	6690	230
323.2	0.593	11410	580
328.2	0.593	13030	590
