Measured thermophysical data. Apparent molar volumes and apparent molar heat capacities of aqueous urea, 1,1-dimethylurea, and N,N'-dimethylurea at temperatures from (278.15 to 348.15) K and at the pressure 0.35 MPa
Source: J. Chem. Thermodyn., 2006, 10.1016/j.jct.2005.10.017
Compound 1: urea, CH4N2O, InChI=1S/CH4N2O/c2-1(3)4/h(H4,2,3,4)
Compound 2: N,N-dimethylurea, C3H8N2O, InChI=1S/C3H8N2O/c1-5(2)3(4)6/h1-2H3,(H2,4,6)
Compound 3: 1,3-dimethylurea, C3H8N2O, InChI=1S/C3H8N2O/c1-4-3(6)5-2/h1-2H3,(H2,4,5,6)
Compound 4: water, H2O, InChI=1S/H2O/h1H2

System: urea + water; phases: Liquid
Fixed: Pressure, kPa = 350
Property: Apparent molar heat capacity, J/K/mol (Liquid); method: Extra sensitive DSC
Molality, mol/kg of urea	Temperature, K	Apparent molar heat capacity, J/K/mol	uncertainty
0.0204	278.15	52	43
0.0204	283.15	64	42
0.0204	288.15	74	40
0.0204	293.15	80.7	39.1
0.0204	298.15	86.2	38.3
0.0204	303.15	90.2	38.2
0.0204	308.15	94.6	38.2
0.0204	313.15	97.6	38.2
0.0204	318.15	101.7	38.2
0.03995	278.15	55.4	22.3
0.03995	283.15	66	21.5
0.03995	288.15	75.1	20.8
0.03995	293.15	82.3	20.1
0.03995	298.15	88.8	19.8
0.03995	303.15	93.4	19.6
0.03995	308.15	97.3	19.6
0.03995	313.15	100.5	19.6
0.03995	318.15	104.5	19.6
0.0595	278.15	54.5	15
0.0595	283.15	65.5	14.4
0.0595	288.15	74.5	14
0.0595	293.15	80.9	13.6
0.0595	298.15	86.3	13.2
0.0595	303.15	90.8	13.2
0.0595	308.15	95.2	13.2
0.0595	313.15	99	13.3
0.0595	318.15	103.8	13.3
0.1004	278.15	55.2	9.1
0.1004	283.15	66.1	8.8
0.1004	288.15	75	8.4
0.1004	293.15	81.7	8.2
0.1004	298.15	87.3	8
0.1004	303.15	92	7.9
0.1004	308.15	96.1	7.9
0.1004	313.15	99.9	8
0.1004	318.15	104.28	7.97
0.2484	278.15	57.3	4
0.2484	283.15	68.1	3.8
0.2484	288.15	76.6	3.6
0.2484	293.15	83.39	3.56
0.2484	298.15	88.96	3.49
0.2484	303.15	93.62	3.4
0.2484	308.15	97.59	3.36
0.2484	313.15	101.2	3.36
0.2484	318.15	105.41	3.37
0.498	278.15	60.24	2.26
0.498	283.15	70.33	2.19
0.498	288.15	78.45	2.12
0.498	293.15	84.95	2.07
0.498	298.15	90.3	2.01
0.498	303.15	94.86	1.98
0.498	308.15	98.71	1.95
0.498	313.15	102.25	1.9
0.498	318.15	106.35	1.88
0.9869	278.15	65.51	1.54
0.9869	283.15	74.49	1.49
0.9869	288.15	81.84	1.45
0.9869	293.15	87.77	1.41
0.9869	298.15	92.71	1.37
0.9869	303.15	96.98	1.35
0.9869	308.15	100.57	1.33
0.9869	313.15	103.9	1.3
0.9869	318.15	107.77	1.3
2.021	278.15	74.11	1.05
2.021	283.15	81.61	1.04
2.021	288.15	87.77	1.03
2.021	293.15	92.84	1.04
2.021	298.15	97.12	1.04
2.021	303.15	100.84	1.03
2.021	308.15	104	1
2.021	313.15	106.99	0.97
2.021	318.15	110.47	0.95
2.997	278.15	80.2	0.88
2.997	283.15	86.74	0.87
2.997	288.15	92.13	0.86
2.997	293.15	96.59	0.85
2.997	298.15	100.36	0.85
2.997	303.15	103.67	0.84
2.997	308.15	106.48	0.83
2.997	313.15	109.23	0.8
2.997	318.15	112.43	0.79
3.984	278.15	85.28	0.83
3.984	283.15	91.07	0.81
3.984	288.15	95.79	0.8
3.984	293.15	99.73	0.79
3.984	298.15	103.12	0.77
3.984	303.15	106.13	0.76
3.984	308.15	108.74	0.75
3.984	313.15	111.23	0.73
3.984	318.15	114.14	0.74
6.006	278.15	92.83	0.77
6.006	283.15	97.6	0.76
6.006	288.15	101.5	0.74
6.006	293.15	104.74	0.75
6.006	298.15	107.53	0.73
6.006	303.15	110	0.73
6.006	308.15	112.16	0.72
6.006	313.15	114.28	0.7
6.006	318.15	116.86	0.69

System: urea + water; phases: Liquid
Fixed: Pressure, kPa = 350
Property: Apparent molar volume, m3/mol (Liquid); method: Calculated with densities of this investigation
Molality, mol/kg of urea	Temperature, K	Apparent molar volume, m3/mol	uncertainty
0.0204	278.15	3.82e-05	7.2e-06
0.0204	283.15	3.9e-05	5.4e-06
0.0204	288.15	4.03e-05	4.5e-06
0.0204	298.15	4.08e-05	4.6e-06
0.0204	308.15	4.28e-05	3.9e-06
0.0204	318.15	4.234e-05	3.01e-06
0.03995	278.15	4.56e-05	3.7e-06
0.03995	283.15	4.53e-05	2.8e-06
0.03995	288.15	4.54e-05	2.5e-06
0.03995	298.15	4.58e-05	2.5e-06
0.03995	308.15	4.611e-05	2.01e-06
0.03995	318.15	4.645e-05	1.66e-06
0.0595	278.15	4.1e-05	2.6e-06
0.0595	283.15	4.205e-05	1.85e-06
0.0595	288.15	4.277e-05	1.57e-06
0.0595	298.15	4.366e-05	1.6e-06
0.0595	308.15	4.441e-05	1.33e-06
0.0595	318.15	4.522e-05	1.09e-06
0.1004	278.15	4.363e-05	1.49e-06
0.1004	283.15	4.388e-05	1.11e-06
0.1004	288.15	4.428e-05	9.8e-07
0.1004	298.15	4.487e-05	9.7e-07
0.1004	308.15	4.54e-05	8e-07
0.1004	318.15	4.585e-05	6.8e-07
0.2484	278.15	4.192e-05	6e-07
0.2484	283.15	4.25e-05	4.6e-07
0.2484	288.15	4.296e-05	3.9e-07
0.2484	298.15	4.377e-05	3.9e-07
0.2484	308.15	4.446e-05	3.3e-07
0.2484	318.15	4.506e-05	2.8e-07
0.498	278.15	4.248e-05	3.2e-07
0.498	283.15	4.298e-05	2.5e-07
0.498	288.15	4.343e-05	2.1e-07
0.498	298.15	4.418e-05	2.1e-07
0.498	308.15	4.481e-05	1.7e-07
0.498	318.15	4.533e-05	1.4e-07
0.7294	278.15	4.243e-05	2.7e-07
0.7294	283.15	4.296e-05	2e-07
0.7294	288.15	4.341e-05	1.4e-07
0.7294	298.15	4.416e-05	1.4e-07
0.7294	308.15	4.48e-05	1.3e-07
0.7294	318.15	4.535e-05	1e-07
0.9869	278.15	4.261e-05	2.1e-07
0.9869	283.15	4.31e-05	1.5e-07
0.9869	288.15	4.354e-05	1.2e-07
0.9869	298.15	4.428e-05	1.2e-07
0.9869	308.15	4.488e-05	1e-07
0.9869	318.15	4.543e-05	9e-08
2.021	278.15	4.292e-05	1.2e-07
2.021	283.15	4.336e-05	1e-07
2.021	288.15	4.376e-05	9e-08
2.021	298.15	4.444e-05	9e-08
2.021	308.15	4.5e-05	9e-08
2.021	318.15	4.55e-05	9e-08
2.996	278.15	4.306e-05	1e-07
2.996	283.15	4.348e-05	8e-08
2.996	288.15	4.385e-05	8e-08
2.996	298.15	4.45e-05	6e-08
2.996	308.15	4.505e-05	6e-08
2.996	318.15	4.554e-05	6e-08
3.984	278.15	4.336e-05	1e-07
3.984	283.15	4.373e-05	8e-08
3.984	288.15	4.407e-05	6e-08
3.984	298.15	4.468e-05	6e-08
3.984	308.15	4.52e-05	6e-08
3.984	318.15	4.566e-05	6e-08
6.005	278.15	4.356e-05	8e-08
6.005	283.15	4.391e-05	8e-08
6.005	288.15	4.423e-05	6e-08
6.005	298.15	4.479e-05	6e-08
6.005	308.15	4.528e-05	4e-08
6.005	318.15	4.573e-05	4e-08

System: urea + water; phases: Liquid
Fixed: Pressure, kPa = 350
Property: Mass density, kg/m3 (Liquid); method: VIBTUB:UFactor:4
Molality, mol/kg of urea	Temperature, K	Mass density, kg/m3	uncertainty
0.0204	278.15	1000.538	0.169
0.0204	283.15	1000.254	0.169
0.0204	288.15	999.624	0.17
0.0204	298.15	997.547	0.175
0.0204	308.15	994.489	0.181
0.0204	318.15	990.678	0.187
0.03995	278.15	1000.671	0.17
0.03995	283.15	1000.414	0.169
0.03995	288.15	999.805	0.169
0.03995	298.15	997.726	0.173
0.03995	308.15	994.698	0.179
0.03995	318.15	990.867	0.187
0.0595	278.15	1001.222	0.171
0.0595	283.15	1000.894	0.17
0.0595	288.15	1000.247	0.169
0.0595	298.15	998.131	0.173
0.0595	308.15	995.072	0.179
0.0595	318.15	991.21	0.186
0.1004	278.15	1001.734	0.172
0.1004	283.15	1001.442	0.171
0.1004	288.15	1000.798	0.17
0.1004	298.15	998.68	0.171
0.1004	308.15	995.616	0.178
0.1004	318.15	991.761	0.185
0.2484	278.15	1004.552	0.177
0.2484	283.15	1004.142	0.177
0.2484	288.15	1003.428	0.175
0.2484	298.15	1001.176	0.171
0.2484	308.15	998.007	0.173
0.2484	318.15	994.067	0.181
0.498	278.15	1008.662	0.185
0.498	283.15	1008.15	0.184
0.498	288.15	1007.336	0.183
0.498	298.15	1004.929	0.178
0.498	308.15	1001.644	0.172
0.498	318.15	997.624	0.174
0.7294	278.15	1012.56	0.193
0.7294	283.15	1011.922	0.192
0.7294	288.15	1011	0.19
0.7294	298.15	1008.442	0.185
0.7294	308.15	1005.035	0.179
0.7294	318.15	1000.904	0.171
0.9869	278.15	1016.617	0.201
0.9869	283.15	1015.876	0.199
0.9869	288.15	1014.869	0.198
0.9869	298.15	1012.152	0.192
0.9869	308.15	1008.637	0.185
0.9869	318.15	1004.413	0.177
2.021	278.15	1031.957	0.231
2.021	283.15	1030.844	0.229
2.021	288.15	1029.51	0.227
2.021	298.15	1026.271	0.22
2.021	308.15	1022.346	0.213
2.021	318.15	1017.805	0.204
2.996	278.15	1045.193	0.258
2.996	283.15	1043.78	0.255
2.996	288.15	1042.199	0.252
2.996	298.15	1038.511	0.245
2.996	308.15	1034.233	0.236
2.996	318.15	1029.406	0.227
3.984	278.15	1056.799	0.281
3.984	283.15	1055.221	0.278
3.984	288.15	1053.46	0.275
3.984	298.15	1049.46	0.267
3.984	308.15	1044.937	0.258
3.984	318.15	1039.909	0.248
6.005	278.15	1078.583	0.326
6.005	283.15	1076.577	0.322
6.005	288.15	1074.449	0.317
6.005	298.15	1069.841	0.308
6.005	308.15	1064.811	0.298
6.005	318.15	1059.356	0.287

System: N,N-dimethylurea + water; phases: Liquid
Fixed: Pressure, kPa = 350
Property: Apparent molar heat capacity, J/K/mol (Liquid); method: Extra sensitive DSC
Molality, mol/kg of N,N-dimethylurea	Temperature, K	Apparent molar heat capacity, J/K/mol	uncertainty
0.01	278.15	235	82
0.01	283.15	242	83
0.01	288.15	246	85
0.01	293.15	246	83
0.01	298.15	253	87
0.01	303.15	258	93
0.01	308.15	256	89
0.01	313.15	254	89
0.01	318.15	256	96
0.03	278.15	227.3	27.3
0.03	283.15	233.1	27.4
0.03	288.15	237	27.8
0.03	293.15	240.6	27.7
0.03	298.15	243.5	28.4
0.03	303.15	246.6	29.4
0.03	308.15	248.4	29
0.03	313.15	250.7	29.6
0.03	318.15	252.6	31.2
0.05031	278.15	228	16.5
0.05031	283.15	234.4	16.5
0.05031	288.15	238.7	16.8
0.05031	293.15	242.6	16.7
0.05031	298.15	245.2	17.1
0.05031	303.15	248	17.7
0.05031	308.15	250.7	17.6
0.05031	313.15	253.1	17.8
0.05031	318.15	254.3	18.8
0.0901	278.15	220.9	9.4
0.0901	283.15	227.6	9.4
0.0901	288.15	232.6	9.6
0.0901	293.15	237.5	9.5
0.0901	298.15	240.7	9.9
0.0901	303.15	243.2	10.2
0.0901	308.15	246.3	10.1
0.0901	313.15	249.3	10.2
0.0901	318.15	251.4	10.7
0.2497	278.15	231.99	3.82
0.2497	283.15	238.97	3.82
0.2497	288.15	244.1	3.9
0.2497	293.15	248.18	3.85
0.2497	298.15	251.7	3.9
0.2497	303.15	255	4
0.2497	308.15	257.8	4
0.2497	313.15	260.7	4
0.2497	318.15	263.5	4.3
0.396	278.15	227.62	2.63
0.396	283.15	234.8	2.62
0.396	288.15	240.12	2.62
0.396	293.15	244.43	2.61
0.396	298.15	248.07	2.61
0.396	303.15	251.3	2.61
0.396	308.15	254.11	2.6
0.396	313.15	256.79	2.6
0.396	318.15	259.08	2.6
0.5997	278.15	227.86	2
0.5997	283.15	235.1	1.99
0.5997	288.15	240.45	1.99
0.5997	293.15	244.88	1.99
0.5997	298.15	248.62	1.98
0.5997	303.15	251.9	1.98
0.5997	308.15	254.76	1.98
0.5997	313.15	257.46	1.98
0.5997	318.15	259.79	1.98
0.8004	278.15	227.45	1.71
0.8004	283.15	234.72	1.7
0.8004	288.15	240.15	1.7
0.8004	293.15	244.63	1.69
0.8004	298.15	248.42	1.69
0.8004	303.15	251.75	1.69
0.8004	308.15	254.65	1.68
0.8004	313.15	257.38	1.68
0.8004	318.15	259.74	1.68
1.008	278.15	226.44	1.54
1.008	283.15	233.78	1.53
1.008	288.15	239.26	1.51
1.008	293.15	243.8	1.52
1.008	298.15	247.62	1.52
1.008	303.15	250.99	1.51
1.008	308.15	253.94	1.52
1.008	313.15	256.7	1.51
1.008	318.15	259.07	1.5
1.201	278.15	225.9	1.44
1.201	283.15	233.15	1.43
1.201	288.15	238.67	1.41
1.201	293.15	243.23	1.41
1.201	298.15	247.07	1.4
1.201	303.15	250.44	1.41
1.201	308.15	253.44	1.4
1.201	313.15	256.21	1.4
1.201	318.15	258.55	1.4
1.593	278.15	223.24	1.32
1.593	283.15	230.47	1.3
1.593	288.15	236.03	1.28
1.593	293.15	240.7	1.28
1.593	298.15	244.57	1.27
1.593	303.15	248.02	1.28
1.593	308.15	251	1.28
1.593	313.15	253.81	1.29
1.593	318.15	256.13	1.28

System: N,N-dimethylurea + water; phases: Liquid
Fixed: Pressure, kPa = 350
Property: Apparent molar volume, m3/mol (Liquid); method: Calculated with densities of this investigation
Molality, mol/kg of N,N-dimethylurea	Temperature, K	Apparent molar volume, m3/mol	uncertainty
0.01	278.15	7.93e-05	9e-06
0.01	283.15	7.92e-05	8.5e-06
0.01	288.15	8.07e-05	7.8e-06
0.01	298.15	8.09e-05	7.8e-06
0.01	308.15	8.12e-05	7.8e-06
0.01	318.15	8.3e-05	8.7e-06
0.03	278.15	7.34e-05	8.7e-06
0.03	283.15	7.44e-05	5.6e-06
0.03	288.15	7.5e-05	4.4e-06
0.03	298.15	7.66e-05	4.4e-06
0.03	308.15	7.77e-05	4.3e-06
0.03	318.15	7.93e-05	3.8e-06
0.05031	278.15	7.771e-05	1.73e-06
0.05031	283.15	7.729e-05	2.38e-06
0.05031	288.15	7.768e-05	1.93e-06
0.05031	298.15	7.858e-05	1.89e-06
0.05031	308.15	7.994e-05	1.72e-06
0.05031	318.15	8.035e-05	1.55e-06
0.0901	278.15	7.741e-05	1.32e-06
0.0901	283.15	7.798e-05	2.1e-06
0.0901	288.15	7.836e-05	1.58e-06
0.0901	298.15	7.936e-05	1.51e-06
0.0901	308.15	8.012e-05	1.27e-06
0.0901	318.15	8.099e-05	1.03e-06
0.1502	278.15	7.74e-05	2.8e-06
0.1502	283.15	7.8e-05	1.8e-06
0.1502	288.15	7.836e-05	1.36e-06
0.1502	298.15	7.936e-05	1.38e-06
0.1502	308.15	8.012e-05	1.27e-06
0.1502	318.15	8.099e-05	1.13e-06
0.2497	278.15	7.76e-05	3.7e-07
0.2497	283.15	7.799e-05	4.9e-07
0.2497	288.15	7.841e-05	4e-07
0.2497	298.15	7.928e-05	4e-07
0.2497	308.15	8.007e-05	3.6e-07
0.2497	318.15	8.081e-05	3.2e-07
0.396	278.15	7.7e-05	6.8e-07
0.396	283.15	7.75e-05	5.1e-07
0.396	288.15	7.793e-05	4.2e-07
0.396	298.15	7.876e-05	4.4e-07
0.396	308.15	7.956e-05	4.8e-07
0.396	318.15	8.038e-05	3.7e-07
0.5997	278.15	7.705e-05	4.6e-07
0.5997	283.15	7.761e-05	3.4e-07
0.5997	288.15	7.802e-05	2.9e-07
0.5997	298.15	7.88e-05	2.9e-07
0.5997	308.15	7.955e-05	3.2e-07
0.5997	318.15	8.034e-05	2.5e-07
0.8005	278.15	7.704e-05	2e-07
0.8005	283.15	7.753e-05	2.2e-07
0.8005	288.15	7.799e-05	1.8e-07
0.8005	298.15	7.883e-05	1.5e-07
0.8005	308.15	7.962e-05	1.4e-07
0.8005	318.15	8.04e-05	1.4e-07
1.008	278.15	7.698e-05	2.1e-07
1.008	283.15	7.748e-05	1.8e-07
1.008	288.15	7.792e-05	1.6e-07
1.008	298.15	7.875e-05	1.4e-07
1.008	308.15	7.951e-05	1.6e-07
1.008	318.15	8.025e-05	2.3e-07
1.201	278.15	7.692e-05	1e-07
1.201	283.15	7.74e-05	1e-07
1.201	288.15	7.785e-05	9e-08
1.201	298.15	7.871e-05	1e-07
1.201	308.15	7.951e-05	1e-07
1.201	318.15	8.03e-05	1e-07
1.593	278.15	7.668e-05	9e-08
1.593	283.15	7.718e-05	9e-08
1.593	288.15	7.766e-05	8e-08
1.593	298.15	7.852e-05	9e-08
1.593	308.15	7.935e-05	9e-08
1.593	318.15	8.016e-05	8e-08

System: N,N-dimethylurea + water; phases: Liquid
Fixed: Pressure, kPa = 350
Property: Mass density, kg/m3 (Liquid); method: VIBTUB:UFactor:4
Molality, mol/kg of N,N-dimethylurea	Temperature, K	Mass density, kg/m3	uncertainty
0.01	278.15	1000.181	0.169
0.01	283.15	999.914	0.17
0.01	288.15	999.294	0.171
0.01	298.15	997.228	0.176
0.01	308.15	994.207	0.182
0.01	318.15	990.37	0.188
0.03	278.15	1000.534	0.17
0.03	283.15	1000.235	0.169
0.03	288.15	999.615	0.17
0.03	298.15	997.504	0.174
0.03	308.15	994.457	0.18
0.03	318.15	990.597	0.188
0.05031	278.15	1000.614	0.17
0.05031	283.15	1000.368	0.17
0.05031	288.15	999.745	0.17
0.05031	298.15	997.641	0.174
0.05031	308.15	994.564	0.18
0.05031	318.15	990.736	0.188
0.0901	278.15	1001.049	0.172
0.0901	283.15	1000.732	0.172
0.0901	288.15	1000.097	0.171
0.0901	298.15	997.955	0.175
0.0901	308.15	994.886	0.181
0.0901	318.15	991.012	0.189
0.1502	278.15	1001.68	0.175
0.1502	283.15	1001.331	0.175
0.1502	288.15	1000.676	0.174
0.1502	298.15	998.482	0.175
0.1502	308.15	995.382	0.182
0.1502	318.15	991.473	0.189
0.2497	278.15	1002.664	0.18
0.2497	283.15	1002.306	0.18
0.2497	288.15	1001.607	0.178
0.2497	298.15	999.365	0.177
0.2497	308.15	996.204	0.183
0.2497	318.15	992.27	0.19
0.396	278.15	1004.358	0.188
0.396	283.15	1003.905	0.188
0.396	288.15	1003.152	0.186
0.396	298.15	1000.821	0.182
0.396	308.15	997.575	0.185
0.396	318.15	993.548	0.193
0.5997	278.15	1006.428	0.2
0.5997	283.15	1005.849	0.199
0.5997	288.15	1005.03	0.197
0.5997	298.15	1002.595	0.193
0.5997	308.15	999.268	0.19
0.5997	318.15	995.158	0.197
0.8005	278.15	1008.431	0.211
0.8005	283.15	1007.806	0.21
0.8005	288.15	1006.884	0.208
0.8005	298.15	1004.286	0.204
0.8005	308.15	1000.835	0.198
0.8005	318.15	996.636	0.202
1.008	278.15	1010.494	0.223
1.008	283.15	1009.773	0.222
1.008	288.15	1008.786	0.22
1.008	298.15	1006.08	0.216
1.008	308.15	1002.542	0.21
1.008	318.15	998.288	0.209
1.201	278.15	1012.391	0.235
1.201	283.15	1011.607	0.233
1.201	288.15	1010.545	0.232
1.201	298.15	1007.678	0.227
1.201	308.15	1004.015	0.221
1.201	318.15	999.637	0.215
1.593	278.15	1016.308	0.258
1.593	283.15	1015.338	0.257
1.593	288.15	1014.111	0.255
1.593	298.15	1011.009	0.25
1.593	308.15	1007.103	0.244
1.593	318.15	1002.531	0.237

System: 1,3-dimethylurea + water; phases: Liquid
Fixed: Pressure, kPa = 350
Property: Apparent molar heat capacity, J/K/mol (Liquid); method: Extra sensitive DSC
Molality, mol/kg of 1,3-dimethylurea	Temperature, K	Apparent molar heat capacity, J/K/mol	uncertainty
0.01019	278.15	276	114
0.01019	283.15	281	112
0.01019	288.15	280	109
0.01019	293.15	280	108
0.01019	298.15	282	105
0.01019	303.15	283	103
0.01019	308.15	285	100
0.01019	313.15	286	98
0.01019	318.15	289	96
0.01019	323.15	291	94
0.01019	328.15	295	92
0.01019	333.15	296	91
0.01019	338.15	297	88
0.01019	343.15	300	87
0.01019	348.15	302	85
0.02126	278.15	278	56
0.02126	283.15	280	54
0.02126	288.15	281	52
0.02126	293.15	281	51
0.02126	298.15	284	51
0.02126	303.15	285	49
0.02126	308.15	286	48
0.02126	313.15	287	48
0.02126	318.15	289	47
0.02126	323.15	290	45
0.02126	328.15	293	44
0.02126	333.15	295	44
0.02126	338.15	296	43
0.02126	343.15	299	43
0.02126	348.15	300	42
0.03063	278.15	276	38
0.03063	283.15	278	38
0.03063	288.15	280	37
0.03063	293.15	280	37
0.03063	298.15	283	35
0.03063	303.15	284	35
0.03063	308.15	286	34
0.03063	313.15	287	32
0.03063	318.15	289	32
0.03063	323.15	291	31
0.03063	328.15	292	31
0.03063	333.15	293.9	30.4
0.03063	338.15	295.7	29.9
0.03063	343.15	297.7	29.4
0.03063	348.15	299.5	29
0.05098	278.15	275.4	23.2
0.05098	283.15	278.2	22.6
0.05098	288.15	279.7	22.2
0.05098	293.15	281.5	21.7
0.05098	298.15	283.6	21.4
0.05098	303.15	284.6	20.8
0.05098	308.15	286.3	20.4
0.05098	313.15	287.6	20
0.05098	318.15	288.9	19.6
0.05098	323.15	290.1	19.2
0.05098	328.15	291.6	18.8
0.05098	333.15	293.4	18.4
0.05098	338.15	295.1	18.2
0.05098	343.15	296.4	17.8
0.05098	348.15	297.9	17.6
0.09125	278.15	275	13.2
0.09125	283.15	277.7	12.9
0.09125	288.15	279.9	12.6
0.09125	293.15	281.6	12.4
0.09125	298.15	283.5	12.1
0.09125	303.15	285	11.9
0.09125	308.15	286.3	11.6
0.09125	313.15	287.9	11.4
0.09125	318.15	289.4	11.2
0.09125	323.15	290.8	11
0.09125	328.15	292.3	10.8
0.09125	333.15	293.8	10.7
0.09125	338.15	295.4	10.4
0.09125	343.15	297	10.3
0.09125	348.15	298.6	10.2
0.1509	278.15	274.2	8.1
0.1509	283.15	277.2	8
0.1509	288.15	279.5	7.8
0.1509	293.15	281.4	7.7
0.1509	298.15	283.2	7.6
0.1509	303.15	284.9	7.4
0.1509	308.15	286.2	7.3
0.1509	313.15	287.6	7.2
0.1509	318.15	289	7
0.1509	323.15	290.4	6.9
0.1509	328.15	291.7	6.8
0.1509	333.15	293.2	6.7
0.1509	338.15	294.6	6.5
0.1509	343.15	296	6.4
0.1509	348.15	297.6	6.3
0.2506	278.15	272.9	5.1
0.2506	283.15	276.2	5
0.2506	288.15	278.5	5
0.2506	293.15	280.3	4.8
0.2506	298.15	282	4.8
0.2506	303.15	283.7	4.7
0.2506	308.15	285.2	4.6
0.2506	313.15	286.8	4.4
0.2506	318.15	288.2	4.4
0.2506	323.15	289.6	4.3
0.2506	328.15	291	4.3
0.2506	333.15	292.4	4.2
0.2506	338.15	293.8	4.2
0.2506	343.15	295.2	4.1
0.2506	348.15	296.7	4.1
0.4021	278.15	270.9	3.4
0.4021	283.15	274.5	3.4
0.4021	288.15	277.1	3.2
0.4021	293.15	279.2	3.2
0.4021	298.15	281	3.2
0.4021	303.15	282.8	3.1
0.4021	308.15	284.4	3.1
0.4021	313.15	285.97	3
0.4021	318.15	287.48	2.96
0.4021	323.15	288.89	2.92
0.4021	328.15	290.24	2.89
0.4021	333.15	291.66	2.85
0.4021	338.15	293.05	2.82
0.4021	343.15	294.39	2.8
0.4021	348.15	295.97	2.76
0.5989	278.15	268.66	2.45
0.5989	283.15	272.69	2.41
0.5989	288.15	275.59	2.36
0.5989	293.15	277.98	2.35
0.5989	298.15	280.02	2.33
0.5989	303.15	281.88	2.28
0.5989	308.15	283.56	2.25
0.5989	313.15	285.13	2.21
0.5989	318.15	286.62	2.18
0.5989	323.15	288.05	2.16
0.5989	328.15	289.39	2.14
0.5989	333.15	290.79	2.12
0.5989	338.15	292.13	2.11
0.5989	343.15	293.42	2.09
0.5989	348.15	294.97	2.06
1.001	278.15	264.16	1.71
1.001	283.15	268.67	1.69
1.001	288.15	272.05	1.67
1.001	293.15	274.89	1.65
1.001	298.15	277.33	1.64
1.001	303.15	279.41	1.62
1.001	308.15	281.25	1.6
1.001	313.15	282.96	1.58
1.001	318.15	284.53	1.56
1.001	323.15	285.96	1.55
1.001	328.15	287.26	1.55
1.001	333.15	288.61	1.53
1.001	338.15	289.89	1.52
1.001	343.15	291.12	1.51
1.001	348.15	292.65	1.51
1.501	278.15	259.46	1.28
1.501	283.15	264.57	1.28
1.501	288.15	268.45	1.26
1.501	293.15	271.55	1.25
1.501	298.15	274.22	1.25
1.501	303.15	276.56	1.24
1.501	308.15	278.55	1.24
1.501	313.15	280.38	1.23
1.501	318.15	282.01	1.22
1.501	323.15	283.58	1.22
1.501	328.15	284.98	1.21
1.501	333.15	286.43	1.2
1.501	338.15	287.77	1.2
1.501	343.15	289.09	1.2
1.501	348.15	290.76	1.2
3	278.15	248.3	0.95
3	283.15	253.46	0.95
3	288.15	257.48	0.94
3	293.15	260.53	0.94
3	298.15	263.06	0.93
3	303.15	265.53	0.93
3	308.15	267.93	0.93
3	313.15	270.48	0.93
3	318.15	273.13	0.92
3	323.15	275.59	0.93
3	328.15	278.07	0.92
3	333.15	280.5	0.92
3	338.15	282.89	0.92
3	343.15	285.16	0.93
3	348.15	287.33	0.93
3.972	278.15	241.55	0.88
3.972	283.15	247.54	0.87
3.972	288.15	252.26	0.87
3.972	293.15	256.17	0.86
3.972	298.15	259.52	0.87
3.972	303.15	262.54	0.86
3.972	308.15	265.07	0.86
3.972	313.15	267.31	0.86
3.972	318.15	269.35	0.86
3.972	323.15	271.25	0.86
3.972	328.15	272.94	0.85
3.972	333.15	274.66	0.86
3.972	338.15	276.2	0.85
3.972	343.15	277.76	0.85
3.972	348.15	279.69	0.86
5.992	278.15	231.13	0.81
5.992	283.15	237.09	0.8
5.992	288.15	241.9	0.8
5.992	293.15	245.95	0.79
5.992	298.15	249.5	0.8
5.992	303.15	252.76	0.79
5.992	308.15	255.49	0.79
5.992	313.15	257.99	0.79
5.992	318.15	260.25	0.79
5.992	323.15	262.36	0.79
5.992	328.15	264.22	0.79
5.992	333.15	266.12	0.8
5.992	338.15	267.89	0.79
5.992	343.15	269.63	0.79
5.992	348.15	271.74	0.79
7.997	278.15	223.49	0.78
7.997	283.15	229.35	0.78
7.997	288.15	234.11	0.78
7.997	293.15	238.15	0.77
7.997	298.15	241.75	0.76
7.997	303.15	245.1	0.77
7.997	308.15	247.96	0.76
7.997	313.15	250.56	0.77
7.997	318.15	252.96	0.76
7.997	323.15	255.21	0.76
7.997	328.15	257.21	0.77
7.997	333.15	259.27	0.77
7.997	338.15	261.17	0.76
7.997	343.15	263.07	0.77
7.997	348.15	265.32	0.76

System: 1,3-dimethylurea + water; phases: Liquid
Fixed: Pressure, kPa = 350
Property: Apparent molar volume, m3/mol (Liquid); method: Calculated with densities of this investigation
Molality, mol/kg of 1,3-dimethylurea	Temperature, K	Apparent molar volume, m3/mol	uncertainty
0.01019	278.15	7.69e-05	1.46e-05
0.01019	283.15	7.72e-05	1.27e-05
0.01019	288.15	7.82e-05	1.34e-05
0.01019	298.15	7.91e-05	1.34e-05
0.01019	308.15	8.04e-05	1.2e-05
0.01019	318.15	8.16e-05	1.31e-05
0.01019	328.15	8.29e-05	1.09e-05
0.01019	338.15	8.53e-05	1.03e-05
0.01019	348.15	8.3e-05	9.9e-06
0.02126	278.15	7.46e-05	1.3e-05
0.02126	283.15	7.54e-05	1.1e-05
0.02126	288.15	7.58e-05	1.07e-05
0.02126	298.15	7.65e-05	9.9e-06
0.02126	308.15	7.73e-05	8.8e-06
0.02126	318.15	7.84e-05	9.6e-06
0.02126	328.15	7.97e-05	7.6e-06
0.02126	338.15	7.98e-05	7.4e-06
0.02126	348.15	8.07e-05	8.5e-06
0.03063	278.15	8.08e-05	9.1e-06
0.03063	283.15	8.07e-05	7.8e-06
0.03063	288.15	8.08e-05	7.6e-06
0.03063	298.15	8.17e-05	7e-06
0.03063	308.15	8.17e-05	6.3e-06
0.03063	318.15	8.2e-05	6.6e-06
0.03063	328.15	8.28e-05	5.4e-06
0.03063	338.15	8.35e-05	5.2e-06
0.03063	348.15	8.35e-05	5.9e-06
0.05098	278.15	8.04e-05	5.4e-06
0.05098	283.15	8.06e-05	4.6e-06
0.05098	288.15	8.08e-05	4.4e-06
0.05098	298.15	8.14e-05	4.2e-06
0.05098	308.15	8.19e-05	3.7e-06
0.05098	318.15	8.2e-05	4.1e-06
0.05098	328.15	8.33e-05	3.1e-06
0.05098	338.15	8.33e-05	3.1e-06
0.05098	348.15	8.44e-05	3.5e-06
0.09125	278.15	7.96e-05	2.7e-06
0.09125	283.15	8e-05	2.3e-06
0.09125	288.15	8.03e-05	2.3e-06
0.09125	298.15	8.1e-05	2.1e-06
0.09125	308.15	8.11e-05	2e-06
0.09125	318.15	8.18e-05	2.2e-06
0.09125	328.15	8.251e-05	1.75e-06
0.09125	338.15	8.32e-05	1.67e-06
0.09125	348.15	8.412e-05	1.89e-06
0.2506	278.15	7.853e-05	9.6e-07
0.2506	283.15	7.893e-05	8.5e-07
0.2506	288.15	7.929e-05	8.7e-07
0.2506	298.15	7.991e-05	8.1e-07
0.2506	308.15	8.047e-05	7.4e-07
0.2506	318.15	8.115e-05	7.9e-07
0.2506	328.15	8.186e-05	6.5e-07
0.2506	338.15	8.264e-05	6.2e-07
0.2506	348.15	8.337e-05	6.9e-07
0.4021	278.15	7.976e-05	6.1e-07
0.4021	283.15	7.993e-05	5.1e-07
0.4021	288.15	8.016e-05	4.8e-07
0.4021	298.15	8.075e-05	4.6e-07
0.4021	308.15	8.136e-05	4.2e-07
0.4021	318.15	8.195e-05	4.4e-07
0.4021	328.15	8.264e-05	3.7e-07
0.4021	338.15	8.325e-05	3.4e-07
0.4021	348.15	8.393e-05	4.1e-07
0.5989	278.15	7.81e-05	4.2e-07
0.5989	283.15	7.852e-05	3.4e-07
0.5989	288.15	7.89e-05	3.2e-07
0.5989	298.15	7.958e-05	3.1e-07
0.5989	308.15	8.027e-05	2.9e-07
0.5989	318.15	8.095e-05	3.1e-07
0.5989	328.15	8.168e-05	2.5e-07
0.5989	338.15	8.247e-05	2.4e-07
0.5989	348.15	8.324e-05	2.7e-07
1.001	278.15	7.787e-05	2.5e-07
1.001	283.15	7.829e-05	2.1e-07
1.001	288.15	7.868e-05	1.9e-07
1.001	298.15	7.942e-05	2e-07
1.001	308.15	8.014e-05	1.8e-07
1.001	318.15	8.083e-05	1.8e-07
1.001	328.15	8.158e-05	1.6e-07
1.001	338.15	8.233e-05	1.4e-07
1.001	348.15	8.311e-05	1.8e-07
1.501	278.15	7.763e-05	1.9e-07
1.501	283.15	7.805e-05	1.9e-07
1.501	288.15	7.845e-05	1.9e-07
1.501	298.15	7.924e-05	1.5e-07
1.501	308.15	7.998e-05	1.3e-07
1.501	318.15	8.073e-05	1.1e-07
1.501	328.15	8.149e-05	1.1e-07
1.501	338.15	8.228e-05	1e-07
1.501	348.15	8.307e-05	1e-07
3	278.15	7.702e-05	1e-07
3	283.15	7.75e-05	1e-07
3	288.15	7.795e-05	1e-07
3	298.15	7.882e-05	9e-08
3	308.15	7.964e-05	7e-08
3	318.15	8.05e-05	1e-07
3	328.15	8.127e-05	7e-08
3	338.15	8.209e-05	7e-08
3	348.15	8.291e-05	5e-08
5.992	278.15	7.651e-05	6e-08
5.992	283.15	7.702e-05	6e-08
5.992	288.15	7.755e-05	4e-08
5.992	298.15	7.856e-05	4e-08
5.992	308.15	7.94e-05	4e-08
5.992	318.15	8.035e-05	3e-08
5.992	328.15	8.112e-05	3e-08
5.992	338.15	8.197e-05	3e-08
5.992	348.15	8.297e-05	3e-08
7.997	278.15	7.672e-05	6e-08
7.997	283.15	7.722e-05	6e-08
7.997	288.15	7.771e-05	4e-08
7.997	298.15	7.862e-05	4e-08
7.997	308.15	7.95e-05	3e-08
7.997	318.15	8.035e-05	3e-08
7.997	328.15	8.12e-05	3e-08
7.997	338.15	8.205e-05	3e-08
7.997	348.15	8.289e-05	3e-08

System: 1,3-dimethylurea + water; phases: Liquid
Fixed: Pressure, kPa = 350
Property: Mass density, kg/m3 (Liquid); method: VIBTUB:UFactor:4
Molality, mol/kg of 1,3-dimethylurea	Temperature, K	Mass density, kg/m3	uncertainty
0.01019	278.15	1000.207	0.168
0.01019	283.15	999.936	0.168
0.01019	288.15	999.322	0.17
0.01019	298.15	997.248	0.175
0.01019	308.15	994.217	0.181
0.01019	318.15	990.386	0.189
0.01019	328.15	985.86	0.198
0.01019	338.15	980.704	0.209
0.01019	348.15	975.03	0.22
0.02126	278.15	1000.38	0.169
0.02126	283.15	1000.095	0.169
0.02126	288.15	999.483	0.17
0.02126	298.15	997.405	0.174
0.02126	308.15	994.371	0.18
0.02126	318.15	990.533	0.188
0.02126	328.15	985.996	0.197
0.02126	338.15	980.864	0.208
0.02126	348.15	975.154	0.22
0.03063	278.15	1000.317	0.169
0.03063	283.15	1000.052	0.169
0.03063	288.15	999.445	0.17
0.03063	298.15	997.355	0.174
0.03063	308.15	994.342	0.18
0.03063	318.15	990.522	0.188
0.03063	328.15	985.99	0.198
0.03063	338.15	980.845	0.208
0.03063	348.15	975.16	0.22
0.05098	278.15	1000.484	0.17
0.05098	283.15	1000.209	0.17
0.05098	288.15	999.592	0.17
0.05098	298.15	997.506	0.174
0.05098	308.15	994.47	0.181
0.05098	318.15	990.659	0.188
0.05098	328.15	986.098	0.198
0.05098	338.15	980.979	0.208
0.05098	348.15	975.248	0.22
0.09125	278.15	1000.862	0.172
0.09125	283.15	1000.558	0.171
0.09125	288.15	999.93	0.171
0.09125	298.15	997.817	0.175
0.09125	308.15	994.806	0.181
0.09125	318.15	990.953	0.189
0.09125	328.15	986.4	0.198
0.09125	338.15	981.238	0.209
0.09125	348.15	975.497	0.221
0.2506	278.15	1002.445	0.18
0.2506	283.15	1002.083	0.179
0.2506	288.15	1001.401	0.178
0.2506	298.15	999.218	0.177
0.2506	308.15	996.114	0.183
0.2506	318.15	992.197	0.191
0.2506	328.15	987.59	0.2
0.2506	338.15	982.361	0.211
0.2506	348.15	976.593	0.222
0.4021	278.15	1003.342	0.187
0.4021	283.15	1003.017	0.186
0.4021	288.15	1002.336	0.185
0.4021	298.15	1000.102	0.181
0.4021	308.15	996.93	0.187
0.4021	318.15	992.994	0.194
0.4021	328.15	988.344	0.203
0.4021	338.15	983.129	0.213
0.4021	348.15	977.342	0.225
0.5989	278.15	1005.813	0.198
0.5989	283.15	1005.315	0.198
0.5989	288.15	1004.519	0.196
0.5989	298.15	1002.143	0.192
0.5989	308.15	998.856	0.19
0.5989	318.15	994.804	0.198
0.5989	328.15	990.07	0.207
0.5989	338.15	984.713	0.217
0.5989	348.15	978.833	0.228
1.001	278.15	1009.592	0.221
1.001	283.15	1008.947	0.22
1.001	288.15	1008.015	0.219
1.001	298.15	1005.399	0.214
1.001	308.15	1001.905	0.209
1.001	318.15	997.704	0.209
1.001	328.15	992.815	0.217
1.001	338.15	987.349	0.227
1.001	348.15	981.349	0.237
1.501	278.15	1014.174	0.251
1.501	283.15	1013.358	0.249
1.501	288.15	1012.265	0.248
1.501	298.15	1009.327	0.243
1.501	308.15	1005.594	0.237
1.501	318.15	1001.144	0.23
1.501	328.15	996.057	0.234
1.501	338.15	990.402	0.243
1.501	348.15	984.246	0.252
3	278.15	1027.111	0.336
3	283.15	1025.677	0.334
3	288.15	1024.046	0.331
3	298.15	1020.178	0.326
3	308.15	1015.664	0.319
3	318.15	1010.541	0.312
3	328.15	1004.86	0.305
3	338.15	998.684	0.3
3	348.15	992.083	0.307
5.992	278.15	1047.732	0.476
5.992	283.15	1045.315	0.473
5.992	288.15	1042.623	0.469
5.992	298.15	1036.884	0.461
5.992	308.15	1031.245	0.454
5.992	318.15	1024.592	0.445
5.992	328.15	1018.318	0.437
5.992	338.15	1011.285	0.429
5.992	348.15	1003.344	0.42
7.997	278.15	1056.507	0.548
7.997	283.15	1053.694	0.544
7.997	288.15	1050.793	0.54
7.997	298.15	1044.734	0.531
7.997	308.15	1038.36	0.523
7.997	318.15	1031.617	0.514
7.997	328.15	1024.556	0.505
7.997	338.15	1017.155	0.496
7.997	348.15	1009.515	0.487
