Measured thermophysical data. Physicochemical properties of L-carnitine in aqueous solution and its interaction with trimethylamine N-oxide, sodium chloride and dextrose: Volumetric and calorimetric insights
Source: J. Chem. Thermodyn., 2018, 10.1016/j.jct.2018.01.021
Compound 1: (R)-3-hydroxy-4-(trimethylammonio)butanoate, C7H15NO3, InChI=1S/C7H15NO3/c1-8(2,3)5-6(9)4-7(10)11/h6,9H,4-5H2,1-3H3/t6-/m1/s1, purity 99%
Compound 2: trimethylamine oxide, C3H9NO, InChI=1S/C3H9NO/c1-4(2,3)5/h1-3H3, purity 98%
Compound 3: D-glucose, C6H12O6, InChI=1S/C6H12O6/c7-1-3(9)5(11)6(12)4(10)2-8/h1,3-6,8-12H,2H2/t3-,4+,5+,6+/m0/s1, purity 99%
Compound 4: sodium chloride, ClNa, InChI=1S/ClH.Na/h1H;/q;+1/p-1, purity 99%
Compound 5: water, H2O, InChI=1S/H2O/h1H2

System: (R)-3-hydroxy-4-(trimethylammonio)butanoate + water; phases: Liquid
Fixed: Pressure, kPa = 100
Property: Mass density, kg/m3 (Liquid); method: Vibrating tube method
Temperature, K	Molality, mol/kg of (R)-3-hydroxy-4-(trimethylammonio)butanoate	Mass density, kg/m3	uncertainty
293.15	0	998.21	0.3
293.15	0.0937	1001.09	0.32
293.15	0.1233	1001.98	0.34
293.15	0.1554	1002.94	0.35
293.15	0.1924	1004.04	0.38
293.15	0.2249	1004.99	0.4
293.15	0.2574	1005.94	0.43
293.15	0.276	1006.48	0.44
293.15	0.3064	1007.35	0.46
298.15	0	997.05	0.3
298.15	0.0497	998.57	0.31
298.15	0.0994	1000.06	0.32
298.15	0.1214	1000.71	0.33
298.15	0.1509	1001.58	0.35
298.15	0.2007	1003.03	0.38
298.15	0.2203	1003.6	0.4
298.15	0.2572	1004.66	0.42
298.15	0.3012	1005.91	0.44
303.15	0	995.65	0.3
303.15	0.0477	997.1	0.31
303.15	0.1029	998.75	0.33
303.15	0.1227	999.33	0.34
303.15	0.1531	1000.21	0.35
303.15	0.2046	1001.71	0.41
303.15	0.2174	1002.07	0.39
303.15	0.255	1003.14	0.42
303.15	0.3041	1004.51	0.44
308.15	0	994.04	0.3
308.15	0.0512	995.58	0.31
308.15	0.0938	996.84	0.32
308.15	0.1229	997.69	0.33
308.15	0.1447	998.32	0.35
308.15	0.1952	999.78	0.37
308.15	0.2238	1000.59	0.39
308.15	0.2282	1000.71	0.39
308.15	0.304	1002.84	0.45
313.15	0	992.2	0.3
313.15	0.0519	993.75	0.31
313.15	0.1012	995.21	0.33
313.15	0.1204	995.77	0.33
313.15	0.1428	996.42	0.34
313.15	0.1922	997.84	0.37
313.15	0.2107	998.36	0.38
313.15	0.2436	999.29	0.41
313.15	0.3053	1001	0.45

System: (R)-3-hydroxy-4-(trimethylammonio)butanoate + water; phases: Liquid
Fixed: Pressure, kPa = 100
Fixed: Frequency, MHz = 3
Property: Speed of sound, m/s (Liquid); method: Single path-length method
Temperature, K	Molality, mol/kg of (R)-3-hydroxy-4-(trimethylammonio)butanoate	Speed of sound, m/s	uncertainty
293.15	0	1483.42	2.01
293.15	0.0937	1492.43	2.04
293.15	0.1233	1495.22	2.07
293.15	0.1554	1498.28	2.1
293.15	0.1924	1501.79	2.14
293.15	0.2249	1504.89	2.19
293.15	0.2574	1507.94	2.23
293.15	0.276	1509.66	2.26
293.15	0.3064	1512.5	2.32
298.15	0	1497.65	2.01
298.15	0.0497	1502.27	2.02
298.15	0.0994	1506.87	2.04
298.15	0.1214	1508.86	2.06
298.15	0.1509	1511.56	2.09
298.15	0.2007	1516.08	2.13
298.15	0.2203	1517.82	2.17
298.15	0.2572	1521.15	2.22
298.15	0.3012	1525.08	2.21
303.15	0	1510.06	2.01
303.15	0.0477	1514.34	2.02
303.15	0.1029	1519.25	2.04
303.15	0.1227	1520.99	2.06
303.15	0.1531	1523.62	2.09
303.15	0.2046	1528.11	2.27
303.15	0.2174	1529.2	2.16
303.15	0.255	1532.44	2.21
303.15	0.3041	1536.69	2.22
308.15	0	1520.69	2.01
308.15	0.0512	1525.16	2.02
308.15	0.0938	1528.81	2.03
308.15	0.1229	1531.21	2.05
308.15	0.1447	1533.07	2.07
308.15	0.1952	1537.35	2.11
308.15	0.2238	1539.71	2.15
308.15	0.2282	1540.08	2.15
308.15	0.304	1546.42	2.22
313.15	0	1529.9	2.01
313.15	0.0519	1534.13	2.02
313.15	0.1012	1538.15	2.04
313.15	0.1204	1539.71	2.05
313.15	0.1428	1541.51	2.06
313.15	0.1922	1545.52	2.11
313.15	0.2107	1547.01	2.13
313.15	0.2436	1549.67	2.16
313.15	0.3053	1554.68	2.25

System: (R)-3-hydroxy-4-(trimethylammonio)butanoate + water; phases: Liquid
Fixed: Initial molality of solute, mol/kg = 0.2
Fixed: Pressure, kPa = 100
Fixed: Final molality of solute, mol/kg = 0.00106
Property: Molar enthalpy of dilution, kJ/mol (Liquid); method: Calvet calorimetry
Temperature, K	Molar enthalpy of dilution, kJ/mol	uncertainty
293.15	0.0308	0.01
298.15	0.0346	0.01
303.15	0.0376	0.01
308.15	0.0421	0.0101
313.15	0.0465	0.0101

System: (R)-3-hydroxy-4-(trimethylammonio)butanoate + sodium chloride + water; phases: Liquid
Fixed: Pressure, kPa = 100
Fixed: Temperature, K = 298.15
Property: Mass density, kg/m3 (Liquid); method: Vibrating tube method
Solvent: Molality, mol/kg of sodium chloride	Molality, mol/kg of (R)-3-hydroxy-4-(trimethylammonio)butanoate	Mass density, kg/m3	uncertainty
0.151	0	1003.43	0.42
0.151	0.0515	1004.94	0.42
0.151	0.1011	1006.37	0.43
0.151	0.121	1006.94	0.43
0.151	0.1529	1007.85	0.45
0.151	0.2026	1009.25	0.47
0.151	0.225	1009.87	0.48
0.151	0.2553	1010.71	0.5
0.151	0.3035	1012.03	0.53
1.021	0	1037.99	1.66
1.021	0.0497	1039.39	1.65
1.021	0.0987	1040.7	1.65
1.021	0.1186	1041.19	1.65
1.021	0.1504	1042.02	1.65
1.021	0.1987	1043.1	1.64
1.021	0.2195	1043.61	1.64
1.021	0.2473	1044.26	1.63
1.021	0.296	1045.13	1.61
0	0	997.05	0.33
0	0.0497	998.57	0.33
0	0.0994	1000.06	0.35
0	0.1214	1000.71	0.36
0	0.1509	1001.58	0.37
0	0.2007	1003.03	0.4
0	0.2203	1003.6	0.41
0	0.2572	1004.66	0.44
0	0.3012	1005.91	0.47

System: (R)-3-hydroxy-4-(trimethylammonio)butanoate + sodium chloride + water; phases: Liquid
Fixed: Pressure, kPa = 100
Fixed: Temperature, K = 298.15
Fixed: Frequency, MHz = 3
Property: Speed of sound, m/s (Liquid); method: Single path-length method
Solvent: Molality, mol/kg of sodium chloride	Molality, mol/kg of (R)-3-hydroxy-4-(trimethylammonio)butanoate	Speed of sound, m/s	uncertainty
0.151	0	1507.46	2.13
0.151	0.0515	1512.12	2.13
0.151	0.1011	1516.6	2.13
0.151	0.121	1518.39	2.13
0.151	0.1529	1521.26	2.13
0.151	0.2026	1525.73	2.13
0.151	0.225	1527.72	2.13
0.151	0.2553	1530.42	2.13
0.151	0.3035	1534.7	2.13
1.021	0	1560.45	2.13
1.021	0.0497	1564.78	2.13
1.021	0.0987	1569.11	2.13
1.021	0.1186	1570.87	2.13
1.021	0.1504	1573.63	2.13
1.021	0.1987	1577.92	2.13
1.021	0.2195	1579.83	2.13
1.021	0.2473	1582.17	2.31
1.021	0.296	1586.85	2.13
0	0	1497.65	2.13
0	0.0497	1502.27	2.13
0	0.0994	1506.87	2.43
0	0.1214	1508.86	2.13
0	0.1509	1511.56	2.62
0	0.2007	1516.08	2.82
0	0.2203	1517.82	2.13
0	0.2572	1521.15	2.13
0	0.3012	1525.08	2.86

System: (R)-3-hydroxy-4-(trimethylammonio)butanoate + D-glucose + water; phases: Liquid
Fixed: Pressure, kPa = 100
Fixed: Temperature, K = 298.15
Property: Mass density, kg/m3 (Liquid); method: Vibrating tube method
Solvent: Molality, mol/kg of D-glucose	Molality, mol/kg of (R)-3-hydroxy-4-(trimethylammonio)butanoate	Mass density, kg/m3	uncertainty
0.153	0	1007.53	0.53
0.153	0.0506	1008.99	0.53
0.153	0.1023	1010.46	0.54
0.153	0.1262	1011.12	0.54
0.153	0.1576	1011.99	0.55
0.153	0.2023	1013.22	0.57
0.153	0.2294	1013.95	0.58
0.153	0.2601	1014.77	0.59
0.153	0.3133	1016.18	0.61
1.13	0	1064.98	2.68
1.13	0.0489	1066.42	2.68
1.13	0.0981	1067.75	2.68
1.13	0.1183	1068.19	2.67
1.13	0.1451	1068.78	2.66
1.13	0.1962	1069.83	2.65
1.13	0.2151	1070.09	2.65
1.13	0.2433	1070.57	2.64
1.13	0.2925	1071.42	2.6
0	0	997.05	0.33
0	0.0497	998.57	0.33
0	0.0994	1000.06	0.35
0	0.1214	1000.71	0.36
0	0.1509	1001.58	0.37
0	0.2007	1003.03	0.4
0	0.2203	1003.6	0.41
0	0.2572	1004.66	0.44
0	0.3012	1005.91	0.47

System: (R)-3-hydroxy-4-(trimethylammonio)butanoate + D-glucose + water; phases: Liquid
Fixed: Pressure, kPa = 100
Fixed: Temperature, K = 298.15
Fixed: Frequency, MHz = 3
Property: Speed of sound, m/s (Liquid); method: Single path-length method
Solvent: Molality, mol/kg of D-glucose	Molality, mol/kg of (R)-3-hydroxy-4-(trimethylammonio)butanoate	Speed of sound, m/s	uncertainty
0.153	0	1507.32	2.13
0.153	0.0506	1511.94	2.13
0.153	0.1023	1516.61	2.13
0.153	0.1262	1518.74	2.34
0.153	0.1576	1521.54	2.13
0.153	0.2023	1525.52	2.13
0.153	0.2294	1527.92	2.31
0.153	0.2601	1530.61	2.13
0.153	0.3133	1535.3	2.13
1.13	0	1565.28	2.13
1.13	0.0489	1570.38	2.13
1.13	0.0981	1575.15	2.13
1.13	0.1183	1576.9	2.13
1.13	0.1451	1579.59	2.19
1.13	0.1962	1584.16	2.13
1.13	0.2151	1585.69	2.26
1.13	0.2433	1588.19	2.3
1.13	0.2925	1592.38	2.38
0	0	1497.65	2.13
0	0.0497	1502.27	2.31
0	0.0994	1506.87	2.23
0	0.1214	1508.86	2.22
0	0.1509	1511.56	2.22
0	0.2007	1516.08	2.28
0	0.2203	1517.82	2.28
0	0.2572	1521.15	2.13
0	0.3012	1525.08	2.36

System: (R)-3-hydroxy-4-(trimethylammonio)butanoate + trimethylamine oxide + water; phases: Liquid
Fixed: Pressure, kPa = 100
Fixed: Solvent: Molality, mol/kg of trimethylamine oxide = 1.08
Property: Mass density, kg/m3 (Liquid); method: Vibrating tube method
Temperature, K	Molality, mol/kg of (R)-3-hydroxy-4-(trimethylammonio)butanoate	Mass density, kg/m3	uncertainty
293.15	0	1000.9	0.38
293.15	0.0521	1002.53	0.39
293.15	0.1051	1004.16	0.4
293.15	0.1153	1004.47	0.41
293.15	0.1514	1005.56	0.42
293.15	0.2111	1007.34	0.46
293.15	0.2332	1008	0.47
293.15	0.2519	1008.53	0.48
293.15	0.3036	1010.02	0.52
298.15	0	999.7	0.38
298.15	0.0524	1001.31	0.39
298.15	0.1021	1002.82	0.4
298.15	0.1227	1003.43	0.41
298.15	0.1518	1004.3	0.42
298.15	0.2034	1005.82	0.45
298.15	0.2279	1006.54	0.47
298.15	0.2499	1007.18	0.48
298.15	0.3047	1008.75	0.51
303.15	0	998.26	0.38
303.15	0.0524	999.86	0.39
303.15	0.1021	1001.35	0.4
303.15	0.1227	1001.96	0.41
303.15	0.1518	1002.82	0.42
303.15	0.2034	1004.32	0.45
303.15	0.2279	1005.03	0.46
303.15	0.2499	1005.66	0.48
303.15	0.3047	1007.22	0.49
308.15	0	996.53	0.38
308.15	0.0526	998.11	0.39
308.15	0.1032	999.57	0.4
308.15	0.1244	1000.18	0.41
308.15	0.1537	1001.01	0.42
308.15	0.2084	1002.51	0.45
308.15	0.2277	1003.03	0.45
308.15	0.2601	1003.9	0.47
308.15	0.3157	1005.37	0.53
313.15	0	994.81	0.38
313.15	0.0532	996.45	0.39
313.15	0.0951	997.61	0.4
313.15	0.1261	998.5	0.41
313.15	0.1559	999.34	0.42
313.15	0.2056	1000.7	0.44
313.15	0.2371	1001.55	0.46
313.15	0.2581	1002.11	0.47
313.15	0.3229	1003.84	0.51

System: (R)-3-hydroxy-4-(trimethylammonio)butanoate + trimethylamine oxide + water; phases: Liquid
Fixed: Pressure, kPa = 100
Fixed: Solvent: Molality, mol/kg of trimethylamine oxide = 1.08
Fixed: Frequency, MHz = 3
Property: Speed of sound, m/s (Liquid); method: Single path-length method
Temperature, K	Molality, mol/kg of (R)-3-hydroxy-4-(trimethylammonio)butanoate	Speed of sound, m/s	uncertainty
293.15	0	1564.79	2.27
293.15	0.0521	1569.76	2.28
293.15	0.1051	1574.78	2.3
293.15	0.1153	1575.72	2.31
293.15	0.1514	1579.07	2.34
293.15	0.2111	1584.62	2.4
293.15	0.2332	1586.61	2.42
293.15	0.2519	1588.27	2.44
293.15	0.3036	1592.99	2.52
298.15	0	1575.65	2.27
298.15	0.0524	1580.43	2.27
298.15	0.1021	1584.93	2.29
298.15	0.1227	1586.78	2.32
298.15	0.1518	1589.4	2.34
298.15	0.2034	1593.99	2.37
298.15	0.2279	1596.19	2.4
298.15	0.2499	1598.15	2.45
298.15	0.3047	1602.96	2.44
303.15	0	1584.15	2.27
303.15	0.0524	1588.74	2.27
303.15	0.1021	1593.09	2.29
303.15	0.1227	1594.86	2.31
303.15	0.1518	1597.37	2.33
303.15	0.2034	1601.77	2.36
303.15	0.2279	1603.85	2.4
303.15	0.2499	1605.78	2.43
303.15	0.3047	1610.44	2.41
308.15	0	1589.42	2.27
308.15	0.0526	1595	2.28
308.15	0.1032	1599.98	2.3
308.15	0.1244	1601.83	2.3
308.15	0.1537	1603.92	2.32
308.15	0.2084	1608.43	2.36
308.15	0.2277	1609.69	2.34
308.15	0.2601	1611.78	2.4
308.15	0.3157	1616.12	2.46
313.15	0	1595.48	2.27
313.15	0.0532	1600.68	2.28
313.15	0.0951	1604.58	2.29
313.15	0.1261	1606.73	2.3
313.15	0.1559	1609.21	2.32
313.15	0.2056	1612.97	2.34
313.15	0.2371	1615.03	2.36
313.15	0.2581	1616.59	2.38
313.15	0.3229	1620.99	2.43

System: sodium chloride + water; phases: Liquid
Fixed: Pressure, kPa = 100
Fixed: Temperature, K = 298.15
Property: Mass density, kg/m3 (Liquid); method: Vibrating tube method
Molality, mol/kg of sodium chloride	Mass density, kg/m3	uncertainty
0.151	1003.43	0.31
1.021	1037.99	0.52
0	997.05	0.3

System: sodium chloride + water; phases: Liquid
Fixed: Pressure, kPa = 100
Fixed: Temperature, K = 298.15
Fixed: Frequency, MHz = 3
Property: Speed of sound, m/s (Liquid); method: Single path-length method
Molality, mol/kg of sodium chloride	Speed of sound, m/s	uncertainty
0.151	1507.46	2.01
1.021	1560.45	2.02
0	1497.65	2.01

System: D-glucose + water; phases: Liquid
Fixed: Pressure, kPa = 100
Fixed: Temperature, K = 298.15
Property: Mass density, kg/m3 (Liquid); method: Vibrating tube method
Molality, mol/kg of D-glucose	Mass density, kg/m3	uncertainty
0.153	1007.53	0.53
1.13	1064.98	2.68
0	997.05	0.3

System: D-glucose + water; phases: Liquid
Fixed: Pressure, kPa = 100
Fixed: Temperature, K = 298.15
Fixed: Frequency, MHz = 3
Property: Speed of sound, m/s (Liquid); method: Single path-length method
Molality, mol/kg of D-glucose	Speed of sound, m/s	uncertainty
0.153	1507.32	2.13
1.13	1565.28	2.13
0	1497.65	2.01

System: trimethylamine oxide + water; phases: Liquid
Fixed: Pressure, kPa = 100
Property: Mass density, kg/m3 (Liquid); method: Vibrating tube method
Temperature, K	Molality, mol/kg of trimethylamine oxide	Mass density, kg/m3	uncertainty
293.15	1.08	1000.9	0.38
298.15	1.08	999.7	0.38
303.15	1.08	998.26	0.38
308.15	1.08	996.53	0.38
313.15	1.08	994.81	0.38
293.15	0	998.21	0.3
298.15	0	997.05	0.3
303.15	0	995.65	0.3
308.15	0	994.04	0.3
313.15	0	992.2	0.3

System: trimethylamine oxide + water; phases: Liquid
Fixed: Pressure, kPa = 100
Fixed: Frequency, MHz = 3
Property: Speed of sound, m/s (Liquid); method: Single path-length method
Temperature, K	Molality, mol/kg of trimethylamine oxide	Speed of sound, m/s	uncertainty
293.15	1.08	1564.79	2.27
298.15	1.08	1575.65	2.27
303.15	1.08	1584.15	2.27
308.15	1.08	1589.42	2.27
313.15	1.08	1595.48	2.27
293.15	0	1483.42	2.01
298.15	0	1497.65	2.01
303.15	0	1510.06	2.01
308.15	0	1520.69	2.01
313.15	0	1529.9	2.01
