Measured thermophysical data. Experimental solubility evaluation and thermodynamic analysis of biologically active D-tryptophan in aqueous mixtures of N,N-dimethylformamide and several alcohols
Source: J. Chem. Thermodyn., 2019, 10.1016/j.jct.2018.08.018
Compound 1: D-tryptophan, C11H12N2O2, InChI=1S/C11H12N2O2/c12-9(11(14)15)5-7-6-13-10-4-2-1-3-8(7)10/h1-4,6,9,13H,5,12H2,(H,14,15)/t9-/m1/s1, purity 98%
Compound 2: methanol, CH4O, InChI=1S/CH4O/c1-2/h2H,1H3, purity 99.6%
Compound 3: ethanol, C2H6O, InChI=1S/C2H6O/c1-2-3/h3H,2H2,1H3, purity 99.8%
Compound 4: propan-2-ol, C3H8O, InChI=1S/C3H8O/c1-3(2)4/h3-4H,1-2H3, purity 99.8%
Compound 5: dimethylformamide, C3H7NO, InChI=1S/C3H7NO/c1-4(2)3-5/h3H,1-2H3, purity 99.8%
Compound 6: water, H2O, InChI=1S/H2O/h1H2

System: D-tryptophan + methanol + water; phases: Liquid, Crystal
Fixed: Pressure, kPa = 101.2
Property: Mole fraction of D-tryptophan (Liquid); method: Chromatography
Solvent: Mass fraction of methanol	Temperature, K	Mole fraction of D-tryptophan	uncertainty
0	283.15	0.001457	7.3e-05
0	288.15	0.001592	8e-05
0	293.15	0.001749	8.8e-05
0	298.15	0.001917	9.6e-05
0	303.15	0.002087	0.000104
0	308.15	0.002266	0.000113
0	313.15	0.002454	0.000123
0	318.15	0.002666	0.000133
0	323.15	0.002877	0.000144
0	328.15	0.003091	0.000155
0	333.15	0.003324	0.000166
0.0996	283.15	0.001284	6.4e-05
0.0996	288.15	0.00139	7e-05
0.0996	293.15	0.001525	7.6e-05
0.0996	298.15	0.001687	8.4e-05
0.0996	303.15	0.00185	9.3e-05
0.0996	308.15	0.002034	0.000102
0.0996	313.15	0.002209	0.000111
0.0996	318.15	0.00239	0.00012
0.0996	323.15	0.002606	0.00013
0.0996	328.15	0.002817	0.000141
0.0996	333.15	0.003051	0.000153
0.1989	283.15	0.001122	5.6e-05
0.1989	288.15	0.001203	6e-05
0.1989	293.15	0.001351	6.8e-05
0.1989	298.15	0.001489	7.5e-05
0.1989	303.15	0.001651	8.3e-05
0.1989	308.15	0.001835	9.2e-05
0.1989	313.15	0.001985	9.9e-05
0.1989	318.15	0.002179	0.000109
0.1989	323.15	0.002382	0.000119
0.1989	328.15	0.002581	0.000129
0.1989	333.15	0.002816	0.000141
0.3	283.15	0.000961	4.81e-05
0.3	288.15	0.001017	5.1e-05
0.3	293.15	0.001162	5.8e-05
0.3	298.15	0.001265	6.3e-05
0.3	303.15	0.001433	7.2e-05
0.3	308.15	0.001606	8e-05
0.3	313.15	0.001749	8.8e-05
0.3	318.15	0.00194	9.7e-05
0.3	323.15	0.002122	0.000106
0.3	328.15	0.002302	0.000115
0.3	333.15	0.002555	0.000128
0.3996	283.15	0.0007873	3.94e-05
0.3996	288.15	0.0008808	4.41e-05
0.3996	293.15	0.0009887	4.95e-05
0.3996	298.15	0.001092	5.5e-05
0.3996	303.15	0.001222	6.1e-05
0.3996	308.15	0.001383	6.9e-05
0.3996	313.15	0.001538	7.7e-05
0.3996	318.15	0.001705	8.5e-05
0.3996	323.15	0.001886	9.4e-05
0.3996	328.15	0.002079	0.000104
0.3996	333.15	0.002307	0.000115
0.4979	283.15	0.0006488	3.25e-05
0.4979	288.15	0.0007319	3.66e-05
0.4979	293.15	0.0008226	4.12e-05
0.4979	298.15	0.0009056	4.53e-05
0.4979	303.15	0.001035	5.2e-05
0.4979	308.15	0.001176	5.9e-05
0.4979	313.15	0.001315	6.6e-05
0.4979	318.15	0.001475	7.4e-05
0.4979	323.15	0.00165	8.3e-05
0.4979	328.15	0.001824	9.1e-05
0.4979	333.15	0.002032	0.000102
0.6002	283.15	0.0005248	2.63e-05
0.6002	288.15	0.0006078	3.04e-05
0.6002	293.15	0.0006861	3.43e-05
0.6002	298.15	0.0007567	3.79e-05
0.6002	303.15	0.0008617	4.31e-05
0.6002	308.15	0.001002	5e-05
0.6002	313.15	0.001117	5.6e-05
0.6002	318.15	0.001276	6.4e-05
0.6002	323.15	0.001439	7.2e-05
0.6002	328.15	0.001601	8e-05
0.6002	333.15	0.001796	9e-05
0.7012	283.15	0.0004207	2.11e-05
0.7012	288.15	0.0004837	2.42e-05
0.7012	293.15	0.0005744	2.88e-05
0.7012	298.15	0.0006574	3.29e-05
0.7012	303.15	0.0007414	3.71e-05
0.7012	308.15	0.0008531	4.27e-05
0.7012	313.15	0.0009677	4.84e-05
0.7012	318.15	0.001087	5.4e-05
0.7012	323.15	0.001241	6.2e-05
0.7012	328.15	0.001408	7e-05
0.7012	333.15	0.001579	7.9e-05
0.8001	283.15	0.0003214	1.61e-05
0.8001	288.15	0.000372	1.86e-05
0.8001	293.15	0.0004503	2.25e-05
0.8001	298.15	0.0005334	2.67e-05
0.8001	303.15	0.0006049	3.03e-05
0.8001	308.15	0.0007042	3.53e-05
0.8001	313.15	0.0008063	4.04e-05
0.8001	318.15	0.0009381	4.7e-05
0.8001	323.15	0.001067	5.3e-05
0.8001	328.15	0.001209	6.1e-05
0.8001	333.15	0.00138	6.9e-05
0.9013	283.15	0.000247	1.24e-05
0.9013	288.15	0.0002976	1.49e-05
0.9013	293.15	0.0003634	1.82e-05
0.9013	298.15	0.0004093	2.05e-05
0.9013	303.15	0.0004809	2.41e-05
0.9013	308.15	0.0005677	2.84e-05
0.9013	313.15	0.000645	3.23e-05
0.9013	318.15	0.0007519	3.76e-05
0.9013	323.15	0.0008684	4.35e-05
0.9013	328.15	0.0009982	5e-05
0.9013	333.15	0.001132	5.7e-05
1	283.15	0.0001785	8.9e-06
1	288.15	0.0002168	1.09e-05
1	293.15	0.0002606	1.3e-05
1	298.15	0.0003033	1.52e-05
1	303.15	0.0003582	1.79e-05
1	308.15	0.0004212	2.11e-05
1	313.15	0.0004892	2.45e-05
1	318.15	0.000575	2.88e-05
1	323.15	0.0006714	3.36e-05
1	328.15	0.0007794	3.9e-05
1	333.15	0.0008937	4.47e-05

System: D-tryptophan + ethanol + water; phases: Liquid, Crystal
Fixed: Pressure, kPa = 101.2
Property: Mole fraction of D-tryptophan (Liquid); method: Chromatography
Solvent: Mass fraction of ethanol	Temperature, K	Mole fraction of D-tryptophan	uncertainty
0	283.15	0.001457	7.3e-05
0	288.15	0.001592	8e-05
0	293.15	0.001749	8.8e-05
0	298.15	0.001917	9.6e-05
0	303.15	0.002087	0.000104
0	308.15	0.002266	0.000113
0	313.15	0.002454	0.000123
0	318.15	0.002666	0.000133
0	323.15	0.002877	0.000144
0	328.15	0.003091	0.000155
0	333.15	0.003324	0.000166
0.1006	283.15	0.001168	5.8e-05
0.1006	288.15	0.001297	6.5e-05
0.1006	293.15	0.001432	7.2e-05
0.1006	298.15	0.001584	7.9e-05
0.1006	303.15	0.001757	8.8e-05
0.1006	308.15	0.001919	9.6e-05
0.1006	313.15	0.002083	0.000104
0.1006	318.15	0.002296	0.000115
0.1006	323.15	0.002491	0.000125
0.1006	328.15	0.002713	0.000136
0.1006	333.15	0.002926	0.000146
0.2	283.15	0.0009693	4.85e-05
0.2	288.15	0.001049	5.3e-05
0.2	293.15	0.001177	5.9e-05
0.2	298.15	0.00131	6.6e-05
0.2	303.15	0.001472	7.4e-05
0.2	308.15	0.001634	8.2e-05
0.2	313.15	0.001802	9e-05
0.2	318.15	0.00198	9.9e-05
0.2	323.15	0.002171	0.000109
0.2	328.15	0.002375	0.000119
0.2	333.15	0.002614	0.000131
0.2989	283.15	0.0007737	3.87e-05
0.2989	288.15	0.0008832	4.42e-05
0.2989	293.15	0.0009986	5e-05
0.2989	298.15	0.001122	5.6e-05
0.2989	303.15	0.001268	6.3e-05
0.2989	308.15	0.001422	7.1e-05
0.2989	313.15	0.001574	7.9e-05
0.2989	318.15	0.001755	8.8e-05
0.2989	323.15	0.001937	9.7e-05
0.2989	328.15	0.002136	0.000107
0.2989	333.15	0.00235	0.000118
0.4012	283.15	0.0006558	3.28e-05
0.4012	288.15	0.0007602	3.81e-05
0.4012	293.15	0.0008462	4.24e-05
0.4012	298.15	0.0009497	4.75e-05
0.4012	303.15	0.001069	5.4e-05
0.4012	308.15	0.001197	6e-05
0.4012	313.15	0.00133	6.7e-05
0.4012	318.15	0.001496	7.5e-05
0.4012	323.15	0.001667	8.3e-05
0.4012	328.15	0.001859	9.3e-05
0.4012	333.15	0.002088	0.000105
0.5008	283.15	0.0005146	2.58e-05
0.5008	288.15	0.0005973	2.99e-05
0.5008	293.15	0.0006883	3.45e-05
0.5008	298.15	0.0007884	3.95e-05
0.5008	303.15	0.0009014	4.51e-05
0.5008	308.15	0.001016	5.1e-05
0.5008	313.15	0.001147	5.7e-05
0.5008	318.15	0.001299	6.5e-05
0.5008	323.15	0.001457	7.3e-05
0.5008	328.15	0.001665	8.3e-05
0.5008	333.15	0.001856	9.3e-05
0.6002	283.15	0.0004158	2.08e-05
0.6002	288.15	0.0004901	2.45e-05
0.6002	293.15	0.0005605	2.81e-05
0.6002	298.15	0.0006476	3.24e-05
0.6002	303.15	0.0007529	3.77e-05
0.6002	308.15	0.0008343	4.18e-05
0.6002	313.15	0.0009569	4.79e-05
0.6002	318.15	0.0011	5.5e-05
0.6002	323.15	0.001255	6.3e-05
0.6002	328.15	0.001399	7e-05
0.6002	333.15	0.001595	8e-05
0.7001	283.15	0.0003035	1.52e-05
0.7001	288.15	0.0003661	1.83e-05
0.7001	293.15	0.0004236	2.12e-05
0.7001	298.15	0.0004978	2.49e-05
0.7001	303.15	0.0005986	3e-05
0.7001	308.15	0.0006935	3.47e-05
0.7001	313.15	0.0007832	3.92e-05
0.7001	318.15	0.000902	4.52e-05
0.7001	323.15	0.001031	5.2e-05
0.7001	328.15	0.001181	5.9e-05
0.7001	333.15	0.001327	6.6e-05
0.7986	283.15	0.0002208	1.11e-05
0.7986	288.15	0.0002544	1.27e-05
0.7986	293.15	0.0002906	1.46e-05
0.7986	298.15	0.0003655	1.83e-05
0.7986	303.15	0.0004371	2.19e-05
0.7986	308.15	0.0005198	2.6e-05
0.7986	313.15	0.0005966	2.99e-05
0.7986	318.15	0.0007032	3.52e-05
0.7986	323.15	0.0008233	4.12e-05
0.7986	328.15	0.0009492	4.75e-05
0.7986	333.15	0.001086	5.4e-05
0.9006	283.15	0.0001466	7.3e-06
0.9006	288.15	0.0001802	9e-06
0.9006	293.15	0.0002124	1.06e-05
0.9006	298.15	0.0002499	1.25e-05
0.9006	303.15	0.0003132	1.57e-05
0.9006	308.15	0.0003745	1.87e-05
0.9006	313.15	0.0004268	2.14e-05
0.9006	318.15	0.0005088	2.55e-05
0.9006	323.15	0.0005915	2.96e-05
0.9006	328.15	0.0006877	3.44e-05
0.9006	333.15	0.0008045	4.03e-05
1	283.15	9.343e-05	4.68e-06
1	288.15	0.0001119	5.6e-06
1	293.15	0.0001352	6.8e-06
1	298.15	0.0001646	8.2e-06
1	303.15	0.0002022	1.01e-05
1	308.15	0.0002432	1.22e-05
1	313.15	0.0002897	1.45e-05
1	318.15	0.0003483	1.74e-05
1	323.15	0.00041	2.05e-05
1	328.15	0.0004838	2.42e-05
1	333.15	0.000567	2.84e-05

System: D-tryptophan + propan-2-ol + water; phases: Liquid, Crystal
Fixed: Pressure, kPa = 101.2
Property: Mole fraction of D-tryptophan (Liquid); method: Chromatography
Solvent: Mass fraction of propan-2-ol	Temperature, K	Mole fraction of D-tryptophan	uncertainty
0	283.15	0.001457	7.3e-05
0	288.15	0.001592	8e-05
0	293.15	0.001749	8.8e-05
0	298.15	0.001917	9.6e-05
0	303.15	0.002087	0.000104
0	308.15	0.002266	0.000113
0	313.15	0.002454	0.000123
0	318.15	0.002666	0.000133
0	323.15	0.002877	0.000144
0	328.15	0.003091	0.000155
0	333.15	0.003324	0.000166
0.101	283.15	0.001062	5.3e-05
0.101	288.15	0.00117	5.9e-05
0.101	293.15	0.001295	6.5e-05
0.101	298.15	0.001427	7.1e-05
0.101	303.15	0.00156	7.8e-05
0.101	308.15	0.001703	8.5e-05
0.101	313.15	0.001855	9.3e-05
0.101	318.15	0.002022	0.000101
0.101	323.15	0.002191	0.00011
0.101	328.15	0.002362	0.000118
0.101	333.15	0.002551	0.000128
0.1986	283.15	0.000739	3.7e-05
0.1986	288.15	0.000832	4.16e-05
0.1986	293.15	0.000946	4.74e-05
0.1986	298.15	0.001042	5.2e-05
0.1986	303.15	0.001165	5.8e-05
0.1986	308.15	0.001302	6.5e-05
0.1986	313.15	0.001431	7.2e-05
0.1986	318.15	0.001571	7.9e-05
0.1986	323.15	0.001736	8.7e-05
0.1986	328.15	0.001877	9.4e-05
0.1986	333.15	0.002052	0.000103
0.3001	283.15	0.00062	3.1e-05
0.3001	288.15	0.0006917	3.46e-05
0.3001	293.15	0.0007812	3.91e-05
0.3001	298.15	0.0008784	4.4e-05
0.3001	303.15	0.0009747	4.88e-05
0.3001	308.15	0.00109	5.5e-05
0.3001	313.15	0.001191	6e-05
0.3001	318.15	0.001321	6.6e-05
0.3001	323.15	0.001439	7.2e-05
0.3001	328.15	0.001587	7.9e-05
0.3001	333.15	0.001787	8.9e-05
0.4011	283.15	0.0005021	2.51e-05
0.4011	288.15	0.0005561	2.78e-05
0.4011	293.15	0.0006289	3.15e-05
0.4011	298.15	0.000733	3.67e-05
0.4011	303.15	0.0008126	4.07e-05
0.4011	308.15	0.0009158	4.58e-05
0.4011	313.15	0.0009983	5e-05
0.4011	318.15	0.001101	5.5e-05
0.4011	323.15	0.001233	6.2e-05
0.4011	328.15	0.001348	6.7e-05
0.4011	333.15	0.001513	7.6e-05
0.4999	283.15	0.0004127	2.07e-05
0.4999	288.15	0.0004697	2.35e-05
0.4999	293.15	0.0005227	2.62e-05
0.4999	298.15	0.0005964	2.99e-05
0.4999	303.15	0.0006711	3.36e-05
0.4999	308.15	0.0007478	3.74e-05
0.4999	313.15	0.0008283	4.15e-05
0.4999	318.15	0.000903	4.52e-05
0.4999	323.15	0.0009846	4.93e-05
0.4999	328.15	0.00109	5.5e-05
0.4999	333.15	0.001205	6e-05
0.5996	283.15	0.0003247	1.63e-05
0.5996	288.15	0.0003702	1.85e-05
0.5996	293.15	0.0004214	2.11e-05
0.5996	298.15	0.0004747	2.38e-05
0.5996	303.15	0.0005277	2.64e-05
0.5996	308.15	0.0005881	2.94e-05
0.5996	313.15	0.0006542	3.27e-05
0.5996	318.15	0.0007212	3.61e-05
0.5996	323.15	0.0007932	3.97e-05
0.5996	328.15	0.0008672	4.34e-05
0.5996	333.15	0.0009507	4.76e-05
0.7003	283.15	0.0002271	1.14e-05
0.7003	288.15	0.0002613	1.31e-05
0.7003	293.15	0.0002997	1.5e-05
0.7003	298.15	0.0003397	1.7e-05
0.7003	303.15	0.0003796	1.9e-05
0.7003	308.15	0.0004255	2.13e-05
0.7003	313.15	0.0004763	2.38e-05
0.7003	318.15	0.0005271	2.64e-05
0.7003	323.15	0.0005824	2.92e-05
0.7003	328.15	0.0006395	3.2e-05
0.7003	333.15	0.0007044	3.53e-05
0.8013	283.15	0.0001271	6.4e-06
0.8013	288.15	0.0001481	7.4e-06
0.8013	293.15	0.0001718	8.6e-06
0.8013	298.15	0.0001967	9.8e-06
0.8013	303.15	0.0002217	1.11e-05
0.8013	308.15	0.0002509	1.26e-05
0.8013	313.15	0.0002835	1.42e-05
0.8013	318.15	0.000316	1.58e-05
0.8013	323.15	0.0003518	1.76e-05
0.8013	328.15	0.0003892	1.95e-05
0.8013	333.15	0.0004318	2.16e-05
0.9003	283.15	5.236e-05	2.62e-06
0.9003	288.15	6.216e-05	3.11e-06
0.9003	293.15	7.331e-05	3.67e-06
0.9003	298.15	8.519e-05	4.26e-06
0.9003	303.15	9.732e-05	4.87e-06
0.9003	308.15	0.0001117	5.6e-06
0.9003	313.15	0.0001279	6.4e-06
0.9003	318.15	0.0001442	7.2e-06
0.9003	323.15	0.0001625	8.1e-06
0.9003	328.15	0.0001819	9.1e-06
0.9003	333.15	0.0002041	1.02e-05
1	283.15	1.288e-05	6.5e-07
1	288.15	1.571e-05	7.9e-07
1	293.15	1.9e-05	9.5e-07
1	298.15	2.26e-05	1.13e-06
1	303.15	2.638e-05	1.32e-06
1	308.15	3.094e-05	1.55e-06
1	313.15	3.621e-05	1.81e-06
1	318.15	4.16e-05	2.08e-06
1	323.15	4.777e-05	2.39e-06
1	328.15	5.444e-05	2.73e-06
1	333.15	6.222e-05	3.11e-06

System: D-tryptophan + dimethylformamide + water; phases: Liquid, Crystal
Fixed: Pressure, kPa = 101.2
Property: Mole fraction of D-tryptophan (Liquid); method: Chromatography
Solvent: Mass fraction of dimethylformamide	Temperature, K	Mole fraction of D-tryptophan	uncertainty
0	283.15	0.001457	7.3e-05
0	288.15	0.001592	8e-05
0	293.15	0.001749	8.8e-05
0	298.15	0.001917	9.6e-05
0	303.15	0.002087	0.000104
0	308.15	0.002266	0.000113
0	313.15	0.002454	0.000123
0	318.15	0.002666	0.000133
0	323.15	0.002877	0.000144
0	328.15	0.003091	0.000155
0	333.15	0.003324	0.000166
0.1012	283.15	0.001887	9.4e-05
0.1012	288.15	0.002062	0.000103
0.1012	293.15	0.002237	0.000112
0.1012	298.15	0.002402	0.00012
0.1012	303.15	0.002621	0.000131
0.1012	308.15	0.00284	0.000142
0.1012	313.15	0.003059	0.000153
0.1012	318.15	0.003322	0.000166
0.1012	323.15	0.003611	0.000181
0.1012	328.15	0.003891	0.000195
0.1012	333.15	0.004211	0.000211
0.2012	283.15	0.002368	0.000119
0.2012	288.15	0.002544	0.000127
0.2012	293.15	0.002762	0.000138
0.2012	298.15	0.002971	0.000149
0.2012	303.15	0.00319	0.00016
0.2012	308.15	0.003497	0.000175
0.2012	313.15	0.00376	0.000188
0.2012	318.15	0.00411	0.000206
0.2012	323.15	0.0044	0.00022
0.2012	328.15	0.004723	0.000236
0.2012	333.15	0.005087	0.000255
0.2982	283.15	0.002894	0.000145
0.2982	288.15	0.003069	0.000154
0.2982	293.15	0.003332	0.000167
0.2982	298.15	0.003585	0.000179
0.2982	303.15	0.003847	0.000193
0.2982	308.15	0.004198	0.00021
0.2982	313.15	0.004504	0.000225
0.2982	318.15	0.004855	0.000243
0.2982	323.15	0.005188	0.00026
0.2982	328.15	0.005555	0.000278
0.2982	333.15	0.005919	0.000296
0.399	283.15	0.003419	0.000171
0.399	288.15	0.003638	0.000182
0.399	293.15	0.003945	0.000197
0.399	298.15	0.004198	0.00021
0.399	303.15	0.004548	0.000228
0.399	308.15	0.004898	0.000245
0.399	313.15	0.005249	0.000263
0.399	318.15	0.005599	0.00028
0.399	323.15	0.005976	0.000299
0.399	328.15	0.006387	0.00032
0.399	333.15	0.006751	0.000338
0.4998	283.15	0.003989	0.0002
0.4998	288.15	0.004252	0.000213
0.4998	293.15	0.004558	0.000228
0.4998	298.15	0.004855	0.000243
0.4998	303.15	0.005205	0.000261
0.4998	308.15	0.005555	0.000278
0.4998	313.15	0.005906	0.000296
0.4998	318.15	0.0063	0.000315
0.4998	323.15	0.006677	0.000334
0.4998	328.15	0.007132	0.000357
0.4998	333.15	0.00754	0.000377
0.6015	283.15	0.004646	0.000233
0.6015	288.15	0.004821	0.000241
0.6015	293.15	0.005215	0.000261
0.6015	298.15	0.005512	0.000276
0.6015	303.15	0.005862	0.000293
0.6015	308.15	0.006212	0.000311
0.6015	313.15	0.006606	0.000331
0.6015	318.15	0.007088	0.000355
0.6015	323.15	0.007465	0.000374
0.6015	328.15	0.007789	0.00039
0.6015	333.15	0.00824	0.000412
0.6958	283.15	0.005181	0.000259
0.6958	288.15	0.005444	0.000272
0.6958	293.15	0.005838	0.000292
0.6958	298.15	0.006175	0.000309
0.6958	303.15	0.006569	0.000329
0.6958	308.15	0.006964	0.000349
0.6958	313.15	0.007307	0.000366
0.6958	318.15	0.007752	0.000388
0.6958	323.15	0.008143	0.000408
0.6958	328.15	0.00854	0.000427
0.6958	333.15	0.009012	0.000451
0.7982	283.15	0.005838	0.000292
0.7982	288.15	0.006101	0.000305
0.7982	293.15	0.006495	0.000325
0.7982	298.15	0.006788	0.00034
0.7982	303.15	0.00727	0.000364
0.7982	308.15	0.007664	0.000384
0.7982	313.15	0.008008	0.000401
0.7982	318.15	0.008453	0.000423
0.7982	323.15	0.008843	0.000443
0.7982	328.15	0.009285	0.000465
0.7982	333.15	0.009756	0.000488
0.8958	283.15	0.006408	0.000321
0.8958	288.15	0.006714	0.000336
0.8958	293.15	0.007108	0.000356
0.8958	298.15	0.007489	0.000375
0.8958	303.15	0.007883	0.000395
0.8958	308.15	0.008321	0.000416
0.8958	313.15	0.008665	0.000434
0.8958	318.15	0.009109	0.000456
0.8958	323.15	0.009544	0.000478
0.8958	328.15	0.009942	0.000498
0.8958	333.15	0.01046	0.00052
1	283.15	0.007142	0.000357
1	288.15	0.007486	0.000375
1	293.15	0.007934	0.000397
1	298.15	0.008339	0.000417
1	303.15	0.008719	0.000436
1	308.15	0.00912	0.000456
1	313.15	0.009544	0.000478
1	318.15	0.009996	0.0005
1	323.15	0.0104	0.00052
1	328.15	0.01083	0.00054
1	333.15	0.01131	0.00057

System: D-tryptophan + water; phases: Liquid, Crystal
Fixed: Pressure, kPa = 101.2
Property: Mole fraction of D-tryptophan (Liquid); method: Chromatography
Temperature, K	Mole fraction of D-tryptophan	uncertainty
283.15	0.001457	7.3e-05
288.15	0.001592	8e-05
293.15	0.001749	8.8e-05
298.15	0.001917	9.6e-05
303.15	0.002087	0.000104
308.15	0.002266	0.000113
313.15	0.002454	0.000123
318.15	0.002666	0.000133
323.15	0.002877	0.000144
328.15	0.003091	0.000155
333.15	0.003324	0.000166

System: D-tryptophan + methanol; phases: Liquid, Crystal
Fixed: Pressure, kPa = 101.2
Property: Mole fraction of D-tryptophan (Liquid); method: Chromatography
Temperature, K	Mole fraction of D-tryptophan	uncertainty
283.15	0.0001785	8.9e-06
288.15	0.0002168	1.09e-05
293.15	0.0002606	1.3e-05
298.15	0.0003033	1.52e-05
303.15	0.0003582	1.79e-05
308.15	0.0004212	2.11e-05
313.15	0.0004892	2.45e-05
318.15	0.000575	2.88e-05
323.15	0.0006714	3.36e-05
328.15	0.0007794	3.9e-05
333.15	0.0008937	4.47e-05

System: D-tryptophan + ethanol; phases: Liquid, Crystal
Fixed: Pressure, kPa = 101.2
Property: Mole fraction of D-tryptophan (Liquid); method: Chromatography
Temperature, K	Mole fraction of D-tryptophan	uncertainty
283.15	9.343e-05	4.68e-06
288.15	0.0001119	5.6e-06
293.15	0.0001352	6.8e-06
298.15	0.0001646	8.2e-06
303.15	0.0002022	1.01e-05
308.15	0.0002432	1.22e-05
313.15	0.0002897	1.45e-05
318.15	0.0003483	1.74e-05
323.15	0.00041	2.05e-05
328.15	0.0004838	2.42e-05
333.15	0.000567	2.84e-05

System: D-tryptophan + propan-2-ol; phases: Liquid, Crystal
Fixed: Pressure, kPa = 101.2
Property: Mole fraction of D-tryptophan (Liquid); method: Chromatography
Temperature, K	Mole fraction of D-tryptophan	uncertainty
283.15	1.288e-05	6.5e-07
288.15	1.571e-05	7.9e-07
293.15	1.9e-05	9.5e-07
298.15	2.26e-05	1.13e-06
303.15	2.638e-05	1.32e-06
308.15	3.094e-05	1.55e-06
313.15	3.621e-05	1.81e-06
318.15	4.16e-05	2.08e-06
323.15	4.777e-05	2.39e-06
328.15	5.444e-05	2.73e-06
333.15	6.222e-05	3.11e-06

System: D-tryptophan + dimethylformamide; phases: Liquid, Crystal
Fixed: Pressure, kPa = 101.2
Property: Mole fraction of D-tryptophan (Liquid); method: Chromatography
Temperature, K	Mole fraction of D-tryptophan	uncertainty
283.15	0.007142	0.000357
288.15	0.007486	0.000375
293.15	0.007934	0.000397
298.15	0.008339	0.000417
303.15	0.008719	0.000436
308.15	0.00912	0.000456
313.15	0.009544	0.000478
318.15	0.009996	0.0005
323.15	0.0104	0.00052
328.15	0.01083	0.00054
333.15	0.01131	0.00057
