Measured thermophysical data. Separation of benzene from alkanes using 1-ethyl-3-methylpyridinium ethylsulfate ionic liquid at several temperatures and atmospheric pressure: Effect of the size of the aliphatic hydrocarbons
Source: J. Chem. Thermodyn., 2010, 10.1016/j.jct.2009.07.017
Compound 1: octane, C8H18, InChI=1S/C8H18/c1-3-5-7-8-6-4-2/h3-8H2,1-2H3, purity 99.5%
Compound 2: nonane, C9H20, InChI=1S/C9H20/c1-3-5-7-9-8-6-4-2/h3-9H2,1-2H3, purity 99%
Compound 3: benzene, C6H6, InChI=1S/C6H6/c1-2-4-6-5-3-1/h1-6H, purity 99.8%
Compound 4: 1-ethyl-3-methylpyridinium ethylsulfate, C10H17NO4S, InChI=1S/C8H12N.C2H6O4S/c1-3-9-6-4-5-8(2)7-9;1-2-6-7(3,4)5/h4-7H,3H2,1-2H3;2H2,1H3,(H,3,4,5)/q+1;/p-1

System: 1-ethyl-3-methylpyridinium ethylsulfate; phases: Liquid
Property: Refractive index (Na D-line) (Liquid); method: Standard Abbe refractometry
Temperature, K	Pressure, kPa	Refractive index (Na D-line)	uncertainty
298.15	101.325	1.50591	0.00037

System: 1-ethyl-3-methylpyridinium ethylsulfate; phases: Liquid
Property: Mass density, kg/m3 (Liquid); method: Vibrating tube method
Temperature, K	Pressure, kPa	Mass density, kg/m3	uncertainty
298.15	101.325	1219.61	0.42

System: benzene + octane; phases: Liquid
Fixed: Pressure, kPa = 101.3
Property: Mass density, kg/m3 (Liquid); method: Vibrating tube method
Temperature, K	Mole fraction of octane	Mass density, kg/m3	uncertainty
283.15	0	889.51	0.1
283.15	0.1024	855.9	0.13
283.15	0.2013	828.82	0.13
283.15	0.3006	806.11	0.13
283.15	0.4234	782.24	0.14
283.15	0.5001	769.31	0.14
283.15	0.5985	754.84	0.15
283.15	0.6982	741.81	0.16
283.15	0.7972	730.25	0.16
283.15	0.9031	719.42	0.17
283.15	1	710.5	0.17
298.15	0	873.57	0.1
298.15	0.1024	840.84	0.13
298.15	0.2013	814.43	0.13
298.15	0.3006	792.21	0.13
298.15	0.4234	768.91	0.14
298.15	0.5001	756.54	0.15
298.15	0.5985	742.05	0.15
298.15	0.6982	729.34	0.16
298.15	0.7972	718.02	0.17
298.15	0.9031	707.31	0.17
298.15	1	698.6	0.18

System: benzene + nonane; phases: Liquid
Fixed: Pressure, kPa = 101.3
Property: Mass density, kg/m3 (Liquid); method: Vibrating tube method
Temperature, K	Mole fraction of nonane	Mass density, kg/m3	uncertainty
283.15	0	889.51	0.1
283.15	0.0982	856.81	0.13
283.15	0.1996	829.82	0.13
283.15	0.304	807.64	0.14
283.15	0.4001	790.32	0.15
283.15	0.497	775.74	0.17
283.15	0.5995	762.31	0.18
283.15	0.6989	751.53	0.2
283.15	0.7959	741.95	0.21
283.15	0.8928	733.72	0.23
283.15	1	725.51	0.24
298.15	0	873.57	0.1
298.15	0.0982	841.94	0.13
298.15	0.1996	815.82	0.13
298.15	0.304	794.17	0.14
298.15	0.4001	777.31	0.16
298.15	0.497	763.05	0.17
298.15	0.5995	750.12	0.18
298.15	0.6989	739.44	0.2
298.15	0.7959	730.03	0.21
298.15	0.8928	721.91	0.23
298.15	1	713.99	0.25

System: benzene + octane + 1-ethyl-3-methylpyridinium ethylsulfate; phases: Liquid mixture 1, Liquid mixture 2
Fixed: Pressure, kPa = 101.3
Property: Mole fraction of benzene (Liquid mixture 1); method: Titration method
Temperature, K	Mole fraction of octane	Mole fraction of benzene	uncertainty
283.15	0	0.552	0.014
283.15	0.002	0.291	0.009
283.15	0.003	0.24	0.007
283.15	0.004	0.194	0.006
283.15	0.006	0.147	0.005
283.15	0.007	0	
283.15	0.003	0.347	0.011
283.15	0.007	0.096	0.003
283.15	0.003	0.387	0.012
283.15	0.003	0.44	0.014
298.15	0	0.591	0.013
298.15	0.003	0.238	0.007
298.15	0.004	0.431	0.013
298.15	0.006	0.103	0.004
298.15	0.007	0	
298.15	0.003	0.385	0.012

System: benzene + octane + 1-ethyl-3-methylpyridinium ethylsulfate; phases: Liquid mixture 1, Liquid mixture 2
Fixed: Pressure, kPa = 101.3
Property: Mole fraction of benzene (Liquid mixture 1); method: Mass Balance
Temperature, K	Mole fraction of octane	Mole fraction of benzene	uncertainty
283.15	0.003	0.288	0.013
283.15	0.006	0.098	0.013
283.15	0.003	0.38	0.019
298.15	0.004	0.293	0.048
298.15	0.005	0.051	0.048
298.15	0.004	0.345	0.059

System: benzene + octane + 1-ethyl-3-methylpyridinium ethylsulfate; phases: Liquid mixture 1, Liquid mixture 2
Property: Mass density, kg/m3 (Liquid mixture 1); method: Vibrating tube method
Temperature, K	Mole fraction of octane	Mole fraction of benzene	Mass density, kg/m3	uncertainty
283.15	0	0.552	1123.91	0.28
283.15	0.002	0.291	1184.81	0.51
283.15	0.003	0.24	1194.25	0.92
283.15	0.003	0.347	1173.61	0.53
283.15	0.003	0.387	1165.4	0.55
283.15	0.003	0.44	1153.16	0.55
283.15	0.004	0.194	1201.58	0.46
283.15	0.006	0.147	1208.93	0.48
283.15	0.007	0	1228.83	0.48
283.15	0.007	0.096	1216.43	0.51
298.15	0	0.591	1104.84	0.27
298.15	0.003	0.238	1183.38	0.54
298.15	0.003	0.385	1154.32	0.51
298.15	0.004	0.431	1143.63	0.38
298.15	0.006	0.103	1204.17	0.49
298.15	0.007	0	1218.15	0.47

System: benzene + octane + 1-ethyl-3-methylpyridinium ethylsulfate; phases: Liquid mixture 1, Liquid mixture 2
Property: Mass density, kg/m3 (Liquid mixture 1); method: Vibrating tube method
Temperature, K	Mole fraction of octane	Mole fraction of benzene	Mass density, kg/m3	uncertainty
283.15	0.003	0.288	1184.47	0.54
283.15	0.003	0.38	1165.83	0.52
283.15	0.006	0.098	1215.93	2.13
298.15	0.004	0.293	1173.08	0.28
298.15	0.004	0.345	1164.01	0.26
298.15	0.005	0.051	1211.71	0.39

System: benzene + octane + 1-ethyl-3-methylpyridinium ethylsulfate; phases: Liquid mixture 1, Liquid mixture 2
Fixed: Pressure, kPa = 101.3
Property: Mole fraction of benzene (Liquid mixture 1); method: Density calibration data
Property: Mole fraction of octane (Liquid mixture 2); method: Density calibration data
Property: Mole fraction of benzene (Liquid mixture 2); method: Density calibration data
Temperature, K	Mole fraction of octane	Mole fraction of benzene	uncertainty	Mole fraction of octane	uncertainty	Mole fraction of benzene	uncertainty
283.15	0.898	0.102	0.02	0.006	0.006	0.08	
283.15	0.833	0.167	0.02	0.006	0.006	0.13	
283.15	0.783	0.217	0.02	0.005	0.005	0.165	
283.15	0.725	0.275	0.02	0.005	0.005	0.204	
283.15	0.627	0.373	0.02	0.004	0.004	0.256	
283.15	0.611	0.389	0.02	0.004	0.004	0.271	
283.15	0.549	0.451	0.02	0.004	0.004	0.303	
283.15	0.426	0.574	0.02	0.003	0.003	0.365	
283.15	0.302	0.698	0.02	0.002	0.002	0.448	
298.15	0.949	0.051	0.02	0.005	0.005	0.043	
298.15	0.838	0.162	0.02	0.005	0.005	0.119	
298.15	0.679	0.321	0.02	0.004	0.004	0.217	
298.15	0.673	0.327	0.02	0.004	0.004	0.221	
298.15	0.609	0.391	0.02	0.004	0.004	0.257	
298.15	0.552	0.448	0.02	0.004	0.004	0.287	
298.15	0.363	0.637	0.02	0.004	0.004	0.381	
298.15	0.302	0.698	0.02	0.004	0.004	0.408	

System: benzene + nonane + 1-ethyl-3-methylpyridinium ethylsulfate; phases: Liquid mixture 1, Liquid mixture 2
Fixed: Pressure, kPa = 101.3
Property: Mole fraction of benzene (Liquid mixture 1); method: Titration method
Temperature, K	Mole fraction of nonane	Mole fraction of benzene	uncertainty
283.15	0	0.552	0.014
283.15	0.002	0.342	0.011
283.15	0.003	0.298	0.009
283.15	0.004	0.099	0.003
283.15	0.005	0.238	0.007
283.15	0.002	0.381	0.012
283.15	0.004	0.147	0.005
283.15	0.002	0.428	0.013
283.15	0.004	0.199	0.006
298.15	0	0.591	0.013
298.15	0.001	0.301	0.009
298.15	0.002	0.447	0.014
298.15	0.004	0	
298.15	0.001	0.348	0.011
298.15	0.004	0.053	0.003
298.15	0.004	0.097	0.003

System: benzene + nonane + 1-ethyl-3-methylpyridinium ethylsulfate; phases: Liquid mixture 1, Liquid mixture 2
Fixed: Pressure, kPa = 101.3
Property: Mole fraction of benzene (Liquid mixture 1); method: Mass Balance
Temperature, K	Mole fraction of nonane	Mole fraction of benzene	uncertainty
283.15	0.002	0.079	0.001
283.15	0.002	0.215	0.001
283.15	0.002	0.433	0.001
298.15	0.003	0.396	0.065
298.15	0.004	0.072	0.065
298.15	0.004	0.21	0.037

System: benzene + nonane + 1-ethyl-3-methylpyridinium ethylsulfate; phases: Liquid mixture 1, Liquid mixture 2
Property: Mass density, kg/m3 (Liquid mixture 1); method: Vibrating tube method
Temperature, K	Mole fraction of nonane	Mole fraction of benzene	Mass density, kg/m3	uncertainty
283.15	0	0.552	1123.91	0.28
283.15	0.002	0.342	1174.43	0.55
283.15	0.002	0.381	1166	0.55
283.15	0.002	0.428	1155.34	0.55
283.15	0.003	0.298	1182.78	0.48
283.15	0.004	0.099	1215.61	0.54
283.15	0.004	0.147	1208.03	0.52
283.15	0.004	0.199	1199.94	0.5
283.15	0.005	0.238	1193.72	0.49
298.15	0	0.591	1104.84	0.27
298.15	0.001	0.301	1172.4	0.49
298.15	0.001	0.348	1162.85	0.48
298.15	0.002	0.447	1140.81	0.38
298.15	0.004	0	1217.62	0.48
298.15	0.004	0.053	1211.41	0.51
298.15	0.004	0.097	1205.73	0.5

System: benzene + nonane + 1-ethyl-3-methylpyridinium ethylsulfate; phases: Liquid mixture 1, Liquid mixture 2
Property: Mass density, kg/m3 (Liquid mixture 1); method: Vibrating tube method
Temperature, K	Mole fraction of nonane	Mole fraction of benzene	Mass density, kg/m3	uncertainty
283.15	0.002	0.079	1218.46	0.38
283.15	0.002	0.215	1197.89	0.31
283.15	0.002	0.433	1154.39	0.21
298.15	0.003	0.396	1152.45	7.01
298.15	0.004	0.072	1208.89	0.37
298.15	0.004	0.21	1187.44	0.3

System: benzene + nonane + 1-ethyl-3-methylpyridinium ethylsulfate; phases: Liquid mixture 1, Liquid mixture 2
Fixed: Pressure, kPa = 101.3
Property: Mole fraction of benzene (Liquid mixture 1); method: Density calibration data
Property: Mole fraction of nonane (Liquid mixture 2); method: Density calibration data
Property: Mole fraction of benzene (Liquid mixture 2); method: Density calibration data
Temperature, K	Mole fraction of nonane	Mole fraction of benzene	uncertainty	Mole fraction of nonane	uncertainty	Mole fraction of benzene	uncertainty
283.15	0.884	0.116	0.02	0.004	0.004	0.081	
283.15	0.828	0.172	0.02	0.004	0.004	0.103	
283.15	0.768	0.232	0.02	0.004	0.004	0.14	
283.15	0.713	0.287	0.02	0.004	0.004	0.18	
283.15	0.656	0.344	0.02	0.004	0.004	0.215	
283.15	0.54	0.46	0.02	0.004	0.004	0.278	
283.15	0.416	0.584	0.02	0.003	0.003	0.345	
283.15	0.285	0.715	0.02	0.002	0.002	0.409	
283.15	0.158	0.842	0.02	0.001	0.001	0.47	
298.15	0.886	0.114	0.02	0.003	0.003	0.054	
298.15	0.827	0.173	0.02	0.004	0.004	0.095	
298.15	0.773	0.227	0.02	0.004	0.004	0.132	
298.15	0.713	0.287	0.02	0.004	0.004	0.17	
298.15	0.646	0.354	0.02	0.004	0.004	0.212	
298.15	0.536	0.464	0.02	0.004	0.004	0.271	
298.15	0.417	0.583	0.02	0.004	0.004	0.332	
298.15	0.284	0.716	0.02	0.003	0.003	0.401	
298.15	0.153	0.847	0.02	0.002	0.002	0.468	
