Measured thermophysical data. Renewable platform chemicals: Evaluation of thermochemical data of alkyl lactates with complementary experimental and computational methods
Source: J. Chem. Thermodyn., 2019, 10.1016/j.jct.2018.07.029
Compound 1: carbon dioxide, CO2, InChI=1S/CO2/c2-1-3
Compound 2: water, H2O, InChI=1S/H2O/h1H2
Compound 3: oxygen, O2, InChI=1S/O2/c1-2
Compound 4: ethyl D-lactate, C5H10O3, InChI=1S/C5H10O3/c1-3-8-5(7)4(2)6/h4,6H,3H2,1-2H3/t4-/m1/s1, purity 97%
Compound 5: DL-ethyl lactate, C5H10O3, InChI=1S/C5H10O3/c1-3-8-5(7)4(2)6/h4,6H,3H2,1-2H3, purity 99%
Compound 6: propyl 2-hydroxypropanoate, C6H12O3, InChI=1S/C6H12O3/c1-3-4-9-6(8)5(2)7/h5,7H,3-4H2,1-2H3, purity 95%
Compound 7: butyl 2-hydroxypropanoate, C7H14O3, InChI=1S/C7H14O3/c1-3-4-5-10-7(9)6(2)8/h6,8H,3-5H2,1-2H3, purity 98%
Compound 8: pentyl 2-hydroxypropanoate, C8H16O3, InChI=1S/C8H16O3/c1-3-4-5-6-11-8(10)7(2)9/h7,9H,3-6H2,1-2H3, purity 99%
Compound 9: isopropyl (S)-2-hydroxypropionate, C6H12O3, InChI=1S/C6H12O3/c1-4(2)9-6(8)5(3)7/h4-5,7H,1-3H3/t5-/m0/s1, purity 99%
Compound 10: D-tert-butyl lactate, C7H14O3, InChI=1S/C7H14O3/c1-5(8)6(9)10-7(2,3)4/h5,8H,1-4H3/t5-/m1/s1, purity 99%

System: ethyl D-lactate; phases: Liquid, Gas
Property: Vapor or sublimation pressure, kPa (Liquid); method: Transpiration method
Temperature, K	Vapor or sublimation pressure, kPa	uncertainty
274.4	0.0419	0.0028
276.4	0.0495	0.0031
278.2	0.0568	0.0036
280.3	0.0665	0.0042
282.3	0.0765	0.0048
283.2	0.0834	0.0053
285.4	0.0995	0.0063
286.2	0.1081	0.0069
289.2	0.1358	0.0086
291.3	0.1583	0.0099
293.2	0.1868	0.0118
295.2	0.2114	0.0134
297.3	0.2551	0.0162
298.4	0.2762	0.0173
298.4	0.2718	0.017
299.2	0.2886	0.0183
301.3	0.3466	0.0219
303.2	0.3937	0.0249
305.2	0.4603	0.0288
306.2	0.479	0.03
307.3	0.5225	0.033
308.2	0.5581	0.0352
308.3	0.5768	0.0362
310.3	0.6462	0.0405
311.3	0.7011	0.0436
313.2	0.7624	0.0474
314.2	0.8127	0.0513
316.3	0.9517	0.0595
318.2	1.0475	0.065

System: DL-ethyl lactate; phases: Liquid, Gas
Property: Vapor or sublimation pressure, kPa (Liquid); method: Transpiration method
Temperature, K	Vapor or sublimation pressure, kPa	uncertainty
274.6	0.0432	0.0028
276.6	0.0506	0.0033
279.6	0.0659	0.0042
281.4	0.0743	0.0048
283.6	0.0901	0.0057
284.6	0.095	0.006
285.8	0.1032	0.0067
287.6	0.1266	0.0081
287.6	0.1265	0.0081
288.4	0.1302	0.0082
290.2	0.1492	0.0094
290.3	0.1456	0.0093
291.1	0.162	0.0104
293.5	0.1923	0.0121
296.4	0.2396	0.0151
298.5	0.2828	0.0181
301.5	0.3655	0.023
302.5	0.3751	0.0237
304.5	0.4491	0.0284
305.3	0.4793	0.0299
307.2	0.5251	0.0328
308.2	0.5766	0.036
310.1	0.6332	0.0394
310.1	0.6327	0.0394
311.3	0.6892	0.0433

System: propyl 2-hydroxypropanoate; phases: Liquid, Gas
Property: Vapor or sublimation pressure, kPa (Liquid); method: Transpiration method
Temperature, K	Vapor or sublimation pressure, kPa	uncertainty
273.5	0.0152	0.001
274.6	0.0171	0.001
276.2	0.019	0.0012
277.7	0.0222	0.0015
279.9	0.0274	0.0018
282.1	0.0332	0.002
283.3	0.0359	0.0023
286.2	0.0489	0.0031
286.2	0.048	0.0031
287.8	0.055	0.0035
290.3	0.0664	0.0043
292.3	0.0793	0.005
294.3	0.09	0.0058
298.2	0.1194	0.0076
299.2	0.1376	0.0089
301.2	0.1565	0.0098
304.2	0.1915	0.0121
308.1	0.256	0.0161
312.1	0.3377	0.0211
313.6	0.3614	0.0228
316	0.4342	0.0272
317	0.4541	0.0287
320	0.5661	0.0354
323	0.6633	0.0412

System: propyl 2-hydroxypropanoate; phases: Liquid, Gas
Property: Vapor or sublimation pressure, kPa (Liquid); method: Transpiration method
Temperature, K	Vapor or sublimation pressure, kPa	uncertainty
299.2	0.1392	0.0088
301.4	0.1625	0.0103
303.3	0.1866	0.0117
305.3	0.2068	0.0132
307.9	0.268	0.0169
310.3	0.3053	0.0192
313.4	0.3713	0.0232
315.4	0.4264	0.0267
317.4	0.4789	0.03
319.4	0.5467	0.0342
321.4	0.6113	0.0383
323.4	0.7043	0.0445
325.4	0.8342	0.0524
327.3	0.9235	0.0575
330.3	1.0792	0.0669

System: butyl 2-hydroxypropanoate; phases: Liquid, Gas
Property: Vapor or sublimation pressure, kPa (Liquid); method: Transpiration method
Temperature, K	Vapor or sublimation pressure, kPa	uncertainty
273.6	0.00576	0.00045
274.1	0.00627	0.00047
276.6	0.00823	0.00056
277.2	0.00868	0.00058
279.2	0.00996	0.00066
280.7	0.0112	0.0008
281.8	0.0133	0.001
283.2	0.0141	0.001
285.4	0.0178	0.0012
287.3	0.0215	0.0015
290.3	0.0272	0.0018
291.8	0.0324	0.0021
293.3	0.0375	0.0025
296.2	0.0442	0.0028
299.2	0.0601	0.0038
302.2	0.0712	0.0046
305.1	0.0952	0.006
308.1	0.1148	0.0088
308.5	0.1253	0.0094
311	0.1483	0.0092
313	0.1639	0.0104
314.5	0.1944	0.0124
317	0.2271	0.0142
318.9	0.2521	0.016
322.9	0.3526	0.0221

System: pentyl 2-hydroxypropanoate; phases: Liquid, Gas
Property: Vapor or sublimation pressure, kPa (Liquid); method: Transpiration method
Temperature, K	Vapor or sublimation pressure, kPa	uncertainty
303.4	0.026	0.0017
305.3	0.0299	0.002
307.3	0.038	0.0023
309.3	0.0421	0.0027
311.4	0.0517	0.0033
313.3	0.0565	0.0036
315.4	0.0714	0.0036
317.4	0.0833	0.0053
319.4	0.0946	0.006
321.4	0.1069	0.0068
323.4	0.1269	0.008
325.4	0.1418	0.009
327.4	0.1665	0.0105
329.4	0.1855	0.0118
331.3	0.2174	0.0138
333.3	0.2476	0.0155
335.3	0.2794	0.0175
337.3	0.3145	0.0197
339.3	0.3534	0.0223
341.3	0.4164	0.0262
343.2	0.4684	0.0292

System: isopropyl (S)-2-hydroxypropionate; phases: Liquid, Gas
Property: Vapor or sublimation pressure, kPa (Liquid); method: Transpiration method
Temperature, K	Vapor or sublimation pressure, kPa	uncertainty
283.4	0.0862	0.0056
288.3	0.1239	0.0078
293.3	0.1774	0.0112
298.3	0.2401	0.015
303.2	0.3239	0.0202
306.8	0.4055	0.0253

System: D-tert-butyl lactate; phases: Crystal, Liquid, Air at 1 atmosphere
Property: Normal melting temperature, K (Crystal); method: DTA
Normal melting temperature, K	uncertainty
313.1	0.5

System: D-tert-butyl lactate; phases: Crystal, Liquid, Air at 1 atmosphere
Property: Molar enthalpy of transition or fusion, kJ/mol (Crystal); method: DSC
Molar enthalpy of transition or fusion, kJ/mol	uncertainty
23.5	1.1

System: D-tert-butyl lactate; phases: Liquid, Gas
Property: Vapor or sublimation pressure, kPa (Liquid); method: Transpiration method
Temperature, K	Vapor or sublimation pressure, kPa	uncertainty
315	0.844	0.053
318	1.016	0.063
323	1.316	0.082
327.9	1.727	0.107
327.9	1.746	0.109
332.9	2.202	0.136

System: D-tert-butyl lactate; phases: Crystal, Gas
Property: Vapor or sublimation pressure, kPa (Crystal); method: Transpiration method
Temperature, K	Vapor or sublimation pressure, kPa	uncertainty
280.2	0.0275	0.0019
285.4	0.0471	0.0031
286.4	0.0517	0.0033
292.3	0.0948	0.0063
293.3	0.106	0.007
296.2	0.1425	0.0093
299.2	0.1999	0.0128
302.2	0.2577	0.0168
308.1	0.4456	0.0283
311.2	0.5789	0.0365

Reaction: -1 ethyl D-lactate + 5 carbon dioxide + 5 water + -6 oxygen
Property: Specific internal energy of reaction at constant volume, J/g
-22941.2
