Measured thermophysical data. Vapour pressures of isobutane at T = (310 to 407) K
Source: J. Chem. Thermodyn., 2004, 10.1016/j.jct.2004.06.012
Compound 1: 2-methylpropane, C4H10, InChI=1S/C4H10/c1-4(2)3/h4H,1-3H3

System: 2-methylpropane; phases: Liquid, Gas
Property: Vapor or sublimation pressure, kPa (Liquid); method: Closed cell (Static) method
Temperature, K	Vapor or sublimation pressure, kPa	uncertainty
310	488.4	1.3
310	488.6	1.3
310	488.2	1.3
310.92	500.9	1.3
313.14	530.9	1.3
320	633.2	1.4
325	716.5	1.5
330	807.5	1.6
335	906.6	1.7
340	1014.6	1.8
344.241	1114	1.9
350	1258.5	2.1
355	1395.4	2.3
360	1542.8	2.5
363.127	1641.6	2.6
369.235	1846.5	2.9
370	1872.5	2.9
375	2056	3.2
380	2252.3	3.5
380	2252.3	3.5
385	2462.5	3.8
390	2687.8	4.2
394.23	2891.4	4.5
398.119	3088.7	4.8
400	3187.9	5
405	3466.2	5.4
406	3524.7	5.5
407	3584.3	5.6
