Measured thermophysical data. Physical properties of aqueous mixtures of (choline chloride + glucose) deep eutectic solvents
Source: J. Chem. Thermodyn., 2019, 10.1016/j.jct.2018.09.029
Compound 1: D-glucose, C6H12O6, InChI=1S/C6H12O6/c7-1-3(9)5(11)6(12)4(10)2-8/h1,3-6,8-12H,2H2/t3-,4+,5+,6+/m0/s1, purity 99.5%
Compound 2: choline chloride, C5H14ClNO, InChI=1S/C5H14NO.ClH/c1-6(2,3)4-5-7;/h7H,4-5H2,1-3H3;1H/q+1;/p-1, purity 99%
Compound 3: water, H2O, InChI=1S/H2O/h1H2, purity 99.9%

System: water; phases: Liquid, Gas
Property: Boiling temperature at pressure P, K (Liquid); method: Ebulliometric method (Recirculating still)
Pressure, kPa	Boiling temperature at pressure P, K	uncertainty
82.6	367.56	0.63

System: D-glucose + choline chloride + water; phases: Liquid
Fixed: Pressure, kPa = 82
Fixed: Solvent: Mole fraction of choline chloride = 0.667
Property: Mass density, kg/m3 (Liquid); method: Pycnometric method
Temperature, K	Mole fraction of water	Mass density, kg/m3	uncertainty
293.15	0.9871	1019	6.5
298.15	0.9871	1017.5	6.5
301.15	0.9871	1016.7	6.5
303.15	0.9871	1016.1	6.5
305.15	0.9871	1015.4	6.5
308.15	0.9871	1014.4	6.4
309.15	0.9871	1014.1	6.4
311.15	0.9871	1013.3	6.4
313.15	0.9871	1012.4	6.4
315.15	0.9871	1011.6	6.4
317.15	0.9871	1010.7	6.4
319.15	0.9871	1009.9	6.4
321.15	0.9871	1009	6.4
323.15	0.9871	1008.1	6.4
293.15	0.9715	1040.3	6.3
298.15	0.9715	1039	6.2
301.15	0.9715	1038	6.2
303.15	0.9715	1037.4	6.2
305.15	0.9715	1036.6	6.2
308.15	0.9715	1035.4	6.2
309.15	0.9715	1035	6.2
311.15	0.9715	1034.3	6.2
313.15	0.9715	1033.5	6.2
315.15	0.9715	1032.6	6.2
317.15	0.9715	1031.6	6.2
319.15	0.9715	1030.8	6.2
321.15	0.9715	1029.9	6.2
323.15	0.9715	1028.8	6.2
293.15	0.952	1063.1	5.9
298.15	0.952	1061.3	5.9
301.15	0.952	1060.6	5.9
303.15	0.952	1059.8	5.9
305.15	0.952	1058.7	5.9
308.15	0.952	1057.5	5.9
309.15	0.952	1057.5	5.9
311.15	0.952	1056.5	5.9
313.15	0.952	1055.4	5.9
315.15	0.952	1054.7	5.9
317.15	0.952	1053.6	5.9
319.15	0.952	1052.8	5.9
321.15	0.952	1051.8	5.9
323.15	0.952	1050.7	5.9
293.15	0.9273	1087.4	5.7
298.15	0.9273	1086.3	5.7
301.15	0.9273	1084.8	5.7
303.15	0.9273	1083.3	5.7
305.15	0.9273	1083.2	5.7
308.15	0.9273	1081.7	5.7
309.15	0.9273	1081.1	5.7
311.15	0.9273	1080	5.7
313.15	0.9273	1079	5.7
315.15	0.9273	1078.3	5.7
317.15	0.9273	1077.1	5.7
319.15	0.9273	1076.3	5.7
321.15	0.9273	1075	5.7
323.15	0.9273	1073.9	5.7
293.15	0.9123	1099.6	5.5
298.15	0.9123	1097.6	5.4
301.15	0.9123	1096.1	5.5
303.15	0.9123	1095.9	5.5
305.15	0.9123	1094.8	5.5
308.15	0.9123	1093.9	5.5
309.15	0.9123	1092.9	5.5
311.15	0.9123	1091.9	5.5
313.15	0.9123	1090.8	5.5
315.15	0.9123	1090	5.5
317.15	0.9123	1089.6	5.5
319.15	0.9123	1088.1	5.5
321.15	0.9123	1086.8	5.5
323.15	0.9123	1086.3	5.5
293.15	0.8948	1111.3	5.4
298.15	0.8948	1109.4	5.4
301.15	0.8948	1108.4	5.4
303.15	0.8948	1108.2	5.4
305.15	0.8948	1107.2	5.4
308.15	0.8948	1105.8	5.4
309.15	0.8948	1104.8	5.4
311.15	0.8948	1104	5.4
313.15	0.8948	1102.9	5.4
315.15	0.8948	1102.1	5.4
317.15	0.8948	1101.3	5.4
319.15	0.8948	1100.3	5.4
321.15	0.8948	1099.1	5.4
323.15	0.8948	1098.1	5.4

System: D-glucose + choline chloride + water; phases: Liquid
Fixed: Pressure, kPa = 82
Fixed: Solvent: Mole fraction of choline chloride = 0.667
Property: Kinematic viscosity, m2/s (Liquid); method: Capillary tube (Ostwald; Ubbelohde) method
Temperature, K	Mole fraction of water	Kinematic viscosity, m2/s	uncertainty
293.15	0.9871	1.1596e-06	6.63e-08
298.15	0.9871	1.0273e-06	5.81e-08
301.15	0.9871	9.597e-07	5.54e-08
303.15	0.9871	9.275e-07	5.41e-08
305.15	0.9871	8.835e-07	5.22e-08
308.15	0.9871	8.329e-07	5.06e-08
309.15	0.9871	8.201e-07	5.02e-08
311.15	0.9871	7.899e-07	4.99e-08
313.15	0.9871	7.596e-07	4.98e-08
315.15	0.9871	7.311e-07	4.88e-08
317.15	0.9871	7.097e-07	4.84e-08
319.15	0.9871	6.839e-07	4.7e-08
321.15	0.9871	6.673e-07	4.64e-08
323.15	0.9871	6.457e-07	4.63e-08
293.15	0.9715	1.4291e-06	6.55e-08
298.15	0.9715	1.2453e-06	5.97e-08
301.15	0.9715	1.1588e-06	5.71e-08
303.15	0.9715	1.1083e-06	5.54e-08
305.15	0.9715	1.0574e-06	5.47e-08
308.15	0.9715	9.917e-07	5.29e-08
309.15	0.9715	9.732e-07	5.23e-08
311.15	0.9715	9.406e-07	5.14e-08
313.15	0.9715	9.103e-07	5.03e-08
315.15	0.9715	8.758e-07	5e-08
317.15	0.9715	8.47e-07	4.91e-08
319.15	0.9715	8.121e-07	4.81e-08
321.15	0.9715	7.845e-07	4.72e-08
323.15	0.9715	7.637e-07	4.66e-08
293.15	0.952	1.7454e-06	9.1e-08
298.15	0.952	1.5241e-06	8.28e-08
301.15	0.952	1.419e-06	7.69e-08
303.15	0.952	1.3576e-06	7.49e-08
305.15	0.952	1.3031e-06	7.24e-08
308.15	0.952	1.2229e-06	6.8e-08
309.15	0.952	1.2009e-06	6.68e-08
311.15	0.952	1.1562e-06	6.5e-08
313.15	0.952	1.105e-06	6.24e-08
315.15	0.952	1.0704e-06	6.09e-08
317.15	0.952	1.0304e-06	5.95e-08
319.15	0.952	9.858e-07	5.78e-08
321.15	0.952	9.5e-07	5.66e-08
323.15	0.952	9.16e-07	5.49e-08
293.15	0.9273	2.5691e-06	1.128e-07
298.15	0.9273	2.2694e-06	9.97e-08
301.15	0.9273	2.0886e-06	9.33e-08
303.15	0.9273	2.0051e-06	8.85e-08
305.15	0.9273	1.9102e-06	8.43e-08
308.15	0.9273	1.7766e-06	7.91e-08
309.15	0.9273	1.7276e-06	7.69e-08
311.15	0.9273	1.6655e-06	7.36e-08
313.15	0.9273	1.5888e-06	7.1e-08
315.15	0.9273	1.5271e-06	6.85e-08
317.15	0.9273	1.4694e-06	6.67e-08
319.15	0.9273	1.402e-06	6.42e-08
321.15	0.9273	1.3509e-06	6.29e-08
323.15	0.9273	1.3024e-06	6.11e-08
293.15	0.8948	3.701e-06	1.175e-07
298.15	0.8948	3.2142e-06	1.033e-07
301.15	0.8948	2.9806e-06	9.6e-08
303.15	0.8948	2.8253e-06	9.03e-08
305.15	0.8948	2.6791e-06	8.59e-08
308.15	0.8948	2.4821e-06	8.03e-08
309.15	0.8948	2.4212e-06	7.89e-08
311.15	0.8948	2.3043e-06	7.46e-08
313.15	0.8948	2.1934e-06	7.2e-08
315.15	0.8948	2.1034e-06	6.91e-08
317.15	0.8948	2.0185e-06	6.67e-08
319.15	0.8948	1.9185e-06	6.53e-08
321.15	0.8948	1.8531e-06	6.28e-08
323.15	0.8948	1.7685e-06	6.1e-08

System: D-glucose + choline chloride + water; phases: Liquid, Gas
Fixed: Pressure, kPa = 82.6
Fixed: Solvent: Mole fraction of choline chloride = 0.667
Property: Boiling temperature at pressure P, K (Liquid); method: Ebulliometric method (Recirculating still)
Mole fraction of water	Boiling temperature at pressure P, K	uncertainty
1	367.56	0.63
0.9872	368.3	0.66
0.9806	368.65	0.65
0.9711	369.17	0.65
0.9613	369.7	0.65
0.9512	370.27	0.65
0.939	370.84	0.65
0.9274	371.4	0.65
0.9122	372.01	0.64
0.8915	372.64	0.64
