Measured thermophysical data. Surface tension and refractive index of pure and water-saturated  tetradecyltrihexylphosphonium-based ionic liquids
Source: J. Chem. Thermodyn., 2013, 10.1016/j.jct.2012.09.004
Compound 1: trihexyl(tetradecyl)phosphonium bis[(trifluoromethyl)sulfonyl]imide, C34H68F6NO4PS2, InChI=1S/C32H68P.C2F6NO4S2/c1-5-9-13-17-18-19-20-21-22-23-24-28-32-33(29-25-14-10-6-2,30-26-15-11-7-3)31-27-16-12-8-4;3-1(4,5)14(10,11)9-15(12,13)2(6,7)8/h5-32H2,1-4H3;/q+1;-1, purity 98%
Compound 2: tetradecyltrihexylphosphonium bromide, C32H68BrP, InChI=1S/C32H68P.BrH/c1-5-9-13-17-18-19-20-21-22-23-24-28-32-33(29-25-14-10-6-2,30-26-15-11-7-3)31-27-16-12-8-4;/h5-32H2,1-4H3;1H/q+1;/p-1, purity 97%
Compound 3: trihexyl(tetradecyl)phosphonium chloride, C32H68ClP, InChI=1S/C32H68P.ClH/c1-5-9-13-17-18-19-20-21-22-23-24-28-32-33(29-25-14-10-6-2,30-26-15-11-7-3)31-27-16-12-8-4;/h5-32H2,1-4H3;1H/q+1;/p-1, purity 94%
Compound 4: trihexyltetradecylphosphonium decanoate, C42H87O2P, InChI=1S/C32H68P.C10H20O2/c1-5-9-13-17-18-19-20-21-22-23-24-28-32-33(29-25-14-10-6-2,30-26-15-11-7-3)31-27-16-12-8-4;1-2-3-4-5-6-7-8-9-10(11)12/h5-32H2,1-4H3;2-9H2,1H3,(H,11,12)/q+1;/p-1, purity 97%
Compound 5: trihexyltetradecylphosphonium methanesulfonate, C33H71O3PS, InChI=1S/C32H68P.CH4O3S/c1-5-9-13-17-18-19-20-21-22-23-24-28-32-33(29-25-14-10-6-2,30-26-15-11-7-3)31-27-16-12-8-4;1-5(2,3)4/h5-32H2,1-4H3;1H3,(H,2,3,4)/q+1;/p-1, purity 98.5%
Compound 6: tetradecyl(trihexyl)phosphonium dicyanamide, C34H68N3P, InChI=1S/C32H68P.C2N3/c1-5-9-13-17-18-19-20-21-22-23-24-28-32-33(29-25-14-10-6-2,30-26-15-11-7-3)31-27-16-12-8-4;3-1-5-2-4/h5-32H2,1-4H3;/q+1;-1, purity 97%
Compound 7: trihexyltetradecylphosphonium bis(2,4,4-trimethylpentyl)phosphinate, C48H102O2P2, InChI=1S/C32H68P.C16H35O2P/c1-5-9-13-17-18-19-20-21-22-23-24-28-32-33(29-25-14-10-6-2,30-26-15-11-7-3)31-27-16-12-8-4;1-13(9-15(3,4)5)11-19(17,18)12-14(2)10-16(6,7)8/h5-32H2,1-4H3;13-14H,9-12H2,1-8H3,(H,17,18)/q+1;/p-1, purity 93%
Compound 8: water, H2O, InChI=1S/H2O/h1H2

System: trihexyl(tetradecyl)phosphonium bis[(trifluoromethyl)sulfonyl]imide; phases: Liquid
Fixed: Pressure, kPa = 101.325
Property: Refractive index (Na D-line) (Liquid); method: Standard Abbe refractometry
Temperature, K	Refractive index (Na D-line)	uncertainty
283.15	1.45436	0.00037
288.15	1.45279	0.00037
293.15	1.4512	0.00037
298.15	1.4496	0.00037
303.15	1.44797	0.00037
308.15	1.44637	0.00037
313.15	1.44476	0.00037
318.15	1.44317	0.00037
323.15	1.44158	0.00037
328.15	1.43948	0.00037
333.15	1.43836	0.00037
338.15	1.43681	0.00037
343.15	1.43524	0.00037
348.15	1.4337	0.00037
353.15	1.43213	0.00037

System: trihexyl(tetradecyl)phosphonium bis[(trifluoromethyl)sulfonyl]imide; phases: Liquid, Gas
Property: Surface tension liquid-gas, N/m (Liquid); method: Pendant drop shape
Temperature, K	Surface tension liquid-gas, N/m	uncertainty
298.2	0.0301	0.0003
307.9	0.0295	0.0003
317.9	0.0287	0.0004
327.9	0.0281	0.0003
337.8	0.0275	0.0004
343.2	0.0273	0.0004

System: tetradecyltrihexylphosphonium bromide; phases: Liquid
Fixed: Pressure, kPa = 101.325
Property: Refractive index (Na D-line) (Liquid); method: Standard Abbe refractometry
Temperature, K	Refractive index (Na D-line)	uncertainty
283.15	1.49456	0.00037
288.15	1.49295	0.00037
293.15	1.49139	0.00037
298.15	1.48977	0.00037
303.15	1.48814	0.00037
308.15	1.48654	0.00037
313.15	1.4849	0.00037
318.15	1.4833	0.00037
323.15	1.48167	0.00037
328.15	1.47999	0.00037
333.15	1.47834	0.00037
338.15	1.47677	0.00037
343.15	1.47511	0.00037
348.15	1.47346	0.00037
353.15	1.47189	0.00037

System: tetradecyltrihexylphosphonium bromide; phases: Liquid, Gas
Property: Surface tension liquid-gas, N/m (Liquid); method: Pendant drop shape
Temperature, K	Surface tension liquid-gas, N/m	uncertainty
298.2	0.0309	0.0004
308.5	0.0302	0.0004
318	0.0296	0.0003
328.8	0.0287	0.0004
338.6	0.0281	0.0003
343.4	0.0279	0.0004

System: trihexyl(tetradecyl)phosphonium chloride; phases: Liquid
Fixed: Pressure, kPa = 101.325
Property: Refractive index (Na D-line) (Liquid); method: Standard Abbe refractometry
Temperature, K	Refractive index (Na D-line)	uncertainty
283.15	1.48794	0.00037
288.15	1.48635	0.00037
293.15	1.48471	0.00037
298.15	1.48309	0.00037
303.15	1.48142	0.00037
308.15	1.47973	0.00037
313.15	1.47796	0.00037
318.15	1.4757	0.00037
323.15	1.47387	0.00037
328.15	1.4721	0.00037
333.15	1.47029	0.00037
338.15	1.46854	0.00037
343.15	1.46677	0.00037
348.15	1.46504	0.00037
353.15	1.4634	0.00037

System: trihexyl(tetradecyl)phosphonium chloride; phases: Liquid, Gas
Property: Surface tension liquid-gas, N/m (Liquid); method: Pendant drop shape
Temperature, K	Surface tension liquid-gas, N/m	uncertainty
298.6	0.0306	0.0004
308	0.0301	0.0003
318	0.0293	0.0003
328.1	0.0286	0.0003
338.3	0.0278	0.0003
343.3	0.0275	0.0004

System: trihexyltetradecylphosphonium decanoate; phases: Liquid
Fixed: Pressure, kPa = 101.325
Property: Refractive index (Na D-line) (Liquid); method: Standard Abbe refractometry
Temperature, K	Refractive index (Na D-line)	uncertainty
283.15	1.47754	0.00037
288.15	1.47586	0.00037
293.15	1.47413	0.00037
298.15	1.47242	0.00037
303.15	1.47069	0.00037
308.15	1.46896	0.00037
313.15	1.46722	0.00037
318.15	1.46548	0.00037
323.15	1.46341	0.00037
328.15	1.46165	0.00037
333.15	1.46002	0.00037
338.15	1.45828	0.00037
343.15	1.4566	0.00037
348.15	1.45497	0.00037
353.15	1.45327	0.00037

System: trihexyltetradecylphosphonium decanoate; phases: Liquid, Gas
Property: Surface tension liquid-gas, N/m (Liquid); method: Pendant drop shape
Temperature, K	Surface tension liquid-gas, N/m	uncertainty
298	0.029	0.0004
307.9	0.0285	0.0004
318	0.0278	0.0004
328.5	0.0272	0.0004
338	0.0266	0.0004
343	0.0262	0.0004

System: trihexyltetradecylphosphonium methanesulfonate; phases: Liquid
Fixed: Pressure, kPa = 101.325
Property: Refractive index (Na D-line) (Liquid); method: Standard Abbe refractometry
Temperature, K	Refractive index (Na D-line)	uncertainty
283.15	1.47813	0.00037
288.15	1.47668	0.00037
293.15	1.47507	0.00037
298.15	1.47346	0.00037
303.15	1.47186	0.00037
308.15	1.47025	0.00037
313.15	1.46865	0.00037
318.15	1.46702	0.00037
323.15	1.4654	0.00037
328.15	1.4638	0.00037
333.15	1.46217	0.00037
338.15	1.46053	0.00037
343.15	1.45895	0.00037
348.15	1.45727	0.00037
353.15	1.45572	0.00037

System: trihexyltetradecylphosphonium methanesulfonate; phases: Liquid, Gas
Property: Surface tension liquid-gas, N/m (Liquid); method: Pendant drop shape
Temperature, K	Surface tension liquid-gas, N/m	uncertainty
298.3	0.031	0.0004
308	0.0303	0.0004
318.5	0.0296	0.0003
328.8	0.0288	0.0003
338.7	0.0282	0.0004
343.5	0.0279	0.0004

System: tetradecyl(trihexyl)phosphonium dicyanamide; phases: Liquid
Fixed: Pressure, kPa = 101.325
Property: Refractive index (Na D-line) (Liquid); method: Standard Abbe refractometry
Temperature, K	Refractive index (Na D-line)	uncertainty
283.15	1.48861	0.00037
288.15	1.48706	0.00037
293.15	1.48545	0.00037
298.15	1.48387	0.00037
303.15	1.48228	0.00037
308.15	1.48064	0.00037
313.15	1.47902	0.00037
318.15	1.47744	0.00037
323.15	1.47585	0.00037
328.15	1.47421	0.00037
333.15	1.47252	0.00037
338.15	1.4709	0.00037
343.15	1.46926	0.00037
348.15	1.46767	0.00037
353.15	1.46599	0.00037

System: tetradecyl(trihexyl)phosphonium dicyanamide; phases: Liquid, Gas
Property: Surface tension liquid-gas, N/m (Liquid); method: Pendant drop shape
Temperature, K	Surface tension liquid-gas, N/m	uncertainty
298.4	0.0323	0.0004
308	0.0316	0.0004
318	0.0309	0.0004
328.4	0.0303	0.0004
339.2	0.0297	0.0004
343.4	0.0294	0.0003

System: trihexyltetradecylphosphonium bis(2,4,4-trimethylpentyl)phosphinate; phases: Liquid
Fixed: Pressure, kPa = 101.325
Property: Refractive index (Na D-line) (Liquid); method: Standard Abbe refractometry
Temperature, K	Refractive index (Na D-line)	uncertainty
283.15	1.47702	0.00037
288.15	1.47538	0.00037
293.15	1.47374	0.00037
298.15	1.47209	0.00037
303.15	1.47044	0.00037
308.15	1.46879	0.00037
313.15	1.46712	0.00037
318.15	1.46546	0.00037
323.15	1.46383	0.00037
328.15	1.46216	0.00037
333.15	1.46056	0.00037
338.15	1.45893	0.00037
343.15	1.45716	0.00037
348.15	1.45553	0.00037
353.15	1.45387	0.00037

System: trihexyltetradecylphosphonium bis(2,4,4-trimethylpentyl)phosphinate; phases: Liquid, Gas
Property: Surface tension liquid-gas, N/m (Liquid); method: Pendant drop shape
Temperature, K	Surface tension liquid-gas, N/m	uncertainty
297.9	0.0282	0.0004
307.9	0.0276	0.0003
317.7	0.0269	0.0003
328.1	0.0262	0.0004
338	0.0255	0.0004
342.9	0.025	0.0003

System: water + trihexyl(tetradecyl)phosphonium bis[(trifluoromethyl)sulfonyl]imide; phases: Liquid
Fixed: Pressure, kPa = 101
Fixed: Mass fraction of water = 0.0023
Property: Refractive index (Na D-line) (Liquid); method: Standard Abbe refractometry
Temperature, K	Refractive index (Na D-line)	uncertainty
298.15	1.44921	0.00037
303.15	1.44765	0.00037
308.15	1.44606	0.00037
313.15	1.44449	0.00037
318.15	1.44293	0.00037
323.15	1.44136	0.00037
328.15	1.4398	0.00037
333.15	1.43822	0.00037
338.15	1.43669	0.00037
343.15	1.43515	0.00037
348.15	1.43362	0.00037
353.15	1.43207	0.00037

System: water + trihexyl(tetradecyl)phosphonium bis[(trifluoromethyl)sulfonyl]imide; phases: Liquid, Gas
Fixed: Mass fraction of water = 0.0023
Property: Surface tension liquid-gas, N/m (Liquid); method: Pendant drop shape
Temperature, K	Surface tension liquid-gas, N/m	uncertainty
298.1	0.03005	0.00035
307.8	0.02933	0.00034
318	0.0286	0.0003
328	0.02791	0.00033
338.6	0.02717	0.00032
343.3	0.02688	0.00032

System: water + tetradecyltrihexylphosphonium bromide; phases: Liquid
Fixed: Pressure, kPa = 101
Fixed: Mass fraction of water = 0.065
Property: Refractive index (Na D-line) (Liquid); method: Standard Abbe refractometry
Temperature, K	Refractive index (Na D-line)	uncertainty
298.15	1.4782	0.00037
303.15	1.47646	0.00037
308.15	1.47465	0.00037
313.15	1.47289	0.00037
318.15	1.47115	0.00037
323.15	1.46939	0.00037
328.15	1.46765	0.00037
333.15	1.46587	0.00037
338.15	1.46414	0.00037
343.15	1.46244	0.00037
348.15	1.46078	0.00037
353.15	1.45926	0.00037

System: water + tetradecyltrihexylphosphonium bromide; phases: Liquid, Gas
Fixed: Mass fraction of water = 0.0665
Property: Surface tension liquid-gas, N/m (Liquid); method: Pendant drop shape
Temperature, K	Surface tension liquid-gas, N/m	uncertainty
298.1	0.0314	0.0004
307.9	0.03035	0.00035
318.1	0.02964	0.00034
328.1	0.02895	0.00033
338.9	0.0282	0.00033
344.2	0.02791	0.00033

System: water + trihexyl(tetradecyl)phosphonium chloride; phases: Liquid
Fixed: Pressure, kPa = 101
Fixed: Mass fraction of water = 0.1334
Property: Refractive index (Na D-line) (Liquid); method: Standard Abbe refractometry
Temperature, K	Refractive index (Na D-line)	uncertainty
298.15	1.46283	0.00037
303.15	1.46133	0.00037
308.15	1.45953	0.00037
313.15	1.45768	0.00037
318.15	1.45595	0.00037
323.15	1.45425	0.00037
328.15	1.45266	0.00037
333.15	1.45124	0.00037
338.15	1.44998	0.00037
343.15	1.44892	0.00037
348.15	1.44798	0.00037
353.15	1.4471	0.00037

System: water + trihexyl(tetradecyl)phosphonium chloride; phases: Liquid, Gas
Fixed: Mass fraction of water = 0.1334
Property: Surface tension liquid-gas, N/m (Liquid); method: Pendant drop shape
Temperature, K	Surface tension liquid-gas, N/m	uncertainty
298.6	0.03081	0.00035
308	0.03001	0.00034
318.3	0.0292	0.00034
328.7	0.02845	0.00033
342.7	0.02743	0.00032

System: water + trihexyltetradecylphosphonium decanoate; phases: Liquid
Fixed: Pressure, kPa = 101
Fixed: Mass fraction of water = 0.1526
Property: Refractive index (Na D-line) (Liquid); method: Standard Abbe refractometry
Temperature, K	Refractive index (Na D-line)	uncertainty
298.15	1.45342	0.00037
303.15	1.45194	0.00037
308.15	1.45041	0.00037
313.15	1.44877	0.00037
318.15	1.44699	0.00037
323.15	1.44498	0.00037
328.15	1.4431	0.00037
333.15	1.44129	0.00037
338.15	1.43948	0.00037
343.15	1.43763	0.00037
348.15	1.43579	0.00037
353.15	1.43397	0.00037

System: water + trihexyltetradecylphosphonium decanoate; phases: Liquid, Gas
Fixed: Mass fraction of water = 0.1526
Property: Surface tension liquid-gas, N/m (Liquid); method: Pendant drop shape
Temperature, K	Surface tension liquid-gas, N/m	uncertainty
298.4	0.0291	0.0004
307.7	0.0285	0.0004
318	0.0277	0.0004
328.9	0.0268	0.0004
339.2	0.026	0.0004
344.3	0.0256	0.0004

System: water + trihexyltetradecylphosphonium methanesulfonate; phases: Liquid
Fixed: Pressure, kPa = 101
Fixed: Mass fraction of water = 0.1181
Property: Refractive index (Na D-line) (Liquid); method: Standard Abbe refractometry
Temperature, K	Refractive index (Na D-line)	uncertainty
298.15	1.45621	0.00037
303.15	1.4546	0.00037
308.15	1.45281	0.00037
313.15	1.45111	0.00037
318.15	1.44947	0.00037
323.15	1.44795	0.00037
328.15	1.44655	0.00037
333.15	1.44532	0.00037
338.15	1.44427	0.00037
343.15	1.44334	0.00037
348.15	1.44253	0.00037
353.15	1.44181	0.00037

System: water + trihexyltetradecylphosphonium methanesulfonate; phases: Liquid, Gas
Fixed: Mass fraction of water = 0.1181
Property: Surface tension liquid-gas, N/m (Liquid); method: Pendant drop shape
Temperature, K	Surface tension liquid-gas, N/m	uncertainty
298.6	0.03115	0.00036
307.8	0.03045	0.00035
318	0.02981	0.00034
323.8	0.02909	0.00034
338.2	0.02829	0.00033
342.7	0.02805	0.00033

System: water + tetradecyl(trihexyl)phosphonium dicyanamide; phases: Liquid
Fixed: Pressure, kPa = 101
Fixed: Mass fraction of water = 0.0309
Property: Refractive index (Na D-line) (Liquid); method: Standard Abbe refractometry
Temperature, K	Refractive index (Na D-line)	uncertainty
298.15	1.47866	0.00037
303.15	1.47702	0.00037
308.15	1.47535	0.00037
313.15	1.47367	0.00037
318.15	1.47207	0.00037
323.15	1.47049	0.00037
328.15	1.46893	0.00037
333.15	1.46739	0.00037
338.15	1.46586	0.00037
343.15	1.46442	0.00037
348.15	1.46302	0.00037
353.15	1.46163	0.00037

System: water + tetradecyl(trihexyl)phosphonium dicyanamide; phases: Liquid, Gas
Fixed: Mass fraction of water = 0.0309
Property: Surface tension liquid-gas, N/m (Liquid); method: Pendant drop shape
Temperature, K	Surface tension liquid-gas, N/m	uncertainty
298.2	0.03256	0.00037
307.8	0.0318	0.0004
318	0.0312	0.0004
328	0.0305	0.0004
338.8	0.0299	0.0004
342.8	0.0295	0.0003

System: water + trihexyltetradecylphosphonium bis(2,4,4-trimethylpentyl)phosphinate; phases: Liquid
Fixed: Pressure, kPa = 101
Fixed: Mass fraction of water = 0.158
Property: Refractive index (Na D-line) (Liquid); method: Standard Abbe refractometry
Temperature, K	Refractive index (Na D-line)	uncertainty
298.15	1.45864	0.00037
303.15	1.45697	0.00037
308.15	1.45534	0.00037
313.15	1.45363	0.00037
318.15	1.45192	0.00037
323.15	1.45019	0.00037
328.15	1.44849	0.00037
333.15	1.44683	0.00037
338.15	1.44523	0.00037
343.15	1.44374	0.00037
348.15	1.4424	0.00037
353.15	1.44126	0.00037

System: water + trihexyltetradecylphosphonium bis(2,4,4-trimethylpentyl)phosphinate; phases: Liquid, Gas
Fixed: Mass fraction of water = 0.158
Property: Surface tension liquid-gas, N/m (Liquid); method: Pendant drop shape
Temperature, K	Surface tension liquid-gas, N/m	uncertainty
297.9	0.02832	0.00033
307.9	0.0277	0.00032
317.9	0.02724	0.00032
328.8	0.02641	0.00031
339	0.0256	0.0003
343.4	0.02534	0.0003
