Measured thermophysical data. Contribution to study of the thermodynamics properties of mixtures containing 2-methoxy-2-methylpropane, alkanol, alkane
Source: J. Chem. Thermodyn., 2014, 10.1016/j.jct.2014.01.002
Compound 1: hexane, C6H14, InChI=1S/C6H14/c1-3-5-6-4-2/h3-6H2,1-2H3, purity 99.5%
Compound 2: cyclohexane, C6H12, InChI=1S/C6H12/c1-2-4-6-5-3-1/h1-6H2, purity 99.5%
Compound 3: pentan-1-ol, C5H12O, InChI=1S/C5H12O/c1-2-3-4-5-6/h6H,2-5H2,1H3, purity 99%
Compound 4: 2-methoxy-2-methylpropane, C5H12O, InChI=1S/C5H12O/c1-5(2,3)6-4/h1-4H3, purity 99.8%

System: hexane + cyclohexane; phases: Liquid
Fixed: Pressure, kPa = 99
Fixed: Temperature, K = 298.15
Property: Excess molar enthalpy (molar enthalpy of mixing), kJ/mol (Liquid); method: Calvet calorimetry
Mole fraction of cyclohexane	Excess molar enthalpy (molar enthalpy of mixing), kJ/mol	uncertainty
0.0524	0.034	0.001
0.1136	0.071	0.002
0.1603	0.097	0.002
0.2014	0.118	0.003
0.2485	0.14	0.003
0.3022	0.164	0.004
0.3647	0.185	0.004
0.4379	0.205	0.005
0.4819	0.213	0.005
0.5388	0.22	0.005
0.5621	0.221	0.005
0.6166	0.22	0.005
0.6576	0.216	0.005
0.7177	0.202	0.005
0.7702	0.182	0.004
0.8085	0.164	0.004
0.8623	0.133	0.003
0.9276	0.08	0.002

System: pentan-1-ol + hexane; phases: Liquid
Fixed: Pressure, kPa = 99
Fixed: Temperature, K = 298.15
Property: Excess molar enthalpy (molar enthalpy of mixing), kJ/mol (Liquid); method: Calvet calorimetry
Mole fraction of pentan-1-ol	Excess molar enthalpy (molar enthalpy of mixing), kJ/mol	uncertainty
0.0241	0.287	0.006
0.0501	0.355	0.008
0.1085	0.431	0.009
0.1504	0.47	0.01
0.1912	0.506	0.011
0.2341	0.53	0.012
0.2905	0.538	0.012
0.3433	0.543	0.012
0.3934	0.536	0.012
0.4452	0.523	0.011
0.5771	0.411	0.009
0.5794	0.412	0.009
0.6531	0.334	0.007
0.6979	0.281	0.006
0.7463	0.224	0.005
0.803	0.154	0.004
0.0573	0.371	0.008
0.9021	0.063	0.002

System: pentan-1-ol + hexane + 2-methoxy-2-methylpropane; phases: Liquid
Fixed: Pressure, kPa = 99
Fixed: Temperature, K = 298.15
Property: Molar enthalpy of mixing with solvent, kJ/mol of hexane (Liquid); method: Calvet calorimetry
Mole fraction of 2-methoxy-2-methylpropane	Mole fraction of pentan-1-ol	Molar enthalpy of mixing with solvent, kJ/mol of hexane	uncertainty
0.2369	0.7162	0.052	0.002
0.2286	0.6911	0.093	0.002
0.2188	0.6613	0.158	0.004
0.2084	0.6298	0.216	0.005
0.1983	0.5995	0.256	0.006
0.182	0.5501	0.334	0.007
0.1718	0.5192	0.375	0.008
0.1625	0.4912	0.401	0.009
0.1492	0.4509	0.456	0.01
0.1342	0.4058	0.487	0.011
0.1223	0.3698	0.489	0.011
0.1097	0.3316	0.505	0.011
0.0942	0.2848	0.513	0.011
0.084	0.254	0.509	0.011
0.0597	0.1804	0.488	0.011
0.0419	0.1265	0.451	0.01
0.016	0.0485	0.335	0.007
0.482	0.4751	0.069	0.002
0.4689	0.4621	0.113	0.003
0.4399	0.4336	0.188	0.004
0.4138	0.4079	0.255	0.006
0.3965	0.3909	0.298	0.007
0.3764	0.371	0.332	0.007
0.3487	0.3437	0.383	0.008
0.3383	0.3334	0.399	0.009
0.3052	0.3009	0.445	0.01
0.2824	0.2784	0.46	0.01
0.244	0.2405	0.488	0.011
0.2231	0.22	0.493	0.011
0.1923	0.1895	0.486	0.011
0.1686	0.1661	0.497	0.011
0.1407	0.1387	0.479	0.01
0.1011	0.0996	0.448	0.01
0.0794	0.0782	0.402	0.009
0.0569	0.0561	0.348	0.008
0.0273	0.027	0.269	0.006
0.7221	0.241	0.064	0.002
0.6843	0.2283	0.146	0.003
0.6493	0.2166	0.2	0.005
0.629	0.2099	0.243	0.005
0.5936	0.1981	0.293	0.007
0.5584	0.1863	0.347	0.008
0.5216	0.174	0.383	0.008
0.4916	0.164	0.418	0.009
0.4432	0.1479	0.455	0.01
0.3956	0.132	0.481	0.01
0.3532	0.1178	0.481	0.01
0.2717	0.0906	0.48	0.01
0.2483	0.0828	0.478	0.01
0.2016	0.0673	0.446	0.01
0.1584	0.0528	0.414	0.009
0.0816	0.0272	0.304	0.007
0.0409	0.0136	0.217	0.005
