Measured thermophysical data. The molar surface quasi-Gibbs energy and its application to the binary mixtures of 1-(2-methoxyethyl)-3-methylimidazolium bis[(trifluoromethyl)sulfonyl]imide [MOEMIM][NTf2] with methanol and ethanol
Source: J. Chem. Thermodyn., 2019, 10.1016/j.jct.2019.06.005
Compound 1: 1-(2-methoxyethyl)-3-methyl-1H-imidazolium bis((trifluoromethyl)sulfonyl)amide, C9H13F6N3O5S2, InChI=1S/C7H13N2O.C2F6NO4S2/c1-8-3-4-9(7-8)5-6-10-2;3-1(4,5)14(10,11)9-15(12,13)2(6,7)8/h3-4,7H,5-6H2,1-2H3;/q+1;-1
Compound 2: methanol, CH4O, InChI=1S/CH4O/c1-2/h2H,1H3, purity 99.9%
Compound 3: ethanol, C2H6O, InChI=1S/C2H6O/c1-2-3/h3H,2H2,1H3, purity 99.8%

System: 1-(2-methoxyethyl)-3-methyl-1H-imidazolium bis((trifluoromethyl)sulfonyl)amide; phases: Liquid
Fixed: Pressure, kPa = 100
Property: Mass density, kg/m3 (Liquid); method: Vibrating tube method
Temperature, K	Mass density, kg/m3	uncertainty
288.15	1515.304	9.416
293.15	1510.155	9.384
298.15	1505.027	9.352
303.15	1499.917	9.32
308.15	1494.831	9.288
313.15	1489.767	9.256
318.15	1484.724	9.225

System: 1-(2-methoxyethyl)-3-methyl-1H-imidazolium bis((trifluoromethyl)sulfonyl)amide; phases: Liquid, Air at 1 atmosphere
Property: Surface tension liquid-gas, N/m (Liquid); method: Maximal bubble pressure
Temperature, K	Surface tension liquid-gas, N/m	uncertainty
288.15	0.0414	0.0042
293.15	0.0412	0.0041
298.15	0.041	0.0041
303.15	0.0407	0.0041
308.15	0.0405	0.0041
313.15	0.0403	0.004
318.15	0.0401	0.004

System: methanol; phases: Liquid
Fixed: Pressure, kPa = 100
Property: Mass density, kg/m3 (Liquid); method: Vibrating tube method
Temperature, K	Mass density, kg/m3	uncertainty
288.15	796.037	4.937
293.15	791.352	4.908
298.15	786.643	4.878
303.15	781.913	4.849
308.15	777.16	4.82
313.15	772.38	4.79
318.15	767.567	4.76

System: methanol; phases: Liquid, Air at 1 atmosphere
Property: Surface tension liquid-gas, N/m (Liquid); method: Maximal bubble pressure
Temperature, K	Surface tension liquid-gas, N/m	uncertainty
288.15	0.0244	0.0024
293.15	0.0238	0.0024
298.15	0.0229	0.0023
303.15	0.0223	0.0022
308.15	0.0218	0.0022
313.15	0.0211	0.0021
318.15	0.0205	0.0021

System: 1-(2-methoxyethyl)-3-methyl-1H-imidazolium bis((trifluoromethyl)sulfonyl)amide + methanol; phases: Liquid
Fixed: Pressure, kPa = 100
Property: Mass density, kg/m3 (Liquid); method: Vibrating tube method
Temperature, K	Mole fraction of 1-(2-methoxyethyl)-3-methyl-1H-imidazolium bis((trifluoromethyl)sulfonyl)amide	Mass density, kg/m3	uncertainty
288.15	0	796.037	4.937
288.15	0.1004	1121.114	7.091
288.15	0.2003	1263.184	7.954
288.15	0.2814	1330.606	8.321
288.15	0.4004	1394.194	8.714
288.15	0.4987	1429.078	8.912
288.15	0.5949	1454.46	9.041
288.15	0.704	1476.429	9.168
288.15	0.8042	1492.311	9.266
288.15	0.9003	1504.711	9.345
288.15	1	1515.304	9.416
293.15	0	791.352	4.908
293.15	0.1004	1116	7.056
293.15	0.2003	1257.975	7.923
293.15	0.2814	1325.377	8.288
293.15	0.4004	1388.965	8.683
293.15	0.4987	1423.856	8.88
293.15	0.5949	1449.253	9.009
293.15	0.704	1471.244	9.136
293.15	0.8042	1487.145	9.234
293.15	0.9003	1499.558	9.313
293.15	1	1510.155	9.384
298.15	0	786.643	4.878
298.15	0.1004	1110.876	7.025
298.15	0.2003	1252.761	7.891
298.15	0.2814	1320.145	8.255
298.15	0.4004	1383.738	8.651
298.15	0.4987	1418.643	8.848
298.15	0.5949	1444.059	8.976
298.15	0.704	1466.075	9.104
298.15	0.8042	1481.991	9.202
298.15	0.9003	1494.422	9.281
298.15	1	1505.027	9.352
303.15	0	781.913	4.849
303.15	0.1004	1105.741	6.993
303.15	0.2003	1247.544	7.859
303.15	0.2814	1314.916	8.223
303.15	0.4004	1378.522	8.618
303.15	0.4987	1413.443	8.815
303.15	0.5949	1438.88	8.944
303.15	0.704	1460.918	9.072
303.15	0.8042	1476.854	9.17
303.15	0.9003	1489.298	9.249
303.15	1	1499.917	9.32
308.15	0	777.16	4.82
308.15	0.1004	1100.598	6.962
308.15	0.2003	1242.328	7.827
308.15	0.2814	1309.692	8.191
308.15	0.4004	1373.314	8.586
308.15	0.4987	1408.258	8.783
308.15	0.5949	1433.719	8.912
308.15	0.704	1455.774	9.04
308.15	0.8042	1471.733	9.138
308.15	0.9003	1484.199	9.218
308.15	1	1494.831	9.288
313.15	0	772.38	4.79
313.15	0.1004	1095.445	6.93
313.15	0.2003	1237.112	7.796
313.15	0.2814	1304.471	8.159
313.15	0.4004	1368.118	8.554
313.15	0.4987	1403.084	8.752
313.15	0.5949	1428.573	8.88
313.15	0.704	1450.64	9.008
313.15	0.8042	1466.628	9.106
313.15	0.9003	1479.119	9.186
313.15	1	1489.767	9.256
318.15	0	767.567	4.76
318.15	0.1004	1090.278	6.903
318.15	0.2003	1231.89	7.762
318.15	0.2814	1299.254	8.129
318.15	0.4004	1362.934	8.522
318.15	0.4987	1397.921	8.72
318.15	0.5949	1423.444	8.849
318.15	0.704	1445.466	8.976
318.15	0.8042	1461.523	9.074
318.15	0.9003	1474.056	9.154
318.15	1	1484.724	9.225

System: 1-(2-methoxyethyl)-3-methyl-1H-imidazolium bis((trifluoromethyl)sulfonyl)amide + methanol; phases: Liquid, Air at 1 atmosphere
Property: Surface tension liquid-gas, N/m (Liquid); method: Maximal bubble pressure
Temperature, K	Mole fraction of 1-(2-methoxyethyl)-3-methyl-1H-imidazolium bis((trifluoromethyl)sulfonyl)amide	Surface tension liquid-gas, N/m	uncertainty
288.15	0	0.0244	0.0024
288.15	0.1004	0.0266	0.0027
288.15	0.2003	0.0285	0.0029
288.15	0.2814	0.0296	0.003
288.15	0.4004	0.0315	0.0032
288.15	0.4987	0.0331	0.0033
288.15	0.5949	0.0348	0.0035
288.15	0.704	0.0369	0.0037
288.15	0.8042	0.0386	0.0039
288.15	0.9003	0.0401	0.004
288.15	1	0.0414	0.0042
293.15	0	0.0238	0.0024
293.15	0.1004	0.0262	0.0026
293.15	0.2003	0.0281	0.0028
293.15	0.2814	0.0293	0.0029
293.15	0.4004	0.0311	0.0031
293.15	0.4987	0.0328	0.0033
293.15	0.5949	0.0345	0.0035
293.15	0.704	0.0366	0.0037
293.15	0.8042	0.0383	0.0038
293.15	0.9003	0.0398	0.004
293.15	1	0.0412	0.0041
298.15	0	0.0229	0.0023
298.15	0.1004	0.0257	0.0026
298.15	0.2003	0.0277	0.0028
298.15	0.2814	0.0289	0.0029
298.15	0.4004	0.0308	0.0031
298.15	0.4987	0.0325	0.0033
298.15	0.5949	0.0342	0.0034
298.15	0.704	0.0364	0.0036
298.15	0.8042	0.0381	0.0038
298.15	0.9003	0.0396	0.004
298.15	1	0.041	0.0041
303.15	0	0.0223	0.0022
303.15	0.1004	0.0252	0.0025
303.15	0.2003	0.0273	0.0027
303.15	0.2814	0.0286	0.0029
303.15	0.4004	0.0305	0.0031
303.15	0.4987	0.0322	0.0032
303.15	0.5949	0.034	0.0034
303.15	0.704	0.0361	0.0036
303.15	0.8042	0.0378	0.0038
303.15	0.9003	0.0394	0.004
303.15	1	0.0407	0.0041
308.15	0	0.0218	0.0022
308.15	0.1004	0.0246	0.0025
308.15	0.2003	0.0269	0.0027
308.15	0.2814	0.0282	0.0028
308.15	0.4004	0.0301	0.003
308.15	0.4987	0.0319	0.0032
308.15	0.5949	0.0337	0.0034
308.15	0.704	0.0358	0.0036
308.15	0.8042	0.0376	0.0038
308.15	0.9003	0.0391	0.0039
308.15	1	0.0405	0.0041
313.15	0	0.0211	0.0021
313.15	0.1004	0.0242	0.0024
313.15	0.2003	0.0265	0.0027
313.15	0.2814	0.0278	0.0028
313.15	0.4004	0.0299	0.003
313.15	0.4987	0.0316	0.0032
313.15	0.5949	0.0334	0.0033
313.15	0.704	0.0356	0.0036
313.15	0.8042	0.0374	0.0038
313.15	0.9003	0.0389	0.0039
313.15	1	0.0403	0.004
318.15	0	0.0205	0.0021
318.15	0.1004	0.0238	0.0024
318.15	0.2003	0.0261	0.0026
318.15	0.2814	0.0275	0.0028
318.15	0.4004	0.0296	0.003
318.15	0.4987	0.0314	0.0031
318.15	0.5949	0.0332	0.0033
318.15	0.704	0.0354	0.0035
318.15	0.8042	0.0371	0.0037
318.15	0.9003	0.0387	0.0039
318.15	1	0.0401	0.004

System: 1-(2-methoxyethyl)-3-methyl-1H-imidazolium bis((trifluoromethyl)sulfonyl)amide + ethanol; phases: Liquid
Fixed: Pressure, kPa = 100
Property: Mass density, kg/m3 (Liquid); method: Vibrating tube method
Temperature, K	Mole fraction of 1-(2-methoxyethyl)-3-methyl-1H-imidazolium bis((trifluoromethyl)sulfonyl)amide	Mass density, kg/m3	uncertainty
288.15	0.1003	1055.22	6.652
288.15	0.2	1197.64	7.554
288.15	0.2972	1285.52	8.083
288.15	0.401	1350.449	8.474
288.15	0.5028	1396.831	8.747
288.15	0.5982	1430.261	8.906
288.15	0.6973	1457.78	9.058
288.15	0.8111	1483.205	9.212
288.15	0.8991	1499.414	9.313
288.15	1	1515.304	9.416
293.15	0.1003	1050.42	6.621
293.15	0.2	1192.634	7.523
293.15	0.2972	1280.421	8.051
293.15	0.401	1345.309	8.442
293.15	0.5028	1391.67	8.715
293.15	0.5982	1425.102	8.874
293.15	0.6973	1452.623	9.026
293.15	0.8111	1478.057	9.18
293.15	0.8991	1494.277	9.281
293.15	1	1510.155	9.384
298.15	0.1003	1045.799	6.593
298.15	0.2	1187.808	7.494
298.15	0.2972	1275.512	8.021
298.15	0.401	1340.281	8.411
298.15	0.5028	1386.612	8.684
298.15	0.5982	1420.045	8.842
298.15	0.6973	1447.543	8.995
298.15	0.8111	1472.951	9.148
298.15	0.8991	1489.162	9.249
298.15	1	1505.027	9.352
303.15	0.1003	1040.758	6.562
303.15	0.2	1182.577	7.461
303.15	0.2972	1270.202	7.988
303.15	0.401	1335.017	8.379
303.15	0.5028	1381.366	8.652
303.15	0.5982	1414.807	8.81
303.15	0.6973	1442.345	8.962
303.15	0.8111	1467.801	9.116
303.15	0.8991	1484.031	9.217
303.15	1	1499.917	9.32
308.15	0.1003	1035.901	6.532
308.15	0.2	1177.536	7.43
308.15	0.2972	1265.094	7.957
308.15	0.401	1329.881	8.347
308.15	0.5028	1376.236	8.62
308.15	0.5982	1409.682	8.778
308.15	0.6973	1437.235	8.931
308.15	0.8111	1462.701	9.084
308.15	0.8991	1478.936	9.185
308.15	1	1494.831	9.288
313.15	0.1003	1031.024	6.501
313.15	0.2	1172.488	7.399
313.15	0.2972	1259.987	7.925
313.15	0.401	1324.755	8.316
313.15	0.5028	1371.117	8.589
313.15	0.5982	1404.573	8.746
313.15	0.6973	1432.144	8.899
313.15	0.8111	1457.623	9.052
313.15	0.8991	1473.865	9.154
313.15	1	1489.767	9.256
318.15	0.1003	1026.123	6.473
318.15	0.2	1167.431	7.368
318.15	0.2972	1254.877	7.894
318.15	0.401	1319.636	8.284
318.15	0.5028	1366.012	8.557
318.15	0.5982	1399.482	8.715
318.15	0.6973	1427.068	8.868
318.15	0.8111	1452.562	9.021
318.15	0.8991	1468.813	9.122
318.15	1	1484.724	9.225
288.15	0	793.91	4.92
293.15	0	789.66	4.9
298.15	0	785.73	4.87
303.15	0	781.05	4.84
308.15	0	776.7	4.82
313.15	0	772.31	4.79
318.15	0	767.88	4.76

System: 1-(2-methoxyethyl)-3-methyl-1H-imidazolium bis((trifluoromethyl)sulfonyl)amide + ethanol; phases: Liquid, Air at 1 atmosphere
Property: Surface tension liquid-gas, N/m (Liquid); method: Maximal bubble pressure
Temperature, K	Mole fraction of 1-(2-methoxyethyl)-3-methyl-1H-imidazolium bis((trifluoromethyl)sulfonyl)amide	Surface tension liquid-gas, N/m	uncertainty
288.15	0.1003	0.0248	0.0025
288.15	0.2	0.0259	0.0026
288.15	0.2972	0.0275	0.0028
288.15	0.401	0.0293	0.0029
288.15	0.5028	0.0315	0.0032
288.15	0.5982	0.0338	0.0034
288.15	0.6973	0.0358	0.0036
288.15	0.8111	0.0382	0.0038
288.15	0.8991	0.0397	0.004
288.15	1	0.0414	0.0042
293.15	0.1003	0.0244	0.0024
293.15	0.2	0.0255	0.0026
293.15	0.2972	0.0271	0.0027
293.15	0.401	0.029	0.0029
293.15	0.5028	0.0313	0.0031
293.15	0.5982	0.0335	0.0034
293.15	0.6973	0.0355	0.0036
293.15	0.8111	0.038	0.0038
293.15	0.8991	0.0395	0.004
293.15	1	0.0412	0.0041
298.15	0.1003	0.0239	0.0024
298.15	0.2	0.025	0.0025
298.15	0.2972	0.0268	0.0027
298.15	0.401	0.0287	0.0029
298.15	0.5028	0.031	0.0031
298.15	0.5982	0.0332	0.0033
298.15	0.6973	0.0353	0.0035
298.15	0.8111	0.0377	0.0038
298.15	0.8991	0.0392	0.0039
298.15	1	0.041	0.0041
303.15	0.1003	0.0235	0.0024
303.15	0.2	0.0247	0.0025
303.15	0.2972	0.0265	0.0027
303.15	0.401	0.0284	0.0028
303.15	0.5028	0.0307	0.0031
303.15	0.5982	0.033	0.0033
303.15	0.6973	0.035	0.0035
303.15	0.8111	0.0375	0.0038
303.15	0.8991	0.039	0.0039
303.15	1	0.0407	0.0041
308.15	0.1003	0.0231	0.0023
308.15	0.2	0.0244	0.0024
308.15	0.2972	0.0262	0.0026
308.15	0.401	0.0281	0.0028
308.15	0.5028	0.0304	0.003
308.15	0.5982	0.0327	0.0033
308.15	0.6973	0.0348	0.0035
308.15	0.8111	0.0372	0.0037
308.15	0.8991	0.0388	0.0039
308.15	1	0.0405	0.0041
313.15	0.1003	0.0226	0.0023
313.15	0.2	0.024	0.0024
313.15	0.2972	0.0258	0.0026
313.15	0.401	0.0278	0.0028
313.15	0.5028	0.0301	0.003
313.15	0.5982	0.0325	0.0033
313.15	0.6973	0.0345	0.0035
313.15	0.8111	0.037	0.0037
313.15	0.8991	0.0386	0.0039
313.15	1	0.0403	0.004
318.15	0.1003	0.0223	0.0022
318.15	0.2	0.0237	0.0024
318.15	0.2972	0.0255	0.0026
318.15	0.401	0.0275	0.0028
318.15	0.5028	0.0299	0.003
318.15	0.5982	0.0322	0.0032
318.15	0.6973	0.0343	0.0034
318.15	0.8111	0.0368	0.0037
318.15	0.8991	0.0383	0.0038
318.15	1	0.0401	0.004
288.15	0	0.0233	0.0023
293.15	0	0.0227	0.0023
298.15	0	0.0222	0.0022
303.15	0	0.0216	0.0022
308.15	0	0.0211	0.0021
313.15	0	0.0207	0.0021
318.15	0	0.02	0.002
