Measured thermophysical data. Thermodynamic modeling and experimental speeds of sound, densities, and refractive indexes of (tetralin + n-dodecane)
Source: J. Chem. Thermodyn., 2012, 10.1016/j.jct.2012.05.023
Compound 1: dodecane, C12H26, InChI=1S/C12H26/c1-3-5-7-9-11-12-10-8-6-4-2/h3-12H2,1-2H3, purity 99%
Compound 2: 1,2,3,4-tetrahydronaphthalene, C10H12, InChI=1S/C10H12/c1-2-6-10-8-4-3-7-9(10)5-1/h1-2,5-6H,3-4,7-8H2, purity 99%

System: dodecane; phases: Liquid
Fixed: Pressure, kPa = 101.325
Property: Refractive index (Na D-line) (Liquid); method: Standard Abbe refractometry
Temperature, K	Refractive index (Na D-line)	uncertainty
293.15	1.42218	0.00037
303.15	1.41784	0.00037
313.15	1.41346	0.00037
323.15	1.40914	0.00037
333.15	1.40479	0.00037
343.15	1.40018	0.00037

System: dodecane; phases: Liquid
Fixed: Pressure, kPa = 101.3
Property: Speed of sound, m/s (Liquid); method: Sing-around technique in a fixed-path interferometer
Temperature, K	Speed of sound, m/s	uncertainty
293.15	1297.9	1.2
303.15	1259.5	1.2
313.15	1221.6	1.2
323.15	1184.4	1.2
333.15	1147.8	1.2
343.15	1111.8	1.2

System: dodecane; phases: Liquid
Fixed: Pressure, kPa = 101.3
Property: Mass density, kg/m3 (Liquid); method: Vibrating tube method
Temperature, K	Mass density, kg/m3	uncertainty
293.15	748.92	0.24
303.15	741.66	0.24
313.15	734.38	0.24
323.15	727.07	0.24
333.15	719.73	0.24
343.15	712.34	0.25

System: 1,2,3,4-tetrahydronaphthalene; phases: Liquid
Fixed: Pressure, kPa = 101.325
Property: Refractive index (Na D-line) (Liquid); method: Standard Abbe refractometry
Temperature, K	Refractive index (Na D-line)	uncertainty
293.15	1.54155	0.00037
303.15	1.53687	0.00037
313.15	1.53216	0.00037
323.15	1.52752	0.00037
333.15	1.52274	0.00037
343.15	1.51795	0.00037

System: 1,2,3,4-tetrahydronaphthalene; phases: Liquid
Fixed: Pressure, kPa = 101.3
Property: Speed of sound, m/s (Liquid); method: Sing-around technique in a fixed-path interferometer
Temperature, K	Speed of sound, m/s	uncertainty
293.15	1489.5	1.3
303.15	1450.1	1.2
313.15	1411.5	1.2
323.15	1373.6	1.2
333.15	1336.4	1.2
343.15	1299.8	1.2

System: 1,2,3,4-tetrahydronaphthalene; phases: Liquid
Fixed: Pressure, kPa = 101.3
Property: Mass density, kg/m3 (Liquid); method: Vibrating tube method
Temperature, K	Mass density, kg/m3	uncertainty
293.15	969.52	0.23
303.15	961.59	0.23
313.15	953.66	0.23
323.15	945.72	0.23
333.15	937.77	0.23
343.15	929.8	0.23

System: dodecane + 1,2,3,4-tetrahydronaphthalene; phases: Liquid
Fixed: Pressure, kPa = 101.3
Property: Refractive index (Na D-line) (Liquid); method: Standard Abbe refractometry
Temperature, K	Mole fraction of 1,2,3,4-tetrahydronaphthalene	Refractive index (Na D-line)	uncertainty
293.15	0	1.42218	0.00037
293.15	0.1021	1.42964	0.00037
293.15	0.2015	1.43768	0.00037
293.15	0.307	1.44691	0.00037
293.15	0.3998	1.45578	0.00037
293.15	0.4985	1.46621	0.00037
293.15	0.5961	1.47773	0.00037
293.15	0.7019	1.49155	0.00037
293.15	0.8012	1.5062	0.00037
293.15	0.8998	1.52267	0.00037
293.15	1	1.54155	0.00037
303.15	0	1.41784	0.00037
303.15	0.1021	1.42538	0.00037
303.15	0.2015	1.43335	0.00037
303.15	0.307	1.44249	0.00037
303.15	0.3998	1.45151	0.00037
303.15	0.4985	1.46183	0.00037
303.15	0.5961	1.47333	0.00037
303.15	0.7019	1.48719	0.00037
303.15	0.8012	1.50172	0.00037
303.15	0.8998	1.51815	0.00037
303.15	1	1.53687	0.00037
313.15	0	1.41346	0.00037
313.15	0.1021	1.42102	0.00037
313.15	0.2015	1.42887	0.00037
313.15	0.307	1.43817	0.00037
313.15	0.3998	1.44709	0.00037
313.15	0.4985	1.45748	0.00037
313.15	0.5961	1.46884	0.00037
313.15	0.7019	1.48267	0.00037
313.15	0.8012	1.49723	0.00037
313.15	0.8998	1.51359	0.00037
313.15	1	1.53216	0.00037
323.15	0	1.40914	0.00037
323.15	0.1021	1.4166	0.00037
323.15	0.2015	1.42456	0.00037
323.15	0.307	1.43374	0.00037
323.15	0.3998	1.44258	0.00037
323.15	0.4985	1.45304	0.00037
323.15	0.5961	1.46437	0.00037
323.15	0.7019	1.47817	0.00037
323.15	0.8012	1.49269	0.00037
323.15	0.8998	1.50898	0.00037
323.15	1	1.52752	0.00037
333.15	0	1.40479	0.00037
333.15	0.1021	1.41223	0.00037
333.15	0.2015	1.42011	0.00037
333.15	0.307	1.42925	0.00037
333.15	0.3998	1.43819	0.00037
333.15	0.4985	1.44856	0.00037
333.15	0.5961	1.45998	0.00037
333.15	0.7019	1.47364	0.00037
333.15	0.8012	1.48822	0.00037
333.15	0.8998	1.5043	0.00037
333.15	1	1.52274	0.00037
343.15	0	1.40018	0.00037
343.15	0.1021	1.4078	0.00037
343.15	0.2015	1.41563	0.00037
343.15	0.307	1.42483	0.00037
343.15	0.3998	1.43363	0.00037
343.15	0.4985	1.44396	0.00037
343.15	0.5961	1.45528	0.00037
343.15	0.7019	1.46911	0.00037
343.15	0.8012	1.48355	0.00037
343.15	0.8998	1.49932	0.00037
343.15	1	1.51795	0.00037

System: dodecane + 1,2,3,4-tetrahydronaphthalene; phases: Liquid
Fixed: Pressure, kPa = 101.3
Property: Speed of sound, m/s (Liquid); method: Sing-around technique in a fixed-path interferometer
Temperature, K	Mole fraction of 1,2,3,4-tetrahydronaphthalene	Speed of sound, m/s	uncertainty
293.15	0	1297.9	1.2
293.15	0.1021	1308.1	1.2
293.15	0.2015	1318.1	1.2
293.15	0.307	1331.6	1.2
293.15	0.3998	1344	1.2
293.15	0.4985	1359.7	1.2
293.15	0.5961	1377	1.2
293.15	0.7019	1399.4	1.2
293.15	0.8012	1423.8	1.2
293.15	0.8998	1453.4	1.2
293.15	1	1489.5	1.3
303.15	0	1259.5	1.2
303.15	0.1021	1269.8	1.2
303.15	0.2015	1280	1.2
303.15	0.307	1293.4	1.2
303.15	0.3998	1306	1.2
303.15	0.4985	1321.7	1.2
303.15	0.5961	1339	1.2
303.15	0.7019	1361.2	1.2
303.15	0.8012	1385.4	1.2
303.15	0.8998	1414.7	1.2
303.15	1	1450.1	1.2
313.15	0	1221.6	1.2
313.15	0.1021	1232.1	1.2
313.15	0.2015	1242.2	1.2
313.15	0.307	1255.9	1.2
313.15	0.3998	1268.5	1.2
313.15	0.4985	1284.3	1.2
313.15	0.5961	1301.5	1.2
313.15	0.7019	1323.6	1.2
313.15	0.8012	1347.6	1.2
313.15	0.8998	1376.6	1.2
313.15	1	1411.5	1.2
323.15	0	1184.4	1.2
323.15	0.1021	1194.9	1.2
323.15	0.2015	1205.4	1.2
323.15	0.307	1218.9	1.2
323.15	0.3998	1231.6	1.2
323.15	0.4985	1247.4	1.2
323.15	0.5961	1264.5	1.2
323.15	0.7019	1286.7	1.2
323.15	0.8012	1310.5	1.2
323.15	0.8998	1339.2	1.2
323.15	1	1373.6	1.2
333.15	0	1147.8	1.2
333.15	0.1021	1158.3	1.2
333.15	0.2015	1168.6	1.2
333.15	0.307	1182.6	1.2
333.15	0.3998	1195.2	1.2
333.15	0.4985	1211	1.2
333.15	0.5961	1228.2	1.2
333.15	0.7019	1250.3	1.2
333.15	0.8012	1274	1.2
333.15	0.8998	1302.5	1.2
333.15	1	1336.4	1.2
343.15	0	1111.8	1.2
343.15	0.1021	1122.2	1.2
343.15	0.2015	1132.6	1.2
343.15	0.307	1146.8	1.2
343.15	0.3998	1159.3	1.2
343.15	0.4985	1175.4	1.2
343.15	0.5961	1192.4	1.2
343.15	0.7019	1214.6	1.2
343.15	0.8012	1238.2	1.2
343.15	0.8998	1266.4	1.2
343.15	1	1299.8	1.2

System: dodecane + 1,2,3,4-tetrahydronaphthalene; phases: Liquid
Fixed: Pressure, kPa = 101.3
Property: Mass density, kg/m3 (Liquid); method: Vibrating tube method
Temperature, K	Mole fraction of 1,2,3,4-tetrahydronaphthalene	Mass density, kg/m3	uncertainty
293.15	0	748.92	0.24
293.15	0.1021	763.04	0.24
293.15	0.2015	777.99	0.24
293.15	0.307	795.31	0.24
293.15	0.3998	811.97	0.24
293.15	0.4985	831.41	0.24
293.15	0.5961	852.66	0.24
293.15	0.7019	878.22	0.24
293.15	0.8012	905.15	0.24
293.15	0.8998	935.03	0.25
293.15	1	969.52	0.23
303.15	0	741.66	0.24
303.15	0.1021	755.74	0.24
303.15	0.2015	770.65	0.24
303.15	0.307	787.92	0.24
303.15	0.3998	804.53	0.24
303.15	0.4985	823.91	0.24
303.15	0.5961	845.1	0.24
303.15	0.7019	870.59	0.24
303.15	0.8012	897.44	0.24
303.15	0.8998	927.23	0.25
303.15	1	961.59	0.23
313.15	0	734.38	0.24
313.15	0.1021	748.42	0.24
313.15	0.2015	763.25	0.24
313.15	0.307	780.5	0.24
313.15	0.3998	797.07	0.24
313.15	0.4985	816.39	0.24
313.15	0.5961	837.52	0.24
313.15	0.7019	862.94	0.24
313.15	0.8012	889.71	0.24
313.15	0.8998	919.41	0.25
313.15	1	953.66	0.23
323.15	0	727.07	0.24
323.15	0.1021	741.07	0.25
323.15	0.2015	755.85	0.24
323.15	0.307	773.06	0.24
323.15	0.3998	789.61	0.24
323.15	0.4985	808.85	0.24
323.15	0.5961	829.89	0.24
323.15	0.7019	855.26	0.24
323.15	0.8012	881.98	0.24
323.15	0.8998	911.58	0.25
323.15	1	945.72	0.23
333.15	0	719.73	0.24
333.15	0.1021	733.68	0.25
333.15	0.2015	748.42	0.25
333.15	0.307	765.58	0.24
333.15	0.3998	782.08	0.24
333.15	0.4985	801.28	0.24
333.15	0.5961	822.25	0.24
333.15	0.7019	847.55	0.24
333.15	0.8012	874.21	0.24
333.15	0.8998	903.72	0.25
333.15	1	937.77	0.23
343.15	0	712.34	0.25
343.15	0.1021	726.25	0.25
343.15	0.2015	740.94	0.25
343.15	0.307	758.06	0.24
343.15	0.3998	774.5	0.24
343.15	0.4985	793.67	0.24
343.15	0.5961	814.59	0.24
343.15	0.7019	839.81	0.24
343.15	0.8012	866.35	0.24
343.15	0.8998	895.83	0.25
343.15	1	929.8	0.23
