Measured thermophysical data. Mixing enthalpies of solid solutions (Cs1-x,Rbx)NO3 at T = (298.15 and 473.15) K
Source: J. Chem. Thermodyn., 2014, 10.1016/j.jct.2014.07.024
Compound 1: cesium nitrate, CsNO3, InChI=1S/Cs.NO3/c;2-1(3)4/q+1;-1, purity 99%
Compound 2: rubidium nitrate, NO3Rb, InChI=1S/NO3.Rb/c2-1(3)4;/q-1;+1, purity 99.7%
Compound 3: water, H2O, InChI=1S/H2O/h1H2, purity 99%

System: water + cesium nitrate; phases: Liquid
Fixed: Pressure, kPa = 101
Fixed: Temperature, K = 298.15
Property: Molar enthalpy of solution, kJ/mol (Liquid); method: ISOPERIBOL
Amount concentration (molarity), mol/dm3 of cesium nitrate	Molar enthalpy of solution, kJ/mol	uncertainty
0.00158	39.12	2.36
0.0025	39.31	2.37
0.00361	39.08	2.36
0.00439	39.28	2.37
0.00514	39.26	2.37

System: water + rubidium nitrate; phases: Liquid
Fixed: Pressure, kPa = 101
Fixed: Temperature, K = 298.15
Property: Molar enthalpy of solution, kJ/mol (Liquid); method: Calvet calorimetry
Amount concentration (molarity), mol/dm3 of rubidium nitrate	Molar enthalpy of solution, kJ/mol	uncertainty
0.0078	35.85	2.88
0.0163	36.23	2.91
0.05	36.26	2.91
0.0607	36.28	2.91
0.0768	36.18	2.91
0.0946	35.75	2.87

System: water + rubidium nitrate; phases: Liquid
Fixed: Pressure, kPa = 101
Fixed: Temperature, K = 298.15
Property: Molar enthalpy of solution, kJ/mol (Liquid); method: ISOPERIBOL
Amount concentration (molarity), mol/dm3 of rubidium nitrate	Molar enthalpy of solution, kJ/mol	uncertainty
0.00151	36.08	2.18
0.00325	36.24	2.19
0.00343	36.24	2.19
0.00385	36.11	2.18

System: cesium nitrate + rubidium nitrate; phases: Crystal
Fixed: Pressure, kPa = 101
Property: Excess molar enthalpy (molar enthalpy of mixing), kJ/mol (Crystal); method: Calvet calorimetry
Temperature, K	Mole fraction of rubidium nitrate	Excess molar enthalpy (molar enthalpy of mixing), kJ/mol	uncertainty
298.15	0.8	0.9	0.2
298.15	0.68	1.2	0.2
298.15	0.65	1.3	0.2
298.15	0.57	1.4	0.2
298.15	0.5	1.4	0.2
298.15	0.32	1.2	0.2
298.15	0.23	1.1	0.2
298.15	0.1	0.5	0.2
473.15	0.16	0.259	0.056
473.15	0.36	0.554	0.118
473.15	0.5	0.582	0.124
473.15	0.73	0.433	0.092
