Measured thermophysical data. Effect of temperature and composition on the surface tension and surface properties of binary mixtures containing DMSO and short chain alcohols
Source: J. Chem. Thermodyn., 2016, 10.1016/j.jct.2016.06.004
Compound 1: dimethyl sulfoxide, C2H6OS, InChI=1S/C2H6OS/c1-4(2)3/h1-2H3, purity 99.5%
Compound 2: methanol, CH4O, InChI=1S/CH4O/c1-2/h2H,1H3, purity 99.5%
Compound 3: ethanol, C2H6O, InChI=1S/C2H6O/c1-2-3/h3H,2H2,1H3, purity 99.5%
Compound 4: propan-2-ol, C3H8O, InChI=1S/C3H8O/c1-3(2)4/h3-4H,1-2H3, purity 99%
Compound 5: water, H2O, InChI=1S/H2O/h1H2

System: dimethyl sulfoxide; phases: Liquid, Air at 1 atmosphere
Property: Surface tension liquid-gas, N/m (Liquid); method: Ring tensiometer
Temperature, K	Surface tension liquid-gas, N/m	uncertainty
298.15	0.042426	0.000744
308.15	0.041295	0.000727
318.15	0.040173	0.00071
328.15	0.039081	0.000693

System: methanol; phases: Liquid, Air at 1 atmosphere
Property: Surface tension liquid-gas, N/m (Liquid); method: Ring tensiometer
Temperature, K	Surface tension liquid-gas, N/m	uncertainty
298.15	0.022241	0.000436
308.15	0.021413	0.000423
318.15	0.02053	0.00041
328.15	0.019541	0.000395

System: ethanol; phases: Liquid, Air at 1 atmosphere
Property: Surface tension liquid-gas, N/m (Liquid); method: Ring tensiometer
Temperature, K	Surface tension liquid-gas, N/m	uncertainty
298.15	0.021658	0.000426
308.15	0.021011	0.000416
318.15	0.020189	0.000404
328.15	0.019235	0.00039

System: propan-2-ol; phases: Liquid, Air at 1 atmosphere
Property: Surface tension liquid-gas, N/m (Liquid); method: Ring tensiometer
Temperature, K	Surface tension liquid-gas, N/m	uncertainty
298.15	0.021146	0.00043
308.15	0.020286	0.000417
318.15	0.019525	0.000405
328.15	0.018512	0.000389

System: water; phases: Liquid, Air at 1 atmosphere
Property: Surface tension liquid-gas, N/m (Liquid); method: Ring tensiometer
Temperature, K	Surface tension liquid-gas, N/m	uncertainty
298.15	0.07205	0.00118

System: methanol + dimethyl sulfoxide; phases: Liquid, Air at 1 atmosphere
Property: Surface tension liquid-gas, N/m (Liquid); method: Ring tensiometer
Temperature, K	Mole fraction of methanol	Surface tension liquid-gas, N/m	uncertainty
298.15	0.077	0.041308	0.000727
298.15	0.154	0.040028	0.000708
298.15	0.231	0.038591	0.000686
298.15	0.308	0.037103	0.000663
298.15	0.384	0.035598	0.00064
298.15	0.462	0.034069	0.000617
298.15	0.538	0.032464	0.000593
298.15	0.615	0.030844	0.000568
298.15	0.693	0.029196	0.000543
298.15	0.769	0.027497	0.000518
298.15	0.846	0.025767	0.000491
298.15	0.9	0.024556	0.000473
308.15	0.077	0.040204	0.000711
308.15	0.154	0.038951	0.000692
308.15	0.231	0.037536	0.00067
308.15	0.308	0.036158	0.000649
308.15	0.384	0.034689	0.000627
308.15	0.462	0.033178	0.000604
308.15	0.538	0.031625	0.00058
308.15	0.615	0.030027	0.000556
308.15	0.693	0.028384	0.000531
308.15	0.769	0.026693	0.000506
308.15	0.846	0.024892	0.000478
308.15	0.9	0.02367	0.00046
318.15	0.077	0.039147	0.000695
318.15	0.154	0.037906	0.000676
318.15	0.231	0.036578	0.000655
318.15	0.308	0.035204	0.000635
318.15	0.384	0.033784	0.000613
318.15	0.462	0.032314	0.000591
318.15	0.538	0.030794	0.000568
318.15	0.615	0.029219	0.000544
318.15	0.693	0.027558	0.000519
318.15	0.769	0.025837	0.000493
318.15	0.846	0.024203	0.000468
318.15	0.9	0.022885	0.000448
328.15	0.077	0.03806	0.000678
328.15	0.154	0.036838	0.000659
328.15	0.231	0.035549	0.00064
328.15	0.308	0.034251	0.00062
328.15	0.384	0.032839	0.000599
328.15	0.462	0.031452	0.000577
328.15	0.538	0.029964	0.000555
328.15	0.615	0.028413	0.000531
328.15	0.693	0.026794	0.000507
328.15	0.769	0.024956	0.000479
328.15	0.846	0.023313	0.000455
328.15	0.9	0.021943	0.000434
298.15	0	0.042426	0.000744
308.15	0	0.041295	0.000727
318.15	0	0.040173	0.00071
328.15	0	0.039081	0.000693
298.15	1	0.022241	0.000436
308.15	1	0.021413	0.000423
318.15	1	0.02053	0.00041
328.15	1	0.019541	0.000395

System: ethanol + dimethyl sulfoxide; phases: Liquid, Air at 1 atmosphere
Property: Surface tension liquid-gas, N/m (Liquid); method: Ring tensiometer
Temperature, K	Mole fraction of ethanol	Surface tension liquid-gas, N/m	uncertainty
298.15	0.087	0.03925	0.000698
298.15	0.174	0.036687	0.000658
298.15	0.261	0.034396	0.000623
298.15	0.348	0.032294	0.00059
298.15	0.435	0.030479	0.000562
298.15	0.522	0.028843	0.000537
298.15	0.609	0.027339	0.000514
298.15	0.696	0.026035	0.000494
298.15	0.783	0.024633	0.000472
298.15	0.87	0.023398	0.000453
308.15	0.087	0.038319	0.000684
308.15	0.174	0.035751	0.000644
308.15	0.261	0.033602	0.000611
308.15	0.348	0.031504	0.000578
308.15	0.435	0.029708	0.00055
308.15	0.522	0.028076	0.000525
308.15	0.609	0.02658	0.000502
308.15	0.696	0.025223	0.000481
308.15	0.783	0.023908	0.000461
308.15	0.87	0.022699	0.000443
318.15	0.087	0.037348	0.000669
318.15	0.174	0.034879	0.000631
318.15	0.261	0.032691	0.000597
318.15	0.348	0.03073	0.000566
318.15	0.435	0.028954	0.000539
318.15	0.522	0.02733	0.000514
318.15	0.609	0.025833	0.000491
318.15	0.696	0.024442	0.00047
318.15	0.783	0.02314	0.00045
318.15	0.87	0.021913	0.000431
328.15	0.087	0.036366	0.000654
328.15	0.174	0.033987	0.000617
328.15	0.261	0.031871	0.000584
328.15	0.348	0.029993	0.000555
328.15	0.435	0.02822	0.000528
328.15	0.522	0.026611	0.000503
328.15	0.609	0.025211	0.000482
328.15	0.696	0.023636	0.000458
328.15	0.783	0.022358	0.000438
328.15	0.87	0.021075	0.000419
298.15	0	0.042426	0.000744
308.15	0	0.041295	0.000727
318.15	0	0.040173	0.00071
328.15	0	0.039081	0.000693
298.15	1	0.021658	0.000426
308.15	1	0.021011	0.000416
318.15	1	0.020189	0.000404
328.15	1	0.019235	0.00039

System: propan-2-ol + dimethyl sulfoxide; phases: Liquid, Air at 1 atmosphere
Property: Surface tension liquid-gas, N/m (Liquid); method: Ring tensiometer
Temperature, K	Mole fraction of propan-2-ol	Surface tension liquid-gas, N/m	uncertainty
298.15	0.044	0.039171	0.000709
298.15	0.085	0.036422	0.00066
298.15	0.157	0.033827	0.000619
298.15	0.245	0.030887	0.000574
298.15	0.338	0.028564	0.000539
298.15	0.441	0.026667	0.00051
298.15	0.537	0.025154	0.000488
298.15	0.619	0.024194	0.000474
298.15	0.676	0.023185	0.000459
298.15	0.719	0.023033	0.000456
298.15	0.751	0.022842	0.000454
298.15	0.86	0.022002	0.000442
308.15	0.044	0.038581	0.000698
308.15	0.085	0.03588	0.000653
308.15	0.157	0.032833	0.000604
308.15	0.245	0.030212	0.000564
308.15	0.338	0.027701	0.000526
308.15	0.441	0.025875	0.000498
308.15	0.537	0.024461	0.000477
308.15	0.619	0.023394	0.000461
308.15	0.676	0.022836	0.000453
308.15	0.719	0.022477	0.000448
308.15	0.751	0.022206	0.000444
308.15	0.86	0.021209	0.00043
318.15	0.044	0.037896	0.000687
318.15	0.085	0.034989	0.00064
318.15	0.157	0.032049	0.000592
318.15	0.245	0.029546	0.000554
318.15	0.338	0.027016	0.000515
318.15	0.441	0.025191	0.000487
318.15	0.537	0.023866	0.000468
318.15	0.619	0.022812	0.000452
318.15	0.676	0.022059	0.000441
318.15	0.719	0.021666	0.000435
318.15	0.751	0.021427	0.000432
318.15	0.86	0.020511	0.000419
328.15	0.044	0.036909	0.000671
328.15	0.085	0.034123	0.000627
328.15	0.157	0.031153	0.000579
328.15	0.245	0.028386	0.000536
328.15	0.338	0.025999	0.0005
328.15	0.441	0.024104	0.000471
328.15	0.537	0.022793	0.000451
328.15	0.619	0.021738	0.000436
328.15	0.676	0.021079	0.000426
328.15	0.719	0.020722	0.000421
328.15	0.751	0.020449	0.000417
328.15	0.86	0.019586	0.000404
298.15	0	0.042426	0.000744
308.15	0	0.041295	0.000727
318.15	0	0.040173	0.00071
328.15	0	0.039081	0.000693
298.15	1	0.021146	0.00043
308.15	1	0.020286	0.000417
318.15	1	0.019525	0.000405
328.15	1	0.018512	0.000389
