Measured thermophysical data. Measurement of (vapor + liquid) equilibrium for the systems {methanol + dimethyl carbonate} and {methanol + dimethyl carbonate + tetramethylammonium bicarbonate} at p = (34.43, 67.74) kPa
Source: J. Chem. Thermodyn., 2012, 10.1016/j.jct.2012.05.002
Compound 1: methanol, CH4O, InChI=1S/CH4O/c1-2/h2H,1H3, purity 99.8%
Compound 2: dimethyl carbonate, C3H6O3, InChI=1S/C3H6O3/c1-5-3(4)6-2/h1-2H3, purity 99%
Compound 3: tetramethylammonium bicarbonate, C5H13NO3, InChI=1S/C4H12N.CH2O3/c1-5(2,3)4;2-1(3)4/h1-4H3;(H2,2,3,4)/q+1;/p-1, purity 98%

System: methanol; phases: Liquid, Gas
Property: Boiling temperature at pressure P, K (Liquid); method: Closed cell (Static) method
Pressure, kPa	Boiling temperature at pressure P, K	uncertainty
101.3	363.41	0.11

System: dimethyl carbonate; phases: Liquid, Gas
Property: Boiling temperature at pressure P, K (Liquid); method: Closed cell (Static) method
Pressure, kPa	Boiling temperature at pressure P, K	uncertainty
101.3	337.84	0.11

System: methanol + dimethyl carbonate; phases: Liquid, Gas
Property: Boiling temperature at pressure P, K (Liquid); method: Ebulliometric method (Recirculating still)
Mole fraction of methanol	Pressure, kPa	Boiling temperature at pressure P, K	uncertainty
0	34.43	332.79	0.15
0	67.74	351.22	0.2
0.047	34.43	328.24	0.56
0.048	67.74	345.78	0.65
0.094	34.43	324.22	0.48
0.094	67.74	341.6	0.51
0.158	34.43	319.76	0.34
0.158	67.74	337.14	0.38
0.254	34.43	315.8	0.25
0.255	67.74	332.81	0.29
0.329	34.43	313.98	0.17
0.33	67.74	330.75	0.23
0.43	34.43	312.59	0.15
0.431	67.74	328.79	0.2
0.517	34.43	311.86	0.14
0.518	67.74	327.86	0.18
0.593	34.43	311.43	0.14
0.594	67.74	327.33	0.18
0.648	34.43	311.24	0.13
0.649	67.74	327.1	0.17
0.732	34.43	311.01	0.13
0.733	67.74	326.75	0.17
0.788	34.43	310.97	0.13
0.789	67.74	326.62	0.17
0.802	34.43	310.98	0.13
0.822	34.43	311.01	0.13
0.823	67.74	326.6	0.17
0.84	34.43	311.04	0.13
0.841	67.74	326.59	0.17
0.876	34.43	311.16	0.13
0.876	67.74	326.64	0.17
0.899	34.43	311.28	0.14
0.9	67.74	326.69	0.17
0.947	34.43	311.71	0.15
0.948	67.74	327.03	0.18
0.984	34.43	312.29	0.16
0.985	67.74	327.51	0.19
1	34.43	312.58	0.13
1	67.74	327.79	0.17

System: methanol + dimethyl carbonate; phases: Gas, Liquid
Property: Mole fraction of methanol (Gas); method: Chromatography
Mole fraction of methanol	Pressure, kPa	Mole fraction of methanol	uncertainty
0.047	34.43	0.208	0.102
0.048	67.74	0.213	0.102
0.094	34.43	0.353	0.101
0.094	67.74	0.354	0.101
0.158	34.43	0.484	0.101
0.158	67.74	0.485	0.101
0.254	34.43	0.595	0.1
0.255	67.74	0.597	0.1
0.329	34.43	0.648	0.1
0.33	67.74	0.654	0.1
0.43	34.43	0.686	0.1
0.431	67.74	0.704	0.1
0.517	34.43	0.712	0.1
0.518	67.74	0.734	0.1
0.593	34.43	0.732	0.1
0.594	67.74	0.756	0.1
0.648	34.43	0.744	0.1
0.649	67.74	0.771	0.1
0.732	34.43	0.769	0.1
0.733	67.74	0.797	0.1
0.788	34.43	0.795	0.1
0.789	67.74	0.817	0.1
0.802	34.43	0.801	0.1
0.822	34.43	0.809	0.1
0.823	67.74	0.829	0.1
0.84	34.43	0.817	0.1
0.841	67.74	0.84	0.1
0.876	34.43	0.839	0.1
0.876	67.74	0.857	0.1
0.899	34.43	0.859	0.1
0.9	67.74	0.875	0.1
0.947	34.43	0.913	0.087
0.948	67.74	0.919	0.081
0.984	34.43	0.97	0.03
0.985	67.74	0.972	0.028

System: methanol + dimethyl carbonate + tetramethylammonium bicarbonate; phases: Liquid, Gas
Property: Boiling temperature at pressure P, K (Liquid); method: Ebulliometric method (Recirculating still)
Pressure, kPa	Solvent: Mole fraction of methanol	Mole fraction of tetramethylammonium bicarbonate	Boiling temperature at pressure P, K	uncertainty
34.43	0	0.04	333.25	0.15
34.43	0	0.07	333.25	0.15
34.43	0	0.1	333.25	0.15
34.43	0.065	0.07	328.17	0.46
34.43	0.065	0.1	328.81	0.44
34.43	0.066	0.04	327.31	0.48
34.43	0.143	0.04	322.29	0.33
34.43	0.143	0.07	323.31	0.38
34.43	0.145	0.1	324.5	0.47
34.43	0.243	0.04	318.59	0.28
34.43	0.244	0.07	319.88	0.33
34.43	0.245	0.1	321.1	0.4
34.43	0.344	0.04	316.38	0.3
34.43	0.345	0.07	317.96	0.32
34.43	0.346	0.1	319.05	0.34
34.43	0.496	0.04	314.35	0.36
34.43	0.497	0.07	316.19	0.35
34.43	0.498	0.1	317.51	0.32
34.43	0.598	0.04	313.54	0.32
34.43	0.598	0.07	315.17	0.35
34.43	0.599	0.1	316.76	0.39
34.43	0.699	0.04	313.31	0.32
34.43	0.7	0.07	314.79	0.36
34.43	0.701	0.1	316.69	0.43
34.43	0.8	0.04	313.24	0.38
34.43	0.801	0.07	315.1	0.41
34.43	0.802	0.1	317.07	0.43
34.43	0.841	0.04	313.43	0.4
34.43	0.841	0.07	315.33	0.42
34.43	0.842	0.1	317.38	0.44
34.43	0.881	0.04	313.63	0.4
34.43	0.881	0.07	315.6	0.43
34.43	0.888	0.1	317.78	0.47
34.43	0.941	0.04	314.25	0.4
34.43	0.941	0.07	316.19	40.37
34.43	0.941	0.1	318.57	0.53
34.43	1	0.04	315.19	0.39
34.43	1	0.07	317.01	0.48
34.43	1	0.1	319.81	0.58
67.74	0	0.04	351.98	0.21
67.74	0	0.07	351.98	0.21
67.74	0	0.1	351.98	0.21
67.74	0.064	0.07	345.89	0.53
67.74	0.065	0.04	345.08	0.56
67.74	0.066	0.1	346.73	0.54
67.74	0.143	0.04	339.51	0.4
67.74	0.143	0.07	340.9	0.46
67.74	0.145	0.1	342.21	0.52
67.74	0.243	0.04	335.35	0.34
67.74	0.243	0.07	336.87	0.42
67.74	0.244	0.1	338.56	0.52
67.74	0.344	0.04	332.75	0.4
67.74	0.345	0.07	334.81	0.43
67.74	0.346	0.1	336.45	0.45
67.74	0.496	0.04	330.5	0.45
67.74	0.497	0.07	332.66	0.45
67.74	0.498	0.1	334.5	0.44
67.74	0.598	0.04	329.42	0.41
67.74	0.598	0.07	331.46	0.44
67.74	0.599	0.1	333.37	0.48
67.74	0.699	0.04	328.97	0.37
67.74	0.7	0.07	330.67	0.44
67.74	0.7	0.1	332.99	0.54
67.74	0.8	0.04	328.86	0.4
67.74	0.801	0.07	330.69	0.47
67.74	0.802	0.1	333.23	0.56
67.74	0.841	0.04	328.96	0.42
67.74	0.841	0.07	330.91	0.49
67.74	0.842	0.1	333.51	0.56
67.74	0.881	0.04	329.21	0.43
67.74	0.881	0.07	331.23	0.5
67.74	0.882	0.1	333.88	0.58
67.74	0.94	0.1	334.76	0.62
67.74	0.941	0.04	329.88	0.45
67.74	0.941	0.07	332.02	0.53
67.74	1	0.04	330.98	0.46
67.74	1	0.07	333.08	0.54
67.74	1	0.1	336.14	0.64

System: methanol + dimethyl carbonate + tetramethylammonium bicarbonate; phases: Gas, Liquid
Property: Mole fraction of methanol (Gas); method: Chromatography
Pressure, kPa	Solvent: Mole fraction of methanol	Mole fraction of tetramethylammonium bicarbonate	Mole fraction of methanol	uncertainty
34.43	0	0.04	0	
34.43	0	0.07	0	
34.43	0	0.1	0	
34.43	0.065	0.07	0.221	0.018
34.43	0.065	0.1	0.212	0.018
34.43	0.066	0.04	0.252	0.019
34.43	0.143	0.04	0.431	0.012
34.43	0.143	0.07	0.404	0.013
34.43	0.145	0.1	0.378	0.016
34.43	0.243	0.04	0.543	0.01
34.43	0.244	0.07	0.519	0.011
34.43	0.245	0.1	0.495	0.013
34.43	0.344	0.04	0.612	0.009
34.43	0.345	0.07	0.579	0.01
34.43	0.346	0.1	0.556	0.011
34.43	0.496	0.04	0.67	0.01
34.43	0.497	0.07	0.636	0.01
34.43	0.498	0.1	0.609	0.01
34.43	0.598	0.04	0.705	0.009
34.43	0.598	0.07	0.675	0.01
34.43	0.599	0.1	0.645	0.01
34.43	0.699	0.04	0.734	0.01
34.43	0.7	0.07	0.705	0.009
34.43	0.701	0.1	0.681	0.009
34.43	0.8	0.04	0.779	0.009
34.43	0.801	0.07	0.757	0.009
34.43	0.802	0.1	0.736	0.009
34.43	0.841	0.04	0.802	0.009
34.43	0.841	0.07	0.785	0.009
34.43	0.842	0.1	0.763	0.009
34.43	0.881	0.04	0.834	0.009
34.43	0.881	0.07	0.822	0.01
34.43	0.888	0.1	0.809	0.01
34.43	0.941	0.04	0.901	0.011
34.43	0.941	0.07	0.895	0.078
34.43	0.941	0.1	0.885	0.012
34.43	1	0.04	1	
34.43	1	0.07	1	
34.43	1	0.1	1	
67.74	0	0.04	0	
67.74	0	0.07	0	
67.74	0	0.1	0	
67.74	0.064	0.07	0.238	0.018
67.74	0.065	0.04	0.251	0.02
67.74	0.066	0.1	0.225	0.02
67.74	0.143	0.04	0.429	0.013
67.74	0.143	0.07	0.41	0.013
67.74	0.145	0.1	0.39	0.016
67.74	0.243	0.04	0.554	0.01
67.74	0.243	0.07	0.536	0.011
67.74	0.244	0.1	0.503	0.014
67.74	0.344	0.04	0.629	0.009
67.74	0.345	0.07	0.598	0.01
67.74	0.346	0.1	0.568	0.012
67.74	0.496	0.04	0.692	0.01
67.74	0.497	0.07	0.658	0.01
67.74	0.498	0.1	0.623	0.011
67.74	0.598	0.04	0.731	0.01
67.74	0.598	0.07	0.692	0.011
67.74	0.599	0.1	0.658	0.01
67.74	0.699	0.04	0.762	0.01
67.74	0.7	0.07	0.728	0.01
67.74	0.7	0.1	0.691	0.01
67.74	0.8	0.04	0.802	0.009
67.74	0.801	0.07	0.773	0.01
67.74	0.802	0.1	0.743	0.009
67.74	0.841	0.04	0.819	0.009
67.74	0.841	0.07	0.799	0.009
67.74	0.842	0.1	0.776	0.01
67.74	0.881	0.04	0.845	0.009
67.74	0.881	0.07	0.833	0.01
67.74	0.882	0.1	0.813	0.01
67.74	0.94	0.1	0.898	0.011
67.74	0.941	0.04	0.91	0.011
67.74	0.941	0.07	0.899	0.011
67.74	1	0.04	1	
67.74	1	0.07	1	
67.74	1	0.1	1	
