Measured thermophysical data. Solubility of 2-methyl-2-propyl-1,3-propanediol and its derivatives in supercritical carbon dioxide: measurement and mathematical modeling
Source: J. Chem. Thermodyn., 2013, 10.1016/j.jct.2013.06.015
Compound 1: 2-methyl-2-propyl-1,3-propanediol, C7H16O2, InChI=1S/C7H16O2/c1-3-4-7(2,5-8)6-9/h8-9H,3-6H2,1-2H3, purity 99%
Compound 2: carbon dioxide, CO2, InChI=1S/CO2/c2-1-3, purity 99.99%
Compound 3: dimethyl O,O'-(2-methyl-2-propylpropane-1,3-diyl) dioxalate, C13H20O8, InChI=1S/C13H20O8/c1-5-6-13(2,7-20-11(16)9(14)18-3)8-21-12(17)10(15)19-4/h5-8H2,1-4H3
Compound 4: dimethyl O,O'-(2-methyl-2-propylpropane-1,3-diyl) dimalonate, C15H24O8, InChI=1S/C15H24O8/c1-5-6-15(2,9-22-13(18)7-11(16)20-3)10-23-14(19)8-12(17)21-4/h5-10H2,1-4H3

System: 2-methyl-2-propyl-1,3-propanediol + carbon dioxide; phases: Fluid (supercritical or subcritical phases), Crystal
Property: Mole fraction of 2-methyl-2-propyl-1,3-propanediol (Fluid (supercritical or subcritical phases)); method: gravimetric method
Temperature, K	Pressure, kPa	Mole fraction of 2-methyl-2-propyl-1,3-propanediol	uncertainty
313	9800	0.00158	0.00065
313	10800	0.00215	0.00053
313	11600	0.00275	0.00055
313	12900	0.00319	0.00041
313	14100	0.00365	0.00044
333	12900	0.00189	0.00103
333	13600	0.00272	0.00076
333	14200	0.00322	0.00082
333	15100	0.00384	0.00078
333	16100	0.00449	0.00072

System: 2-methyl-2-propyl-1,3-propanediol + carbon dioxide; phases: Fluid (supercritical or subcritical phases), Liquid
Fixed: Temperature, K = 353
Property: Mole fraction of 2-methyl-2-propyl-1,3-propanediol (Fluid (supercritical or subcritical phases)); method: gravimetric method
Pressure, kPa	Mole fraction of 2-methyl-2-propyl-1,3-propanediol	uncertainty
13500	0.00264	0.00016
14300	0.00342	0.00021
15100	0.00431	0.00026
15800	0.00515	0.00031
16600	0.00572	0.00034

System: carbon dioxide + dimethyl O,O'-(2-methyl-2-propylpropane-1,3-diyl) dioxalate; phases: Fluid (supercritical or subcritical phases), Liquid
Property: Mole fraction of dimethyl O,O'-(2-methyl-2-propylpropane-1,3-diyl) dioxalate (Fluid (supercritical or subcritical phases)); method: gravimetric method
Temperature, K	Pressure, kPa	Mole fraction of dimethyl O,O'-(2-methyl-2-propylpropane-1,3-diyl) dioxalate	uncertainty
313	9300	0.00227	0.00136
313	9500	0.00433	0.00103
313	9800	0.00616	0.00123
313	9900	0.00811	0.00192
313	10000	0.01001	0.00265
333	12900	0.00253	0.00253
333	13400	0.00476	0.00476
333	13800	0.00686	0.00383
333	14200	0.00884	0.00489
333	14600	0.01072	0.00501
353	16000	0.00269	0.00269
353	16800	0.00506	0.00361
353	17500	0.00724	0.00307
353	18000	0.00937	0.00364
353	18400	0.01145	0.00405

System: carbon dioxide + dimethyl O,O'-(2-methyl-2-propylpropane-1,3-diyl) dimalonate; phases: Fluid (supercritical or subcritical phases), Liquid
Property: Mole fraction of dimethyl O,O'-(2-methyl-2-propylpropane-1,3-diyl) dimalonate (Fluid (supercritical or subcritical phases)); method: gravimetric method
Temperature, K	Pressure, kPa	Mole fraction of dimethyl O,O'-(2-methyl-2-propylpropane-1,3-diyl) dimalonate	uncertainty
313	9300	0.00196	0.00112
313	9500	0.00374	0.00085
313	9700	0.0054	0.00104
313	9900	0.007	0.00162
313	10000	0.00864	0.00222
333	13000	0.00215	0.00215
333	13600	0.00402	0.00402
333	14000	0.00582	0.00341
333	14400	0.00751	0.00386
333	14800	0.00913	0.0043
353	16500	0.00223	0.00223
353	17200	0.00425	0.00257
353	18100	0.00603	0.0024
353	18600	0.00783	0.0026
353	19000	0.00959	0.00302
