Measured thermophysical data. Solubility modelling and thermodynamic aspect of d-aspartic acid in aqueous co-solvent mixtures of N-methyl-2-pyrrolidone, N,N-dimethylformamide, dimethyl sulfoxide and 1.4-dioxane
Source: J. Chem. Thermodyn., 2019, 10.1016/j.jct.2019.06.025
Compound 1: D-aspartic acid, C4H7NO4, InChI=1S/C4H7NO4/c5-2(4(8)9)1-3(6)7/h2H,1,5H2,(H,6,7)(H,8,9)/t2-/m1/s1, purity 98.2%
Compound 2: N-methylpyrrolidone, C5H9NO, InChI=1S/C5H9NO/c1-6-4-2-3-5(6)7/h2-4H2,1H3
Compound 3: dimethylformamide, C3H7NO, InChI=1S/C3H7NO/c1-4(2)3-5/h3H,1-2H3
Compound 4: dimethyl sulfoxide, C2H6OS, InChI=1S/C2H6OS/c1-4(2)3/h1-2H3
Compound 5: 1,4-dioxane, C4H8O2, InChI=1S/C4H8O2/c1-2-6-4-3-5-1/h1-4H2
Compound 6: water, H2O, InChI=1S/H2O/h1H2

System: D-aspartic acid + N-methylpyrrolidone + water; phases: Liquid, Crystal
Fixed: Pressure, kPa = 101.2
Property: Mole fraction of D-aspartic acid (Liquid); method: Chromatography
Temperature, K	Solvent: Mass fraction of N-methylpyrrolidone	Mole fraction of D-aspartic acid	uncertainty
288.15	0.1	0.0007246	5.37e-05
293.15	0.1	0.000846	6.26e-05
298.15	0.1	0.001006	7.4e-05
303.15	0.1	0.001175	8.7e-05
308.15	0.1	0.001351	0.0001
313.15	0.1	0.001578	0.000117
318.15	0.1	0.001809	0.000134
323.15	0.1	0.002081	0.000154
328.15	0.1	0.002403	0.000178
333.15	0.1	0.002764	0.000205
288.15	0.2	0.000959	7.1e-05
293.15	0.2	0.001136	8.4e-05
298.15	0.2	0.001332	9.9e-05
303.15	0.2	0.001532	0.000113
308.15	0.2	0.001789	0.000132
313.15	0.2	0.002058	0.000152
318.15	0.2	0.002359	0.000175
323.15	0.2	0.002714	0.000201
328.15	0.2	0.003088	0.000229
333.15	0.2	0.003618	0.000268
288.15	0.3	0.001288	9.5e-05
293.15	0.3	0.001549	0.000115
298.15	0.3	0.001763	0.000131
303.15	0.3	0.002058	0.000152
308.15	0.3	0.002368	0.000175
313.15	0.3	0.002724	0.000202
318.15	0.3	0.003122	0.000231
323.15	0.3	0.003487	0.000258
328.15	0.3	0.003968	0.000294
333.15	0.3	0.004616	0.000342
288.15	0.4	0.001891	0.00014
293.15	0.4	0.002175	0.000161
298.15	0.4	0.002511	0.000186
303.15	0.4	0.002847	0.000211
308.15	0.4	0.003275	0.000242
313.15	0.4	0.003659	0.000271
318.15	0.4	0.004194	0.000311
323.15	0.4	0.004754	0.000352
328.15	0.4	0.00533	0.000395
333.15	0.4	0.006155	0.000456
288.15	0.5	0.002429	0.00018
293.15	0.5	0.002795	0.000207
298.15	0.5	0.003275	0.000242
303.15	0.5	0.003713	0.000275
308.15	0.5	0.004272	0.000316
313.15	0.5	0.004914	0.000364
318.15	0.5	0.005551	0.000411
323.15	0.5	0.0062	0.000459
328.15	0.5	0.007159	0.00053
333.15	0.5	0.008056	0.000596
288.15	0.6	0.003462	0.000256
293.15	0.6	0.003983	0.000295
298.15	0.6	0.004667	0.000346
303.15	0.6	0.005213	0.000386
308.15	0.6	0.006177	0.000457
313.15	0.6	0.0069	0.000511
318.15	0.6	0.007909	0.000586
323.15	0.6	0.008966	0.000664
328.15	0.6	0.01005	0.00074
333.15	0.6	0.01106	0.00082
288.15	0.7	0.00465	0.000344
293.15	0.7	0.005271	0.00039
298.15	0.7	0.006087	0.000451
303.15	0.7	0.007003	0.000518
308.15	0.7	0.007938	0.000588
313.15	0.7	0.009133	0.000676
318.15	0.7	0.01031	0.00076
323.15	0.7	0.01152	0.00085
328.15	0.7	0.01311	0.00097
333.15	0.7	0.01459	0.00108
288.15	0.8	0.006339	0.000469
293.15	0.8	0.007511	0.000556
298.15	0.8	0.008546	0.000633
303.15	0.8	0.009546	0.000707
308.15	0.8	0.01098	0.00081
313.15	0.8	0.01227	0.00091
318.15	0.8	0.01386	0.00103
323.15	0.8	0.01548	0.00115
328.15	0.8	0.01735	0.00128
333.15	0.8	0.01967	0.00146
288.15	0.9	0.008515	0.00063
293.15	0.9	0.009511	0.000704
298.15	0.9	0.01098	0.00081
303.15	0.9	0.01245	0.00092
308.15	0.9	0.01432	0.00106
313.15	0.9	0.016	0.00118
318.15	0.9	0.0178	0.00132
323.15	0.9	0.01989	0.00147
328.15	0.9	0.0223	0.00165
333.15	0.9	0.025	0.00185

System: D-aspartic acid + dimethylformamide + water; phases: Liquid, Crystal
Fixed: Pressure, kPa = 101.2
Property: Mole fraction of D-aspartic acid (Liquid); method: Chromatography
Temperature, K	Solvent: Mass fraction of dimethylformamide	Mole fraction of D-aspartic acid	uncertainty
288.15	0.1	0.0007354	5.45e-05
293.15	0.1	0.0008843	6.55e-05
298.15	0.1	0.001052	7.8e-05
303.15	0.1	0.001228	9.1e-05
308.15	0.1	0.001413	0.000105
313.15	0.1	0.001601	0.000119
318.15	0.1	0.001891	0.00014
323.15	0.1	0.002143	0.000159
328.15	0.1	0.002438	0.000181
333.15	0.1	0.002764	0.000205
288.15	0.2	0.001032	7.6e-05
293.15	0.2	0.001205	8.9e-05
298.15	0.2	0.001392	0.000103
303.15	0.2	0.001649	0.000122
308.15	0.2	0.001898	0.000141
313.15	0.2	0.002088	0.000155
318.15	0.2	0.002394	0.000177
323.15	0.2	0.002754	0.000204
328.15	0.2	0.003042	0.000225
333.15	0.2	0.003513	0.00026
288.15	0.3	0.001428	0.000106
293.15	0.3	0.001668	0.000123
298.15	0.3	0.00187	0.000138
303.15	0.3	0.00212	0.000157
308.15	0.3	0.002475	0.000183
313.15	0.3	0.002724	0.000202
318.15	0.3	0.003076	0.000228
323.15	0.3	0.003386	0.000251
328.15	0.3	0.003853	0.000285
333.15	0.3	0.004256	0.000315
288.15	0.4	0.002005	0.000148
293.15	0.4	0.002307	0.000171
298.15	0.4	0.002625	0.000194
303.15	0.4	0.002976	0.00022
308.15	0.4	0.003324	0.000246
313.15	0.4	0.003768	0.000279
318.15	0.4	0.004194	0.000311
323.15	0.4	0.004616	0.000342
328.15	0.4	0.005175	0.000383
333.15	0.4	0.005802	0.00043
288.15	0.5	0.002694	0.000199
293.15	0.5	0.003009	0.000223
298.15	0.5	0.003475	0.000257
303.15	0.5	0.003939	0.000292
308.15	0.5	0.0044	0.000326
313.15	0.5	0.004914	0.000364
318.15	0.5	0.005551	0.000411
323.15	0.5	0.00602	0.000446
328.15	0.5	0.006749	0.0005
333.15	0.5	0.007595	0.000562
288.15	0.6	0.003618	0.000268
293.15	0.6	0.004102	0.000304
298.15	0.6	0.004667	0.000346
303.15	0.6	0.005291	0.000392
308.15	0.6	0.00591	0.000438
313.15	0.6	0.006601	0.000489
318.15	0.6	0.007347	0.000544
323.15	0.6	0.008086	0.000599
328.15	0.6	0.00907	0.00067
333.15	0.6	0.01001	0.00074
288.15	0.7	0.004789	0.000355
293.15	0.7	0.005429	0.000402
298.15	0.7	0.006087	0.000451
303.15	0.7	0.006799	0.000503
308.15	0.7	0.007707	0.000571
313.15	0.7	0.008609	0.000637
318.15	0.7	0.00944	0.0007
323.15	0.7	0.01055	0.00078
328.15	0.7	0.01165	0.00086
333.15	0.7	0.01301	0.00096
288.15	0.8	0.006724	0.000498
293.15	0.8	0.007511	0.000556
298.15	0.8	0.008421	0.000623
303.15	0.8	0.009268	0.000686
308.15	0.8	0.01051	0.00078
313.15	0.8	0.01156	0.00086
318.15	0.8	0.01268	0.00094
323.15	0.8	0.01396	0.00103
328.15	0.8	0.01542	0.00114
333.15	0.8	0.01703	0.00126
288.15	0.9	0.008641	0.00064
293.15	0.9	0.009941	0.000736
298.15	0.9	0.01082	0.0008
303.15	0.9	0.01209	0.0009
308.15	0.9	0.0135	0.001
313.15	0.9	0.01464	0.00108
318.15	0.9	0.0163	0.00121
323.15	0.9	0.0182	0.00135
328.15	0.9	0.01952	0.00145
333.15	0.9	0.02141	0.00159

System: D-aspartic acid + dimethyl sulfoxide + water; phases: Liquid, Crystal
Fixed: Pressure, kPa = 101.2
Property: Mole fraction of D-aspartic acid (Liquid); method: Chromatography
Temperature, K	Solvent: Mass fraction of dimethyl sulfoxide	Mole fraction of D-aspartic acid	uncertainty
298.15	0.1	0.000899	6.66e-05
303.15	0.1	0.001059	7.8e-05
308.15	0.1	0.001259	9.3e-05
313.15	0.1	0.001508	0.000112
318.15	0.1	0.001754	0.00013
323.15	0.1	0.002039	0.000151
328.15	0.1	0.002379	0.000176
333.15	0.1	0.002785	0.000206
298.15	0.2	0.001231	9.1e-05
303.15	0.2	0.001469	0.000109
308.15	0.2	0.001725	0.000128
313.15	0.2	0.002013	0.000149
318.15	0.2	0.002341	0.000173
323.15	0.2	0.002757	0.000204
328.15	0.2	0.003134	0.000232
333.15	0.2	0.003644	0.00027
298.15	0.3	0.001664	0.000123
303.15	0.3	0.001935	0.000143
308.15	0.3	0.002243	0.000166
313.15	0.3	0.002651	0.000196
318.15	0.3	0.003042	0.000225
323.15	0.3	0.003492	0.000259
328.15	0.3	0.004073	0.000302
333.15	0.3	0.004644	0.000344
298.15	0.4	0.002107	0.000156
303.15	0.4	0.002516	0.000186
308.15	0.4	0.002916	0.000216
313.15	0.4	0.003492	0.000259
318.15	0.4	0.003955	0.000293
323.15	0.4	0.004599	0.000341
328.15	0.4	0.005295	0.000392
333.15	0.4	0.006097	0.000451
298.15	0.5	0.002925	0.000217
303.15	0.5	0.003401	0.000252
308.15	0.5	0.003942	0.000292
313.15	0.5	0.004539	0.000336
318.15	0.5	0.005209	0.000386
323.15	0.5	0.005978	0.000443
328.15	0.5	0.006705	0.000496
333.15	0.5	0.00767	0.000568
298.15	0.6	0.004168	0.000309
303.15	0.6	0.004846	0.000359
308.15	0.6	0.0054	0.0004
313.15	0.6	0.006218	0.00046
318.15	0.6	0.007043	0.000521
323.15	0.6	0.007771	0.000575
328.15	0.6	0.00872	0.00065
333.15	0.6	0.00978	0.00072
298.15	0.7	0.005785	0.000428
303.15	0.7	0.006467	0.000479
308.15	0.7	0.007206	0.000534
313.15	0.7	0.008189	0.000606
318.15	0.7	0.00916	0.00068
323.15	0.7	0.00984	0.00073
328.15	0.7	0.01118	0.00083
333.15	0.7	0.01246	0.00092
298.15	0.8	0.007326	0.000542
303.15	0.8	0.008298	0.000614
308.15	0.8	0.00937	0.00069
313.15	0.8	0.01065	0.00079
318.15	0.8	0.01175	0.00087
323.15	0.8	0.01313	0.00097
328.15	0.8	0.01454	0.00108
333.15	0.8	0.01625	0.0012
298.15	0.9	0.0094	0.0007
303.15	0.9	0.01065	0.00079
308.15	0.9	0.01186	0.00088
313.15	0.9	0.0133	0.00098
318.15	0.9	0.01468	0.00109
323.15	0.9	0.0162	0.0012
328.15	0.9	0.01793	0.00133
333.15	0.9	0.01985	0.00147

System: D-aspartic acid + 1,4-dioxane + water; phases: Liquid, Crystal
Fixed: Pressure, kPa = 101.2
Property: Mole fraction of D-aspartic acid (Liquid); method: Chromatography
Temperature, K	Solvent: Mass fraction of 1,4-dioxane	Mole fraction of D-aspartic acid	uncertainty
288.15	0.1	0.0007021	5.2e-05
293.15	0.1	0.0008137	6.02e-05
298.15	0.1	0.0009586	7.1e-05
303.15	0.1	0.001129	8.4e-05
308.15	0.1	0.001309	9.7e-05
313.15	0.1	0.001487	0.00011
318.15	0.1	0.00173	0.000128
323.15	0.1	0.001985	0.000147
328.15	0.1	0.002234	0.000165
333.15	0.1	0.00258	0.000191
288.15	0.2	0.0008774	6.5e-05
293.15	0.2	0.001044	7.7e-05
298.15	0.2	0.00123	9.1e-05
303.15	0.2	0.00143	0.000106
308.15	0.2	0.001679	0.000124
313.15	0.2	0.001884	0.000139
318.15	0.2	0.00219	0.000162
323.15	0.2	0.002514	0.000186
328.15	0.2	0.002828	0.000209
333.15	0.2	0.003193	0.000236
288.15	0.3	0.001126	8.3e-05
293.15	0.3	0.001322	9.8e-05
298.15	0.3	0.001557	0.000115
303.15	0.3	0.001811	0.000134
308.15	0.3	0.002099	0.000155
313.15	0.3	0.002417	0.000179
318.15	0.3	0.002773	0.000205
323.15	0.3	0.003141	0.000233
328.15	0.3	0.003629	0.000269
333.15	0.3	0.004083	0.000302
288.15	0.4	0.001502	0.000111
293.15	0.4	0.001764	0.000131
298.15	0.4	0.002024	0.00015
303.15	0.4	0.002323	0.000172
308.15	0.4	0.002658	0.000197
313.15	0.4	0.00302	0.000224
318.15	0.4	0.003466	0.000257
323.15	0.4	0.003875	0.000287
328.15	0.4	0.00436	0.000323
333.15	0.4	0.00489	0.000362
288.15	0.5	0.001877	0.000139
293.15	0.5	0.002205	0.000163
298.15	0.5	0.00253	0.000187
303.15	0.5	0.002866	0.000212
308.15	0.5	0.003321	0.000246
313.15	0.5	0.003725	0.000276
318.15	0.5	0.00422	0.000312
323.15	0.5	0.004779	0.000354
328.15	0.5	0.005308	0.000393
333.15	0.5	0.006132	0.000454
288.15	0.6	0.002286	0.000169
293.15	0.6	0.002649	0.000196
298.15	0.6	0.00308	0.000228
303.15	0.6	0.003535	0.000262
308.15	0.6	0.004043	0.000299
313.15	0.6	0.004535	0.000336
318.15	0.6	0.005273	0.00039
323.15	0.6	0.005895	0.000436
328.15	0.6	0.006547	0.000485
333.15	0.6	0.007344	0.000544
288.15	0.7	0.002819	0.000209
293.15	0.7	0.003225	0.000239
298.15	0.7	0.00375	0.000278
303.15	0.7	0.004247	0.000314
308.15	0.7	0.004923	0.000364
313.15	0.7	0.005594	0.000414
318.15	0.7	0.006254	0.000463
323.15	0.7	0.007083	0.000524
328.15	0.7	0.008076	0.000598
333.15	0.7	0.009148	0.000677
288.15	0.8	0.003343	0.000248
293.15	0.8	0.003875	0.000287
298.15	0.8	0.004505	0.000334
303.15	0.8	0.005171	0.000383
308.15	0.8	0.005915	0.000438
313.15	0.8	0.006721	0.000498
318.15	0.8	0.007613	0.000564
323.15	0.8	0.008737	0.000647
328.15	0.8	0.009704	0.000718
333.15	0.8	0.01106	0.00082
288.15	0.9	0.004289	0.000318
293.15	0.9	0.004971	0.000368
298.15	0.9	0.00578	0.000428
303.15	0.9	0.006547	0.000485
308.15	0.9	0.007489	0.000554
313.15	0.9	0.008623	0.000638
318.15	0.9	0.00964	0.000714
323.15	0.9	0.01092	0.00081
328.15	0.9	0.01229	0.00091
333.15	0.9	0.01387	0.00103
