Measured thermophysical data. Study of the volumetric properties of weakly associated alcohols by means of high-pressure speed of sound measurements
Source: J. Chem. Thermodyn., 2006, 10.1016/j.jct.2005.10.002
Compound 1: 3-ethyl-3-pentanol, C7H16O, InChI=1S/C7H16O/c1-4-7(8,5-2)6-3/h8H,4-6H2,1-3H3, purity 98%
Compound 2: 3-methyl-3-pentanol, C6H14O, InChI=1S/C6H14O/c1-4-6(3,7)5-2/h7H,4-5H2,1-3H3, purity 99%
Compound 3: 3-pentanol, C5H12O, InChI=1S/C5H12O/c1-3-5(6)4-2/h5-6H,3-4H2,1-2H3, purity 99.5%

System: 3-ethyl-3-pentanol; phases: Liquid
Property: Speed of sound, m/s (Liquid); method: PULSEH:UFactor:4
Temperature, K	Pressure, kPa	Speed of sound, m/s	uncertainty
303.15	100	1269.7	4
303.15	10000	1326.5	4.1
303.15	20000	1379.5	4.2
303.15	30000	1429.1	4.3
303.15	40000	1474.3	4.4
303.15	50000	1515.9	4.5
303.15	60000	1556.7	4.6
303.15	70000	1594.7	4.7
303.15	80000	1632.3	4.8
303.15	90000	1667.3	4.9
303.15	100000	1700.2	4.9
313.15	100	1229.3	3.9
313.15	10000	1289.3	4
313.15	20000	1346	4.2
313.15	30000	1393.8	4.3
313.15	40000	1440.8	4.4
313.15	50000	1484.5	4.5
313.15	60000	1526	4.6
313.15	70000	1564.6	4.6
313.15	80000	1602.2	4.7
313.15	90000	1638.3	4.8
313.15	100000	1672.4	4.9
323.15	100	1189.8	3.8
323.15	10000	1255.2	4
323.15	20000	1311.9	4.1
323.15	30000	1364.3	4.2
323.15	40000	1412.8	4.3
323.15	50000	1459	4.4
323.15	60000	1500.7	4.5
323.15	70000	1541	4.6
323.15	80000	1580.4	4.7
323.15	90000	1616.9	4.8
323.15	100000	1651.3	4.8
333.15	100	1152.4	3.8
333.15	10000	1217.3	3.9
333.15	20000	1277.4	4
333.15	30000	1330.3	4.1
333.15	40000	1379.9	4.2
333.15	50000	1426.5	4.3
333.15	60000	1470.6	4.4
333.15	70000	1511	4.5
333.15	80000	1550.1	4.6
333.15	90000	1587.4	4.7
333.15	100000	1622.8	4.8
343.15	100	1113	3.7
343.15	10000	1180.3	3.8
343.15	20000	1241.1	3.9
343.15	30000	1297.2	4.1
343.15	40000	1349.5	4.2
343.15	50000	1396	4.3
343.15	60000	1441.1	4.4
343.15	70000	1482.7	4.5
343.15	80000	1522	4.5
343.15	90000	1560.4	4.6
343.15	100000	1596.4	4.7
353.15	100	1073.7	3.6
353.15	10000	1144	3.7
353.15	20000	1207.5	3.9
353.15	30000	1264.4	4
353.15	40000	1317.4	4.1
353.15	50000	1366	4.2
353.15	60000	1411.1	4.3
353.15	70000	1454.8	4.4
353.15	80000	1494.6	4.5
353.15	90000	1533.6	4.6
353.15	100000	1570.4	4.7
363.15	100	1034.6	3.5
363.15	10000	1107.3	3.7
363.15	20000	1172.7	3.8
363.15	30000	1232.5	3.9
363.15	40000	1286.4	4
363.15	50000	1336.4	4.1
363.15	60000	1383.4	4.2
363.15	70000	1427.4	4.3
363.15	80000	1467.9	4.4
363.15	90000	1507.1	4.5
363.15	100000	1544.3	4.6
373.15	100	994.7	3.4
373.15	10000	1072	3.6
373.15	20000	1139.6	3.7
373.15	30000	1200.6	3.9
373.15	40000	1256.3	4
373.15	50000	1307.4	4.1
373.15	60000	1354.2	4.2
373.15	70000	1400	4.3
373.15	80000	1440.9	4.4
373.15	90000	1481.4	4.5
373.15	100000	1519.4	4.5

System: 3-methyl-3-pentanol; phases: Liquid
Property: Speed of sound, m/s (Liquid); method: PULSEH:UFactor:4
Temperature, K	Pressure, kPa	Speed of sound, m/s	uncertainty
303.15	100	1230.7	3.5
303.15	10000	1290.1	3.7
303.15	20000	1344.9	3.8
303.15	30000	1396.1	3.9
303.15	40000	1443.3	4
303.15	50000	1487.1	4.1
303.15	60000	1529.7	4.2
303.15	70000	1568.8	4.3
303.15	80000	1606.2	4.4
303.15	90000	1641.7	4.5
303.15	100000	1675.9	4.6
313.15	100	1192.7	3.4
313.15	10000	1254.9	3.6
313.15	20000	1311.8	3.7
313.15	30000	1365	3.8
313.15	40000	1412.6	3.9
313.15	50000	1457.9	4.1
313.15	60000	1500.4	4.2
313.15	70000	1540.7	4.2
313.15	80000	1578.9	4.3
313.15	90000	1615	4.4
313.15	100000	1650	4.5
323.15	100	1154.4	3.3
323.15	10000	1219.2	3.5
323.15	20000	1278.7	3.6
323.15	30000	1332.4	3.8
323.15	40000	1382.1	3.9
323.15	50000	1428.9	4
323.15	60000	1472.8	4.1
323.15	70000	1513.6	4.2
323.15	80000	1552.8	4.3
323.15	90000	1589.9	4.4
323.15	100000	1624.9	4.4
333.15	100	1115.7	3.3
333.15	10000	1183.6	3.4
333.15	20000	1245	3.6
333.15	30000	1300.4	3.7
333.15	40000	1351.9	3.8
333.15	50000	1399.7	3.9
333.15	60000	1444.4	4
333.15	70000	1486.1	4.1
333.15	80000	1525.6	4.2
333.15	90000	1563.8	4.3
333.15	100000	1599.9	4.4
343.15	100	1077.3	3.2
343.15	10000	1148	3.3
343.15	20000	1211.1	3.5
343.15	30000	1268.5	3.6
343.15	40000	1321.7	3.7
343.15	50000	1370.5	3.8
343.15	60000	1416	4
343.15	70000	1458.4	4.1
343.15	80000	1499.4	4.2
343.15	90000	1537.9	4.2
343.15	100000	1574.6	4.3
353.15	100	1037.7	3.1
353.15	10000	1111.6	3.2
353.15	20000	1177.7	3.4
353.15	30000	1236.9	3.5
353.15	40000	1291.4	3.7
353.15	50000	1342.1	3.8
353.15	60000	1387.8	3.9
353.15	70000	1431.2	4
353.15	80000	1472.7	4.1
353.15	90000	1511.9	4.2
353.15	100000	1549.3	4.3
363.15	100	998.2	3
363.15	10000	1076.2	3.2
363.15	20000	1144.6	3.3
363.15	30000	1205.4	3.5
363.15	40000	1261.4	3.6
363.15	50000	1312.6	3.7
363.15	60000	1359.8	3.8
363.15	70000	1404.8	3.9
363.15	80000	1446.9	4
363.15	90000	1486.5	4.1
363.15	100000	1524.4	4.2
373.15	100	957.7	2.9
373.15	10000	1039.5	3.1
373.15	20000	1110.9	3.2
373.15	30000	1174	3.4
373.15	40000	1231.1	3.5
373.15	50000	1283.7	3.6
373.15	60000	1332	3.8
373.15	70000	1377.5	3.9
373.15	80000	1420.3	4
373.15	90000	1461.1	4.1
373.15	100000	1499.3	4.2

System: 3-methyl-3-pentanol; phases: Liquid
Fixed: Pressure, kPa = 101.325
Property: Mass density, kg/m3 (Liquid); method: VIBTUB:UFactor:4
Temperature, K	Mass density, kg/m3	uncertainty
278.15	840.5	0.7
279.15	839.7	0.7
280.15	838.9	0.7
281.15	838.1	0.7
282.15	837.2	0.7
283.15	836.4	0.7
284.15	835.6	0.7
285.15	834.8	0.7
286.15	833.9	0.7
287.15	833.1	0.7
288.15	832.3	0.7
289.15	831.4	0.7
290.15	830.6	0.7
291.15	829.7	0.7
292.15	828.9	0.7
293.15	828	0.7
294.15	827.1	0.7
295.15	826.3	0.7
296.15	825.4	0.7
297.15	824.5	0.7
298.15	823.6	0.7
299.15	822.8	0.7
300.15	821.9	0.7
301.15	821	0.7
302.15	820.1	0.7
303.15	819.2	0.7
304.15	818.3	0.7
305.15	817.4	0.7
306.15	816.5	0.7
307.15	815.5	0.7
308.15	814.6	0.7
309.15	813.7	0.7
310.15	812.8	0.7
311.15	811.8	0.7
312.15	810.9	0.7
313.15	810	0.7
314.15	809	0.7
315.15	808.1	0.7
316.15	807.1	0.7
317.15	806.2	0.7
318.15	805.2	0.7
319.15	804.3	0.7
320.15	803.3	0.7
321.15	802.3	0.7
322.15	801.3	0.7
323.15	800.4	0.7
324.15	799.4	0.7
325.15	798.4	0.7
326.15	797.4	0.7
327.15	796.4	0.7
328.15	795.4	0.7
329.15	794.4	0.7
330.15	793.4	0.8
331.15	792.4	0.8
332.15	791.4	0.8
333.15	790.4	0.8
334.15	789.4	0.8
335.15	788.4	0.8
336.15	787.4	0.8
337.15	786.4	0.8
338.15	785.3	0.8
339.15	784.3	0.8
340.15	783.3	0.8
341.15	782.3	0.8
342.15	781.2	0.8
343.15	780.2	0.8
344.15	779.1	0.8
345.15	778.1	0.8
346.15	777.1	0.8
347.15	776	0.8
348.15	775	0.8
349.15	773.9	0.8
350.15	772.9	0.8
351.15	771.8	0.8
352.15	770.7	0.8
353.15	769.7	0.8
354.15	768.6	0.8
355.15	767.6	0.8
356.15	766.5	0.8
357.15	765.4	0.8
358.15	764.4	0.8
359.15	763.3	0.8
360.15	762.2	0.8
361.15	761.1	0.8
362.15	760.1	0.8
363.15	759	0.8
364.15	757.9	0.8
365.15	756.8	0.8
366.15	755.7	0.8
367.15	754.6	0.8
368.15	753.5	0.8
278.15	841	0.7
279.15	840.2	0.7
280.15	839.4	0.7
281.15	838.5	0.7
282.15	837.7	0.7
283.15	836.8	0.7
284.15	836	0.7
285.15	835.2	0.7
286.15	834.4	0.7
287.15	833.5	0.7
288.15	832.7	0.7
289.15	831.9	0.7
290.15	831	0.7
291.15	830.1	0.7
292.15	829.3	0.7
293.15	828.5	0.7
294.15	827.6	0.7
295.15	826.7	0.7
296.15	825.9	0.7
297.15	825	0.7
298.15	824.1	0.7
299.15	823.2	0.7
300.15	822.3	0.7
301.15	821.5	0.7
302.15	820.6	0.7
303.15	819.7	0.7
304.15	818.8	0.7
305.15	817.9	0.7
306.15	816.9	0.7
307.15	816	0.7
308.15	815.1	0.7
309.15	814.2	0.7
310.15	813.3	0.7
311.15	812.3	0.7
312.15	811.4	0.7
313.15	810.5	0.7
314.15	809.5	0.7
315.15	808.6	0.7
316.15	807.6	0.7
317.15	806.7	0.7
318.15	805.7	0.7
319.15	804.8	0.7
320.15	803.8	0.7
321.15	802.8	0.7
322.15	801.9	0.7
323.15	800.9	0.7
324.15	799.9	0.7
325.15	798.9	0.7
326.15	798	0.7
327.15	797	0.7
328.15	796	0.7
329.15	795	0.7
330.15	794	0.8
331.15	793	0.8
332.15	792	0.8
333.15	791	0.8
334.15	789.9	0.8
335.15	788.9	0.8
336.15	787.9	0.8
337.15	786.9	0.8
338.15	785.9	0.8

System: 3-pentanol; phases: Liquid
Property: Speed of sound, m/s (Liquid); method: PULSEH:UFactor:4
Temperature, K	Pressure, kPa	Speed of sound, m/s	uncertainty
303.15	100	1234.7	3.4
303.15	10000	1294	3.6
303.15	20000	1348.2	3.7
303.15	30000	1397.7	3.8
303.15	40000	1443.6	3.9
303.15	50000	1486.9	4
303.15	60000	1526	4.1
303.15	70000	1564.7	4.2
303.15	80000	1600.5	4.3
303.15	90000	1636.4	4.4
303.15	100000	1668.2	4.5
313.15	100	1194.7	3.3
313.15	10000	1257	3.5
313.15	20000	1313	3.6
313.15	30000	1364.7	3.7
313.15	40000	1411.9	3.8
313.15	50000	1456	4
313.15	60000	1498.1	4.1
313.15	70000	1537.4	4.2
313.15	80000	1574.5	4.2
313.15	90000	1610.2	4.3
313.15	100000	1644.1	4.4
323.15	100	1155.2	3.2
323.15	10000	1219.2	3.4
323.15	20000	1277.9	3.5
323.15	30000	1331	3.7
323.15	40000	1380.2	3.8
323.15	50000	1425.8	3.9
323.15	60000	1468.5	4
323.15	70000	1508.9	4.1
323.15	80000	1547.2	4.2
323.15	90000	1583.6	4.3
323.15	100000	1618.6	4.3
333.15	100	1115.9	3.1
333.15	10000	1182.2	3.3
333.15	20000	1243.1	3.4
333.15	30000	1298.2	3.6
333.15	40000	1348.6	3.7
333.15	50000	1395.9	3.8
333.15	60000	1439.4	3.9
333.15	70000	1480.7	4
333.15	80000	1519.8	4.1
333.15	90000	1556.9	4.2
333.15	100000	1592.2	4.3
343.15	100	1076.8	3
343.15	10000	1146.9	3.2
343.15	20000	1209.7	3.4
343.15	30000	1266.6	3.5
343.15	40000	1318.2	3.6
343.15	50000	1366.4	3.7
343.15	60000	1411.1	3.8
343.15	70000	1453.1	3.9
343.15	80000	1492.9	4
343.15	90000	1530.7	4.1
343.15	100000	1566.6	4.2
353.15	100	1036.7	3
353.15	10000	1110.4	3.1
353.15	20000	1176.2	3.3
353.15	30000	1234.1	3.4
353.15	40000	1287.8	3.6
353.15	50000	1337.3	3.7
353.15	60000	1383.1	3.8
353.15	70000	1425.8	3.9
353.15	80000	1466.6	4
353.15	90000	1505	4.1
353.15	100000	1541.4	4.2
363.15	100	997.3	2.9
363.15	10000	1075.3	3
363.15	20000	1143.2	3.2
363.15	30000	1203.5	3.3
363.15	40000	1258.2	3.5
363.15	50000	1308.3	3.6
363.15	60000	1355.1	3.7
363.15	70000	1399.6	3.8
363.15	80000	1440.8	3.9
363.15	90000	1479.7	4
363.15	100000	1516.9	4.1
373.15	100	957.2	2.8
373.15	10000	1038.9	3
373.15	20000	1109.6	3.1
373.15	30000	1171.5	3.3
373.15	40000	1228.3	3.4
373.15	50000	1280.1	3.5
373.15	60000	1328.2	3.6
373.15	70000	1373.1	3.8
373.15	80000	1415	3.9
373.15	90000	1454.6	4
373.15	100000	1492.5	4
