Measured thermophysical data. Experimental verification of ideality of 22Ne in 20Ne mixtures at the triple point  by means of certified artificial mixtures
Source: J. Chem. Thermodyn., 2013, 10.1016/j.jct.2013.01.011
Compound 1: neon-20, Ne, InChI=1S/Ne/i1+0, purity 99.99%
Compound 2: neon-22, Ne, InChI=1S/Ne/i1+2, purity 99.9%

System: neon-22 + neon-20; phases: Liquid, Crystal, Gas
Property: Triple point temperature, K (Liquid); method: Not specified calorimeter
Mole fraction of neon-22	Triple point temperature, K	uncertainty
0.062	24.551685	0.0001
0.092	24.556042	0.0001
0.166	24.566973	0.0001
