Measured thermophysical data. Standard molar enthalpies of formation of nickel(II) I2-diketonates and monothio-I2-diketonates
Source: J. Chem. Thermodyn., 2007, 10.1016/j.jct.2006.08.004
Compound 1: nickel, Ni, InChI=1S/Ni
Compound 2: hydrogen, H2, InChI=1S/H2/h1H
Compound 3: graphite, C
Compound 4: oxygen, O2, InChI=1S/O2/c1-2
Compound 5: sulfur, S, InChI=1S/S
Compound 6: fluorine, F2, InChI=1S/F2/c1-2
Compound 7: diaquabis(dibenzoylmethanato)nickel, C30H26NiO6, InChI=1S/2C15H11O2.Ni.2H2O/c2*16-14(12-7-3-1-4-8-12)11-15(17)13-9-5-2-6-10-13;;;/h2*1-11H;;2*1H2/q2*-1;+2;;
Compound 8: diaquabis(4,4,4-trifluoro-1-(2-thienyl)-1,3-butanedionato)nickel, C16H12F6NiO6S2, InChI=1S/2C8H4F3O2S.Ni.2H2O/c2*9-8(10,11)7(13)4-5(12)6-2-1-3-14-6;;;/h2*1-4H;;2*1H2/q2*-1;+2;;
Compound 9: bis(1,3-diphenyl-3-thioxo-1-propanonato-O,S)nickel, C30H22NiO2S2, InChI=1S/2C15H11OS.Ni/c2*16-14(12-7-3-1-4-8-12)11-15(17)13-9-5-2-6-10-13;/h2*1-11H;/q2*-1;+2
Compound 10: bis(1,1,1-trifluoro-4-(2-thienyl)-4-thioxo-2-butanonato)nickel, C16H8F6NiO2S4, InChI=1S/2C8H4F3OS2.Ni/c2*9-8(10,11)7(12)4-5(13)6-2-1-3-14-6;/h2*1-4H;/q2*-1;+2

System: bis(1,1,1-trifluoro-4-(2-thienyl)-4-thioxo-2-butanonato)nickel; phases: Crystal, Gas
Property: Molar enthalpy of vaporization or sublimation, kJ/mol (Crystal); method: Calorimetric determination
Temperature, K	Molar enthalpy of vaporization or sublimation, kJ/mol	uncertainty
298	161	10

System: bis(1,1,1-trifluoro-4-(2-thienyl)-4-thioxo-2-butanonato)nickel; phases: Gas
Property: Molar enthalpy, kJ/mol (Gas); method: vacuum sublimation calorimetry
Temperature, K	Pressure, kPa	Molar enthalpy, kJ/mol	uncertainty
488	101.3	256.6	10.6

Reaction: -1 nickel + 1 diaquabis(dibenzoylmethanato)nickel + -13 hydrogen + -30 graphite + -3 oxygen
Property: Molar enthalpy of reaction, kJ/mol
-993.3

Reaction: -1 nickel + -2 sulfur + 1 bis(1,3-diphenyl-3-thioxo-1-propanonato-O,S)nickel + -11 hydrogen + -30 graphite + -1 oxygen
Property: Molar enthalpy of reaction, kJ/mol
-42.1

Reaction: -1 nickel + -4 sulfur + -3 fluorine + 1 bis(1,1,1-trifluoro-4-(2-thienyl)-4-thioxo-2-butanonato)nickel + -4 hydrogen + -16 graphite + -1 oxygen
Property: Molar enthalpy of reaction, kJ/mol
-1473.5

Reaction: -1 nickel + -2 sulfur + -3 fluorine + 1 diaquabis(4,4,4-trifluoro-1-(2-thienyl)-1,3-butanedionato)nickel + -6 hydrogen + -16 graphite + -3 oxygen
Property: Molar enthalpy of reaction, kJ/mol
-2452
