Measured thermophysical data. (Liquid + liquid) equilibrium of (dibutyl ether + methanol + water) at different temperatures
Source: J. Chem. Thermodyn., 2005, 10.1016/j.jct.2005.01.004
Compound 1: water, H2O, InChI=1S/H2O/h1H2
Compound 2: dibutyl ether, C8H18O, InChI=1S/C8H18O/c1-3-5-7-9-8-6-4-2/h3-8H2,1-2H3
Compound 3: methanol, CH4O, InChI=1S/CH4O/c1-2/h2H,1H3

System: dibutyl ether; phases: Liquid
Property: Refractive index (Na D-line) (Liquid); method: Standard Abbe refractometry
Temperature, K	Pressure, kPa	Refractive index (Na D-line)	uncertainty
298.15	101.325	1.39668	0.00075

System: dibutyl ether; phases: Liquid
Property: Mass density, kg/m3 (Liquid); method: VIBTUB:UFactor:4
Temperature, K	Pressure, kPa	Mass density, kg/m3	uncertainty
298.15	101.325	763.95	0.75

System: methanol; phases: Liquid
Property: Refractive index (Na D-line) (Liquid); method: Standard Abbe refractometry
Temperature, K	Pressure, kPa	Refractive index (Na D-line)	uncertainty
298.15	101.325	1.3264	0.0007

System: methanol; phases: Liquid
Property: Mass density, kg/m3 (Liquid); method: VIBTUB:UFactor:4
Temperature, K	Pressure, kPa	Mass density, kg/m3	uncertainty
298.15	101.325	786.63	0.61

System: methanol + dibutyl ether + water; phases: Liquid mixture 2, Liquid mixture 1
Fixed: Pressure, kPa = 101.3
Property: Mole fraction of dibutyl ether (Liquid mixture 2); method: CHROM:UFactor:4
Property: Mole fraction of dibutyl ether (Liquid mixture 1); method: CHROM:UFactor:4
Property: Mole fraction of methanol (Liquid mixture 1); method: CHROM:UFactor:4
Temperature, K	Mole fraction of methanol	Mole fraction of dibutyl ether	uncertainty	Mole fraction of dibutyl ether	uncertainty	Mole fraction of methanol	uncertainty
298.15	0	0.9925	0.006	0.0001	0.0001	0	
298.15	0.0695	0.9134	0.0093	0.0003	0.0003	0.2321	
298.15	0.1019	0.8793	0.0095	0.0008	0.0008	0.3304	
308.15	0.2345	0.728	0.012	0.0116	0.0061	0.5524	
298.15	0.1259	0.8523	0.0101	0.002	0.002	0.3885	
298.15	0.1583	0.8139	0.0105	0.0049	0.0049	0.4622	
298.15	0.2484	0.7117	0.0122	0.0116	0.0061	0.5432	
298.15	0.3695	0.568	0.0155	0.0487	0.0067	0.6733	
308.15	0	0.9898	0.006	0.0001	0.0001	0	
308.15	0.0163	0.9733	0.0087	0.0001	0.0001	0.0523	
308.15	0.0323	0.9557	0.0086	0.0002	0.0002	0.112	
318.15	0.106	0.8739	0.0096	0.0011	0.0011	0.3239	
308.15	0.0463	0.9425	0.0092	0.0001	0.0001	0.1751	
308.15	0.0974	0.8829	0.0098	0.0004	0.0004	0.291	
308.15	0.1424	0.831	0.0102	0.0029	0.0029	0.4096	
308.15	0.4063	0.5234	0.0165	0.0467	0.0069	0.6605	
298.15	0.0136	0.9741	0.0094	0.0001	0.0001	0.0539	
308.15	0.5117	0.3903	0.0147	0.0967	0.0089	0.7035	
318.15	0	0.9904	0.006	0.0001	0.0001	0	
318.15	0.0167	0.9713	0.0089	0.0001	0.0001	0.0544	
318.15	0.0295	0.9584	0.0089	0.0001	0.0001	0.1129	
318.15	0.0597	0.9248	0.0092	0.0002	0.0002	0.184	
318.15	0.1341	0.8438	0.01	0.0026	0.0026	0.4005	
298.15	0.2856	0.6712	0.0132	0.0256	0.0063	0.6184	
318.15	0.1881	0.7837	0.0111	0.0082	0.006	0.5173	
318.15	0.3017	0.6473	0.0138	0.0222	0.0064	0.6136	
318.15	0.4927	0.4121	0.015	0.0764	0.0073	0.7074	
298.15	0.0245	0.9632	0.0085	0.0001	0.0001	0.0917	
298.15	0.0402	0.9481	0.0091	0.0002	0.0002	0.1505	

System: dibutyl ether + water; phases: Liquid mixture 2, Liquid mixture 1
Fixed: Pressure, kPa = 101.3
Property: Mole fraction of dibutyl ether (Liquid mixture 2); method: CHROM:UFactor:4
Temperature, K	Mole fraction of dibutyl ether	uncertainty
298.15	0.9925	0.006
318.15	0.9904	0.006
308.15	0.9898	0.006

System: dibutyl ether + water; phases: Liquid mixture 1, Liquid mixture 2
Fixed: Pressure, kPa = 101.3
Property: Mole fraction of dibutyl ether (Liquid mixture 1); method: CHROM:UFactor:4
Temperature, K	Mole fraction of dibutyl ether	uncertainty
298.15	0.0001	0.0001
318.15	0.0001	0.0001
308.15	0.0001	0.0001
