Measured thermophysical data. Phase equilibrium data and thermodynamic modelling of the system (propane + DMF + methanol) at high pressures
Source: J. Chem. Thermodyn., 2011, 10.1016/j.jct.2010.10.014
Compound 1: methanol, CH4O, InChI=1S/CH4O/c1-2/h2H,1H3, purity 99.8%
Compound 2: dimethylformamide, C3H7NO, InChI=1S/C3H7NO/c1-4(2)3-5/h3H,1-2H3, purity 99.8%
Compound 3: propane, C3H8, InChI=1S/C3H8/c1-3-2/h3H2,1-2H3, purity 99.5%

System: dimethylformamide + propane; phases: Liquid mixture 1, Liquid mixture 2, Gas
Property: Vapor or sublimation pressure, kPa (Liquid mixture 1); method: Closed cell (Static) method
Mole fraction of propane	Vapor or sublimation pressure, kPa	uncertainty
0.5	3280	20
0.5	3760	30
0.5	4270	50
0.6	3300	20
0.6	3810	40
0.6	4240	20
0.7	3250	20
0.7	3710	40
0.7	4240	40
0.75	3260	20
0.75	3740	20
0.75	4220	40
0.8	3240	40
0.8	3800	20
0.8	4210	20
0.85	3230	20
0.85	3770	40
0.85	4210	60
0.9	3270	20
0.9	3810	50
0.9	4250	90

System: dimethylformamide + propane; phases: Liquid mixture 1, Liquid mixture 2, Gas
Property: Vapor or sublimation pressure, kPa (Liquid mixture 1); method: Closed cell (Static) method
Temperature, K	Vapor or sublimation pressure, kPa	uncertainty
363.15	3280	20
363.15	3300	20
363.15	3250	20
363.15	3260	20
363.15	3240	40
363.15	3230	30
363.15	3270	20
373.15	3760	30
373.15	3810	40
373.15	3710	40
373.15	3740	30
373.15	3800	30
373.15	3770	40
373.15	3810	30
383.15	4270	30
383.15	4240	30
383.15	4240	40
383.15	4220	40
383.15	4210	30
383.15	4210	60
383.15	4250	40

System: dimethylformamide + propane; phases: Gas, Liquid
Fixed: Mole fraction of propane = 0.995
Property: Vapor or sublimation pressure, kPa (Gas); method: Closed cell (Static) method
Temperature, K	Vapor or sublimation pressure, kPa	uncertainty
363.15	3310	30
373.15	4010	30

System: dimethylformamide + propane; phases: Liquid mixture 1, Liquid mixture 2
Property: Vapor or sublimation pressure, kPa (Liquid mixture 1); method: Closed cell (Static) method
Temperature, K	Mole fraction of propane	Vapor or sublimation pressure, kPa	uncertainty
363.15	0.5	6890	90
363.15	0.6	8730	110
363.15	0.7	10790	120
363.15	0.75	11470	70
363.15	0.8	11480	120
363.15	0.85	9800	260
363.15	0.9	5900	320
373.15	0.5	5280	80
373.15	0.6	6890	90
373.15	0.7	8420	90
373.15	0.75	8890	90
373.15	0.8	8740	90
373.15	0.85	7360	170
373.15	0.9	5120	180
383.15	0.5	4560	50
383.15	0.6	5600	80
383.15	0.7	7160	70
383.15	0.75	7440	100
383.15	0.8	7350	80
383.15	0.85	6370	140
383.15	0.9	4620	110
393.15	0.6	5830	50
393.15	0.7	6630	50
393.15	0.75	6840	30
393.15	0.8	6690	50
393.15	0.85	6340	60
393.15	0.9	5540	80
393.15	0.95	4770	120

System: dimethylformamide + propane; phases: Liquid, Gas
Property: Vapor or sublimation pressure, kPa (Liquid); method: Closed cell (Static) method
Temperature, K	Mole fraction of propane	Vapor or sublimation pressure, kPa	uncertainty
363.15	0.1	2270	30
363.15	0.35	3280	40
363.15	0.95	3300	50
363.15	0.98	3450	50
363.15	0.99	3610	70
373.15	0.1	2290	50
373.15	0.35	3540	40
373.15	0.95	3730	70
373.15	0.98	4120	90
373.15	0.99	4430	110
383.15	0.1	2310	30
383.15	0.35	3780	40
383.15	0.95	4230	20
393.15	0.1	2280	50
393.15	0.35	4040	50

System: methanol + dimethylformamide + propane; phases: Liquid mixture 1, Liquid mixture 2, Gas
Property: Vapor or sublimation pressure, kPa (Liquid mixture 1); method: Closed cell (Static) method
Solvent: Amount ratio of component to other component of binary solvent of dimethylformamide	Temperature, K	Vapor or sublimation pressure, kPa	uncertainty
1	363.15	3290	40
1	373.15	3840	40
1	383.15	4470	40
1	363.15	3280	40
1	373.15	3850	40
1	383.15	4530	40
1	363.15	3320	30
1	373.15	3820	30
1	383.15	4390	30
1	363.15	3300	30
1	373.15	3850	40
1	383.15	4450	20
1	363.15	3270	40
2	363.15	3390	40
2	373.15	3830	40
2	383.15	4470	80
2	363.15	3450	40
2	373.15	3970	40
2	383.15	4500	30
2	363.15	3380	20
2	373.15	3990	30
2	383.15	4460	40
2	363.15	3400	40
2	373.15	3930	40
2	383.15	4530	30
2	363.15	3420	20
2	373.15	3970	30
2	383.15	4510	40
2	363.15	3390	20
2	373.15	3960	30

System: methanol + dimethylformamide + propane; phases: Liquid mixture 1, Liquid mixture 2, Gas
Property: Vapor or sublimation pressure, kPa (Liquid mixture 1); method: Closed cell (Static) method
Solvent: Amount ratio of component to other component of binary solvent of dimethylformamide	Mole fraction of propane	Vapor or sublimation pressure, kPa	uncertainty
1	0.5	3290	40
1	0.6	3280	40
1	0.7	3320	20
1	0.8	3300	20
1	0.85	3270	40
1	0.6	3840	40
1	0.7	3850	40
1	0.8	3820	20
1	0.85	3850	60
1	0.6	4470	40
1	0.7	4530	40
1	0.8	4390	20
1	0.85	4450	90
2	0.5	3390	40
2	0.6	3450	40
2	0.7	3380	20
2	0.75	3400	40
2	0.8	3420	20
2	0.85	3390	20
2	0.5	3830	40
2	0.6	3970	40
2	0.7	3990	20
2	0.75	3930	40
2	0.8	3970	20
2	0.85	3960	50
2	0.6	4470	80
2	0.7	4500	20
2	0.75	4460	40
2	0.8	4530	20
2	0.85	4510	100

System: methanol + dimethylformamide + propane; phases: Liquid mixture 1, Liquid mixture 2
Property: Vapor or sublimation pressure, kPa (Liquid mixture 1); method: Closed cell (Static) method
Solvent: Amount ratio of component to other component of binary solvent of dimethylformamide	Temperature, K	Mole fraction of propane	Vapor or sublimation pressure, kPa	uncertainty
1	363.15	0.5	3440	30
1	363.15	0.6	3800	60
1	363.15	0.7	4100	60
1	363.15	0.8	4320	40
1	363.15	0.85	3790	70
1	373.15	0.6	3940	40
1	373.15	0.7	4420	60
1	373.15	0.8	4490	80
1	373.15	0.85	4190	30
1	383.15	0.6	4640	50
1	383.15	0.7	5000	40
1	383.15	0.8	5230	80
1	383.15	0.85	4700	600
1	393.15	0.6	5700	60
1	393.15	0.7	5830	30
1	393.15	0.8	5850	40
1	393.15	0.85	5390	60
2	363.15	0.5	4440	50
2	363.15	0.6	5190	70
2	363.15	0.7	5810	80
2	363.15	0.75	5760	60
2	363.15	0.8	5350	80
2	363.15	0.85	4320	90
2	373.15	0.5	4190	50
2	373.15	0.6	4980	60
2	373.15	0.7	5280	40
2	373.15	0.75	5430	70
2	373.15	0.8	5180	90
2	373.15	0.85	4650	60
2	383.15	0.6	4870	20
2	383.15	0.7	5280	50
2	383.15	0.75	5550	70
2	383.15	0.8	5450	50
2	383.15	0.85	4930	60
2	393.15	0.6	5680	40
2	393.15	0.7	5860	30
2	393.15	0.75	5860	40
2	393.15	0.8	5750	30
2	393.15	0.85	5320	100
2	393.15	0.92	4890	50

System: methanol + dimethylformamide + propane; phases: Liquid, Gas
Property: Vapor or sublimation pressure, kPa (Liquid); method: Closed cell (Static) method
Solvent: Amount ratio of component to other component of binary solvent of dimethylformamide	Temperature, K	Mole fraction of propane	Vapor or sublimation pressure, kPa	uncertainty
1	363.15	0.1	1690	60
1	373.15	0.1	1830	60
1	373.15	0.5	3750	80
1	383.15	0.1	1860	50
1	383.15	0.5	4380	50
1	393.15	0.1	1880	50
1	393.15	0.5	5180	60
2	363.15	0.1	1720	40
2	363.15	0.92	3270	30
2	373.15	0.1	1840	40
2	373.15	0.92	3870	30
2	383.15	0.1	1880	30
2	383.15	0.5	4380	40
2	383.15	0.92	4450	30
2	393.15	0.1	1970	40
2	393.15	0.5	5290	60
