Measured thermophysical data. Soluting-out effect of carbohydrates on the surface active ionic liquid 1-decyl-3-methylimidazolium bromide in aqueous solutions
Source: J. Chem. Thermodyn., 2018, 10.1016/j.jct.2017.08.027
Compound 1: 1-decyl-3-methylimidazolium bromide, C14H27BrN2, InChI=1S/C14H27N2.BrH/c1-3-4-5-6-7-8-9-10-11-16-13-12-15(2)14-16;/h12-14H,3-11H2,1-2H3;1H/q+1;/p-1
Compound 2: water, H2O, InChI=1S/H2O/h1H2
Compound 3: D-xylose, C5H10O5, InChI=1S/C5H10O5/c6-1-3(8)5(10)4(9)2-7/h1,3-5,7-10H,2H2/t3-,4+,5+/m0/s1, purity 99%
Compound 4: D-ribose, C5H10O5, InChI=1S/C5H10O5/c6-1-3(8)5(10)4(9)2-7/h1,3-5,7-10H,2H2/t3-,4+,5-/m0/s1, purity 99%
Compound 5: L-arabinose, C5H10O5, InChI=1S/C5H10O5/c6-1-3(8)5(10)4(9)2-7/h1,3-5,7-10H,2H2/t3-,4-,5+/m0/s1, purity 99%
Compound 6: D-glucose, C6H12O6, InChI=1S/C6H12O6/c7-1-3(9)5(11)6(12)4(10)2-8/h1,3-6,8-12H,2H2/t3-,4+,5+,6+/m0/s1, purity 99.5%
Compound 7: D-mannose, C6H12O6, InChI=1S/C6H12O6/c7-1-3(9)5(11)6(12)4(10)2-8/h1,3-6,8-12H,2H2/t3-,4-,5-,6-/m1/s1, purity 98%
Compound 8: D-sucrose, C12H22O11, InChI=1S/C12H22O11/c13-1-4-6(16)8(18)9(19)11(21-4)23-12(3-15)10(20)7(17)5(2-14)22-12/h4-11,13-20H,1-3H2/t4-,5-,6-,7-,8+,9-,10+,11-,12+/m1/s1, purity 98%
Compound 9: 4-O-.beta.-D-galactopyranosyl-D-glucose, C12H22O11, InChI=1S/C12H22O11/c13-1-4(16)7(18)11(5(17)2-14)23-12-10(21)9(20)8(19)6(3-15)22-12/h1,4-12,14-21H,2-3H2/t4-,5+,6+,7+,8-,9-,10+,11+,12-/m0/s1, purity 98%
Compound 10: D-raffinose, C18H32O16, InChI=1S/C18H32O16/c19-1-5-8(22)11(25)13(27)16(31-5)30-3-7-9(23)12(26)14(28)17(32-7)34-18(4-21)15(29)10(24)6(2-20)33-18/h5-17,19-29H,1-4H2/t5-,6-,7-,8+,9-,10-,11+,12+,13-,14-,15+,16+,17-,18+/m1/s1, purity 97%

System: L-arabinose + water + 1-decyl-3-methylimidazolium bromide; phases: Liquid
Fixed: Solvent: Molality, mol/kg of L-arabinose = 0.5
Fixed: Pressure, kPa = 86
Fixed: Temperature, K = 298.15
Property: Electrical conductivity, S/m (Liquid); method: Alternating current cell with electrodes
Molality, mol/kg of 1-decyl-3-methylimidazolium bromide	Electrical conductivity, S/m	uncertainty
0	0.004254	0.008
0.000168	0.00584	0.008
0.000476	0.008653	0.008
0.000786	0.01139	0.008
0.00127	0.01556	0.008
0.00206	0.02251	0.00801
0.00303	0.0306	0.00802
0.00417	0.03994	0.00803
0.00548	0.05045	0.00805
0.0069	0.0616	0.00807
0.00848	0.0739	0.00811
0.01	0.08587	0.00814
0.0118	0.09886	0.00819
0.0134	0.1114	0.0082
0.0153	0.125	0.0083
0.0168	0.136	0.0084
0.0183	0.1468	0.0084
0.0198	0.1577	0.0085
0.0213	0.1686	0.0086
0.0229	0.1803	0.0086
0.0245	0.1912	0.0087
0.0263	0.2033	0.0088
0.028	0.2152	0.0089
0.0297	0.2266	0.0089
0.0315	0.2382	0.009
0.0332	0.2491	0.0091
0.0348	0.2597	0.0091
0.0364	0.2693	0.009
0.038	0.2781	0.0089
0.0397	0.2862	0.0086
0.0415	0.2926	0.0085
0.0433	0.2985	0.0084
0.0451	0.3034	0.0084
0.047	0.3084	0.0084
0.049	0.3134	0.0083
0.0513	0.3186	0.0083
0.0537	0.3243	0.0084
0.0562	0.3299	0.0084
0.0587	0.3353	0.0084
0.0614	0.3412	0.0084
0.0642	0.3473	0.0085
0.067	0.3532	0.0085

System: L-arabinose + water + 1-decyl-3-methylimidazolium bromide; phases: Liquid, Air at 1 atmosphere
Fixed: Solvent: Molality, mol/kg of L-arabinose = 0.5
Fixed: Temperature, K = 298.15
Property: Surface tension liquid-gas, N/m (Liquid); method: wilhelmy plate
Molality, mol/kg of 1-decyl-3-methylimidazolium bromide	Surface tension liquid-gas, N/m	uncertainty
0	0.072922	0.000567
0.0036	0.062387	0.000563
0.0099	0.055465	0.000588
0.0121	0.052132	0.000635
0.0151	0.04812	0.000574
0.0244	0.042613	0.000581
0.0298	0.040709	0.000554
0.0342	0.039585	0.000534
0.0373	0.039434	0.000526
0.0403	0.040213	0.000531
0.0442	0.040341	0.000522
0.051	0.040452	0.000522
0.0865	0.040044	0.000522
0.1372	0.039402	0.000521
0.1929	0.039145	0.000521
0.2771	0.03857	0.000521

System: L-arabinose + water + 1-decyl-3-methylimidazolium bromide; phases: Liquid
Fixed: Pressure, kPa = 86
Fixed: Solvent: Molality, mol/kg of L-arabinose = 0.5
Property: Mass density, kg/m3 (Liquid); method: Vibrating tube method
Temperature, K	Molality, mol/kg of 1-decyl-3-methylimidazolium bromide	Mass density, kg/m3	uncertainty
288.15	0	1026.698	0.208
288.15	0.01442	1027.219	0.205
288.15	0.0192	1027.381	0.206
288.15	0.02499	1027.584	0.206
288.15	0.02925	1027.732	0.206
288.15	0.03358	1027.883	0.207
288.15	0.03698	1027.993	0.207
288.15	0.04177	1028.145	0.207
288.15	0.04583	1028.261	0.207
288.15	0.05197	1028.427	0.207
288.15	0.08734	1029.392	0.211
288.15	0.13804	1030.734	0.219
288.15	0.19488	1032.204	0.23
288.15	0.25075	1033.609	0.243
288.15	0.27984	1034.331	0.247
288.15	0.36636	1036.382	0.271
293.15	0	1025.555	0.208
293.15	0.01442	1026.035	0.205
293.15	0.0192	1026.184	0.205
293.15	0.02499	1026.377	0.205
293.15	0.02925	1026.521	0.206
293.15	0.03358	1026.668	0.206
293.15	0.03698	1026.767	0.206
293.15	0.04177	1026.917	0.206
293.15	0.04583	1027.03	0.207
293.15	0.05197	1027.19	0.206
293.15	0.08734	1028.12	0.21
293.15	0.13804	1029.417	0.217
293.15	0.19488	1030.836	0.228
293.15	0.25075	1032.194	0.239
293.15	0.27984	1032.889	0.245
293.15	0.36636	1034.871	0.264
298.15	0	1024.149	0.207
298.15	0.01442	1024.607	0.204
298.15	0.0192	1024.754	0.205
298.15	0.02499	1024.939	0.205
298.15	0.02925	1025.077	0.205
298.15	0.03358	1025.215	0.205
298.15	0.03698	1025.312	0.206
298.15	0.04177	1025.455	0.206
298.15	0.04583	1025.564	0.206
298.15	0.05197	1025.718	0.205
298.15	0.08734	1026.62	0.21
298.15	0.13804	1027.874	0.216
298.15	0.19488	1029.25	0.226
298.15	0.25075	1030.563	0.237
298.15	0.27984	1031.238	0.242
298.15	0.36636	1033.154	0.26
303.15	0	1022.532	0.206
303.15	0.01442	1022.971	0.204
303.15	0.0192	1023.108	0.204
303.15	0.02499	1023.288	0.204
303.15	0.02925	1023.421	0.205
303.15	0.03358	1023.553	0.205
303.15	0.03698	1023.645	0.205
303.15	0.04177	1023.787	0.205
303.15	0.04583	1023.893	0.205
303.15	0.05197	1024.042	0.206
303.15	0.08734	1024.917	0.209
303.15	0.13804	1026.132	0.215
303.15	0.19488	1027.463	0.224
303.15	0.25075	1028.737	0.235
303.15	0.27984	1029.39	0.239
303.15	0.36636	1031.249	0.26

System: L-arabinose + water + 1-decyl-3-methylimidazolium bromide; phases: Liquid
Fixed: Pressure, kPa = 86
Fixed: Solvent: Molality, mol/kg of L-arabinose = 0.5
Fixed: Frequency, MHz = 3
Property: Speed of sound, m/s (Liquid); method: Single path-length method
Temperature, K	Molality, mol/kg of 1-decyl-3-methylimidazolium bromide	Speed of sound, m/s	uncertainty
288.15	0	1498.44	0.89
288.15	0.01442	1501.69	0.89
288.15	0.0192	1502.68	0.89
288.15	0.02499	1503.94	0.9
288.15	0.02925	1504.83	0.9
288.15	0.03358	1505.72	0.9
288.15	0.03698	1506.32	0.9
288.15	0.04177	1506.93	0.89
288.15	0.04583	1507.12	0.89
288.15	0.05197	1507.21	0.89
288.15	0.08734	1507.84	0.89
288.15	0.13804	1508.73	0.89
288.15	0.19488	1509.63	0.89
288.15	0.25075	1510.64	0.89
288.15	0.27984	1511.15	0.89
288.15	0.36636	1512.76	0.9
293.15	0	1512.95	0.89
293.15	0.01442	1515.76	0.89
293.15	0.0192	1516.68	0.89
293.15	0.02499	1517.86	0.89
293.15	0.02925	1518.61	0.9
293.15	0.03358	1519.4	0.9
293.15	0.03698	1520.03	0.9
293.15	0.04177	1520.51	0.89
293.15	0.04583	1520.63	0.89
293.15	0.05197	1520.68	0.89
293.15	0.08734	1521.12	0.89
293.15	0.13804	1521.5	0.89
293.15	0.19488	1522.05	0.89
293.15	0.25075	1522.51	0.89
293.15	0.27984	1522.88	0.89
293.15	0.36636	1523.77	0.89
298.15	0	1525.7	0.89
298.15	0.01442	1528.25	0.89
298.15	0.0192	1529.06	0.89
298.15	0.02499	1530.09	0.89
298.15	0.02925	1530.79	0.89
298.15	0.03358	1531.5	0.89
298.15	0.03698	1532.06	0.89
298.15	0.04177	1532.5	0.89
298.15	0.04583	1532.58	0.89
298.15	0.05197	1532.6	0.89
298.15	0.08734	1532.75	0.89
298.15	0.13804	1532.72	0.89
298.15	0.19488	1532.75	0.89
298.15	0.25075	1532.81	0.89
298.15	0.27984	1532.89	0.89
298.15	0.36636	1533.16	0.89
303.15	0	1536.7	0.89
303.15	0.01442	1538.97	0.89
303.15	0.0192	1539.84	0.89
303.15	0.02499	1540.61	0.89
303.15	0.02925	1541.25	0.89
303.15	0.03358	1541.87	0.89
303.15	0.03698	1542.37	0.89
303.15	0.04177	1542.79	0.89
303.15	0.04583	1542.86	0.89
303.15	0.05197	1542.86	0.89
303.15	0.08734	1542.74	0.89
303.15	0.13804	1542.29	0.89
303.15	0.19488	1541.87	0.89
303.15	0.25075	1541.49	0.89
303.15	0.27984	1541.35	0.89
303.15	0.36636	1540.95	0.89

System: D-xylose + water + 1-decyl-3-methylimidazolium bromide; phases: Liquid
Fixed: Solvent: Molality, mol/kg of D-xylose = 0.5
Fixed: Pressure, kPa = 86
Fixed: Temperature, K = 298.15
Property: Electrical conductivity, S/m (Liquid); method: Alternating current cell with electrodes
Molality, mol/kg of 1-decyl-3-methylimidazolium bromide	Electrical conductivity, S/m	uncertainty
0	0.000286	0.008
0.00021	0.002132	0.008
0.00064	0.006169	0.008001
0.00125	0.01162	0.008
0.00209	0.019	0.00801
0.00311	0.02768	0.00802
0.00414	0.03626	0.00803
0.00516	0.0446	0.00804
0.00639	0.05455	0.00807
0.00765	0.06452	0.00809
0.00908	0.07574	0.00812
0.0107	0.0883	0.00816
0.0126	0.1023	0.0082
0.0144	0.1158	0.0083
0.0161	0.1288	0.0083
0.0179	0.1418	0.0084
0.0197	0.1544	0.0085
0.0214	0.167	0.0086
0.023	0.1778	0.0086
0.0245	0.1882	0.0087
0.0257	0.1971	0.0088
0.0272	0.2074	0.0088
0.0289	0.219	0.0089
0.0308	0.2316	0.009
0.0325	0.2426	0.0091
0.0341	0.2533	0.0092
0.0357	0.2637	0.0091
0.0374	0.2737	0.009
0.039	0.2821	0.0088
0.0407	0.2897	0.0086
0.0425	0.2958	0.0085
0.0444	0.3019	0.0084
0.0465	0.3077	0.0084
0.0485	0.3128	0.0084
0.0506	0.318	0.0084
0.053	0.3236	0.0084
0.0556	0.3294	0.0084
0.0584	0.3355	0.0084
0.0611	0.3414	0.0084
0.0639	0.3474	0.0084
0.0668	0.3532	0.0084

System: D-xylose + water + 1-decyl-3-methylimidazolium bromide; phases: Liquid, Air at 1 atmosphere
Fixed: Solvent: Molality, mol/kg of D-xylose = 0.5
Fixed: Temperature, K = 298.15
Property: Surface tension liquid-gas, N/m (Liquid); method: wilhelmy plate
Molality, mol/kg of 1-decyl-3-methylimidazolium bromide	Surface tension liquid-gas, N/m	uncertainty
0	0.07253	0.000566
0.0057	0.062345	0.000584
0.0091	0.056934	0.000601
0.0149	0.049102	0.000584
0.025	0.043508	0.000607
0.0296	0.039954	0.000613
0.034	0.038611	0.00053
0.0371	0.038914	0.00053
0.0402	0.03949	0.000541
0.0439	0.04015	0.000524
0.0518	0.040255	0.000522
0.087	0.039959	0.000521
0.1377	0.03945	0.000521
0.1941	0.039312	0.000521
0.2803	0.038848	0.000521

System: D-xylose + water + 1-decyl-3-methylimidazolium bromide; phases: Liquid
Fixed: Pressure, kPa = 86
Fixed: Solvent: Molality, mol/kg of D-xylose = 0.5
Property: Mass density, kg/m3 (Liquid); method: Vibrating tube method
Temperature, K	Molality, mol/kg of 1-decyl-3-methylimidazolium bromide	Mass density, kg/m3	uncertainty
288.15	0	1025.585	0.208
288.15	0.01989	1026.293	0.205
288.15	0.02515	1026.48	0.206
288.15	0.03001	1026.647	0.206
288.15	0.03368	1026.773	0.206
288.15	0.03707	1026.891	0.207
288.15	0.04216	1027.069	0.207
288.15	0.04658	1027.186	0.207
288.15	0.05223	1027.359	0.208
288.15	0.08808	1028.359	0.211
288.15	0.13827	1029.725	0.219
288.15	0.19578	1031.245	0.23
288.15	0.25014	1032.64	0.243
288.15	0.279	1033.364	0.248
288.15	0.36636	1035.49	0.274
293.15	0	1024.459	0.208
293.15	0.01989	1025.136	0.205
293.15	0.02515	1025.313	0.205
293.15	0.03001	1025.475	0.205
293.15	0.03368	1025.597	0.206
293.15	0.03707	1025.707	0.206
293.15	0.04216	1025.879	0.206
293.15	0.04658	1025.995	0.206
293.15	0.05223	1026.159	0.205
293.15	0.08808	1027.128	0.21
293.15	0.13827	1028.45	0.218
293.15	0.19578	1029.914	0.228
293.15	0.25014	1031.261	0.24
293.15	0.279	1031.962	0.246
293.15	0.36636	1034.017	0.266
298.15	0	1023.097	0.207
298.15	0.01989	1023.748	0.204
298.15	0.02515	1023.916	0.205
298.15	0.03001	1024.072	0.205
298.15	0.03368	1024.189	0.205
298.15	0.03707	1024.296	0.206
298.15	0.04216	1024.463	0.206
298.15	0.04658	1024.572	0.206
298.15	0.05223	1024.735	0.205
298.15	0.08808	1025.671	0.21
298.15	0.13827	1026.951	0.216
298.15	0.19578	1028.368	0.227
298.15	0.25014	1029.672	0.237
298.15	0.279	1030.351	0.243
298.15	0.36636	1032.339	0.263
303.15	0	1021.524	0.205
303.15	0.01989	1022.15	0.204
303.15	0.02515	1022.313	0.204
303.15	0.03001	1022.461	0.204
303.15	0.03368	1022.574	0.204
303.15	0.03707	1022.677	0.205
303.15	0.04216	1022.839	0.205
303.15	0.04658	1022.945	0.205
303.15	0.05223	1023.101	0.206
303.15	0.08808	1024.011	0.209
303.15	0.13827	1025.253	0.215
303.15	0.19578	1026.628	0.225
303.15	0.25014	1027.89	0.236
303.15	0.279	1028.547	0.24
303.15	0.36636	1030.476	0.262

System: D-xylose + water + 1-decyl-3-methylimidazolium bromide; phases: Liquid
Fixed: Pressure, kPa = 86
Fixed: Solvent: Molality, mol/kg of D-xylose = 0.5
Fixed: Frequency, MHz = 3
Property: Speed of sound, m/s (Liquid); method: Single path-length method
Temperature, K	Molality, mol/kg of 1-decyl-3-methylimidazolium bromide	Speed of sound, m/s	uncertainty
288.15	0	1494.59	0.89
288.15	0.01989	1498.96	0.89
288.15	0.02515	1500.18	0.9
288.15	0.03001	1501.17	0.9
288.15	0.03368	1502	0.9
288.15	0.03707	1502.64	0.9
288.15	0.04216	1503.31	0.89
288.15	0.04658	1503.5	0.89
288.15	0.05223	1503.71	0.89
288.15	0.08808	1504.28	0.89
288.15	0.13827	1505.2	0.89
288.15	0.19578	1506.14	0.89
288.15	0.25014	1507.17	0.89
288.15	0.279	1507.69	0.89
288.15	0.36636	1509.33	0.9
293.15	0	1509.25	0.89
293.15	0.01989	1513.21	0.89
293.15	0.02515	1514.2	0.89
293.15	0.03001	1515.18	0.9
293.15	0.03368	1515.83	0.9
293.15	0.03707	1516.43	0.9
293.15	0.04216	1517	0.89
293.15	0.04658	1517.14	0.89
293.15	0.05223	1517.32	0.89
293.15	0.08808	1517.71	0.89
293.15	0.13827	1518.11	0.89
293.15	0.19578	1518.61	0.89
293.15	0.25014	1519.15	0.89
293.15	0.279	1519.45	0.89
293.15	0.36636	1520.41	0.89
298.15	0	1522.18	0.89
298.15	0.01989	1525.75	0.89
298.15	0.02515	1526.66	0.89
298.15	0.03001	1527.54	0.89
298.15	0.03368	1528.11	0.89
298.15	0.03707	1528.65	0.89
298.15	0.04216	1529.16	0.89
298.15	0.04658	1529.28	0.89
298.15	0.05223	1529.43	0.89
298.15	0.08808	1529.52	0.89
298.15	0.13827	1529.51	0.89
298.15	0.19578	1529.55	0.89
298.15	0.25014	1529.64	0.89
298.15	0.279	1529.71	0.89
298.15	0.36636	1530	0.89
303.15	0	1533.38	0.89
303.15	0.01989	1536.57	0.89
303.15	0.02515	1537.38	0.89
303.15	0.03001	1538.15	0.89
303.15	0.03368	1538.66	0.89
303.15	0.03707	1539.14	0.89
303.15	0.04216	1539.61	0.89
303.15	0.04658	1539.73	0.89
303.15	0.05223	1539.84	0.89
303.15	0.08808	1539.66	0.89
303.15	0.13827	1539.25	0.89
303.15	0.19578	1538.84	0.89
303.15	0.25014	1538.5	0.89
303.15	0.279	1538.35	0.89
303.15	0.36636	1537.98	0.89

System: D-ribose + water + 1-decyl-3-methylimidazolium bromide; phases: Liquid
Fixed: Solvent: Molality, mol/kg of D-ribose = 0.5
Fixed: Pressure, kPa = 86
Fixed: Temperature, K = 298.15
Property: Electrical conductivity, S/m (Liquid); method: Alternating current cell with electrodes
Molality, mol/kg of 1-decyl-3-methylimidazolium bromide	Electrical conductivity, S/m	uncertainty
0	0.003872	0.008
0.000206	0.005513	0.008
0.000393	0.007193	0.008
0.000586	0.008907	0.008001
0.000773	0.01053	0.008
0.000957	0.01213	0.008
0.00115	0.01381	0.008
0.00135	0.01546	0.008
0.0017	0.0188	0.00801
0.00207	0.02193	0.00801
0.00263	0.02667	0.00801
0.00356	0.03449	0.00802
0.00467	0.04383	0.00804
0.00599	0.05462	0.00806
0.00727	0.06503	0.00808
0.00876	0.07681	0.00811
0.0106	0.09082	0.00817
0.0123	0.1044	0.0082
0.0138	0.1151	0.0082
0.0152	0.1254	0.0083
0.0166	0.1359	0.0084
0.0179	0.1457	0.0084
0.0193	0.1555	0.0085
0.0207	0.1655	0.0086
0.022	0.1752	0.0086
0.0233	0.1844	0.0086
0.0246	0.1934	0.0087
0.0259	0.2021	0.0088
0.0272	0.2112	0.0088
0.0286	0.2205	0.0089
0.03	0.2303	0.009
0.0314	0.2398	0.009
0.0328	0.2491	0.0091
0.0342	0.2584	0.0091
0.0355	0.266	0.0092
0.0368	0.2748	0.0093
0.0379	0.2813	0.0091
0.0393	0.2891	0.009
0.0407	0.2961	0.0089
0.042	0.302	0.0087
0.0435	0.3078	0.0086
0.0453	0.3135	0.0085
0.0464	0.3169	0.0084
0.0483	0.3219	0.0084
0.0502	0.327	0.0084
0.0523	0.3323	0.0084
0.0546	0.3378	0.0084
0.0571	0.3436	0.0084
0.0595	0.349	0.0084
0.0619	0.3543	0.0085
0.0643	0.3596	0.0085
0.0667	0.3648	0.0085

System: D-ribose + water + 1-decyl-3-methylimidazolium bromide; phases: Liquid, Air at 1 atmosphere
Fixed: Solvent: Molality, mol/kg of D-ribose = 0.5
Fixed: Temperature, K = 298.15
Property: Surface tension liquid-gas, N/m (Liquid); method: wilhelmy plate
Molality, mol/kg of 1-decyl-3-methylimidazolium bromide	Surface tension liquid-gas, N/m	uncertainty
0	0.072615	0.000566
0.006	0.060076	0.000587
0.0109	0.053238	0.000621
0.0147	0.047624	0.000572
0.0247	0.042414	0.000569
0.0288	0.041476	0.000548
0.0337	0.039847	0.000553
0.0373	0.03916	0.00052
0.0409	0.039769	0.000535
0.0439	0.04015	0.000523
0.0517	0.040416	0.000523
0.0869	0.039994	0.000521
0.1385	0.039417	0.000521
0.1951	0.039643	0.000521
0.2801	0.038688	0.000524

System: D-ribose + water + 1-decyl-3-methylimidazolium bromide; phases: Liquid
Fixed: Pressure, kPa = 86
Fixed: Solvent: Molality, mol/kg of D-ribose = 0.5
Property: Mass density, kg/m3 (Liquid); method: Vibrating tube method
Temperature, K	Molality, mol/kg of 1-decyl-3-methylimidazolium bromide	Mass density, kg/m3	uncertainty
288.15	0	1025.846	0.208
288.15	0.01527	1026.391	0.205
288.15	0.01972	1026.542	0.205
288.15	0.02522	1026.735	0.206
288.15	0.02987	1026.892	0.206
288.15	0.03417	1027.043	0.206
288.15	0.03768	1027.162	0.207
288.15	0.04179	1027.301	0.207
288.15	0.0467	1027.452	0.207
288.15	0.05193	1027.613	0.208
288.15	0.0871	1028.564	0.211
288.15	0.13855	1029.958	0.219
288.15	0.19566	1031.455	0.23
288.15	0.2513	1032.881	0.243
288.15	0.27999	1033.595	0.249
288.15	0.36636	1035.704	0.275
293.15	0	1024.69	0.208
293.15	0.01527	1025.201	0.205
293.15	0.01972	1025.349	0.205
293.15	0.02522	1025.531	0.205
293.15	0.02987	1025.682	0.205
293.15	0.03417	1025.825	0.206
293.15	0.03768	1025.94	0.206
293.15	0.04179	1026.072	0.206
293.15	0.0467	1026.218	0.207
293.15	0.05193	1026.376	0.205
293.15	0.0871	1027.293	0.21
293.15	0.13855	1028.64	0.218
293.15	0.19566	1030.087	0.228
293.15	0.2513	1031.465	0.24
293.15	0.27999	1032.156	0.247
293.15	0.36636	1034.196	0.267
298.15	0	1023.289	0.207
298.15	0.01527	1023.782	0.204
298.15	0.01972	1023.921	0.204
298.15	0.02522	1024.097	0.205
298.15	0.02987	1024.243	0.205
298.15	0.03417	1024.378	0.205
298.15	0.03768	1024.488	0.206
298.15	0.04179	1024.616	0.206
298.15	0.0467	1024.759	0.206
298.15	0.05193	1024.911	0.205
298.15	0.0871	1025.798	0.209
298.15	0.13855	1027.104	0.216
298.15	0.19566	1028.504	0.226
298.15	0.2513	1029.839	0.238
298.15	0.27999	1030.506	0.244
298.15	0.36636	1032.482	0.263
303.15	0	1021.678	0.205
303.15	0.01527	1022.15	0.203
303.15	0.01972	1022.283	0.204
303.15	0.02522	1022.452	0.204
303.15	0.02987	1022.59	0.204
303.15	0.03417	1022.724	0.205
303.15	0.03768	1022.827	0.205
303.15	0.04179	1022.95	0.205
303.15	0.0467	1023.089	0.205
303.15	0.05193	1023.239	0.206
303.15	0.0871	1024.1	0.208
303.15	0.13855	1025.365	0.215
303.15	0.19566	1026.722	0.225
303.15	0.2513	1028.016	0.236
303.15	0.27999	1028.666	0.241
303.15	0.36636	1030.581	0.263

System: D-ribose + water + 1-decyl-3-methylimidazolium bromide; phases: Liquid
Fixed: Pressure, kPa = 86
Fixed: Solvent: Molality, mol/kg of D-ribose = 0.5
Fixed: Frequency, MHz = 3
Property: Speed of sound, m/s (Liquid); method: Single path-length method
Temperature, K	Molality, mol/kg of 1-decyl-3-methylimidazolium bromide	Speed of sound, m/s	uncertainty
288.15	0	1494.51	0.89
288.15	0.01527	1497.93	0.89
288.15	0.01972	1498.86	0.89
288.15	0.02522	1500	0.9
288.15	0.02987	1500.93	0.9
288.15	0.03417	1501.8	0.9
288.15	0.03768	1502.49	0.9
288.15	0.04179	1503.08	0.89
288.15	0.0467	1503.37	0.89
288.15	0.05193	1503.77	0.89
288.15	0.0871	1504.32	0.89
288.15	0.13855	1505.15	0.89
288.15	0.19566	1506.07	0.89
288.15	0.2513	1507.05	0.89
288.15	0.27999	1507.56	0.89
288.15	0.36636	1509.18	0.9
293.15	0	1508.91	0.89
293.15	0.01527	1511.92	0.89
293.15	0.01972	1512.73	0.89
293.15	0.02522	1513.78	0.89
293.15	0.02987	1514.62	0.9
293.15	0.03417	1515.5	0.9
293.15	0.03768	1516.03	0.9
293.15	0.04179	1516.54	0.89
293.15	0.0467	1516.97	0.89
293.15	0.05193	1517.13	0.89
293.15	0.0871	1517.4	0.89
293.15	0.13855	1517.81	0.89
293.15	0.19566	1518.34	0.89
293.15	0.2513	1518.89	0.89
293.15	0.27999	1519.14	0.89
293.15	0.36636	1520.11	0.89
298.15	0	1521.53	0.89
298.15	0.01527	1524.31	0.89
298.15	0.01972	1525.06	0.89
298.15	0.02522	1525.99	0.89
298.15	0.02987	1526.75	0.89
298.15	0.03417	1527.47	0.89
298.15	0.03768	1528.01	0.89
298.15	0.04179	1528.47	0.89
298.15	0.0467	1528.82	0.89
298.15	0.05193	1529.16	0.89
298.15	0.0871	1528.99	0.89
298.15	0.13855	1528.99	0.89
298.15	0.19566	1529.08	0.89
298.15	0.2513	1529.13	0.89
298.15	0.27999	1529.2	0.89
298.15	0.36636	1529.5	0.89
303.15	0	1532.51	0.89
303.15	0.01527	1535.03	0.89
303.15	0.01972	1535.68	0.89
303.15	0.02522	1536.51	0.89
303.15	0.02987	1537.18	0.89
303.15	0.03417	1537.82	0.89
303.15	0.03768	1538.3	0.89
303.15	0.04179	1538.73	0.89
303.15	0.0467	1539.05	0.89
303.15	0.05193	1539.19	0.89
303.15	0.0871	1538.94	0.89
303.15	0.13855	1538.54	0.89
303.15	0.19566	1538.18	0.89
303.15	0.2513	1537.8	0.89
303.15	0.27999	1537.66	0.89
303.15	0.36636	1537.31	0.89

System: D-sucrose + water + 1-decyl-3-methylimidazolium bromide; phases: Liquid
Fixed: Solvent: Molality, mol/kg of D-sucrose = 0.5
Fixed: Pressure, kPa = 86
Fixed: Temperature, K = 298.15
Property: Electrical conductivity, S/m (Liquid); method: Alternating current cell with electrodes
Molality, mol/kg of 1-decyl-3-methylimidazolium bromide	Electrical conductivity, S/m	uncertainty
0	0.000583	0.008
0.000156	0.001815	0.008
0.000497	0.004375	0.008
0.000997	0.008025	0.008001
0.00181	0.01383	0.008
0.00263	0.01989	0.00801
0.00365	0.02701	0.00802
0.00464	0.0339	0.00803
0.00569	0.04103	0.00804
0.00685	0.04883	0.00805
0.00795	0.05607	0.00807
0.00923	0.06445	0.00809
0.0105	0.07262	0.00811
0.0119	0.08173	0.00814
0.0133	0.09039	0.00817
0.0148	0.09967	0.00821
0.0163	0.1091	0.0082
0.0179	0.1186	0.0083
0.0195	0.1284	0.0083
0.0213	0.139	0.0084
0.0231	0.1492	0.0084
0.0249	0.1595	0.0085
0.0266	0.1697	0.0086
0.0283	0.1795	0.0086
0.03	0.1889	0.0086
0.0319	0.199	0.0087
0.0336	0.2082	0.0088
0.0352	0.2166	0.0087
0.0368	0.2239	0.0085
0.0385	0.2297	0.0084
0.0401	0.2342	0.0083
0.0417	0.2381	0.0082
0.0434	0.242	0.0082
0.0452	0.246	0.0082
0.0474	0.2507	0.0082
0.0495	0.2547	0.0082
0.0516	0.2589	0.0082
0.0537	0.2628	0.0082
0.056	0.2669	0.0082
0.0582	0.2707	0.0083
0.0604	0.2746	0.0083
0.0628	0.2787	0.0083
0.0652	0.2829	0.0083
0.0677	0.2871	0.0083

System: D-sucrose + water + 1-decyl-3-methylimidazolium bromide; phases: Liquid, Air at 1 atmosphere
Fixed: Solvent: Molality, mol/kg of D-sucrose = 0.5
Fixed: Temperature, K = 298.15
Property: Surface tension liquid-gas, N/m (Liquid); method: wilhelmy plate
Molality, mol/kg of 1-decyl-3-methylimidazolium bromide	Surface tension liquid-gas, N/m	uncertainty
0	0.07314	0.000634
0.0073	0.063042	0.000641
0.0102	0.057456	0.00066
0.0147	0.051892	0.000628
0.0245	0.044468	0.000653
0.0287	0.04215	0.000615
0.0335	0.040095	0.000594
0.0364	0.039475	0.000543
0.0398	0.04014	0.000549
0.0438	0.04021	0.000544
0.0512	0.040168	0.000544
0.0866	0.03971	0.000543
0.1362	0.039299	0.000543
0.1928	0.038914	0.000542
0.2772	0.038712	0.000541

System: D-sucrose + water + 1-decyl-3-methylimidazolium bromide; phases: Liquid
Fixed: Pressure, kPa = 86
Fixed: Solvent: Molality, mol/kg of D-sucrose = 0.5
Property: Mass density, kg/m3 (Liquid); method: Vibrating tube method
Temperature, K	Molality, mol/kg of 1-decyl-3-methylimidazolium bromide	Mass density, kg/m3	uncertainty
288.15	0	1058.758	0.319
288.15	0.01472	1059.167	0.318
288.15	0.01901	1059.288	0.318
288.15	0.02451	1059.437	0.318
288.15	0.02951	1059.577	0.318
288.15	0.03362	1059.675	0.318
288.15	0.03698	1059.76	0.319
288.15	0.04191	1059.872	0.319
288.15	0.04639	1059.96	0.319
288.15	0.05204	1060.075	0.319
288.15	0.08769	1060.777	0.321
288.15	0.13838	1061.74	0.324
288.15	0.19427	1062.766	0.328
288.15	0.25046	1063.774	0.333
288.15	0.27929	1064.288	0.335
288.15	0.36636	1065.762	0.345
293.15	0	1057.493	0.318
293.15	0.01472	1057.881	0.317
293.15	0.01901	1057.997	0.317
293.15	0.02451	1058.138	0.317
293.15	0.02951	1058.269	0.317
293.15	0.03362	1058.363	0.317
293.15	0.03698	1058.442	0.318
293.15	0.04191	1058.549	0.318
293.15	0.04639	1058.632	0.318
293.15	0.05204	1058.742	0.317
293.15	0.08769	1059.41	0.319
293.15	0.13838	1060.326	0.322
293.15	0.19427	1061.302	0.326
293.15	0.25046	1062.263	0.331
293.15	0.27929	1062.752	0.333
293.15	0.36636	1064.154	0.34
298.15	0	1056.011	0.317
298.15	0.01472	1056.378	0.316
298.15	0.01901	1056.486	0.316
298.15	0.02451	1056.619	0.316
298.15	0.02951	1056.749	0.316
298.15	0.03362	1056.833	0.316
298.15	0.03698	1056.91	0.317
298.15	0.04191	1057.013	0.317
298.15	0.04639	1057.093	0.317
298.15	0.05204	1057.197	0.316
298.15	0.08769	1057.832	0.318
298.15	0.13838	1058.705	0.321
298.15	0.19427	1059.635	0.324
298.15	0.25046	1060.55	0.329
298.15	0.27929	1061.017	0.331
298.15	0.36636	1062.355	0.338
303.15	0	1054.331	0.315
303.15	0.01472	1054.678	0.315
303.15	0.01901	1054.781	0.315
303.15	0.02451	1054.908	0.315
303.15	0.02951	1055.029	0.315
303.15	0.03362	1055.108	0.315
303.15	0.03698	1055.183	0.315
303.15	0.04191	1055.281	0.315
303.15	0.04639	1055.359	0.315
303.15	0.05204	1055.457	0.316
303.15	0.08769	1056.063	0.317
303.15	0.13838	1056.895	0.319
303.15	0.19427	1057.783	0.323
303.15	0.25046	1058.658	0.327
303.15	0.27929	1059.105	0.328
303.15	0.36636	1060.38	0.336

System: D-sucrose + water + 1-decyl-3-methylimidazolium bromide; phases: Liquid
Fixed: Pressure, kPa = 86
Fixed: Solvent: Molality, mol/kg of D-sucrose = 0.5
Fixed: Frequency, MHz = 3
Property: Speed of sound, m/s (Liquid); method: Single path-length method
Temperature, K	Molality, mol/kg of 1-decyl-3-methylimidazolium bromide	Speed of sound, m/s	uncertainty
288.15	0	1515.26	1.18
288.15	0.01472	1518.68	1.18
288.15	0.01901	1519.49	1.18
288.15	0.02451	1520.81	1.18
288.15	0.02951	1521.86	1.19
288.15	0.03362	1522.7	1.19
288.15	0.03698	1523.28	1.18
288.15	0.04191	1523.65	1.18
288.15	0.04639	1523.8	1.18
288.15	0.05204	1523.83	1.18
288.15	0.08769	1524.35	1.18
288.15	0.13838	1525.06	1.18
288.15	0.19427	1525.94	1.18
288.15	0.25046	1526.82	1.18
288.15	0.27929	1527.25	1.18
288.15	0.36636	1528.65	1.18
293.15	0	1529.19	1.18
293.15	0.01472	1532.21	1.18
293.15	0.01901	1533.07	1.18
293.15	0.02451	1534.13	1.18
293.15	0.02951	1535.06	1.18
293.15	0.03362	1535.81	1.18
293.15	0.03698	1536.33	1.18
293.15	0.04191	1536.63	1.18
293.15	0.04639	1536.76	1.18
293.15	0.05204	1536.74	1.18
293.15	0.08769	1537.07	1.18
293.15	0.13838	1537.31	1.18
293.15	0.19427	1537.59	1.18
293.15	0.25046	1537.93	1.18
293.15	0.27929	1538.14	1.18
293.15	0.36636	1538.78	1.18
298.15	0	1541.43	1.18
298.15	0.01472	1544.15	1.18
298.15	0.01901	1544.93	1.18
298.15	0.02451	1545.87	1.18
298.15	0.02951	1546.71	1.18
298.15	0.03362	1547.37	1.18
298.15	0.03698	1547.83	1.18
298.15	0.04191	1548.1	1.18
298.15	0.04639	1548.2	1.18
298.15	0.05204	1548.14	1.18
298.15	0.08769	1548.09	1.18
298.15	0.13838	1547.93	1.18
298.15	0.19427	1547.71	1.18
298.15	0.25046	1547.57	1.18
298.15	0.27929	1547.52	1.18
298.15	0.36636	1547.43	1.18
303.15	0	1551.98	1.18
303.15	0.01472	1554.41	1.18
303.15	0.01901	1555.1	1.18
303.15	0.02451	1555.95	1.18
303.15	0.02951	1556.69	1.18
303.15	0.03362	1557.28	1.18
303.15	0.03698	1557.7	1.18
303.15	0.04191	1557.98	1.18
303.15	0.04639	1558.04	1.18
303.15	0.05204	1557.95	1.18
303.15	0.08769	1557.59	1.18
303.15	0.13838	1556.98	1.18
303.15	0.19427	1556.28	1.18
303.15	0.25046	1555.65	1.18
303.15	0.27929	1555.36	1.18
303.15	0.36636	1554.57	1.18

System: D-mannose + water + 1-decyl-3-methylimidazolium bromide; phases: Liquid
Fixed: Solvent: Molality, mol/kg of D-mannose = 0.5
Fixed: Pressure, kPa = 86
Fixed: Temperature, K = 298.15
Property: Electrical conductivity, S/m (Liquid); method: Alternating current cell with electrodes
Molality, mol/kg of 1-decyl-3-methylimidazolium bromide	Electrical conductivity, S/m	uncertainty
0	0.0003182	0.008
0.000169	0.001878	0.008
0.000344	0.003405	0.008
0.000874	0.007977	0.008001
0.00157	0.0138	0.008
0.00266	0.02313	0.00801
0.00391	0.03328	0.00802
0.00516	0.04316	0.00804
0.00638	0.05279	0.00806
0.00743	0.0608	0.00808
0.00849	0.06888	0.0081
0.0097	0.07792	0.00813
0.0109	0.087	0.00816
0.0121	0.09566	0.00819
0.0133	0.1043	0.0082
0.0147	0.1139	0.0083
0.016	0.1234	0.0083
0.0174	0.1326	0.0084
0.0187	0.142	0.0084
0.02	0.1508	0.0084
0.0215	0.1604	0.0085
0.0229	0.1703	0.0086
0.0244	0.1799	0.0086
0.0258	0.1894	0.0087
0.0273	0.1984	0.0087
0.0287	0.2078	0.0088
0.0302	0.2171	0.0088
0.0317	0.226	0.0089
0.0331	0.2351	0.009
0.0345	0.2437	0.0089
0.036	0.2519	0.0089
0.0374	0.2596	0.0089
0.0389	0.2669	0.0087
0.0405	0.2732	0.0085
0.0424	0.279	0.0084
0.0442	0.2838	0.0083
0.0461	0.2885	0.0083
0.0481	0.2931	0.0083
0.0502	0.2977	0.0083
0.0526	0.3026	0.0083
0.0549	0.3072	0.0083
0.0573	0.3122	0.0083
0.06	0.3173	0.0083
0.0626	0.3224	0.0083
0.0652	0.3272	0.0084
0.0678	0.3321	0.0084

System: D-mannose + water + 1-decyl-3-methylimidazolium bromide; phases: Liquid, Air at 1 atmosphere
Fixed: Solvent: Molality, mol/kg of D-mannose = 0.5
Fixed: Temperature, K = 298.15
Property: Surface tension liquid-gas, N/m (Liquid); method: wilhelmy plate
Molality, mol/kg of 1-decyl-3-methylimidazolium bromide	Surface tension liquid-gas, N/m	uncertainty
0	0.070715	0.000626
0.0072	0.057876	0.000631
0.0103	0.054581	0.000608
0.0147	0.051038	0.000608
0.0247	0.044049	0.00064
0.0293	0.041607	0.000631
0.0337	0.039213	0.000604
0.0372	0.038544	0.000542
0.0406	0.038928	0.000563
0.044	0.03985	0.000547
0.0518	0.039879	0.000543
0.0871	0.039848	0.000543
0.1385	0.039591	0.000543
0.2792	0.039146	0.000542
0.3664	0.038931	0.000542

System: D-mannose + water + 1-decyl-3-methylimidazolium bromide; phases: Liquid
Fixed: Pressure, kPa = 86
Fixed: Solvent: Molality, mol/kg of D-mannose = 0.5
Property: Mass density, kg/m3 (Liquid); method: Vibrating tube method
Temperature, K	Molality, mol/kg of 1-decyl-3-methylimidazolium bromide	Mass density, kg/m3	uncertainty
288.15	0	1032.01	0.301
288.15	0.01481	1032.528	0.299
288.15	0.01942	1032.678	0.3
288.15	0.0249	1032.864	0.3
288.15	0.02909	1033.003	0.3
288.15	0.03369	1033.158	0.301
288.15	0.03711	1033.268	0.301
288.15	0.04152	1033.401	0.301
288.15	0.04586	1033.518	0.301
288.15	0.05202	1033.687	0.301
288.15	0.0873	1034.606	0.304
288.15	0.13835	1035.916	0.31
288.15	0.19543	1037.33	0.317
288.15	0.2502	1038.659	0.327
288.15	0.27884	1039.335	0.33
288.15	0.36636	1041.354	0.349
293.15	0	1030.879	0.301
293.15	0.01481	1031.37	0.299
293.15	0.01942	1031.514	0.299
293.15	0.0249	1031.693	0.299
293.15	0.02909	1031.828	0.299
293.15	0.03369	1031.973	0.3
293.15	0.03711	1032.081	0.3
293.15	0.04152	1032.206	0.3
293.15	0.04586	1032.32	0.3
293.15	0.05202	1032.483	0.3
293.15	0.0873	1033.373	0.303
293.15	0.13835	1034.636	0.308
293.15	0.19543	1035.998	0.315
293.15	0.2502	1037.28	0.324
293.15	0.27884	1037.931	0.328
293.15	0.36636	1039.88	0.343
298.15	0	1029.514	0.3
298.15	0.01481	1029.986	0.298
298.15	0.01942	1030.124	0.298
298.15	0.0249	1030.295	0.298
298.15	0.02909	1030.425	0.298
298.15	0.03369	1030.565	0.299
298.15	0.03711	1030.667	0.299
298.15	0.04152	1030.787	0.299
298.15	0.04586	1030.898	0.299
298.15	0.05202	1031.053	0.299
298.15	0.0873	1031.912	0.302
298.15	0.13835	1033.133	0.307
298.15	0.19543	1034.45	0.314
298.15	0.2502	1035.687	0.321
298.15	0.27884	1036.317	0.326
298.15	0.36636	1038.194	0.339
303.15	0	1027.94	0.298
303.15	0.01481	1028.393	0.297
303.15	0.01942	1028.522	0.297
303.15	0.0249	1028.688	0.297
303.15	0.02909	1028.811	0.297
303.15	0.03369	1028.945	0.298
303.15	0.03711	1029.045	0.298
303.15	0.04152	1029.161	0.298
303.15	0.04586	1029.265	0.298
303.15	0.05202	1029.42	0.298
303.15	0.0873	1030.249	0.301
303.15	0.13835	1031.43	0.305
303.15	0.19543	1032.7	0.312
303.15	0.2502	1033.898	0.319
303.15	0.27884	1034.507	0.322
303.15	0.36636	1036.327	0.338

System: D-mannose + water + 1-decyl-3-methylimidazolium bromide; phases: Liquid
Fixed: Pressure, kPa = 86
Fixed: Solvent: Molality, mol/kg of D-mannose = 0.5
Fixed: Frequency, MHz = 3
Property: Speed of sound, m/s (Liquid); method: Single path-length method
Temperature, K	Molality, mol/kg of 1-decyl-3-methylimidazolium bromide	Speed of sound, m/s	uncertainty
288.15	0	1497.72	1.18
288.15	0.01481	1501.02	1.18
288.15	0.01942	1502.13	1.18
288.15	0.0249	1503.33	1.18
288.15	0.02909	1504.14	1.19
288.15	0.03369	1505.13	1.19
288.15	0.03711	1505.73	1.18
288.15	0.04152	1506.33	1.18
288.15	0.04586	1506.64	1.18
288.15	0.05202	1506.65	1.18
288.15	0.0873	1507.3	1.18
288.15	0.13835	1508.12	1.18
288.15	0.19543	1509.22	1.18
288.15	0.2502	1510.17	1.18
288.15	0.27884	1510.69	1.18
288.15	0.36636	1512.3	1.19
293.15	0	1512.35	1.18
293.15	0.01481	1515.43	1.18
293.15	0.01942	1516.31	1.18
293.15	0.0249	1517.42	1.18
293.15	0.02909	1518.23	1.18
293.15	0.03369	1519.11	1.18
293.15	0.03711	1519.69	1.18
293.15	0.04152	1520.09	1.18
293.15	0.04586	1520.37	1.18
293.15	0.05202	1520.37	1.18
293.15	0.0873	1520.71	1.18
293.15	0.13835	1521.2	1.18
293.15	0.19543	1521.68	1.18
293.15	0.2502	1522.2	1.18
293.15	0.27884	1522.47	1.18
293.15	0.36636	1523.5	1.18
298.15	0	1525.36	1.18
298.15	0.01481	1528.15	1.18
298.15	0.01942	1528.94	1.18
298.15	0.0249	1529.94	1.18
298.15	0.02909	1530.61	1.18
298.15	0.03369	1531.36	1.18
298.15	0.03711	1531.89	1.18
298.15	0.04152	1532.31	1.18
298.15	0.04586	1532.56	1.18
298.15	0.05202	1532.52	1.18
298.15	0.0873	1532.57	1.18
298.15	0.13835	1532.62	1.18
298.15	0.19543	1532.64	1.18
298.15	0.2502	1532.7	1.18
298.15	0.27884	1532.75	1.18
298.15	0.36636	1533.07	1.18
303.15	0	1536.63	1.18
303.15	0.01481	1539.1	1.18
303.15	0.01942	1539.82	1.18
303.15	0.0249	1540.67	1.18
303.15	0.02909	1541.31	1.18
303.15	0.03369	1541.97	1.18
303.15	0.03711	1542.44	1.18
303.15	0.04152	1542.84	1.18
303.15	0.04586	1543.06	1.18
303.15	0.05202	1542.99	1.18
303.15	0.0873	1542.77	1.18
303.15	0.13835	1542.4	1.18
303.15	0.19543	1541.94	1.18
303.15	0.2502	1541.57	1.18
303.15	0.27884	1541.39	1.18
303.15	0.36636	1541.03	1.18

System: 4-O-.beta.-D-galactopyranosyl-D-glucose + water + 1-decyl-3-methylimidazolium bromide; phases: Liquid
Fixed: Solvent: Molality, mol/kg of 4-O-.beta.-D-galactopyranosyl-D-glucose = 0.5
Fixed: Pressure, kPa = 86
Fixed: Temperature, K = 298.15
Property: Electrical conductivity, S/m (Liquid); method: Alternating current cell with electrodes
Molality, mol/kg of 1-decyl-3-methylimidazolium bromide	Electrical conductivity, S/m	uncertainty
0	0.007982	0.008
0.000216	0.009417	0.008
0.000804	0.0134	0.008
0.00117	0.01581	0.008
0.0017	0.01964	0.008
0.00239	0.02428	0.00801
0.00327	0.03013	0.00801
0.00436	0.03733	0.00802
0.00559	0.04528	0.00803
0.0068	0.05303	0.00805
0.00819	0.06188	0.00807
0.0096	0.07073	0.00809
0.0112	0.08049	0.00812
0.0127	0.09019	0.00816
0.0144	0.1005	0.0082
0.016	0.1103	0.0082
0.0176	0.1199	0.0083
0.0193	0.13	0.0083
0.0209	0.1393	0.0084
0.0224	0.1479	0.0084
0.024	0.1572	0.0085
0.0256	0.1665	0.0085
0.0272	0.1753	0.0085
0.0288	0.1842	0.0086
0.0303	0.1923	0.0087
0.0318	0.2006	0.0087
0.0333	0.2083	0.0086
0.0348	0.215	0.0084
0.0364	0.2204	0.0083
0.0381	0.2252	0.0082
0.0399	0.2296	0.0082
0.042	0.2341	0.0082
0.0443	0.2384	0.0082
0.0464	0.2425	0.0082
0.0487	0.2466	0.0082
0.0511	0.2508	0.0082
0.0535	0.255	0.0082
0.056	0.2592	0.0082
0.0584	0.2632	0.0082
0.0609	0.2675	0.0083
0.0632	0.2713	0.0083
0.0657	0.2753	0.0083
0.0686	0.2802	0.0083

System: 4-O-.beta.-D-galactopyranosyl-D-glucose + water + 1-decyl-3-methylimidazolium bromide; phases: Liquid, Air at 1 atmosphere
Fixed: Solvent: Molality, mol/kg of 4-O-.beta.-D-galactopyranosyl-D-glucose = 0.5
Fixed: Temperature, K = 298.15
Property: Surface tension liquid-gas, N/m (Liquid); method: wilhelmy plate
Molality, mol/kg of 1-decyl-3-methylimidazolium bromide	Surface tension liquid-gas, N/m	uncertainty
0	0.073204	0.000634
0.0065	0.061763	0.000637
0.0105	0.055873	0.000639
0.0151	0.050886	0.000622
0.0254	0.043224	0.00066
0.029	0.041008	0.000608
0.0343	0.039032	0.000549
0.0376	0.040062	0.000559
0.0411	0.040203	0.000545
0.0444	0.040279	0.000544
0.052	0.040106	0.000544
0.0871	0.039756	0.000543
0.1387	0.03955	0.000543
0.1957	0.039543	0.000543

System: 4-O-.beta.-D-galactopyranosyl-D-glucose + water + 1-decyl-3-methylimidazolium bromide; phases: Liquid
Fixed: Pressure, kPa = 86
Fixed: Solvent: Molality, mol/kg of 4-O-.beta.-D-galactopyranosyl-D-glucose = 0.5
Property: Mass density, kg/m3 (Liquid); method: Vibrating tube method
Temperature, K	Molality, mol/kg of 1-decyl-3-methylimidazolium bromide	Mass density, kg/m3	uncertainty
288.15	0	1059.95	0.319
288.15	0.01509	1060.368	0.319
288.15	0.01921	1060.48	0.319
288.15	0.02504	1060.636	0.319
288.15	0.02924	1060.758	0.319
288.15	0.0335	1060.874	0.319
288.15	0.03744	1060.966	0.319
288.15	0.04143	1061.042	0.319
288.15	0.04586	1061.131	0.32
288.15	0.0522	1061.258	0.32
288.15	0.08778	1061.944	0.321
288.15	0.13818	1062.897	0.324
288.15	0.19492	1063.946	0.329
288.15	0.25027	1064.937	0.334
288.15	0.27986	1065.459	0.336
288.15	0.36636	1066.935	0.346
293.15	0	1058.675	0.319
293.15	0.01509	1059.07	0.318
293.15	0.01921	1059.177	0.318
293.15	0.02504	1059.324	0.318
293.15	0.02924	1059.438	0.318
293.15	0.0335	1059.55	0.318
293.15	0.03744	1059.634	0.318
293.15	0.04143	1059.711	0.318
293.15	0.04586	1059.794	0.319
293.15	0.0522	1059.916	0.318
293.15	0.08778	1060.566	0.32
293.15	0.13818	1061.478	0.323
293.15	0.19492	1062.474	0.327
293.15	0.25027	1063.417	0.331
293.15	0.27986	1063.912	0.334
293.15	0.36636	1065.323	0.342
298.15	0	1057.185	0.318
298.15	0.01509	1057.558	0.317
298.15	0.01921	1057.657	0.317
298.15	0.02504	1057.795	0.317
298.15	0.02924	1057.907	0.317
298.15	0.0335	1058.009	0.317
298.15	0.03744	1058.093	0.317
298.15	0.04143	1058.165	0.317
298.15	0.04586	1058.244	0.317
298.15	0.0522	1058.361	0.317
298.15	0.08778	1058.98	0.319
298.15	0.13818	1059.849	0.322
298.15	0.19492	1060.8	0.325
298.15	0.25027	1061.699	0.329
298.15	0.27986	1062.17	0.332
298.15	0.36636	1063.515	0.339
303.15	0	1055.494	0.316
303.15	0.01509	1055.849	0.315
303.15	0.01921	1055.943	0.316
303.15	0.02504	1056.076	0.316
303.15	0.02924	1056.178	0.316
303.15	0.0335	1056.277	0.316
303.15	0.03744	1056.357	0.316
303.15	0.04143	1056.428	0.316
303.15	0.04586	1056.503	0.316
303.15	0.0522	1056.615	0.316
303.15	0.08778	1057.203	0.318
303.15	0.13818	1058.035	0.32
303.15	0.19492	1058.943	0.323
303.15	0.25027	1059.8	0.327
303.15	0.27986	1060.251	0.329
303.15	0.36636	1061.536	0.337

System: 4-O-.beta.-D-galactopyranosyl-D-glucose + water + 1-decyl-3-methylimidazolium bromide; phases: Liquid
Fixed: Pressure, kPa = 86
Fixed: Solvent: Molality, mol/kg of 4-O-.beta.-D-galactopyranosyl-D-glucose = 0.5
Fixed: Frequency, MHz = 3
Property: Speed of sound, m/s (Liquid); method: Single path-length method
Temperature, K	Molality, mol/kg of 1-decyl-3-methylimidazolium bromide	Speed of sound, m/s	uncertainty
288.15	0	1523.88	1.18
288.15	0.01509	1527.31	1.18
288.15	0.01921	1528.21	1.18
288.15	0.02504	1529.42	1.18
288.15	0.02924	1530.44	1.19
288.15	0.0335	1531.22	1.18
288.15	0.03744	1531.56	1.18
288.15	0.04143	1531.77	1.18
288.15	0.04586	1531.68	1.18
288.15	0.0522	1531.8	1.18
288.15	0.08778	1532.2	1.18
288.15	0.13818	1532.97	1.18
288.15	0.19492	1533.41	1.18
288.15	0.25027	1534.09	1.18
288.15	0.27986	1534.48	1.18
288.15	0.36636	1535.76	1.18
293.15	0	1537.4	1.18
293.15	0.01509	1540.48	1.18
293.15	0.01921	1541.36	1.18
293.15	0.02504	1542.47	1.18
293.15	0.02924	1543.27	1.18
293.15	0.0335	1543.97	1.18
293.15	0.03744	1544.37	1.18
293.15	0.04143	1544.46	1.18
293.15	0.04586	1544.29	1.18
293.15	0.0522	1544.35	1.18
293.15	0.08778	1544.43	1.18
293.15	0.13818	1544.78	1.18
293.15	0.19492	1544.71	1.18
293.15	0.25027	1544.92	1.18
293.15	0.27986	1545.07	1.18
293.15	0.36636	1545.56	1.18
298.15	0	1549.32	1.18
298.15	0.01509	1552.09	1.18
298.15	0.01921	1552.82	1.18
298.15	0.02504	1553.88	1.18
298.15	0.02924	1554.58	1.18
298.15	0.0335	1555.21	1.18
298.15	0.03744	1555.58	1.18
298.15	0.04143	1555.67	1.18
298.15	0.04586	1555.47	1.18
298.15	0.0522	1555.46	1.18
298.15	0.08778	1555.23	1.18
298.15	0.13818	1555.13	1.18
298.15	0.19492	1554.54	1.18
298.15	0.25027	1554.28	1.18
298.15	0.27986	1554.16	1.18
298.15	0.36636	1553.93	1.18
303.15	0	1559.59	1.18
303.15	0.01509	1562.06	1.18
303.15	0.01921	1562.7	1.18
303.15	0.02504	1563.59	1.18
303.15	0.02924	1564.27	1.18
303.15	0.0335	1564.83	1.18
303.15	0.03744	1565.19	1.18
303.15	0.04143	1565.28	1.18
303.15	0.04586	1565.04	1.18
303.15	0.0522	1565.01	1.18
303.15	0.08778	1564.47	1.18
303.15	0.13818	1563.92	1.18
303.15	0.19492	1562.82	1.18
303.15	0.25027	1562.09	1.18
303.15	0.27986	1561.73	1.18
303.15	0.36636	1560.79	1.18

System: D-raffinose + water + 1-decyl-3-methylimidazolium bromide; phases: Liquid
Fixed: Solvent: Molality, mol/kg of D-raffinose = 0.5
Fixed: Pressure, kPa = 86
Fixed: Temperature, K = 298.15
Property: Electrical conductivity, S/m (Liquid); method: Alternating current cell with electrodes
Molality, mol/kg of 1-decyl-3-methylimidazolium bromide	Electrical conductivity, S/m	uncertainty
0	0.000213	0.008
0.000173	0.001364	0.008
0.000355	0.002537	0.008
0.000543	0.003725	0.008
0.000908	0.006018	0.008001
0.00128	0.008333	0.008002
0.00187	0.01187	0.008
0.00243	0.01517	0.00801
0.00299	0.01882	0.00801
0.00371	0.02313	0.00801
0.00466	0.02867	0.00802
0.00579	0.03522	0.00803
0.00689	0.04146	0.00804
0.00802	0.04783	0.00805
0.00934	0.05516	0.00807
0.0106	0.06219	0.00808
0.0121	0.0701	0.00811
0.0135	0.07778	0.00813
0.0151	0.08619	0.00815
0.0166	0.09365	0.00818
0.018	0.1013	0.0082
0.0196	0.1093	0.0082
0.0213	0.118	0.0083
0.0231	0.1265	0.0083
0.025	0.1357	0.0084
0.0267	0.144	0.0084
0.0284	0.1519	0.0084
0.0301	0.1596	0.0084
0.0318	0.167	0.0084
0.0334	0.1733	0.0083
0.0349	0.1778	0.0082
0.0367	0.1822	0.0082
0.0386	0.186	0.0081
0.0408	0.19	0.0081
0.043	0.1935	0.0081
0.0453	0.1972	0.0081
0.0471	0.1999	0.0081
0.0497	0.2036	0.0081
0.0523	0.2075	0.0081
0.0615	0.22	0.0082
0.064	0.2236	0.0082
0.0665	0.227	0.0082
0.0703	0.2323	0.0082

System: D-raffinose + water + 1-decyl-3-methylimidazolium bromide; phases: Liquid, Air at 1 atmosphere
Fixed: Solvent: Molality, mol/kg of D-raffinose = 0.5
Fixed: Temperature, K = 298.15
Property: Surface tension liquid-gas, N/m (Liquid); method: wilhelmy plate
Molality, mol/kg of 1-decyl-3-methylimidazolium bromide	Surface tension liquid-gas, N/m	uncertainty
0	0.073601	0.000718
0.0037	0.06269	0.00069
0.0072	0.055654	0.000683
0.0106	0.050543	0.000663
0.0154	0.045688	0.000629
0.024	0.041146	0.000618
0.0297	0.039162	0.000585
0.0339	0.039038	0.000571
0.0373	0.039684	0.00058
0.0406	0.039921	0.000575
0.0437	0.040068	0.000573
0.0522	0.03987	0.000573
0.0886	0.039925	0.000573
0.1385	0.039938	0.000573
0.1943	0.039856	0.000573
0.2801	0.039438	0.000572

System: D-raffinose + water + 1-decyl-3-methylimidazolium bromide; phases: Liquid
Fixed: Pressure, kPa = 86
Fixed: Solvent: Molality, mol/kg of D-raffinose = 0.5
Property: Mass density, kg/m3 (Liquid); method: Vibrating tube method
Temperature, K	Molality, mol/kg of 1-decyl-3-methylimidazolium bromide	Mass density, kg/m3	uncertainty
288.15	0	1085.375	0.525
288.15	0.01898	1085.773	0.525
288.15	0.02482	1085.898	0.525
288.15	0.0292	1085.991	0.525
288.15	0.03401	1086.078	0.525
288.15	0.03779	1086.137	0.525
288.15	0.04576	1086.232	0.525
288.15	0.05223	1086.321	0.526
288.15	0.08773	1086.753	0.526
288.15	0.13805	1087.404	0.528
288.15	0.19435	1088.062	0.53
288.15	0.24986	1088.714	0.532
288.15	0.27918	1089.054	0.533
288.15	0.36636	1090.02	0.536
293.15	0	1083.958	0.523
293.15	0.01898	1084.331	0.523
293.15	0.02482	1084.446	0.523
293.15	0.0292	1084.534	0.523
293.15	0.03401	1084.615	0.523
293.15	0.03779	1084.669	0.524
293.15	0.04576	1084.757	0.524
293.15	0.05223	1084.838	0.524
293.15	0.08773	1085.238	0.525
293.15	0.13805	1085.84	0.526
293.15	0.19435	1086.454	0.527
293.15	0.24986	1087.057	0.529
293.15	0.27918	1087.372	0.53
293.15	0.36636	1088.272	0.533
298.15	0	1082.34	0.521
298.15	0.01898	1082.687	0.521
298.15	0.02482	1082.793	0.521
298.15	0.0292	1082.877	0.521
298.15	0.03401	1082.952	0.521
298.15	0.03779	1083.004	0.521
298.15	0.04576	1083.08	0.522
298.15	0.05223	1083.163	0.522
298.15	0.08773	1083.53	0.522
298.15	0.13805	1084.091	0.524
298.15	0.19435	1084.657	0.525
298.15	0.24986	1085.216	0.526
298.15	0.27918	1085.51	0.527
298.15	0.36636	1086.344	0.53
303.15	0	1080.539	0.519
303.15	0.01898	1080.861	0.519
303.15	0.02482	1080.961	0.519
303.15	0.0292	1081.038	0.519
303.15	0.03401	1081.109	0.519
303.15	0.03779	1081.157	0.519
303.15	0.04576	1081.23	0.519
303.15	0.05223	1081.305	0.519
303.15	0.08773	1081.645	0.52
303.15	0.13805	1082.167	0.521
303.15	0.19435	1082.69	0.522
303.15	0.24986	1083.21	0.524
303.15	0.27918	1083.481	0.524
303.15	0.36636	1084.256	0.527

System: D-raffinose + water + 1-decyl-3-methylimidazolium bromide; phases: Liquid
Fixed: Pressure, kPa = 86
Fixed: Solvent: Molality, mol/kg of D-raffinose = 0.5
Fixed: Frequency, MHz = 3
Property: Speed of sound, m/s (Liquid); method: Single path-length method
Temperature, K	Molality, mol/kg of 1-decyl-3-methylimidazolium bromide	Speed of sound, m/s	uncertainty
288.15	0	1539.09	1.49
288.15	0.01898	1543.39	1.49
288.15	0.02482	1544.81	1.49
288.15	0.0292	1545.69	1.49
288.15	0.03401	1546.45	1.49
288.15	0.03779	1546.73	1.49
288.15	0.04576	1546.84	1.49
288.15	0.05223	1546.92	1.49
288.15	0.08773	1547.11	1.49
288.15	0.13805	1547.54	1.49
288.15	0.19435	1548.16	1.49
288.15	0.24986	1548.72	1.49
288.15	0.27918	1549.04	1.49
288.15	0.36636	1550.14	1.49
293.15	0	1552.1	1.49
293.15	0.01898	1555.97	1.49
293.15	0.02482	1557.18	1.49
293.15	0.0292	1557.97	1.49
293.15	0.03401	1558.67	1.49
293.15	0.03779	1558.94	1.49
293.15	0.04576	1558.98	1.49
293.15	0.05223	1559.1	1.49
293.15	0.08773	1558.89	1.49
293.15	0.13805	1558.89	1.49
293.15	0.19435	1558.86	1.49
293.15	0.24986	1558.92	1.49
293.15	0.27918	1559.01	1.49
293.15	0.36636	1559.22	1.49
298.15	0	1563.54	1.49
298.15	0.01898	1566.99	1.49
298.15	0.02482	1568.06	1.49
298.15	0.0292	1568.76	1.49
298.15	0.03401	1569.4	1.49
298.15	0.03779	1569.66	1.49
298.15	0.04576	1569.7	1.49
298.15	0.05223	1569.64	1.49
298.15	0.08773	1569.14	1.49
298.15	0.13805	1568.66	1.49
298.15	0.19435	1568.09	1.49
298.15	0.24986	1567.62	1.49
298.15	0.27918	1567.45	1.49
298.15	0.36636	1566.88	1.49
303.15	0	1573.29	1.49
303.15	0.01898	1576.35	1.49
303.15	0.02482	1577.37	1.49
303.15	0.0292	1577.92	1.49
303.15	0.03401	1578.51	1.49
303.15	0.03779	1578.76	1.49
303.15	0.04576	1578.76	1.49
303.15	0.05223	1578.63	1.49
303.15	0.08773	1577.84	1.49
303.15	0.13805	1576.86	1.49
303.15	0.19435	1575.77	1.49
303.15	0.24986	1574.8	1.49
303.15	0.27918	1574.36	1.49
303.15	0.36636	1573.03	1.49

System: D-glucose + water + 1-decyl-3-methylimidazolium bromide; phases: Liquid
Fixed: Solvent: Molality, mol/kg of D-glucose = 0.5
Fixed: Pressure, kPa = 86
Fixed: Temperature, K = 298.15
Property: Electrical conductivity, S/m (Liquid); method: Alternating current cell with electrodes
Molality, mol/kg of 1-decyl-3-methylimidazolium bromide	Electrical conductivity, S/m	uncertainty
0	0.000162	0.008
0.000163	0.001646	0.008
0.000622	0.00565	0.008001
0.00079	0.007068	0.008001
0.000949	0.008446	0.008002
0.00128	0.01123	0.008
0.00177	0.01531	0.00801
0.00242	0.02096	0.00801
0.00322	0.02759	0.00802
0.00402	0.03416	0.00803
0.005	0.042	0.00804
0.0061	0.05072	0.00806
0.00722	0.05949	0.00808
0.00838	0.06833	0.0081
0.00967	0.0781	0.00813
0.0109	0.08754	0.00816
0.0122	0.09705	0.00819
0.0135	0.1062	0.0082
0.0148	0.1155	0.0083
0.016	0.1242	0.0083
0.0172	0.1331	0.0083
0.0186	0.1423	0.0084
0.0198	0.1511	0.0085
0.0211	0.1598	0.0085
0.0224	0.1689	0.0086
0.0236	0.1776	0.0086
0.0249	0.186	0.0087
0.0261	0.1942	0.0087
0.0274	0.2023	0.0088
0.0286	0.2106	0.0089
0.0298	0.2183	0.0088
0.0312	0.2268	0.0089
0.0328	0.2373	0.009
0.0345	0.2477	0.0089
0.0363	0.2573	0.0088
0.0379	0.2644	0.0086
0.0396	0.2707	0.0084
0.0415	0.2763	0.0083
0.043	0.2803	0.0083
0.0445	0.2841	0.0083
0.0464	0.2884	0.0083
0.0485	0.293	0.0083
0.0509	0.2982	0.0083
0.0531	0.3027	0.0083
0.0554	0.3074	0.0083
0.058	0.3125	0.0083
0.0604	0.3173	0.0083
0.0628	0.322	0.0084
0.0651	0.3265	0.0084
0.0674	0.331	0.0084

System: D-glucose + water + 1-decyl-3-methylimidazolium bromide; phases: Liquid, Air at 1 atmosphere
Fixed: Solvent: Molality, mol/kg of D-glucose = 0.5
Fixed: Temperature, K = 298.15
Property: Surface tension liquid-gas, N/m (Liquid); method: wilhelmy plate
Molality, mol/kg of 1-decyl-3-methylimidazolium bromide	Surface tension liquid-gas, N/m	uncertainty
0	0.072931	0.000541
0.0076	0.060439	0.000582
0.0103	0.056456	0.00057
0.0148	0.052485	0.00058
0.0245	0.044262	0.000646
0.0296	0.040853	0.000596
0.0341	0.039383	0.000536
0.0371	0.039186	0.000512
0.0398	0.03926	0.000519
0.044	0.039887	0.000515
0.0518	0.039981	0.000513
0.0877	0.039761	0.000513
0.138	0.039684	0.000513
0.1951	0.039121	0.000513
0.2806	0.03891	0.000512

System: D-glucose + water + 1-decyl-3-methylimidazolium bromide; phases: Liquid
Fixed: Pressure, kPa = 86
Fixed: Solvent: Molality, mol/kg of D-glucose = 0.5
Property: Mass density, kg/m3 (Liquid); method: Vibrating tube method
Temperature, K	Molality, mol/kg of 1-decyl-3-methylimidazolium bromide	Mass density, kg/m3	uncertainty
288.15	0	1031.776	0.184
288.15	0.01515	1032.297	0.181
288.15	0.01961	1032.448	0.181
288.15	0.02464	1032.619	0.182
288.15	0.02963	1032.792	0.182
288.15	0.03339	1032.921	0.182
288.15	0.03703	1033.043	0.182
288.15	0.04182	1033.174	0.183
288.15	0.04623	1033.293	0.183
288.15	0.05161	1033.441	0.183
288.15	0.08737	1034.391	0.187
288.15	0.13829	1035.706	0.195
288.15	0.19506	1037.134	0.206
288.15	0.25071	1038.494	0.219
288.15	0.27928	1039.177	0.225
288.15	0.36636	1041.203	0.25
293.15	0	1030.632	0.184
293.15	0.01515	1031.135	0.181
293.15	0.01961	1031.28	0.181
293.15	0.02464	1031.443	0.181
293.15	0.02963	1031.608	0.182
293.15	0.03339	1031.73	0.182
293.15	0.03703	1031.847	0.182
293.15	0.04182	1031.973	0.182
293.15	0.04623	1032.086	0.183
293.15	0.05161	1032.229	0.181
293.15	0.08737	1033.148	0.186
293.15	0.13829	1034.414	0.194
293.15	0.19506	1035.792	0.204
293.15	0.25071	1037.077	0.216
293.15	0.27928	1037.763	0.223
293.15	0.36636	1039.718	0.242
298.15	0	1029.261	0.184
298.15	0.01515	1029.742	0.18
298.15	0.01961	1029.881	0.181
298.15	0.02464	1030.037	0.181
298.15	0.02963	1030.195	0.181
298.15	0.03339	1030.312	0.182
298.15	0.03703	1030.425	0.182
298.15	0.04182	1030.546	0.182
298.15	0.04623	1030.658	0.182
298.15	0.05161	1030.793	0.181
298.15	0.08737	1031.68	0.186
298.15	0.13829	1032.905	0.193
298.15	0.19506	1034.237	0.202
298.15	0.25071	1035.475	0.213
298.15	0.27928	1036.14	0.22
298.15	0.36636	1038.03	0.239
303.15	0	1027.692	0.182
303.15	0.01515	1028.14	0.18
303.15	0.01961	1028.274	0.18
303.15	0.02464	1028.423	0.181
303.15	0.02963	1028.574	0.181
303.15	0.03339	1028.688	0.181
303.15	0.03703	1028.794	0.181
303.15	0.04182	1028.913	0.181
303.15	0.04623	1029.022	0.181
303.15	0.05161	1029.152	0.182
303.15	0.08737	1030.012	0.185
303.15	0.13829	1031.197	0.191
303.15	0.19506	1032.485	0.201
303.15	0.25071	1033.682	0.212
303.15	0.27928	1034.328	0.217
303.15	0.36636	1036.157	0.238

System: D-glucose + water + 1-decyl-3-methylimidazolium bromide; phases: Liquid
Fixed: Pressure, kPa = 86
Fixed: Solvent: Molality, mol/kg of D-glucose = 0.5
Fixed: Frequency, MHz = 3
Property: Speed of sound, m/s (Liquid); method: Single path-length method
Temperature, K	Molality, mol/kg of 1-decyl-3-methylimidazolium bromide	Speed of sound, m/s	uncertainty
288.15	0	1499.67	0.76
288.15	0.01515	1503.07	0.76
288.15	0.01961	1504.06	0.76
288.15	0.02464	1505.08	0.77
288.15	0.02963	1506.18	0.77
288.15	0.03339	1506.96	0.77
288.15	0.03703	1507.63	0.76
288.15	0.04182	1508.02	0.76
288.15	0.04623	1508.15	0.76
288.15	0.05161	1508.31	0.76
288.15	0.08737	1508.89	0.76
288.15	0.13829	1509.65	0.76
288.15	0.19506	1510.52	0.76
288.15	0.25071	1511.55	0.76
288.15	0.27928	1512.03	0.76
288.15	0.36636	1513.59	0.77
293.15	0	1514.28	0.76
293.15	0.01515	1517.32	0.76
293.15	0.01961	1518.29	0.76
293.15	0.02464	1519.25	0.76
293.15	0.02963	1520.27	0.76
293.15	0.03339	1520.84	0.77
293.15	0.03703	1521.48	0.76
293.15	0.04182	1521.77	0.76
293.15	0.04623	1521.97	0.76
293.15	0.05161	1521.98	0.76
293.15	0.08737	1522.27	0.76
293.15	0.13829	1522.6	0.76
293.15	0.19506	1523.01	0.76
293.15	0.25071	1523.56	0.76
293.15	0.27928	1523.81	0.76
293.15	0.36636	1524.69	0.76
298.15	0	1527.33	0.76
298.15	0.01515	1529.97	0.76
298.15	0.01961	1530.86	0.76
298.15	0.02464	1531.66	0.76
298.15	0.02963	1532.63	0.76
298.15	0.03339	1533.11	0.76
298.15	0.03703	1533.64	0.76
298.15	0.04182	1533.95	0.76
298.15	0.04623	1534.05	0.76
298.15	0.05161	1534.09	0.76
298.15	0.08737	1534.09	0.76
298.15	0.13829	1533.99	0.76
298.15	0.19506	1533.94	0.76
298.15	0.25071	1534.03	0.76
298.15	0.27928	1534.07	0.76
298.15	0.36636	1534.25	0.76
303.15	0	1538.53	0.76
303.15	0.01515	1540.89	0.76
303.15	0.01961	1541.68	0.76
303.15	0.02464	1542.38	0.76
303.15	0.02963	1543.27	0.76
303.15	0.03339	1543.67	0.76
303.15	0.03703	1544.15	0.76
303.15	0.04182	1544.46	0.76
303.15	0.04623	1544.52	0.76
303.15	0.05161	1544.55	0.76
303.15	0.08737	1544.26	0.76
303.15	0.13829	1543.74	0.76
303.15	0.19506	1543.23	0.76
303.15	0.25071	1542.89	0.76
303.15	0.27928	1542.69	0.76
303.15	0.36636	1542.22	0.76

System: L-arabinose + water; phases: Liquid
Property: Electrical conductivity, S/m (Liquid); method: Alternating current cell with electrodes
Molality, mol/kg of L-arabinose	Pressure, kPa	Temperature, K	Electrical conductivity, S/m	uncertainty
0.5	86	298.15	0.004254	0.008

System: L-arabinose + water; phases: Liquid, Air at 1 atmosphere
Property: Surface tension liquid-gas, N/m (Liquid); method: wilhelmy plate
Molality, mol/kg of L-arabinose	Temperature, K	Surface tension liquid-gas, N/m	uncertainty
0.5	298.15	0.072922	0.000509

System: L-arabinose + water; phases: Liquid
Fixed: Pressure, kPa = 86
Fixed: Molality, mol/kg of L-arabinose = 0.5
Property: Mass density, kg/m3 (Liquid); method: Vibrating tube method
Temperature, K	Mass density, kg/m3	uncertainty
288.15	1026.698	0.19
293.15	1025.555	0.188
298.15	1024.149	0.188
303.15	1022.532	0.189

System: L-arabinose + water; phases: Liquid
Fixed: Pressure, kPa = 86
Fixed: Molality, mol/kg of L-arabinose = 0.5
Fixed: Frequency, MHz = 3
Property: Speed of sound, m/s (Liquid); method: Single path-length method
Temperature, K	Speed of sound, m/s	uncertainty
288.15	1498.44	0.57
293.15	1512.95	0.56
298.15	1525.7	0.56
303.15	1536.7	0.57

System: D-xylose + water; phases: Liquid
Property: Electrical conductivity, S/m (Liquid); method: Alternating current cell with electrodes
Molality, mol/kg of D-xylose	Pressure, kPa	Temperature, K	Electrical conductivity, S/m	uncertainty
0.5	86	298.15	0.000286	0.008

System: D-xylose + water; phases: Liquid, Air at 1 atmosphere
Property: Surface tension liquid-gas, N/m (Liquid); method: wilhelmy plate
Molality, mol/kg of D-xylose	Temperature, K	Surface tension liquid-gas, N/m	uncertainty
0.5	298.15	0.07253	0.000509

System: D-xylose + water; phases: Liquid
Fixed: Pressure, kPa = 86
Fixed: Molality, mol/kg of D-xylose = 0.5
Property: Mass density, kg/m3 (Liquid); method: Vibrating tube method
Temperature, K	Mass density, kg/m3	uncertainty
288.15	1025.585	0.19
293.15	1024.459	0.188
298.15	1023.097	0.188
303.15	1021.524	0.189

System: D-xylose + water; phases: Liquid
Fixed: Pressure, kPa = 86
Fixed: Molality, mol/kg of D-xylose = 0.5
Fixed: Frequency, MHz = 3
Property: Speed of sound, m/s (Liquid); method: Single path-length method
Temperature, K	Speed of sound, m/s	uncertainty
288.15	1494.59	0.57
293.15	1509.25	0.56
298.15	1522.18	0.56
303.15	1533.38	0.57

System: D-ribose + water; phases: Liquid
Property: Electrical conductivity, S/m (Liquid); method: Alternating current cell with electrodes
Molality, mol/kg of D-ribose	Pressure, kPa	Temperature, K	Electrical conductivity, S/m	uncertainty
0.5	86	298.15	0.003872	0.008

System: D-ribose + water; phases: Liquid, Air at 1 atmosphere
Property: Surface tension liquid-gas, N/m (Liquid); method: wilhelmy plate
Molality, mol/kg of D-ribose	Temperature, K	Surface tension liquid-gas, N/m	uncertainty
0.5	298.15	0.072615	0.000509

System: D-ribose + water; phases: Liquid
Fixed: Pressure, kPa = 86
Fixed: Molality, mol/kg of D-ribose = 0.5
Property: Mass density, kg/m3 (Liquid); method: Vibrating tube method
Temperature, K	Mass density, kg/m3	uncertainty
288.15	1025.846	0.19
293.15	1024.69	0.188
298.15	1023.289	0.188
303.15	1021.678	0.189

System: D-ribose + water; phases: Liquid
Fixed: Pressure, kPa = 86
Fixed: Molality, mol/kg of D-ribose = 0.5
Fixed: Frequency, MHz = 3
Property: Speed of sound, m/s (Liquid); method: Single path-length method
Temperature, K	Speed of sound, m/s	uncertainty
288.15	1494.51	0.57
293.15	1508.91	0.56
298.15	1521.53	0.56
303.15	1532.51	0.57

System: D-sucrose + water; phases: Liquid
Property: Electrical conductivity, S/m (Liquid); method: Alternating current cell with electrodes
Molality, mol/kg of D-sucrose	Pressure, kPa	Temperature, K	Electrical conductivity, S/m	uncertainty
0.5	86	298.15	0.000583	0.008

System: D-sucrose + water; phases: Liquid, Air at 1 atmosphere
Property: Surface tension liquid-gas, N/m (Liquid); method: wilhelmy plate
Molality, mol/kg of D-sucrose	Temperature, K	Surface tension liquid-gas, N/m	uncertainty
0.5	298.15	0.07314	0.000528

System: D-sucrose + water; phases: Liquid
Fixed: Pressure, kPa = 86
Fixed: Molality, mol/kg of D-sucrose = 0.5
Property: Mass density, kg/m3 (Liquid); method: Vibrating tube method
Temperature, K	Mass density, kg/m3	uncertainty
288.15	1058.758	0.207
293.15	1057.493	0.205
298.15	1056.011	0.205
303.15	1054.331	0.206

System: D-sucrose + water; phases: Liquid
Fixed: Pressure, kPa = 86
Fixed: Molality, mol/kg of D-sucrose = 0.5
Fixed: Frequency, MHz = 3
Property: Speed of sound, m/s (Liquid); method: Single path-length method
Temperature, K	Speed of sound, m/s	uncertainty
288.15	1515.26	0.69
293.15	1529.19	0.68
298.15	1541.43	0.68
303.15	1551.98	0.69

System: D-mannose + water; phases: Liquid
Property: Electrical conductivity, S/m (Liquid); method: Alternating current cell with electrodes
Molality, mol/kg of D-mannose	Pressure, kPa	Temperature, K	Electrical conductivity, S/m	uncertainty
0.5	86	298.15	0.0003182	0.008

System: D-mannose + water; phases: Liquid, Air at 1 atmosphere
Property: Surface tension liquid-gas, N/m (Liquid); method: wilhelmy plate
Molality, mol/kg of D-mannose	Temperature, K	Surface tension liquid-gas, N/m	uncertainty
0.5	298.15	0.070715	0.000515

System: D-mannose + water; phases: Liquid
Fixed: Pressure, kPa = 86
Fixed: Molality, mol/kg of D-mannose = 0.5
Property: Mass density, kg/m3 (Liquid); method: Vibrating tube method
Temperature, K	Mass density, kg/m3	uncertainty
288.15	1032.01	0.194
293.15	1030.879	0.192
298.15	1029.514	0.192
303.15	1027.94	0.193

System: D-mannose + water; phases: Liquid
Fixed: Pressure, kPa = 86
Fixed: Molality, mol/kg of D-mannose = 0.5
Fixed: Frequency, MHz = 3
Property: Speed of sound, m/s (Liquid); method: Single path-length method
Temperature, K	Speed of sound, m/s	uncertainty
288.15	1497.72	0.62
293.15	1512.35	0.61
298.15	1525.36	0.61
303.15	1536.63	0.62

System: 4-O-.beta.-D-galactopyranosyl-D-glucose + water; phases: Liquid
Property: Electrical conductivity, S/m (Liquid); method: Alternating current cell with electrodes
Molality, mol/kg of 4-O-.beta.-D-galactopyranosyl-D-glucose	Pressure, kPa	Temperature, K	Electrical conductivity, S/m	uncertainty
0.5	86	298.15	0.007982	0.008

System: 4-O-.beta.-D-galactopyranosyl-D-glucose + water; phases: Liquid, Air at 1 atmosphere
Property: Surface tension liquid-gas, N/m (Liquid); method: wilhelmy plate
Molality, mol/kg of 4-O-.beta.-D-galactopyranosyl-D-glucose	Temperature, K	Surface tension liquid-gas, N/m	uncertainty
0.5	298.15	0.073204	0.000528

System: 4-O-.beta.-D-galactopyranosyl-D-glucose + water; phases: Liquid
Fixed: Pressure, kPa = 86
Fixed: Molality, mol/kg of 4-O-.beta.-D-galactopyranosyl-D-glucose = 0.5
Property: Mass density, kg/m3 (Liquid); method: Vibrating tube method
Temperature, K	Mass density, kg/m3	uncertainty
288.15	1059.95	0.207
293.15	1058.675	0.205
298.15	1057.185	0.205
303.15	1055.494	0.206

System: 4-O-.beta.-D-galactopyranosyl-D-glucose + water; phases: Liquid
Fixed: Pressure, kPa = 86
Fixed: Molality, mol/kg of 4-O-.beta.-D-galactopyranosyl-D-glucose = 0.5
Fixed: Frequency, MHz = 3
Property: Speed of sound, m/s (Liquid); method: Single path-length method
Temperature, K	Speed of sound, m/s	uncertainty
288.15	1523.88	0.69
293.15	1537.4	0.68
298.15	1549.32	0.68
303.15	1559.59	0.69

System: D-raffinose + water; phases: Liquid
Property: Electrical conductivity, S/m (Liquid); method: Alternating current cell with electrodes
Molality, mol/kg of D-raffinose	Pressure, kPa	Temperature, K	Electrical conductivity, S/m	uncertainty
0.5	86	298.15	0.000213	0.008

System: D-raffinose + water; phases: Liquid, Air at 1 atmosphere
Property: Surface tension liquid-gas, N/m (Liquid); method: wilhelmy plate
Molality, mol/kg of D-raffinose	Temperature, K	Surface tension liquid-gas, N/m	uncertainty
0.5	298.15	0.073601	0.000574

System: D-raffinose + water; phases: Liquid
Fixed: Pressure, kPa = 86
Fixed: Molality, mol/kg of D-raffinose = 0.5
Fixed: Frequency, MHz = 3
Property: Speed of sound, m/s (Liquid); method: Single path-length method
Temperature, K	Speed of sound, m/s	uncertainty
288.15	1539.09	0.92
293.15	1552.1	0.91
298.15	1563.54	0.91
303.15	1573.29	0.92

System: D-raffinose + water; phases: Liquid
Fixed: Pressure, kPa = 86
Fixed: Molality, mol/kg of D-raffinose = 0.5
Property: Mass density, kg/m3 (Liquid); method: Vibrating tube method
Temperature, K	Mass density, kg/m3	uncertainty
288.15	1085.375	0.525
293.15	1083.958	0.523
298.15	1082.34	0.521
303.15	1080.539	0.519

System: D-glucose + water; phases: Liquid
Property: Electrical conductivity, S/m (Liquid); method: Alternating current cell with electrodes
Molality, mol/kg of D-glucose	Pressure, kPa	Temperature, K	Electrical conductivity, S/m	uncertainty
0.5	86	298.15	0.000162	0.008

System: D-glucose + water; phases: Liquid, Air at 1 atmosphere
Property: Surface tension liquid-gas, N/m (Liquid); method: wilhelmy plate
Molality, mol/kg of D-glucose	Temperature, K	Surface tension liquid-gas, N/m	uncertainty
0.5	298.15	0.072931	0.000507

System: D-glucose + water; phases: Liquid
Fixed: Pressure, kPa = 86
Fixed: Molality, mol/kg of D-glucose = 0.5
Property: Mass density, kg/m3 (Liquid); method: Vibrating tube method
Temperature, K	Mass density, kg/m3	uncertainty
288.15	1031.776	0.19
293.15	1030.632	0.188
298.15	1029.261	0.188
303.15	1027.692	0.19

System: D-glucose + water; phases: Liquid
Fixed: Pressure, kPa = 86
Fixed: Molality, mol/kg of D-glucose = 0.5
Fixed: Frequency, MHz = 3
Property: Speed of sound, m/s (Liquid); method: Single path-length method
Temperature, K	Speed of sound, m/s	uncertainty
288.15	1499.67	0.56
293.15	1514.28	0.55
298.15	1527.33	0.55
303.15	1538.53	0.56
