Measured thermophysical data. Solubilities of some organic solutes in 1-ethyl-3-methylimidazolium acetate. Chromatographic measurements and predictions from COSMO-RS
Source: J. Chem. Thermodyn., 2012, 10.1016/j.jct.2011.11.005
Compound 1: benzene, C6H6, InChI=1S/C6H6/c1-2-4-6-5-3-1/h1-6H, purity 99.9%
Compound 2: toluene, C7H8, InChI=1S/C7H8/c1-7-5-3-2-4-6-7/h2-6H,1H3, purity 99.9%
Compound 3: hexane, C6H14, InChI=1S/C6H14/c1-3-5-6-4-2/h3-6H2,1-2H3, purity 99.9%
Compound 4: hex-1-ene, C6H12, InChI=1S/C6H12/c1-3-5-6-4-2/h3H,1,4-6H2,2H3, purity 99.9%
Compound 5: cyclohexane, C6H12, InChI=1S/C6H12/c1-2-4-6-5-3-1/h1-6H2, purity 99.9%
Compound 6: tetrahydrofuran, C4H8O, InChI=1S/C4H8O/c1-2-4-5-3-1/h1-4H2, purity 99.9%
Compound 7: ethyl acetate, C4H8O2, InChI=1S/C4H8O2/c1-3-6-4(2)5/h3H2,1-2H3, purity 99.9%
Compound 8: 1,4-dioxane, C4H8O2, InChI=1S/C4H8O2/c1-2-6-4-3-5-1/h1-4H2, purity 99.9%
Compound 9: acetonitrile, C2H3N, InChI=1S/C2H3N/c1-2-3/h1H3, purity 99.9%
Compound 10: 1-ethyl-3-methylimidazolium acetate, C8H14N2O2, InChI=1S/C6H11N2.C2H4O2/c1-3-8-5-4-7(2)6-8;1-2(3)4/h4-6H,3H2,1-2H3;1H3,(H,3,4)/q+1;/p-1, purity 95%
Compound 11: propan-1-ol, C3H8O, InChI=1S/C3H8O/c1-2-3-4/h4H,2-3H2,1H3, purity 99.9%
Compound 12: propan-2-ol, C3H8O, InChI=1S/C3H8O/c1-3(2)4/h3-4H,1-2H3, purity 99.9%
Compound 13: 2-methylpropan-2-ol, C4H10O, InChI=1S/C4H10O/c1-4(2,3)5/h5H,1-3H3, purity 99.9%
Compound 14: 2-methylbutan-2-ol, C5H12O, InChI=1S/C5H12O/c1-4-5(2,3)6/h6H,4H2,1-3H3, purity 99.9%
Compound 15: nitromethane, CH3NO2, InChI=1S/CH3NO2/c1-2(3)4/h1H3, purity 99.9%
Compound 16: 1,2-dimethoxyethane, C4H10O2, InChI=1S/C4H10O2/c1-5-3-4-6-2/h3-4H2,1-2H3, purity 99.9%
Compound 17: heptane, C7H16, InChI=1S/C7H16/c1-3-5-7-6-4-2/h3-7H2,1-2H3, purity 99.9%

System: 1-ethyl-3-methylimidazolium acetate; phases: Liquid
Fixed: Pressure, kPa = 101.325
Property: Mass density, kg/m3 (Liquid); method: Vibrating tube method
Temperature, K	Mass density, kg/m3	uncertainty
293.15	1100.87	0.311
298.15	1097.827	0.308
303.15	1094.767	0.306
308.15	1091.706	0.303
313.15	1088.654	0.301
318.15	1085.607	0.298
323.15	1082.574	0.296
328.15	1079.551	0.293
333.15	1076.539	0.291
338.15	1073.536	0.288
343.15	1070.55	0.286
348.15	1067.576	0.284
353.15	1064.611	0.281
358.15	1061.654	0.279

System: benzene + 1-ethyl-3-methylimidazolium acetate; phases: Liquid
Fixed: Pressure, kPa = 101.3
Fixed: Mole fraction of benzene = 0
Property: Activity coefficient of benzene (Liquid); method: open tubular wall-coated column chromatography
Temperature, K	Activity coefficient of benzene	uncertainty
313	2.8	0.28
333	3.06	0.31
353	3.43	0.34
373	3.44	0.34
383	3.49	0.35
393	3.68	0.37
403	3.91	0.4
413	4.28	0.43

System: benzene + 1-ethyl-3-methylimidazolium acetate; phases: Liquid
Fixed: Pressure, kPa = 101.3
Fixed: Mole fraction of benzene = 0
Property: Activity coefficient of benzene (Liquid); method: Chromatography
Temperature, K	Activity coefficient of benzene	uncertainty
353	3.41	0.23
353	3.39	0.23
373	3.45	0.24
373	3.31	0.23
383	3.49	0.24
383	3.62	0.25
393	3.52	0.25
393	3.45	0.24
403	4.15	0.29
403	3.67	0.26
413	4.1	0.28
413	4.11	0.28

System: toluene + 1-ethyl-3-methylimidazolium acetate; phases: Liquid
Fixed: Pressure, kPa = 101.3
Fixed: Mole fraction of toluene = 0
Property: Activity coefficient of toluene (Liquid); method: Chromatography
Temperature, K	Activity coefficient of toluene	uncertainty
363	6.07	0.41
363	6.21	0.42
373	6.08	0.41
373	5.92	0.4
383	6.12	0.42
383	6.03	0.41
393	6.23	0.42
393	5.87	0.4
403	6.28	0.44
403	6.04	0.42
413	7.11	0.51
413	6.37	0.43

System: toluene + 1-ethyl-3-methylimidazolium acetate; phases: Liquid
Fixed: Pressure, kPa = 101.3
Fixed: Mole fraction of toluene = 0
Property: Activity coefficient of toluene (Liquid); method: open tubular wall-coated column chromatography
Temperature, K	Activity coefficient of toluene	uncertainty
313	5.01	0.5
333	5.41	0.54
353	5.76	0.58
363	5.81	0.58
373	5.88	0.59
383	6.03	0.6
393	6.13	0.61
403	6.47	0.65
413	6.55	0.66

System: hexane + 1-ethyl-3-methylimidazolium acetate; phases: Liquid
Fixed: Pressure, kPa = 101.3
Fixed: Mole fraction of hexane = 0
Property: Activity coefficient of hexane (Liquid); method: Chromatography
Temperature, K	Activity coefficient of hexane	uncertainty
313	86.4	5.9
313	90.5	6.3
333	82.4	5.7
333	80.7	5.6
353	65.9	4.6
353	71.3	5
373	66.1	4.5
373	72.7	5
393	58.8	4.2
393	55.3	4
413	91.2	7
413	66.5	4.6

System: hexane + 1-ethyl-3-methylimidazolium acetate; phases: Liquid
Fixed: Pressure, kPa = 101.3
Fixed: Mole fraction of hexane = 0
Property: Activity coefficient of hexane (Liquid); method: open tubular wall-coated column chromatography
Temperature, K	Activity coefficient of hexane	uncertainty
313	86.5	8.7
333	80	8
353	70.6	7.1

System: hex-1-ene + 1-ethyl-3-methylimidazolium acetate; phases: Liquid
Fixed: Pressure, kPa = 101.3
Fixed: Mole fraction of hex-1-ene = 0
Property: Activity coefficient of hex-1-ene (Liquid); method: Chromatography
Temperature, K	Activity coefficient of hex-1-ene	uncertainty
313	37.8	2.6
313	39	2.7
333	34.7	2.4
333	35.5	2.5
353	31.3	2.1
353	34.8	2.4
373	31	2.1
373	33.4	2.3
393	30.6	2.1
393	30.1	2.1
413	25	1.8
413	27	1.9

System: hex-1-ene + 1-ethyl-3-methylimidazolium acetate; phases: Liquid
Fixed: Pressure, kPa = 101.3
Fixed: Mole fraction of hex-1-ene = 0
Property: Activity coefficient of hex-1-ene (Liquid); method: open tubular wall-coated column chromatography
Temperature, K	Activity coefficient of hex-1-ene	uncertainty
313	36	3.6
333	35.1	3.5

System: cyclohexane + 1-ethyl-3-methylimidazolium acetate; phases: Liquid
Fixed: Pressure, kPa = 101.3
Fixed: Mole fraction of cyclohexane = 0
Property: Activity coefficient of cyclohexane (Liquid); method: Chromatography
Temperature, K	Activity coefficient of cyclohexane	uncertainty
313	36.2	2.5
313	35.5	2.5
333	30.9	2.2
333	31.6	2.2
353	27.3	1.9
353	29.1	2
373	27.4	1.9
373	29.3	2
383	26.9	1.8
383	25.6	1.8
393	26.5	1.8
393	28.9	2
413	24.8	1.7
413	24.3	1.7

System: cyclohexane + 1-ethyl-3-methylimidazolium acetate; phases: Liquid
Fixed: Pressure, kPa = 101.3
Fixed: Mole fraction of cyclohexane = 0
Property: Activity coefficient of cyclohexane (Liquid); method: open tubular wall-coated column chromatography
Temperature, K	Activity coefficient of cyclohexane	uncertainty
313	31.8	3.2
333	31.5	3.2
353	32.8	3.3
393	30.3	3

System: tetrahydrofuran + 1-ethyl-3-methylimidazolium acetate; phases: Liquid
Fixed: Pressure, kPa = 101.3
Fixed: Mole fraction of tetrahydrofuran = 0
Property: Activity coefficient of tetrahydrofuran (Liquid); method: Chromatography
Temperature, K	Activity coefficient of tetrahydrofuran	uncertainty
333	3.91	0.27
333	3.36	0.24
353	3.92	0.27
353	3.37	0.23
373	3.68	0.25
373	3.5	0.24
393	3.88	0.27
393	3.35	0.23
403	4.02	0.27
403	3.55	0.24
413	4.13	0.28
413	3.9	0.27

System: tetrahydrofuran + 1-ethyl-3-methylimidazolium acetate; phases: Liquid
Fixed: Pressure, kPa = 101.3
Fixed: Mole fraction of tetrahydrofuran = 0
Property: Activity coefficient of tetrahydrofuran (Liquid); method: open tubular wall-coated column chromatography
Temperature, K	Activity coefficient of tetrahydrofuran	uncertainty
313	3.22	0.32
333	3.49	0.35
353	3.63	0.36
373	3.67	0.37
383	3.94	0.4
393	4.02	0.4
403	4	0.4

System: ethyl acetate + 1-ethyl-3-methylimidazolium acetate; phases: Liquid
Fixed: Pressure, kPa = 101.3
Fixed: Mole fraction of ethyl acetate = 0
Property: Activity coefficient of ethyl acetate (Liquid); method: Chromatography
Temperature, K	Activity coefficient of ethyl acetate	uncertainty
333	5.41	0.37
333	4.67	0.33
353	5.48	0.37
353	4.72	0.32
373	5.24	0.36
373	4.67	0.32
393	5.29	0.36
393	4.76	0.32
403	5.47	0.37
403	5.05	0.34
413	5.44	0.37
413	5.11	0.36

System: ethyl acetate + 1-ethyl-3-methylimidazolium acetate; phases: Liquid
Fixed: Pressure, kPa = 101.3
Fixed: Mole fraction of ethyl acetate = 0
Property: Activity coefficient of ethyl acetate (Liquid); method: open tubular wall-coated column chromatography
Temperature, K	Activity coefficient of ethyl acetate	uncertainty
313	4.41	0.44
333	4.77	0.48
353	5.24	0.53
373	5.62	0.56
393	5.35	0.54
403	5.32	0.53

System: 1,4-dioxane + 1-ethyl-3-methylimidazolium acetate; phases: Liquid
Fixed: Pressure, kPa = 101.3
Fixed: Mole fraction of 1,4-dioxane = 0
Property: Activity coefficient of 1,4-dioxane (Liquid); method: Chromatography
Temperature, K	Activity coefficient of 1,4-dioxane	uncertainty
373	2.56	0.17
373	2.43	0.17
393	2.63	0.18
393	2.32	0.16
403	2.75	0.19
403	2.44	0.17
413	2.77	0.19
413	2.46	0.18

System: 1,4-dioxane + 1-ethyl-3-methylimidazolium acetate; phases: Liquid
Fixed: Pressure, kPa = 101.3
Fixed: Mole fraction of 1,4-dioxane = 0
Property: Activity coefficient of 1,4-dioxane (Liquid); method: open tubular wall-coated column chromatography
Temperature, K	Activity coefficient of 1,4-dioxane	uncertainty
333	2.29	0.23
353	2.28	0.23
373	2.39	0.24
393	2.52	0.25
403	2.67	0.27
413	2.58	0.26

System: acetonitrile + 1-ethyl-3-methylimidazolium acetate; phases: Liquid
Fixed: Pressure, kPa = 101.3
Fixed: Mole fraction of acetonitrile = 0
Property: Activity coefficient of acetonitrile (Liquid); method: Chromatography
Temperature, K	Activity coefficient of acetonitrile	uncertainty
373	0.82	0.05
373	0.82	0.05
383	0.85	0.06
383	0.88	0.06
393	0.87	0.06
393	0.87	0.06

System: acetonitrile + 1-ethyl-3-methylimidazolium acetate; phases: Liquid
Fixed: Pressure, kPa = 101.3
Fixed: Mole fraction of acetonitrile = 0
Property: Activity coefficient of acetonitrile (Liquid); method: open tubular wall-coated column chromatography
Temperature, K	Activity coefficient of acetonitrile	uncertainty
333	0.76	0.08
353	0.77	0.08
373	0.86	0.09
383	0.91	0.09
393	0.89	0.09
403	1.21	0.14

System: propan-1-ol + 1-ethyl-3-methylimidazolium acetate; phases: Liquid
Fixed: Pressure, kPa = 101.3
Fixed: Mole fraction of propan-1-ol = 0
Property: Activity coefficient of propan-1-ol (Liquid); method: Open tubular Wall-Coated Column Chromatography
Temperature, K	Activity coefficient of propan-1-ol	uncertainty
313	0.06	0.01
333	0.07	0.01
353	0.09	0.01
373	0.1	0.01
393	0.11	0.01
413	0.13	0.01

System: propan-2-ol + 1-ethyl-3-methylimidazolium acetate; phases: Liquid
Fixed: Pressure, kPa = 101.3
Fixed: Mole fraction of propan-2-ol = 0
Property: Activity coefficient of propan-2-ol (Liquid); method: Open tubular Wall-Coated Column Chromatography
Temperature, K	Activity coefficient of propan-2-ol	uncertainty
313	0.08	0.01
333	0.11	0.01
353	0.13	0.01
373	0.15	0.02
393	0.16	0.02
413	0.19	0.02

System: 2-methylpropan-2-ol + 1-ethyl-3-methylimidazolium acetate; phases: Liquid
Fixed: Pressure, kPa = 101.3
Fixed: Mole fraction of 2-methylpropan-2-ol = 0
Property: Activity coefficient of 2-methylpropan-2-ol (Liquid); method: Open tubular Wall-Coated Column Chromatography
Temperature, K	Activity coefficient of 2-methylpropan-2-ol	uncertainty
313	0.16	0.02
333	0.18	0.02
353	0.22	0.02
373	0.27	0.03
393	0.3	0.03
413	0.37	0.04

System: 2-methylbutan-2-ol + 1-ethyl-3-methylimidazolium acetate; phases: Liquid
Fixed: Pressure, kPa = 101.3
Fixed: Mole fraction of 2-methylbutan-2-ol = 0
Property: Activity coefficient of 2-methylbutan-2-ol (Liquid); method: Open tubular Wall-Coated Column Chromatography
Temperature, K	Activity coefficient of 2-methylbutan-2-ol	uncertainty
353	0.29	0.03
373	0.35	0.04
393	0.42	0.04
413	0.49	0.05

System: nitromethane + 1-ethyl-3-methylimidazolium acetate; phases: Liquid
Fixed: Pressure, kPa = 101.3
Fixed: Mole fraction of nitromethane = 0
Property: Activity coefficient of nitromethane (Liquid); method: Open tubular Wall-Coated Column Chromatography
Temperature, K	Activity coefficient of nitromethane	uncertainty
353	0.44	0.04
373	0.46	0.05
393	0.46	0.05

System: 1,2-dimethoxyethane + 1-ethyl-3-methylimidazolium acetate; phases: Liquid
Fixed: Pressure, kPa = 101.3
Fixed: Mole fraction of 1,2-dimethoxyethane = 0
Property: Activity coefficient of 1,2-dimethoxyethane (Liquid); method: Open tubular Wall-Coated Column Chromatography
Temperature, K	Activity coefficient of 1,2-dimethoxyethane	uncertainty
313	3.56	0.36
333	3.88	0.39
353	4.11	0.41
373	4.51	0.45
393	4.81	0.48

System: heptane + 1-ethyl-3-methylimidazolium acetate; phases: Liquid
Fixed: Pressure, kPa = 101.3
Fixed: Mole fraction of heptane = 0
Property: Activity coefficient of heptane (Liquid); method: Open tubular Wall-Coated Column Chromatography
Temperature, K	Activity coefficient of heptane	uncertainty
313	121	12
333	146	15
353	157	16
373	173	17
