Measured thermophysical data. Separation of the mixture (isopropyl alcohol + diisopropyl ether + n-propanol): Entrainer selection, interaction exploration and vapour-liquid equilibrium measurements
Source: J. Chem. Thermodyn., 2019, 10.1016/j.jct.2019.03.018
Compound 1: 1-ethoxy-2-propanol, C5H12O2, InChI=1S/C5H12O2/c1-3-7-4-5(2)6/h5-6H,3-4H2,1-2H3, purity 99%
Compound 2: propan-1-ol, C3H8O, InChI=1S/C3H8O/c1-2-3-4/h4H,2-3H2,1H3, purity 99%
Compound 3: propan-2-ol, C3H8O, InChI=1S/C3H8O/c1-3(2)4/h3-4H,1-2H3, purity 99.7%
Compound 4: diisopropyl ether, C6H14O, InChI=1S/C6H14O/c1-5(2)7-6(3)4/h5-6H,1-4H3, purity 99%

System: 1-ethoxy-2-propanol; phases: Liquid, Gas
Property: Normal boiling temperature, K (Liquid); method: Ebulliometric method (Recirculating still)
Normal boiling temperature, K	uncertainty
405.04	0.7

System: propan-1-ol; phases: Liquid, Gas
Property: Normal boiling temperature, K (Liquid); method: Ebulliometric method (Recirculating still)
Normal boiling temperature, K	uncertainty
369.9	0.7

System: propan-2-ol; phases: Liquid, Gas
Property: Normal boiling temperature, K (Liquid); method: Ebulliometric method (Recirculating still)
Normal boiling temperature, K	uncertainty
355.33	0.7

System: diisopropyl ether; phases: Liquid, Gas
Property: Normal boiling temperature, K (Liquid); method: Ebulliometric method (Recirculating still)
Normal boiling temperature, K	uncertainty
341.72	0.7

System: propan-2-ol + 1-ethoxy-2-propanol; phases: Liquid, Gas
Fixed: Pressure, kPa = 101.3
Property: Boiling temperature at pressure P, K (Liquid); method: Ebulliometric method (Recirculating still)
Mole fraction of propan-2-ol	Boiling temperature at pressure P, K	uncertainty
0.9614	355.96	0.72
0.8509	358.32	0.72
0.7286	361.37	0.72
0.6262	364.34	0.72
0.5359	367.38	0.72
0.4594	370.46	0.72
0.3902	373.52	0.72
0.3316	376.51	0.72
0.2822	379.2	0.72
0.2337	382.25	0.72
0.1846	385.66	0.72
0.1454	388.7	0.72
0.1161	391.2	0.72
0.0793	394.86	0.72
0.0542	397.89	0.72
0.0243	401.21	0.72
0.004	404.83	0.72
1	355.33	0.72
0	405.04	0.72

System: propan-2-ol + 1-ethoxy-2-propanol; phases: Gas, Liquid
Fixed: Pressure, kPa = 101.3
Property: Mole fraction of propan-2-ol (Gas); method: Chromatography
Mole fraction of propan-2-ol	Mole fraction of propan-2-ol	uncertainty
0.9614	0.9919	0.0081
0.8509	0.9687	0.0124
0.7286	0.9364	0.0124
0.6262	0.9058	0.0124
0.5359	0.873	0.0125
0.4594	0.8373	0.0125
0.3902	0.7961	0.0126
0.3316	0.7505	0.0126
0.2822	0.7052	0.0127
0.2337	0.6493	0.0129
0.1846	0.5794	0.0131
0.1454	0.5108	0.0133
0.1161	0.4493	0.0131
0.0793	0.3509	0.0128
0.0542	0.2631	0.0126
0.0243	0.1542	0.0125
0.004	0.0309	0.0124
1	1	
0	0	

System: diisopropyl ether + 1-ethoxy-2-propanol; phases: Liquid, Gas
Fixed: Pressure, kPa = 101.3
Property: Boiling temperature at pressure P, K (Liquid); method: Ebulliometric method (Recirculating still)
Mole fraction of diisopropyl ether	Boiling temperature at pressure P, K	uncertainty
0.9701	342.3	0.72
0.7287	346.23	0.72
0.4691	350.41	0.72
0.3524	354.5	0.72
0.2825	358.41	0.72
0.239	362.17	0.72
0.1899	367.12	0.72
0.1574	370.86	0.72
0.1282	375.38	0.72
0.0979	380.88	0.72
0.0763	385.22	0.72
0.0544	390.22	0.72
0.0432	392.99	0.72
0.0314	395.96	0.72
0.0205	399.14	0.72
0.0094	402.52	0.72
1	341.72	0.72
0	405.04	0.72

System: diisopropyl ether + 1-ethoxy-2-propanol; phases: Gas, Liquid
Fixed: Pressure, kPa = 101.3
Property: Mole fraction of diisopropyl ether (Gas); method: Chromatography
Mole fraction of diisopropyl ether	Mole fraction of diisopropyl ether	uncertainty
0.9701	0.9927	0.0073
0.7287	0.9339	0.0124
0.4691	0.9011	0.0125
0.3524	0.8725	0.0125
0.2825	0.8513	0.0126
0.239	0.8256	0.0127
0.1899	0.7787	0.0128
0.1574	0.7378	0.0129
0.1282	0.6814	0.0131
0.0979	0.6006	0.0133
0.0763	0.5262	0.0135
0.0544	0.425	0.0132
0.0432	0.3618	0.0129
0.0314	0.2892	0.0127
0.0205	0.2037	0.0125
0.0094	0.1025	0.0124
1	1	
0	0	

System: propan-1-ol + 1-ethoxy-2-propanol; phases: Liquid, Gas
Fixed: Pressure, kPa = 101.3
Property: Boiling temperature at pressure P, K (Liquid); method: Ebulliometric method (Recirculating still)
Mole fraction of propan-1-ol	Boiling temperature at pressure P, K	uncertainty
0.9246	371.77	0.72
0.8649	372.9	0.72
0.8089	374.09	0.72
0.7535	375.34	0.72
0.6983	376.67	0.72
0.6437	378.07	0.72
0.5886	379.56	0.72
0.5328	381.16	0.72
0.4765	382.84	0.72
0.4206	384.66	0.72
0.3663	386.62	0.72
0.3125	388.73	0.72
0.2584	391.01	0.72
0.204	393.49	0.72
0.1487	396.21	0.72
0.096	399.19	0.72
0.0433	402.48	0.72
1	369.9	0.72
0	405.04	0.72

System: propan-1-ol + 1-ethoxy-2-propanol; phases: Gas, Liquid
Fixed: Pressure, kPa = 101.3
Property: Mole fraction of propan-1-ol (Gas); method: Chromatography
Mole fraction of propan-1-ol	Mole fraction of propan-1-ol	uncertainty
0.9246	0.9755	0.0122
0.8649	0.9543	0.0122
0.8089	0.933	0.0122
0.7535	0.9101	0.0123
0.6983	0.8854	0.0123
0.6437	0.8585	0.0124
0.5886	0.828	0.0125
0.5328	0.7932	0.0125
0.4765	0.7541	0.0127
0.4206	0.7098	0.0128
0.3663	0.6609	0.0129
0.3125	0.6054	0.0131
0.2584	0.5402	0.0133
0.204	0.4635	0.0132
0.1487	0.3722	0.0128
0.096	0.2659	0.0124
0.0433	0.1361	0.0123
1	1	
0	0	
