Measured thermophysical data. Enthalpies of sublimation of L-methionine and DL-methionine: Knudsen's effusion mass spectrometric study
Source: J. Chem. Thermodyn., 2019, 10.1016/j.jct.2019.04.006
Compound 1: L-methionine, C5H11NO2S, InChI=1S/C5H11NO2S/c1-9-3-2-4(6)5(7)8/h4H,2-3,6H2,1H3,(H,7,8)/t4-/m0/s1, purity 98%
Compound 2: DL-2-amino-4-(methylthio)butanoic acid, C5H11NO2S, InChI=1S/C5H11NO2S/c1-9-3-2-4(6)5(7)8/h4H,2-3,6H2,1H3,(H,7,8), purity 99%
Compound 3: benzoic acid, C7H6O2, InChI=1S/C7H6O2/c8-7(9)6-4-2-1-3-5-6/h1-5H,(H,8,9), purity 99.5%

System: L-methionine; phases: Crystal, Gas
Property: Molar enthalpy of vaporization or sublimation, kJ/mol (Crystal); method: Derived by Second law
Temperature, K	Molar enthalpy of vaporization or sublimation, kJ/mol	uncertainty
437	139	4

System: DL-2-amino-4-(methylthio)butanoic acid; phases: Crystal, Gas
Property: Molar enthalpy of vaporization or sublimation, kJ/mol (Crystal); method: Derived by Second law
Temperature, K	Molar enthalpy of vaporization or sublimation, kJ/mol	uncertainty
423	134	3

System: DL-2-amino-4-(methylthio)butanoic acid; phases: Crystal
Fixed: Pressure, kPa = 101.325
Property: Molar heat capacity at constant pressure, J/K/mol (Crystal); method: DSC
Temperature, K	Molar heat capacity at constant pressure, J/K/mol	uncertainty
208.72	145.39	5.91
210.22	145.59	5.91
211.72	146.57	5.95
213.72	147.97	6.01
216.22	150.38	6.11
218.22	152.14	6.18
221.72	155.91	6.33
224.22	157.49	6.4
226.72	159.11	6.46
227.22	159.42	6.48
230.22	161.3	6.55
233.22	162.93	6.62
236.22	164.63	6.69
239.22	166.6	6.77
243.22	168.79	6.86
247.22	170.83	6.94
252.22	173.41	7.04
256.72	176.16	7.16
260.72	178.94	7.27
264.22	181.37	7.37
268.72	184.35	7.49
271.22	184.84	7.51
273.22	187.3	7.61
276.72	190.45	7.74
279.72	192.56	7.82
283.22	194.93	7.92
287.22	196.84	8
291.72	199.53	8.1
292.22	199.85	8.12
293.22	200.43	8.14
294.22	201.59	8.19
295.22	202.47	8.22
297.72	205.07	8.33
298.15	205.16	8.33
298.22	205.65	8.35
298.72	205.99	8.37
301.72	208.47	8.47
303.72	209.85	8.52
305.72	211.52	8.59
307.72	212.85	8.65
310.22	214.89	8.73
314.22	218.21	8.86
318.22	222.26	9.03
321.22	225.76	9.17

System: benzoic acid; phases: Crystal
Fixed: Pressure, kPa = 101.325
Property: Molar heat capacity at constant pressure, J/K/mol (Crystal); method: DSC
Temperature, K	Molar heat capacity at constant pressure, J/K/mol	uncertainty
208.72	104.86	4.26
210.22	105.69	4.29
211.72	106.52	4.33
213.72	107.61	4.37
216.22	108.96	4.43
218.22	110.02	4.47
221.72	111.86	4.54
224.22	113.15	4.6
226.72	114.43	4.65
227.22	114.68	4.66
230.22	116.19	4.72
233.22	117.68	4.78
236.22	119.14	4.84
239.22	120.59	4.9
243.22	122.5	4.98
247.22	124.38	5.05
252.22	126.69	5.15
256.72	128.74	5.23
260.72	130.54	5.3
264.22	132.1	5.37
268.72	134.09	5.45
271.22	135.19	5.49
273.22	136.06	5.53
276.72	137.59	5.59
279.72	138.9	5.64
283.22	140.41	5.7
287.22	142.15	5.77
291.72	144.1	5.85
292.22	144.31	5.86
293.22	144.75	5.88
294.22	145.18	5.9
295.22	145.61	5.91
297.72	146.7	5.96
298.15	146.89	5.97
298.22	146.92	5.97
298.72	147.13	5.98
301.72	148.44	6.03
303.72	149.32	6.07
305.72	150.19	6.1
307.72	151.07	6.14
310.22	152.18	6.18
314.22	153.96	6.25
318.22	155.75	6.33
321.22	157.11	6.38
