Measured thermophysical data. Construction, calibration and testing of a micro-combustion calorimeter
Source: J. Chem. Thermodyn., 2006, 10.1016/j.jct.2006.03.001
Compound 1: carbon dioxide, CO2, InChI=1S/CO2/c2-1-3
Compound 2: water, H2O, InChI=1S/H2O/h1H2
Compound 3: oxygen, O2, InChI=1S/O2/c1-2
Compound 4: 2-hydroxybenzoic acid, C7H6O3, InChI=1S/C7H6O3/c8-6-4-2-1-3-5(6)7(9)10/h1-4,8H,(H,9,10)
Compound 5: 1,3-benzodioxole-5-carboxylic acid, C8H6O4, InChI=1S/C8H6O4/c9-8(10)5-1-2-6-7(3-5)12-4-11-6/h1-3H,4H2,(H,9,10)

Reaction: -1 2-hydroxybenzoic acid + 7 carbon dioxide + 3 water + -7 oxygen
Property: Specific internal energy of reaction at constant volume, J/g
-21888

Reaction: -1 1,3-benzodioxole-5-carboxylic acid + 8 carbon dioxide + 3 water + -7.5 oxygen
Property: Specific internal energy of reaction at constant volume, J/g
-20215.9
