Measured thermophysical data. Density and viscosity of (3-picoline + water) binary mixtures from T = (293.15 to 343.15) K
Source: J. Chem. Thermodyn., 2005, 10.1016/j.jct.2004.11.009
Compound 1: 3-methylpyridine, C6H7N, InChI=1S/C6H7N/c1-6-3-2-4-7-5-6/h2-5H,1H3
Compound 2: water, H2O, InChI=1S/H2O/h1H2, purity 99.5%

System: 3-methylpyridine; phases: Liquid
Fixed: Pressure, kPa = 101.325
Property: Viscosity, Pa*s (Liquid); method: CAPTUB:UFactor:2
Temperature, K	Viscosity, Pa*s	uncertainty
293.15	0.0009459	1.57e-05
303.15	0.0008318	1.39e-05
313.15	0.0007352	1.24e-05
323.15	0.0006565	1.12e-05
333.15	0.0005936	1.02e-05
343.15	0.000539	9.4e-06

System: 3-methylpyridine; phases: Liquid
Fixed: Pressure, kPa = 101.325
Property: Mass density, kg/m3 (Liquid); method: PYCNOM:UFactor:2
Temperature, K	Mass density, kg/m3	uncertainty
293.15	956	0.6
303.15	946.6	0.6
313.15	937.7	0.6
323.15	928.3	0.7
333.15	919.3	0.7
343.15	910.3	0.7

System: 3-methylpyridine + water; phases: Liquid
Fixed: Pressure, kPa = 101.325
Property: Viscosity, Pa*s (Liquid); method: CAPTUB:UFactor:2
Temperature, K	Mole fraction of 3-methylpyridine	Viscosity, Pa*s	uncertainty
293.15	0	0.001002	1.67e-05
293.15	0.0101	0.0011494	1.92e-05
293.15	0.0211	0.0013008	2.16e-05
293.15	0.033	0.0014671	2.41e-05
293.15	0.0462	0.0016264	2.66e-05
293.15	0.114	0.0023006	3.7e-05
293.15	0.225	0.0029144	4.65e-05
293.15	0.36	0.0030398	4.84e-05
293.15	0.436	0.0028995	4.63e-05
293.15	0.5	0.002733	4.36e-05
293.15	0.6	0.0023863	3.82e-05
293.15	0.7	0.0020207	3.25e-05
293.15	0.8	0.0016551	2.68e-05
293.15	0.9	0.0013105	2.14e-05
293.15	1	0.0009459	1.57e-05
303.15	0	0.0007977	1.35e-05
303.15	0.0101	0.000913	1.54e-05
303.15	0.0211	0.0010214	1.71e-05
303.15	0.033	0.0011328	1.88e-05
303.15	0.0462	0.0012553	2.08e-05
303.15	0.114	0.0017046	2.77e-05
303.15	0.225	0.0020224	3.27e-05
303.15	0.36	0.002034	3.28e-05
303.15	0.436	0.0019376	3.13e-05
303.15	0.5	0.0018298	2.96e-05
303.15	0.6	0.0016382	2.66e-05
303.15	0.7	0.0014486	2.36e-05
303.15	0.8	0.001255	2.05e-05
303.15	0.9	0.0010494	1.73e-05
303.15	1	0.0008318	1.39e-05
313.15	0	0.0006532	1.12e-05
313.15	0.0101	0.000731	1.25e-05
313.15	0.0211	0.0008139	1.38e-05
313.15	0.033	0.0008959	1.51e-05
313.15	0.0462	0.00098	1.64e-05
313.15	0.114	0.0013066	2.15e-05
313.15	0.225	0.0015717	2.56e-05
313.15	0.36	0.0015877	2.58e-05
313.15	0.436	0.001511	2.46e-05
313.15	0.5	0.0014302	2.33e-05
313.15	0.6	0.0012864	2.11e-05
313.15	0.7	0.0011486	1.89e-05
313.15	0.8	0.0010178	1.68e-05
313.15	0.9	0.000884	1.47e-05
313.15	1	0.0007352	1.24e-05
323.15	0	0.000547	9.6e-06
323.15	0.0101	0.0006101	1.06e-05
323.15	0.0211	0.0006693	1.15e-05
323.15	0.033	0.0007356	1.26e-05
323.15	0.0462	0.0007921	1.34e-05
323.15	0.114	0.0010485	1.74e-05
323.15	0.225	0.0012296	2.02e-05
323.15	0.36	0.0012554	2.06e-05
323.15	0.436	0.0012068	1.98e-05
323.15	0.5	0.0011618	1.91e-05
323.15	0.6	0.0010707	1.77e-05
323.15	0.7	0.0009777	1.62e-05
323.15	0.8	0.0008686	1.45e-05
323.15	0.9	0.0007536	1.27e-05
323.15	1	0.0006565	1.12e-05
333.15	0	0.0004665	8.3e-06
333.15	0.0101	0.0005203	9.2e-06
333.15	0.0211	0.0005735	1e-05
333.15	0.033	0.0006346	1.1e-05
333.15	0.0462	0.0006624	1.14e-05
333.15	0.114	0.000866	1.45e-05
333.15	0.225	0.0010151	1.69e-05
333.15	0.36	0.0010423	1.73e-05
333.15	0.436	0.0010039	1.67e-05
333.15	0.5	0.0009701	1.61e-05
333.15	0.6	0.0008988	1.5e-05
333.15	0.7	0.0008305	1.39e-05
333.15	0.8	0.0007562	1.28e-05
333.15	0.9	0.0006699	1.14e-05
333.15	1	0.0005936	1.02e-05
343.15	0	0.000404	7.3e-06
343.15	0.0101	0.0004504	8.1e-06
343.15	0.0211	0.0004888	8.7e-06
343.15	0.033	0.0005355	9.4e-06
343.15	0.0462	0.0005782	1.01e-05
343.15	0.114	0.0007454	1.27e-05
343.15	0.225	0.0008494	1.43e-05
343.15	0.36	0.0008766	1.47e-05
343.15	0.436	0.0008557	1.43e-05
343.15	0.5	0.0008315	1.4e-05
343.15	0.6	0.000786	1.32e-05
343.15	0.7	0.0007335	1.24e-05
343.15	0.8	0.000673	1.15e-05
343.15	0.9	0.0006135	1.05e-05
343.15	1	0.000539	9.4e-06

System: 3-methylpyridine + water; phases: Liquid
Fixed: Pressure, kPa = 101.325
Property: Mass density, kg/m3 (Liquid); method: PYCNOM:UFactor:2
Temperature, K	Mole fraction of 3-methylpyridine	Mass density, kg/m3	uncertainty
293.15	0	998.2	0.6
293.15	0.0101	998	0.6
293.15	0.0211	997.8	0.6
293.15	0.033	997.5	0.6
293.15	0.0462	997.2	0.6
293.15	0.114	995.4	0.6
293.15	0.225	992.1	0.6
293.15	0.36	986.9	0.6
293.15	0.436	983.1	0.6
293.15	0.5	979.7	0.6
293.15	0.6	974.3	0.6
293.15	0.7	969	0.6
293.15	0.8	964.1	0.6
293.15	0.9	959.8	0.6
293.15	1	956	0.6
303.15	0	995.7	0.7
303.15	0.0101	995.1	0.7
303.15	0.0211	994.4	0.7
303.15	0.033	993.7	0.7
303.15	0.0462	992.9	0.7
303.15	0.114	989.3	0.7
303.15	0.225	984	0.7
303.15	0.36	977.8	0.6
303.15	0.436	973.6	0.6
303.15	0.5	970.2	0.6
303.15	0.6	964.5	0.6
303.15	0.7	959.4	0.6
303.15	0.8	954.6	0.6
303.15	0.9	950.3	0.6
303.15	1	946.6	0.6
313.15	0	992.2	0.7
313.15	0.0101	991.2	0.7
313.15	0.0211	990.2	0.7
313.15	0.033	989.2	0.7
313.15	0.0462	988	0.7
313.15	0.114	982.9	0.7
313.15	0.225	976.4	0.7
313.15	0.36	968.9	0.7
313.15	0.436	964.7	0.7
313.15	0.5	961	0.7
313.15	0.6	955.3	0.7
313.15	0.7	950.2	0.7
313.15	0.8	945.5	0.6
313.15	0.9	941.3	0.6
313.15	1	937.7	0.6
323.15	0	988	0.7
323.15	0.0101	986.6	0.7
323.15	0.0211	985.2	0.7
323.15	0.033	983.7	0.7
323.15	0.0462	982.3	0.7
323.15	0.114	975.6	0.7
323.15	0.225	967.7	0.7
323.15	0.36	959.4	0.7
323.15	0.436	954.9	0.7
323.15	0.5	951.2	0.7
323.15	0.6	945.5	0.7
323.15	0.7	940.5	0.7
323.15	0.8	935.9	0.7
323.15	0.9	931.8	0.7
323.15	1	928.3	0.7
333.15	0	983.2	0.8
333.15	0.0101	981.4	0.8
333.15	0.0211	979.6	0.8
333.15	0.033	977.7	0.8
333.15	0.0462	975.8	0.7
333.15	0.114	967.9	0.7
333.15	0.225	958.7	0.7
333.15	0.36	950	0.7
333.15	0.436	945.4	0.7
333.15	0.5	941.8	0.7
333.15	0.6	936.1	0.7
333.15	0.7	931.1	0.7
333.15	0.8	926.7	0.7
333.15	0.9	922.7	0.7
333.15	1	919.3	0.7
343.15	0	977.8	0.8
343.15	0.0101	975.8	0.8
343.15	0.0211	973.7	0.8
343.15	0.033	971.7	0.8
343.15	0.0462	969.4	0.8
343.15	0.114	960.5	0.8
343.15	0.225	950.2	0.8
343.15	0.36	940.4	0.8
343.15	0.436	936	0.8
343.15	0.5	932.3	0.7
343.15	0.6	926.8	0.7
343.15	0.7	921.8	0.7
343.15	0.8	917.4	0.7
343.15	0.9	913.6	0.7
343.15	1	910.3	0.7
