Measured thermophysical data. Permittivity and density of the systems (monoglyme, diglyme, triglyme, or tetraglyme + n-heptane) at several temperatures
Source: J. Chem. Thermodyn., 2011, 10.1016/j.jct.2010.09.008
Compound 1: heptane, C7H16, InChI=1S/C7H16/c1-3-5-7-6-4-2/h3-7H2,1-2H3, purity 99%
Compound 2: 1,2-dimethoxyethane, C4H10O2, InChI=1S/C4H10O2/c1-5-3-4-6-2/h3-4H2,1-2H3, purity 99.9%
Compound 3: 2,5,8-trioxanonane, C6H14O3, InChI=1S/C6H14O3/c1-7-3-5-9-6-4-8-2/h3-6H2,1-2H3, purity 99.5%
Compound 4: 2,5,8,11-tetraoxadodecane, C8H18O4, InChI=1S/C8H18O4/c1-9-3-5-11-7-8-12-6-4-10-2/h3-8H2,1-2H3, purity 99%
Compound 5: 2,5,8,11,14-pentaoxapentadecane, C10H22O5, InChI=1S/C10H22O5/c1-11-3-5-13-7-9-15-10-8-14-6-4-12-2/h3-10H2,1-2H3, purity 99%

System: heptane; phases: Liquid
Fixed: Pressure, kPa = 101.325
Property: Relative permittivity at zero frequency (Liquid); method: AC method
Temperature, K	Relative permittivity at zero frequency	uncertainty
288.15	1.94	0.04
298.15	1.93	0.04
308.15	1.92	0.04

System: heptane; phases: Liquid
Fixed: Pressure, kPa = 101.325
Property: Mass density, kg/m3 (Liquid); method: Vibrating tube method
Temperature, K	Mass density, kg/m3	uncertainty
288.15	688.03	0.3
298.15	679.58	0.31
308.15	671.03	0.31

System: 1,2-dimethoxyethane; phases: Liquid
Fixed: Pressure, kPa = 101.325
Property: Relative permittivity at zero frequency (Liquid); method: AC method
Temperature, K	Relative permittivity at zero frequency	uncertainty
288.15	7.41	0.15
298.15	7.07	0.14
308.15	6.75	0.14

System: 1,2-dimethoxyethane; phases: Liquid
Fixed: Pressure, kPa = 101.325
Property: Mass density, kg/m3 (Liquid); method: Vibrating tube method
Temperature, K	Mass density, kg/m3	uncertainty
288.15	872.05	0.22
298.15	861.14	0.22
308.15	850.06	0.22

System: 2,5,8-trioxanonane; phases: Liquid
Fixed: Pressure, kPa = 101.325
Property: Relative permittivity at zero frequency (Liquid); method: AC method
Temperature, K	Relative permittivity at zero frequency	uncertainty
288.15	7.69	0.15
298.15	7.4	0.15
308.15	7.12	0.14

System: 2,5,8-trioxanonane; phases: Liquid
Fixed: Pressure, kPa = 101.325
Property: Mass density, kg/m3 (Liquid); method: Vibrating tube method
Temperature, K	Mass density, kg/m3	uncertainty
288.15	949.34	0.22
298.15	939.35	0.22
308.15	929.36	0.22

System: 2,5,8,11-tetraoxadodecane; phases: Liquid
Fixed: Pressure, kPa = 101.325
Property: Relative permittivity at zero frequency (Liquid); method: AC method
Temperature, K	Relative permittivity at zero frequency	uncertainty
288.15	7.89	0.16
298.15	7.63	0.15
308.15	7.38	0.15

System: 2,5,8,11-tetraoxadodecane; phases: Liquid
Fixed: Pressure, kPa = 101.325
Property: Mass density, kg/m3 (Liquid); method: Vibrating tube method
Temperature, K	Mass density, kg/m3	uncertainty
288.15	990.08	0.29
298.15	980.58	0.29
308.15	971.07	0.29

System: 2,5,8,11,14-pentaoxapentadecane; phases: Liquid
Fixed: Pressure, kPa = 101.325
Property: Relative permittivity at zero frequency (Liquid); method: AC method
Temperature, K	Relative permittivity at zero frequency	uncertainty
288.15	8.04	0.16
298.15	7.78	0.16
308.15	7.55	0.15

System: 2,5,8,11,14-pentaoxapentadecane; phases: Liquid
Fixed: Pressure, kPa = 101.325
Property: Mass density, kg/m3 (Liquid); method: Vibrating tube method
Temperature, K	Mass density, kg/m3	uncertainty
288.15	1015.96	0.3
298.15	1006.68	0.29
308.15	997.27	0.29

System: 1,2-dimethoxyethane + heptane; phases: Liquid
Fixed: Pressure, kPa = 101.3
Property: Relative permittivity at zero frequency (Liquid); method: AC Method
Temperature, K	Mole fraction of heptane	Relative permittivity at zero frequency	uncertainty
288.15	0.1012	6.32	0.13
288.15	0.2002	5.43	0.11
288.15	0.3003	4.69	0.09
288.15	0.3997	4.07	0.08
288.15	0.5024	3.52	0.07
288.15	0.6016	3.07	0.06
288.15	0.7002	2.72	0.05
288.15	0.7979	2.42	0.05
288.15	0.9022	2.15	0.04
288.15	0.9511	2.04	0.04
298.15	0.1013	6.04	0.12
298.15	0.2013	5.2	0.1
298.15	0.3011	4.5	0.09
298.15	0.3992	3.92	0.08
298.15	0.503	3.41	0.07
298.15	0.6035	3	0.06
298.15	0.7028	2.67	0.05
298.15	0.7982	2.38	0.05
298.15	0.902	2.13	0.04
298.15	0.9497	2.03	0.04
308.15	0.0493	6.26	0.13
308.15	0.1001	5.79	0.12
308.15	0.2005	4.99	0.1
308.15	0.3016	4.34	0.09
308.15	0.399	3.8	0.08
308.15	0.5009	3.32	0.07
308.15	0.603	2.93	0.06
308.15	0.7028	2.6	0.05
308.15	0.802	2.33	0.05
308.15	0.8974	2.11	0.04
308.15	0.9505	2.01	0.04

System: 1,2-dimethoxyethane + heptane; phases: Liquid
Fixed: Pressure, kPa = 101.3
Property: Mass density, kg/m3 (Liquid); method: Vibrating tube method
Temperature, K	Mole fraction of heptane	Mass density, kg/m3	uncertainty
288.15	0.0495	857.82	0.23
288.15	0.0995	844.28	0.23
288.15	0.2045	818.14	0.23
288.15	0.2979	797.21	0.24
288.15	0.403	775.91	0.25
288.15	0.5042	757.33	0.25
288.15	0.5998	741.27	0.26
288.15	0.7021	725.61	0.27
288.15	0.8053	711.33	0.28
288.15	0.8998	699.44	0.29
288.15	0.9508	693.43	0.3
298.15	0.0503	846.65	0.23
298.15	0.0974	834.02	0.23
298.15	0.2008	808.4	0.23
298.15	0.2994	786.5	0.24
298.15	0.401	766.2	0.25
298.15	0.5026	747.97	0.25
298.15	0.5967	732.41	0.26
298.15	0.6994	716.96	0.27
298.15	0.8019	702.94	0.28
298.15	0.9009	690.67	0.29
298.15	0.9509	684.9	0.3
308.15	0.0496	836.12	0.23
308.15	0.0998	822.77	0.23
308.15	0.2009	798.1	0.24
308.15	0.3035	775.66	0.24
308.15	0.4011	756.35	0.25
308.15	0.5021	738.24	0.26
308.15	0.6	722.36	0.26
308.15	0.7018	707.33	0.27
308.15	0.8036	693.71	0.28
308.15	0.9014	681.82	0.29
308.15	0.9519	676.15	0.3

System: 2,5,8-trioxanonane + heptane; phases: Liquid
Fixed: Pressure, kPa = 101.3
Property: Relative permittivity at zero frequency (Liquid); method: AC Method
Temperature, K	Mole fraction of heptane	Relative permittivity at zero frequency	uncertainty
288.15	0.0492	7.25	0.15
288.15	0.0982	6.84	0.14
288.15	0.1991	6.04	0.12
288.15	0.3006	5.3	0.11
288.15	0.398	4.65	0.09
288.15	0.4977	4.05	0.08
288.15	0.5854	3.58	0.07
288.15	0.7026	3.02	0.06
288.15	0.801	2.61	0.05
288.15	0.8927	2.28	0.05
288.15	0.9408	2.12	0.04
298.15	0.0494	6.98	0.14
298.15	0.0988	6.59	0.13
298.15	0.1956	5.85	0.12
298.15	0.303	5.11	0.1
298.15	0.3959	4.52	0.09
298.15	0.4948	3.96	0.08
298.15	0.6028	3.4	0.07
298.15	0.7018	2.95	0.06
298.15	0.7937	2.59	0.05
298.15	0.891	2.25	0.05
298.15	0.9419	2.09	0.04
308.15	0.0494	6.73	0.13
308.15	0.0981	6.35	0.13
308.15	0.1993	5.62	0.11
308.15	0.3025	4.94	0.1
308.15	0.3951	4.39	0.09
308.15	0.4936	3.86	0.08
308.15	0.5951	3.36	0.07
308.15	0.7021	2.89	0.06
308.15	0.7993	2.53	0.05
308.15	0.8953	2.21	0.04
308.15	0.9472	2.06	0.04

System: 2,5,8-trioxanonane + heptane; phases: Liquid
Fixed: Pressure, kPa = 101.3
Property: Mass density, kg/m3 (Liquid); method: Vibrating tube method
Temperature, K	Mole fraction of heptane	Mass density, kg/m3	uncertainty
288.15	0.0482	935.46	0.23
288.15	0.0986	921.11	0.24
288.15	0.1969	893.54	0.24
288.15	0.3042	864.14	0.25
288.15	0.4054	836.87	0.26
288.15	0.5047	810.62	0.27
288.15	0.6049	784.64	0.27
288.15	0.6982	760.9	0.28
288.15	0.788	738.48	0.29
288.15	0.8899	713.78	0.3
288.15	0.9452	700.73	0.3
298.15	0.0484	925.56	0.23
298.15	0.1001	910.8	0.24
298.15	0.1957	884.11	0.24
298.15	0.2887	858.66	0.25
298.15	0.4049	827.49	0.26
298.15	0.4975	803.13	0.27
298.15	0.5939	778.25	0.27
298.15	0.6925	753.3	0.28
298.15	0.7931	728.38	0.29
298.15	0.8988	703	0.3
298.15	0.9481	691.49	0.3
308.15	0.0482	915.56	0.23
308.15	0.098	901.53	0.24
308.15	0.1961	874.29	0.24
308.15	0.3036	845.06	0.25
308.15	0.3981	819.81	0.26
308.15	0.4994	793.28	0.27
308.15	0.599	767.73	0.28
308.15	0.6963	743.26	0.28
308.15	0.7844	721.56	0.29
308.15	0.8841	697.7	0.3
308.15	0.9372	685.34	0.3
308.15	0.9738	676.94	0.31

System: 2,5,8,11-tetraoxadodecane + heptane; phases: Liquid
Fixed: Pressure, kPa = 101.3
Property: Relative permittivity at zero frequency (Liquid); method: AC Method
Temperature, K	Mole fraction of heptane	Relative permittivity at zero frequency	uncertainty
288.15	0.0502	7.53	0.15
288.15	0.0996	7.18	0.14
288.15	0.2037	6.44	0.13
288.15	0.3128	5.7	0.11
288.15	0.3994	5.13	0.1
288.15	0.5007	4.49	0.09
288.15	0.6027	3.88	0.08
288.15	0.7014	3.32	0.07
288.15	0.8007	2.81	0.06
288.15	0.8993	2.35	0.05
288.15	0.9502	2.14	0.04
298.15	0.0511	7.28	0.15
298.15	0.0992	6.94	0.14
298.15	0.2012	6.26	0.13
298.15	0.3025	5.59	0.11
298.15	0.4095	4.91	0.1
298.15	0.5014	4.36	0.09
298.15	0.6006	3.79	0.08
298.15	0.6989	3.26	0.07
298.15	0.7898	2.81	0.06
298.15	0.902	2.31	0.05
298.15	0.9501	2.11	0.04
308.15	0.0504	7.04	0.14
308.15	0.1008	6.71	0.13
308.15	0.2074	6.01	0.12
308.15	0.3092	5.37	0.11
308.15	0.4042	4.8	0.1
308.15	0.5048	4.22	0.08
308.15	0.6022	3.69	0.07
308.15	0.7071	3.15	0.06
308.15	0.801	2.7	0.05
308.15	0.9016	2.28	0.05
308.15	0.9514	2.09	0.04

System: 2,5,8,11-tetraoxadodecane + heptane; phases: Liquid
Fixed: Pressure, kPa = 101.3
Property: Mass density, kg/m3 (Liquid); method: Vibrating tube method
Temperature, K	Mole fraction of heptane	Mass density, kg/m3	uncertainty
288.15	0.0478	977.7	0.3
288.15	0.1018	963.5	0.3
288.15	0.2008	936.93	0.3
288.15	0.3046	908.26	0.3
288.15	0.4046	879.55	0.3
288.15	0.502	850.68	0.3
288.15	0.5988	821.04	0.3
288.15	0.6937	791	0.3
288.15	0.7981	756.91	0.31
288.15	0.8992	722.88	0.31
288.15	0.9471	706.43	0.31
298.15	0.0478	968.24	0.3
298.15	0.1018	954.08	0.3
298.15	0.2008	927.56	0.3
298.15	0.3046	898.85	0.3
298.15	0.4046	870.31	0.3
298.15	0.502	841.51	0.3
298.15	0.5988	811.96	0.3
298.15	0.6937	782.03	0.3
298.15	0.7981	748.1	0.31
298.15	0.8992	714.23	0.31
298.15	0.9471	697.88	0.31
308.15	0.0478	958.76	0.3
308.15	0.1018	944.65	0.3
308.15	0.2008	918.17	0.3
308.15	0.3046	889.51	0.3
308.15	0.4046	861.04	0.3
308.15	0.502	832.28	0.3
308.15	0.5988	802.84	0.3
308.15	0.6937	773	0.3
308.15	0.7981	739.22	0.31
308.15	0.8992	705.5	0.31
308.15	0.9471	689.25	0.31

System: heptane + 2,5,8,11,14-pentaoxapentadecane; phases: Liquid
Fixed: Pressure, kPa = 101.3
Property: Relative permittivity at zero frequency (Liquid); method: AC Method
Temperature, K	Mole fraction of heptane	Relative permittivity at zero frequency	uncertainty
288.15	0.0498	7.74	0.15
288.15	0.0999	7.42	0.15
288.15	0.2001	6.79	0.14
288.15	0.3	6.15	0.12
288.15	0.3985	5.52	0.11
288.15	0.5076	4.82	0.1
288.15	0.6033	4.2	0.08
288.15	0.7044	3.58	0.07
288.15	0.8028	2.99	0.06
288.15	0.8985	2.45	0.05
288.15	0.8994	2.45	0.05
288.15	0.9495	2.19	0.04
298.15	0.0496	7.49	0.15
298.15	0.1016	7.19	0.14
298.15	0.1994	6.58	0.13
298.15	0.299	5.97	0.12
298.15	0.406	5.31	0.11
298.15	0.5037	4.7	0.09
298.15	0.6024	4.1	0.08
298.15	0.7027	3.51	0.07
298.15	0.8001	2.95	0.06
298.15	0.9013	2.41	0.05
298.15	0.9499	2.16	0.04
308.15	0.0503	7.25	0.15
308.15	0.1003	6.95	0.14
308.15	0.201	6.36	0.13
308.15	0.2949	5.82	0.12
308.15	0.3924	5.24	0.1
308.15	0.5048	4.58	0.09
308.15	0.6066	3.98	0.08
308.15	0.7117	3.38	0.07
308.15	0.7999	2.9	0.06
308.15	0.8988	2.38	0.05
308.15	0.9491	2.14	0.04

System: heptane + 2,5,8,11,14-pentaoxapentadecane; phases: Liquid
Fixed: Pressure, kPa = 101.3
Property: Mass density, kg/m3 (Liquid); method: Vibrating tube method
Temperature, K	Mole fraction of heptane	Mass density, kg/m3	uncertainty
288.15	0.0505	1004.42	0.3
288.15	0.0975	993.3	0.3
288.15	0.1982	968.25	0.3
288.15	0.3	941.07	0.3
288.15	0.4	912.66	0.3
288.15	0.5009	881.97	0.3
288.15	0.6017	848.59	0.3
288.15	0.6931	816.13	0.3
288.15	0.7998	775.06	0.31
288.15	0.8972	734.27	0.31
288.15	0.9466	712.33	0.31
298.15	0.0499	995.11	0.3
298.15	0.0996	983.28	0.3
298.15	0.1995	958.5	0.3
298.15	0.2961	932.8	0.3
298.15	0.4031	902.6	0.3
298.15	0.4975	873.81	0.3
298.15	0.6043	838.65	0.3
298.15	0.6975	805.52	0.3
298.15	0.8006	765.91	0.31
298.15	0.8982	725.23	0.31
298.15	0.948	703.4	0.31
308.15	0.0469	986.65	0.3
308.15	0.0979	974.59	0.3
308.15	0.1976	949.94	0.3
308.15	0.2944	924.23	0.3
308.15	0.3006	922.61	0.3
308.15	0.404	893.13	0.3
308.15	0.4956	865.23	0.3
308.15	0.6018	830.49	0.3
308.15	0.6965	796.89	0.31
308.15	0.7981	758.07	0.31
308.15	0.8986	716.39	0.31
308.15	0.9479	694.69	0.32
