Measured thermophysical data. P, rho, and T measurements of the (limonene + beta-pinene) mixtures
Source: J. Chem. Thermodyn., 2012, 10.1016/j.jct.2011.12.013
Compound 1: (R)-1-methyl-4-(1-methylethenyl)cyclohexene, C10H16, InChI=1S/C10H16/c1-8(2)10-6-4-9(3)5-7-10/h4,10H,1,5-7H2,2-3H3/t10-/m0/s1, purity 98%
Compound 2: (1S,5S)-6,6-dimethyl-2-methylenebicyclo[3.1.1]heptane, C10H16, InChI=1S/C10H16/c1-7-4-5-8-6-9(7)10(8,2)3/h8-9H,1,4-6H2,2-3H3/t8-,9-/m0/s1, purity 99%

System: (R)-1-methyl-4-(1-methylethenyl)cyclohexene; phases: Liquid
Property: Mass density, kg/m3 (Liquid); method: Custom Made Vibrating Tube Densimeter
Temperature, K	Pressure, kPa	Mass density, kg/m3	uncertainty
283.15	20000	862	0.8
283.15	25000	864.9	0.8
283.15	30000	867.7	0.8
283.15	35000	870.4	0.8
283.15	40000	873.3	0.8
298.15	20000	851.5	0.8
298.15	25000	854.5	0.8
298.15	30000	857.6	0.8
298.15	35000	860.9	0.8
298.15	40000	863.4	0.8
313.15	20000	841	0.7
313.15	25000	844.2	0.7
313.15	30000	847.2	0.8
313.15	35000	850.3	0.8
313.15	40000	853.3	0.8
328.15	20000	830.5	0.7
328.15	25000	833.8	0.7
328.15	30000	837.2	0.7
328.15	35000	840.4	0.7
328.15	40000	843.8	0.7
343.15	20000	820.1	0.7
343.15	25000	823.7	0.7
343.15	30000	827.3	0.7
343.15	35000	831.1	0.7
343.15	40000	834.6	0.7
358.15	20000	810.2	0.7
358.15	25000	813.9	0.7
358.15	30000	817.6	0.7
358.15	35000	821.3	0.7
358.15	40000	824.8	0.7

System: (1S,5S)-6,6-dimethyl-2-methylenebicyclo[3.1.1]heptane; phases: Liquid
Property: Mass density, kg/m3 (Liquid); method: Custom Made Vibrating Tube Densimeter
Temperature, K	Pressure, kPa	Mass density, kg/m3	uncertainty
283.15	20000	891.3	0.2
283.15	25000	894.2	0.2
283.15	30000	897	0.2
283.15	35000	899.9	0.2
283.15	40000	902.6	0.2
298.15	20000	880.2	0.2
298.15	25000	883.3	0.2
298.15	30000	886.3	0.2
298.15	35000	889.3	0.2
298.15	40000	892.2	0.2
313.15	20000	869.3	0.2
313.15	25000	872.6	0.2
313.15	30000	875.7	0.2
313.15	35000	878.8	0.2
313.15	40000	882	0.2
328.15	20000	858.2	0.2
328.15	25000	861.7	0.2
328.15	30000	865.2	0.2
328.15	35000	868.7	0.2
328.15	40000	872.2	0.2
343.15	20000	847.7	0.2
343.15	25000	851.4	0.2
343.15	30000	855	0.2
343.15	35000	858.6	0.2
343.15	40000	862.1	0.2
358.15	20000	837	0.2
358.15	25000	840.9	0.2
358.15	30000	844.8	0.2
358.15	35000	848.7	0.2
358.15	40000	852.6	0.2

System: (1S,5S)-6,6-dimethyl-2-methylenebicyclo[3.1.1]heptane + (R)-1-methyl-4-(1-methylethenyl)cyclohexene; phases: Liquid
Property: Mass density, kg/m3 (Liquid); method: Custom Made Vibrating Tube Densimeter
Temperature, K	Pressure, kPa	Mole fraction of (R)-1-methyl-4-(1-methylethenyl)cyclohexene	Mass density, kg/m3	uncertainty
283.15	20000	0	891.3	1
283.15	20000	0.11	888.1	1
283.15	20000	0.2008	885.4	1
283.15	20000	0.289	882.8	1
283.15	20000	0.3961	879.6	1
283.15	20000	0.4938	876.8	1.1
283.15	20000	0.5906	873.9	1.1
283.15	20000	0.6984	870.9	1.1
283.15	20000	0.7993	868	1.1
283.15	20000	0.9022	864.5	1.1
283.15	20000	1	862	1.1
283.15	25000	0	894.2	1
283.15	25000	0.11	891	1
283.15	25000	0.2008	888.3	1
283.15	25000	0.289	885.7	1
283.15	25000	0.3961	882.4	1
283.15	25000	0.4938	879.6	1.1
283.15	25000	0.5906	876.8	1.1
283.15	25000	0.6984	873.7	1.1
283.15	25000	0.7993	870.8	1.1
283.15	25000	0.9022	867.8	1.1
283.15	25000	1	864.9	1.1
283.15	30000	0	897	1
283.15	30000	0.11	893.9	1
283.15	30000	0.2008	891	1
283.15	30000	0.289	888.4	1
283.15	30000	0.3961	885.2	1
283.15	30000	0.4938	882.5	1.1
283.15	30000	0.5906	879.7	1.1
283.15	30000	0.6984	876.5	1.1
283.15	30000	0.7993	873.6	1.1
283.15	30000	0.9022	870.4	1.1
283.15	30000	1	867.7	1.1
283.15	35000	0	899.9	1
283.15	35000	0.11	896.7	1
283.15	35000	0.2008	893.8	1
283.15	35000	0.289	891.2	1
283.15	35000	0.3961	887.9	1
283.15	35000	0.4938	885.2	1.1
283.15	35000	0.5906	882.4	1.1
283.15	35000	0.6984	879.3	1.1
283.15	35000	0.7993	876.5	1.1
283.15	35000	0.9022	873.3	1.1
283.15	35000	1	870.4	1.1
283.15	40000	0	902.6	1
283.15	40000	0.11	899.3	1
283.15	40000	0.2008	896.3	1
283.15	40000	0.289	894	1
283.15	40000	0.3961	890.6	1
283.15	40000	0.4938	887.8	1.1
283.15	40000	0.5906	885.1	1.1
283.15	40000	0.6984	881.9	1.1
283.15	40000	0.7993	879.2	1.1
283.15	40000	0.9022	876	1.1
283.15	40000	1	873.3	1.2
298.15	20000	0	880.2	1
298.15	20000	0.11	877	1
298.15	20000	0.2008	874.1	1
298.15	20000	0.289	871.8	1
298.15	20000	0.3961	868.7	1
298.15	20000	0.4938	865.8	1.1
298.15	20000	0.5906	863	1.1
298.15	20000	0.6984	859.9	1.1
298.15	20000	0.7993	857.2	1.1
298.15	20000	0.9022	854.3	1.1
298.15	20000	1	851.5	1.1
298.15	25000	0	883.3	1
298.15	25000	0.11	880.1	1
298.15	25000	0.2008	877.2	1
298.15	25000	0.289	874.9	1
298.15	25000	0.3961	871.8	1
298.15	25000	0.4938	868.9	1.1
298.15	25000	0.5906	866.2	1.1
298.15	25000	0.6984	863.1	1.1
298.15	25000	0.7993	860.2	1.1
298.15	25000	0.9022	857.3	1.1
298.15	25000	1	854.5	1.1
298.15	30000	0	886.3	1
298.15	30000	0.11	883.1	1
298.15	30000	0.2008	880.3	1
298.15	30000	0.289	877.9	1
298.15	30000	0.3961	874.8	1
298.15	30000	0.4938	871.9	1.1
298.15	30000	0.5906	869.2	1.1
298.15	30000	0.6984	866.2	1.1
298.15	30000	0.7993	863.3	1.1
298.15	30000	0.9022	860.3	1.1
298.15	30000	1	857.6	1.1
298.15	35000	0	889.3	1
298.15	35000	0.11	886.1	1
298.15	35000	0.2008	883.5	1
298.15	35000	0.289	881	1
298.15	35000	0.3961	877.7	1
298.15	35000	0.4938	874.9	1.1
298.15	35000	0.5906	872.3	1.1
298.15	35000	0.6984	869	1.1
298.15	35000	0.7993	866.5	1.1
298.15	35000	0.9022	863.4	1.1
298.15	35000	1	860.9	1.1
298.15	40000	0	892.2	1
298.15	40000	0.11	889	1
298.15	40000	0.2008	886.5	1
298.15	40000	0.289	883.9	1
298.15	40000	0.3961	880.7	1
298.15	40000	0.4938	878	1.1
298.15	40000	0.5906	875.4	1.1
298.15	40000	0.6984	871.9	1.1
298.15	40000	0.7993	869	1.1
298.15	40000	0.9022	866.1	1.1
298.15	40000	1	863.4	1.1
313.15	20000	0	869.3	1
313.15	20000	0.11	866.1	1
313.15	20000	0.2008	863.5	1
313.15	20000	0.289	860.9	1
313.15	20000	0.3961	857.8	1
313.15	20000	0.4938	854.9	1
313.15	20000	0.5906	852.4	1.1
313.15	20000	0.6984	849.3	1.1
313.15	20000	0.7993	846.5	1.1
313.15	20000	0.9022	843.7	1.1
313.15	20000	1	841	1.1
313.15	25000	0	872.6	1
313.15	25000	0.11	869.5	1
313.15	25000	0.2008	866.8	1
313.15	25000	0.289	864.2	1
313.15	25000	0.3961	861.1	1
313.15	25000	0.4938	858.1	1
313.15	25000	0.5906	855.6	1.1
313.15	25000	0.6984	852.5	1.1
313.15	25000	0.7993	849.8	1.1
313.15	25000	0.9022	847	1.1
313.15	25000	1	844.2	1.1
313.15	30000	0	875.7	1
313.15	30000	0.11	872.6	1
313.15	30000	0.2008	870.1	1
313.15	30000	0.289	867.5	1
313.15	30000	0.3961	864.3	1
313.15	30000	0.4938	861.4	1.1
313.15	30000	0.5906	858.7	1.1
313.15	30000	0.6984	855.7	1.1
313.15	30000	0.7993	852.9	1.1
313.15	30000	0.9022	849.9	1.1
313.15	30000	1	847.2	1.1
313.15	35000	0	878.8	1
313.15	35000	0.11	875.7	1
313.15	35000	0.2008	873.3	1
313.15	35000	0.289	870.6	1
313.15	35000	0.3961	867.5	1
313.15	35000	0.4938	864.5	1.1
313.15	35000	0.5906	862	1.1
313.15	35000	0.6984	858.7	1.1
313.15	35000	0.7993	856.1	1.1
313.15	35000	0.9022	853	1.1
313.15	35000	1	850.3	1.1
313.15	40000	0	882	1
313.15	40000	0.11	878.8	1
313.15	40000	0.2008	876.7	1
313.15	40000	0.289	873.8	1
313.15	40000	0.3961	870.7	1
313.15	40000	0.4938	867.8	1.1
313.15	40000	0.5906	865	1.1
313.15	40000	0.6984	861.8	1.1
313.15	40000	0.7993	859.1	1.1
313.15	40000	0.9022	856	1.1
313.15	40000	1	853.3	1.1
328.15	20000	0	858.2	1
328.15	20000	0.11	855.3	1
328.15	20000	0.2008	852.6	1
328.15	20000	0.289	850.1	1
328.15	20000	0.3961	846.9	1
328.15	20000	0.4938	844.3	1
328.15	20000	0.5906	841.5	1.1
328.15	20000	0.6984	838.9	1.1
328.15	20000	0.7993	835.9	1.1
328.15	20000	0.9022	833.1	1.1
328.15	20000	1	830.5	1.1
328.15	25000	0	861.7	1
328.15	25000	0.11	858.7	1
328.15	25000	0.2008	856	1
328.15	25000	0.289	853.5	1
328.15	25000	0.3961	850.4	1
328.15	25000	0.4938	847.7	1
328.15	25000	0.5906	844.9	1.1
328.15	25000	0.6984	842.1	1.1
328.15	25000	0.7993	839.4	1.1
328.15	25000	0.9022	836.4	1.1
328.15	25000	1	833.8	1.1
328.15	30000	0	865.2	1
328.15	30000	0.11	862.1	1
328.15	30000	0.2008	859.5	1
328.15	30000	0.289	857	1
328.15	30000	0.3961	853.9	1
328.15	30000	0.4938	851.2	1
328.15	30000	0.5906	848.5	1.1
328.15	30000	0.6984	845.4	1.1
328.15	30000	0.7993	842.7	1.1
328.15	30000	0.9022	839.7	1.1
328.15	30000	1	837.2	1.1
328.15	35000	0	868.7	1
328.15	35000	0.11	865.5	1
328.15	35000	0.2008	862.7	1
328.15	35000	0.289	860.3	1
328.15	35000	0.3961	857.2	1
328.15	35000	0.4938	854.6	1
328.15	35000	0.5906	851.9	1.1
328.15	35000	0.6984	848.7	1.1
328.15	35000	0.7993	846.1	1.1
328.15	35000	0.9022	843.1	1.1
328.15	35000	1	840.4	1.1
328.15	40000	0	872.2	1
328.15	40000	0.11	868.8	1
328.15	40000	0.2008	866.1	1
328.15	40000	0.289	863.7	1
328.15	40000	0.3961	860.7	1
328.15	40000	0.4938	857.8	1
328.15	40000	0.5906	855.3	1.1
328.15	40000	0.6984	852	1.1
328.15	40000	0.7993	849.4	1.1
328.15	40000	0.9022	846.8	1.1
328.15	40000	1	843.8	1.1
343.15	20000	0	847.7	1
343.15	20000	0.11	844.7	1
343.15	20000	0.2008	842.1	1
343.15	20000	0.289	839.6	1
343.15	20000	0.3961	836.7	1
343.15	20000	0.4938	834	1
343.15	20000	0.5906	831.4	1.1
343.15	20000	0.6984	828.4	1.1
343.15	20000	0.7993	825.7	1.1
343.15	20000	0.9022	822.7	1.1
343.15	20000	1	820.1	1.1
343.15	25000	0	851.4	1
343.15	25000	0.11	848.4	1
343.15	25000	0.2008	845.8	1
343.15	25000	0.289	843.5	1
343.15	25000	0.3961	840.3	1
343.15	25000	0.4938	837.6	1
343.15	25000	0.5906	834.9	1.1
343.15	25000	0.6984	832	1.1
343.15	25000	0.7993	829.1	1.1
343.15	25000	0.9022	826.3	1.1
343.15	25000	1	823.7	1.1
343.15	30000	0	855	1
343.15	30000	0.11	852	1
343.15	30000	0.2008	849.4	1
343.15	30000	0.289	846.9	1
343.15	30000	0.3961	843.9	1
343.15	30000	0.4938	841.2	1
343.15	30000	0.5906	838.6	1.1
343.15	30000	0.6984	835.6	1.1
343.15	30000	0.7993	832.9	1.1
343.15	30000	0.9022	830	1.1
343.15	30000	1	827.3	1.1
343.15	35000	0	858.6	1
343.15	35000	0.11	855.5	1
343.15	35000	0.2008	853.1	1
343.15	35000	0.289	850.6	1
343.15	35000	0.3961	847.4	1
343.15	35000	0.4938	844.8	1
343.15	35000	0.5906	842.3	1.1
343.15	35000	0.6984	839.1	1.1
343.15	35000	0.7993	836.7	1.1
343.15	35000	0.9022	833.6	1.1
343.15	35000	1	831.1	1.1
343.15	40000	0	862.1	1
343.15	40000	0.11	859	1
343.15	40000	0.2008	856.7	1
343.15	40000	0.289	854	1
343.15	40000	0.3961	850.8	1
343.15	40000	0.4938	848.3	1
343.15	40000	0.5906	845.6	1.1
343.15	40000	0.6984	842.4	1.1
343.15	40000	0.7993	840.1	1.1
343.15	40000	0.9022	837.1	1.1
343.15	40000	1	834.6	1.1
358.15	20000	0	837	1
358.15	20000	0.11	834	1
358.15	20000	0.2008	831.4	1
358.15	20000	0.289	829.2	1
358.15	20000	0.3961	826.3	1
358.15	20000	0.4938	823.7	1
358.15	20000	0.5906	821	1.1
358.15	20000	0.6984	818.2	1.1
358.15	20000	0.7993	815.6	1.1
358.15	20000	0.9022	812.5	1.1
358.15	20000	1	810.2	1.1
358.15	25000	0	840.9	1
358.15	25000	0.11	838	1
358.15	25000	0.2008	835.4	1
358.15	25000	0.289	833	1
358.15	25000	0.3961	830.1	1
358.15	25000	0.4938	827.4	1
358.15	25000	0.5906	824.9	1.1
358.15	25000	0.6984	822	1.1
358.15	25000	0.7993	819.4	1.1
358.15	25000	0.9022	816.7	1.1
358.15	25000	1	813.9	1.1
358.15	30000	0	844.8	1
358.15	30000	0.11	841.9	1
358.15	30000	0.2008	839.2	1
358.15	30000	0.289	836.8	1
358.15	30000	0.3961	833.8	1
358.15	30000	0.4938	831.2	1
358.15	30000	0.5906	828.6	1.1
358.15	30000	0.6984	825.7	1.1
358.15	30000	0.7993	823	1.1
358.15	30000	0.9022	820	1.1
358.15	30000	1	817.6	1.1
358.15	35000	0	848.7	1
358.15	35000	0.11	845.7	1
358.15	35000	0.2008	843	1
358.15	35000	0.289	840.6	1
358.15	35000	0.3961	837.5	1
358.15	35000	0.4938	834.9	1
358.15	35000	0.5906	832.4	1.1
358.15	35000	0.6984	829.4	1.1
358.15	35000	0.7993	826.8	1.1
358.15	35000	0.9022	823.9	1.1
358.15	35000	1	821.3	1.1
358.15	40000	0	852.6	1
358.15	40000	0.11	849.6	1
358.15	40000	0.2008	846.8	1
358.15	40000	0.289	844.6	1
358.15	40000	0.3961	841.4	1
358.15	40000	0.4938	838.7	1
358.15	40000	0.5906	836.2	1.1
358.15	40000	0.6984	833.1	1.1
358.15	40000	0.7993	830.3	1.1
358.15	40000	0.9022	827.3	1.1
358.15	40000	1	824.8	1.1
