Measured thermophysical data. Excess molar enthalpies of the ternary mixtures (1-hexene + tetrahydrofuran or 2-methyltetrahydrofuran + methyl tert-butyl ether) at the temperature 298.15K.
Source: J. Chem. Thermodyn., 2006, 10.1016/j.jct.2006.03.020
Compound 1: hex-1-ene, C6H12, InChI=1S/C6H12/c1-3-5-6-4-2/h3H,1,4-6H2,2H3, purity 99%
Compound 2: tetrahydrofuran, C4H8O, InChI=1S/C4H8O/c1-2-4-5-3-1/h1-4H2, purity 99%
Compound 3: 2-methyltetrahydrofuran, C5H10O, InChI=1S/C5H10O/c1-5-3-2-4-6-5/h5H,2-4H2,1H3, purity 99%
Compound 4: 2-methoxy-2-methylpropane, C5H12O, InChI=1S/C5H12O/c1-5(2,3)6-4/h1-4H3, purity 99.5%

System: hex-1-ene; phases: Liquid
Property: Mass density, kg/m3 (Liquid); method: VIBTUB:UFactor:6
Temperature, K	Pressure, kPa	Mass density, kg/m3	uncertainty
298.15	101.325	668.73	1.38

System: tetrahydrofuran; phases: Liquid
Property: Mass density, kg/m3 (Liquid); method: VIBTUB:UFactor:6
Temperature, K	Pressure, kPa	Mass density, kg/m3	uncertainty
298.15	101.325	882.09	0.8

System: 2-methyltetrahydrofuran; phases: Liquid
Property: Mass density, kg/m3 (Liquid); method: VIBTUB:UFactor:6
Temperature, K	Pressure, kPa	Mass density, kg/m3	uncertainty
298.15	101.325	848.1	0.89

System: 2-methoxy-2-methylpropane; phases: Liquid
Property: Mass density, kg/m3 (Liquid); method: VIBTUB:UFactor:4
Temperature, K	Pressure, kPa	Mass density, kg/m3	uncertainty
298.15	101.325	735.99	0.74

System: tetrahydrofuran + hex-1-ene; phases: Liquid
Fixed: Pressure, kPa = 101
Fixed: Temperature, K = 298.15
Property: Excess molar enthalpy (molar enthalpy of mixing), kJ/mol (Liquid); method: Flow calorimetry
Mole fraction of hex-1-ene	Excess molar enthalpy (molar enthalpy of mixing), kJ/mol	uncertainty
0.0501	0.0675	0.0019
0.097	0.1271	0.0028
0.1507	0.1865	0.0037
0.1994	0.23	0.0044
0.2501	0.2716	0.0051
0.3003	0.3049	0.0057
0.3499	0.3298	0.0061
0.3999	0.349	0.0064
0.45	0.3593	0.0066
0.4977	0.3665	0.0067
0.5494	0.3636	0.0067
0.6006	0.3533	0.0065
0.649	0.3378	0.0062
0.6905	0.3182	0.0059
0.7499	0.2823	0.0053
0.7999	0.2454	0.0047
0.8501	0.1972	0.0039
0.8995	0.1401	0.003
0.95	0.0755	0.002

System: 2-methyltetrahydrofuran + hex-1-ene + 2-methoxy-2-methylpropane; phases: Liquid
Fixed: Pressure, kPa = 101
Fixed: Temperature, K = 298.15
Property: Excess molar enthalpy (molar enthalpy of mixing), kJ/mol (Liquid); method: Flow calorimetry
Solvent: Amount ratio of component to other component of binary solvent of 2-methyltetrahydrofuran	Mole fraction of hex-1-ene	Excess molar enthalpy (molar enthalpy of mixing), kJ/mol	uncertainty
0.3291	0.05	0.03001	0.00113
0.3291	0.1	0.05746	0.00151
0.3291	0.1557	0.08614	0.00195
0.3291	0.2002	0.10601	0.00226
0.3291	0.2499	0.12495	0.00257
0.3291	0.3002	0.14085	0.00284
0.3291	0.3496	0.15347	0.00305
0.3291	0.3997	0.16291	0.0032
0.3291	0.4502	0.16745	0.00328
0.3291	0.4996	0.16884	0.0033
0.3291	0.55	0.16779	0.00329
0.3291	0.6001	0.16527	0.00324
0.3291	0.6498	0.1572	0.00311
0.3291	0.6998	0.14688	0.00294
0.3291	0.7506	0.132	0.00269
0.3291	0.7991	0.11506	0.00241
0.3291	0.8499	0.09214	0.00205
0.3291	0.8999	0.0652	0.00163
0.3291	0.95	0.03532	0.00121
0.9948	0.0499	0.03068	0.00117
0.9948	0.0999	0.06228	0.00159
0.9948	0.1511	0.08983	0.00201
0.9948	0.2	0.11329	0.00239
0.9948	0.2502	0.13463	0.00274
0.9948	0.3005	0.14974	0.00299
0.9948	0.3502	0.16425	0.00323
0.9948	0.4003	0.17554	0.00342
0.9948	0.4498	0.17992	0.0035
0.9948	0.4994	0.18726	0.00362
0.9948	0.5499	0.18416	0.00357
0.9948	0.5996	0.17806	0.00346
0.9948	0.6496	0.17035	0.00333
0.9948	0.6998	0.15917	0.00315
0.9948	0.7495	0.14393	0.00289
0.9948	0.8003	0.12391	0.00256
0.9948	0.8499	0.09902	0.00216
0.9948	0.8999	0.0701	0.00172
0.9948	0.95	0.03878	0.00128
2.9463	0.0499	0.03214	0.00119
2.9463	0.1001	0.0654	0.00165
2.9463	0.1497	0.09505	0.0021
2.9463	0.1997	0.12018	0.0025
2.9463	0.2502	0.14183	0.00286
2.9463	0.3004	0.16186	0.0032
2.9463	0.3503	0.17697	0.00345
2.9463	0.3998	0.18683	0.00362
2.9463	0.4504	0.19525	0.00376
2.9463	0.4997	0.19728	0.00379
2.9463	0.5499	0.19641	0.00378
2.9463	0.6002	0.19195	0.0037
2.9463	0.6497	0.18198	0.00353
2.9463	0.6997	0.17121	0.00335
2.9463	0.75	0.15394	0.00306
2.9463	0.7999	0.13276	0.00271
2.9463	0.8498	0.10721	0.0023
2.9463	0.8999	0.07636	0.00183
2.9463	0.95	0.04004	0.00132

System: tetrahydrofuran + hex-1-ene + 2-methoxy-2-methylpropane; phases: Liquid
Fixed: Pressure, kPa = 101
Fixed: Temperature, K = 298.15
Property: Excess molar enthalpy (molar enthalpy of mixing), kJ/mol (Liquid); method: Flow calorimetry
Solvent: Amount ratio of component to other component of binary solvent of tetrahydrofuran	Mole fraction of hex-1-ene	Excess molar enthalpy (molar enthalpy of mixing), kJ/mol	uncertainty
0.4025	0.05	0.03665	0.00124
0.4025	0.1	0.06742	0.00168
0.4025	0.157	0.10237	0.00222
0.4025	0.2003	0.12221	0.00253
0.4025	0.2496	0.14338	0.00289
0.4025	0.3007	0.16228	0.0032
0.4025	0.3502	0.17559	0.00343
0.4025	0.3996	0.18512	0.00359
0.4025	0.4509	0.19181	0.0037
0.4025	0.4994	0.19426	0.00374
0.4025	0.5497	0.1942	0.00374
0.4025	0.6	0.19012	0.00367
0.4025	0.6502	0.18094	0.00352
0.4025	0.6996	0.16923	0.00332
0.4025	0.75	0.15041	0.003
0.4025	0.7994	0.13235	0.0027
0.4025	0.8502	0.10668	0.00229
0.4025	0.8999	0.07607	0.00182
0.4025	0.95	0.03962	0.00131
1.0056	0.0498	0.04435	0.00144
1.0056	0.1003	0.0854	0.00199
1.0056	0.1494	0.11901	0.00251
1.0056	0.1997	0.15001	0.00302
1.0056	0.2491	0.17624	0.00345
1.0056	0.2987	0.19847	0.00383
1.0056	0.3495	0.21577	0.00412
1.0056	0.3989	0.22782	0.00432
1.0056	0.4487	0.23594	0.00446
1.0056	0.4985	0.23892	0.00451
1.0056	0.5484	0.23774	0.00449
1.0056	0.5992	0.22901	0.00434
1.0056	0.6491	0.21986	0.00419
1.0056	0.6992	0.20624	0.00396
1.0056	0.7493	0.18439	0.00359
1.0056	0.7996	0.16161	0.00321
1.0056	0.8489	0.1286	0.00267
1.0056	0.8995	0.09367	0.00212
1.0056	0.9499	0.05234	0.00153
3.0003	0.0452	0.0356	0.00142
3.0003	0.0914	0.08613	0.00207
3.0003	0.1372	0.12707	0.00269
3.0003	0.1851	0.16922	0.00337
3.0003	0.2315	0.20112	0.00389
3.0003	0.2801	0.22718	0.00433
3.0003	0.328	0.2542	0.00479
3.0003	0.3768	0.27355	0.00512
3.0003	0.4251	0.28291	0.00528
3.0003	0.4741	0.29477	0.00548
3.0003	0.524	0.29672	0.00552
3.0003	0.5754	0.292	0.00543
3.0003	0.6262	0.28184	0.00526
3.0003	0.6779	0.26355	0.00495
3.0003	0.7308	0.24023	0.00455
3.0003	0.7831	0.20959	0.00404
3.0003	0.8365	0.16957	0.00338
3.0003	0.8903	0.12322	0.00262
