Measured thermophysical data. Solubilities of isobutane and cyclopropane in ionic liquids
Source: J. Chem. Thermodyn., 2015, 10.1016/j.jct.2015.04.013
Compound 1: 2-methylpropane, C4H10, InChI=1S/C4H10/c1-4(2)3/h4H,1-3H3, purity 99.9%
Compound 2: cyclopropane, C3H6, InChI=1S/C3H6/c1-2-3-1/h1-3H2, purity 99.9%
Compound 3: 1-hexyl-3-methylimidazolium bis[(trifluoromethyl)sulfonyl]imide, C12H19F6N3O4S2, InChI=1S/C10H19N2.C2F6NO4S2/c1-3-4-5-6-7-12-9-8-11(2)10-12;3-1(4,5)14(10,11)9-15(12,13)2(6,7)8/h8-10H,3-7H2,1-2H3;/q+1;-1, purity 99%
Compound 4: trihexyltetradecylphosphonium bis(2,4,4-trimethylpentyl)phosphinate, C48H102O2P2, InChI=1S/C32H68P.C16H35O2P/c1-5-9-13-17-18-19-20-21-22-23-24-28-32-33(29-25-14-10-6-2,30-26-15-11-7-3)31-27-16-12-8-4;1-13(9-15(3,4)5)11-19(17,18)12-14(2)10-16(6,7)8/h5-32H2,1-4H3;13-14H,9-12H2,1-8H3,(H,17,18)/q+1;/p-1, purity 95%

System: 2-methylpropane + trihexyltetradecylphosphonium bis(2,4,4-trimethylpentyl)phosphinate; phases: Liquid, Gas
Property: Mole fraction of 2-methylpropane (Liquid); method: volumetric
Temperature, K	Pressure, kPa	Mole fraction of 2-methylpropane	uncertainty
303.2	35	0.085	0.002
303.1	59	0.145	0.003
303.1	85.2	0.207	0.004
303	106.8	0.256	0.005
303.2	133.5	0.308	0.007
313	43.5	0.08	0.002
312.5	71.9	0.139	0.003
312.8	105.6	0.199	0.004
312.4	131.8	0.247	0.005
312.3	164.6	0.297	0.006
322.7	52	0.075	0.002
322.8	87.9	0.131	0.003
322.8	131.8	0.187	0.004
322.9	163.3	0.235	0.005
323.1	206.2	0.283	0.006
333	61.6	0.07	0.002
333.1	105.8	0.123	0.003
333.2	156.9	0.177	0.004
333.1	196.3	0.222	0.005
333	247.1	0.269	0.006
343.3	71.1	0.066	0.001
342.3	120.8	0.116	0.002
343.4	184.6	0.166	0.003
343.3	231.5	0.209	0.004
342.8	292.6	0.254	0.005

System: 2-methylpropane + 1-hexyl-3-methylimidazolium bis[(trifluoromethyl)sulfonyl]imide; phases: Liquid, Gas
Property: Mole fraction of 2-methylpropane (Liquid); method: volumetric
Temperature, K	Pressure, kPa	Mole fraction of 2-methylpropane	uncertainty
303.2	48.2	0.023	0.001
303.3	93.2	0.042	0.001
303.4	118.5	0.054	0.001
303.1	152.6	0.068	0.001
302.5	177.9	0.081	0.002
303.5	227.6	0.099	0.002
303.4	238.6	0.103	0.002
313.5	58.1	0.021	0.001
312.8	109.2	0.038	0.001
313	140.2	0.049	0.001
313.6	185.4	0.061	0.001
313.6	218.1	0.071	0.002
312.9	274.2	0.086	0.002
313.4	290.8	0.09	0.002
323.7	67.6	0.019	0.001
322.4	127.3	0.033	0.001
323.4	166.3	0.042	0.001
322.4	214.2	0.053	0.001
323.4	256.6	0.062	0.001
322.3	322.7	0.074	0.002
323.6	345.7	0.076	0.002
332.3	75.5	0.017	0.001
332.9	147	0.029	0.001
333.4	190.7	0.036	0.001
333.6	251.6	0.045	0.001
332.7	293.9	0.052	0.001
332.6	377.4	0.061	0.001
332.9	397.7	0.064	0.001
342.7	83.5	0.014	0.001
343.4	166	0.026	0.001
343.2	213.4	0.032	0.001
343.5	284.1	0.039	0.001
343.5	334.5	0.044	0.001
342.7	430.2	0.049	0.001
342.7	452.4	0.051	0.001

System: cyclopropane + trihexyltetradecylphosphonium bis(2,4,4-trimethylpentyl)phosphinate; phases: Liquid, Gas
Property: Mole fraction of cyclopropane (Liquid); method: volumetric
Temperature, K	Pressure, kPa	Mole fraction of cyclopropane	uncertainty
302.7	72.4	0.19	0.004
303	86.3	0.226	0.005
302.4	129.8	0.293	0.006
303.6	173.3	0.36	0.008
303.1	227.3	0.432	0.009
302.7	276.5	0.475	0.01
303.5	322.8	0.522	0.011
303.1	371.8	0.569	0.012
312.8	86.5	0.181	0.004
312.5	103.6	0.219	0.005
312.6	154.3	0.285	0.006
312.3	204.9	0.352	0.008
312.4	273.2	0.421	0.009
312.8	337.4	0.463	0.01
312.4	386	0.512	0.011
312.5	451.8	0.56	0.012
323.3	101.9	0.172	0.004
323.1	124.2	0.211	0.004
322.8	186.5	0.275	0.006
323.1	248.8	0.34	0.007
322.8	329.2	0.409	0.009
323.4	408.5	0.449	0.01
323.5	476.1	0.497	0.011
323.3	553.9	0.546	0.012
333.3	116.7	0.163	0.003
333.4	145.3	0.203	0.004
333	216.2	0.266	0.006
332.2	287.1	0.329	0.007
333	387.6	0.396	0.009
333.1	479.4	0.436	0.01
333.5	561	0.482	0.011
333	652	0.532	0.011
343.7	130.8	0.156	0.003
342.4	164	0.197	0.004
343.1	250.7	0.257	0.005
343.4	337.3	0.316	0.007
343.4	450.7	0.382	0.008
343.4	558.8	0.42	0.009
342.5	640.3	0.469	0.01
343.4	775.3	0.514	0.011

System: cyclopropane + 1-hexyl-3-methylimidazolium bis[(trifluoromethyl)sulfonyl]imide; phases: Liquid, Gas
Property: Mole fraction of cyclopropane (Liquid); method: volumetric
Temperature, K	Pressure, kPa	Mole fraction of cyclopropane	uncertainty
303.5	147.3	0.059	0.001
303.5	203.4	0.08	0.002
303.7	290.3	0.111	0.002
302.5	343.9	0.132	0.003
302.8	432.9	0.164	0.003
302.2	471.7	0.177	0.004
302.6	538.3	0.196	0.004
303.1	570.6	0.206	0.004
312.5	174.4	0.052	0.001
312.3	240.1	0.071	0.002
312.3	343	0.098	0.002
312.9	419.5	0.117	0.002
312.4	519.4	0.145	0.003
312.4	576.2	0.154	0.003
312.4	655.9	0.17	0.003
312.5	696	0.178	0.004
322.5	206.8	0.044	0.001
323.8	291.9	0.058	0.001
323.3	415.3	0.081	0.002
323	500.1	0.099	0.002
322.7	622.5	0.121	0.003
322.5	691.3	0.128	0.003
322.5	790.6	0.14	0.003
323	856.7	0.149	0.003
333.2	244	0.036	0.001
332.5	332.9	0.049	0.001
334.1	489.5	0.066	0.001
332.9	587	0.08	0.002
332.7	733.5	0.097	0.002
332.5	816.6	0.101	0.002
333.2	944.1	0.113	0.002
333.9	1015.5	0.117	0.002
342.7	275.3	0.028	0.001
343.1	385	0.037	0.001
342.6	553.7	0.049	0.001
343.3	679.2	0.061	0.001
342.9	852.9	0.069	0.002
342.6	948.7	0.074	0.002
343	1093.7	0.079	0.002
343.1	1157.8	0.081	0.002
