Measured thermophysical data. Standard enthalpies of formation of dicyclopropyldinitromethane and tricyclopropylmethane
Source: J. Chem. Thermodyn., 2019, 10.1016/j.jct.2018.12.040
Compound 1: carbon dioxide, CO2, InChI=1S/CO2/c2-1-3
Compound 2: nitrogen, N2, InChI=1S/N2/c1-2
Compound 3: water, H2O, InChI=1S/H2O/h1H2
Compound 4: oxygen, O2, InChI=1S/O2/c1-2
Compound 5: dicyclopropyldinitromethane, C7H10N2O4, InChI=1S/C7H10N2O4/c10-8(11)7(9(12)13,5-1-2-5)6-3-4-6/h5-6H,1-4H2
Compound 6: tricyclopropylmethane, C10H16, InChI=1S/C10H16/c1-2-7(1)10(8-3-4-8)9-5-6-9/h7-10H,1-6H2

System: dicyclopropyldinitromethane; phases: Liquid
Property: Mass density, kg/m3 (Liquid); method: Pycnometric method
Temperature, K	Pressure, kPa	Mass density, kg/m3	uncertainty
298.15	101.325	1239.7	1

System: dicyclopropyldinitromethane; phases: Liquid, Gas
Property: Normal boiling temperature, K (Liquid); method: boiling in a capillary
Normal boiling temperature, K	uncertainty
563	3

System: tricyclopropylmethane; phases: Liquid
Property: Mass density, kg/m3 (Liquid); method: Pycnometric method
Temperature, K	Pressure, kPa	Mass density, kg/m3	uncertainty
298.15	101.325	850	1

System: tricyclopropylmethane; phases: Liquid, Gas
Property: Normal boiling temperature, K (Liquid); method: Distillation
Normal boiling temperature, K	uncertainty
433	2

Reaction: -1 dicyclopropyldinitromethane + 7 carbon dioxide + 1 nitrogen + 5 water + -7.5 oxygen
Property: Specific internal energy of reaction at constant volume, J/g
-22664.4

Reaction: -1 tricyclopropylmethane + 10 carbon dioxide + 8 water + -14 oxygen
Property: Specific internal energy of reaction at constant volume, J/g
-46764.5
