Measured thermophysical data. Apparent molar volume and isentropic compressibility of ionic liquid 1-butyl-3-methylimidazolium bromide in water, ethanol, and ethanol at T = (298.15 to 318.15) K
Source: J. Chem. Thermodyn., 2005, 10.1016/j.jct.2005.01.009
Compound 1: 1-butyl-3-methylimidazolium bromide, C8H15BrN2, InChI=1S/C8H15N2.BrH/c1-3-4-5-10-7-6-9(2)8-10;/h6-8H,3-5H2,1-2H3;1H/q+1;/p-1, purity 98%
Compound 2: water, H2O, InChI=1S/H2O/h1H2
Compound 3: methanol, CH4O, InChI=1S/CH4O/c1-2/h2H,1H3, purity 99.9%
Compound 4: ethanol, C2H6O, InChI=1S/C2H6O/c1-2-3/h3H,2H2,1H3, purity 99.8%

System: water + 1-butyl-3-methylimidazolium bromide; phases: Liquid
Fixed: Pressure, kPa = 101
Property: Speed of sound, m/s (Liquid); method: Linear variable-path acoustic interferometer
Temperature, K	Molality, mol/kg of 1-butyl-3-methylimidazolium bromide	Speed of sound, m/s	uncertainty
298.15	0.0692	1504.01	1.58
298.15	0.1376	1511.34	1.58
298.15	0.2697	1523.1	1.59
298.15	0.6117	1552.17	1.64
298.15	1.2796	1600.31	1.71
298.15	2.133	1645.93	1.81
298.15	3.115	1682.71	1.9
298.15	5.1874	1724.21	2.05
298.15	7.7923	1741.22	2.18
303.15	0.0692	1515.86	1.58
303.15	0.1376	1522.65	1.59
303.15	0.2697	1533.26	1.6
303.15	0.6117	1561.74	1.64
303.15	1.2796	1603.46	1.71
303.15	2.133	1644.9	1.81
303.15	3.115	1678.29	1.9
303.15	5.1874	1715.98	2.05
303.15	7.7923	1731.38	2.17
308.15	0.0692	1526.01	1.59
308.15	0.1376	1532.33	1.59
308.15	0.2697	1541.87	1.6
308.15	0.6117	1568.72	1.64
308.15	1.2796	1605.58	1.71
308.15	2.133	1644.12	1.81
308.15	3.115	1673.34	1.9
308.15	5.1874	1707.44	2.05
308.15	7.7923	1721.27	2.17
313.15	0.0692	1534.64	1.59
313.15	0.1376	1540.37	1.59
313.15	0.2697	1549.09	1.61
313.15	0.6117	1573.85	1.64
313.15	1.2796	1606.73	1.71
313.15	2.133	1640.63	1.8
313.15	3.115	1667.89	1.9
313.15	5.1874	1698.62	2.04
313.15	7.7923	1710.99	2.16
318.15	0.0692	1541.87	1.593
318.15	0.1376	1546.89	1.598
318.15	0.2697	1554.97	1.61
318.15	0.6117	1576.98	1.641
318.15	1.2796	1606.94	1.712
318.15	2.133	1637.45	1.805
318.15	3.115	1661.96	1.9
318.15	5.1874	1689.56	2.053
318.15	7.7923	1700.49	2.153

System: water + 1-butyl-3-methylimidazolium bromide; phases: Liquid
Fixed: Pressure, kPa = 101
Property: Mass density, kg/m3 (Liquid); method: VIBTUB:UFactor:16
Temperature, K	Molality, mol/kg of 1-butyl-3-methylimidazolium bromide	Mass density, kg/m3	uncertainty
298.15	0.0692	1000.439	0.649
298.15	0.1376	1003.696	0.676
298.15	0.2697	1009.849	0.729
298.15	0.6117	1024.93	0.859
298.15	1.2796	1050.917	1.087
298.15	2.133	1078.259	1.329
298.15	3.115	1103.8	1.556
298.15	5.1874	1143.515	1.911
298.15	7.7923	1176.049	2.203
303.15	0.0692	999.001	0.653
303.15	0.1376	1002.198	0.664
303.15	0.2697	1008.276	0.716
303.15	0.6117	1023.151	0.845
303.15	1.2796	1048.782	1.07
303.15	2.133	1075.775	1.31
303.15	3.115	1100.977	1.535
303.15	5.1874	1140.26	1.886
303.15	7.7923	1172.571	2.176
308.15	0.0692	997.35	0.666
308.15	0.1376	1000.488	0.65
308.15	0.2697	1006.541	0.702
308.15	0.6117	1021.173	0.829
308.15	1.2796	1046.556	1.053
308.15	2.133	1073.138	1.289
308.15	3.115	1098.052	1.512
308.15	5.1874	1136.943	1.86
308.15	7.7923	1169.045	2.149
313.15	0.0692	995.472	0.681
313.15	0.1376	998.581	0.658
313.15	0.2697	1004.595	0.687
313.15	0.6117	1019.011	0.812
313.15	1.2796	1044.144	1.034
313.15	2.133	1070.425	1.268
313.15	3.115	1095.037	1.488
313.15	5.1874	1133.565	1.834
313.15	7.7923	1165.494	2.121
318.15	0.0692	993.421	0.698
318.15	0.1376	996.491	0.675
318.15	0.2697	1002.472	0.67
318.15	0.6117	1016.678	0.794
318.15	1.2796	1041.589	1.014
318.15	2.133	1067.58	1.246
318.15	3.115	1091.934	1.465
318.15	5.1874	1130.133	1.808
318.15	7.7923	1161.9	2.093

System: methanol + 1-butyl-3-methylimidazolium bromide; phases: Liquid
Fixed: Pressure, kPa = 101
Property: Speed of sound, m/s (Liquid); method: Linear variable-path acoustic interferometer
Temperature, K	Molality, mol/kg of 1-butyl-3-methylimidazolium bromide	Speed of sound, m/s	uncertainty
298.15	0.1497	1114.13	1.3
298.15	0.2612	1121.7	1.31
298.15	0.3434	1127.07	1.32
298.15	0.4912	1136.37	1.34
298.15	0.7273	1151.05	1.36
298.15	0.9756	1164.13	1.39
298.15	1.4045	1186.17	1.44
298.15	2.4462	1233.3	1.56
298.15	3.8956	1287.39	1.72
303.15	0.0473	1090.45	1.28
303.15	0.0767	1092.58	1.28
303.15	0.1497	1097.98	1.29
303.15	0.2612	1105.65	1.3
303.15	0.3434	1111.09	1.31
303.15	0.4912	1120.6	1.33
303.15	0.7273	1135.41	1.35
303.15	0.9756	1148.69	1.38
303.15	1.4045	1171.02	1.44
303.15	2.4462	1218.77	1.56
303.15	3.8956	1273.49	1.71
308.15	0.0473	1074.26	1.27
308.15	0.0767	1076.48	1.27
308.15	0.1497	1081.94	1.28
308.15	0.2612	1089.7	1.29
308.15	0.3434	1095.24	1.3
308.15	0.4912	1104.85	1.31
308.15	0.7273	1119.88	1.34
308.15	0.9756	1133.4	1.37
308.15	1.4045	1156.01	1.43
308.15	2.4462	1204.37	1.55
308.15	3.8956	1259.72	1.7
313.15	0.0473	1058.2	1.25
313.15	0.0767	1060.5	1.26
313.15	0.1497	1065.99	1.26
313.15	0.2612	1073.92	1.28
313.15	0.3434	1079.44	1.28
313.15	0.4912	1089.25	1.3
313.15	0.7273	1104.52	1.33
313.15	0.9756	1118.22	1.36
313.15	1.4045	1141.04	1.42
313.15	2.4462	1190.11	1.54
313.15	3.8956	1246.05	1.69
318.15	0.0473	1042.3	1.24
318.15	0.0767	1044.65	1.25
318.15	0.1497	1050.18	1.25
318.15	0.2612	1058.21	1.26
318.15	0.3434	1063.8	1.27
318.15	0.4912	1073.75	1.29
318.15	0.7273	1089.21	1.32
318.15	0.9756	1103.08	1.35
318.15	1.4045	1126.26	1.41
318.15	2.4462	1175.9	1.55
318.15	3.8956	1232.52	1.68

System: methanol + 1-butyl-3-methylimidazolium bromide; phases: Liquid
Fixed: Pressure, kPa = 101
Property: Mass density, kg/m3 (Liquid); method: VIBTUB:UFactor:16
Temperature, K	Molality, mol/kg of 1-butyl-3-methylimidazolium bromide	Mass density, kg/m3	uncertainty
298.15	0.0473	790.393	2.336
298.15	0.0767	792.789	2.317
298.15	0.1497	798.175	2.273
298.15	0.2612	806.303	2.208
298.15	0.3434	812.207	2.161
298.15	0.4912	822.389	2.08
298.15	0.7273	837.955	1.957
298.15	0.9756	852.578	1.842
298.15	1.4045	876.422	1.657
298.15	2.4462	924.879	1.297
298.15	3.8956	976.589	0.96
303.15	0.0473	785.688	2.374
303.15	0.0767	788.091	2.355
303.15	0.1497	793.495	2.311
303.15	0.2612	801.654	2.246
303.15	0.3434	807.572	2.199
303.15	0.4912	817.794	2.117
303.15	0.7273	833.402	1.993
303.15	0.9756	848.25	1.88
303.15	1.4045	871.97	1.69
303.15	2.4462	920.559	1.331
303.15	3.8956	972.412	0.988
308.15	0.0473	780.958	2.412
308.15	0.0767	783.371	2.393
308.15	0.1497	788.794	2.349
308.15	0.2612	796.988	2.284
308.15	0.3434	802.921	2.236
308.15	0.4912	813.177	2.154
308.15	0.7273	828.837	2.03
308.15	0.9756	843.727	1.913
308.15	1.4045	867.512	1.728
308.15	2.4462	916.245	1.364
308.15	3.8956	968.238	1.017
313.15	0.0473	776.204	2.451
313.15	0.0767	778.627	2.431
313.15	0.1497	784.073	2.387
313.15	0.2612	792.294	2.321
313.15	0.3434	798.249	2.274
313.15	0.4912	808.542	2.192
313.15	0.7273	824.253	2.067
313.15	0.9756	839.188	1.949
313.15	1.4045	863.046	1.764
313.15	2.4462	911.924	1.398
313.15	3.8956	964.059	1.046
318.15	0.0473	771.426	2.489
318.15	0.0767	773.86	2.47
318.15	0.1497	779.323	2.426
318.15	0.2612	787.582	2.359
318.15	0.3434	793.553	2.312
318.15	0.4912	803.883	2.229
318.15	0.7273	819.66	2.1
318.15	0.9756	834.634	1.986
318.15	1.4045	858.563	1.8
318.15	2.4462	907.596	1.433
318.15	3.8956	959.889	1.075

System: ethanol + 1-butyl-3-methylimidazolium bromide; phases: Liquid
Fixed: Pressure, kPa = 101
Property: Speed of sound, m/s (Liquid); method: Linear variable-path acoustic interferometer
Temperature, K	Molality, mol/kg of 1-butyl-3-methylimidazolium bromide	Speed of sound, m/s	uncertainty
298.15	0.0271	1145.15	1.33
298.15	0.0587	1147.27	1.34
298.15	0.0846	1148.57	1.34
298.15	0.1257	1150.8	1.35
298.15	0.1587	1152.66	1.35
298.15	0.2261	1155.78	1.35
298.15	0.3162	1160.72	1.36
303.15	0.0271	1128.33	1.32
303.15	0.0587	1130.45	1.33
303.15	0.0846	1131.91	1.33
303.15	0.1257	1134	1.33
303.15	0.1587	1136.1	1.34
303.15	0.2261	1139.74	1.34
303.15	0.3162	1144.33	1.35
308.15	0.0271	1111.57	1.31
308.15	0.0587	1113.75	1.31
308.15	0.0846	1115.26	1.32
308.15	0.1257	1117.37	1.32
308.15	0.1587	1119.39	1.32
308.15	0.2261	1123.15	1.33
308.15	0.3162	1127.98	1.34
313.15	0.0271	1094.92	1.3
313.15	0.0587	1097.14	1.3
313.15	0.0846	1098.63	1.3
313.15	0.1257	1101	1.31
313.15	0.1587	1103	1.31
313.15	0.2261	1106.82	1.32
313.15	0.3162	1111.65	1.33
318.15	0.0271	1078.34	1.28
318.15	0.0587	1080.6	1.29
318.15	0.0846	1082.11	1.29
318.15	0.1257	1084.46	1.29
318.15	0.1587	1086.55	1.3
318.15	0.2261	1090.46	1.31
318.15	0.3162	1095.42	1.32

System: ethanol + 1-butyl-3-methylimidazolium bromide; phases: Liquid
Fixed: Pressure, kPa = 101
Property: Mass density, kg/m3 (Liquid); method: VIBTUB:UFactor:16
Temperature, K	Molality, mol/kg of 1-butyl-3-methylimidazolium bromide	Mass density, kg/m3	uncertainty
298.15	0.0271	787.221	2.362
298.15	0.0587	789.649	2.343
298.15	0.0846	791.567	2.328
298.15	0.1257	794.595	2.303
298.15	0.1587	796.91	2.285
298.15	0.2261	801.67	2.247
298.15	0.3162	807.896	2.198
303.15	0.0271	782.917	2.397
303.15	0.0587	785.356	2.378
303.15	0.0846	787.288	2.362
303.15	0.1257	790.319	2.338
303.15	0.1587	792.647	2.319
303.15	0.2261	797.404	2.281
303.15	0.3162	803.664	2.232
308.15	0.0271	778.581	2.432
308.15	0.0587	781.029	2.413
308.15	0.0846	782.969	2.397
308.15	0.1257	786.01	2.373
308.15	0.1587	788.343	2.354
308.15	0.2261	793.117	2.316
308.15	0.3162	799.393	2.266
313.15	0.0271	774.206	2.468
313.15	0.0587	776.665	2.448
313.15	0.0846	778.613	2.432
313.15	0.1257	781.663	2.408
313.15	0.1587	784.006	2.389
313.15	0.2261	788.795	2.351
313.15	0.3162	795.091	2.301
318.15	0.0271	769.798	2.503
318.15	0.0587	772.267	2.483
318.15	0.0846	774.213	2.468
318.15	0.1257	777.288	2.443
318.15	0.1587	779.628	2.424
318.15	0.2261	784.413	2.386
318.15	0.3162	790.753	2.336
