Measured thermophysical data. Thermodynamic solubility modeling, solvent effect and preferential solvation of curcumin in aqueous co-solvent mixtures of ethanol, n-propanol, isopropanol and propylene glycol
Source: J. Chem. Thermodyn., 2019, 10.1016/j.jct.2018.11.022
Compound 1: curcumin, C21H20O6, InChI=1S/C21H20O6/c1-26-20-11-14(5-9-18(20)24)3-7-16(22)13-17(23)8-4-15-6-10-19(25)21(12-15)27-2/h3-12,24-25H,13H2,1-2H3/b7-3+,8-4+, purity 98.5%
Compound 2: 1,2-propanediol, C3H8O2, InChI=1S/C3H8O2/c1-3(5)2-4/h3-5H,2H2,1H3, purity 99.5%
Compound 3: propan-2-ol, C3H8O, InChI=1S/C3H8O/c1-3(2)4/h3-4H,1-2H3, purity 99.4%
Compound 4: ethanol, C2H6O, InChI=1S/C2H6O/c1-2-3/h3H,2H2,1H3, purity 99.4%
Compound 5: propan-1-ol, C3H8O, InChI=1S/C3H8O/c1-2-3-4/h4H,2-3H2,1H3, purity 99.5%
Compound 6: water, H2O, InChI=1S/H2O/h1H2

System: curcumin + ethanol + water; phases: Liquid, Crystal
Fixed: Pressure, kPa = 101.1
Property: Mole fraction of curcumin (Liquid); method: Chromatography
Temperature, K	Solvent: Mass fraction of ethanol	Mole fraction of curcumin	uncertainty
278.15	0	8.337e-09	5.84e-10
283.15	0	1.156e-08	8.1e-10
288.15	0	1.588e-08	1.11e-09
293.15	0	2.148e-08	1.51e-09
298.15	0	2.942e-08	2.06e-09
303.15	0	4.031e-08	2.82e-09
308.15	0	5.376e-08	3.77e-09
313.15	0	7.061e-08	4.95e-09
318.15	0	9.319e-08	6.53e-09
278.15	0.1003	3.895e-07	2.93e-08
283.15	0.1003	5.079e-07	3.56e-08
288.15	0.1003	6.54e-07	4.58e-08
293.15	0.1003	8.321e-07	5.83e-08
298.15	0.1003	1.073e-06	7.5e-08
303.15	0.1003	1.385e-06	9.7e-08
308.15	0.1003	1.744e-06	1.22e-07
313.15	0.1003	2.167e-06	1.52e-07
318.15	0.1003	2.71e-06	1.99e-07
278.15	0.2008	5.103e-06	3.59e-07
283.15	0.2008	6.4e-06	4.49e-07
288.15	0.2008	7.894e-06	5.53e-07
293.15	0.2008	9.646e-06	6.76e-07
298.15	0.2008	1.195e-05	8.4e-07
303.15	0.2008	1.482e-05	1.04e-06
308.15	0.2008	1.795e-05	1.26e-06
313.15	0.2008	2.149e-05	1.51e-06
318.15	0.2008	2.593e-05	1.83e-06
278.15	0.3001	2.611e-05	1.83e-06
283.15	0.3001	3.203e-05	2.24e-06
288.15	0.3001	3.888e-05	2.72e-06
293.15	0.3001	4.626e-05	3.24e-06
298.15	0.3001	5.577e-05	3.91e-06
303.15	0.3001	6.731e-05	4.72e-06
308.15	0.3001	7.951e-05	5.57e-06
313.15	0.3001	9.293e-05	6.51e-06
318.15	0.3001	0.0001091	7.6e-06
278.15	0.3998	7.079e-05	4.96e-06
283.15	0.3998	8.683e-05	6.08e-06
288.15	0.3998	0.0001034	7.2e-06
293.15	0.3998	0.000122	8.5e-06
298.15	0.3998	0.0001436	1.01e-05
303.15	0.3998	0.0001686	1.18e-05
308.15	0.3998	0.0001964	1.38e-05
313.15	0.3998	0.0002264	1.59e-05
318.15	0.3998	0.0002633	1.84e-05
278.15	0.5002	0.0001291	9e-06
283.15	0.5002	0.0001585	1.11e-05
288.15	0.5002	0.0001863	1.31e-05
293.15	0.5002	0.0002176	1.52e-05
298.15	0.5002	0.0002512	1.76e-05
303.15	0.5002	0.0002941	2.06e-05
308.15	0.5002	0.000339	2.37e-05
313.15	0.5002	0.0003875	2.71e-05
318.15	0.5002	0.0004451	3.12e-05
278.15	0.6001	0.0001827	1.28e-05
283.15	0.6001	0.0002208	1.55e-05
288.15	0.6001	0.000257	1.8e-05
293.15	0.6001	0.0002985	2.09e-05
298.15	0.6001	0.0003503	2.45e-05
303.15	0.6001	0.0004103	2.87e-05
308.15	0.6001	0.0004708	3.3e-05
313.15	0.6001	0.0005354	3.75e-05
318.15	0.6001	0.0006144	4.3e-05
278.15	0.6999	0.0002343	1.64e-05
283.15	0.6999	0.0002865	2.01e-05
288.15	0.6999	0.0003371	2.36e-05
293.15	0.6999	0.000392	2.75e-05
298.15	0.6999	0.0004515	3.16e-05
303.15	0.6999	0.0005232	3.66e-05
308.15	0.6999	0.0006001	4.2e-05
313.15	0.6999	0.0006794	4.76e-05
318.15	0.6999	0.0007707	5.4e-05
278.15	0.8001	0.0002943	2.06e-05
283.15	0.8001	0.0003567	2.5e-05
288.15	0.8001	0.0004152	2.91e-05
293.15	0.8001	0.0004794	3.36e-05
298.15	0.8001	0.0005552	3.89e-05
303.15	0.8001	0.0006448	4.52e-05
308.15	0.8001	0.000734	5.14e-05
313.15	0.8001	0.0008285	5.8e-05
318.15	0.8001	0.000941	6.59e-05
278.15	0.9005	0.0003547	2.48e-05
283.15	0.9005	0.0004321	3.03e-05
288.15	0.9005	0.0005059	3.54e-05
293.15	0.9005	0.0005905	4.14e-05
298.15	0.9005	0.000674	4.72e-05
303.15	0.9005	0.0007835	5.49e-05
308.15	0.9005	0.0008849	6.2e-05
313.15	0.9005	0.0009928	6.95e-05
318.15	0.9005	0.001125	7.9e-05
278.15	1	0.0004066	2.85e-05
283.15	1	0.0004971	3.48e-05
288.15	1	0.0005728	4.01e-05
293.15	1	0.0006617	4.63e-05
298.15	1	0.000769	5.39e-05
303.15	1	0.0008881	6.22e-05
308.15	1	0.001006	7e-05
313.15	1	0.001131	7.9e-05
318.15	1	0.001283	9e-05

System: curcumin + propan-1-ol + water; phases: Liquid, Crystal
Fixed: Pressure, kPa = 101.1
Property: Mole fraction of curcumin (Liquid); method: Chromatography
Temperature, K	Solvent: Mass fraction of propan-1-ol	Mole fraction of curcumin	uncertainty
278.15	0	8.337e-09	5.84e-10
283.15	0	1.156e-08	8.1e-10
288.15	0	1.588e-08	1.11e-09
293.15	0	2.148e-08	1.51e-09
298.15	0	2.942e-08	2.06e-09
303.15	0	4.031e-08	2.82e-09
308.15	0	5.376e-08	3.77e-09
313.15	0	7.061e-08	4.95e-09
318.15	0	9.319e-08	6.53e-09
278.15	0.1003	1.029e-06	9.1e-08
283.15	0.1003	1.313e-06	9.2e-08
288.15	0.1003	1.663e-06	1.17e-07
293.15	0.1003	2.081e-06	1.46e-07
298.15	0.1003	2.635e-06	1.85e-07
303.15	0.1003	3.349e-06	2.35e-07
308.15	0.1003	4.15e-06	2.91e-07
313.15	0.1003	5.091e-06	3.57e-07
318.15	0.1003	6.27e-06	4.98e-07
278.15	0.2005	2.357e-05	1.67e-06
283.15	0.2005	2.85e-05	2e-06
288.15	0.2005	3.426e-05	2.4e-06
293.15	0.2005	4.078e-05	2.86e-06
298.15	0.2005	4.907e-05	3.44e-06
303.15	0.2005	5.935e-05	4.16e-06
308.15	0.2005	7.008e-05	4.91e-06
313.15	0.2005	8.227e-05	5.77e-06
318.15	0.2005	9.678e-05	6.85e-06
278.15	0.3002	0.0001577	1.11e-05
283.15	0.3002	0.0001848	1.29e-05
288.15	0.3002	0.0002152	1.51e-05
293.15	0.3002	0.0002486	1.74e-05
298.15	0.3002	0.0002898	2.03e-05
303.15	0.3002	0.00034	2.38e-05
308.15	0.3002	0.0003896	2.73e-05
313.15	0.3002	0.0004455	3.12e-05
318.15	0.3002	0.0005093	3.57e-05
278.15	0.3999	0.0004651	3.26e-05
283.15	0.3999	0.0005355	3.75e-05
288.15	0.3999	0.0006129	4.29e-05
293.15	0.3999	0.0006966	4.88e-05
298.15	0.3999	0.000797	5.58e-05
303.15	0.3999	0.0009184	6.43e-05
308.15	0.3999	0.001034	7.2e-05
313.15	0.3999	0.001165	8.2e-05
318.15	0.3999	0.00131	9.2e-05
278.15	0.5001	0.0008239	5.77e-05
283.15	0.5001	0.000947	6.63e-05
288.15	0.5001	0.001074	7.5e-05
293.15	0.5001	0.001209	8.5e-05
298.15	0.5001	0.001369	9.6e-05
303.15	0.5001	0.00156	0.000109
308.15	0.5001	0.001738	0.000122
313.15	0.5001	0.001938	0.000136
318.15	0.5001	0.002156	0.000151
278.15	0.6002	0.001112	7.8e-05
283.15	0.6002	0.001265	8.9e-05
288.15	0.6002	0.001438	0.000101
293.15	0.6002	0.001614	0.000113
298.15	0.6002	0.001815	0.000127
303.15	0.6002	0.002058	0.000144
308.15	0.6002	0.002278	0.00016
313.15	0.6002	0.002532	0.000177
318.15	0.6002	0.0028	0.000196
278.15	0.6995	0.001351	9.5e-05
283.15	0.6995	0.001535	0.000108
288.15	0.6995	0.001739	0.000122
293.15	0.6995	0.00195	0.000137
298.15	0.6995	0.002182	0.000153
303.15	0.6995	0.002464	0.000173
308.15	0.6995	0.002716	0.00019
313.15	0.6995	0.003013	0.000211
318.15	0.6995	0.003316	0.000232
278.15	0.8004	0.001632	0.000114
283.15	0.8004	0.001851	0.00013
288.15	0.8004	0.002081	0.000146
293.15	0.8004	0.002342	0.000164
298.15	0.8004	0.002609	0.000183
303.15	0.8004	0.002933	0.000205
308.15	0.8004	0.003219	0.000225
313.15	0.8004	0.003577	0.000251
318.15	0.8004	0.003905	0.000273
278.15	0.9003	0.001986	0.000139
283.15	0.9003	0.002249	0.000158
288.15	0.9003	0.002523	0.000177
293.15	0.9003	0.002833	0.000198
298.15	0.9003	0.003141	0.00022
303.15	0.9003	0.003517	0.000246
308.15	0.9003	0.003842	0.000269
313.15	0.9003	0.004261	0.000298
318.15	0.9003	0.004632	0.000324
278.15	1	0.002299	0.000161
283.15	1	0.002601	0.000182
288.15	1	0.002913	0.000204
293.15	1	0.003254	0.000228
298.15	1	0.003596	0.000252
303.15	1	0.004014	0.000281
308.15	1	0.004369	0.000306
313.15	1	0.004843	0.000339
318.15	1	0.005258	0.000368

System: curcumin + propan-2-ol + water; phases: Liquid, Crystal
Fixed: Pressure, kPa = 101.1
Property: Mole fraction of curcumin (Liquid); method: Chromatography
Temperature, K	Solvent: Mass fraction of propan-2-ol	Mole fraction of curcumin	uncertainty
278.15	0	8.337e-09	5.84e-10
283.15	0	1.156e-08	8.1e-10
288.15	0	1.588e-08	1.11e-09
293.15	0	2.148e-08	1.51e-09
298.15	0	2.942e-08	2.06e-09
303.15	0	4.031e-08	2.82e-09
308.15	0	5.376e-08	3.77e-09
313.15	0	7.061e-08	4.95e-09
318.15	0	9.319e-08	6.53e-09
278.15	0.1002	8.149e-07	6.84e-08
283.15	0.1002	1.046e-06	7.3e-08
288.15	0.1002	1.332e-06	9.3e-08
293.15	0.1002	1.674e-06	1.17e-07
298.15	0.1002	2.135e-06	1.5e-07
303.15	0.1002	2.723e-06	1.91e-07
308.15	0.1002	3.393e-06	2.38e-07
313.15	0.1002	4.18e-06	2.93e-07
318.15	0.1002	5.178e-06	4.02e-07
278.15	0.2001	1.638e-05	1.16e-06
283.15	0.2001	2.001e-05	1.4e-06
288.15	0.2001	2.427e-05	1.7e-06
293.15	0.2001	2.909e-05	2.04e-06
298.15	0.2001	3.544e-05	2.48e-06
303.15	0.2001	4.311e-05	3.02e-06
308.15	0.2001	5.139e-05	3.6e-06
313.15	0.2001	6.073e-05	4.26e-06
318.15	0.2001	7.218e-05	5.1e-06
278.15	0.3003	0.0001029	7.2e-06
283.15	0.3003	0.0001221	8.6e-06
288.15	0.3003	0.0001438	1.01e-05
293.15	0.3003	0.0001676	1.17e-05
298.15	0.3003	0.0001986	1.39e-05
303.15	0.3003	0.0002346	1.64e-05
308.15	0.3003	0.0002722	1.91e-05
313.15	0.3003	0.0003139	2.2e-05
318.15	0.3003	0.0003639	2.55e-05
278.15	0.3999	0.000296	2.07e-05
283.15	0.3999	0.0003461	2.42e-05
288.15	0.3999	0.0004013	2.81e-05
293.15	0.3999	0.0004604	3.23e-05
298.15	0.3999	0.0005375	3.77e-05
303.15	0.3999	0.0006239	4.37e-05
308.15	0.3999	0.0007129	4.99e-05
313.15	0.3999	0.0008111	5.68e-05
318.15	0.3999	0.0009268	6.49e-05
278.15	0.5003	0.0005206	3.65e-05
283.15	0.5003	0.000605	4.24e-05
288.15	0.5003	0.0006962	4.88e-05
293.15	0.5003	0.000793	5.55e-05
298.15	0.5003	0.0009191	6.44e-05
303.15	0.5003	0.001051	7.4e-05
308.15	0.5003	0.001192	8.3e-05
313.15	0.5003	0.001349	9.4e-05
318.15	0.5003	0.001531	0.000107
278.15	0.6004	0.0007007	4.91e-05
283.15	0.6004	0.0008131	5.7e-05
288.15	0.6004	0.000933	6.53e-05
293.15	0.6004	0.001066	7.5e-05
298.15	0.6004	0.001231	8.6e-05
303.15	0.6004	0.001406	9.8e-05
308.15	0.6004	0.001586	0.000111
313.15	0.6004	0.001775	0.000124
318.15	0.6004	0.002008	0.000141
278.15	0.6999	0.0008547	5.99e-05
283.15	0.6999	0.0009905	6.94e-05
288.15	0.6999	0.001135	7.9e-05
293.15	0.6999	0.001293	9.1e-05
298.15	0.6999	0.00149	0.000104
303.15	0.6999	0.001694	0.000119
308.15	0.6999	0.001914	0.000134
313.15	0.6999	0.002154	0.000151
318.15	0.6999	0.002426	0.00017
278.15	0.8001	0.001016	7.1e-05
283.15	0.8001	0.001179	8.3e-05
288.15	0.8001	0.001351	9.5e-05
293.15	0.8001	0.001548	0.000108
298.15	0.8001	0.001781	0.000125
303.15	0.8001	0.002018	0.000141
308.15	0.8001	0.002256	0.000158
313.15	0.8001	0.00254	0.000178
318.15	0.8001	0.002849	0.0002
278.15	0.9001	0.001235	8.7e-05
283.15	0.9001	0.001435	0.000101
288.15	0.9001	0.001631	0.000114
293.15	0.9001	0.001868	0.000131
298.15	0.9001	0.002149	0.000151
303.15	0.9001	0.002405	0.000168
308.15	0.9001	0.002716	0.00019
313.15	0.9001	0.003044	0.000213
318.15	0.9001	0.003419	0.000239
278.15	1	0.001459	0.000102
283.15	1	0.001696	0.000119
288.15	1	0.001939	0.000136
293.15	1	0.002193	0.000154
298.15	1	0.002522	0.000177
303.15	1	0.002837	0.000199
308.15	1	0.003172	0.000222
313.15	1	0.003567	0.00025
318.15	1	0.003999	0.00028

System: curcumin + 1,2-propanediol + water; phases: Liquid, Crystal
Fixed: Pressure, kPa = 101.1
Property: Mole fraction of curcumin (Liquid); method: Chromatography
Temperature, K	Solvent: Mass fraction of 1,2-propanediol	Mole fraction of curcumin	uncertainty
278.15	0	8.337e-09	5.84e-10
283.15	0	1.156e-08	8.1e-10
288.15	0	1.588e-08	1.11e-09
293.15	0	2.148e-08	1.51e-09
298.15	0	2.942e-08	2.06e-09
303.15	0	4.031e-08	2.82e-09
308.15	0	5.376e-08	3.77e-09
313.15	0	7.061e-08	4.95e-09
318.15	0	9.319e-08	6.53e-09
278.15	0.1003	4.207e-07	3.27e-08
283.15	0.1003	5.453e-07	3.82e-08
288.15	0.1003	7.03e-07	4.93e-08
293.15	0.1003	8.923e-07	6.26e-08
298.15	0.1003	1.149e-06	8.1e-08
303.15	0.1003	1.48e-06	1.04e-07
308.15	0.1003	1.862e-06	1.31e-07
313.15	0.1003	2.315e-06	1.62e-07
318.15	0.1003	2.892e-06	2.16e-07
278.15	0.2005	6.459e-06	4.57e-07
283.15	0.2005	7.994e-06	5.6e-07
288.15	0.2005	9.869e-06	6.92e-07
293.15	0.2005	1.211e-05	8.5e-07
298.15	0.2005	1.49e-05	1.04e-06
303.15	0.2005	1.837e-05	1.29e-06
308.15	0.2005	2.216e-05	1.55e-06
313.15	0.2005	2.637e-05	1.85e-06
318.15	0.2005	3.173e-05	2.24e-06
278.15	0.2999	3.949e-05	2.77e-06
283.15	0.2999	4.743e-05	3.32e-06
288.15	0.2999	5.75e-05	4.03e-06
293.15	0.2999	6.775e-05	4.75e-06
298.15	0.2999	8.113e-05	5.68e-06
303.15	0.2999	9.664e-05	6.77e-06
308.15	0.2999	0.0001135	8e-06
313.15	0.2999	0.0001326	9.3e-06
318.15	0.2999	0.0001556	1.09e-05
278.15	0.3998	0.000125	8.8e-06
283.15	0.3998	0.0001474	1.03e-05
288.15	0.3998	0.0001741	1.22e-05
293.15	0.3998	0.0002033	1.42e-05
298.15	0.3998	0.000239	1.67e-05
303.15	0.3998	0.0002812	1.97e-05
308.15	0.3998	0.0003244	2.27e-05
313.15	0.3998	0.0003716	2.6e-05
318.15	0.3998	0.0004291	3.01e-05
278.15	0.5002	0.00025	1.75e-05
283.15	0.5002	0.0002917	2.04e-05
288.15	0.5002	0.0003417	2.39e-05
293.15	0.5002	0.0003921	2.75e-05
298.15	0.5002	0.0004567	3.2e-05
303.15	0.5002	0.0005313	3.72e-05
308.15	0.5002	0.0006071	4.25e-05
313.15	0.5002	0.0006925	4.85e-05
318.15	0.5002	0.0007922	5.55e-05
278.15	0.6003	0.0003717	2.6e-05
283.15	0.6003	0.0004316	3.02e-05
288.15	0.6003	0.0005038	3.53e-05
293.15	0.6003	0.0005748	4.03e-05
298.15	0.6003	0.0006656	4.66e-05
303.15	0.6003	0.0007689	5.39e-05
308.15	0.6003	0.0008732	6.12e-05
313.15	0.6003	0.000992	6.95e-05
318.15	0.6003	0.001129	7.9e-05
278.15	0.6999	0.0004672	3.27e-05
283.15	0.6999	0.0005414	3.79e-05
288.15	0.6999	0.0006315	4.42e-05
293.15	0.6999	0.0007185	5.03e-05
298.15	0.6999	0.0008293	5.81e-05
303.15	0.6999	0.0009537	6.68e-05
308.15	0.6999	0.001079	7.6e-05
313.15	0.6999	0.001224	8.6e-05
318.15	0.6999	0.001388	9.7e-05
278.15	0.8003	0.0005475	3.83e-05
283.15	0.8003	0.0006338	4.44e-05
288.15	0.8003	0.0007398	5.18e-05
293.15	0.8003	0.0008404	5.89e-05
298.15	0.8003	0.0009679	6.78e-05
303.15	0.8003	0.001109	7.8e-05
308.15	0.8003	0.001252	8.8e-05
313.15	0.8003	0.001419	9.9e-05
318.15	0.8003	0.001606	0.000112
278.15	0.9005	0.0006279	4.4e-05
283.15	0.9005	0.0007265	5.09e-05
288.15	0.9005	0.0008488	5.95e-05
293.15	0.9005	0.0009631	6.75e-05
298.15	0.9005	0.001107	7.8e-05
303.15	0.9005	0.001265	8.9e-05
308.15	0.9005	0.001424	0.0001
313.15	0.9005	0.001613	0.000113
318.15	0.9005	0.001823	0.000128
278.15	1	0.0007149	5.01e-05
283.15	1	0.0008269	5.79e-05
288.15	1	0.0009671	6.77e-05
293.15	1	0.001096	7.7e-05
298.15	1	0.001258	8.8e-05
303.15	1	0.001433	0.0001
308.15	1	0.00161	0.000113
313.15	1	0.001823	0.000128
318.15	1	0.002057	0.000144

System: curcumin + water; phases: Liquid, Crystal
Fixed: Pressure, kPa = 101.1
Property: Mole fraction of curcumin (Liquid); method: Chromatography
Temperature, K	Mole fraction of curcumin	uncertainty
278.15	8.337e-09	5.84e-10
283.15	1.156e-08	8.1e-10
288.15	1.588e-08	1.11e-09
293.15	2.148e-08	1.51e-09
298.15	2.942e-08	2.06e-09
303.15	4.031e-08	2.82e-09
308.15	5.376e-08	3.77e-09
313.15	7.061e-08	4.95e-09
318.15	9.319e-08	6.53e-09

System: curcumin + ethanol; phases: Liquid, Crystal
Fixed: Pressure, kPa = 101.1
Property: Mole fraction of curcumin (Liquid); method: Chromatography
Temperature, K	Mole fraction of curcumin	uncertainty
278.15	0.0004066	2.85e-05
283.15	0.0004971	3.48e-05
288.15	0.0005728	4.01e-05
293.15	0.0006617	4.63e-05
298.15	0.000769	5.39e-05
303.15	0.0008881	6.22e-05
308.15	0.001006	7e-05
313.15	0.001131	7.9e-05
318.15	0.001283	9e-05

System: curcumin + propan-1-ol; phases: Liquid, Crystal
Fixed: Pressure, kPa = 101.1
Property: Mole fraction of curcumin (Liquid); method: Chromatography
Temperature, K	Mole fraction of curcumin	uncertainty
278.15	0.002299	0.000161
283.15	0.002601	0.000182
288.15	0.002913	0.000204
293.15	0.003254	0.000228
298.15	0.003596	0.000252
303.15	0.004014	0.000281
308.15	0.004369	0.000306
313.15	0.004843	0.000339
318.15	0.005258	0.000368

System: curcumin + propan-2-ol; phases: Liquid, Crystal
Fixed: Pressure, kPa = 101.1
Property: Mole fraction of curcumin (Liquid); method: Chromatography
Temperature, K	Mole fraction of curcumin	uncertainty
278.15	0.001459	0.000102
283.15	0.001696	0.000119
288.15	0.001939	0.000136
293.15	0.002193	0.000154
298.15	0.002522	0.000177
303.15	0.002837	0.000199
308.15	0.003172	0.000222
313.15	0.003567	0.00025
318.15	0.003999	0.00028

System: curcumin + 1,2-propanediol; phases: Liquid, Crystal
Fixed: Pressure, kPa = 101.1
Property: Mole fraction of curcumin (Liquid); method: Chromatography
Temperature, K	Mole fraction of curcumin	uncertainty
278.15	0.0007149	5.01e-05
283.15	0.0008269	5.79e-05
288.15	0.0009671	6.77e-05
293.15	0.001096	7.7e-05
298.15	0.001258	8.8e-05
303.15	0.001433	0.0001
308.15	0.00161	0.000113
313.15	0.001823	0.000128
318.15	0.002057	0.000144
