Measured thermophysical data. Diffusion coefficients and Henry's constants of hydrofluorocarbons in [HMIM][Tf2N], [HMIM][TfO], and [HMIM][BF4]
Source: J. Chem. Thermodyn., 2017, 10.1016/j.jct.2017.04.009
Compound 1: difluoromethane, CH2F2, InChI=1S/CH2F2/c2-1-3/h1H2, purity 99.9%
Compound 2: 1-hexyl-3-methylimidazolium bis[(trifluoromethyl)sulfonyl]imide, C12H19F6N3O4S2, InChI=1S/C10H19N2.C2F6NO4S2/c1-3-4-5-6-7-12-9-8-11(2)10-12;3-1(4,5)14(10,11)9-15(12,13)2(6,7)8/h8-10H,3-7H2,1-2H3;/q+1;-1, purity 99%
Compound 3: pentafluoroethane, C2HF5, InChI=1S/C2HF5/c3-1(4)2(5,6)7/h1H, purity 99.9%
Compound 4: fluoroethane, C2H5F, InChI=1S/C2H5F/c1-2-3/h2H2,1H3, purity 99.9%
Compound 5: 1,1,1-trifluoroethane, C2H3F3, InChI=1S/C2H3F3/c1-2(3,4)5/h1H3, purity 99.9%
Compound 6: 2,3,3,3-tetrafluoro-1-propene, C3H2F4, InChI=1S/C3H2F4/c1-2(4)3(5,6)7/h1H2, purity 99.9%
Compound 7: 1,1-difluoroethane, C2H4F2, InChI=1S/C2H4F2/c1-2(3)4/h2H,1H3, purity 99.9%
Compound 8: 1-hexyl-3-methylimidazolium trifluoromethanesulfonate, C11H19F3N2O3S, InChI=1S/C10H19N2.CHF3O3S/c1-3-4-5-6-7-12-9-8-11(2)10-12;2-1(3,4)8(5,6)7/h8-10H,3-7H2,1-2H3;(H,5,6,7)/q+1;/p-1, purity 99%
Compound 9: 1-hexyl-3-methylimidazolium tetrafluoroborate, C10H19BF4N2, InChI=1S/C10H19N2.BF4/c1-3-4-5-6-7-12-9-8-11(2)10-12;2-1(3,4)5/h8-10H,3-7H2,1-2H3;/q+1;-1, purity 99%
Compound 10: carbon dioxide, CO2, InChI=1S/CO2/c2-1-3, purity 99.999%

System: difluoromethane + 1-hexyl-3-methylimidazolium bis[(trifluoromethyl)sulfonyl]imide; phases: Liquid
Fixed: Mole fraction of difluoromethane = 0
Property: Binary diffusion coefficient, m2/s (Liquid); method: pressure decay method
Pressure, kPa	Temperature, K	Binary diffusion coefficient, m2/s	uncertainty
92.8	303.2	1.55e-10	0.014
93.9	313.2	2.15e-10	0.019
94.4	323.2	2.77e-10	0.025
94.3	333.2	3.68e-10	0.033
95.2	343.2	4.78e-10	0.043

System: pentafluoroethane + 1-hexyl-3-methylimidazolium bis[(trifluoromethyl)sulfonyl]imide; phases: Liquid
Fixed: Mole fraction of pentafluoroethane = 0
Property: Binary diffusion coefficient, m2/s (Liquid); method: pressure decay method
Pressure, kPa	Temperature, K	Binary diffusion coefficient, m2/s	uncertainty
93.2	303.2	1.02e-10	0.009
94.5	313.2	1.48e-10	0.014
95.6	323.2	2.24e-10	0.02
95.7	333.2	3.13e-10	0.028
100.2	343.2	4.21e-10	0.038

System: fluoroethane + 1-hexyl-3-methylimidazolium bis[(trifluoromethyl)sulfonyl]imide; phases: Liquid
Fixed: Mole fraction of fluoroethane = 0
Property: Binary diffusion coefficient, m2/s (Liquid); method: pressure decay method
Pressure, kPa	Temperature, K	Binary diffusion coefficient, m2/s	uncertainty
90.2	303.2	1.28e-10	0.012
91.1	313.2	2.08e-10	0.019
93.4	323.2	2.96e-10	0.027
93	333.2	3.46e-10	0.031
92.5	343.2	4.13e-10	0.037

System: 1,1,1-trifluoroethane + 1-hexyl-3-methylimidazolium bis[(trifluoromethyl)sulfonyl]imide; phases: Liquid
Fixed: Mole fraction of 1,1,1-trifluoroethane = 0
Property: Binary diffusion coefficient, m2/s (Liquid); method: pressure decay method
Pressure, kPa	Temperature, K	Binary diffusion coefficient, m2/s	uncertainty
104	303.2	1.84e-10	0.017
98.7	313.2	2.4e-10	0.022
99.5	323.2	3.35e-10	0.03
102.6	333.2	3.97e-10	0.036
99.7	343.2	5.1e-10	0.046

System: 2,3,3,3-tetrafluoro-1-propene + 1-hexyl-3-methylimidazolium bis[(trifluoromethyl)sulfonyl]imide; phases: Liquid
Fixed: Mole fraction of 2,3,3,3-tetrafluoro-1-propene = 0
Property: Binary diffusion coefficient, m2/s (Liquid); method: pressure decay method
Pressure, kPa	Temperature, K	Binary diffusion coefficient, m2/s	uncertainty
96.7	303.2	1.39e-10	0.013
95.6	313.2	1.99e-10	0.018
97.7	323.2	2.75e-10	0.025
98.3	333.2	4.01e-10	0.036
102.9	343.2	5.96e-10	0.054

System: 1,1-difluoroethane + 1-hexyl-3-methylimidazolium bis[(trifluoromethyl)sulfonyl]imide; phases: Liquid
Fixed: Mole fraction of 1,1-difluoroethane = 0
Property: Binary diffusion coefficient, m2/s (Liquid); method: pressure decay method
Pressure, kPa	Temperature, K	Binary diffusion coefficient, m2/s	uncertainty
87.7	303.2	9.9e-11	0.009
89.1	313.2	1.41e-10	0.013
92.5	323.2	2.02e-10	0.018
96.4	333.2	2.61e-10	0.024
93.8	343.2	3.16e-10	0.028

System: difluoromethane + 1-hexyl-3-methylimidazolium trifluoromethanesulfonate; phases: Liquid, Gas
Property: Vapor or sublimation pressure, kPa (Liquid); method: Closed cell (Static) method
Temperature, K	Mole fraction of difluoromethane	Vapor or sublimation pressure, kPa	uncertainty
303.2	0.03263	52.2	0.2
313.2	0.02975	58.6	4.3
323.2	0.02623	62.7	0.9
333.2	0.02268	65.1	0.8
343.2	0.02015	68.3	0.3

System: difluoromethane + 1-hexyl-3-methylimidazolium trifluoromethanesulfonate; phases: Liquid
Fixed: Mole fraction of difluoromethane = 0
Property: Binary diffusion coefficient, m2/s (Liquid); method: pressure decay method
Pressure, kPa	Temperature, K	Binary diffusion coefficient, m2/s	uncertainty
98.2	303.2	3.01e-10	0.027
102	313.2	4.27e-10	0.038
99.3	323.2	5.35e-10	0.048
100.2	333.2	6.82e-10	0.061
100.4	343.2	8.35e-10	0.075

System: pentafluoroethane + 1-hexyl-3-methylimidazolium trifluoromethanesulfonate; phases: Liquid, Gas
Property: Vapor or sublimation pressure, kPa (Liquid); method: Closed cell (Static) method
Temperature, K	Mole fraction of pentafluoroethane	Vapor or sublimation pressure, kPa	uncertainty
303.2	0.02486	60.9	0.4
313.2	0.02152	66.7	0.4
323.2	0.0183	70.8	0.5
333.2	0.0158	75.2	0.5
343.2	0.01393	80.4	0.5

System: pentafluoroethane + 1-hexyl-3-methylimidazolium trifluoromethanesulfonate; phases: Liquid
Fixed: Mole fraction of pentafluoroethane = 0
Property: Binary diffusion coefficient, m2/s (Liquid); method: pressure decay method
Pressure, kPa	Temperature, K	Binary diffusion coefficient, m2/s	uncertainty
97.2	303.2	2.38e-10	0.021
98.5	313.2	3.05e-10	0.027
99.1	323.2	4.17e-10	0.038
100.9	333.2	5.25e-10	0.047
103.8	343.2	6.19e-10	0.056

System: fluoroethane + 1-hexyl-3-methylimidazolium trifluoromethanesulfonate; phases: Liquid, Gas
Property: Vapor or sublimation pressure, kPa (Liquid); method: Closed cell (Static) method
Temperature, K	Mole fraction of fluoroethane	Vapor or sublimation pressure, kPa	uncertainty
303.2	0.03932	40.5	2.3
313.2	0.03769	49	2.3
323.2	0.03155	50.8	1
333.2	0.02711	53.4	1.5
343.2	0.02466	58.7	1.4

System: fluoroethane + 1-hexyl-3-methylimidazolium trifluoromethanesulfonate; phases: Liquid
Fixed: Mole fraction of fluoroethane = 0
Property: Binary diffusion coefficient, m2/s (Liquid); method: pressure decay method
Pressure, kPa	Temperature, K	Binary diffusion coefficient, m2/s	uncertainty
94.5	303.2	2.08e-10	0.019
103.8	313.2	2.75e-10	0.025
97	323.2	3.68e-10	0.033
94.4	333.2	4.76e-10	0.043
98.1	343.2	5.91e-10	0.053

System: 1,1,1-trifluoroethane + 1-hexyl-3-methylimidazolium trifluoromethanesulfonate; phases: Liquid, Gas
Property: Vapor or sublimation pressure, kPa (Liquid); method: Closed cell (Static) method
Temperature, K	Mole fraction of 1,1,1-trifluoroethane	Vapor or sublimation pressure, kPa	uncertainty
303.2	0.02307	64.6	3.6
313.2	0.02245	77	3.5
323.2	0.01855	76.8	2.2
333.2	0.01656	82.3	8.8
343.2	0.01426	83.7	0.3

System: 1,1,1-trifluoroethane + 1-hexyl-3-methylimidazolium trifluoromethanesulfonate; phases: Liquid
Fixed: Mole fraction of 1,1,1-trifluoroethane = 0
Property: Binary diffusion coefficient, m2/s (Liquid); method: pressure decay method
Pressure, kPa	Temperature, K	Binary diffusion coefficient, m2/s	uncertainty
97.3	303.2	1.96e-10	0.018
110.5	313.2	2.61e-10	0.024
105.4	323.2	3.48e-10	0.031
108.8	333.2	4.58e-10	0.041
106.3	343.2	6.13e-10	0.055

System: 2,3,3,3-tetrafluoro-1-propene + 1-hexyl-3-methylimidazolium trifluoromethanesulfonate; phases: Liquid, Gas
Property: Vapor or sublimation pressure, kPa (Liquid); method: Closed cell (Static) method
Temperature, K	Mole fraction of 2,3,3,3-tetrafluoro-1-propene	Vapor or sublimation pressure, kPa	uncertainty
303.2	0.02866	61.9	0.3
313.2	0.02383	65.3	1.7
323.2	0.02144	73.1	4.8
333.2	0.01818	76	1.9
343.2	0.01629	82.4	0.8

System: 2,3,3,3-tetrafluoro-1-propene + 1-hexyl-3-methylimidazolium trifluoromethanesulfonate; phases: Liquid
Fixed: Mole fraction of 2,3,3,3-tetrafluoro-1-propene = 0
Property: Binary diffusion coefficient, m2/s (Liquid); method: pressure decay method
Pressure, kPa	Temperature, K	Binary diffusion coefficient, m2/s	uncertainty
104.3	303.2	1.46e-10	0.013
101.6	313.2	2e-10	0.018
106.7	323.2	2.66e-10	0.024
100.8	333.2	3.76e-10	0.034
109	343.2	4.97e-10	0.045

System: 1,1-difluoroethane + 1-hexyl-3-methylimidazolium trifluoromethanesulfonate; phases: Liquid, Gas
Property: Vapor or sublimation pressure, kPa (Liquid); method: Closed cell (Static) method
Temperature, K	Mole fraction of 1,1-difluoroethane	Vapor or sublimation pressure, kPa	uncertainty
303.2	0.04113	32.9	1.7
313.2	0.03961	40.8	1.6
323.2	0.03539	46	1.5
333.2	0.03241	52.5	3.5
343.2	0.02843	56.3	0.2

System: 1,1-difluoroethane + 1-hexyl-3-methylimidazolium trifluoromethanesulfonate; phases: Liquid
Fixed: Mole fraction of 1,1-difluoroethane = 0
Property: Binary diffusion coefficient, m2/s (Liquid); method: pressure decay method
Pressure, kPa	Temperature, K	Binary diffusion coefficient, m2/s	uncertainty
86.8	303.2	1.48e-10	0.013
95.7	313.2	2.13e-10	0.019
98	323.2	2.82e-10	0.025
101.9	333.2	3.79e-10	0.034
99.1	343.2	4.73e-10	0.043

System: difluoromethane + 1-hexyl-3-methylimidazolium tetrafluoroborate; phases: Liquid, Gas
Property: Vapor or sublimation pressure, kPa (Liquid); method: Closed cell (Static) method
Temperature, K	Mole fraction of difluoromethane	Vapor or sublimation pressure, kPa	uncertainty
303.2	0.028	40.6	0.2
313.2	0.02667	48	1.2
323.2	0.02396	53.9	2.7
333.2	0.0212	58.5	4.9
343.2	0.01795	60.3	0.2

System: difluoromethane + 1-hexyl-3-methylimidazolium tetrafluoroborate; phases: Liquid
Fixed: Mole fraction of difluoromethane = 0
Property: Binary diffusion coefficient, m2/s (Liquid); method: pressure decay method
Pressure, kPa	Temperature, K	Binary diffusion coefficient, m2/s	uncertainty
95.7	303.2	1.29e-10	0.012
102	313.2	1.8e-10	0.016
99.1	323.2	2.55e-10	0.023
103.5	333.2	3.57e-10	0.032
99.9	343.2	4.76e-10	0.043

System: pentafluoroethane + 1-hexyl-3-methylimidazolium tetrafluoroborate; phases: Liquid, Gas
Property: Vapor or sublimation pressure, kPa (Liquid); method: Closed cell (Static) method
Temperature, K	Mole fraction of pentafluoroethane	Vapor or sublimation pressure, kPa	uncertainty
303.2	0.02953	95.4	0.6
313.2	0.02697	111.9	0.7
323.2	0.02359	124.3	0.8
333.2	0.01974	130.5	0.8
343.2	0.01592	129.4	0.8

System: pentafluoroethane + 1-hexyl-3-methylimidazolium tetrafluoroborate; phases: Liquid
Fixed: Mole fraction of pentafluoroethane = 0
Property: Binary diffusion coefficient, m2/s (Liquid); method: pressure decay method
Pressure, kPa	Temperature, K	Binary diffusion coefficient, m2/s	uncertainty
151.8	303.2	6.3e-11	0.006
164	313.2	1.24e-10	0.011
169.7	323.2	2.16e-10	0.02
176.2	333.2	2.95e-10	0.027
172.3	343.2	3.66e-10	0.033

System: fluoroethane + 1-hexyl-3-methylimidazolium tetrafluoroborate; phases: Liquid, Gas
Property: Vapor or sublimation pressure, kPa (Liquid); method: Closed cell (Static) method
Temperature, K	Mole fraction of fluoroethane	Vapor or sublimation pressure, kPa	uncertainty
303.2	0.02787	45.7	2.3
313.2	0.024	49.2	2
323.2	0.02231	57.1	2.7
333.2	0.01915	60.5	0.3
343.2	0.01662	64	0.3

System: fluoroethane + 1-hexyl-3-methylimidazolium tetrafluoroborate; phases: Liquid
Fixed: Mole fraction of fluoroethane = 0
Property: Binary diffusion coefficient, m2/s (Liquid); method: pressure decay method
Pressure, kPa	Temperature, K	Binary diffusion coefficient, m2/s	uncertainty
101	303.2	1.23e-10	0.011
97.7	313.2	1.91e-10	0.017
104.5	323.2	2.54e-10	0.023
102.4	333.2	3.36e-10	0.03
101.6	343.2	4.2e-10	0.038

System: 1,1,1-trifluoroethane + 1-hexyl-3-methylimidazolium tetrafluoroborate; phases: Liquid, Gas
Property: Vapor or sublimation pressure, kPa (Liquid); method: Closed cell (Static) method
Temperature, K	Mole fraction of 1,1,1-trifluoroethane	Vapor or sublimation pressure, kPa	uncertainty
303.2	0.02196	107.6	0.4
313.2	0.01997	120.2	4.4
323.2	0.01859	136.1	9.1
333.2	0.01725	152	8.5
343.2	0.01501	156.9	0.6

System: 1,1,1-trifluoroethane + 1-hexyl-3-methylimidazolium tetrafluoroborate; phases: Liquid
Fixed: Mole fraction of 1,1,1-trifluoroethane = 0
Property: Binary diffusion coefficient, m2/s (Liquid); method: pressure decay method
Pressure, kPa	Temperature, K	Binary diffusion coefficient, m2/s	uncertainty
149.1	303.2	7.7e-11	0.007
159.2	313.2	1.15e-10	0.01
173.5	323.2	1.89e-10	0.017
187.6	333.2	2.62e-10	0.024
189	343.2	3.39e-10	0.031

System: 2,3,3,3-tetrafluoro-1-propene + 1-hexyl-3-methylimidazolium tetrafluoroborate; phases: Liquid, Gas
Property: Vapor or sublimation pressure, kPa (Liquid); method: Closed cell (Static) method
Temperature, K	Mole fraction of 2,3,3,3-tetrafluoro-1-propene	Vapor or sublimation pressure, kPa	uncertainty
303.2	0.02515	110.9	0.4
313.2	0.02245	124.8	7.7
323.2	0.01899	132.2	3.8
333.2	0.01749	149.4	8
343.2	0.0153	158.7	0.6

System: 2,3,3,3-tetrafluoro-1-propene + 1-hexyl-3-methylimidazolium tetrafluoroborate; phases: Liquid
Fixed: Mole fraction of 2,3,3,3-tetrafluoro-1-propene = 0
Property: Binary diffusion coefficient, m2/s (Liquid); method: pressure decay method
Pressure, kPa	Temperature, K	Binary diffusion coefficient, m2/s	uncertainty
158.3	303.2	6.9e-11	0.006
168.4	313.2	1.02e-10	0.009
170	323.2	1.59e-10	0.014
185.3	333.2	2.47e-10	0.022
189	343.2	3.59e-10	0.032

System: 1,1-difluoroethane + 1-hexyl-3-methylimidazolium tetrafluoroborate; phases: Liquid, Gas
Property: Vapor or sublimation pressure, kPa (Liquid); method: Closed cell (Static) method
Temperature, K	Mole fraction of 1,1-difluoroethane	Vapor or sublimation pressure, kPa	uncertainty
303.2	0.03196	32.6	1.8
313.2	0.03038	40.1	1.7
323.2	0.02695	45	2.2
333.2	0.023	48.3	1.2
343.2	0.02011	52.9	0.2

System: 1,1-difluoroethane + 1-hexyl-3-methylimidazolium tetrafluoroborate; phases: Liquid
Fixed: Mole fraction of 1,1-difluoroethane = 0
Property: Binary diffusion coefficient, m2/s (Liquid); method: pressure decay method
Pressure, kPa	Temperature, K	Binary diffusion coefficient, m2/s	uncertainty
95.1	303.2	7.4e-11	0.007
101.6	313.2	1.07e-10	0.01
102	323.2	1.59e-10	0.014
97.8	333.2	2.07e-10	0.019
98.5	343.2	2.56e-10	0.023

System: carbon dioxide + 1-hexyl-3-methylimidazolium bis[(trifluoromethyl)sulfonyl]imide; phases: Liquid, Gas
Property: Vapor or sublimation pressure, kPa (Liquid); method: Closed cell (Static) method
Temperature, K	Mole fraction of carbon dioxide	Vapor or sublimation pressure, kPa	uncertainty
293.2	0.02031	60.1	3.3
303.2	0.01896	66.8	3.1
313.2	0.01905	79.3	3.9
323.2	0.01733	82.5	2.5
333.2	0.01708	91	2.9
343.2	0.01609	96.4	2.7

System: carbon dioxide + 1-hexyl-3-methylimidazolium bis[(trifluoromethyl)sulfonyl]imide; phases: Liquid
Fixed: Mole fraction of carbon dioxide = 0
Property: Binary diffusion coefficient, m2/s (Liquid); method: pressure decay method
Pressure, kPa	Temperature, K	Binary diffusion coefficient, m2/s	uncertainty
91.5	283.2	2.64e-10	0.024
99.7	298.2	3.89e-10	0.035
103.4	313.2	5.97e-10	0.054
