Measured thermophysical data. Apparent molar volumes of aqueous solutions of sodium acetate and sodium benzoate at temperatures from 323 K to 573 K and pressure 10 MPa
Source: J. Chem. Thermodyn., 2017, 10.1016/j.jct.2016.12.001
Compound 1: sodium ethanoate, C2H3NaO2, InChI=1S/C2H4O2.Na/c1-2(3)4;/h1H3,(H,3,4);/q;+1/p-1, purity 99%
Compound 2: sodium benzoate, C7H5NaO2, InChI=1S/C7H6O2.Na/c8-7(9)6-4-2-1-3-5-6;/h1-5H,(H,8,9);/q;+1/p-1, purity 99.5%
Compound 3: water, H2O, InChI=1S/H2O/h1H2, purity 99.8%

System: sodium ethanoate + water; phases: Liquid
Property: Mass density, kg/m3 (Liquid); method: Vibrating tube method
Temperature, K	Pressure, kPa	Molality, mol/kg of sodium ethanoate	Mass density, kg/m3	uncertainty
323.16	10020	0.05	2.025	0.102
323.16	10020	0.1001	4.031	0.104
323.16	10020	0.2001	7.979	0.108
323.16	10020	0.3998	15.678	0.117
323.15	10020	0.6503	25.053	0.131
323.15	10020	1.0071	37.899	0.153
323.15	10020	2.0382	72	0.221
323.15	10000	2.8061	94.76	0.27
323.15	10020	2.999	100.2	0.28
323.15	10020	4.0044	126.61	0.34
373.3	10010	0.05	2.042	0.125
373.31	10010	0.1001	4.059	0.127
373.33	10010	0.2001	8.005	0.13
373.34	10000	0.3998	15.708	0.138
373.35	10000	0.6503	25.019	0.15
373.35	10000	1.0071	37.699	0.169
373.35	10000	2.0382	71.215	0.231
373.35	9990	2.999	98.71	0.29
373.36	9990	4.0044	124.28	0.34
423.17	10010	0.1001	4.28	0.174
423.17	10020	0.2001	8.415	0.177
423.16	10040	0.3998	16.392	0.184
423.15	10060	0.6503	26.017	0.194
423.15	10050	1.0071	38.995	0.21
423.15	10030	2.0382	73.03	0.266
423.15	10040	2.999	100.74	0.32
423.14	10030	4.0044	126.27	0.37
473.15	10010	0.1001	4.735	0.201
473.15	10020	0.2001	9.252	0.205
473.15	10010	0.3998	17.891	0.212
473.15	9990	0.6503	28.189	0.224
473.15	10000	1.0071	42.002	0.242
473.15	9990	2.0382	77.787	0.299
473.15	9970	2.999	106.56	0.35
473.15	9970	4.0044	132.85	0.41
523.17	10010	0.1001	5.637	0.257
523.17	10010	0.2001	10.888	0.262
523.17	10010	0.3998	20.75	0.272
523.17	10010	0.6503	32.298	0.286
523.18	10010	1.0071	47.598	0.307
523.18	10030	2.0382	86.55	0.37
523.18	10030	2.999	117.47	0.43
523.18	10040	4.0044	145.36	0.48
573.12	10000	0.1001	7.741	0.308
573.12	10000	0.2001	14.631	0.316
573.12	10000	0.3998	27.198	0.333
573.12	10000	0.6503	41.58	0.355
573.13	10000	1.0071	60.21	0.385
573.14	10010	2.0382	106.18	0.47
573.14	10010	2.999	141.48	0.54
573.14	10000	4.0044	172.93	0.6

System: sodium benzoate + water; phases: Liquid
Property: Mass density, kg/m3 (Liquid); method: Vibrating tube method
Temperature, K	Pressure, kPa	Molality, mol/kg of sodium benzoate	Mass density, kg/m3	uncertainty
323.16	10020	0.0514	2.787	0.103
323.15	10020	0.1011	5.44	0.105
323.15	10020	0.1501	8.025	0.108
323.14	10020	0.2008	10.664	0.111
323.15	10010	0.3052	16.006	0.118
323.15	9990	0.4011	20.807	0.125
323.15	9990	0.6503	32.822	0.144
323.15	10000	1.0002	48.649	0.173
373.15	10010	0.0514	2.68	0.126
373.16	10000	0.1011	5.23	0.128
373.16	10000	0.1501	7.709	0.13
373.17	10010	0.2008	10.23	0.132
373.19	10010	0.3052	15.332	0.138
373.2	10010	0.4011	19.896	0.143
373.21	10010	0.6503	31.312	0.159
373.22	10020	1.0002	46.287	0.184
423.14	10010	0.1011	5.286	0.175
423.15	10010	0.1501	7.775	0.176
423.16	10020	0.2008	10.324	0.178
423.16	10010	0.3052	15.437	0.183
423.16	10010	0.4011	20.004	0.187
423.17	10000	0.6503	31.348	0.2
423.16	10000	1.0002	46.281	0.221
473.15	10020	0.1011	5.65	0.202
473.15	10030	0.1501	8.281	0.204
473.15	10030	0.2008	10.961	0.206
473.15	9990	0.3052	16.337	0.211
473.15	10010	0.4011	21.095	0.216
473.15	10010	0.6503	32.933	0.229
473.15	10010	1.0002	48.376	0.251
523.16	10010	0.1011	6.458	0.258
523.16	10010	0.1501	9.428	0.261
523.16	10010	0.2008	12.417	0.264
523.16	10020	0.3052	18.358	0.27
523.16	10030	0.4011	23.599	0.275
523.16	10040	0.6503	36.527	0.291
523.16	10040	1.0002	53.241	0.315
573.13	9990	0.0514	4.514	0.304
573.13	9990	0.1011	8.558	0.309
573.14	9990	0.1501	12.346	0.314
573.14	9990	0.2008	16.129	0.318
573.16	10000	0.3052	23.508	0.328
573.15	10010	0.4011	29.94	0.337
573.15	10010	0.6503	45.527	0.361
573.14	10010	1.0002	65.369	0.394
