Measured thermophysical data. (Liquid + liquid) equilibria of (water + butyric acid + cyclohexyl acetate) ternary system
Source: J. Chem. Thermodyn., 2005, 10.1016/j.jct.2004.09.002
Compound 1: water, H2O, InChI=1S/H2O/h1H2
Compound 2: butanoic acid, C4H8O2, InChI=1S/C4H8O2/c1-2-3-4(5)6/h2-3H2,1H3,(H,5,6), purity 99%
Compound 3: cyclohexyl ethanoate, C8H14O2, InChI=1S/C8H14O2/c1-7(9)10-8-5-3-2-4-6-8/h8H,2-6H2,1H3, purity 98%

System: water; phases: Liquid
Property: Refractive index (Na D-line) (Liquid); method: Standard Abbe refractometry
Temperature, K	Pressure, kPa	Refractive index (Na D-line)	uncertainty
293.15	101.325	1.3324	0.0012

System: water; phases: Liquid, Gas
Property: Boiling temperature at pressure P, K (Liquid); method: Fischer boiling point apparatus
Pressure, kPa	Boiling temperature at pressure P, K	uncertainty
101.325	373.2	0.2

System: butanoic acid; phases: Liquid
Property: Refractive index (Na D-line) (Liquid); method: Standard Abbe refractometry
Temperature, K	Pressure, kPa	Refractive index (Na D-line)	uncertainty
293.15	101.325	1.3982	0.0012

System: butanoic acid; phases: Liquid, Gas
Property: Boiling temperature at pressure P, K (Liquid); method: Fischer boiling point apparatus
Pressure, kPa	Boiling temperature at pressure P, K	uncertainty
101.325	436.67	0.2

System: butanoic acid; phases: Liquid
Property: Mass density, kg/m3 (Liquid); method: Vibrating tube method
Temperature, K	Pressure, kPa	Mass density, kg/m3	uncertainty
293.15	101.325	957.6	0.5

System: cyclohexyl ethanoate; phases: Liquid
Property: Refractive index (Na D-line) (Liquid); method: Standard Abbe refractometry
Temperature, K	Pressure, kPa	Refractive index (Na D-line)	uncertainty
293.15	101.325	1.4434	0.0013

System: cyclohexyl ethanoate; phases: Liquid, Gas
Property: Boiling temperature at pressure P, K (Liquid); method: Fischer boiling point apparatus
Pressure, kPa	Boiling temperature at pressure P, K	uncertainty
101.325	450.45	0.2

System: cyclohexyl ethanoate; phases: Liquid
Property: Mass density, kg/m3 (Liquid); method: Vibrating tube method
Temperature, K	Pressure, kPa	Mass density, kg/m3	uncertainty
293.15	101.325	970.3	1

System: butanoic acid + cyclohexyl ethanoate + water; phases: Liquid mixture 1, Liquid mixture 2
Fixed: Pressure, kPa = 101.325
Property: Mole fraction of butanoic acid (Liquid mixture 1); method: Chromatography
Property: Mole fraction of water (Liquid mixture 2); method: Chromatography
Property: Mole fraction of butanoic acid (Liquid mixture 2); method: Chromatography
Temperature, K	Mole fraction of water	Mole fraction of butanoic acid	uncertainty	Mole fraction of water	uncertainty	Mole fraction of butanoic acid	uncertainty
298.15	0.974	0.0233	0.004	0.023	0.01	0.1406	
298.15	0.9607	0.0364	0.004	0.0338	0.01	0.2284	
298.15	0.9483	0.0486	0.004	0.0452	0.01	0.2994	
298.15	0.9398	0.0569	0.004	0.0648	0.01	0.3834	
298.15	0.922	0.0706	0.004	0.0842	0.01	0.4414	
298.15	0.913	0.0794	0.004	0.1024	0.01	0.4933	
298.15	0.9046	0.0876	0.004	0.1148	0.01	0.5358	
298.15	0.8961	0.0959	0.0041	0.132	0.01	0.5778	
308.15	0.9764	0.0233	0.004	0.0175	0.01	0.1247	
308.15	0.963	0.0364	0.004	0.0263	0.01	0.2172	
308.15	0.9507	0.0485	0.004	0.0496	0.01	0.3072	
308.15	0.943	0.0558	0.004	0.0598	0.01	0.3552	
308.15	0.9302	0.0683	0.004	0.0734	0.01	0.4331	
308.15	0.9178	0.0798	0.004	0.0851	0.01	0.4871	
308.15	0.914	0.0834	0.004	0.1069	0.01	0.5418	
308.15	0.8973	0.0999	0.0041	0.1306	0.01	0.5771	
318.15	0.9775	0.022	0.004	0.0354	0.01	0.1157	
318.15	0.9626	0.034	0.004	0.0527	0.01	0.2008	
318.15	0.9488	0.0468	0.004	0.0629	0.01	0.2842	
318.15	0.9405	0.0543	0.004	0.0701	0.01	0.3351	
318.15	0.928	0.0666	0.004	0.0917	0.01	0.4438	
318.15	0.9165	0.0769	0.004	0.1135	0.01	0.477	
318.15	0.8879	0.1045	0.0041	0.1387	0.0101	0.5168	
318.15	0.8735	0.1179	0.0041	0.1685	0.0101	0.548	
