Measured thermophysical data. Application of [HMim][NTf2], [HMim][TfO] and [BMim][TfO] ionic liquids on the extraction of toluene from alkanes: Effect of the anion and the alkyl chain length of the cation on the LLE
Source: J. Chem. Thermodyn., 2012, 10.1016/j.jct.2012.04.015
Compound 1: 1-hexyl-3-methylimidazolium bis[(trifluoromethyl)sulfonyl]imide, C12H19F6N3O4S2, InChI=1S/C10H19N2.C2F6NO4S2/c1-3-4-5-6-7-12-9-8-11(2)10-12;3-1(4,5)14(10,11)9-15(12,13)2(6,7)8/h8-10H,3-7H2,1-2H3;/q+1;-1, purity 99%
Compound 2: 1-hexyl-3-methylimidazolium trifluoromethanesulfonate, C11H19F3N2O3S, InChI=1S/C10H19N2.CHF3O3S/c1-3-4-5-6-7-12-9-8-11(2)10-12;2-1(3,4)8(5,6)7/h8-10H,3-7H2,1-2H3;(H,5,6,7)/q+1;/p-1, purity 99%
Compound 3: 1-butyl-3-methylimidazolium trifluoromethanesulfonate, C9H15F3N2O3S, InChI=1S/C8H15N2.CHF3O3S/c1-3-4-5-10-7-6-9(2)8-10;2-1(3,4)8(5,6)7/h6-8H,3-5H2,1-2H3;(H,5,6,7)/q+1;/p-1, purity 99%
Compound 4: heptane, C7H16, InChI=1S/C7H16/c1-3-5-7-6-4-2/h3-7H2,1-2H3, purity 99.5%
Compound 5: cyclohexane, C6H12, InChI=1S/C6H12/c1-2-4-6-5-3-1/h1-6H2, purity 99.9%
Compound 6: toluene, C7H8, InChI=1S/C7H8/c1-7-5-3-2-4-6-7/h2-6H,1H3, purity 99.9%

System: 1-hexyl-3-methylimidazolium bis[(trifluoromethyl)sulfonyl]imide; phases: Liquid
Property: Refractive index (Na D-line) (Liquid); method: Standard Abbe refractometry
Temperature, K	Pressure, kPa	Refractive index (Na D-line)	uncertainty
298.15	101.325	1.43016	0.00037

System: 1-hexyl-3-methylimidazolium bis[(trifluoromethyl)sulfonyl]imide; phases: Liquid
Property: Mass density, kg/m3 (Liquid); method: Vibrating tube method
Temperature, K	Pressure, kPa	Mass density, kg/m3	uncertainty
298.15	101.325	1371.99	0.55

System: 1-hexyl-3-methylimidazolium trifluoromethanesulfonate; phases: Liquid
Property: Refractive index (Na D-line) (Liquid); method: Standard Abbe refractometry
Temperature, K	Pressure, kPa	Refractive index (Na D-line)	uncertainty
303.15	101.325	1.43926	0.00037

System: 1-hexyl-3-methylimidazolium trifluoromethanesulfonate; phases: Liquid
Property: Mass density, kg/m3 (Liquid); method: Vibrating tube method
Temperature, K	Pressure, kPa	Mass density, kg/m3	uncertainty
303.15	101.325	1232.55	0.43

System: 1-butyl-3-methylimidazolium trifluoromethanesulfonate; phases: Liquid
Property: Refractive index (Na D-line) (Liquid); method: Standard Abbe refractometry
Temperature, K	Pressure, kPa	Refractive index (Na D-line)	uncertainty
298.15	101.325	1.43895	0.00037

System: 1-butyl-3-methylimidazolium trifluoromethanesulfonate; phases: Liquid
Property: Mass density, kg/m3 (Liquid); method: Vibrating tube method
Temperature, K	Pressure, kPa	Mass density, kg/m3	uncertainty
298.15	101.325	1303.63	0.49

System: heptane; phases: Liquid
Property: Refractive index (Na D-line) (Liquid); method: Standard Abbe refractometry
Temperature, K	Pressure, kPa	Refractive index (Na D-line)	uncertainty
298.15	101.325	1.38529	0.00033

System: heptane; phases: Liquid
Property: Mass density, kg/m3 (Liquid); method: Vibrating tube method
Temperature, K	Pressure, kPa	Mass density, kg/m3	uncertainty
298.15	101.325	679.57	0.18

System: cyclohexane; phases: Liquid
Property: Refractive index (Na D-line) (Liquid); method: Standard Abbe refractometry
Temperature, K	Pressure, kPa	Refractive index (Na D-line)	uncertainty
298.15	101.325	1.42356	0.00031

System: cyclohexane; phases: Liquid
Property: Mass density, kg/m3 (Liquid); method: Vibrating tube method
Temperature, K	Pressure, kPa	Mass density, kg/m3	uncertainty
298.15	101.325	773.88	0.13

System: toluene; phases: Liquid
Property: Refractive index (Na D-line) (Liquid); method: Standard Abbe refractometry
Temperature, K	Pressure, kPa	Refractive index (Na D-line)	uncertainty
298.15	101.325	1.49398	0.00031

System: toluene; phases: Liquid
Property: Mass density, kg/m3 (Liquid); method: Vibrating tube method
Temperature, K	Pressure, kPa	Mass density, kg/m3	uncertainty
298.15	101.325	862.23	0.1

System: heptane + 1-hexyl-3-methylimidazolium bis[(trifluoromethyl)sulfonyl]imide; phases: Liquid mixture 2, Liquid mixture 1
Property: Mass fraction of heptane (Liquid mixture 2); method: Titration method
Temperature, K	Pressure, kPa	Mass fraction of heptane	uncertainty
298.15	101.3	0.032	0.008

System: toluene + 1-hexyl-3-methylimidazolium bis[(trifluoromethyl)sulfonyl]imide; phases: Liquid mixture 2, Liquid mixture 1
Property: Mass fraction of toluene (Liquid mixture 2); method: Titration method
Pressure, kPa	Temperature, K	Mass fraction of toluene	uncertainty
101.3	298.15	0.487	

System: heptane + 1-hexyl-3-methylimidazolium trifluoromethanesulfonate; phases: Liquid mixture 2, Liquid mixture 1
Property: Mass fraction of heptane (Liquid mixture 2); method: Titration method
Temperature, K	Pressure, kPa	Mass fraction of heptane	uncertainty
298.15	101.3	0.029	0.008

System: toluene + 1-hexyl-3-methylimidazolium trifluoromethanesulfonate; phases: Liquid mixture 2, Liquid mixture 1
Property: Mass fraction of toluene (Liquid mixture 2); method: Titration method
Pressure, kPa	Temperature, K	Mass fraction of toluene	uncertainty
101.3	298.15	0.411	

System: heptane + 1-butyl-3-methylimidazolium trifluoromethanesulfonate; phases: Liquid mixture 2, Liquid mixture 1
Property: Mass fraction of heptane (Liquid mixture 2); method: Titration method
Temperature, K	Pressure, kPa	Mass fraction of heptane	uncertainty
298.15	101.3	0.013	0.008

System: toluene + 1-butyl-3-methylimidazolium trifluoromethanesulfonate; phases: Liquid mixture 2, Liquid mixture 1
Property: Mass fraction of toluene (Liquid mixture 2); method: Titration method
Pressure, kPa	Temperature, K	Mass fraction of toluene	uncertainty
101.3	298.15	0.287	

System: cyclohexane + 1-hexyl-3-methylimidazolium bis[(trifluoromethyl)sulfonyl]imide; phases: Liquid mixture 2, Liquid mixture 1
Property: Mass fraction of cyclohexane (Liquid mixture 2); method: Titration method
Temperature, K	Pressure, kPa	Mass fraction of cyclohexane	uncertainty
298.15	101.3	0.069	0.008

System: cyclohexane + 1-hexyl-3-methylimidazolium trifluoromethanesulfonate; phases: Liquid mixture 2, Liquid mixture 1
Property: Mass fraction of cyclohexane (Liquid mixture 2); method: Titration method
Temperature, K	Pressure, kPa	Mass fraction of cyclohexane	uncertainty
298.15	101.3	0.052	0.008

System: cyclohexane + 1-butyl-3-methylimidazolium trifluoromethanesulfonate; phases: Liquid mixture 2, Liquid mixture 1
Property: Mass fraction of cyclohexane (Liquid mixture 2); method: Titration method
Temperature, K	Pressure, kPa	Mass fraction of cyclohexane	uncertainty
298.15	101.3	0.029	0.008

System: toluene + heptane + 1-hexyl-3-methylimidazolium bis[(trifluoromethyl)sulfonyl]imide; phases: Liquid mixture 1, Liquid mixture 2
Fixed: Pressure, kPa = 1
Fixed: Temperature, K = 298.15
Property: Mass fraction of toluene (Liquid mixture 1); method: Density calibration data
Property: Mass fraction of heptane (Liquid mixture 2); method: Density calibration data
Property: Mass fraction of toluene (Liquid mixture 2); method: Density calibration data
Mass fraction of heptane	Mass fraction of toluene	uncertainty	Mass fraction of heptane	uncertainty	Mass fraction of toluene	uncertainty
1	0		0.032	0.008	0	
0.921	0.079	0.011	0.031	0.008	0.033	
0.841	0.159	0.011	0.035	0.008	0.062	
0.768	0.232	0.011	0.034	0.008	0.09	
0.69	0.31	0.011	0.04	0.008	0.118	
0.607	0.393	0.011	0.042	0.008	0.151	
0.522	0.478	0.011	0.042	0.008	0.187	
0.444	0.556	0.011	0.04	0.008	0.224	
0.338	0.662	0.011	0.035	0.008	0.277	
0.223	0.777	0.011	0.027	0.008	0.343	
0	1		0		0.487	

System: toluene + heptane + 1-hexyl-3-methylimidazolium trifluoromethanesulfonate; phases: Liquid mixture 1, Liquid mixture 2
Fixed: Pressure, kPa = 1
Fixed: Temperature, K = 298.15
Property: Mass fraction of toluene (Liquid mixture 1); method: Density calibration data
Property: Mass fraction of heptane (Liquid mixture 2); method: Density calibration data
Property: Mass fraction of toluene (Liquid mixture 2); method: Density calibration data
Mass fraction of heptane	Mass fraction of toluene	uncertainty	Mass fraction of heptane	uncertainty	Mass fraction of toluene	uncertainty
1	0		0.029	0.008	0	
0.865	0.135	0.011	0.025	0.008	0.046	
0.785	0.215	0.011	0.027	0.008	0.073	
0.709	0.291	0.011	0.029	0.008	0.099	
0.621	0.379	0.011	0.031	0.008	0.124	
0.532	0.468	0.011	0.033	0.008	0.152	
0.44	0.56	0.011	0.034	0.008	0.184	
0.327	0.673	0.011	0.032	0.008	0.229	
0.215	0.785	0.011	0.028	0.008	0.279	
0	1		0		0.411	

System: toluene + heptane + 1-butyl-3-methylimidazolium trifluoromethanesulfonate; phases: Liquid mixture 1, Liquid mixture 2
Fixed: Pressure, kPa = 1
Fixed: Temperature, K = 298.15
Property: Mass fraction of toluene (Liquid mixture 1); method: Density calibration data
Property: Mass fraction of heptane (Liquid mixture 2); method: Density calibration data
Property: Mass fraction of toluene (Liquid mixture 2); method: Density calibration data
Mass fraction of heptane	Mass fraction of toluene	uncertainty	Mass fraction of heptane	uncertainty	Mass fraction of toluene	uncertainty
1	0		0.013	0.008	0	
0.932	0.068	0.011	0.012	0.008	0.018	
0.838	0.162	0.011	0.012	0.008	0.04	
0.745	0.255	0.011	0.013	0.008	0.063	
0.647	0.353	0.011	0.014	0.008	0.086	
0.544	0.456	0.011	0.014	0.008	0.11	
0.441	0.559	0.011	0.015	0.008	0.138	
0.312	0.688	0.011	0.014	0.008	0.172	
0.189	0.811	0.011	0.011	0.008	0.211	
0	1		0		0.287	

System: toluene + cyclohexane + 1-hexyl-3-methylimidazolium bis[(trifluoromethyl)sulfonyl]imide; phases: Liquid mixture 1, Liquid mixture 2
Fixed: Pressure, kPa = 1
Fixed: Temperature, K = 298.15
Property: Mass fraction of toluene (Liquid mixture 1); method: Density calibration data
Property: Mass fraction of cyclohexane (Liquid mixture 2); method: Density calibration data
Property: Mass fraction of toluene (Liquid mixture 2); method: Density calibration data
Mass fraction of cyclohexane	Mass fraction of toluene	uncertainty	Mass fraction of cyclohexane	uncertainty	Mass fraction of toluene	uncertainty
1	0		0.069	0.008	0	
0.893	0.107	0.011	0.076	0.008	0.041	
0.8	0.2	0.011	0.078	0.008	0.078	
0.726	0.274	0.011	0.079	0.008	0.105	
0.637	0.363	0.011	0.078	0.008	0.139	
0.557	0.443	0.011	0.076	0.008	0.172	
0.454	0.546	0.011	0.072	0.008	0.211	
0.357	0.643	0.011	0.064	0.008	0.26	
0.263	0.737	0.011	0.056	0.008	0.308	
0.169	0.831	0.011	0.041	0.008	0.364	
0	1		0		0.487	

System: toluene + cyclohexane + 1-hexyl-3-methylimidazolium trifluoromethanesulfonate; phases: Liquid mixture 1, Liquid mixture 2
Fixed: Temperature, K = 298.15
Fixed: Pressure, kPa = 1
Property: Mass fraction of cyclohexane (Liquid mixture 1); method: Titration method
Property: Mass fraction of cyclohexane (Liquid mixture 2); method: Titration method
Property: Mass fraction of toluene (Liquid mixture 2); method: Titration method
Mass fraction of toluene	Mass fraction of cyclohexane	uncertainty	Mass fraction of cyclohexane	uncertainty	Mass fraction of toluene	uncertainty
0	1		0.052	0.008	0	
0.186	0.814	0.012	0.058	0.008	0.059	
0.273	0.727	0.014	0.061	0.008	0.087	
0.362	0.638	0.015	0.062	0.008	0.118	
0.452	0.548	0.017	0.061	0.008	0.153	
0.548	0.452	0.017	0.057	0.008	0.186	
0.643	0.357	0.015	0.052	0.008	0.223	
0.732	0.268	0.014	0.043	0.008	0.265	
0.822	0.178	0.012	0.031	0.008	0.312	
1	0		0		0.411	

System: toluene + cyclohexane + 1-butyl-3-methylimidazolium trifluoromethanesulfonate; phases: Liquid mixture 1, Liquid mixture 2
Fixed: Pressure, kPa = 1
Fixed: Temperature, K = 298.15
Property: Mass fraction of toluene (Liquid mixture 1); method: Density calibration data
Property: Mass fraction of cyclohexane (Liquid mixture 2); method: Density calibration data
Property: Mass fraction of toluene (Liquid mixture 2); method: Density calibration data
Mass fraction of cyclohexane	Mass fraction of toluene	uncertainty	Mass fraction of cyclohexane	uncertainty	Mass fraction of toluene	uncertainty
1	0		0.029	0.008	0	
0.89	0.11	0.011	0.033	0.008	0.027	
0.788	0.212	0.011	0.033	0.008	0.05	
0.687	0.313	0.011	0.032	0.008	0.073	
0.576	0.424	0.011	0.031	0.008	0.098	
0.474	0.526	0.011	0.028	0.008	0.122	
0.364	0.636	0.011	0.024	0.008	0.153	
0.256	0.744	0.011	0.019	0.008	0.184	
0.148	0.852	0.011	0.013	0.008	0.222	
0	1		0		0.287	

System: cyclohexane + heptane + 1-hexyl-3-methylimidazolium bis[(trifluoromethyl)sulfonyl]imide; phases: Liquid mixture 1, Liquid mixture 2
Fixed: Pressure, kPa = 1
Fixed: Temperature, K = 298.15
Property: Mass fraction of cyclohexane (Liquid mixture 1); method: Density calibration data
Property: Mass fraction of heptane (Liquid mixture 2); method: Density calibration data
Property: Mass fraction of cyclohexane (Liquid mixture 2); method: Density calibration data
Mass fraction of heptane	Mass fraction of cyclohexane	uncertainty	Mass fraction of heptane	uncertainty	Mass fraction of cyclohexane	uncertainty
1	0		0.032	0.008	0	
0.835	0.165	0.011	0.027	0.009	0.012	
0.755	0.245	0.011	0.024	0.009	0.017	
0.674	0.326	0.011	0.023	0.009	0.02	
0.578	0.422	0.011	0.021	0.009	0.023	
0.481	0.519	0.011	0.02	0.009	0.027	
0.385	0.615	0.011	0.016	0.009	0.033	
0.293	0.707	0.011	0.012	0.009	0.041	
0.193	0.807	0.011	0.009	0.009	0.047	
0	1		0		0.069	

System: cyclohexane + heptane + 1-hexyl-3-methylimidazolium trifluoromethanesulfonate; phases: Liquid mixture 1, Liquid mixture 2
Fixed: Pressure, kPa = 1
Fixed: Temperature, K = 298.15
Property: Mass fraction of cyclohexane (Liquid mixture 1); method: Density calibration data
Property: Mass fraction of heptane (Liquid mixture 2); method: Density calibration data
Property: Mass fraction of cyclohexane (Liquid mixture 2); method: Density calibration data
Mass fraction of heptane	Mass fraction of cyclohexane	uncertainty	Mass fraction of heptane	uncertainty	Mass fraction of cyclohexane	uncertainty
1	0		0.029	0.008	0	
0.861	0.139	0.011	0.024	0.008	0.008	
0.776	0.224	0.011	0.021	0.009	0.013	
0.696	0.304	0.011	0.02	0.009	0.014	
0.606	0.394	0.011	0.017	0.009	0.02	
0.5	0.5	0.011	0.013	0.009	0.028	
0.4	0.6	0.011	0.011	0.009	0.032	
0.306	0.694	0.011	0.007	0.007	0.039	
0.203	0.797	0.011	0.004	0.004	0.046	
0	1		0		0.052	

System: cyclohexane + heptane + 1-butyl-3-methylimidazolium trifluoromethanesulfonate; phases: Liquid mixture 1, Liquid mixture 2
Fixed: Pressure, kPa = 1
Fixed: Temperature, K = 298.15
Property: Mass fraction of cyclohexane (Liquid mixture 1); method: Density calibration data
Property: Mass fraction of heptane (Liquid mixture 2); method: Density calibration data
Property: Mass fraction of cyclohexane (Liquid mixture 2); method: Density calibration data
Mass fraction of heptane	Mass fraction of cyclohexane	uncertainty	Mass fraction of heptane	uncertainty	Mass fraction of cyclohexane	uncertainty
1	0		0.013	0.008	0	
0.908	0.092	0.011	0.011	0.008	0.003	
0.809	0.191	0.011	0.01	0.008	0.006	
0.72	0.28	0.011	0.009	0.008	0.008	
0.618	0.382	0.011	0.008	0.008	0.011	
0.505	0.495	0.011	0.007	0.007	0.015	
0.393	0.607	0.011	0.006	0.006	0.018	
0.296	0.704	0.011	0.005	0.005	0.021	
0.192	0.808	0.011	0.003	0.003	0.024	
0	1		0		0.029	
