Measured thermophysical data. Solubility of methane in water and in a medium for the coltivation of methanotrophs bacteria
Source: J. Chem. Thermodyn., 2006, 10.1016/j.jct.2006.03.019
Compound 1: methane, CH4, InChI=1S/CH4/h1H4, purity 99.995%
Compound 2: water, H2O, InChI=1S/H2O/h1H2

System: methane + water; phases: Liquid, Gas
Fixed: Pressure, kPa = 101
Property: Mass fraction of methane (Liquid); method: change in gas colume on dissolution
Temperature, K	Mass fraction of methane	uncertainty
293.15	2.761e-05	3.4e-07
295.15	2.646e-05	3.2e-07
298.15	2.524e-05	3.1e-07
300.15	2.429e-05	2.9e-07
303.15	2.328e-05	2.8e-07
305.15	2.257e-05	2.7e-07
308.15	2.151e-05	2.6e-07
310.15	2.074e-05	2.5e-07
313.15	2.012e-05	2.4e-07
315.15	1.963e-05	2.4e-07
318.15	1.896e-05	2.3e-07
320.15	1.84e-05	2.2e-07
323.15	1.786e-05	2.2e-07
