Measured thermophysical data. Compressed liquid density measurements for {methylbenzoate + (cyclohexane or  1-hexanol)} binary systems
Source: J. Chem. Thermodyn., 2011, 10.1016/j.jct.2011.02.008
Compound 1: methyl benzoate, C8H8O2, InChI=1S/C8H8O2/c1-10-8(9)7-5-3-2-4-6-7/h2-6H,1H3
Compound 2: hexan-1-ol, C6H14O, InChI=1S/C6H14O/c1-2-3-4-5-6-7/h7H,2-6H2,1H3
Compound 3: cyclohexane, C6H12, InChI=1S/C6H12/c1-2-4-6-5-3-1/h1-6H2

System: methyl benzoate; phases: Liquid
Property: Mass density, kg/m3 (Liquid); method: Vibrating tube method
Temperature, K	Pressure, kPa	Mass density, kg/m3	uncertainty
278.15	100	1101.5	2.4
278.15	1000	1102.1	2.4
278.15	5000	1104.4	2.4
278.15	10000	1107.2	2.4
278.15	15000	1109.9	2.4
278.15	20000	1112.6	2.4
278.15	25000	1115.2	2.4
278.15	30000	1117.7	2.4
278.15	35000	1120.2	2.4
278.15	40000	1122.7	2.4
278.15	45000	1125.1	2.4
278.15	50000	1127.4	2.4
278.15	55000	1129.7	2.4
278.15	60000	1131.8	2.4
288.15	100	1092.1	2.4
288.15	1000	1092.6	2.4
288.15	5000	1095	2.4
288.15	10000	1097.9	2.4
288.15	15000	1100.8	2.4
288.15	20000	1103.6	2.4
288.15	25000	1106.3	2.4
288.15	30000	1109	2.4
288.15	35000	1111.6	2.4
288.15	40000	1114.1	2.4
288.15	45000	1116.6	2.4
288.15	50000	1119.1	2.4
288.15	55000	1121.4	2.4
288.15	60000	1123.6	2.4
298.15	100	1082.7	2.4
298.15	1000	1083.2	2.4
298.15	5000	1085.8	2.4
298.15	10000	1089	2.4
298.15	15000	1091.8	2.4
298.15	20000	1094.8	2.4
298.15	25000	1097.6	2.4
298.15	30000	1100.4	2.4
298.15	35000	1103.1	2.4
298.15	40000	1105.7	2.4
298.15	45000	1108.3	2.4
298.15	50000	1110.9	2.4
298.15	55000	1113.4	2.4
298.15	60000	1115.6	2.4
308.15	100	1073	2.4
308.15	1000	1073.6	2.4
308.15	5000	1076.2	2.4
308.15	10000	1079.5	2.4
308.15	15000	1082.6	2.4
308.15	20000	1085.7	2.4
308.15	25000	1088.6	2.4
308.15	30000	1091.5	2.4
308.15	35000	1094.3	2.4
308.15	40000	1097.1	2.4
308.15	45000	1099.8	2.4
308.15	50000	1102.4	2.4
308.15	55000	1105	2.4
308.15	60000	1107.4	2.4
318.15	100	1063.3	2.4
318.15	1000	1063.8	2.4
318.15	5000	1066.7	2.4
318.15	10000	1070.1	2.4
318.15	15000	1073.4	2.4
318.15	20000	1076.6	2.4
318.15	25000	1079.7	2.4
318.15	30000	1082.8	2.4
318.15	35000	1085.7	2.4
318.15	40000	1088.6	2.4
318.15	45000	1091.4	2.4
318.15	50000	1094.1	2.4
318.15	55000	1096.8	2.4
318.15	60000	1099.3	2.4
328.15	100	1053.6	2.4
328.15	1000	1054.3	2.4
328.15	5000	1057.2	2.4
328.15	10000	1060.8	2.4
328.15	15000	1064.3	2.4
328.15	20000	1067.6	2.4
328.15	25000	1070.9	2.4
328.15	30000	1074	2.4
328.15	35000	1077.1	2.4
328.15	40000	1080.1	2.4
328.15	45000	1083	2.4
328.15	50000	1085.9	2.4
328.15	55000	1088.7	2.4
328.15	60000	1091.2	2.4
338.15	100	1044.1	2.4
338.15	1000	1044.8	2.4
338.15	5000	1048	2.4
338.15	10000	1051.7	2.4
338.15	15000	1055.3	2.4
338.15	20000	1058.8	2.4
338.15	25000	1062.2	2.4
338.15	30000	1065.5	2.4
338.15	35000	1068.8	2.4
338.15	40000	1071.9	2.4
338.15	45000	1074.9	2.4
338.15	50000	1077.9	2.4
338.15	55000	1080.8	2.4
338.15	60000	1083.5	2.4
348.15	100	1034.4	2.4
348.15	1000	1035.1	2.4
348.15	5000	1038.4	2.4
348.15	10000	1042.4	2.4
348.15	15000	1046.2	2.4
348.15	20000	1049.8	2.4
348.15	25000	1053.4	2.4
348.15	30000	1056.9	2.4
348.15	35000	1060.3	2.4
348.15	40000	1063.5	2.4
348.15	45000	1066.7	2.4
348.15	50000	1069.8	2.4
348.15	55000	1072.8	2.4
348.15	60000	1075.5	2.4
358.15	100	1024.9	2.4
358.15	1000	1025.6	2.4
358.15	5000	1029.1	2.4
358.15	10000	1033.3	2.4
358.15	15000	1037.3	2.4
358.15	20000	1041.2	2.4
358.15	25000	1044.9	2.4
358.15	30000	1048.5	2.4
358.15	35000	1052	2.4
358.15	40000	1055.4	2.4
358.15	45000	1058.7	2.4
358.15	50000	1061.9	2.4
358.15	55000	1065.1	2.4
358.15	60000	1067.9	2.4

System: hexan-1-ol; phases: Liquid
Property: Mass density, kg/m3 (Liquid); method: Vibrating tube method
Temperature, K	Pressure, kPa	Mass density, kg/m3	uncertainty
278.15	100	828.9	2.4
278.15	1000	829.5	2.4
278.15	5000	832	2.4
278.15	10000	835	2.4
278.15	15000	838	2.4
278.15	20000	840.8	2.4
278.15	25000	843.6	2.4
278.15	30000	846.3	2.4
278.15	35000	848.9	2.4
278.15	40000	851.4	2.4
278.15	45000	853.9	2.4
278.15	50000	856.3	2.4
278.15	55000	858.7	2.4
278.15	60000	860.9	2.4
288.15	100	822.1	2.4
288.15	1000	822.7	2.4
288.15	5000	825.3	2.4
288.15	10000	828.5	2.4
288.15	15000	831.6	2.4
288.15	20000	834.6	2.4
288.15	25000	837.4	2.4
288.15	30000	840.2	2.4
288.15	35000	842.9	2.4
288.15	40000	845.5	2.4
288.15	45000	848	2.4
288.15	50000	850.5	2.4
288.15	55000	853	2.4
288.15	60000	855.4	2.4
298.15	100	814.9	2.4
298.15	1000	815.6	2.4
298.15	5000	818.4	2.4
298.15	10000	821.7	2.4
298.15	15000	824.9	2.4
298.15	20000	828	2.4
298.15	25000	830.9	2.4
298.15	30000	833.8	2.4
298.15	35000	836.6	2.4
298.15	40000	839.4	2.4
298.15	45000	842	2.4
298.15	50000	844.6	2.4
298.15	55000	847.1	2.4
298.15	60000	849.6	2.4
308.15	100	807.8	2.4
308.15	1000	808.4	2.4
308.15	5000	811.4	2.4
308.15	10000	814.8	2.4
308.15	15000	818.2	2.4
308.15	20000	821.4	2.4
308.15	25000	824.5	2.4
308.15	30000	827.5	2.4
308.15	35000	830.3	2.4
308.15	40000	833.2	2.4
308.15	45000	835.9	2.4
308.15	50000	838.5	2.4
308.15	55000	841.1	2.4
308.15	60000	843.5	2.4
318.15	100	800.5	2.4
318.15	1000	801.2	2.4
318.15	5000	804.3	2.4
318.15	10000	807.9	2.4
318.15	15000	811.4	2.4
318.15	20000	814.7	2.4
318.15	25000	817.9	2.4
318.15	30000	821	2.4
318.15	35000	824	2.4
318.15	40000	826.9	2.4
318.15	45000	829.7	2.4
318.15	50000	832.4	2.4
318.15	55000	835.1	2.4
318.15	60000	837.7	2.4
328.15	100	793	2.4
328.15	1000	793.7	2.4
328.15	5000	797	2.4
328.15	10000	800.8	2.4
328.15	15000	804.4	2.4
328.15	20000	807.9	2.4
328.15	25000	811.2	2.4
328.15	30000	814.4	2.4
328.15	35000	817.6	2.4
328.15	40000	820.6	2.4
328.15	45000	823.5	2.4
328.15	50000	826.4	2.4
328.15	55000	829.1	2.4
328.15	60000	831.6	2.4
338.15	100	785.4	2.4
338.15	1000	786.2	2.4
338.15	5000	789.6	2.4
338.15	10000	793.6	2.4
338.15	15000	797.4	2.4
338.15	20000	801	2.4
338.15	25000	804.5	2.4
338.15	30000	807.9	2.4
338.15	35000	811.1	2.4
338.15	40000	814.2	2.4
338.15	45000	817.3	2.4
338.15	50000	820.2	2.4
338.15	55000	823.1	2.4
338.15	60000	825.7	2.4
348.15	100	777.6	2.4
348.15	1000	778.4	2.4
348.15	5000	782	2.4
348.15	10000	786.2	2.4
348.15	15000	790.2	2.4
348.15	20000	794.1	2.4
348.15	25000	797.6	2.4
348.15	30000	801.2	2.4
348.15	35000	804.6	2.4
348.15	40000	807.8	2.4
348.15	45000	811	2.4
348.15	50000	814	2.4
348.15	55000	817	2.4
348.15	60000	819.7	2.4
358.15	100	769.4	2.4
358.15	1000	770	2.4
358.15	5000	774.2	2.4
358.15	10000	778.6	2.4
358.15	15000	782.8	2.4
358.15	20000	786.9	2.4
358.15	25000	790.7	2.4
358.15	30000	794.3	2.4
358.15	35000	797.9	2.4
358.15	40000	801.3	2.4
358.15	45000	804.6	2.4
358.15	50000	807.7	2.4
358.15	55000	810.8	2.4
358.15	60000	813.5	2.5

System: cyclohexane; phases: Liquid
Property: Mass density, kg/m3 (Liquid); method: Vibrating tube method
Temperature, K	Pressure, kPa	Mass density, kg/m3	uncertainty
288.15	100	782.7	2.4
288.15	1000	783.7	2.4
288.15	5000	787	2.4
288.15	10000	790.7	2.4
288.15	15000	794.1	2.4
298.15	100	773.2	2.4
298.15	1000	774	2.4
298.15	5000	777.6	2.4
298.15	10000	781.8	2.4
298.15	15000	785.6	2.4
298.15	20000	789.3	2.4
298.15	25000	792.9	2.4
298.15	30000	796.8	2.4
298.15	35000	799.7	2.4
308.15	100	763.6	2.4
308.15	1000	764.5	2.4
308.15	5000	768.2	2.4
308.15	10000	772.6	2.4
308.15	15000	776.8	2.4
308.15	20000	780.8	2.4
308.15	25000	784.6	2.4
308.15	30000	788.3	2.4
308.15	35000	791.8	2.4
308.15	40000	795.2	2.4
318.15	100	754	2.4
318.15	1000	755	2.4
318.15	5000	759	2.4
318.15	10000	763.7	2.4
318.15	15000	767.9	2.4
318.15	20000	772.4	2.4
318.15	25000	776.4	2.4
318.15	30000	780.3	2.4
318.15	35000	784.1	2.4
318.15	40000	787.7	2.4
318.15	45000	791.1	2.4
318.15	50000	794.4	2.4
328.15	100	744.4	2.4
328.15	1000	745.4	2.4
328.15	5000	749.7	2.4
328.15	10000	754.7	2.4
328.15	15000	759.5	2.4
328.15	20000	764	2.4
328.15	25000	768.2	2.4
328.15	30000	772.3	2.4
328.15	35000	776.1	2.4
328.15	40000	779.9	2.4
328.15	45000	783.5	2.4
328.15	50000	787	2.4
338.15	100	734.5	2.4
338.15	1000	735.6	2.4
338.15	5000	740.2	2.4
338.15	10000	745.7	2.4
338.15	15000	750.7	2.4
338.15	20000	755.5	2.4
338.15	25000	760	2.4
338.15	30000	764.3	2.4
338.15	35000	768.4	2.4
338.15	40000	772.3	2.4
338.15	45000	776	2.4
338.15	50000	779.7	2.5
338.15	55000	783.2	2.5
348.15	100	724.6	2.4
348.15	1000	725.7	2.4
348.15	5000	730.8	2.4
348.15	10000	736.5	2.4
348.15	15000	741.9	2.4
348.15	20000	747	2.4
348.15	25000	751.7	2.4
348.15	30000	756.2	2.4
348.15	35000	760.5	2.4
348.15	40000	764.6	2.4
348.15	45000	768.6	2.4
348.15	50000	772.3	2.5
348.15	55000	776	2.5
358.15	100	714.3	2.4
358.15	1000	715.6	2.4
358.15	5000	720.9	2.4
358.15	10000	727.2	2.4
358.15	15000	732.9	2.4
358.15	20000	738.3	2.4
358.15	25000	743.3	2.4
358.15	30000	748.1	2.4
358.15	35000	752.6	2.4
358.15	40000	757	2.4
358.15	45000	761.1	2.5
358.15	50000	765	2.5
358.15	55000	768.9	2.5

System: methyl benzoate + hexan-1-ol; phases: Liquid
Property: Mass density, kg/m3 (Liquid); method: Vibrating tube method
Mole fraction of methyl benzoate	Temperature, K	Pressure, kPa	Mass density, kg/m3	uncertainty
0.1004	278.15	100	856.6	2.4
0.1004	278.15	1000	857.1	2.4
0.1004	278.15	5000	859.7	2.4
0.1004	278.15	10000	862.7	2.4
0.1004	278.15	15000	865.6	2.4
0.1004	278.15	20000	868.5	2.4
0.1004	278.15	25000	871.2	2.4
0.1004	278.15	30000	873.8	2.4
0.1004	278.15	35000	876.5	2.4
0.1004	278.15	40000	879	2.4
0.1004	278.15	45000	881.5	2.4
0.1004	278.15	50000	883.9	2.4
0.1004	278.15	55000	886.3	2.4
0.1004	278.15	60000	888.4	2.4
0.1004	288.15	100	849.1	2.4
0.1004	288.15	1000	849.7	2.4
0.1004	288.15	5000	852.3	2.4
0.1004	288.15	10000	855.5	2.4
0.1004	288.15	15000	858.5	2.4
0.1004	288.15	20000	861.5	2.4
0.1004	288.15	25000	864.3	2.4
0.1004	288.15	30000	867.1	2.4
0.1004	288.15	35000	869.8	2.4
0.1004	288.15	40000	872.4	2.4
0.1004	288.15	45000	875	2.4
0.1004	288.15	50000	877.5	2.4
0.1004	288.15	55000	879.9	2.4
0.1004	288.15	60000	882.3	2.4
0.1004	298.15	100	841.5	2.4
0.1004	298.15	1000	842.2	2.4
0.1004	298.15	5000	844.9	2.4
0.1004	298.15	10000	848.3	2.4
0.1004	298.15	15000	851.5	2.4
0.1004	298.15	20000	854.5	2.4
0.1004	298.15	25000	857.5	2.4
0.1004	298.15	30000	860.4	2.4
0.1004	298.15	35000	863.2	2.4
0.1004	298.15	40000	865.9	2.4
0.1004	298.15	45000	868.6	2.4
0.1004	298.15	50000	871.1	2.4
0.1004	298.15	55000	873.7	2.4
0.1004	298.15	60000	876	2.4
0.1004	308.15	100	834	2.4
0.1004	308.15	1000	834.6	2.4
0.1004	308.15	5000	837.5	2.4
0.1004	308.15	10000	841	2.4
0.1004	308.15	15000	844.3	2.4
0.1004	308.15	20000	847.5	2.4
0.1004	308.15	25000	850.6	2.4
0.1004	308.15	30000	853.6	2.4
0.1004	308.15	35000	856.5	2.4
0.1004	308.15	40000	859.3	2.4
0.1004	308.15	45000	862.1	2.4
0.1004	308.15	50000	864.7	2.4
0.1004	308.15	55000	867.4	2.4
0.1004	308.15	60000	869.7	2.4
0.1004	318.15	100	826.4	2.4
0.1004	318.15	1000	827.1	2.4
0.1004	318.15	5000	830.1	2.4
0.1004	318.15	10000	833.8	2.4
0.1004	318.15	15000	837.2	2.4
0.1004	318.15	20000	840.6	2.4
0.1004	318.15	25000	843.8	2.4
0.1004	318.15	30000	846.9	2.4
0.1004	318.15	35000	849.9	2.4
0.1004	318.15	40000	852.8	2.4
0.1004	318.15	45000	855.7	2.4
0.1004	318.15	50000	858.4	2.4
0.1004	318.15	55000	861.1	2.4
0.1004	318.15	60000	863.6	2.4
0.1004	328.15	100	818.7	2.4
0.1004	328.15	1000	819.4	2.4
0.1004	328.15	5000	822.6	2.4
0.1004	328.15	10000	826.4	2.4
0.1004	328.15	15000	830	2.4
0.1004	328.15	20000	833.5	2.4
0.1004	328.15	25000	836.9	2.4
0.1004	328.15	30000	840.1	2.4
0.1004	328.15	35000	843.3	2.4
0.1004	328.15	40000	846.3	2.4
0.1004	328.15	45000	849.2	2.4
0.1004	328.15	50000	852.1	2.4
0.1004	328.15	55000	854.9	2.4
0.1004	328.15	60000	857.4	2.4
0.1004	338.15	100	810.7	2.4
0.1004	338.15	1000	811.4	2.4
0.1004	338.15	5000	814.9	2.4
0.1004	338.15	10000	818.9	2.4
0.1004	338.15	15000	822.7	2.4
0.1004	338.15	20000	826.4	2.4
0.1004	338.15	25000	829.9	2.4
0.1004	338.15	30000	833.3	2.4
0.1004	338.15	35000	836.5	2.4
0.1004	338.15	40000	839.7	2.4
0.1004	338.15	45000	842.7	2.4
0.1004	338.15	50000	845.7	2.4
0.1004	338.15	55000	848.6	2.4
0.1004	338.15	60000	851.4	2.4
0.1004	348.15	100	802.6	2.4
0.1004	348.15	1000	803.3	2.4
0.1004	348.15	5000	807	2.4
0.1004	348.15	10000	811.2	2.4
0.1004	348.15	15000	815.2	2.4
0.1004	348.15	20000	819	2.4
0.1004	348.15	25000	822.7	2.4
0.1004	348.15	30000	826.2	2.4
0.1004	348.15	35000	829.6	2.4
0.1004	348.15	40000	832.9	2.4
0.1004	348.15	45000	836.1	2.4
0.1004	348.15	50000	839.1	2.4
0.1004	348.15	55000	842.1	2.4
0.1004	348.15	60000	844.9	2.4
0.1004	358.15	100	794.1	2.4
0.1004	358.15	1000	795	2.4
0.1004	358.15	5000	798.7	2.4
0.1004	358.15	10000	803.1	2.4
0.1004	358.15	15000	807.4	2.4
0.1004	358.15	20000	811.4	2.4
0.1004	358.15	25000	815.3	2.4
0.1004	358.15	30000	818.9	2.4
0.1004	358.15	35000	822.4	2.4
0.1004	358.15	40000	825.9	2.4
0.1004	358.15	45000	829.2	2.4
0.1004	358.15	50000	832.4	2.4
0.1004	358.15	55000	835.5	2.4
0.1004	358.15	60000	838.5	2.4
0.2007	278.15	100	883.8	2.4
0.2007	278.15	1000	884.4	2.4
0.2007	278.15	5000	886.9	2.4
0.2007	278.15	10000	889.9	2.4
0.2007	278.15	15000	892.8	2.4
0.2007	278.15	20000	895.6	2.4
0.2007	278.15	25000	898.3	2.4
0.2007	278.15	30000	901	2.4
0.2007	278.15	35000	903.6	2.4
0.2007	278.15	40000	906.1	2.4
0.2007	278.15	45000	908.6	2.4
0.2007	278.15	50000	911.1	2.4
0.2007	278.15	55000	913.4	2.4
0.2007	278.15	60000	915.6	2.4
0.2007	288.15	100	876	2.4
0.2007	288.15	1000	876.6	2.4
0.2007	288.15	5000	879.2	2.4
0.2007	288.15	10000	882.4	2.4
0.2007	288.15	15000	885.5	2.4
0.2007	288.15	20000	888.4	2.4
0.2007	288.15	25000	891.2	2.4
0.2007	288.15	30000	894	2.4
0.2007	288.15	35000	896.7	2.4
0.2007	288.15	40000	899.3	2.4
0.2007	288.15	45000	901.8	2.4
0.2007	288.15	50000	904.4	2.4
0.2007	288.15	55000	906.8	2.4
0.2007	288.15	60000	909.2	2.4
0.2007	298.15	100	868.2	2.4
0.2007	298.15	1000	868.8	2.4
0.2007	298.15	5000	871.6	2.4
0.2007	298.15	10000	874.9	2.4
0.2007	298.15	15000	878	2.4
0.2007	298.15	20000	881.1	2.4
0.2007	298.15	25000	884.1	2.4
0.2007	298.15	30000	886.9	2.4
0.2007	298.15	35000	889.7	2.4
0.2007	298.15	40000	892.5	2.4
0.2007	298.15	45000	895.1	2.4
0.2007	298.15	50000	897.7	2.4
0.2007	298.15	55000	900.2	2.4
0.2007	298.15	60000	902.5	2.4
0.2007	308.15	100	860.4	2.4
0.2007	308.15	1000	861.1	2.4
0.2007	308.15	5000	864	2.4
0.2007	308.15	10000	867.4	2.4
0.2007	308.15	15000	870.7	2.4
0.2007	308.15	20000	873.9	2.4
0.2007	308.15	25000	877	2.4
0.2007	308.15	30000	879.9	2.4
0.2007	308.15	35000	882.8	2.4
0.2007	308.15	40000	885.7	2.4
0.2007	308.15	45000	888.4	2.4
0.2007	308.15	50000	891.1	2.4
0.2007	308.15	55000	893.7	2.4
0.2007	308.15	60000	896.1	2.4
0.2007	318.15	100	852.5	2.4
0.2007	318.15	1000	853.1	2.4
0.2007	318.15	5000	856.2	2.4
0.2007	318.15	10000	859.7	2.4
0.2007	318.15	15000	863.2	2.4
0.2007	318.15	20000	866.6	2.4
0.2007	318.15	25000	869.8	2.4
0.2007	318.15	30000	872.9	2.4
0.2007	318.15	35000	875.9	2.4
0.2007	318.15	40000	878.8	2.4
0.2007	318.15	45000	881.7	2.4
0.2007	318.15	50000	884.5	2.4
0.2007	318.15	55000	887.2	2.4
0.2007	318.15	60000	889.6	2.4
0.2007	328.15	100	844.4	2.4
0.2007	328.15	1000	845.1	2.4
0.2007	328.15	5000	848.3	2.4
0.2007	328.15	10000	852.1	2.4
0.2007	328.15	15000	855.7	2.4
0.2007	328.15	20000	859.2	2.4
0.2007	328.15	25000	862.6	2.4
0.2007	328.15	30000	865.8	2.4
0.2007	328.15	35000	869	2.4
0.2007	328.15	40000	872	2.4
0.2007	328.15	45000	874.9	2.4
0.2007	328.15	50000	877.8	2.4
0.2007	328.15	55000	880.6	2.4
0.2007	328.15	60000	883.2	2.4
0.2007	338.15	100	836.2	2.4
0.2007	338.15	1000	837	2.4
0.2007	338.15	5000	840.4	2.4
0.2007	338.15	10000	844.3	2.4
0.2007	338.15	15000	848.2	2.4
0.2007	338.15	20000	851.8	2.4
0.2007	338.15	25000	855.3	2.4
0.2007	338.15	30000	858.7	2.4
0.2007	338.15	35000	862	2.4
0.2007	338.15	40000	865.1	2.4
0.2007	338.15	45000	868.2	2.4
0.2007	338.15	50000	871.2	2.4
0.2007	338.15	55000	874.1	2.4
0.2007	338.15	60000	876.8	2.4
0.2007	348.15	100	827.8	2.4
0.2007	348.15	1000	828.6	2.4
0.2007	348.15	5000	832.2	2.4
0.2007	348.15	10000	836.4	2.4
0.2007	348.15	15000	840.4	2.4
0.2007	348.15	20000	844.2	2.4
0.2007	348.15	25000	847.9	2.4
0.2007	348.15	30000	851.4	2.4
0.2007	348.15	35000	854.8	2.4
0.2007	348.15	40000	858.1	2.4
0.2007	348.15	45000	861.3	2.4
0.2007	348.15	50000	864.4	2.4
0.2007	348.15	55000	867.4	2.4
0.2007	348.15	60000	870.2	2.4
0.2007	358.15	100	819.1	2.4
0.2007	358.15	1000	820	2.4
0.2007	358.15	5000	823.7	2.4
0.2007	358.15	10000	828.2	2.4
0.2007	358.15	15000	832.4	2.4
0.2007	358.15	20000	836.4	2.4
0.2007	358.15	25000	840.3	2.4
0.2007	358.15	30000	844	2.4
0.2007	358.15	35000	847.6	2.4
0.2007	358.15	40000	851	2.4
0.2007	358.15	45000	854.3	2.4
0.2007	358.15	50000	857.5	2.4
0.2007	358.15	55000	860.7	2.4
0.2007	358.15	60000	863.5	2.4
0.3007	278.15	100	911.4	2.4
0.3007	278.15	1000	911.9	2.4
0.3007	278.15	5000	914.4	2.4
0.3007	278.15	10000	917.3	2.4
0.3007	278.15	15000	920.3	2.4
0.3007	278.15	20000	923.1	2.4
0.3007	278.15	25000	925.8	2.4
0.3007	278.15	30000	928.4	2.4
0.3007	278.15	35000	931	2.4
0.3007	278.15	40000	933.6	2.4
0.3007	278.15	45000	936	2.4
0.3007	278.15	50000	938.5	2.4
0.3007	278.15	55000	940.8	2.4
0.3007	278.15	60000	943	2.4
0.3007	288.15	100	903.2	2.4
0.3007	288.15	1000	903.8	2.4
0.3007	288.15	5000	906.4	2.4
0.3007	288.15	10000	909.5	2.4
0.3007	288.15	15000	912.6	2.4
0.3007	288.15	20000	915.5	2.4
0.3007	288.15	25000	918.3	2.4
0.3007	288.15	30000	921.1	2.4
0.3007	288.15	35000	923.8	2.4
0.3007	288.15	40000	926.4	2.4
0.3007	288.15	45000	929	2.4
0.3007	288.15	50000	931.5	2.4
0.3007	288.15	55000	933.9	2.4
0.3007	288.15	60000	936.2	2.4
0.3007	298.15	100	895.1	2.4
0.3007	298.15	1000	895.7	2.4
0.3007	298.15	5000	898.4	2.4
0.3007	298.15	10000	901.7	2.4
0.3007	298.15	15000	904.9	2.4
0.3007	298.15	20000	907.9	2.4
0.3007	298.15	25000	910.9	2.4
0.3007	298.15	30000	913.8	2.4
0.3007	298.15	35000	916.6	2.4
0.3007	298.15	40000	919.3	2.4
0.3007	298.15	45000	921.9	2.4
0.3007	298.15	50000	924.5	2.4
0.3007	298.15	55000	927.1	2.4
0.3007	298.15	60000	929.4	2.4
0.3007	308.15	100	886.9	2.4
0.3007	308.15	1000	887.5	2.4
0.3007	308.15	5000	890.4	2.4
0.3007	308.15	10000	893.8	2.4
0.3007	308.15	15000	897.1	2.4
0.3007	308.15	20000	900.3	2.4
0.3007	308.15	25000	903.4	2.4
0.3007	308.15	30000	906.4	2.4
0.3007	308.15	35000	909.3	2.4
0.3007	308.15	40000	912.1	2.4
0.3007	308.15	45000	914.9	2.4
0.3007	308.15	50000	917.6	2.4
0.3007	308.15	55000	920.2	2.4
0.3007	308.15	60000	922.6	2.4
0.3007	318.15	100	878.7	2.4
0.3007	318.15	1000	879.4	2.4
0.3007	318.15	5000	882.4	2.4
0.3007	318.15	10000	886	2.4
0.3007	318.15	15000	889.4	2.4
0.3007	318.15	20000	892.8	2.4
0.3007	318.15	25000	896	2.4
0.3007	318.15	30000	899.1	2.4
0.3007	318.15	35000	902.1	2.4
0.3007	318.15	40000	905.1	2.4
0.3007	318.15	45000	907.9	2.4
0.3007	318.15	50000	910.7	2.4
0.3007	318.15	55000	913.4	2.4
0.3007	318.15	60000	915.9	2.4
0.3007	328.15	100	870.4	2.4
0.3007	328.15	1000	871.1	2.4
0.3007	328.15	5000	874.3	2.4
0.3007	328.15	10000	878.1	2.4
0.3007	328.15	15000	881.7	2.4
0.3007	328.15	20000	885.2	2.4
0.3007	328.15	25000	888.6	2.4
0.3007	328.15	30000	891.8	2.4
0.3007	328.15	35000	895	2.4
0.3007	328.15	40000	898	2.4
0.3007	328.15	45000	901	2.4
0.3007	328.15	50000	903.9	2.4
0.3007	328.15	55000	906.7	2.4
0.3007	328.15	60000	908.8	2.4
0.3007	338.15	100	862	2.4
0.3007	338.15	1000	862.7	2.4
0.3007	338.15	5000	866.1	2.4
0.3007	338.15	10000	870.1	2.4
0.3007	338.15	15000	873.8	2.4
0.3007	338.15	20000	877.5	2.4
0.3007	338.15	25000	881	2.4
0.3007	338.15	30000	884.4	2.4
0.3007	338.15	35000	887.7	2.4
0.3007	338.15	40000	890.9	2.4
0.3007	338.15	45000	894	2.4
0.3007	338.15	50000	897	2.4
0.3007	338.15	55000	899.9	2.4
0.3007	338.15	60000	902.8	2.4
0.3007	348.15	100	853.4	2.4
0.3007	348.15	1000	854.2	2.4
0.3007	348.15	5000	857.7	2.4
0.3007	348.15	10000	861.9	2.4
0.3007	348.15	15000	865.9	2.4
0.3007	348.15	20000	869.7	2.4
0.3007	348.15	25000	873.4	2.4
0.3007	348.15	30000	877	2.4
0.3007	348.15	35000	880.4	2.4
0.3007	348.15	40000	883.7	2.4
0.3007	348.15	45000	886.9	2.4
0.3007	348.15	50000	890	2.4
0.3007	348.15	55000	893	2.4
0.3007	348.15	60000	895.8	2.4
0.3007	358.15	100	844.4	2.4
0.3007	358.15	1000	845.3	2.4
0.3007	358.15	5000	849	2.4
0.3007	358.15	10000	853.5	2.4
0.3007	358.15	15000	857.7	2.4
0.3007	358.15	20000	861.7	2.4
0.3007	358.15	25000	865.6	2.4
0.3007	358.15	30000	869.3	2.4
0.3007	358.15	35000	872.8	2.4
0.3007	358.15	40000	876.3	2.4
0.3007	358.15	45000	879.6	2.4
0.3007	358.15	50000	882.9	2.4
0.3007	358.15	55000	886	2.4
0.3007	358.15	60000	889.1	2.4
0.4013	278.15	100	938.8	2.4
0.4013	278.15	1000	939.4	2.4
0.4013	278.15	5000	941.8	2.4
0.4013	278.15	10000	944.8	2.4
0.4013	278.15	15000	947.6	2.4
0.4013	278.15	20000	950.4	2.4
0.4013	278.15	25000	953.1	2.4
0.4013	278.15	30000	955.8	2.4
0.4013	278.15	35000	958.3	2.4
0.4013	278.15	40000	960.9	2.4
0.4013	278.15	45000	963.3	2.4
0.4013	278.15	50000	965.8	2.4
0.4013	278.15	55000	968.1	2.4
0.4013	278.15	60000	970.3	2.4
0.4013	288.15	100	930.4	2.4
0.4013	288.15	1000	931	2.4
0.4013	288.15	5000	933.6	2.4
0.4013	288.15	10000	936.7	2.4
0.4013	288.15	15000	939.7	2.4
0.4013	288.15	20000	942.6	2.4
0.4013	288.15	25000	945.4	2.4
0.4013	288.15	30000	948.2	2.4
0.4013	288.15	35000	950.9	2.4
0.4013	288.15	40000	953.5	2.4
0.4013	288.15	45000	956	2.4
0.4013	288.15	50000	958.5	2.4
0.4013	288.15	55000	961	2.4
0.4013	288.15	60000	963.2	2.4
0.4013	298.15	100	922	2.4
0.4013	298.15	1000	922.6	2.4
0.4013	298.15	5000	925.3	2.4
0.4013	298.15	10000	928.5	2.4
0.4013	298.15	15000	931.7	2.4
0.4013	298.15	20000	934.7	2.4
0.4013	298.15	25000	937.7	2.4
0.4013	298.15	30000	940.5	2.4
0.4013	298.15	35000	943.3	2.4
0.4013	298.15	40000	946.1	2.4
0.4013	298.15	45000	948.7	2.4
0.4013	298.15	50000	951.3	2.4
0.4013	298.15	55000	953.9	2.4
0.4013	298.15	60000	956.2	2.4
0.4013	308.15	100	913.6	2.4
0.4013	308.15	1000	914.2	2.4
0.4013	308.15	5000	917.1	2.4
0.4013	308.15	10000	920.5	2.4
0.4013	308.15	15000	923.7	2.4
0.4013	308.15	20000	926.9	2.4
0.4013	308.15	25000	930	2.4
0.4013	308.15	30000	933	2.4
0.4013	308.15	35000	935.9	2.4
0.4013	308.15	40000	938.7	2.4
0.4013	308.15	45000	941.5	2.4
0.4013	308.15	50000	944.1	2.4
0.4013	308.15	55000	946.8	2.4
0.4013	308.15	60000	949.4	2.4
0.4013	318.15	100	905.1	2.4
0.4013	318.15	1000	905.8	2.4
0.4013	318.15	5000	908.7	2.4
0.4013	318.15	10000	912.3	2.4
0.4013	318.15	15000	915.8	2.4
0.4013	318.15	20000	919.1	2.4
0.4013	318.15	25000	922.3	2.4
0.4013	318.15	30000	925.4	2.4
0.4013	318.15	35000	928.4	2.4
0.4013	318.15	40000	931.4	2.4
0.4013	318.15	45000	934.3	2.4
0.4013	318.15	50000	937.1	2.4
0.4013	318.15	55000	939.8	2.4
0.4013	318.15	60000	942.3	2.4
0.4013	328.15	100	896.7	2.4
0.4013	328.15	1000	897.4	2.4
0.4013	328.15	5000	900.5	2.4
0.4013	328.15	10000	904.3	2.4
0.4013	328.15	15000	907.8	2.4
0.4013	328.15	20000	911.3	2.4
0.4013	328.15	25000	914.6	2.4
0.4013	328.15	30000	917.9	2.4
0.4013	328.15	35000	921.1	2.4
0.4013	328.15	40000	924.1	2.4
0.4013	328.15	45000	927.1	2.4
0.4013	328.15	50000	930	2.4
0.4013	328.15	55000	932.8	2.4
0.4013	328.15	60000	935.6	2.4
0.4013	338.15	100	888	2.4
0.4013	338.15	1000	888.7	2.4
0.4013	338.15	5000	892	2.4
0.4013	338.15	10000	896	2.4
0.4013	338.15	15000	899.7	2.4
0.4013	338.15	20000	903.4	2.4
0.4013	338.15	25000	906.9	2.4
0.4013	338.15	30000	910.3	2.4
0.4013	338.15	35000	913.6	2.4
0.4013	338.15	40000	916.8	2.4
0.4013	338.15	45000	919.9	2.4
0.4013	338.15	50000	922.9	2.4
0.4013	338.15	55000	925.8	2.4
0.4013	338.15	60000	928.7	2.4
0.4013	348.15	100	879.1	2.4
0.4013	348.15	1000	879.9	2.4
0.4013	348.15	5000	883.4	2.4
0.4013	348.15	10000	887.6	2.4
0.4013	348.15	15000	891.4	2.4
0.4013	348.15	20000	895.4	2.4
0.4013	348.15	25000	899.1	2.4
0.4013	348.15	30000	902.6	2.4
0.4013	348.15	35000	906	2.4
0.4013	348.15	40000	909.3	2.4
0.4013	348.15	45000	912.5	2.4
0.4013	348.15	50000	915.7	2.4
0.4013	348.15	55000	918.7	2.4
0.4013	348.15	60000	921.5	2.4
0.4013	358.15	100	869.9	2.4
0.4013	358.15	1000	870.8	2.4
0.4013	358.15	5000	874.5	2.4
0.4013	358.15	10000	878.9	2.4
0.4013	358.15	15000	883.1	2.4
0.4013	358.15	20000	887.1	2.4
0.4013	358.15	25000	891	2.4
0.4013	358.15	30000	894.7	2.4
0.4013	358.15	35000	898.3	2.4
0.4013	358.15	40000	901.7	2.4
0.4013	358.15	45000	905.1	2.4
0.4013	358.15	50000	908.3	2.4
0.4013	358.15	55000	911.5	2.4
0.4013	358.15	60000	914.4	2.4
0.5005	278.15	100	966	2.4
0.5005	278.15	1000	966.5	2.4
0.5005	278.15	5000	968.9	2.4
0.5005	278.15	10000	971.9	2.4
0.5005	278.15	15000	974.7	2.4
0.5005	278.15	20000	977.5	2.4
0.5005	278.15	25000	980.2	2.4
0.5005	278.15	30000	982.8	2.4
0.5005	278.15	35000	985.4	2.4
0.5005	278.15	40000	987.9	2.4
0.5005	278.15	45000	990.4	2.4
0.5005	278.15	50000	992.8	2.4
0.5005	278.15	55000	995.2	2.4
0.5005	278.15	60000	997.3	2.4
0.5005	288.15	100	957.3	2.4
0.5005	288.15	1000	957.9	2.4
0.5005	288.15	5000	960.4	2.4
0.5005	288.15	10000	963.5	2.4
0.5005	288.15	15000	966.5	2.4
0.5005	288.15	20000	969.4	2.4
0.5005	288.15	25000	972.2	2.4
0.5005	288.15	30000	975	2.4
0.5005	288.15	35000	977.7	2.4
0.5005	288.15	40000	980.2	2.4
0.5005	288.15	45000	982.8	2.4
0.5005	288.15	50000	985.3	2.4
0.5005	288.15	55000	987.8	2.4
0.5005	288.15	60000	990	2.4
0.5005	298.15	100	948.6	2.4
0.5005	298.15	1000	949.2	2.4
0.5005	298.15	5000	951.9	2.4
0.5005	298.15	10000	955.1	2.4
0.5005	298.15	15000	958.3	2.4
0.5005	298.15	20000	961.3	2.4
0.5005	298.15	25000	964.2	2.4
0.5005	298.15	30000	967.1	2.4
0.5005	298.15	35000	969.9	2.4
0.5005	298.15	40000	972.6	2.4
0.5005	298.15	45000	975.3	2.4
0.5005	298.15	50000	977.8	2.4
0.5005	298.15	55000	980.4	2.4
0.5005	298.15	60000	982.7	2.4
0.5005	308.15	100	939.9	2.4
0.5005	308.15	1000	940.6	2.4
0.5005	308.15	5000	943.4	2.4
0.5005	308.15	10000	946.8	2.4
0.5005	308.15	15000	950	2.4
0.5005	308.15	20000	953.2	2.4
0.5005	308.15	25000	956.3	2.4
0.5005	308.15	30000	959.3	2.4
0.5005	308.15	35000	962.1	2.4
0.5005	308.15	40000	965	2.4
0.5005	308.15	45000	967.8	2.4
0.5005	308.15	50000	970.5	2.4
0.5005	308.15	55000	973.1	2.4
0.5005	308.15	60000	975.5	2.4
0.5005	318.15	100	931.2	2.4
0.5005	318.15	1000	931.9	2.4
0.5005	318.15	5000	934.8	2.4
0.5005	318.15	10000	938.4	2.4
0.5005	318.15	15000	941.8	2.4
0.5005	318.15	20000	945.2	2.4
0.5005	318.15	25000	948.4	2.4
0.5005	318.15	30000	951.5	2.4
0.5005	318.15	35000	954.5	2.4
0.5005	318.15	40000	957.4	2.4
0.5005	318.15	45000	960.3	2.4
0.5005	318.15	50000	963.1	2.4
0.5005	318.15	55000	965.8	2.4
0.5005	318.15	60000	968.3	2.4
0.5005	328.15	100	922.5	2.4
0.5005	328.15	1000	923.2	2.4
0.5005	328.15	5000	926	2.4
0.5005	328.15	10000	930.1	2.4
0.5005	328.15	15000	933.7	2.4
0.5005	328.15	20000	937.2	2.4
0.5005	328.15	25000	940.5	2.4
0.5005	328.15	30000	943.7	2.4
0.5005	328.15	35000	946.9	2.4
0.5005	328.15	40000	950	2.4
0.5005	328.15	45000	952.9	2.4
0.5005	328.15	50000	955.8	2.4
0.5005	328.15	55000	958.7	2.4
0.5005	328.15	60000	960.6	2.4
0.5005	338.15	100	913.7	2.4
0.5005	338.15	1000	914.4	2.4
0.5005	338.15	5000	917.7	2.4
0.5005	338.15	10000	921.6	2.4
0.5005	338.15	15000	925.4	2.4
0.5005	338.15	20000	929.1	2.4
0.5005	338.15	25000	932.5	2.4
0.5005	338.15	30000	935.9	2.4
0.5005	338.15	35000	939.2	2.4
0.5005	338.15	40000	942.4	2.4
0.5005	338.15	45000	945.5	2.4
0.5005	338.15	50000	948.5	2.4
0.5005	338.15	55000	951.4	2.4
0.5005	338.15	60000	954.3	2.4
0.5005	348.15	100	904.6	2.4
0.5005	348.15	1000	905.4	2.4
0.5005	348.15	5000	908.8	2.4
0.5005	348.15	10000	913	2.4
0.5005	348.15	15000	917	2.4
0.5005	348.15	20000	920.8	2.4
0.5005	348.15	25000	924.5	2.4
0.5005	348.15	30000	928	2.4
0.5005	348.15	35000	931.4	2.4
0.5005	348.15	40000	934.7	2.4
0.5005	348.15	45000	938	2.4
0.5005	348.15	50000	941.1	2.4
0.5005	348.15	55000	944.2	2.4
0.5005	348.15	60000	947	2.4
0.5005	358.15	100	895.3	2.4
0.5005	358.15	1000	896.1	2.4
0.5005	358.15	5000	899.8	2.4
0.5005	358.15	10000	904.2	2.4
0.5005	358.15	15000	908.4	2.4
0.5005	358.15	20000	912.3	2.4
0.5005	358.15	25000	916.2	2.4
0.5005	358.15	30000	919.9	2.4
0.5005	358.15	35000	923.5	2.4
0.5005	358.15	40000	926.9	2.4
0.5005	358.15	45000	930.3	2.4
0.5005	358.15	50000	933.6	2.4
0.5005	358.15	55000	936.7	2.4
0.5005	358.15	60000	939.8	2.4
0.6009	278.15	100	993.4	2.4
0.6009	278.15	1000	993.9	2.4
0.6009	278.15	5000	996.3	2.4
0.6009	278.15	10000	999.2	2.4
0.6009	278.15	15000	1002	2.4
0.6009	278.15	20000	1004.7	2.4
0.6009	278.15	25000	1007.4	2.4
0.6009	278.15	30000	1010	2.4
0.6009	278.15	35000	1012.6	2.4
0.6009	278.15	40000	1015.1	2.4
0.6009	278.15	45000	1017.6	2.4
0.6009	278.15	50000	1020	2.4
0.6009	278.15	55000	1022.3	2.4
0.6009	278.15	60000	1024.5	2.4
0.6009	288.15	100	984.4	2.4
0.6009	288.15	1000	985	2.4
0.6009	288.15	5000	987.5	2.4
0.6009	288.15	10000	990.6	2.4
0.6009	288.15	15000	993.6	2.4
0.6009	288.15	20000	996.4	2.4
0.6009	288.15	25000	999.3	2.4
0.6009	288.15	30000	1002	2.4
0.6009	288.15	35000	1004.6	2.4
0.6009	288.15	40000	1007.2	2.4
0.6009	288.15	45000	1009.8	2.4
0.6009	288.15	50000	1012.3	2.4
0.6009	288.15	55000	1014.7	2.4
0.6009	288.15	60000	1017	2.4
0.6009	298.15	100	975.5	2.4
0.6009	298.15	1000	976.1	2.4
0.6009	298.15	5000	978.8	2.4
0.6009	298.15	10000	982	2.4
0.6009	298.15	15000	985.1	2.4
0.6009	298.15	20000	988.1	2.4
0.6009	298.15	25000	991	2.4
0.6009	298.15	30000	993.9	2.4
0.6009	298.15	35000	996.6	2.4
0.6009	298.15	40000	999.3	2.4
0.6009	298.15	45000	1002	2.4
0.6009	298.15	50000	1004.6	2.4
0.6009	298.15	55000	1007.2	2.4
0.6009	298.15	60000	1009.5	2.4
0.6009	308.15	100	966.6	2.4
0.6009	308.15	1000	967.2	2.4
0.6009	308.15	5000	970	2.4
0.6009	308.15	10000	973.4	2.4
0.6009	308.15	15000	976.6	2.4
0.6009	308.15	20000	979.8	2.4
0.6009	308.15	25000	982.9	2.4
0.6009	308.15	30000	985.9	2.4
0.6009	308.15	35000	988.8	2.4
0.6009	308.15	40000	991.6	2.4
0.6009	308.15	45000	994.3	2.4
0.6009	308.15	50000	997.1	2.4
0.6009	308.15	55000	999.7	2.4
0.6009	308.15	60000	1002.1	2.4
0.6009	318.15	100	957.7	2.4
0.6009	318.15	1000	958.4	2.4
0.6009	318.15	5000	961.3	2.4
0.6009	318.15	10000	964.9	2.4
0.6009	318.15	15000	968.2	2.4
0.6009	318.15	20000	971.5	2.4
0.6009	318.15	25000	974.6	2.4
0.6009	318.15	30000	977.9	2.4
0.6009	318.15	35000	980.9	2.4
0.6009	318.15	40000	983.8	2.4
0.6009	318.15	45000	986.7	2.4
0.6009	318.15	50000	989.5	2.4
0.6009	318.15	55000	992.2	2.4
0.6009	318.15	60000	994.9	2.4
0.6009	328.15	100	948.8	2.4
0.6009	328.15	1000	949.5	2.4
0.6009	328.15	5000	952.6	2.4
0.6009	328.15	10000	956.3	2.4
0.6009	328.15	15000	959.9	2.4
0.6009	328.15	20000	963.3	2.4
0.6009	328.15	25000	966.6	2.4
0.6009	328.15	30000	969.9	2.4
0.6009	328.15	35000	973	2.4
0.6009	328.15	40000	976	2.4
0.6009	328.15	45000	979	2.4
0.6009	328.15	50000	981.9	2.4
0.6009	328.15	55000	984.8	2.4
0.6009	328.15	60000	987.4	2.4
0.6009	338.15	100	939.7	2.4
0.6009	338.15	1000	940.4	2.4
0.6009	338.15	5000	943.7	2.4
0.6009	338.15	10000	947.6	2.4
0.6009	338.15	15000	951.4	2.4
0.6009	338.15	20000	955	2.4
0.6009	338.15	25000	958.5	2.4
0.6009	338.15	30000	961.8	2.4
0.6009	338.15	35000	965.1	2.4
0.6009	338.15	40000	968.3	2.4
0.6009	338.15	45000	971.4	2.4
0.6009	338.15	50000	974.4	2.4
0.6009	338.15	55000	977.4	2.4
0.6009	338.15	60000	980.1	2.4
0.6009	348.15	100	930.4	2.4
0.6009	348.15	1000	931.3	2.4
0.6009	348.15	5000	934.7	2.4
0.6009	348.15	10000	938.8	2.4
0.6009	348.15	15000	942.8	2.4
0.6009	348.15	20000	946.6	2.4
0.6009	348.15	25000	950.2	2.4
0.6009	348.15	30000	953.8	2.4
0.6009	348.15	35000	957.2	2.4
0.6009	348.15	40000	960.5	2.4
0.6009	348.15	45000	963.7	2.4
0.6009	348.15	50000	966.9	2.4
0.6009	348.15	55000	969.9	2.4
0.6009	348.15	60000	972.8	2.4
0.6009	358.15	100	921	2.4
0.6009	358.15	1000	921.7	2.4
0.6009	358.15	5000	925.5	2.4
0.6009	358.15	10000	929.9	2.4
0.6009	358.15	15000	934	2.4
0.6009	358.15	20000	938	2.4
0.6009	358.15	25000	941.8	2.4
0.6009	358.15	30000	945.5	2.4
0.6009	358.15	35000	949.1	2.4
0.6009	358.15	40000	952.6	2.4
0.6009	358.15	45000	956	2.4
0.6009	358.15	50000	959.3	2.4
0.6009	358.15	55000	962.4	2.4
0.6009	358.15	60000	965.3	2.4
0.7	278.15	100	1020.3	2.4
0.7	278.15	1000	1020.8	2.4
0.7	278.15	5000	1023.2	2.4
0.7	278.15	10000	1026	2.4
0.7	278.15	15000	1028.9	2.4
0.7	278.15	20000	1031.6	2.4
0.7	278.15	25000	1034.2	2.4
0.7	278.15	30000	1036.8	2.4
0.7	278.15	35000	1039.4	2.4
0.7	278.15	40000	1041.9	2.4
0.7	278.15	45000	1044.3	2.4
0.7	278.15	50000	1046.7	2.4
0.7	278.15	55000	1049.1	2.4
0.7	278.15	60000	1051.4	2.4
0.7	288.15	100	1011.1	2.4
0.7	288.15	1000	1011.7	2.4
0.7	288.15	5000	1014.2	2.4
0.7	288.15	10000	1017.2	2.4
0.7	288.15	15000	1020.2	2.4
0.7	288.15	20000	1023	2.4
0.7	288.15	25000	1025.8	2.4
0.7	288.15	30000	1028.5	2.4
0.7	288.15	35000	1031.2	2.4
0.7	288.15	40000	1033.8	2.4
0.7	288.15	45000	1036.3	2.4
0.7	288.15	50000	1038.8	2.4
0.7	288.15	55000	1041.3	2.4
0.7	288.15	60000	1043.7	2.4
0.7	298.15	100	1002	2.4
0.7	298.15	1000	1002.6	2.4
0.7	298.15	5000	1005.3	2.4
0.7	298.15	10000	1008.4	2.4
0.7	298.15	15000	1011.5	2.4
0.7	298.15	20000	1014.5	2.4
0.7	298.15	25000	1017.4	2.4
0.7	298.15	30000	1020.3	2.4
0.7	298.15	35000	1023	2.4
0.7	298.15	40000	1025.7	2.4
0.7	298.15	45000	1028.4	2.4
0.7	298.15	50000	1031	2.4
0.7	298.15	55000	1033.5	2.4
0.7	298.15	60000	1035.9	2.4
0.7	308.15	100	993	2.4
0.7	308.15	1000	993.7	2.4
0.7	308.15	5000	996.4	2.4
0.7	308.15	10000	999.7	2.4
0.7	308.15	15000	1003	2.4
0.7	308.15	20000	1006.1	2.4
0.7	308.15	25000	1009.1	2.4
0.7	308.15	30000	1012.1	2.4
0.7	308.15	35000	1014.9	2.4
0.7	308.15	40000	1017.7	2.4
0.7	308.15	45000	1020.5	2.4
0.7	308.15	50000	1023.2	2.4
0.7	308.15	55000	1025.8	2.4
0.7	308.15	60000	1028.2	2.4
0.7	318.15	100	983.9	2.4
0.7	318.15	1000	984.6	2.4
0.7	318.15	5000	987.5	2.4
0.7	318.15	10000	991	2.4
0.7	318.15	15000	994.3	2.4
0.7	318.15	20000	997.6	2.4
0.7	318.15	25000	1000.8	2.4
0.7	318.15	30000	1003.9	2.4
0.7	318.15	35000	1006.9	2.4
0.7	318.15	40000	1009.8	2.4
0.7	318.15	45000	1012.7	2.4
0.7	318.15	50000	1015.5	2.4
0.7	318.15	55000	1018.2	2.4
0.7	318.15	60000	1020.7	2.4
0.7	328.15	100	974.9	2.4
0.7	328.15	1000	975.6	2.4
0.7	328.15	5000	978.6	2.4
0.7	328.15	10000	982.2	2.4
0.7	328.15	15000	985.8	2.4
0.7	328.15	20000	989.2	2.4
0.7	328.15	25000	992.5	2.4
0.7	328.15	30000	995.7	2.4
0.7	328.15	35000	998.9	2.4
0.7	328.15	40000	1001.9	2.4
0.7	328.15	45000	1004.9	2.4
0.7	328.15	50000	1007.8	2.4
0.7	328.15	55000	1010.7	2.4
0.7	328.15	60000	1013.3	2.4
0.7	338.15	100	965.6	2.4
0.7	338.15	1000	966.3	2.4
0.7	338.15	5000	969.5	2.4
0.7	338.15	10000	973.4	2.4
0.7	338.15	15000	977.2	2.4
0.7	338.15	20000	980.7	2.4
0.7	338.15	25000	984.2	2.4
0.7	338.15	30000	987.5	2.4
0.7	338.15	35000	990.8	2.4
0.7	338.15	40000	994	2.4
0.7	338.15	45000	997.1	2.4
0.7	338.15	50000	1000.1	2.4
0.7	338.15	55000	1003.1	2.4
0.7	338.15	60000	1005.8	2.4
0.7	348.15	100	956.1	2.4
0.7	348.15	1000	956.9	2.4
0.7	348.15	5000	960.3	2.4
0.7	348.15	10000	964.4	2.4
0.7	348.15	15000	968.4	2.4
0.7	348.15	20000	972.1	2.4
0.7	348.15	25000	975.8	2.4
0.7	348.15	30000	979.3	2.4
0.7	348.15	35000	982.7	2.4
0.7	348.15	40000	986	2.4
0.7	348.15	45000	989.3	2.4
0.7	348.15	50000	992.4	2.4
0.7	348.15	55000	995.5	2.4
0.7	348.15	60000	998.2	2.4
0.7	358.15	100	946.6	2.4
0.7	358.15	1000	947.4	2.4
0.7	358.15	5000	951	2.4
0.7	358.15	10000	955.3	2.4
0.7	358.15	15000	959.5	2.4
0.7	358.15	20000	963.4	2.4
0.7	358.15	25000	967.3	2.4
0.7	358.15	30000	970.9	2.4
0.7	358.15	35000	974.5	2.4
0.7	358.15	40000	978	2.4
0.7	358.15	45000	981.3	2.4
0.7	358.15	50000	984.6	2.4
0.7	358.15	55000	987.8	2.4
0.7	358.15	60000	990.7	2.4
0.8008	278.15	100	1047.7	2.4
0.8008	278.15	1000	1048.2	2.4
0.8008	278.15	5000	1050.6	2.4
0.8008	278.15	10000	1053.4	2.4
0.8008	278.15	15000	1056.3	2.4
0.8008	278.15	20000	1059	2.4
0.8008	278.15	25000	1061.6	2.4
0.8008	278.15	30000	1064.2	2.4
0.8008	278.15	35000	1066.7	2.4
0.8008	278.15	40000	1069.2	2.4
0.8008	278.15	45000	1071.7	2.4
0.8008	278.15	50000	1074	2.4
0.8008	278.15	55000	1076.4	2.4
0.8008	278.15	60000	1078.7	2.4
0.8008	288.15	100	1038.4	2.4
0.8008	288.15	1000	1039	2.4
0.8008	288.15	5000	1041.4	2.4
0.8008	288.15	10000	1044.5	2.4
0.8008	288.15	15000	1047.4	2.4
0.8008	288.15	20000	1050.2	2.4
0.8008	288.15	25000	1053	2.4
0.8008	288.15	30000	1055.7	2.4
0.8008	288.15	35000	1058.3	2.4
0.8008	288.15	40000	1060.9	2.4
0.8008	288.15	45000	1063.4	2.4
0.8008	288.15	50000	1065.9	2.4
0.8008	288.15	55000	1068.3	2.4
0.8008	288.15	60000	1070.6	2.4
0.8008	298.15	100	1029.1	2.4
0.8008	298.15	1000	1029.7	2.4
0.8008	298.15	5000	1032.3	2.4
0.8008	298.15	10000	1035.4	2.4
0.8008	298.15	15000	1038.5	2.4
0.8008	298.15	20000	1041.5	2.4
0.8008	298.15	25000	1044.4	2.4
0.8008	298.15	30000	1047.2	2.4
0.8008	298.15	35000	1049.9	2.4
0.8008	298.15	40000	1052.6	2.4
0.8008	298.15	45000	1055.3	2.4
0.8008	298.15	50000	1057.9	2.4
0.8008	298.15	55000	1060.4	2.4
0.8008	298.15	60000	1062.7	2.4
0.8008	308.15	100	1019.9	2.4
0.8008	308.15	1000	1020.5	2.4
0.8008	308.15	5000	1023.2	2.4
0.8008	308.15	10000	1026.5	2.4
0.8008	308.15	15000	1029.7	2.4
0.8008	308.15	20000	1032.8	2.4
0.8008	308.15	25000	1035.8	2.4
0.8008	308.15	30000	1038.8	2.4
0.8008	308.15	35000	1041.7	2.4
0.8008	308.15	40000	1044.5	2.4
0.8008	308.15	45000	1047.2	2.4
0.8008	308.15	50000	1049.9	2.4
0.8008	308.15	55000	1052.5	2.4
0.8008	308.15	60000	1055	2.4
0.8008	318.15	100	1010.7	2.4
0.8008	318.15	1000	1011.3	2.4
0.8008	318.15	5000	1014.2	2.4
0.8008	318.15	10000	1017.6	2.4
0.8008	318.15	15000	1021	2.4
0.8008	318.15	20000	1024.3	2.4
0.8008	318.15	25000	1027.4	2.4
0.8008	318.15	30000	1030.5	2.4
0.8008	318.15	35000	1033.5	2.4
0.8008	318.15	40000	1036.4	2.4
0.8008	318.15	45000	1039.3	2.4
0.8008	318.15	50000	1042.1	2.4
0.8008	318.15	55000	1044.6	2.4
0.8008	318.15	60000	1047.2	2.4
0.8008	328.15	100	1001.4	2.4
0.8008	328.15	1000	1002.1	2.4
0.8008	328.15	5000	1005.1	2.4
0.8008	328.15	10000	1008.7	2.4
0.8008	328.15	15000	1012.3	2.4
0.8008	328.15	20000	1015.7	2.4
0.8008	328.15	25000	1019	2.4
0.8008	328.15	30000	1022.2	2.4
0.8008	328.15	35000	1025.3	2.4
0.8008	328.15	40000	1028.3	2.4
0.8008	328.15	45000	1031.3	2.4
0.8008	328.15	50000	1034.2	2.4
0.8008	328.15	55000	1037.1	2.4
0.8008	328.15	60000	1039.6	2.4
0.8008	338.15	100	992	2.4
0.8008	338.15	1000	992.7	2.4
0.8008	338.15	5000	996	2.4
0.8008	338.15	10000	999.7	2.4
0.8008	338.15	15000	1003.4	2.4
0.8008	338.15	20000	1007	2.4
0.8008	338.15	25000	1010.5	2.4
0.8008	338.15	30000	1013.8	2.4
0.8008	338.15	35000	1017.1	2.4
0.8008	338.15	40000	1020.2	2.4
0.8008	338.15	45000	1023.3	2.4
0.8008	338.15	50000	1026.4	2.4
0.8008	338.15	55000	1029.3	2.4
0.8008	338.15	60000	1032	2.4
0.8008	348.15	100	982.5	2.4
0.8008	348.15	1000	983.2	2.4
0.8008	348.15	5000	986.6	2.4
0.8008	348.15	10000	990.7	2.4
0.8008	348.15	15000	994.6	2.4
0.8008	348.15	20000	998.3	2.4
0.8008	348.15	25000	1001.9	2.4
0.8008	348.15	30000	1005.4	2.4
0.8008	348.15	35000	1008.9	2.4
0.8008	348.15	40000	1012.2	2.4
0.8008	348.15	45000	1015.4	2.4
0.8008	348.15	50000	1018.5	2.4
0.8008	348.15	55000	1021.6	2.4
0.8008	348.15	60000	1024.6	2.4
0.8008	358.15	100	972.8	2.4
0.8008	358.15	1000	973.6	2.4
0.8008	358.15	5000	977.2	2.4
0.8008	358.15	10000	981.4	2.4
0.8008	358.15	15000	985.5	2.4
0.8008	358.15	20000	989.5	2.4
0.8008	358.15	25000	993.3	2.4
0.8008	358.15	30000	996.9	2.4
0.8008	358.15	35000	1000.5	2.4
0.8008	358.15	40000	1003.9	2.4
0.8008	358.15	45000	1007.3	2.4
0.8008	358.15	50000	1010.6	2.4
0.8008	358.15	55000	1013.7	2.4
0.8008	358.15	60000	1016.9	2.4
0.9009	278.15	100	1075.1	2.4
0.9009	278.15	1000	1075.5	2.4
0.9009	278.15	5000	1077.9	2.4
0.9009	278.15	10000	1080.7	2.4
0.9009	278.15	15000	1083.5	2.4
0.9009	278.15	20000	1086.2	2.4
0.9009	278.15	25000	1088.7	2.4
0.9009	278.15	30000	1091.3	2.4
0.9009	278.15	35000	1093.8	2.4
0.9009	278.15	40000	1096.3	2.4
0.9009	278.15	45000	1098.7	2.4
0.9009	278.15	50000	1101.1	2.4
0.9009	278.15	55000	1103.5	2.4
0.9009	278.15	60000	1105.6	2.4
0.9009	288.15	100	1065.5	2.4
0.9009	288.15	1000	1066	2.4
0.9009	288.15	5000	1068.5	2.4
0.9009	288.15	10000	1071.5	2.4
0.9009	288.15	15000	1074.4	2.4
0.9009	288.15	20000	1077.2	2.4
0.9009	288.15	25000	1080	2.4
0.9009	288.15	30000	1082.6	2.4
0.9009	288.15	35000	1085.2	2.4
0.9009	288.15	40000	1087.8	2.4
0.9009	288.15	45000	1090.3	2.4
0.9009	288.15	50000	1092.8	2.4
0.9009	288.15	55000	1095.2	2.4
0.9009	288.15	60000	1097.5	2.4
0.9009	298.15	100	1056	2.4
0.9009	298.15	1000	1056.6	2.4
0.9009	298.15	5000	1059.2	2.4
0.9009	298.15	10000	1062.3	2.4
0.9009	298.15	15000	1065.3	2.4
0.9009	298.15	20000	1068.3	2.4
0.9009	298.15	25000	1071.2	2.4
0.9009	298.15	30000	1074	2.4
0.9009	298.15	35000	1076.7	2.4
0.9009	298.15	40000	1079.4	2.4
0.9009	298.15	45000	1082	2.4
0.9009	298.15	50000	1084.6	2.4
0.9009	298.15	55000	1087.1	2.4
0.9009	298.15	60000	1089	2.4
0.9009	308.15	100	1046.6	2.4
0.9009	308.15	1000	1047.2	2.4
0.9009	308.15	5000	1049.9	2.4
0.9009	308.15	10000	1053.1	2.4
0.9009	308.15	15000	1056.4	2.4
0.9009	308.15	20000	1059.4	2.4
0.9009	308.15	25000	1062.5	2.4
0.9009	308.15	30000	1065.3	2.4
0.9009	308.15	35000	1068.2	2.4
0.9009	308.15	40000	1071	2.4
0.9009	308.15	45000	1073.7	2.4
0.9009	308.15	50000	1076.4	2.4
0.9009	308.15	55000	1079.1	2.4
0.9009	308.15	60000	1081.5	2.4
0.9009	318.15	100	1037.2	2.4
0.9009	318.15	1000	1037.8	2.4
0.9009	318.15	5000	1040.7	2.4
0.9009	318.15	10000	1044.1	2.4
0.9009	318.15	15000	1047.4	2.4
0.9009	318.15	20000	1050.6	2.4
0.9009	318.15	25000	1053.8	2.4
0.9009	318.15	30000	1056.8	2.4
0.9009	318.15	35000	1059.8	2.4
0.9009	318.15	40000	1062.7	2.4
0.9009	318.15	45000	1065.6	2.4
0.9009	318.15	50000	1068.4	2.4
0.9009	318.15	55000	1071.1	2.4
0.9009	318.15	60000	1073.6	2.4
0.9009	328.15	100	1027.8	2.4
0.9009	328.15	1000	1028.5	2.4
0.9009	328.15	5000	1031.5	2.4
0.9009	328.15	10000	1035.1	2.4
0.9009	328.15	15000	1038.6	2.4
0.9009	328.15	20000	1042	2.4
0.9009	328.15	25000	1045.3	2.4
0.9009	328.15	30000	1048.5	2.4
0.9009	328.15	35000	1051.6	2.4
0.9009	328.15	40000	1054.6	2.4
0.9009	328.15	45000	1057.6	2.4
0.9009	328.15	50000	1060.5	2.4
0.9009	328.15	55000	1063.3	2.4
0.9009	328.15	60000	1066.1	2.4
0.9009	338.15	100	1018.4	2.4
0.9009	338.15	1000	1019.1	2.4
0.9009	338.15	5000	1022.3	2.4
0.9009	338.15	10000	1026	2.4
0.9009	338.15	15000	1029.7	2.4
0.9009	338.15	20000	1033.3	2.4
0.9009	338.15	25000	1036.7	2.4
0.9009	338.15	30000	1040	2.4
0.9009	338.15	35000	1043.3	2.4
0.9009	338.15	40000	1046.4	2.4
0.9009	338.15	45000	1049.5	2.4
0.9009	338.15	50000	1052.5	2.4
0.9009	338.15	55000	1055.5	2.4
0.9009	338.15	60000	1058.2	2.4
0.9009	348.15	100	1008.8	2.4
0.9009	348.15	1000	1009.5	2.4
0.9009	348.15	5000	1012.9	2.4
0.9009	348.15	10000	1016.9	2.4
0.9009	348.15	15000	1020.7	2.4
0.9009	348.15	20000	1024.4	2.4
0.9009	348.15	25000	1028	2.4
0.9009	348.15	30000	1031.5	2.4
0.9009	348.15	35000	1034.9	2.4
0.9009	348.15	40000	1038.2	2.4
0.9009	348.15	45000	1041.4	2.4
0.9009	348.15	50000	1044.5	2.4
0.9009	348.15	55000	1047.6	2.4
0.9009	348.15	60000	1050.4	2.4
0.9009	358.15	100	999	2.4
0.9009	358.15	1000	999.8	2.4
0.9009	358.15	5000	1003.3	2.4
0.9009	358.15	10000	1007.5	2.4
0.9009	358.15	15000	1011.6	2.4
0.9009	358.15	20000	1015.5	2.4
0.9009	358.15	25000	1019.3	2.4
0.9009	358.15	30000	1022.9	2.4
0.9009	358.15	35000	1026.5	2.4
0.9009	358.15	40000	1029.9	2.4
0.9009	358.15	45000	1033.2	2.4
0.9009	358.15	50000	1036.5	2.4
0.9009	358.15	55000	1039.7	2.4
0.9009	358.15	60000	1042.6	2.4

System: methyl benzoate + cyclohexane; phases: Liquid
Property: Mass density, kg/m3 (Liquid); method: Vibrating tube method
Mole fraction of methyl benzoate	Temperature, K	Pressure, kPa	Mass density, kg/m3	uncertainty
0.0985	278.15	100	823.9	2.4
0.0985	278.15	1000	824.5	2.4
0.0985	278.15	5000	827.6	2.4
0.0985	278.15	10000	831.2	2.4
0.0985	278.15	15000	834.6	2.4
0.0985	278.15	20000	838	2.4
0.0985	278.15	25000	841.2	2.4
0.0985	278.15	30000	844.4	2.4
0.0985	278.15	35000	847.4	2.4
0.0985	278.15	40000	850.5	2.4
0.0985	288.15	100	814.3	2.4
0.0985	288.15	1000	815	2.4
0.0985	288.15	5000	818.2	2.4
0.0985	288.15	10000	822	2.4
0.0985	288.15	15000	825.8	2.4
0.0985	288.15	20000	829.2	2.4
0.0985	288.15	25000	832.7	2.4
0.0985	288.15	30000	836	2.4
0.0985	288.15	35000	839.1	2.4
0.0985	288.15	40000	842.2	2.4
0.0985	288.15	45000	845.2	2.4
0.0985	288.15	50000	848.1	2.4
0.0985	288.15	55000	850.9	2.4
0.0985	288.15	60000	853.5	2.4
0.0985	298.15	100	804.8	2.4
0.0985	298.15	1000	805.6	2.4
0.0985	298.15	5000	809	2.4
0.0985	298.15	10000	813.1	2.4
0.0985	298.15	15000	817.1	2.4
0.0985	298.15	20000	820.8	2.4
0.0985	298.15	25000	824.4	2.4
0.0985	298.15	30000	827.9	2.4
0.0985	298.15	35000	831.2	2.4
0.0985	298.15	40000	834.4	2.4
0.0985	298.15	45000	837.5	2.4
0.0985	298.15	50000	840.5	2.4
0.0985	298.15	55000	843.4	2.4
0.0985	298.15	60000	846.1	2.4
0.0985	308.15	100	795.4	2.4
0.0985	308.15	1000	796.2	2.4
0.0985	308.15	5000	799.8	2.4
0.0985	308.15	10000	804.3	2.4
0.0985	308.15	15000	808.3	2.4
0.0985	308.15	20000	812.3	2.4
0.0985	308.15	25000	816.1	2.4
0.0985	308.15	30000	819.7	2.4
0.0985	308.15	35000	823.2	2.4
0.0985	308.15	40000	826.5	2.4
0.0985	308.15	45000	829.8	2.4
0.0985	308.15	50000	833	2.4
0.0985	308.15	55000	836	2.4
0.0985	308.15	60000	838.8	2.4
0.0985	318.15	100	785.8	2.4
0.0985	318.15	1000	786.8	2.4
0.0985	318.15	5000	790.7	2.4
0.0985	318.15	10000	795.2	2.4
0.0985	318.15	15000	799.7	2.4
0.0985	318.15	20000	803.8	2.4
0.0985	318.15	25000	807.8	2.4
0.0985	318.15	30000	811.6	2.4
0.0985	318.15	35000	815.3	2.4
0.0985	318.15	40000	818.8	2.4
0.0985	318.15	45000	822.2	2.4
0.0985	318.15	50000	825.5	2.4
0.0985	318.15	55000	828.7	2.4
0.0985	318.15	60000	831.6	2.4
0.0985	328.15	100	776	2.4
0.0985	328.15	1000	777	2.4
0.0985	328.15	5000	781.2	2.4
0.0985	328.15	10000	786.2	2.4
0.0985	328.15	15000	790.7	2.4
0.0985	328.15	20000	795.2	2.4
0.0985	328.15	25000	799.4	2.4
0.0985	328.15	30000	803.4	2.4
0.0985	328.15	35000	807.3	2.4
0.0985	328.15	40000	811	2.4
0.0985	328.15	45000	814.6	2.4
0.0985	328.15	50000	818	2.4
0.0985	328.15	55000	821.3	2.4
0.0985	328.15	60000	824.3	2.4
0.0985	338.15	100	766.2	2.4
0.0985	338.15	1000	767.2	2.4
0.0985	338.15	5000	771.8	2.4
0.0985	338.15	10000	777	2.4
0.0985	338.15	15000	782	2.4
0.0985	338.15	20000	786.7	2.4
0.0985	338.15	25000	791.1	2.4
0.0985	338.15	30000	795.4	2.4
0.0985	338.15	35000	799.4	2.4
0.0985	338.15	40000	803.3	2.4
0.0985	338.15	45000	807	2.4
0.0985	338.15	50000	810.6	2.4
0.0985	338.15	55000	814.1	2.4
0.0985	338.15	60000	817.3	2.5
0.0985	348.15	100	756.3	2.4
0.0985	348.15	1000	757.4	2.4
0.0985	348.15	5000	762.1	2.4
0.0985	348.15	10000	767.9	2.4
0.0985	348.15	15000	773.1	2.4
0.0985	348.15	20000	778.1	2.4
0.0985	348.15	25000	782.8	2.4
0.0985	348.15	30000	787.2	2.4
0.0985	348.15	35000	791.5	2.4
0.0985	348.15	40000	795.5	2.4
0.0985	348.15	45000	799.5	2.4
0.0985	348.15	50000	803.2	2.4
0.0985	348.15	55000	806.8	2.4
0.0985	348.15	60000	810.1	2.5
0.0985	358.15	100	746	2.4
0.0985	358.15	1000	747.1	2.4
0.0985	358.15	5000	752.5	2.4
0.0985	358.15	10000	757.8	2.4
0.0985	358.15	15000	764.1	2.4
0.0985	358.15	20000	769.4	2.4
0.0985	358.15	25000	774.3	2.4
0.0985	358.15	30000	779	2.4
0.0985	358.15	35000	783.5	2.4
0.0985	358.15	40000	787.7	2.4
0.0985	358.15	45000	791.8	2.4
0.0985	358.15	50000	795.7	2.4
0.0985	358.15	55000	799.5	2.5
0.0985	358.15	60000	802.9	2.5
0.1963	278.15	100	855.7	2.4
0.1963	278.15	1000	856.4	2.4
0.1963	278.15	5000	859.3	2.4
0.1963	278.15	10000	863	2.4
0.1963	278.15	15000	866.3	2.4
0.1963	278.15	20000	869.6	2.4
0.1963	278.15	25000	872.8	2.4
0.1963	278.15	30000	875.9	2.4
0.1963	278.15	35000	878.9	2.4
0.1963	278.15	40000	881.8	2.4
0.1963	278.15	45000	884.6	2.4
0.1963	278.15	50000	887.4	2.4
0.1963	278.15	55000	890.1	2.4
0.1963	278.15	60000	892.6	2.4
0.1963	288.15	100	846.1	2.4
0.1963	288.15	1000	846.9	2.4
0.1963	288.15	5000	850	2.4
0.1963	288.15	10000	853.8	2.4
0.1963	288.15	15000	857.4	2.4
0.1963	288.15	20000	860.9	2.4
0.1963	288.15	25000	864.3	2.4
0.1963	288.15	30000	867.5	2.4
0.1963	288.15	35000	870.7	2.4
0.1963	288.15	40000	873.7	2.4
0.1963	288.15	45000	876.7	2.4
0.1963	288.15	50000	879.6	2.4
0.1963	288.15	55000	882.4	2.4
0.1963	288.15	60000	885	2.4
0.1963	298.15	100	836.5	2.4
0.1963	298.15	1000	837.3	2.4
0.1963	298.15	5000	840.7	2.4
0.1963	298.15	10000	844.7	2.4
0.1963	298.15	15000	848.6	2.4
0.1963	298.15	20000	852.2	2.4
0.1963	298.15	25000	855.8	2.4
0.1963	298.15	30000	859.2	2.4
0.1963	298.15	35000	862.5	2.4
0.1963	298.15	40000	865.7	2.4
0.1963	298.15	45000	868.8	2.4
0.1963	298.15	50000	871.8	2.4
0.1963	298.15	55000	874.7	2.4
0.1963	298.15	60000	877.3	2.4
0.1963	308.15	100	827	2.4
0.1963	308.15	1000	827.8	2.4
0.1963	308.15	5000	831.2	2.4
0.1963	308.15	10000	835.7	2.4
0.1963	308.15	15000	839.8	2.4
0.1963	308.15	20000	843.6	2.4
0.1963	308.15	25000	847.3	2.4
0.1963	308.15	30000	850.9	2.4
0.1963	308.15	35000	854.4	2.4
0.1963	308.15	40000	857.7	2.4
0.1963	308.15	45000	861	2.4
0.1963	308.15	50000	864.1	2.4
0.1963	308.15	55000	867.1	2.4
0.1963	308.15	60000	869.5	2.4
0.1963	318.15	100	817.4	2.4
0.1963	318.15	1000	818.3	2.4
0.1963	318.15	5000	822	2.4
0.1963	318.15	10000	826.6	2.4
0.1963	318.15	15000	830.9	2.4
0.1963	318.15	20000	835.1	2.4
0.1963	318.15	25000	839	2.4
0.1963	318.15	30000	842.8	2.4
0.1963	318.15	35000	846.3	2.4
0.1963	318.15	40000	849.9	2.4
0.1963	318.15	45000	853.2	2.4
0.1963	318.15	50000	856.5	2.4
0.1963	318.15	55000	859.7	2.4
0.1963	318.15	60000	862.5	2.4
0.1963	328.15	100	807.7	2.4
0.1963	328.15	1000	808.7	2.4
0.1963	328.15	5000	812.7	2.4
0.1963	328.15	10000	817.6	2.4
0.1963	328.15	15000	822.1	2.4
0.1963	328.15	20000	826.5	2.4
0.1963	328.15	25000	830.6	2.4
0.1963	328.15	30000	834.5	2.4
0.1963	328.15	35000	838.3	2.4
0.1963	328.15	40000	842	2.4
0.1963	328.15	45000	845.5	2.4
0.1963	328.15	50000	848.9	2.4
0.1963	328.15	55000	852.2	2.4
0.1963	328.15	60000	855.5	2.4
0.1963	338.15	100	798	2.4
0.1963	338.15	1000	799	2.4
0.1963	338.15	5000	803.4	2.4
0.1963	338.15	10000	808.5	2.4
0.1963	338.15	15000	813.3	2.4
0.1963	338.15	20000	817.9	2.4
0.1963	338.15	25000	822.3	2.4
0.1963	338.15	30000	826.4	2.4
0.1963	338.15	35000	830.4	2.4
0.1963	338.15	40000	834.2	2.4
0.1963	338.15	45000	837.9	2.4
0.1963	338.15	50000	841.5	2.4
0.1963	338.15	55000	844.9	2.4
0.1963	338.15	60000	848.1	2.4
0.1963	348.15	100	788.1	2.4
0.1963	348.15	1000	789.2	2.4
0.1963	348.15	5000	793.8	2.4
0.1963	348.15	10000	799.3	2.4
0.1963	348.15	15000	804.4	2.4
0.1963	348.15	20000	809.3	2.4
0.1963	348.15	25000	813.9	2.4
0.1963	348.15	30000	818.2	2.4
0.1963	348.15	35000	822.4	2.4
0.1963	348.15	40000	826.4	2.4
0.1963	348.15	45000	830.3	2.4
0.1963	348.15	50000	834	2.4
0.1963	348.15	55000	837.6	2.4
0.1963	348.15	60000	840.9	2.4
0.1963	358.15	100	778	2.4
0.1963	358.15	1000	779.1	2.4
0.1963	358.15	5000	784.2	2.4
0.1963	358.15	10000	790	2.4
0.1963	358.15	15000	795.5	2.4
0.1963	358.15	20000	800.6	2.4
0.1963	358.15	25000	805.5	2.4
0.1963	358.15	30000	810	2.4
0.1963	358.15	35000	814.4	2.4
0.1963	358.15	40000	818.6	2.4
0.1963	358.15	45000	822.6	2.4
0.1963	358.15	50000	826.5	2.4
0.1963	358.15	55000	830.2	2.4
0.1963	358.15	60000	832.8	2.4
0.2939	278.15	100	887.6	2.4
0.2939	278.15	1000	888.3	2.4
0.2939	278.15	5000	891.2	2.4
0.2939	278.15	10000	894.7	2.4
0.2939	278.15	15000	898	2.4
0.2939	278.15	20000	901.3	2.4
0.2939	278.15	25000	904.4	2.4
0.2939	278.15	30000	907.4	2.4
0.2939	278.15	35000	910.4	2.4
0.2939	278.15	40000	913.3	2.4
0.2939	278.15	45000	916.1	2.4
0.2939	278.15	50000	918.8	2.4
0.2939	278.15	55000	921.5	2.4
0.2939	278.15	60000	923.9	2.4
0.2939	288.15	100	878	2.4
0.2939	288.15	1000	878.7	2.4
0.2939	288.15	5000	881.8	2.4
0.2939	288.15	10000	885.5	2.4
0.2939	288.15	15000	889.1	2.4
0.2939	288.15	20000	892.5	2.4
0.2939	288.15	25000	895.8	2.4
0.2939	288.15	30000	899	2.4
0.2939	288.15	35000	902.1	2.4
0.2939	288.15	40000	905.1	2.4
0.2939	288.15	45000	908	2.4
0.2939	288.15	50000	910.9	2.4
0.2939	288.15	55000	913.6	2.4
0.2939	288.15	60000	916.2	2.4
0.2939	298.15	100	868.4	2.4
0.2939	298.15	1000	869.2	2.4
0.2939	298.15	5000	872.5	2.4
0.2939	298.15	10000	876.3	2.4
0.2939	298.15	15000	880.1	2.4
0.2939	298.15	20000	883.7	2.4
0.2939	298.15	25000	887.2	2.4
0.2939	298.15	30000	890.5	2.4
0.2939	298.15	35000	893.8	2.4
0.2939	298.15	40000	896.9	2.4
0.2939	298.15	45000	900	2.4
0.2939	298.15	50000	902.9	2.4
0.2939	298.15	55000	905.8	2.4
0.2939	298.15	60000	908.6	2.4
0.2939	308.15	100	858.8	2.4
0.2939	308.15	1000	859.6	2.4
0.2939	308.15	5000	863.1	2.4
0.2939	308.15	10000	867.2	2.4
0.2939	308.15	15000	871.2	2.4
0.2939	308.15	20000	875	2.4
0.2939	308.15	25000	878.7	2.4
0.2939	308.15	30000	882.2	2.4
0.2939	308.15	35000	885.6	2.4
0.2939	308.15	40000	888.9	2.4
0.2939	308.15	45000	892.1	2.4
0.2939	308.15	50000	895.1	2.4
0.2939	308.15	55000	898.2	2.4
0.2939	308.15	60000	900.9	2.4
0.2939	318.15	100	849.2	2.4
0.2939	318.15	1000	850.1	2.4
0.2939	318.15	5000	853.8	2.4
0.2939	318.15	10000	858.2	2.4
0.2939	318.15	15000	862.4	2.4
0.2939	318.15	20000	866.4	2.4
0.2939	318.15	25000	870.2	2.4
0.2939	318.15	30000	873.9	2.4
0.2939	318.15	35000	877.5	2.4
0.2939	318.15	40000	880.9	2.4
0.2939	318.15	45000	884.3	2.4
0.2939	318.15	50000	887.5	2.4
0.2939	318.15	55000	890.6	2.4
0.2939	318.15	60000	893.4	2.4
0.2939	328.15	100	839.6	2.4
0.2939	328.15	1000	840.5	2.4
0.2939	328.15	5000	844.5	2.4
0.2939	328.15	10000	849.2	2.4
0.2939	328.15	15000	853.6	2.4
0.2939	328.15	20000	857.8	2.4
0.2939	328.15	25000	861.8	2.4
0.2939	328.15	30000	865.7	2.4
0.2939	328.15	35000	869.4	2.4
0.2939	328.15	40000	873	2.4
0.2939	328.15	45000	876.5	2.4
0.2939	328.15	50000	879.8	2.4
0.2939	328.15	55000	883.1	2.4
0.2939	328.15	60000	886.1	2.4
0.2939	338.15	100	829.9	2.4
0.2939	338.15	1000	830.9	2.4
0.2939	338.15	5000	835.1	2.4
0.2939	338.15	10000	840	2.4
0.2939	338.15	15000	844.7	2.4
0.2939	338.15	20000	849.2	2.4
0.2939	338.15	25000	853.4	2.4
0.2939	338.15	30000	857.5	2.4
0.2939	338.15	35000	861.4	2.4
0.2939	338.15	40000	865.2	2.4
0.2939	338.15	45000	868.8	2.4
0.2939	338.15	50000	872.3	2.4
0.2939	338.15	55000	875.7	2.4
0.2939	338.15	60000	878.8	2.4
0.2939	348.15	100	820	2.4
0.2939	348.15	1000	820.9	2.4
0.2939	348.15	5000	825.6	2.4
0.2939	348.15	10000	830.9	2.4
0.2939	348.15	15000	835.8	2.4
0.2939	348.15	20000	840.5	2.4
0.2939	348.15	25000	845	2.4
0.2939	348.15	30000	849.3	2.4
0.2939	348.15	35000	853.4	2.4
0.2939	348.15	40000	857.3	2.4
0.2939	348.15	45000	861.1	2.4
0.2939	348.15	50000	864.7	2.4
0.2939	348.15	55000	868.3	2.4
0.2939	348.15	60000	871.4	2.4
0.2939	358.15	100	809.9	2.4
0.2939	358.15	1000	811	2.4
0.2939	358.15	5000	815.9	2.4
0.2939	358.15	10000	821.5	2.4
0.2939	358.15	15000	826.7	2.4
0.2939	358.15	20000	831.8	2.4
0.2939	358.15	25000	836.5	2.4
0.2939	358.15	30000	841	2.4
0.2939	358.15	35000	845.3	2.4
0.2939	358.15	40000	849.4	2.4
0.2939	358.15	45000	853.3	2.4
0.2939	358.15	50000	857.1	2.4
0.2939	358.15	55000	860.8	2.4
0.2939	358.15	60000	864.2	2.4
0.3942	278.15	100	919.6	2.4
0.3942	278.15	1000	920.2	2.4
0.3942	278.15	5000	923	2.4
0.3942	278.15	10000	926.4	2.4
0.3942	278.15	15000	929.7	2.4
0.3942	278.15	20000	932.8	2.4
0.3942	278.15	25000	935.9	2.4
0.3942	278.15	30000	938.9	2.4
0.3942	278.15	35000	941.8	2.4
0.3942	278.15	40000	944.6	2.4
0.3942	278.15	45000	947.4	2.4
0.3942	278.15	50000	950	2.4
0.3942	278.15	55000	952.7	2.4
0.3942	278.15	60000	955.1	2.4
0.3942	288.15	100	909.9	2.4
0.3942	288.15	1000	910.6	2.4
0.3942	288.15	5000	913.6	2.4
0.3942	288.15	10000	917.2	2.4
0.3942	288.15	15000	920.7	2.4
0.3942	288.15	20000	924	2.4
0.3942	288.15	25000	927.2	2.4
0.3942	288.15	30000	930.3	2.4
0.3942	288.15	35000	933.4	2.4
0.3942	288.15	40000	936.3	2.4
0.3942	288.15	45000	939.2	2.4
0.3942	288.15	50000	942	2.4
0.3942	288.15	55000	944.7	2.4
0.3942	288.15	60000	947.2	2.4
0.3942	298.15	100	900.3	2.4
0.3942	298.15	1000	901	2.4
0.3942	298.15	5000	904.2	2.4
0.3942	298.15	10000	908	2.4
0.3942	298.15	15000	911.7	2.4
0.3942	298.15	20000	915.2	2.4
0.3942	298.15	25000	918.6	2.4
0.3942	298.15	30000	921.9	2.4
0.3942	298.15	35000	925	2.4
0.3942	298.15	40000	928.1	2.4
0.3942	298.15	45000	931.1	2.4
0.3942	298.15	50000	934	2.4
0.3942	298.15	55000	936.9	2.4
0.3942	298.15	60000	939.5	2.4
0.3942	308.15	100	890.8	2.4
0.3942	308.15	1000	891.5	2.4
0.3942	308.15	5000	894.9	2.4
0.3942	308.15	10000	898.9	2.4
0.3942	308.15	15000	902.8	2.4
0.3942	308.15	20000	906.5	2.4
0.3942	308.15	25000	910	2.4
0.3942	308.15	30000	913.5	2.4
0.3942	308.15	35000	916.8	2.4
0.3942	308.15	40000	920	2.4
0.3942	308.15	45000	923.2	2.4
0.3942	308.15	50000	926.2	2.4
0.3942	308.15	55000	929.2	2.4
0.3942	308.15	60000	931.9	2.4
0.3942	318.15	100	881.3	2.4
0.3942	318.15	1000	882.1	2.4
0.3942	318.15	5000	885.7	2.4
0.3942	318.15	10000	889.9	2.4
0.3942	318.15	15000	893.9	2.4
0.3942	318.15	20000	897.8	2.4
0.3942	318.15	25000	901.5	2.4
0.3942	318.15	30000	905.1	2.4
0.3942	318.15	35000	908.6	2.4
0.3942	318.15	40000	912	2.4
0.3942	318.15	45000	915.2	2.4
0.3942	318.15	50000	918.4	2.4
0.3942	318.15	55000	921.5	2.4
0.3942	318.15	60000	924.3	2.4
0.3942	328.15	100	871.6	2.4
0.3942	328.15	1000	872.5	2.4
0.3942	328.15	5000	876.3	2.4
0.3942	328.15	10000	880.4	2.4
0.3942	328.15	15000	885.1	2.4
0.3942	328.15	20000	889.2	2.4
0.3942	328.15	25000	893.1	2.4
0.3942	328.15	30000	896.9	2.4
0.3942	328.15	35000	900.5	2.4
0.3942	328.15	40000	904.1	2.4
0.3942	328.15	45000	907.5	2.4
0.3942	328.15	50000	910.8	2.4
0.3942	328.15	55000	914	2.4
0.3942	328.15	60000	916.9	2.4
0.3942	338.15	100	861.9	2.4
0.3942	338.15	1000	862.8	2.4
0.3942	338.15	5000	866.9	2.4
0.3942	338.15	10000	871.6	2.4
0.3942	338.15	15000	876.2	2.4
0.3942	338.15	20000	880.5	2.4
0.3942	338.15	25000	884.6	2.4
0.3942	338.15	30000	888.6	2.4
0.3942	338.15	35000	892.4	2.4
0.3942	338.15	40000	896.1	2.4
0.3942	338.15	45000	899.6	2.4
0.3942	338.15	50000	903.1	2.4
0.3942	338.15	55000	906.4	2.4
0.3942	338.15	60000	909.7	2.4
0.3942	348.15	100	852.1	2.4
0.3942	348.15	1000	853	2.4
0.3942	348.15	5000	857.4	2.4
0.3942	348.15	10000	862.4	2.4
0.3942	348.15	15000	867.2	2.4
0.3942	348.15	20000	871.8	2.4
0.3942	348.15	25000	876.1	2.4
0.3942	348.15	30000	880.3	2.4
0.3942	348.15	35000	884.2	2.4
0.3942	348.15	40000	888.1	2.4
0.3942	348.15	45000	891.8	2.4
0.3942	348.15	50000	895.4	2.4
0.3942	348.15	55000	898.9	2.4
0.3942	348.15	60000	902.1	2.4
0.3942	358.15	100	842	2.4
0.3942	358.15	1000	843.1	2.4
0.3942	358.15	5000	847.7	2.4
0.3942	358.15	10000	853.1	2.4
0.3942	358.15	15000	858.2	2.4
0.3942	358.15	20000	863	2.4
0.3942	358.15	25000	867.6	2.4
0.3942	358.15	30000	871.8	2.4
0.3942	358.15	35000	876.1	2.4
0.3942	358.15	40000	880.1	2.4
0.3942	358.15	45000	884	2.4
0.3942	358.15	50000	887.8	2.4
0.3942	358.15	55000	891.4	2.4
0.3942	358.15	60000	894.6	2.4
0.4955	278.15	100	951.4	2.4
0.4955	278.15	1000	952	2.4
0.4955	278.15	5000	954.8	2.4
0.4955	278.15	10000	958	2.4
0.4955	278.15	15000	961.2	2.4
0.4955	278.15	20000	964.3	2.4
0.4955	278.15	25000	967.3	2.4
0.4955	278.15	30000	970.2	2.4
0.4955	278.15	35000	973	2.4
0.4955	278.15	40000	975.8	2.4
0.4955	278.15	45000	978.5	2.4
0.4955	278.15	50000	981.1	2.4
0.4955	278.15	55000	983.7	2.4
0.4955	278.15	60000	986.3	2.4
0.4955	288.15	100	941.8	2.4
0.4955	288.15	1000	942.4	2.4
0.4955	288.15	5000	945.3	2.4
0.4955	288.15	10000	948.8	2.4
0.4955	288.15	15000	952.2	2.4
0.4955	288.15	20000	955.4	2.4
0.4955	288.15	25000	958.6	2.4
0.4955	288.15	30000	961.6	2.4
0.4955	288.15	35000	964.6	2.4
0.4955	288.15	40000	967.5	2.4
0.4955	288.15	45000	970.3	2.4
0.4955	288.15	50000	973	2.4
0.4955	288.15	55000	975.7	2.4
0.4955	288.15	60000	978.2	2.4
0.4955	298.15	100	932.2	2.4
0.4955	298.15	1000	932.9	2.4
0.4955	298.15	5000	935.9	2.4
0.4955	298.15	10000	939.6	2.4
0.4955	298.15	15000	943.2	2.4
0.4955	298.15	20000	946.6	2.4
0.4955	298.15	25000	949.9	2.4
0.4955	298.15	30000	953.1	2.4
0.4955	298.15	35000	956.2	2.4
0.4955	298.15	40000	959.2	2.4
0.4955	298.15	45000	962.1	2.4
0.4955	298.15	50000	965	2.4
0.4955	298.15	55000	967.8	2.4
0.4955	298.15	60000	970.3	2.4
0.4955	308.15	100	922.6	2.4
0.4955	308.15	1000	923.4	2.4
0.4955	308.15	5000	926.6	2.4
0.4955	308.15	10000	930.5	2.4
0.4955	308.15	15000	934.2	2.4
0.4955	308.15	20000	937.8	2.4
0.4955	308.15	25000	941.3	2.4
0.4955	308.15	30000	944.6	2.4
0.4955	308.15	35000	947.9	2.4
0.4955	308.15	40000	951	2.4
0.4955	308.15	45000	954.1	2.4
0.4955	308.15	50000	957.1	2.4
0.4955	308.15	55000	960	2.4
0.4955	308.15	60000	962.7	2.4
0.4955	318.15	100	913.1	2.4
0.4955	318.15	1000	913.9	2.4
0.4955	318.15	5000	917.3	2.4
0.4955	318.15	10000	921.4	2.4
0.4955	318.15	15000	925.4	2.4
0.4955	318.15	20000	929.1	2.4
0.4955	318.15	25000	932.7	2.4
0.4955	318.15	30000	936.2	2.4
0.4955	318.15	35000	939.6	2.4
0.4955	318.15	40000	942.9	2.4
0.4955	318.15	45000	946.1	2.4
0.4955	318.15	50000	949.2	2.4
0.4955	318.15	55000	952.3	2.4
0.4955	318.15	60000	955.1	2.4
0.4955	328.15	100	903.6	2.4
0.4955	328.15	1000	904.4	2.4
0.4955	328.15	5000	908.1	2.4
0.4955	328.15	10000	912.3	2.4
0.4955	328.15	15000	916.5	2.4
0.4955	328.15	20000	920.5	2.4
0.4955	328.15	25000	924.3	2.4
0.4955	328.15	30000	928	2.4
0.4955	328.15	35000	931.5	2.4
0.4955	328.15	40000	935	2.4
0.4955	328.15	45000	938.3	2.4
0.4955	328.15	50000	941.5	2.4
0.4955	328.15	55000	944.7	2.4
0.4955	328.15	60000	947.6	2.4
0.4955	338.15	100	893.9	2.4
0.4955	338.15	1000	894.7	2.4
0.4955	338.15	5000	898.7	2.4
0.4955	338.15	10000	903.2	2.4
0.4955	338.15	15000	907.6	2.4
0.4955	338.15	20000	911.8	2.4
0.4955	338.15	25000	915.8	2.4
0.4955	338.15	30000	919.6	2.4
0.4955	338.15	35000	923.4	2.4
0.4955	338.15	40000	927	2.4
0.4955	338.15	45000	930.4	2.4
0.4955	338.15	50000	933.8	2.4
0.4955	338.15	55000	937.1	2.4
0.4955	338.15	60000	940.1	2.4
0.4955	348.15	100	884.1	2.4
0.4955	348.15	1000	885	2.4
0.4955	348.15	5000	889.1	2.4
0.4955	348.15	10000	894	2.4
0.4955	348.15	15000	898.6	2.4
0.4955	348.15	20000	903.1	2.4
0.4955	348.15	25000	907.3	2.4
0.4955	348.15	30000	911.3	2.4
0.4955	348.15	35000	915.2	2.4
0.4955	348.15	40000	918.9	2.4
0.4955	348.15	45000	922.6	2.4
0.4955	348.15	50000	926.1	2.4
0.4955	348.15	55000	929.5	2.4
0.4955	348.15	60000	932.6	2.4
0.4955	358.15	100	874.1	2.4
0.4955	358.15	1000	875.1	2.4
0.4955	358.15	5000	879.4	2.4
0.4955	358.15	10000	884.7	2.4
0.4955	358.15	15000	889.6	2.4
0.4955	358.15	20000	894.2	2.4
0.4955	358.15	25000	898.6	2.4
0.4955	358.15	30000	902.9	2.4
0.4955	358.15	35000	907	2.4
0.4955	358.15	40000	910.9	2.4
0.4955	358.15	45000	914.7	2.4
0.4955	358.15	50000	918.3	2.4
0.4955	358.15	55000	921.9	2.4
0.4955	358.15	60000	925.1	2.4
0.596	278.15	100	983.4	2.4
0.596	278.15	1000	984	2.4
0.596	278.15	5000	986.7	2.4
0.596	278.15	10000	989.9	2.4
0.596	278.15	15000	993	2.4
0.596	278.15	20000	996	2.4
0.596	278.15	25000	998.9	2.4
0.596	278.15	30000	1001.7	2.4
0.596	278.15	35000	1004.5	2.4
0.596	278.15	40000	1007.2	2.4
0.596	278.15	45000	1009.9	2.4
0.596	278.15	50000	1012.5	2.4
0.596	278.15	55000	1015	2.4
0.596	278.15	60000	1017.4	2.4
0.596	288.15	100	973.8	2.4
0.596	288.15	1000	974.5	2.4
0.596	288.15	5000	976.6	2.4
0.596	288.15	10000	980.7	2.4
0.596	288.15	15000	983.9	2.4
0.596	288.15	20000	987.1	2.4
0.596	288.15	25000	990.1	2.4
0.596	288.15	30000	993.1	2.4
0.596	288.15	35000	996	2.4
0.596	288.15	40000	998.8	2.4
0.596	288.15	45000	1001.6	2.4
0.596	288.15	50000	1004.3	2.4
0.596	288.15	55000	1006.9	2.4
0.596	288.15	60000	1009.3	2.4
0.596	298.15	100	964.2	2.4
0.596	298.15	1000	964.9	2.4
0.596	298.15	5000	967.9	2.4
0.596	298.15	10000	971.4	2.4
0.596	298.15	15000	974.8	2.4
0.596	298.15	20000	978.2	2.4
0.596	298.15	25000	981.4	2.4
0.596	298.15	30000	984.5	2.4
0.596	298.15	35000	987.5	2.4
0.596	298.15	40000	990.5	2.4
0.596	298.15	45000	993.4	2.4
0.596	298.15	50000	996.2	2.4
0.596	298.15	55000	999	2.4
0.596	298.15	60000	1001.4	2.4
0.596	308.15	100	954.7	2.4
0.596	308.15	1000	955.4	2.4
0.596	308.15	5000	958.5	2.4
0.596	308.15	10000	962.3	2.4
0.596	308.15	15000	965.9	2.4
0.596	308.15	20000	969.4	2.4
0.596	308.15	25000	972.8	2.4
0.596	308.15	30000	976	2.4
0.596	308.15	35000	979.2	2.4
0.596	308.15	40000	982.3	2.4
0.596	308.15	45000	985.3	2.4
0.596	308.15	50000	988.2	2.4
0.596	308.15	55000	991.1	2.4
0.596	308.15	60000	993.7	2.4
0.596	318.15	100	945.2	2.4
0.596	318.15	1000	945.9	2.4
0.596	318.15	5000	949.3	2.4
0.596	318.15	10000	953.2	2.4
0.596	318.15	15000	957	2.4
0.596	318.15	20000	960.7	2.4
0.596	318.15	25000	964.2	2.4
0.596	318.15	30000	967.6	2.4
0.596	318.15	35000	971	2.4
0.596	318.15	40000	974.2	2.4
0.596	318.15	45000	977.3	2.4
0.596	318.15	50000	980.3	2.4
0.596	318.15	55000	983.3	2.4
0.596	318.15	60000	986	2.4
0.596	328.15	100	935.6	2.4
0.596	328.15	1000	936.4	2.4
0.596	328.15	5000	939.9	2.4
0.596	328.15	10000	944.1	2.4
0.596	328.15	15000	948.1	2.4
0.596	328.15	20000	951.9	2.4
0.596	328.15	25000	955.6	2.4
0.596	328.15	30000	959.2	2.4
0.596	328.15	35000	962.7	2.4
0.596	328.15	40000	966	2.4
0.596	328.15	45000	969.3	2.4
0.596	328.15	50000	972.5	2.4
0.596	328.15	55000	975.6	2.4
0.596	328.15	60000	978.3	2.4
0.596	338.15	100	926	2.4
0.596	338.15	1000	926.8	2.4
0.596	338.15	5000	930.5	2.4
0.596	338.15	10000	934.9	2.4
0.596	338.15	15000	939.2	2.4
0.596	338.15	20000	943.2	2.4
0.596	338.15	25000	946.9	2.4
0.596	338.15	30000	950.8	2.4
0.596	338.15	35000	954.5	2.4
0.596	338.15	40000	958	2.4
0.596	338.15	45000	961.4	2.4
0.596	338.15	50000	964.7	2.4
0.596	338.15	55000	967.9	2.4
0.596	338.15	60000	971.1	2.4
0.596	348.15	100	916.3	2.4
0.596	348.15	1000	917.1	2.4
0.596	348.15	5000	921.1	2.4
0.596	348.15	10000	925.8	2.4
0.596	348.15	15000	930.2	2.4
0.596	348.15	20000	934.4	2.4
0.596	348.15	25000	938.5	2.4
0.596	348.15	30000	942.4	2.4
0.596	348.15	35000	946.2	2.4
0.596	348.15	40000	949.9	2.4
0.596	348.15	45000	953.4	2.4
0.596	348.15	50000	956.9	2.4
0.596	348.15	55000	960.2	2.4
0.596	348.15	60000	963.3	2.4
0.596	358.15	100	906.3	2.4
0.596	358.15	1000	907.3	2.4
0.596	358.15	5000	911.4	2.4
0.596	358.15	10000	916.4	2.4
0.596	358.15	15000	921.1	2.4
0.596	358.15	20000	925.6	2.4
0.596	358.15	25000	929.9	2.4
0.596	358.15	30000	934	2.4
0.596	358.15	35000	938	2.4
0.596	358.15	40000	941.8	2.4
0.596	358.15	45000	945.5	2.4
0.596	358.15	50000	949	2.4
0.596	358.15	55000	952.5	2.4
0.596	358.15	60000	955.7	2.4
0.6975	278.15	100	1014.3	2.4
0.6975	278.15	1000	1014.9	2.4
0.6975	278.15	5000	1017.4	2.4
0.6975	278.15	10000	1020.5	2.4
0.6975	278.15	15000	1023.5	2.4
0.6975	278.15	20000	1026.4	2.4
0.6975	278.15	25000	1029.3	2.4
0.6975	278.15	30000	1032	2.4
0.6975	278.15	35000	1034.7	2.4
0.6975	278.15	40000	1037.4	2.4
0.6975	278.15	45000	1040	2.4
0.6975	278.15	50000	1042.5	2.4
0.6975	278.15	55000	1045	2.4
0.6975	278.15	60000	1047.3	2.4
0.6975	288.15	100	1004.7	2.4
0.6975	288.15	1000	1005.3	2.4
0.6975	288.15	5000	1008	2.4
0.6975	288.15	10000	1011.3	2.4
0.6975	288.15	15000	1014.4	2.4
0.6975	288.15	20000	1017.5	2.4
0.6975	288.15	25000	1020.5	2.4
0.6975	288.15	30000	1023.4	2.4
0.6975	288.15	35000	1026.2	2.4
0.6975	288.15	40000	1028.9	2.4
0.6975	288.15	45000	1031.6	2.4
0.6975	288.15	50000	1034.3	2.4
0.6975	288.15	55000	1036.8	2.4
0.6975	288.15	60000	1039.2	2.4
0.6975	298.15	100	995.1	2.4
0.6975	298.15	1000	995.8	2.4
0.6975	298.15	5000	998.6	2.4
0.6975	298.15	10000	1002	2.4
0.6975	298.15	15000	1005.4	2.4
0.6975	298.15	20000	1008.5	2.4
0.6975	298.15	25000	1011.7	2.4
0.6975	298.15	30000	1014.7	2.4
0.6975	298.15	35000	1017.7	2.4
0.6975	298.15	40000	1020.5	2.4
0.6975	298.15	45000	1023.3	2.4
0.6975	298.15	50000	1026.1	2.4
0.6975	298.15	55000	1028.8	2.4
0.6975	298.15	60000	1031.3	2.4
0.6975	308.15	100	985.6	2.4
0.6975	308.15	1000	986.3	2.4
0.6975	308.15	5000	989.3	2.4
0.6975	308.15	10000	992.9	2.4
0.6975	308.15	15000	996.4	2.4
0.6975	308.15	20000	999.8	2.4
0.6975	308.15	25000	1003	2.4
0.6975	308.15	30000	1006.2	2.4
0.6975	308.15	35000	1009.3	2.4
0.6975	308.15	40000	1012.3	2.4
0.6975	308.15	45000	1015.2	2.4
0.6975	308.15	50000	1018.1	2.4
0.6975	308.15	55000	1020.9	2.4
0.6975	308.15	60000	1023.4	2.4
0.6975	318.15	100	976.1	2.4
0.6975	318.15	1000	976.8	2.4
0.6975	318.15	5000	980	2.4
0.6975	318.15	10000	983.8	2.4
0.6975	318.15	15000	987.5	2.4
0.6975	318.15	20000	991	2.4
0.6975	318.15	25000	994.4	2.4
0.6975	318.15	30000	997.8	2.4
0.6975	318.15	35000	1001	2.4
0.6975	318.15	40000	1004.1	2.4
0.6975	318.15	45000	1007.1	2.4
0.6975	318.15	50000	1010.1	2.4
0.6975	318.15	55000	1013	2.4
0.6975	318.15	60000	1015.7	2.4
0.6975	328.15	100	966.7	2.4
0.6975	328.15	1000	967.4	2.4
0.6975	328.15	5000	970.6	2.4
0.6975	328.15	10000	974.8	2.4
0.6975	328.15	15000	978.6	2.4
0.6975	328.15	20000	982.3	2.4
0.6975	328.15	25000	985.9	2.4
0.6975	328.15	30000	989.4	2.4
0.6975	328.15	35000	992.7	2.4
0.6975	328.15	40000	996	2.4
0.6975	328.15	45000	999.1	2.4
0.6975	328.15	50000	1002.2	2.4
0.6975	328.15	55000	1005.3	2.4
0.6975	328.15	60000	1008	2.4
0.6975	338.15	100	957	2.4
0.6975	338.15	1000	957.8	2.4
0.6975	338.15	5000	961.3	2.4
0.6975	338.15	10000	965.6	2.4
0.6975	338.15	15000	969.6	2.4
0.6975	338.15	20000	973.5	2.4
0.6975	338.15	25000	977.3	2.4
0.6975	338.15	30000	980.9	2.4
0.6975	338.15	35000	984.4	2.4
0.6975	338.15	40000	987.8	2.4
0.6975	338.15	45000	991.1	2.4
0.6975	338.15	50000	994.4	2.4
0.6975	338.15	55000	997.5	2.4
0.6975	338.15	60000	1000.4	2.4
0.6975	348.15	100	947.3	2.4
0.6975	348.15	1000	948.1	2.4
0.6975	348.15	5000	951.8	2.4
0.6975	348.15	10000	956.3	2.4
0.6975	348.15	15000	960.6	2.4
0.6975	348.15	20000	964.7	2.4
0.6975	348.15	25000	968.7	2.4
0.6975	348.15	30000	972.5	2.4
0.6975	348.15	35000	976.1	2.4
0.6975	348.15	40000	979.7	2.4
0.6975	348.15	45000	983.2	2.4
0.6975	348.15	50000	986.5	2.4
0.6975	348.15	55000	989.8	2.4
0.6975	348.15	60000	992.7	2.4
0.6975	358.15	100	937.3	2.4
0.6975	358.15	1000	938.3	2.4
0.6975	358.15	5000	942	2.4
0.6975	358.15	10000	947	2.4
0.6975	358.15	15000	951.4	2.4
0.6975	358.15	20000	955.8	2.4
0.6975	358.15	25000	960	2.4
0.6975	358.15	30000	963.9	2.4
0.6975	358.15	35000	967.8	2.4
0.6975	358.15	40000	971.5	2.4
0.6975	358.15	45000	975.1	2.4
0.6975	358.15	50000	978.6	2.4
0.6975	358.15	55000	982	2.4
0.6975	358.15	60000	985	2.4
0.7993	278.15	100	1043.9	2.4
0.7993	278.15	1000	1044.4	2.4
0.7993	278.15	5000	1046.9	2.4
0.7993	278.15	10000	1049.8	2.4
0.7993	278.15	15000	1052.8	2.4
0.7993	278.15	20000	1055.6	2.4
0.7993	278.15	25000	1058.3	2.4
0.7993	278.15	30000	1061	2.4
0.7993	278.15	35000	1063.6	2.4
0.7993	278.15	40000	1066.2	2.4
0.7993	278.15	45000	1068.7	2.4
0.7993	278.15	50000	1071.2	2.4
0.7993	278.15	55000	1073.7	2.4
0.7993	278.15	60000	1075.9	2.4
0.7993	288.15	100	1034.2	2.4
0.7993	288.15	1000	1034.8	2.4
0.7993	288.15	5000	1037.5	2.4
0.7993	288.15	10000	1040.6	2.4
0.7993	288.15	15000	1043.6	2.4
0.7993	288.15	20000	1046.6	2.4
0.7993	288.15	25000	1049.5	2.4
0.7993	288.15	30000	1052.3	2.4
0.7993	288.15	35000	1055	2.4
0.7993	288.15	40000	1057.7	2.4
0.7993	288.15	45000	1060.3	2.4
0.7993	288.15	50000	1062.9	2.4
0.7993	288.15	55000	1065.5	2.4
0.7993	288.15	60000	1067.8	2.4
0.7993	298.15	100	1024.7	2.4
0.7993	298.15	1000	1025.3	2.4
0.7993	298.15	5000	1028.1	2.4
0.7993	298.15	10000	1031.4	2.4
0.7993	298.15	15000	1034.6	2.4
0.7993	298.15	20000	1037.7	2.4
0.7993	298.15	25000	1040.7	2.4
0.7993	298.15	30000	1043.6	2.4
0.7993	298.15	35000	1046.5	2.4
0.7993	298.15	40000	1049.3	2.4
0.7993	298.15	45000	1052.1	2.4
0.7993	298.15	50000	1054.7	2.4
0.7993	298.15	55000	1057.4	2.4
0.7993	298.15	60000	1059.9	2.4
0.7993	308.15	100	1015.2	2.4
0.7993	308.15	1000	1015.9	2.4
0.7993	308.15	5000	1018.7	2.4
0.7993	308.15	10000	1022.2	2.4
0.7993	308.15	15000	1025.6	2.4
0.7993	308.15	20000	1028.8	2.4
0.7993	308.15	25000	1032	2.4
0.7993	308.15	30000	1035	2.4
0.7993	308.15	35000	1038	2.4
0.7993	308.15	40000	1041	2.4
0.7993	308.15	45000	1043.8	2.4
0.7993	308.15	50000	1046.6	2.4
0.7993	308.15	55000	1049.3	2.4
0.7993	308.15	60000	1051.9	2.4
0.7993	318.15	100	1005.8	2.4
0.7993	318.15	1000	1006.5	2.4
0.7993	318.15	5000	1009.5	2.4
0.7993	318.15	10000	1013.1	2.4
0.7993	318.15	15000	1016.7	2.4
0.7993	318.15	20000	1020.1	2.4
0.7993	318.15	25000	1023.3	2.4
0.7993	318.15	30000	1026.6	2.4
0.7993	318.15	35000	1029.7	2.4
0.7993	318.15	40000	1032.7	2.4
0.7993	318.15	45000	1035.7	2.4
0.7993	318.15	50000	1038.6	2.4
0.7993	318.15	55000	1041.5	2.4
0.7993	318.15	60000	1044.1	2.4
0.7993	328.15	100	996.3	2.4
0.7993	328.15	1000	997	2.4
0.7993	328.15	5000	1000.2	2.4
0.7993	328.15	10000	1004	2.4
0.7993	328.15	15000	1007.7	2.4
0.7993	328.15	20000	1011.3	2.4
0.7993	328.15	25000	1014.7	2.4
0.7993	328.15	30000	1018.1	2.4
0.7993	328.15	35000	1021.4	2.4
0.7993	328.15	40000	1024.5	2.4
0.7993	328.15	45000	1027.6	2.4
0.7993	328.15	50000	1030.7	2.4
0.7993	328.15	55000	1033.6	2.4
0.7993	328.15	60000	1036.3	2.4
0.7993	338.15	100	986.6	2.4
0.7993	338.15	1000	987.4	2.4
0.7993	338.15	5000	990.8	2.4
0.7993	338.15	10000	994.9	2.4
0.7993	338.15	15000	998.8	2.4
0.7993	338.15	20000	1002.5	2.4
0.7993	338.15	25000	1006.2	2.4
0.7993	338.15	30000	1009.7	2.4
0.7993	338.15	35000	1013.1	2.4
0.7993	338.15	40000	1016.4	2.4
0.7993	338.15	45000	1019.6	2.4
0.7993	338.15	50000	1022.8	2.4
0.7993	338.15	55000	1025.8	2.4
0.7993	338.15	60000	1028.6	2.4
0.7993	348.15	100	976.9	2.4
0.7993	348.15	1000	977.7	2.4
0.7993	348.15	5000	981.3	2.4
0.7993	348.15	10000	985.5	2.4
0.7993	348.15	15000	989.7	2.4
0.7993	348.15	20000	993.6	2.4
0.7993	348.15	25000	997.5	2.4
0.7993	348.15	30000	1001.1	2.4
0.7993	348.15	35000	1004.7	2.4
0.7993	348.15	40000	1008.2	2.4
0.7993	348.15	45000	1011.5	2.4
0.7993	348.15	50000	1014.8	2.4
0.7993	348.15	55000	1018	2.4
0.7993	348.15	60000	1020.9	2.4
0.7993	358.15	100	967	2.4
0.7993	358.15	1000	967.9	2.4
0.7993	358.15	5000	971.7	2.4
0.7993	358.15	10000	976.2	2.4
0.7993	358.15	15000	980.6	2.4
0.7993	358.15	20000	984.7	2.4
0.7993	358.15	25000	988.7	2.4
0.7993	358.15	30000	992.6	2.4
0.7993	358.15	35000	996.3	2.4
0.7993	358.15	40000	999.9	2.4
0.7993	358.15	45000	1003.4	2.4
0.7993	358.15	50000	1006.8	2.4
0.7993	358.15	55000	1010.1	2.4
0.7993	358.15	60000	1013.1	2.4
0.8982	278.15	100	1072.7	2.4
0.8982	278.15	1000	1073.2	2.4
0.8982	278.15	5000	1075.6	2.4
0.8982	278.15	10000	1078.5	2.4
0.8982	278.15	15000	1081.3	2.4
0.8982	278.15	20000	1084.1	2.4
0.8982	278.15	25000	1086.7	2.4
0.8982	278.15	30000	1089.3	2.4
0.8982	278.15	35000	1091.9	2.4
0.8982	278.15	40000	1094.4	2.4
0.8982	278.15	45000	1096.9	2.4
0.8982	278.15	50000	1099.3	2.4
0.8982	278.15	55000	1101.7	2.4
0.8982	278.15	60000	1103.8	2.4
0.8982	288.15	100	1063.1	2.4
0.8982	288.15	1000	1063.7	2.4
0.8982	288.15	5000	1066.2	2.4
0.8982	288.15	10000	1069.2	2.4
0.8982	288.15	15000	1072.2	2.4
0.8982	288.15	20000	1075	2.4
0.8982	288.15	25000	1077.9	2.4
0.8982	288.15	30000	1080.6	2.4
0.8982	288.15	35000	1083.3	2.4
0.8982	288.15	40000	1085.9	2.4
0.8982	288.15	45000	1088.4	2.4
0.8982	288.15	50000	1090.9	2.4
0.8982	288.15	55000	1093.4	2.4
0.8982	288.15	60000	1095.9	2.4
0.8982	298.15	100	1053.6	2.4
0.8982	298.15	1000	1054.2	2.4
0.8982	298.15	5000	1056.9	2.4
0.8982	298.15	10000	1060	2.4
0.8982	298.15	15000	1063.1	2.4
0.8982	298.15	20000	1066.1	2.4
0.8982	298.15	25000	1069	2.4
0.8982	298.15	30000	1071.9	2.4
0.8982	298.15	35000	1074.7	2.4
0.8982	298.15	40000	1077.4	2.4
0.8982	298.15	45000	1080.1	2.4
0.8982	298.15	50000	1082.7	2.4
0.8982	298.15	55000	1085.3	2.4
0.8982	298.15	60000	1087.8	2.4
0.8982	308.15	100	1044.1	2.4
0.8982	308.15	1000	1044.7	2.4
0.8982	308.15	5000	1047.5	2.4
0.8982	308.15	10000	1050.8	2.4
0.8982	308.15	15000	1054.1	2.4
0.8982	308.15	20000	1057.2	2.4
0.8982	308.15	25000	1060.3	2.4
0.8982	308.15	30000	1063.3	2.4
0.8982	308.15	35000	1066.2	2.4
0.8982	308.15	40000	1069	2.4
0.8982	308.15	45000	1071.8	2.4
0.8982	308.15	50000	1074.6	2.4
0.8982	308.15	55000	1077.2	2.4
0.8982	308.15	60000	1079.9	2.4
0.8982	318.15	100	1034.6	2.4
0.8982	318.15	1000	1035.2	2.4
0.8982	318.15	5000	1038.2	2.4
0.8982	318.15	10000	1041.7	2.4
0.8982	318.15	15000	1045.1	2.4
0.8982	318.15	20000	1048.4	2.4
0.8982	318.15	25000	1051.6	2.4
0.8982	318.15	30000	1054.7	2.4
0.8982	318.15	35000	1057.8	2.4
0.8982	318.15	40000	1060.7	2.4
0.8982	318.15	45000	1063.6	2.4
0.8982	318.15	50000	1066.5	2.4
0.8982	318.15	55000	1069.3	2.4
0.8982	318.15	60000	1071.8	2.4
0.8982	328.15	100	1025.1	2.4
0.8982	328.15	1000	1025.8	2.4
0.8982	328.15	5000	1028.9	2.4
0.8982	328.15	10000	1032.6	2.4
0.8982	328.15	15000	1036.2	2.4
0.8982	328.15	20000	1039.7	2.4
0.8982	328.15	25000	1043	2.4
0.8982	328.15	30000	1046.3	2.4
0.8982	328.15	35000	1049.4	2.4
0.8982	328.15	40000	1052.5	2.4
0.8982	328.15	45000	1055.5	2.4
0.8982	328.15	50000	1058.5	2.4
0.8982	328.15	55000	1061.4	2.4
0.8982	328.15	60000	1064.2	2.4
0.8982	338.15	100	1015.6	2.4
0.8982	338.15	1000	1016.3	2.4
0.8982	338.15	5000	1019.6	2.4
0.8982	338.15	10000	1023.5	2.4
0.8982	338.15	15000	1027.2	2.4
0.8982	338.15	20000	1030.8	2.4
0.8982	338.15	25000	1034.4	2.4
0.8982	338.15	30000	1037.8	2.4
0.8982	338.15	35000	1040.9	2.4
0.8982	338.15	40000	1044.3	2.4
0.8982	338.15	45000	1047.5	2.4
0.8982	338.15	50000	1050.5	2.4
0.8982	338.15	55000	1053.6	2.4
0.8982	338.15	60000	1056.3	2.4
0.8982	348.15	100	1005.9	2.4
0.8982	348.15	1000	1006.7	2.4
0.8982	348.15	5000	1010.1	2.4
0.8982	348.15	10000	1014.3	2.4
0.8982	348.15	15000	1018.2	2.4
0.8982	348.15	20000	1022	2.4
0.8982	348.15	25000	1025.7	2.4
0.8982	348.15	30000	1029.3	2.4
0.8982	348.15	35000	1032.7	2.4
0.8982	348.15	40000	1036.1	2.4
0.8982	348.15	45000	1039.4	2.4
0.8982	348.15	50000	1042.5	2.4
0.8982	348.15	55000	1045.7	2.4
0.8982	348.15	60000	1048.5	2.4
0.8982	358.15	100	996.1	2.4
0.8982	358.15	1000	996.9	2.4
0.8982	358.15	5000	1000.6	2.4
0.8982	358.15	10000	1004.9	2.4
0.8982	358.15	15000	1009	2.4
0.8982	358.15	20000	1013	2.4
0.8982	358.15	25000	1016.9	2.4
0.8982	358.15	30000	1020.6	2.4
0.8982	358.15	35000	1024.2	2.4
0.8982	358.15	40000	1027.8	2.4
0.8982	358.15	45000	1031.2	2.4
0.8982	358.15	50000	1034.5	2.4
0.8982	358.15	55000	1037.8	2.4
0.8982	358.15	60000	1040.9	2.4
