Measured thermophysical data. Research on the application of 7-chloro-quinaldine adducts in 7-chloro-quinaldine separation process
Source: J. Chem. Thermodyn., 2019, 10.1016/j.jct.2019.02.002
Compound 1: 7-chloroquinaldine, C10H8ClN, InChI=1S/C10H8ClN/c1-7-2-3-8-4-5-9(11)6-10(8)12-7/h2-6H,1H3, purity 98.4%
Compound 2: ethanol, C2H6O, InChI=1S/C2H6O/c1-2-3/h3H,2H2,1H3, purity 99.7%
Compound 3: methanol, CH4O, InChI=1S/CH4O/c1-2/h2H,1H3, purity 99.5%
Compound 4: propan-1-ol, C3H8O, InChI=1S/C3H8O/c1-2-3-4/h4H,2-3H2,1H3, purity 99.5%
Compound 5: butan-1-ol, C4H10O, InChI=1S/C4H10O/c1-2-3-4-5/h5H,2-4H2,1H3, purity 99.7%
Compound 6: propan-2-ol, C3H8O, InChI=1S/C3H8O/c1-3(2)4/h3-4H,1-2H3, purity 99.5%
Compound 7: 2-methyl-1-propanol, C4H10O, InChI=1S/C4H10O/c1-4(2)3-5/h4-5H,3H2,1-2H3, purity 99.5%
Compound 8: acetone, C3H6O, InChI=1S/C3H6O/c1-3(2)4/h1-2H3, purity 99.5%
Compound 9: 7-chloroquinaldine L-tartrate, C14H14ClNO6, InChI=1S/C10H8ClN.C4H6O6/c1-7-2-3-8-4-5-9(11)6-10(8)12-7;5-1(3(7)8)2(6)4(9)10/h2-6H,1H3;1-2,5-6H,(H,7,8)(H,9,10)/t;1-,2-/m.1/s1
Compound 10: 7-chloroquinaldine 4-nitrophthalate, C18H13ClN2O6, InChI=1S/C10H8ClN.C8H5NO6/c1-7-2-3-8-4-5-9(11)6-10(8)12-7;10-7(11)5-2-1-4(9(14)15)3-6(5)8(12)13/h2-6H,1H3;1-3H,(H,10,11)(H,12,13)
Compound 11: (2R,3R)-2,3-dihydroxybutanedioic acid, C4H6O6, InChI=1S/C4H6O6/c5-1(3(7)8)2(6)4(9)10/h1-2,5-6H,(H,7,8)(H,9,10)/t1-,2-/m1/s1, purity 99.5%
Compound 12: 4-nitrophthalic acid, C8H5NO6, InChI=1S/C8H5NO6/c10-7(11)5-2-1-4(9(14)15)3-6(5)8(12)13/h1-3H,(H,10,11)(H,12,13), purity 98.1%

System: 7-chloroquinaldine; phases: Crystal, Liquid, Air at 1 atmosphere
Property: Normal melting temperature, K (Crystal); method: DTA
Normal melting temperature, K	uncertainty
346.12	4.02

System: 7-chloroquinaldine L-tartrate; phases: Crystal, Liquid, Air at 1 atmosphere
Property: Normal melting temperature, K (Crystal); method: DTA
Normal melting temperature, K	uncertainty
433.46	4.02

System: 7-chloroquinaldine 4-nitrophthalate; phases: Crystal, Liquid, Air at 1 atmosphere
Property: Normal melting temperature, K (Crystal); method: DTA
Normal melting temperature, K	uncertainty
437.96	4.02

System: (2R,3R)-2,3-dihydroxybutanedioic acid; phases: Crystal, Liquid, Air at 1 atmosphere
Property: Normal melting temperature, K (Crystal); method: DTA
Normal melting temperature, K	uncertainty
442.72	4.02

System: 4-nitrophthalic acid; phases: Crystal, Liquid, Air at 1 atmosphere
Property: Normal melting temperature, K (Crystal); method: DTA
Normal melting temperature, K	uncertainty
432.82	4.02

System: 7-chloroquinaldine + methanol; phases: Liquid, Crystal
Fixed: Pressure, kPa = 101.3
Property: Mole fraction of 7-chloroquinaldine (Liquid); method: Chromatography
Temperature, K	Mole fraction of 7-chloroquinaldine	uncertainty
283.15	0.01012	0.00051
288.15	0.01226	0.00062
293.15	0.01488	0.00076
298.15	0.01774	0.0009
303.15	0.02127	0.00108
308.15	0.02554	0.0013
313.15	0.0304	0.00155
318.15	0.03604	0.00183
323.15	0.04263	0.00217

System: 7-chloroquinaldine + ethanol; phases: Liquid, Crystal
Fixed: Pressure, kPa = 101.3
Property: Mole fraction of 7-chloroquinaldine (Liquid); method: Chromatography
Temperature, K	Mole fraction of 7-chloroquinaldine	uncertainty
283.15	0.007057	0.000359
288.15	0.008768	0.000446
293.15	0.01095	0.00056
298.15	0.01368	0.0007
303.15	0.01694	0.00086
308.15	0.02071	0.00105
313.15	0.02516	0.00128
318.15	0.03081	0.00157
323.15	0.0373	0.0019

System: 7-chloroquinaldine + propan-1-ol; phases: Liquid, Crystal
Fixed: Pressure, kPa = 101.3
Property: Mole fraction of 7-chloroquinaldine (Liquid); method: Chromatography
Temperature, K	Mole fraction of 7-chloroquinaldine	uncertainty
283.15	0.004418	0.000225
288.15	0.005749	0.000293
293.15	0.007417	0.000377
298.15	0.009757	0.000497
303.15	0.01255	0.00064
308.15	0.01597	0.00081
313.15	0.02016	0.00103
318.15	0.02567	0.00131
323.15	0.0322	0.00164

System: 7-chloroquinaldine + propan-2-ol; phases: Liquid, Crystal
Fixed: Pressure, kPa = 101.3
Property: Mole fraction of 7-chloroquinaldine (Liquid); method: Chromatography
Temperature, K	Mole fraction of 7-chloroquinaldine	uncertainty
283.15	0.01599	0.00081
288.15	0.01892	0.00096
293.15	0.02233	0.00114
298.15	0.02596	0.00132
303.15	0.03042	0.00155
308.15	0.03556	0.00181
313.15	0.04143	0.00211
318.15	0.04831	0.00246
323.15	0.05617	0.00286

System: 7-chloroquinaldine + butan-1-ol; phases: Liquid, Crystal
Fixed: Pressure, kPa = 101.3
Property: Mole fraction of 7-chloroquinaldine (Liquid); method: Chromatography
Temperature, K	Mole fraction of 7-chloroquinaldine	uncertainty
283.15	0.001697	8.6e-05
288.15	0.002458	0.000125
293.15	0.003613	0.000184
298.15	0.005398	0.000275
303.15	0.007607	0.000387
308.15	0.01084	0.00055
313.15	0.01502	0.00076
318.15	0.02092	0.00107
323.15	0.02898	0.00147

System: 7-chloroquinaldine + 2-methyl-1-propanol; phases: Liquid, Crystal
Fixed: Pressure, kPa = 101.3
Property: Mole fraction of 7-chloroquinaldine (Liquid); method: Chromatography
Temperature, K	Mole fraction of 7-chloroquinaldine	uncertainty
283.15	0.01296	0.00066
288.15	0.01562	0.00079
293.15	0.01845	0.00094
298.15	0.02185	0.00111
303.15	0.02586	0.00132
308.15	0.03043	0.00155
313.15	0.03575	0.00182
318.15	0.04203	0.00214
323.15	0.04924	0.0025

System: 7-chloroquinaldine + acetone; phases: Liquid, Crystal
Fixed: Pressure, kPa = 101.3
Property: Mole fraction of 7-chloroquinaldine (Liquid); method: Chromatography
Temperature, K	Mole fraction of 7-chloroquinaldine	uncertainty
283.15	0.02188	0.00111
288.15	0.02584	0.00131
293.15	0.03043	0.00155
298.15	0.03551	0.00181
303.15	0.04169	0.00212
308.15	0.04868	0.00248
313.15	0.05659	0.00288
318.15	0.06572	0.00334
323.15	0.07658	0.00389

System: 7-chloroquinaldine L-tartrate + methanol; phases: Liquid, Crystal
Fixed: Pressure, kPa = 101.3
Property: Mole fraction of 7-chloroquinaldine L-tartrate (Liquid); method: Chromatography
Temperature, K	Mole fraction of 7-chloroquinaldine L-tartrate	uncertainty
283.15	0.001056	5.4e-05
288.15	0.001185	6e-05
293.15	0.001327	6.7e-05
298.15	0.001517	7.7e-05
303.15	0.001729	8.8e-05
308.15	0.001978	0.000101
313.15	0.002271	0.000115
318.15	0.002543	0.000129
323.15	0.002872	0.000146

System: 7-chloroquinaldine L-tartrate + ethanol; phases: Liquid, Crystal
Fixed: Pressure, kPa = 101.3
Property: Mole fraction of 7-chloroquinaldine L-tartrate (Liquid); method: Chromatography
Temperature, K	Mole fraction of 7-chloroquinaldine L-tartrate	uncertainty
283.15	0.001892	9.6e-05
288.15	0.00202	0.000103
293.15	0.002191	0.000111
298.15	0.002388	0.000121
303.15	0.002598	0.000132
308.15	0.002835	0.000144
313.15	0.003135	0.000159
318.15	0.003433	0.000175
323.15	0.003785	0.000192

System: 7-chloroquinaldine L-tartrate + propan-1-ol; phases: Liquid, Crystal
Fixed: Pressure, kPa = 101.3
Property: Mole fraction of 7-chloroquinaldine L-tartrate (Liquid); method: Chromatography
Temperature, K	Mole fraction of 7-chloroquinaldine L-tartrate	uncertainty
283.15	0.00163	8.3e-05
288.15	0.001772	9e-05
293.15	0.001925	9.8e-05
298.15	0.002129	0.000108
303.15	0.002321	0.000118
308.15	0.002586	0.000132
313.15	0.002885	0.000147
318.15	0.003218	0.000164
323.15	0.003572	0.000182

System: 7-chloroquinaldine L-tartrate + propan-2-ol; phases: Liquid, Crystal
Fixed: Pressure, kPa = 101.3
Property: Mole fraction of 7-chloroquinaldine L-tartrate (Liquid); method: Chromatography
Temperature, K	Mole fraction of 7-chloroquinaldine L-tartrate	uncertainty
283.15	0.00229	0.000116
288.15	0.002459	0.000125
293.15	0.002637	0.000134
298.15	0.002867	0.000146
303.15	0.003097	0.000157
308.15	0.003384	0.000172
313.15	0.003662	0.000186
318.15	0.004033	0.000205
323.15	0.004457	0.000227

System: 7-chloroquinaldine L-tartrate + butan-1-ol; phases: Liquid, Crystal
Fixed: Pressure, kPa = 101.3
Property: Mole fraction of 7-chloroquinaldine L-tartrate (Liquid); method: Chromatography
Temperature, K	Mole fraction of 7-chloroquinaldine L-tartrate	uncertainty
283.15	0.00132	6.7e-05
288.15	0.001453	7.4e-05
293.15	0.001625	8.3e-05
298.15	0.001821	9.3e-05
303.15	0.002044	0.000104
308.15	0.002311	0.000118
313.15	0.002594	0.000132
318.15	0.002921	0.000149
323.15	0.003271	0.000166

System: 7-chloroquinaldine L-tartrate + 2-methyl-1-propanol; phases: Liquid, Crystal
Fixed: Pressure, kPa = 101.3
Property: Mole fraction of 7-chloroquinaldine L-tartrate (Liquid); method: Chromatography
Temperature, K	Mole fraction of 7-chloroquinaldine L-tartrate	uncertainty
283.15	0.00211	0.000107
288.15	0.00223	0.000113
293.15	0.002404	0.000122
298.15	0.002591	0.000132
303.15	0.002831	0.000144
308.15	0.003095	0.000157
313.15	0.003388	0.000172
318.15	0.003724	0.000189
323.15	0.004087	0.000208

System: 7-chloroquinaldine L-tartrate + acetone; phases: Liquid, Crystal
Fixed: Pressure, kPa = 101.3
Property: Mole fraction of 7-chloroquinaldine L-tartrate (Liquid); method: Chromatography
Temperature, K	Mole fraction of 7-chloroquinaldine L-tartrate	uncertainty
283.15	0.002634	0.000134
288.15	0.002842	0.000145
293.15	0.003097	0.000157
298.15	0.003405	0.000173
303.15	0.003738	0.00019
308.15	0.004124	0.00021
313.15	0.004545	0.000231
318.15	0.005039	0.000256
323.15	0.005635	0.000287

System: 7-chloroquinaldine 4-nitrophthalate + methanol; phases: Liquid, Crystal
Fixed: Pressure, kPa = 101.3
Property: Mole fraction of 7-chloroquinaldine 4-nitrophthalate (Liquid); method: Chromatography
Temperature, K	Mole fraction of 7-chloroquinaldine 4-nitrophthalate	uncertainty
283.15	0.0005159	2.62e-05
288.15	0.0005724	2.91e-05
293.15	0.0006441	3.28e-05
298.15	0.0007314	3.72e-05
303.15	0.0008334	4.24e-05
308.15	0.0009468	4.81e-05
313.15	0.001081	5.5e-05
318.15	0.001227	6.2e-05
323.15	0.001405	7.1e-05

System: 7-chloroquinaldine 4-nitrophthalate + ethanol; phases: Liquid, Crystal
Fixed: Pressure, kPa = 101.3
Property: Mole fraction of 7-chloroquinaldine 4-nitrophthalate (Liquid); method: Chromatography
Temperature, K	Mole fraction of 7-chloroquinaldine 4-nitrophthalate	uncertainty
283.15	0.0006159	3.13e-05
288.15	0.0006753	3.43e-05
293.15	0.0007556	3.84e-05
298.15	0.0008477	4.31e-05
303.15	0.0009596	4.88e-05
308.15	0.001091	5.5e-05
313.15	0.001227	6.2e-05
318.15	0.001394	7.1e-05
323.15	0.001589	8.1e-05

System: 7-chloroquinaldine 4-nitrophthalate + propan-1-ol; phases: Liquid, Crystal
Fixed: Pressure, kPa = 101.3
Property: Mole fraction of 7-chloroquinaldine 4-nitrophthalate (Liquid); method: Chromatography
Temperature, K	Mole fraction of 7-chloroquinaldine 4-nitrophthalate	uncertainty
283.15	0.0007069	3.59e-05
288.15	0.0007716	3.92e-05
293.15	0.000863	4.39e-05
298.15	0.0009596	4.88e-05
303.15	0.001085	5.5e-05
308.15	0.001208	6.1e-05
313.15	0.001365	6.9e-05
318.15	0.00154	7.8e-05
323.15	0.001733	8.8e-05

System: 7-chloroquinaldine 4-nitrophthalate + propan-2-ol; phases: Liquid, Crystal
Fixed: Pressure, kPa = 101.3
Property: Mole fraction of 7-chloroquinaldine 4-nitrophthalate (Liquid); method: Chromatography
Temperature, K	Mole fraction of 7-chloroquinaldine 4-nitrophthalate	uncertainty
283.15	0.0009409	4.78e-05
288.15	0.001016	5.2e-05
293.15	0.001109	5.6e-05
298.15	0.001224	6.2e-05
303.15	0.001347	6.8e-05
308.15	0.001494	7.6e-05
313.15	0.001657	8.4e-05
318.15	0.001842	9.4e-05
323.15	0.002068	0.000105

System: 7-chloroquinaldine 4-nitrophthalate + butan-1-ol; phases: Liquid, Crystal
Fixed: Pressure, kPa = 101.3
Property: Mole fraction of 7-chloroquinaldine 4-nitrophthalate (Liquid); method: Chromatography
Temperature, K	Mole fraction of 7-chloroquinaldine 4-nitrophthalate	uncertainty
283.15	0.001071	5.4e-05
288.15	0.001158	5.9e-05
293.15	0.00125	6.4e-05
298.15	0.001366	6.9e-05
303.15	0.001491	7.6e-05
308.15	0.001628	8.3e-05
313.15	0.001789	9.1e-05
318.15	0.001972	0.0001
323.15	0.002181	0.000111

System: 7-chloroquinaldine 4-nitrophthalate + 2-methyl-1-propanol; phases: Liquid, Crystal
Fixed: Pressure, kPa = 101.3
Property: Mole fraction of 7-chloroquinaldine 4-nitrophthalate (Liquid); method: Chromatography
Temperature, K	Mole fraction of 7-chloroquinaldine 4-nitrophthalate	uncertainty
283.15	0.001222	6.2e-05
288.15	0.001309	6.7e-05
293.15	0.001406	7.1e-05
298.15	0.001516	7.7e-05
303.15	0.001643	8.4e-05
308.15	0.001782	9.1e-05
313.15	0.001943	9.9e-05
318.15	0.002123	0.000108
323.15	0.002324	0.000118

System: 7-chloroquinaldine 4-nitrophthalate + acetone; phases: Liquid, Crystal
Fixed: Pressure, kPa = 101.3
Property: Mole fraction of 7-chloroquinaldine 4-nitrophthalate (Liquid); method: Chromatography
Temperature, K	Mole fraction of 7-chloroquinaldine 4-nitrophthalate	uncertainty
283.15	0.0008111	4.12e-05
288.15	0.000887	4.51e-05
293.15	0.000982	4.99e-05
298.15	0.001082	5.5e-05
303.15	0.00121	6.2e-05
308.15	0.001344	6.8e-05
313.15	0.001519	7.7e-05
318.15	0.001686	8.6e-05
323.15	0.001885	9.6e-05
