Measured thermophysical data. Densities, speeds of sound and excess properties of (benzonitrile + methyl methacrylate, or + ethyl methacrylate, or + n-butyl methacrylate) binary mixtures at temperatures from 293.15 K to 318.15 K
Source: J. Chem. Thermodyn., 2019, 10.1016/j.jct.2018.12.031
Compound 1: benzonitrile, C7H5N, InChI=1S/C7H5N/c8-6-7-4-2-1-3-5-7/h1-5H, purity 99%
Compound 2: methyl methacrylate, C5H8O2, InChI=1S/C5H8O2/c1-4(2)5(6)7-3/h1H2,2-3H3, purity 99%
Compound 3: ethyl 2-methylpropenoate, C6H10O2, InChI=1S/C6H10O2/c1-4-8-6(7)5(2)3/h2,4H2,1,3H3, purity 98%
Compound 4: butyl 2-methyl-2-propenoate, C8H14O2, InChI=1S/C8H14O2/c1-4-5-6-10-8(9)7(2)3/h2,4-6H2,1,3H3, purity 99%

System: benzonitrile; phases: Liquid
Fixed: Pressure, kPa = 100
Fixed: Frequency, MHz = 3
Property: Speed of sound, m/s (Liquid); method: Linear variable-path acoustic interferometer
Temperature, K	Speed of sound, m/s	uncertainty
293.15	1436.9	1.7
298.15	1418.2	1.7
303.15	1400.7	1.7
308.15	1384	1.7
313.15	1368.2	1.7
318.15	1352.9	1.7

System: benzonitrile + methyl methacrylate; phases: Liquid
Fixed: Pressure, kPa = 100
Property: Mass density, kg/m3 (Liquid); method: Pycnometric method
Temperature, K	Mole fraction of benzonitrile	Mass density, kg/m3	uncertainty
293.15	0	943.38	1.02
293.15	0.0652	948.11	1.03
293.15	0.1303	952.71	1.03
293.15	0.1922	956.98	1.03
293.15	0.271	962.27	1.03
293.15	0.3371	966.59	1.03
293.15	0.4174	971.69	1.03
293.15	0.4872	976	1.03
293.15	0.5689	980.9	1.03
293.15	0.6398	985.02	1.03
293.15	0.7089	988.92	1.03
293.15	0.7767	992.63	1.03
293.15	0.8571	996.88	1.03
293.15	0.9252	1000.34	1.03
293.15	1	1003.99	1.03
298.15	0	937.64	1.03
298.15	0.0652	942.55	1.03
298.15	0.1303	947.32	1.03
298.15	0.1922	951.75	1.03
298.15	0.271	957.23	1.03
298.15	0.3371	961.71	1.03
298.15	0.4174	966.99	1.03
298.15	0.4872	971.45	1.03
298.15	0.5689	976.51	1.03
298.15	0.6398	980.77	1.03
298.15	0.7089	984.8	1.03
298.15	0.7767	988.63	1.03
298.15	0.8571	993.01	1.03
298.15	0.9252	996.57	1.03
298.15	1	1000.32	1.03
303.15	0	931.9	1.03
303.15	0.0652	936.99	1.03
303.15	0.1303	941.93	1.03
303.15	0.1922	946.52	1.03
303.15	0.271	952.19	1.03
303.15	0.3371	956.83	1.03
303.15	0.4174	962.29	1.03
303.15	0.4872	966.9	1.03
303.15	0.5689	972.12	1.03
303.15	0.6398	976.52	1.03
303.15	0.7089	980.68	1.03
303.15	0.7767	984.63	1.03
303.15	0.8571	989.14	1.03
303.15	0.9252	992.8	1.03
303.15	1	996.65	1.03
308.15	0	926.16	1.03
308.15	0.0652	931.43	1.03
308.15	0.1303	936.55	1.03
308.15	0.1922	941.29	1.03
308.15	0.271	947.15	1.03
308.15	0.3371	951.93	1.03
308.15	0.4174	957.57	1.03
308.15	0.4872	962.33	1.03
308.15	0.5689	967.73	1.03
308.15	0.6398	972.27	1.03
308.15	0.7089	976.56	1.03
308.15	0.7767	980.63	1.03
308.15	0.8571	985.27	1.03
308.15	0.9252	989.03	1.03
308.15	1	992.98	1.03
313.15	0	920.42	1.03
313.15	0.0652	925.87	1.03
313.15	0.1303	931.16	1.03
313.15	0.1922	936.06	1.03
313.15	0.271	942.12	1.03
313.15	0.3371	947.05	1.03
313.15	0.4174	952.87	1.03
313.15	0.4872	957.78	1.03
313.15	0.5689	963.35	1.03
313.15	0.6398	968.02	1.03
313.15	0.7089	972.44	1.03
313.15	0.7767	976.63	1.04
313.15	0.8571	981.4	1.04
313.15	0.9252	985.26	1.04
313.15	1	989.31	1.04
318.15	0	914.67	1.04
318.15	0.0652	920.31	1.04
318.15	0.1303	925.77	1.04
318.15	0.1922	930.83	1.04
318.15	0.271	937.08	1.04
318.15	0.3371	942.18	1.04
318.15	0.4174	948.18	1.04
318.15	0.4872	953.23	1.04
318.15	0.5689	958.96	1.04
318.15	0.6398	963.77	1.04
318.15	0.7089	968.31	1.04
318.15	0.7767	972.61	1.04
318.15	0.8571	977.51	1.04
318.15	0.9252	981.48	1.04
318.15	1	985.64	1.04

System: benzonitrile + methyl methacrylate; phases: Liquid
Fixed: Pressure, kPa = 100
Fixed: Frequency, MHz = 3
Property: Speed of sound, m/s (Liquid); method: Linear variable-path acoustic interferometer
Temperature, K	Mole fraction of benzonitrile	Speed of sound, m/s	uncertainty
293.15	0	1200.5	1.6
293.15	0.0652	1220.4	1.6
293.15	0.1303	1239.9	1.6
293.15	0.1922	1258.1	1.6
293.15	0.271	1279.6	1.7
293.15	0.3371	1296.9	1.7
293.15	0.4174	1316.8	1.7
293.15	0.4872	1333.2	1.7
293.15	0.5689	1351.4	1.7
293.15	0.6398	1366.6	1.7
293.15	0.7089	1381.1	1.7
293.15	0.7767	1394.4	1.7
293.15	0.8571	1410	1.7
293.15	0.9252	1422.4	1.7
293.15	1	1436.9	1.7
298.15	0	1183.6	1.6
298.15	0.0652	1203.9	1.6
298.15	0.1303	1223.6	1.6
298.15	0.1922	1241.7	1.6
298.15	0.271	1263.3	1.6
298.15	0.3371	1280.2	1.7
298.15	0.4174	1299.9	1.7
298.15	0.4872	1316.2	1.7
298.15	0.5689	1334.3	1.7
298.15	0.6398	1349.3	1.7
298.15	0.7089	1363.6	1.7
298.15	0.7767	1376.7	1.7
298.15	0.8571	1392.3	1.7
298.15	0.9252	1404.6	1.7
298.15	1	1418.2	1.7
303.15	0	1168.5	1.6
303.15	0.0652	1189.3	1.6
303.15	0.1303	1209	1.6
303.15	0.1922	1227	1.6
303.15	0.271	1248.3	1.6
303.15	0.3371	1265.4	1.6
303.15	0.4174	1284.8	1.7
303.15	0.4872	1300.8	1.7
303.15	0.5689	1319	1.7
303.15	0.6398	1333.8	1.7
303.15	0.7089	1348	1.7
303.15	0.7767	1360.9	1.7
303.15	0.8571	1376	1.7
303.15	0.9252	1388.2	1.7
303.15	1	1400.7	1.7
308.15	0	1152.6	1.6
308.15	0.0652	1173.8	1.6
308.15	0.1303	1193.9	1.6
308.15	0.1922	1211.7	1.6
308.15	0.271	1232.7	1.6
308.15	0.3371	1249.6	1.6
308.15	0.4174	1268.8	1.6
308.15	0.4872	1284.7	1.7
308.15	0.5689	1302.9	1.7
308.15	0.6398	1317.9	1.7
308.15	0.7089	1332	1.7
308.15	0.7767	1345.5	1.7
308.15	0.8571	1360.6	1.7
308.15	0.9252	1372	1.7
308.15	1	1384	1.7
313.15	0	1135.4	1.6
313.15	0.0652	1157	1.6
313.15	0.1303	1177.3	1.6
313.15	0.1922	1195.3	1.6
313.15	0.271	1216.5	1.6
313.15	0.3371	1233.2	1.6
313.15	0.4174	1252.4	1.6
313.15	0.4872	1268.5	1.6
313.15	0.5689	1286.5	1.7
313.15	0.6398	1302.2	1.7
313.15	0.7089	1316.5	1.7
313.15	0.7767	1330.5	1.7
313.15	0.8571	1345.5	1.7
313.15	0.9252	1357.2	1.7
313.15	1	1368.2	1.7
318.15	0	1118.3	1.6
318.15	0.0652	1140.3	1.6
318.15	0.1303	1160.8	1.6
318.15	0.1922	1179	1.6
318.15	0.271	1200	1.6
318.15	0.3371	1216.8	1.6
318.15	0.4174	1236	1.6
318.15	0.4872	1251.9	1.6
318.15	0.5689	1270.3	1.6
318.15	0.6398	1286	1.6
318.15	0.7089	1300.9	1.7
318.15	0.7767	1315	1.7
318.15	0.8571	1330.8	1.7
318.15	0.9252	1342.4	1.7
318.15	1	1352.9	1.7

System: benzonitrile + ethyl 2-methylpropenoate; phases: Liquid
Fixed: Pressure, kPa = 100
Property: Mass density, kg/m3 (Liquid); method: Pycnometric method
Temperature, K	Mole fraction of benzonitrile	Mass density, kg/m3	uncertainty
293.15	0	912.3	1.03
293.15	0.0711	918.32	1.03
293.15	0.1419	924.37	1.03
293.15	0.2152	930.7	1.03
293.15	0.2872	936.99	1.03
293.15	0.3568	943.14	1.03
293.15	0.4307	949.76	1.03
293.15	0.4991	955.96	1.03
293.15	0.5752	962.96	1.03
293.15	0.6431	969.29	1.03
293.15	0.7177	976.35	1.03
293.15	0.7773	982.06	1.03
293.15	0.8576	989.86	1.03
293.15	0.9289	996.89	1.03
293.15	1	1003.99	1.03
298.15	0	907.18	1.03
298.15	0.0711	913.3	1.03
298.15	0.1419	919.45	1.03
298.15	0.2152	925.88	1.03
298.15	0.2872	932.27	1.03
298.15	0.3568	938.52	1.03
298.15	0.4307	945.23	1.03
298.15	0.4991	951.53	1.03
298.15	0.5752	958.64	1.03
298.15	0.6431	965.07	1.03
298.15	0.7177	972.24	1.03
298.15	0.7773	978.04	1.03
298.15	0.8576	985.97	1.03
298.15	0.9289	993.11	1.03
298.15	1	1000.32	1.03
303.15	0	902.06	1.03
303.15	0.0711	908.28	1.03
303.15	0.1419	914.53	1.03
303.15	0.2152	921.06	1.03
303.15	0.2872	927.55	1.03
303.15	0.3568	933.89	1.03
303.15	0.4307	940.7	1.03
303.15	0.4991	947.1	1.03
303.15	0.5752	954.32	1.03
303.15	0.6431	960.85	1.03
303.15	0.7177	968.13	1.03
303.15	0.7773	974.02	1.03
303.15	0.8576	982.07	1.03
303.15	0.9289	989.33	1.03
303.15	1	996.65	1.03
308.15	0	896.94	1.03
308.15	0.0711	903.26	1.03
308.15	0.1419	909.61	1.03
308.15	0.2152	916.24	1.03
308.15	0.2872	922.82	1.03
308.15	0.3568	929.26	1.03
308.15	0.4307	936.17	1.03
308.15	0.4991	942.67	1.03
308.15	0.5752	949.99	1.03
308.15	0.6431	956.62	1.03
308.15	0.7177	964.02	1.03
308.15	0.7773	970	1.03
308.15	0.8576	978.17	1.03
308.15	0.9289	985.54	1.03
308.15	1	992.98	1.03
313.15	0	891.83	1.03
313.15	0.0711	898.24	1.03
313.15	0.1419	904.68	1.03
313.15	0.2152	911.41	1.03
313.15	0.2872	918.09	1.03
313.15	0.3568	924.62	1.03
313.15	0.4307	931.64	1.03
313.15	0.4991	938.23	1.03
313.15	0.5752	945.66	1.03
313.15	0.6431	952.39	1.03
313.15	0.7177	959.9	1.03
313.15	0.7773	965.97	1.03
313.15	0.8576	974.27	1.04
313.15	0.9289	981.75	1.04
313.15	1	989.31	1.04
318.15	0	886.71	1.04
318.15	0.0711	893.22	1.04
318.15	0.1419	899.75	1.04
318.15	0.2152	906.58	1.04
318.15	0.2872	913.35	1.04
318.15	0.3568	919.98	1.04
318.15	0.4307	927.11	1.04
318.15	0.4991	933.79	1.04
318.15	0.5752	941.33	1.04
318.15	0.6431	948.16	1.04
318.15	0.7177	955.78	1.04
318.15	0.7773	961.94	1.04
318.15	0.8576	970.37	1.04
318.15	0.9289	977.96	1.04
318.15	1	985.64	1.04

System: benzonitrile + ethyl 2-methylpropenoate; phases: Liquid
Fixed: Pressure, kPa = 100
Fixed: Frequency, MHz = 3
Property: Speed of sound, m/s (Liquid); method: Linear variable-path acoustic interferometer
Temperature, K	Mole fraction of benzonitrile	Speed of sound, m/s	uncertainty
293.15	0	1196.8	1.6
293.15	0.0711	1212.4	1.6
293.15	0.1419	1228	1.7
293.15	0.2152	1244.1	1.7
293.15	0.2872	1259.8	1.7
293.15	0.3568	1274.9	1.7
293.15	0.4307	1290.9	1.7
293.15	0.4991	1306	1.7
293.15	0.5752	1323.3	1.7
293.15	0.6431	1339.2	1.7
293.15	0.7177	1357.7	1.7
293.15	0.7773	1373	1.7
293.15	0.8576	1394.7	1.7
293.15	0.9289	1414.8	1.7
293.15	1	1436.9	1.7
298.15	0	1176.9	1.6
298.15	0.0711	1193	1.6
298.15	0.1419	1208.9	1.6
298.15	0.2152	1225	1.6
298.15	0.2872	1240.7	1.6
298.15	0.3568	1255.7	1.7
298.15	0.4307	1271.6	1.7
298.15	0.4991	1286.8	1.7
298.15	0.5752	1304.2	1.7
298.15	0.6431	1320	1.7
298.15	0.7177	1338.5	1.7
298.15	0.7773	1354	1.7
298.15	0.8576	1375.9	1.7
298.15	0.9289	1396.3	1.7
298.15	1	1418.2	1.7
303.15	0	1157.6	1.6
303.15	0.0711	1174.2	1.6
303.15	0.1419	1190.4	1.6
303.15	0.2152	1206.4	1.6
303.15	0.2872	1222.1	1.6
303.15	0.3568	1237.4	1.6
303.15	0.4307	1253.4	1.6
303.15	0.4991	1268.4	1.7
303.15	0.5752	1285.8	1.7
303.15	0.6431	1301.7	1.7
303.15	0.7177	1320.4	1.7
303.15	0.7773	1336	1.7
303.15	0.8576	1358.2	1.7
303.15	0.9289	1379.1	1.7
303.15	1	1400.7	1.7
308.15	0	1139.4	1.6
308.15	0.0711	1156.4	1.6
308.15	0.1419	1172.7	1.6
308.15	0.2152	1188.9	1.6
308.15	0.2872	1204.6	1.6
308.15	0.3568	1219.8	1.6
308.15	0.4307	1236	1.6
308.15	0.4991	1251.3	1.6
308.15	0.5752	1268.7	1.6
308.15	0.6431	1284.7	1.7
308.15	0.7177	1303.5	1.7
308.15	0.7773	1319.3	1.7
308.15	0.8576	1341.8	1.7
308.15	0.9289	1362.6	1.7
308.15	1	1384	1.7
313.15	0	1121.5	1.6
313.15	0.0711	1138.9	1.6
313.15	0.1419	1155.3	1.6
313.15	0.2152	1171.7	1.6
313.15	0.2872	1187.4	1.6
313.15	0.3568	1202.7	1.6
313.15	0.4307	1218.9	1.6
313.15	0.4991	1234.1	1.6
313.15	0.5752	1251.8	1.6
313.15	0.6431	1268.2	1.6
313.15	0.7177	1287.3	1.7
313.15	0.7773	1303.5	1.7
313.15	0.8576	1326.1	1.7
313.15	0.9289	1347.2	1.7
313.15	1	1368.2	1.7
318.15	0	1104.6	1.6
318.15	0.0711	1122.5	1.6
318.15	0.1419	1139.1	1.6
318.15	0.2152	1155.6	1.6
318.15	0.2872	1171.4	1.6
318.15	0.3568	1186.5	1.6
318.15	0.4307	1202.7	1.6
318.15	0.4991	1217.9	1.6
318.15	0.5752	1235.6	1.6
318.15	0.6431	1252.3	1.6
318.15	0.7177	1271.8	1.6
318.15	0.7773	1288.2	1.7
318.15	0.8576	1311.3	1.7
318.15	0.9289	1332.3	1.7
318.15	1	1352.9	1.7

System: benzonitrile + butyl 2-methyl-2-propenoate; phases: Liquid
Fixed: Pressure, kPa = 100
Property: Mass density, kg/m3 (Liquid); method: Pycnometric method
Temperature, K	Mole fraction of benzonitrile	Mass density, kg/m3	uncertainty
293.15	0	895.19	1.03
293.15	0.0721	900.73	1.03
293.15	0.1507	907.02	1.03
293.15	0.2142	912.32	1.03
293.15	0.2876	918.72	1.03
293.15	0.3511	924.51	1.03
293.15	0.4297	932.05	1.03
293.15	0.4985	939.01	1.03
293.15	0.5715	946.81	1.03
293.15	0.6465	955.32	1.03
293.15	0.7147	963.54	1.03
293.15	0.7784	971.67	1.03
293.15	0.8558	982.2	1.03
293.15	0.9326	993.43	1.03
293.15	1	1003.99	1.03
298.15	0	890.48	1.03
298.15	0.0721	896.08	1.03
298.15	0.1507	902.44	1.03
298.15	0.2142	907.79	1.03
298.15	0.2876	914.25	1.03
298.15	0.3511	920.1	1.03
298.15	0.4297	927.7	1.03
298.15	0.4985	934.73	1.03
298.15	0.5715	942.6	1.03
298.15	0.6465	951.19	1.03
298.15	0.7147	959.49	1.03
298.15	0.7784	967.7	1.03
298.15	0.8558	978.33	1.03
298.15	0.9326	989.66	1.03
298.15	1	1000.32	1.03
303.15	0	885.78	1.03
303.15	0.0721	891.44	1.03
303.15	0.1507	897.86	1.03
303.15	0.2142	903.26	1.03
303.15	0.2876	909.78	1.03
303.15	0.3511	915.69	1.03
303.15	0.4297	923.35	1.03
303.15	0.4985	930.45	1.03
303.15	0.5715	938.39	1.03
303.15	0.6465	947.06	1.03
303.15	0.7147	955.44	1.03
303.15	0.7784	963.73	1.03
303.15	0.8558	974.46	1.03
303.15	0.9326	985.89	1.03
303.15	1	996.65	1.03
308.15	0	881.07	1.03
308.15	0.0721	886.79	1.03
308.15	0.1507	893.27	1.03
308.15	0.2142	898.72	1.03
308.15	0.2876	905.3	1.03
308.15	0.3511	911.26	1.03
308.15	0.4297	919	1.03
308.15	0.4985	926.16	1.03
308.15	0.5715	934.18	1.03
308.15	0.6465	942.93	1.03
308.15	0.7147	951.39	1.03
308.15	0.7784	959.75	1.03
308.15	0.8558	970.58	1.03
308.15	0.9326	982.12	1.03
308.15	1	992.98	1.03
313.15	0	876.35	1.04
313.15	0.0721	882.13	1.04
313.15	0.1507	888.68	1.04
313.15	0.2142	894.18	1.04
313.15	0.2876	900.82	1.04
313.15	0.3511	906.83	1.03
313.15	0.4297	914.65	1.03
313.15	0.4985	921.87	1.03
313.15	0.5715	929.96	1.03
313.15	0.6465	938.79	1.03
313.15	0.7147	947.33	1.03
313.15	0.7784	955.77	1.03
313.15	0.8558	966.7	1.04
313.15	0.9326	978.35	1.04
313.15	1	989.31	1.04
318.15	0	871.64	1.04
318.15	0.0721	877.48	1.04
318.15	0.1507	884.09	1.04
318.15	0.2142	889.64	1.04
318.15	0.2876	896.34	1.04
318.15	0.3511	902.4	1.04
318.15	0.4297	910.29	1.04
318.15	0.4985	917.58	1.04
318.15	0.5715	925.74	1.04
318.15	0.6465	934.65	1.04
318.15	0.7147	943.27	1.04
318.15	0.7784	951.79	1.04
318.15	0.8558	962.82	1.04
318.15	0.9326	974.58	1.04
318.15	1	985.64	1.04

System: benzonitrile + butyl 2-methyl-2-propenoate; phases: Liquid
Fixed: Pressure, kPa = 100
Fixed: Frequency, MHz = 3
Property: Speed of sound, m/s (Liquid); method: Linear variable-path acoustic interferometer
Temperature, K	Mole fraction of benzonitrile	Speed of sound, m/s	uncertainty
293.15	0	1241.7	1.7
293.15	0.0721	1251.2	1.7
293.15	0.1507	1262	1.7
293.15	0.2142	1271.2	1.7
293.15	0.2876	1282.1	1.7
293.15	0.3511	1291.9	1.7
293.15	0.4297	1304.6	1.7
293.15	0.4985	1316.5	1.7
293.15	0.5715	1330	1.7
293.15	0.6465	1344.9	1.7
293.15	0.7147	1359.7	1.7
293.15	0.7784	1374.6	1.7
293.15	0.8558	1394.4	1.7
293.15	0.9326	1416.2	1.7
293.15	1	1436.9	1.7
298.15	0	1222.1	1.7
298.15	0.0721	1231.8	1.7
298.15	0.1507	1242.8	1.7
298.15	0.2142	1252	1.7
298.15	0.2876	1262.8	1.7
298.15	0.3511	1272.6	1.7
298.15	0.4297	1285.3	1.7
298.15	0.4985	1297.1	1.7
298.15	0.5715	1310.6	1.7
298.15	0.6465	1325.7	1.7
298.15	0.7147	1340.5	1.7
298.15	0.7784	1355.6	1.7
298.15	0.8558	1375.6	1.7
298.15	0.9326	1397.6	1.7
298.15	1	1418.2	1.7
303.15	0	1202.4	1.7
303.15	0.0721	1212.4	1.7
303.15	0.1507	1223.6	1.7
303.15	0.2142	1232.8	1.7
303.15	0.2876	1243.7	1.7
303.15	0.3511	1253.4	1.7
303.15	0.4297	1266.3	1.7
303.15	0.4985	1278.1	1.7
303.15	0.5715	1291.6	1.7
303.15	0.6465	1306.8	1.7
303.15	0.7147	1321.9	1.7
303.15	0.7784	1337.2	1.7
303.15	0.8558	1357.7	1.7
303.15	0.9326	1379.9	1.7
303.15	1	1400.7	1.7
308.15	0	1183	1.7
308.15	0.0721	1193.2	1.7
308.15	0.1507	1204.6	1.7
308.15	0.2142	1213.9	1.7
308.15	0.2876	1225	1.7
308.15	0.3511	1234.8	1.7
308.15	0.4297	1247.7	1.7
308.15	0.4985	1259.6	1.7
308.15	0.5715	1273.2	1.7
308.15	0.6465	1288.5	1.7
308.15	0.7147	1303.8	1.7
308.15	0.7784	1319.5	1.7
308.15	0.8558	1340.4	1.7
308.15	0.9326	1362.9	1.7
308.15	1	1384	1.7
313.15	0	1163.8	1.7
313.15	0.0721	1174.3	1.7
313.15	0.1507	1185.8	1.7
313.15	0.2142	1195.3	1.7
313.15	0.2876	1206.5	1.7
313.15	0.3511	1216.5	1.7
313.15	0.4297	1229.5	1.7
313.15	0.4985	1241.5	1.7
313.15	0.5715	1255.2	1.7
313.15	0.6465	1270.7	1.7
313.15	0.7147	1286.3	1.7
313.15	0.7784	1302.3	1.7
313.15	0.8558	1323.7	1.7
313.15	0.9326	1346.9	1.7
313.15	1	1368.2	1.7
318.15	0	1145.7	1.7
318.15	0.0721	1156.5	1.6
318.15	0.1507	1168.2	1.6
318.15	0.2142	1177.8	1.6
318.15	0.2876	1189.1	1.6
318.15	0.3511	1199.1	1.6
318.15	0.4297	1212.1	1.6
318.15	0.4985	1224.2	1.6
318.15	0.5715	1238	1.6
318.15	0.6465	1253.7	1.6
318.15	0.7147	1269.6	1.7
318.15	0.7784	1285.9	1.7
318.15	0.8558	1307.8	1.7
318.15	0.9326	1331.5	1.7
318.15	1	1352.9	1.7
