Measured thermophysical data. Partial molar volumes of organic solutes in water. XXVIII. Three aliphatic poly(ethylene glycols) at temperatures T = 298 K 573 K and pressures up to 30 MPa
Source: J. Chem. Thermodyn., 2017, 10.1016/j.jct.2016.07.016
Compound 1: diethylene glycol, C4H10O3, InChI=1S/C4H10O3/c5-1-3-7-4-2-6/h5-6H,1-4H2, purity 99%
Compound 2: triethylene glycol, C6H14O4, InChI=1S/C6H14O4/c7-1-3-9-5-6-10-4-2-8/h7-8H,1-6H2, purity 99%
Compound 3: tetraethylene glycol, C8H18O5, InChI=1S/C8H18O5/c9-1-3-11-5-7-13-8-6-12-4-2-10/h9-10H,1-8H2, purity 99%
Compound 4: water, H2O, InChI=1S/H2O/h1H2

System: diethylene glycol + water; phases: Liquid
Property: Mass density, kg/m3 (Liquid); method: Vibrating tube method
Temperature, K	Pressure, kPa	Molality, mol/kg of diethylene glycol	Mass density, kg/m3	uncertainty
298.169	550	0.051145	0.7137	0.0316
298.169	550	0.051145	0.7152	0.0316
298.169	550	0.10253	1.426	0.0322
298.169	550	0.10253	1.4306	0.0322
298.169	550	0.10253	1.4299	0.0322
298.169	550	0.204922	2.8443	0.0334
298.169	550	0.204922	2.8413	0.0334
298.169	550	0.204922	2.8423	0.0334
298.169	550	0.297241	4.095	0.0345
298.169	550	0.297241	4.0968	0.0345
298.169	550	0.297241	4.0978	0.0345
298.169	550	0.406333	5.561	0.0358
298.169	550	0.406333	5.5631	0.0358
298.169	550	0.406333	5.5646	0.0358
298.214	15200	0.051145	0.6954	0.0332
298.214	15200	0.051145	0.6958	0.0332
298.214	15200	0.051145	0.695	0.0332
298.214	15200	0.10253	1.3918	0.0353
298.214	15200	0.10253	1.3899	0.0353
298.214	15200	0.10253	1.3899	0.0353
298.214	15200	0.204922	2.763	0.0396
298.214	15200	0.204922	2.7645	0.0396
298.214	15200	0.204922	2.7635	0.0396
298.214	15200	0.297241	3.9824	0.0435
298.214	15200	0.297241	3.9812	0.0435
298.214	15200	0.297241	3.9803	0.0435
298.214	15200	0.406333	5.4085	0.0479
298.214	15200	0.406333	5.4088	0.0479
298.214	15200	0.406333	5.4105	0.0479
298.269	30110	0.051145	0.6738	0.0347
298.269	30110	0.051145	0.6748	0.0347
298.269	30110	0.051145	0.6738	0.0347
298.269	30110	0.10253	1.3492	0.0383
298.269	30110	0.10253	1.3486	0.0383
298.269	30110	0.10253	1.3496	0.0383
298.269	30110	0.204922	2.6831	0.0456
298.269	30110	0.204922	2.6845	0.0456
298.269	30110	0.204922	2.6799	0.0456
298.269	30110	0.297241	3.8704	0.052
298.269	30110	0.297241	3.8688	0.052
298.269	30110	0.297241	3.8699	0.052
298.269	30110	0.406333	5.2532	0.0596
298.269	30110	0.406333	5.258	0.0596
298.269	30110	0.406333	5.2553	0.0596
318.187	560	0.051145	0.6801	0.0316
318.187	560	0.051145	0.6798	0.0316
318.187	560	0.051145	0.6788	0.0316
318.187	560	0.10253	1.3566	0.0322
318.187	560	0.10253	1.3555	0.0322
318.187	560	0.10253	1.3551	0.0322
318.187	560	0.204922	2.6919	0.0333
318.187	560	0.204922	2.6912	0.0333
318.187	560	0.204922	2.6901	0.0333
318.187	560	0.297241	3.8747	0.0343
318.187	560	0.297241	3.8724	0.0343
318.187	560	0.297241	3.8718	0.0343
318.187	560	0.406333	5.2525	0.0355
318.187	560	0.406333	5.2548	0.0355
318.187	560	0.406333	5.2533	0.0355
318.192	15180	0.051145	0.6663	0.0331
318.192	15180	0.051145	0.6651	0.0331
318.192	15180	0.051145	0.6632	0.0331
318.192	15180	0.10253	1.329	0.0352
318.192	15180	0.10253	1.3281	0.0351
318.192	15180	0.10253	1.3275	0.0351
318.192	15180	0.204922	2.6384	0.0392
318.192	15180	0.204922	2.6385	0.0392
318.192	15180	0.204922	2.6382	0.0392
318.192	15180	0.297241	3.7986	0.0429
318.192	15180	0.297241	3.7997	0.0429
318.192	15180	0.297241	3.7988	0.0429
318.192	15180	0.406333	5.1547	0.0471
318.192	15180	0.406333	5.1434	0.0471
318.192	15180	0.406333	5.1533	0.0471
318.219	30260	0.051145	0.6552	0.0346
318.219	30260	0.051145	0.654	0.0346
318.219	30260	0.051145	0.6548	0.0346
318.219	30260	0.10253	1.3053	0.0381
318.219	30260	0.10253	1.303	0.0381
318.219	30260	0.10253	1.3031	0.0381
318.219	30260	0.204922	2.5904	0.0451
318.219	30260	0.204922	2.5885	0.0451
318.219	30260	0.204922	2.5872	0.0451
318.219	30260	0.297241	3.7283	0.0514
318.219	30260	0.297241	3.7259	0.0513
318.219	30260	0.297241	3.725	0.0513
318.219	30260	0.406333	5.057	0.0586
318.219	30260	0.406333	5.0552	0.0586
318.219	30260	0.406333	5.0554	0.0586
338.181	560	0.051145	0.6509	0.0316
338.181	560	0.051145	0.652	0.0316
338.181	560	0.051145	0.6512	0.0316
338.181	560	0.10253	1.2958	0.0322
338.181	560	0.10253	1.2952	0.0322
338.181	560	0.10253	1.2974	0.0322
338.181	560	0.204922	2.5716	0.0333
338.181	560	0.204922	2.571	0.0333
338.181	560	0.204922	2.5696	0.0333
338.181	560	0.297241	3.6966	0.0342
338.181	560	0.297241	3.6974	0.0342
338.181	560	0.297241	3.6987	0.0342
338.181	560	0.406333	5.0095	0.0354
338.181	560	0.406333	5.0092	0.0354
338.181	560	0.406333	5.0095	0.0354
338.247	15270	0.051145	0.6449	0.0331
338.247	15270	0.051145	0.6455	0.0331
338.247	15270	0.051145	0.6439	0.0331
338.247	15270	0.10253	1.2809	0.0351
338.247	15270	0.10253	1.2804	0.0351
338.247	15270	0.10253	1.2797	0.0351
338.247	15270	0.204922	2.5397	0.039
338.247	15270	0.204922	2.5383	0.039
338.247	15270	0.204922	2.54	0.039
338.247	15270	0.297241	3.6539	0.0425
338.247	15270	0.297241	3.6533	0.0425
338.247	15270	0.297241	3.6525	0.0425
338.247	15270	0.406333	4.9497	0.0466
338.247	15270	0.406333	4.9493	0.0466
338.247	15270	0.406333	4.9491	0.0466
338.223	30130	0.051145	0.6342	0.0354
338.223	30130	0.051145	0.6353	0.0354
338.223	30130	0.051145	0.6347	0.0354
338.223	30130	0.10253	1.2576	0.0381
338.223	30130	0.10253	1.262	0.0382
338.223	30130	0.10253	1.2591	0.0382
338.223	30130	0.204922	2.4986	0.0446
338.223	30130	0.204922	2.5018	0.0447
338.223	30130	0.204922	2.5007	0.0447
338.223	30130	0.297241	3.5954	0.0506
338.223	30130	0.297241	3.5997	0.0506
338.223	30130	0.297241	3.6003	0.0506
338.223	30130	0.406333	4.8723	0.0576
338.223	30130	0.406333	4.8778	0.0576
338.223	30130	0.406333	4.8781	0.0576
358.248	550	0.051145	0.6292	0.0323
358.248	550	0.051145	0.626	0.0323
358.248	550	0.051145	0.6285	0.0323
358.248	550	0.10253	1.2467	0.0327
358.248	550	0.10253	1.2502	0.0327
358.248	550	0.10253	1.2479	0.0327
358.248	550	0.204922	2.4719	0.0336
358.248	550	0.204922	2.4729	0.0336
358.248	550	0.204922	2.4713	0.0336
358.248	550	0.297241	3.5526	0.0343
358.248	550	0.297241	3.553	0.0343
358.248	550	0.297241	3.5555	0.0343
358.248	550	0.406333	4.811	0.0354
358.248	550	0.406333	4.8106	0.0354
358.248	550	0.406333	4.813	0.0354
358.24	15270	0.054252	0.6585	0.0346
358.24	15270	0.054252	0.6585	0.0346
358.24	15270	0.054252	0.6586	0.0346
358.24	15270	0.101085	1.2223	0.0361
358.24	15270	0.101085	1.2203	0.0361
358.24	15270	0.101085	1.2179	0.0361
358.24	15270	0.204922	2.4534	0.0392
358.24	15270	0.204922	2.4527	0.0392
358.24	15270	0.204922	2.4535	0.0392
358.24	15270	0.297241	3.5285	0.0423
358.24	15270	0.297241	3.527	0.0423
358.24	15270	0.297241	3.5261	0.0423
358.24	15270	0.406333	4.7744	0.0462
358.24	15270	0.406333	4.7764	0.0462
358.24	15270	0.406333	4.7771	0.0462
358.209	30030	0.054252	0.6543	0.0371
358.209	30030	0.054252	0.6518	0.0371
358.209	30030	0.054252	0.653	0.0371
358.209	30030	0.101085	1.2108	0.0395
358.209	30030	0.101085	1.2083	0.0394
358.209	30030	0.101085	1.2124	0.0395
358.209	30030	0.206459	2.4481	0.0449
358.209	30030	0.206459	2.4483	0.0449
358.209	30030	0.206459	2.4477	0.0449
358.209	30030	0.293082	3.4515	0.05
358.209	30030	0.293082	3.4455	0.0499
358.209	30030	0.293082	3.4501	0.05
358.209	30030	0.404954	4.7181	0.0568
358.209	30030	0.404954	4.722	0.0569
358.209	30030	0.404954	4.7208	0.0569
373.189	540	0.054452	0.6499	0.0336
373.189	540	0.054452	0.6506	0.0336
373.189	540	0.054452	0.6508	0.0336
373.189	540	0.101085	1.1964	0.034
373.189	540	0.101085	1.1956	0.034
373.189	540	0.101085	1.1964	0.034
373.189	540	0.206459	2.4203	0.0348
373.189	540	0.206459	2.4204	0.0348
373.189	540	0.206459	2.4199	0.0348
373.189	540	0.293082	3.4079	0.0355
373.189	540	0.293082	3.4084	0.0355
373.189	540	0.293082	3.4075	0.0355
373.189	540	0.404954	4.6627	0.0364
373.189	540	0.404954	4.662	0.0364
373.189	540	0.404954	4.662	0.0364
373.176	15190	0.054452	0.6487	0.036
373.176	15190	0.054452	0.6488	0.036
373.176	15190	0.054452	0.6492	0.036
373.176	15190	0.101085	1.1912	0.0373
373.176	15190	0.101085	1.193	0.0373
373.176	15190	0.101085	1.1916	0.0373
373.176	15190	0.206459	2.4118	0.0404
373.176	15190	0.206459	2.412	0.0404
373.176	15190	0.206459	2.4068	0.0404
373.176	15190	0.293082	3.397	0.0429
373.176	15190	0.293082	3.3984	0.0429
373.176	15190	0.293082	3.3975	0.0429
373.176	15190	0.404954	4.6475	0.0461
373.176	15190	0.404954	4.6475	0.0461
373.176	15190	0.404954	4.6487	0.0461
373.244	30120	0.054452	0.6461	0.0385
373.244	30120	0.054452	0.6454	0.0385
373.244	30120	0.054452	0.6443	0.0385
373.244	30120	0.101085	1.1845	0.0408
373.244	30120	0.101085	1.1846	0.0408
373.244	30120	0.101085	1.1838	0.0408
373.244	30120	0.206459	2.3965	0.046
373.244	30120	0.206459	2.3962	0.046
373.244	30120	0.206459	2.3951	0.046
373.244	30120	0.293082	3.3757	0.0504
373.244	30120	0.293082	3.3757	0.0504
373.244	30120	0.293082	3.3783	0.0504
373.244	30120	0.404954	4.6202	0.0567
373.244	30120	0.404954	4.6211	0.0567
373.244	30120	0.404954	4.6184	0.0567
398.198	2000	0.054452	0.625	0.0368
398.198	2000	0.054452	0.625	0.0368
398.198	2000	0.101085	1.1472	0.0373
398.198	2000	0.101085	1.1533	0.0373
398.198	2000	0.101085	1.1491	0.0373
398.198	2000	0.206459	2.3238	0.0382
398.198	2000	0.206459	2.3184	0.0382
398.198	2000	0.206459	2.3202	0.0382
398.198	2000	0.293082	3.269	0.039
398.198	2000	0.293082	3.2742	0.039
398.198	2000	0.293082	3.2701	0.039
398.198	2000	0.404954	4.4718	0.0401
398.198	2000	0.404954	4.4719	0.0401
398.198	2000	0.404954	4.4728	0.0401
398.206	15290	0.054452	0.6314	0.0391
398.206	15290	0.054452	0.6268	0.0391
398.206	15290	0.054452	0.6312	0.0391
398.206	15290	0.101085	1.15	0.0403
398.206	15290	0.101085	1.1494	0.0403
398.206	15290	0.101085	1.1458	0.0403
398.206	15290	0.206459	2.3209	0.0431
398.206	15290	0.206459	2.3255	0.0431
398.206	15290	0.206459	2.3217	0.0431
398.206	15290	0.293082	3.2762	0.0455
398.206	15290	0.293082	3.2744	0.0455
398.206	15290	0.293082	3.2736	0.0455
398.206	15290	0.404954	4.4789	0.0485
398.206	15290	0.404954	4.4829	0.0485
398.206	15290	0.404954	4.4747	0.0485
398.2	30340	0.054452	0.6297	0.0417
398.2	30340	0.054452	0.6268	0.0417
398.2	30340	0.054452	0.6394	0.0417
398.2	30340	0.101085	1.1494	0.0438
398.2	30340	0.101085	1.1508	0.0438
398.2	30340	0.101085	1.1464	0.0438
398.2	30340	0.206459	2.3247	0.0487
398.2	30340	0.206459	2.3252	0.0487
398.2	30340	0.206459	2.3242	0.0487
398.2	30340	0.293082	3.2765	0.0528
398.2	30340	0.293082	3.2753	0.0528
398.2	30340	0.293082	3.2749	0.0528
398.2	30340	0.404954	4.4794	0.0582
398.2	30340	0.404954	4.4788	0.0582
398.2	30340	0.404954	4.4831	0.0582
423.149	2010	0.054452	0.6038	0.041
423.149	2010	0.054452	0.6048	0.041
423.149	2010	0.054452	0.6098	0.041
423.149	2010	0.101085	1.1049	0.0414
423.149	2010	0.101085	1.1131	0.0414
423.149	2010	0.101085	1.1022	0.0414
423.149	2010	0.206459	2.2335	0.0423
423.149	2010	0.206459	2.2396	0.0423
423.149	2010	0.206459	2.2313	0.0423
423.149	2010	0.293082	3.1501	0.0431
423.149	2010	0.293082	3.1537	0.0431
423.149	2010	0.293082	3.1548	0.0431
423.149	2010	0.404954	4.3106	0.044
423.149	2010	0.404954	4.313	0.044
423.149	2010	0.404954	4.3117	0.044
423.144	15040	0.054452	0.6105	0.0432
423.144	15040	0.054452	0.6123	0.0432
423.144	15040	0.054452	0.6103	0.0432
423.144	15040	0.101085	1.1187	0.0444
423.144	15040	0.101085	1.1224	0.0444
423.144	15040	0.101085	1.115	0.0444
423.144	15040	0.206459	2.2537	0.047
423.144	15040	0.206459	2.254	0.047
423.144	15040	0.206459	2.2563	0.047
423.144	15040	0.293082	3.1793	0.0492
423.144	15040	0.293082	3.1767	0.0492
423.144	15040	0.293082	3.1789	0.0492
423.144	15040	0.404954	4.3423	0.052
423.144	15040	0.404954	4.3425	0.052
423.144	15040	0.404954	4.3426	0.052
423.14	30430	0.054452	0.614	0.0459
423.14	30430	0.054452	0.6168	0.0459
423.14	30430	0.054452	0.6144	0.0459
423.14	30430	0.101085	1.1243	0.0479
423.14	30430	0.101085	1.124	0.0479
423.14	30430	0.101085	1.1264	0.0479
423.14	30430	0.206459	2.2662	0.0526
423.14	30430	0.206459	2.2682	0.0526
423.14	30430	0.206459	2.2648	0.0526
423.14	30430	0.293082	3.1949	0.0565
423.14	30430	0.293082	3.1948	0.0565
423.14	30430	0.293082	3.1924	0.0565
423.14	30430	0.404954	4.3588	0.0616
423.14	30430	0.404954	4.3639	0.0616
423.14	30430	0.404954	4.366	0.0616
448.129	1740	0.054452	0.5909	0.0469
448.129	1740	0.054452	0.5864	0.0469
448.129	1740	0.054452	0.5867	0.0469
448.129	1740	0.100557	1.0692	0.0472
448.129	1740	0.100557	1.0588	0.0472
448.129	1740	0.100557	1.067	0.0472
448.129	1740	0.206459	2.1733	0.0481
448.129	1740	0.206459	2.1662	0.0481
448.129	1740	0.206459	2.17	0.0481
448.129	1740	0.293082	3.0634	0.0488
448.129	1740	0.293082	3.0709	0.0488
448.129	1740	0.293082	3.0618	0.0488
448.129	1740	0.404954	4.1838	0.0497
448.129	1740	0.404954	4.1858	0.0497
448.129	1740	0.404954	4.1849	0.0497
448.137	15270	0.054898	0.5946	0.0492
448.137	15270	0.054898	0.5935	0.0492
448.137	15270	0.054898	0.5964	0.0492
448.137	15270	0.100557	1.0811	0.0503
448.137	15270	0.100557	1.0817	0.0503
448.137	15270	0.100557	1.0815	0.0503
448.137	15270	0.206459	2.2004	0.0529
448.137	15270	0.206459	2.1968	0.0529
448.137	15270	0.206459	2.1984	0.0529
448.137	15270	0.293082	3.0978	0.055
448.137	15270	0.293082	3.1016	0.055
448.137	15270	0.293082	3.1008	0.055
448.137	15270	0.404954	4.2343	0.0578
448.137	15270	0.404954	4.2347	0.0578
448.137	15270	0.404954	4.2355	0.0578
448.131	30350	0.054898	0.5983	0.0518
448.131	30350	0.054898	0.5982	0.0518
448.131	30350	0.054898	0.5991	0.0518
448.131	30350	0.100557	1.0895	0.0537
448.131	30350	0.100557	1.0906	0.0537
448.131	30350	0.100557	1.0912	0.0537
448.131	30350	0.212106	2.2769	0.0585
448.131	30350	0.212106	2.2765	0.0585
448.131	30350	0.212106	2.2739	0.0585
448.131	30350	0.301282	3.2087	0.0624
448.131	30350	0.301282	3.2063	0.0624
448.131	30350	0.301282	3.2072	0.0624
448.131	30350	0.413602	4.3593	0.0674
448.131	30350	0.413602	4.3604	0.0674
448.131	30350	0.413602	4.3545	0.0674
473.149	2040	0.054898	0.5745	0.0552
473.149	2040	0.054898	0.5711	0.0552
473.149	2040	0.054898	0.5713	0.0552
473.149	2040	0.100557	1.0426	0.0556
473.149	2040	0.100557	1.0409	0.0556
473.149	2040	0.100557	1.043	0.0556
473.149	2040	0.212106	2.1745	0.0565
473.149	2040	0.212106	2.1747	0.0565
473.149	2040	0.212106	2.1733	0.0565
473.149	2040	0.301282	3.0656	0.0573
473.149	2040	0.301282	3.0653	0.0573
473.149	2040	0.301282	3.0662	0.0573
473.149	2040	0.413602	4.1694	0.0582
473.149	2040	0.413602	4.1703	0.0582
473.149	2040	0.413602	4.1699	0.0582
473.142	15070	0.054898	0.5822	0.0574
473.142	15070	0.054898	0.5827	0.0574
473.142	15070	0.054898	0.5833	0.0574
473.142	15070	0.100557	1.0608	0.0585
473.142	15070	0.100557	1.0616	0.0585
473.142	15070	0.100557	1.0606	0.0585
473.142	15070	0.212106	2.2158	0.0612
473.142	15070	0.212106	2.2151	0.0612
473.142	15070	0.212106	2.2126	0.0612
473.142	15070	0.301282	3.1193	0.0633
473.142	15070	0.301282	3.1199	0.0633
473.142	15070	0.301282	3.1195	0.0633
473.142	15070	0.413602	4.2435	0.0661
473.142	15070	0.413602	4.2422	0.0661
473.142	15070	0.413602	4.243	0.0661
473.141	30500	0.054898	0.5904	0.06
473.141	30500	0.054898	0.5894	0.06
473.141	30500	0.054898	0.5884	0.06
473.141	30500	0.100557	1.0728	0.0619
473.141	30500	0.100557	1.0738	0.0619
473.141	30500	0.100557	1.0742	0.0619
473.141	30500	0.212106	2.2404	0.0668
473.141	30500	0.212106	2.2417	0.0668
473.141	30500	0.212106	2.243	0.0668
473.141	30500	0.301282	3.1569	0.0707
473.141	30500	0.301282	3.1586	0.0707
473.141	30500	0.301282	3.1559	0.0707
473.141	30500	0.413602	4.2909	0.0756
473.141	30500	0.413602	4.2941	0.0756
473.141	30500	0.413602	4.2958	0.0756
498.183	2950	0.054898	0.5672	0.0671
498.183	2950	0.054898	0.5646	0.0671
498.183	2950	0.100557	1.0292	0.0676
498.183	2950	0.100557	1.029	0.0676
498.183	2950	0.100557	1.0261	0.0676
498.183	2950	0.212106	2.1486	0.0686
498.183	2950	0.212106	2.1476	0.0686
498.183	2950	0.212106	2.146	0.0686
498.183	2950	0.301282	3.0293	0.0695
498.183	2950	0.301282	3.0289	0.0695
498.183	2950	0.301282	3.0273	0.0695
498.183	2950	0.413602	4.1168	0.0705
498.183	2950	0.413602	4.1168	0.0705
498.183	2950	0.413602	4.1165	0.0705
498.187	15150	0.054898	0.5784	0.0691
498.187	15150	0.054898	0.5776	0.0691
498.187	15150	0.054898	0.5751	0.0691
498.187	15150	0.100557	1.0497	0.0702
498.187	15150	0.100557	1.0513	0.0702
498.187	15150	0.100557	1.051	0.0702
498.187	15150	0.212106	2.1929	0.073
498.187	15150	0.212106	2.1968	0.073
498.187	15150	0.212106	2.1919	0.073
498.187	15150	0.301282	3.0922	0.0752
498.187	15150	0.301282	3.0915	0.0752
498.187	15150	0.301282	3.0922	0.0752
498.187	15150	0.413602	4.2028	0.078
498.187	15150	0.413602	4.2045	0.078
498.187	15150	0.413602	4.2045	0.078
498.194	30170	0.054898	0.5898	0.0716
498.194	30170	0.100557	1.0753	0.0736
498.194	30170	0.100557	1.0724	0.0736
498.194	30170	0.100557	1.0727	0.0736
498.194	30170	0.212106	2.2374	0.0785
498.194	30170	0.212106	2.2357	0.0785
498.194	30170	0.212106	2.2368	0.0785
498.194	30170	0.301282	3.1483	0.0824
498.194	30170	0.301282	3.1498	0.0824
498.194	30170	0.301282	3.1505	0.0824
498.194	30170	0.413602	4.2843	0.0874
498.194	30170	0.413602	4.2803	0.0874
498.194	30170	0.413602	4.2828	0.0874
523.122	5140	0.054898	0.5665	0.0839
523.122	5140	0.054898	0.5669	0.0839
523.122	5140	0.054898	0.5657	0.0839
523.122	5140	0.100557	1.0317	0.0845
523.122	5140	0.100557	1.0315	0.0845
523.122	5140	0.212106	2.1528	0.0859
523.122	5140	0.212106	2.1546	0.0859
523.122	5140	0.212106	2.1533	0.0859
523.122	5140	0.301282	3.0384	0.087
523.122	5140	0.301282	3.0374	0.087
523.122	5140	0.301282	3.0369	0.087
523.122	5140	0.413602	4.1322	0.0884
523.122	5140	0.413602	4.1357	0.0884
523.122	5140	0.413602	4.1358	0.0884
523.116	15160	0.054898	0.5815	0.0854
523.116	15160	0.100557	1.0646	0.0866
523.116	15160	0.100557	1.0654	0.0866
523.116	15160	0.212106	2.2131	0.0895
523.116	15160	0.212106	2.2176	0.0895
523.116	15160	0.212106	2.2029	0.0895
523.116	15160	0.301282	3.12	0.0918
523.116	15160	0.301282	3.1261	0.0918
523.116	15160	0.301282	3.1312	0.0919
523.116	15160	0.413602	4.2415	0.0947
523.116	15160	0.413602	4.255	0.0947
523.116	15160	0.413602	4.2337	0.0947
523.12	30280	0.054898	0.5927	0.0878
523.12	30280	0.054898	0.5968	0.0879
523.12	30280	0.100557	1.0879	0.09
523.12	30280	0.100557	1.0861	0.09
523.12	30280	0.100557	1.0911	0.09
523.12	30280	0.212106	2.2534	0.0951
523.12	30280	0.212106	2.2601	0.0951
523.12	30280	0.301282	3.177	0.0992
523.12	30280	0.301282	3.1949	0.0993
523.12	30280	0.413602	4.3538	0.1045
523.12	30280	0.413602	4.35	0.1045
523.12	30280	0.413602	4.3521	0.1045
548.228	7470	0.056291	0.5905	0.1071
548.228	7470	0.056291	0.59	0.1071
548.228	7470	0.056291	0.5879	0.1071
548.228	7470	0.10917	1.1421	0.1082
548.228	7470	0.10917	1.1399	0.1082
548.228	7470	0.10917	1.1425	0.1082
548.228	7470	0.212106	2.2064	0.1102
548.228	7470	0.212106	2.209	0.1102
548.228	7470	0.212106	2.2068	0.1102
548.228	7470	0.298386	3.0795	0.1119
548.228	7470	0.298386	3.0804	0.1119
548.228	7470	0.298386	3.0784	0.1119
548.228	7470	0.406126	4.1601	0.114
548.228	7470	0.406126	4.1614	0.114
548.228	7470	0.406126	4.1605	0.114
548.224	15170	0.055541	0.5956	0.1083
548.224	15170	0.055541	0.597	0.1083
548.224	15170	0.055541	0.5979	0.1083
548.224	15170	0.10917	1.1592	0.1097
548.224	15170	0.10917	1.1638	0.1097
548.224	15170	0.10917	1.1721	0.1098
548.224	15170	0.212106	2.2464	0.113
548.224	15170	0.212106	2.2475	0.113
548.224	15170	0.212106	2.2483	0.113
548.224	15170	0.298386	3.1304	0.1157
548.224	15170	0.298386	3.1312	0.1158
548.224	15170	0.298386	3.1324	0.1158
548.224	15170	0.406126	4.2304	0.1192
548.224	15170	0.406126	4.234	0.1192
548.224	15170	0.406126	4.2336	0.1192
548.224	30310	0.056291	0.6177	0.1106
548.224	30310	0.056291	0.6198	0.1106
548.224	30310	0.056291	0.6222	0.1106
548.224	30310	0.10917	1.1898	0.1132
548.224	30310	0.10917	1.1958	0.1132
548.224	30310	0.10917	1.1966	0.1132
548.224	30310	0.211402	2.2877	0.1185
548.224	30310	0.211402	2.2903	0.1185
548.224	30310	0.211402	2.2901	0.1185
548.224	30310	0.298386	3.2089	0.1235
548.224	30310	0.298386	3.2116	0.1235
548.224	30310	0.298386	3.2099	0.1235
548.224	30310	0.406126	4.3366	0.1297
548.224	30310	0.406126	4.3363	0.1297
548.224	30310	0.406126	4.3384	0.1297
573.179	10000	0.056291	0.628	0.1421
573.179	10000	0.056291	0.6269	0.1421
573.179	10000	0.056291	0.6238	0.1421
573.179	10000	0.10917	1.2133	0.1435
573.179	10000	0.10917	1.2096	0.1435
573.179	10000	0.10917	1.2088	0.1435
573.179	10000	0.211402	2.3284	0.1461
573.179	10000	0.211402	2.3286	0.1461
573.179	10000	0.211402	2.3281	0.1461
573.179	10000	0.298386	3.2692	0.1483
573.179	10000	0.298386	3.266	0.1482
573.179	10000	0.298386	3.2645	0.1482
573.179	10000	0.406126	4.4175	0.1509
573.179	10000	0.406126	4.4183	0.1509
573.179	10000	0.406126	4.4136	0.1509
573.184	15240	0.056291	0.6339	0.1426
573.184	15240	0.056291	0.633	0.1426
573.184	15240	0.056291	0.6326	0.1426
573.184	15240	0.10917	1.2234	0.1445
573.184	15240	0.10917	1.222	0.1445
573.184	15240	0.10917	1.2249	0.1445
573.184	15240	0.211402	2.3459	0.148
573.184	15240	0.211402	2.3455	0.148
573.184	15240	0.211402	2.3468	0.148
573.184	15240	0.298386	3.2912	0.151
573.184	15240	0.298386	3.2915	0.151
573.184	15240	0.298386	3.2928	0.151
573.184	15240	0.406126	4.4491	0.1546
573.184	15240	0.406126	4.4508	0.1546
573.184	15240	0.406126	4.4477	0.1546
573.175	23090	0.056291	0.6424	0.1434
573.175	23090	0.056291	0.6376	0.1434
573.175	23090	0.056291	0.6385	0.1434
573.175	23090	0.10917	1.23	0.146
573.175	23090	0.10917	1.2339	0.146
573.175	23090	0.10917	1.2325	0.146
573.175	23090	0.211402	2.3756	0.151
573.175	23090	0.211402	2.3681	0.151
573.175	23090	0.211402	2.3724	0.151
573.175	23090	0.298386	3.3274	0.1551
573.175	23090	0.298386	3.3253	0.1551
573.175	23090	0.298386	3.3232	0.1551
573.175	23090	0.406126	4.5035	0.1602
573.175	23090	0.406126	4.4975	0.1602
573.175	23090	0.406126	4.4984	0.1602
573.18	30260	0.056291	0.6363	0.1441
573.18	30260	0.056291	0.6426	0.1442
573.18	30260	0.056291	0.6395	0.1441
573.18	30260	0.10917	1.2366	0.1474
573.18	30260	0.10917	1.2409	0.1474
573.18	30260	0.10917	1.244	0.1475
573.18	30260	0.211402	2.3777	0.1536
573.18	30260	0.211402	2.3839	0.1537
573.18	30260	0.211402	2.382	0.1537
573.18	30260	0.298386	3.3346	0.1589
573.18	30260	0.298386	3.345	0.1589
573.18	30260	0.298386	3.3414	0.1589
573.18	30260	0.406126	4.5112	0.1653
573.18	30260	0.406126	4.5163	0.1653
573.18	30260	0.406126	4.5215	0.1654

System: triethylene glycol + water; phases: Liquid
Property: Mass density, kg/m3 (Liquid); method: Vibrating tube method
Temperature, K	Pressure, kPa	Molality, mol/kg of triethylene glycol	Mass density, kg/m3	uncertainty
298.167	550	0.054438	1.1459	0.032
298.167	550	0.054438	1.1427	0.032
298.167	550	0.054438	1.144	0.032
298.167	550	0.101768	2.1284	0.0328
298.167	550	0.101768	2.1291	0.0328
298.167	550	0.101768	2.1296	0.0328
298.167	550	0.20121	4.1696	0.0346
298.167	550	0.20121	4.1696	0.0346
298.167	550	0.20121	4.1716	0.0346
298.167	550	0.302544	6.2106	0.0364
298.167	550	0.302544	6.2112	0.0364
298.167	550	0.302544	6.2128	0.0364
298.167	550	0.400935	8.1548	0.038
298.167	550	0.400935	8.1544	0.038
298.167	550	0.400935	8.1562	0.038
298.215	15200	0.054438	1.1136	0.0345
298.215	15200	0.054438	1.11	0.0345
298.215	15200	0.054438	1.1097	0.0345
298.215	15200	0.101768	2.0658	0.0375
298.215	15200	0.101768	2.0695	0.0375
298.215	15200	0.101768	2.0662	0.0375
298.215	15200	0.20121	4.0541	0.0437
298.215	15200	0.20121	4.0528	0.0437
298.215	15200	0.20121	4.0535	0.0437
298.215	15200	0.302544	6.0423	0.0499
298.215	15200	0.302544	6.0412	0.0499
298.215	15200	0.302544	6.0388	0.0499
298.215	15200	0.400935	7.9321	0.0558
298.215	15200	0.400935	7.9294	0.0558
298.215	15200	0.400935	7.9292	0.0558
298.308	30110	0.054438	1.0824	0.0369
298.308	30110	0.054438	1.0765	0.0369
298.308	30110	0.054438	1.0757	0.0369
298.308	30110	0.101768	2.0041	0.0419
298.308	30110	0.101768	2.0095	0.0419
298.308	30110	0.101768	2.0075	0.0419
298.308	30110	0.20121	3.9385	0.0524
298.308	30110	0.20121	3.941	0.0524
298.308	30110	0.20121	3.9372	0.0524
298.308	30110	0.302544	5.8716	0.0629
298.308	30110	0.302544	5.8739	0.0629
298.308	30110	0.302544	5.8719	0.0629
298.308	30110	0.400935	7.7122	0.0729
298.308	30110	0.400935	7.7096	0.0729
298.308	30110	0.400935	7.7117	0.0729
318.187	560	0.054438	1.078	0.0319
318.187	560	0.054438	1.0781	0.0319
318.187	560	0.054438	1.0778	0.0319
318.187	560	0.101768	2.0074	0.0327
318.187	560	0.101768	2.0064	0.0327
318.187	560	0.101768	2.0064	0.0327
318.187	560	0.20121	3.9302	0.0344
318.187	560	0.20121	3.9275	0.0344
318.187	560	0.20121	3.9273	0.0344
318.187	560	0.302544	5.841	0.036
318.187	560	0.302544	5.8408	0.036
318.187	560	0.302544	5.842	0.036
318.187	560	0.400935	7.6562	0.0376
318.187	560	0.400935	7.6565	0.0376
318.187	560	0.400935	7.6557	0.0376
318.193	15180	0.054438	1.0565	0.0343
318.193	15180	0.054438	1.0554	0.0343
318.193	15180	0.054438	1.0572	0.0343
318.193	15180	0.101768	1.9675	0.0372
318.193	15180	0.101768	1.9678	0.0372
318.193	15180	0.101768	1.9674	0.0372
318.193	15180	0.20121	3.8519	0.043
318.193	15180	0.20121	3.8507	0.043
318.193	15180	0.20121	3.8521	0.043
318.193	15180	0.302544	5.7319	0.0489
318.193	15180	0.302544	5.7311	0.0489
318.193	15180	0.302544	5.7311	0.0489
318.193	15180	0.400935	7.5151	0.0545
318.193	15180	0.400935	7.5125	0.0545
318.193	15180	0.400935	7.5153	0.0545
318.221	30260	0.054438	1.0376	0.0367
318.221	30260	0.054438	1.0364	0.0367
318.221	30260	0.054438	1.0364	0.0367
318.221	30260	0.101768	1.9321	0.0416
318.221	30260	0.101768	1.9299	0.0415
318.221	30260	0.101768	1.9289	0.0415
318.221	30260	0.20121	3.7795	0.0516
318.221	30260	0.20121	3.7793	0.0516
318.221	30260	0.20121	3.7783	0.0516
318.221	30260	0.302544	5.6263	0.0617
318.221	30260	0.302544	5.6257	0.0617
318.221	30260	0.302544	5.6237	0.0617
318.221	30260	0.400935	7.3726	0.0713
318.221	30260	0.400935	7.3726	0.0713
318.221	30260	0.400935	7.3738	0.0713
338.182	560	0.054438	1.0272	0.0319
338.182	560	0.054438	1.0275	0.0319
338.182	560	0.054438	1.0282	0.0319
338.182	560	0.101768	1.9125	0.0327
338.182	560	0.101768	1.913	0.0327
338.182	560	0.101768	1.9109	0.0327
338.182	560	0.20121	3.7371	0.0343
338.182	560	0.20121	3.7376	0.0343
338.182	560	0.20121	3.7376	0.0343
338.182	560	0.302544	5.5561	0.0358
338.182	560	0.302544	5.5549	0.0358
338.182	560	0.302544	5.5565	0.0358
338.182	560	0.400935	7.2723	0.0373
338.182	560	0.400935	7.2713	0.0373
338.182	560	0.400935	7.2718	0.0373
338.25	15270	0.054438	1.0152	0.0342
338.25	15270	0.054438	1.0159	0.0342
338.25	15270	0.054438	1.0154	0.0342
338.25	15270	0.101768	1.8886	0.037
338.25	15270	0.101768	1.8881	0.037
338.25	15270	0.101768	1.888	0.037
338.25	15270	0.20121	3.692	0.0426
338.25	15270	0.20121	3.6925	0.0426
338.25	15270	0.20121	3.6924	0.0426
338.25	15270	0.302544	5.4901	0.0483
338.25	15270	0.302544	5.4887	0.0483
338.25	15270	0.302544	5.4889	0.0483
338.25	15270	0.400935	7.1829	0.0536
338.25	15270	0.400935	7.1832	0.0536
338.25	15270	0.400935	7.183	0.0536
338.225	30130	0.054438	1.0006	0.037
338.225	30130	0.054438	0.9989	0.037
338.225	30130	0.054438	0.9996	0.037
338.225	30130	0.101768	1.8592	0.0412
338.225	30130	0.101768	1.8612	0.0412
338.225	30130	0.101768	1.8608	0.0412
338.225	30130	0.20121	3.635	0.0508
338.225	30130	0.20121	3.6396	0.0509
338.225	30130	0.20121	3.6399	0.0509
338.225	30130	0.302544	5.4089	0.0605
338.225	30130	0.302544	5.4159	0.0605
338.225	30130	0.302544	5.412	0.0605
338.225	30130	0.400935	7.0792	0.0696
338.225	30130	0.400935	7.0813	0.0696
338.225	30130	0.400935	7.0831	0.0696
358.249	550	0.054438	0.9863	0.0325
358.249	550	0.054438	0.9877	0.0325
358.249	550	0.054438	0.9862	0.0325
358.249	550	0.101768	1.8319	0.0331
358.249	550	0.101768	1.8342	0.0331
358.249	550	0.101768	1.8368	0.0331
358.249	550	0.20121	3.5795	0.0344
358.249	550	0.20121	3.5838	0.0344
358.249	550	0.20121	3.5844	0.0344
358.249	550	0.302544	5.3215	0.0358
358.249	550	0.302544	5.3265	0.0358
358.249	550	0.302544	5.3283	0.0358
358.249	550	0.400935	6.9546	0.0372
358.249	550	0.400935	6.9572	0.0372
358.249	550	0.400935	6.9533	0.0372
358.24	15270	0.051181	0.9211	0.0353
358.24	15270	0.051181	0.9197	0.0353
358.24	15270	0.051181	0.9207	0.0353
358.24	15270	0.101768	1.8193	0.0376
358.24	15270	0.101768	1.819	0.0376
358.24	15270	0.101768	1.819	0.0376
358.24	15270	0.20121	3.5579	0.0424
358.24	15270	0.20121	3.5569	0.0424
358.24	15270	0.20121	3.5564	0.0424
358.24	15270	0.302544	5.2854	0.0478
358.24	15270	0.302544	5.2819	0.0478
358.24	15270	0.302544	5.2863	0.0479
358.24	15270	0.400935	6.909	0.0529
358.24	15270	0.400935	6.9054	0.0529
358.24	15270	0.400935	6.9054	0.0529
358.21	30020	0.051181	0.912	0.0382
358.21	30020	0.051181	0.9125	0.0382
358.21	30020	0.051181	0.9131	0.0382
358.21	30020	0.098119	1.7408	0.0418
358.21	30020	0.098119	1.7369	0.0418
358.21	30020	0.098119	1.7371	0.0418
358.21	30020	0.211506	3.7018	0.0513
358.21	30020	0.211506	3.6997	0.0513
358.21	30020	0.211506	3.6966	0.0513
358.21	30020	0.293621	5.0838	0.0588
358.21	30020	0.293621	5.0839	0.0588
358.21	30020	0.293621	5.084	0.0588
358.21	30020	0.387347	6.6338	0.0672
358.21	30020	0.387347	6.634	0.0672
358.21	30020	0.387347	6.636	0.0672
373.189	540	0.051181	0.9006	0.0338
373.189	540	0.051181	0.9007	0.0338
373.189	540	0.051181	0.9009	0.0338
373.189	540	0.098119	1.7158	0.0344
373.189	540	0.098119	1.7159	0.0344
373.189	540	0.098119	1.7142	0.0344
373.189	540	0.211506	3.6452	0.0357
373.189	540	0.211506	3.644	0.0357
373.189	540	0.211506	3.6464	0.0357
373.189	540	0.293621	5.0076	0.0367
373.189	540	0.293621	5.0082	0.0367
373.189	540	0.293621	5.0065	0.0367
373.189	540	0.387347	6.5296	0.0377
373.189	540	0.387347	6.5298	0.0377
373.189	540	0.387347	6.5311	0.0377
373.176	15190	0.051181	0.8965	0.0366
373.176	15190	0.051181	0.8976	0.0366
373.176	15190	0.098119	1.7088	0.0386
373.176	15190	0.098119	1.7091	0.0386
373.176	15190	0.098119	1.7072	0.0386
373.176	15190	0.211506	3.6335	0.0435
373.176	15190	0.211506	3.6323	0.0435
373.176	15190	0.211506	3.6324	0.0435
373.176	15190	0.293621	4.9957	0.0472
373.176	15190	0.293621	4.9934	0.0472
373.176	15190	0.293621	4.9921	0.0472
373.176	15190	0.387347	6.5119	0.052
373.176	15190	0.387347	6.512	0.052
373.176	15190	0.387347	6.5113	0.052
373.245	30120	0.051181	0.8926	0.0396
373.245	30120	0.051181	0.8911	0.0396
373.245	30120	0.051181	0.8914	0.0396
373.245	30120	0.098119	1.6995	0.043
373.245	30120	0.098119	1.698	0.043
373.245	30120	0.098119	1.6985	0.043
373.245	30120	0.211506	3.6114	0.0515
373.245	30120	0.211506	3.612	0.0515
373.245	30120	0.211506	3.6126	0.0515
373.245	30120	0.293621	4.9662	0.0586
373.245	30120	0.293621	4.965	0.0586
373.245	30120	0.293621	4.966	0.0586
373.245	30120	0.387347	6.477	0.0668
373.245	30120	0.387347	6.4787	0.0669
373.245	30120	0.387347	6.4775	0.0669
398.199	2000	0.051181	0.8614	0.037
398.199	2000	0.051181	0.8564	0.037
398.199	2000	0.051181	0.8622	0.037
398.199	2000	0.098119	1.6402	0.0377
398.199	2000	0.098119	1.6402	0.0377
398.199	2000	0.098119	1.6402	0.0377
398.199	2000	0.211506	3.485	0.0392
398.199	2000	0.211506	3.4851	0.0392
398.199	2000	0.211506	3.4859	0.0392
398.199	2000	0.293621	4.7893	0.0403
398.199	2000	0.293621	4.7837	0.0403
398.199	2000	0.293621	4.7907	0.0403
398.199	2000	0.387347	6.242	0.0416
398.199	2000	0.387347	6.2402	0.0416
398.199	2000	0.387347	6.242	0.0416
398.207	15300	0.051181	0.8623	0.0396
398.207	15300	0.051181	0.8602	0.0396
398.207	15300	0.051181	0.8573	0.0396
398.207	15300	0.098119	1.6425	0.0415
398.207	15300	0.098119	1.6404	0.0415
398.207	15300	0.098119	1.6409	0.0415
398.207	15300	0.211506	3.4905	0.046
398.207	15300	0.211506	3.4903	0.046
398.207	15300	0.211506	3.4879	0.046
398.207	15300	0.293621	4.7964	0.0493
398.207	15300	0.293621	4.8099	0.0493
398.207	15300	0.293621	4.7968	0.0493
398.207	15300	0.387347	6.2565	0.0531
398.207	15300	0.387347	6.2771	0.0531
398.207	15300	0.387347	6.25	0.0531
398.199	30340	0.051181	0.8621	0.0426
398.199	30340	0.051181	0.8618	0.0426
398.199	30340	0.051181	0.8594	0.0426
398.199	30340	0.098119	1.6454	0.0458
398.199	30340	0.098119	1.6447	0.0458
398.199	30340	0.098119	1.6428	0.0458
398.199	30340	0.211506	3.4941	0.0538
398.199	30340	0.211506	3.4936	0.0538
398.199	30340	0.211506	3.4925	0.0538
398.199	30340	0.293621	4.8025	0.0596
398.199	30340	0.293621	4.8014	0.0596
398.199	30340	0.293621	4.8013	0.0596
398.199	30340	0.387347	6.2577	0.0672
398.199	30340	0.387347	6.258	0.0672
398.199	30340	0.387347	6.2579	0.0672
423.151	2010	0.051181	0.8273	0.0412
423.151	2010	0.051181	0.8195	0.0412
423.151	2010	0.051181	0.8254	0.0412
423.151	2010	0.098119	1.5728	0.0418
423.151	2010	0.098119	1.577	0.0418
423.151	2010	0.098119	1.5678	0.0418
423.151	2010	0.211506	3.3473	0.0432
423.151	2010	0.211506	3.3506	0.0432
423.151	2010	0.211506	3.3398	0.0432
423.151	2010	0.293621	4.6031	0.0443
423.151	2010	0.293621	4.613	0.0443
423.151	2010	0.293621	4.5992	0.0443
423.151	2010	0.387347	5.9962	0.0455
423.151	2010	0.387347	5.9961	0.0455
423.151	2010	0.387347	6.0019	0.0455
423.144	15050	0.051181	0.8337	0.0437
423.144	15050	0.051181	0.8363	0.0437
423.144	15050	0.051181	0.8323	0.0437
423.144	15050	0.098119	1.5897	0.0455
423.144	15050	0.098119	1.5876	0.0455
423.144	15050	0.098119	1.5864	0.0455
423.144	15050	0.211506	3.3752	0.0497
423.144	15050	0.211506	3.3745	0.0497
423.144	15050	0.211506	3.374	0.0497
423.144	15050	0.293621	4.6395	0.0528
423.144	15050	0.293621	4.6394	0.0528
423.144	15050	0.293621	4.6388	0.0528
423.144	15050	0.387347	6.0437	0.0562
423.144	15050	0.387347	6.0449	0.0562
423.144	15050	0.387347	6.0449	0.0562
423.141	30430	0.051181	0.8403	0.0468
423.141	30430	0.051181	0.8425	0.0468
423.141	30430	0.051181	0.8386	0.0468
423.141	30430	0.098119	1.5943	0.0498
423.141	30430	0.098119	1.5962	0.0498
423.141	30430	0.098119	1.602	0.0498
423.141	30430	0.211506	3.3943	0.0574
423.141	30430	0.211506	3.3952	0.0574
423.141	30430	0.211506	3.3971	0.0574
423.141	30430	0.293621	4.6634	0.063
423.141	30430	0.293621	4.6654	0.063
423.141	30430	0.293621	4.6654	0.063
423.141	30430	0.387347	6.0776	0.0693
423.141	30430	0.387347	6.0797	0.0693
423.141	30430	0.387347	6.0771	0.0693
448.13	1740	0.051181	0.7998	0.047
448.13	1740	0.051181	0.7927	0.047
448.13	1740	0.051181	0.7954	0.047
448.13	1740	0.098119	1.5221	0.0476
448.13	1740	0.098119	1.5226	0.0476
448.13	1740	0.098119	1.5222	0.0476
448.13	1740	0.211506	3.236	0.0489
448.13	1740	0.211506	3.2335	0.0489
448.13	1740	0.211506	3.2367	0.0489
448.13	1740	0.293621	4.4505	0.0499
448.13	1740	0.293621	4.4398	0.0499
448.13	1740	0.293621	4.4523	0.0499
448.13	1740	0.387347	5.8006	0.051
448.13	1740	0.387347	5.7944	0.051
448.13	1740	0.387347	5.8	0.051
448.138	15270	0.055643	0.877	0.0498
448.138	15270	0.055643	0.8792	0.0498
448.138	15270	0.055643	0.88	0.0498
448.138	15270	0.098119	1.542	0.0513
448.138	15270	0.098119	1.5429	0.0513
448.138	15270	0.098119	1.5411	0.0513
448.138	15270	0.191756	2.9798	0.0547
448.138	15270	0.191756	2.9782	0.0547
448.138	15270	0.191756	2.9784	0.0547
448.138	15270	0.293621	4.5131	0.0584
448.138	15270	0.293621	4.5126	0.0584
448.138	15270	0.293621	4.51	0.0584
448.138	15270	0.387347	5.8818	0.0618
448.138	15270	0.387347	5.8828	0.0618
448.138	15270	0.387347	5.8827	0.0618
448.131	30350	0.055643	0.8855	0.0529
448.131	30350	0.055643	0.8899	0.0529
448.131	30350	0.055643	0.8853	0.0529
448.131	30350	0.104937	1.6641	0.056
448.131	30350	0.104937	1.6622	0.056
448.131	30350	0.104937	1.663	0.056
448.131	30350	0.191756	3.0073	0.0616
448.131	30350	0.191756	3.0037	0.0616
448.131	30350	0.191756	3.0031	0.0616
448.131	30350	0.298875	4.6251	0.0686
448.131	30350	0.298875	4.6246	0.0686
448.131	30350	0.298875	4.6218	0.0686
448.131	30350	0.401378	6.1615	0.0754
448.131	30350	0.401378	6.1625	0.0754
448.131	30350	0.401378	6.1617	0.0754
473.149	2040	0.055643	0.8394	0.0554
473.149	2040	0.055643	0.8418	0.0554
473.149	2040	0.055643	0.8393	0.0554
473.149	2040	0.104937	1.5785	0.0561
473.149	2040	0.104937	1.577	0.0561
473.149	2040	0.104937	1.5785	0.0561
473.149	2040	0.191756	2.8546	0.0571
473.149	2040	0.191756	2.8551	0.0571
473.149	2040	0.191756	2.8536	0.0571
473.149	2040	0.298875	4.3904	0.0584
473.149	2040	0.298875	4.3892	0.0584
473.149	2040	0.298875	4.3887	0.0584
473.149	2040	0.401378	5.8549	0.0596
473.149	2040	0.401378	5.8545	0.0596
473.149	2040	0.401378	5.8521	0.0596
473.141	15070	0.055643	0.8607	0.058
473.141	15070	0.055643	0.8591	0.058
473.141	15070	0.055643	0.8585	0.058
473.141	15070	0.104937	1.6099	0.0598
473.141	15070	0.104937	1.6107	0.0598
473.141	15070	0.104937	1.6089	0.0598
473.141	15070	0.191756	2.8995	0.0628
473.141	15070	0.191756	2.9075	0.0628
473.141	15070	0.191756	2.91	0.0628
473.141	15070	0.298875	4.4749	0.0666
473.141	15070	0.298875	4.4759	0.0666
473.141	15070	0.298875	4.4729	0.0666
473.141	15070	0.401378	5.9687	0.0703
473.141	15070	0.401378	5.9696	0.0703
473.141	15070	0.401378	5.9675	0.0703
473.141	30510	0.055643	0.8701	0.0611
473.141	30510	0.055643	0.8733	0.0611
473.141	30510	0.055643	0.8703	0.0611
473.141	30510	0.104937	1.6308	0.0642
473.141	30510	0.104937	1.6307	0.0642
473.141	30510	0.104937	1.6327	0.0642
473.141	30510	0.191756	2.9457	0.0698
473.141	30510	0.191756	2.9493	0.0698
473.141	30510	0.191756	2.9494	0.0698
473.141	30510	0.298875	4.5354	0.0767
473.141	30510	0.298875	4.5378	0.0767
473.141	30510	0.298875	4.5397	0.0767
473.141	30510	0.401378	6.0493	0.0835
473.141	30510	0.401378	6.0528	0.0835
473.141	30510	0.401378	6.0522	0.0835
498.183	2950	0.055643	0.8268	0.0674
498.183	2950	0.055643	0.8286	0.0674
498.183	2950	0.055643	0.8276	0.0674
498.183	2950	0.104937	1.5453	0.0681
498.183	2950	0.104937	1.5491	0.0681
498.183	2950	0.104937	1.5487	0.0681
498.183	2950	0.191756	2.8022	0.0693
498.183	2950	0.191756	2.7993	0.0693
498.183	2950	0.191756	2.7995	0.0693
498.183	2950	0.298875	4.3106	0.0707
498.183	2950	0.298875	4.3102	0.0707
498.183	2950	0.298875	4.3082	0.0707
498.183	2950	0.401378	5.7565	0.0721
498.183	2950	0.401378	5.756	0.0721
498.183	2950	0.401378	5.7548	0.0721
498.189	15150	0.055643	0.8459	0.0697
498.189	15150	0.055643	0.8471	0.0697
498.189	15150	0.055643	0.847	0.0697
498.189	15150	0.104937	1.5881	0.0715
498.189	15150	0.104937	1.5866	0.0715
498.189	15150	0.104937	1.588	0.0715
498.189	15150	0.191756	2.8658	0.0747
498.189	15150	0.191756	2.8672	0.0747
498.189	15150	0.191756	2.8622	0.0746
498.189	15150	0.298875	4.4164	0.0785
498.189	15150	0.298875	4.4144	0.0785
498.189	15150	0.298875	4.4119	0.0785
498.189	15150	0.401378	5.8953	0.0822
498.189	15150	0.401378	5.897	0.0822
498.189	15150	0.401378	5.8943	0.0822
498.195	30170	0.055643	0.87	0.0727
498.195	30170	0.055643	0.8679	0.0727
498.195	30170	0.055643	0.8688	0.0727
498.195	30170	0.104937	1.6202	0.0759
498.195	30170	0.104937	1.6207	0.0759
498.195	30170	0.104937	1.6203	0.0759
498.195	30170	0.191756	2.9275	0.0815
498.195	30170	0.191756	2.927	0.0814
498.195	30170	0.191756	2.9255	0.0814
498.195	30170	0.298875	4.501	0.0883
498.195	30170	0.298875	4.5052	0.0884
498.195	30170	0.298875	4.5042	0.0884
498.195	30170	0.401378	6.0191	0.0951
498.195	30170	0.401378	6.0177	0.0951
498.195	30170	0.401378	6.018	0.0951
523.122	5140	0.055643	0.8263	0.0842
523.122	5140	0.055643	0.8262	0.0842
523.122	5140	0.055643	0.8258	0.0842
523.122	5140	0.104937	1.543	0.0851
523.122	5140	0.104937	1.5436	0.0851
523.122	5140	0.104937	1.5431	0.0851
523.122	5140	0.191756	2.7906	0.0867
523.122	5140	0.191756	2.7954	0.0867
523.122	5140	0.191756	2.7909	0.0867
523.122	5140	0.298875	4.3081	0.0886
523.122	5140	0.298875	4.3027	0.0886
523.122	5140	0.298875	4.3035	0.0886
523.122	5140	0.401378	5.7585	0.0905
523.122	5140	0.401378	5.7588	0.0905
523.122	5140	0.401378	5.755	0.0905
523.115	15160	0.055643	0.8459	0.0861
523.115	15160	0.055643	0.8453	0.0861
523.115	15160	0.104937	1.594	0.088
523.115	15160	0.104937	1.5937	0.088
523.115	15160	0.104937	1.5967	0.088
523.115	15160	0.191756	2.8771	0.0912
523.115	15160	0.191756	2.8827	0.0912
523.115	15160	0.191756	2.8706	0.0912
523.115	15160	0.298875	4.424	0.0952
523.115	15160	0.298875	4.4352	0.0952
523.115	15160	0.298875	4.4257	0.0952
523.115	15160	0.401378	5.9484	0.0991
523.115	15160	0.401378	5.9188	0.099
523.115	15160	0.401378	5.933	0.0991
523.12	30280	0.055643	0.8721	0.0891
523.12	30280	0.055643	0.8741	0.0891
523.12	30280	0.055643	0.8734	0.0891
523.12	30280	0.104937	1.625	0.0923
523.12	30280	0.104937	1.6438	0.0924
523.12	30280	0.104937	1.6389	0.0924
523.12	30280	0.191756	2.9518	0.0982
523.12	30280	0.191756	2.9586	0.0982
523.12	30280	0.191756	2.948	0.0982
523.12	30280	0.298875	4.5645	0.1055
523.12	30280	0.298875	4.5507	0.1054
523.12	30280	0.298875	4.5412	0.1054
523.12	30280	0.401378	6.0573	0.1132
523.12	30280	0.401378	6.0924	0.1134
523.12	30280	0.401378	6.0867	0.1134
548.228	7470	0.052334	0.7878	0.1075
548.228	7470	0.052334	0.7886	0.1075
548.228	7470	0.052334	0.7885	0.1075
548.228	7470	0.10108	1.5132	0.1089
548.228	7470	0.10108	1.5161	0.1089
548.228	7470	0.10108	1.5151	0.1089
548.228	7470	0.19947	2.9576	0.1117
548.228	7470	0.19947	2.959	0.1117
548.228	7470	0.19947	2.9583	0.1117
548.228	7470	0.296337	4.3541	0.1144
548.228	7470	0.296337	4.3574	0.1144
548.228	7470	0.296337	4.3563	0.1144
548.228	7470	0.41447	6.0268	0.1176
548.228	7470	0.41447	6.0254	0.1176
548.228	7470	0.41447	6.0244	0.1176
548.224	15170	0.052334	0.8029	0.1088
548.224	15170	0.052334	0.8056	0.1088
548.224	15170	0.052334	0.8046	0.1088
548.224	15170	0.10108	1.5463	0.1108
548.224	15170	0.10108	1.5477	0.1108
548.224	15170	0.10108	1.5494	0.1108
548.224	15170	0.19947	3.0201	0.1154
548.224	15170	0.19947	3.0238	0.1154
548.224	15170	0.19947	3.0266	0.1154
548.224	15170	0.296337	4.4513	0.1199
548.224	15170	0.296337	4.4513	0.1199
548.224	15170	0.296337	4.4495	0.1199
548.224	15170	0.41447	6.1552	0.1252
548.224	15170	0.41447	6.1559	0.1252
548.224	15170	0.41447	6.1559	0.1252
548.226	30310	0.052334	0.8315	0.1116
548.226	30310	0.052334	0.8332	0.1116
548.226	30310	0.052334	0.8321	0.1116
548.226	30310	0.10108	1.6013	0.1151
548.226	30310	0.10108	1.5993	0.1151
548.226	30310	0.10108	1.5972	0.1151
548.226	30310	0.19947	3.1171	0.123
548.226	30310	0.19947	3.1184	0.123
548.226	30310	0.19947	3.1209	0.123
548.226	30310	0.296337	4.5833	0.131
548.226	30310	0.296337	4.5845	0.131
548.226	30310	0.296337	4.5788	0.131
548.226	30310	0.41447	6.3375	0.1406
548.226	30310	0.41447	6.3377	0.1406
548.226	30310	0.41447	6.3325	0.1406
573.178	10000	0.052334	0.828	0.1426
573.178	10000	0.052334	0.8286	0.1426
573.178	10000	0.052334	0.8248	0.1426
573.178	10000	0.10108	1.5922	0.1444
573.178	10000	0.10108	1.5925	0.1444
573.178	10000	0.10108	1.5901	0.1443
573.178	10000	0.19947	3.1215	0.1479
573.178	10000	0.19947	3.1192	0.1479
573.178	10000	0.19947	3.1122	0.1479
573.178	10000	0.296337	4.5934	0.1513
573.178	10000	0.296337	4.5946	0.1513
573.178	10000	0.296337	4.5912	0.1513
573.178	10000	0.41447	6.3634	0.1554
573.178	10000	0.41447	6.3636	0.1554
573.178	10000	0.41447	6.3557	0.1554
573.183	15240	0.052334	0.8417	0.1433
573.183	15240	0.052334	0.8401	0.1433
573.183	15240	0.052334	0.841	0.1433
573.183	15240	0.10108	1.617	0.1457
573.183	15240	0.10108	1.6168	0.1457
573.183	15240	0.10108	1.6136	0.1457
573.183	15240	0.19947	3.1626	0.1506
573.183	15240	0.19947	3.1634	0.1506
573.183	15240	0.19947	3.1606	0.1506
573.183	15240	0.296337	4.6476	0.1552
573.183	15240	0.296337	4.6488	0.1552
573.183	15240	0.296337	4.6511	0.1553
573.183	15240	0.41447	6.434	0.1609
573.183	15240	0.41447	6.436	0.1609
573.183	15240	0.41447	6.4349	0.1609
573.176	23090	0.052334	0.8523	0.1444
573.176	23090	0.052334	0.8523	0.1444
573.176	23090	0.052334	0.8509	0.1444
573.176	23090	0.10108	1.6412	0.1478
573.176	23090	0.10108	1.6398	0.1478
573.176	23090	0.10108	1.6427	0.1478
573.176	23090	0.19947	3.2161	0.1546
573.176	23090	0.19947	3.2143	0.1546
573.176	23090	0.19947	3.2204	0.1547
573.176	23090	0.296337	4.7158	0.1612
573.176	23090	0.296337	4.7223	0.1612
573.176	23090	0.296337	4.7209	0.1612
573.176	23090	0.41447	6.5308	0.1691
573.176	23090	0.41447	6.5275	0.1691
573.176	23090	0.41447	6.5289	0.1691
573.18	30250	0.052334	0.859	0.1453
573.18	30250	0.052334	0.8596	0.1454
573.18	30250	0.052334	0.8555	0.1453
573.18	30250	0.10108	1.6465	0.1496
573.18	30250	0.10108	1.6486	0.1497
573.18	30250	0.10108	1.6535	0.1497
573.18	30250	0.19947	3.2395	0.1583
573.18	30250	0.19947	3.2409	0.1584
573.18	30250	0.19947	3.2418	0.1584
573.18	30250	0.296337	4.7557	0.1666
573.18	30250	0.296337	4.7564	0.1666
573.18	30250	0.296337	4.7474	0.1666
573.18	30250	0.41447	6.5784	0.1766
573.18	30250	0.41447	6.5768	0.1766
573.18	30250	0.41447	6.5794	0.1766

System: tetraethylene glycol + water; phases: Liquid
Property: Mass density, kg/m3 (Liquid); method: Vibrating tube method
Temperature, K	Pressure, kPa	Molality, mol/kg of tetraethylene glycol	Mass density, kg/m3	uncertainty
298.181	550	0.050568	1.4116	0.0322
298.181	550	0.050568	1.4124	0.0322
298.181	550	0.050568	1.4107	0.0322
298.181	550	0.096566	2.6842	0.0333
298.181	550	0.096566	2.6816	0.0333
298.181	550	0.096566	2.6813	0.0333
298.181	550	0.202749	5.5605	0.0358
298.181	550	0.202749	5.5582	0.0358
298.181	550	0.202749	5.5594	0.0358
298.181	550	0.294936	7.9933	0.0379
298.181	550	0.294936	7.9931	0.0379
298.181	550	0.294936	7.9931	0.0379
298.181	550	0.398819	10.6721	0.0402
298.181	550	0.398819	10.6671	0.0402
298.181	550	0.398819	10.6671	0.0402
298.195	15170	0.050568	1.3708	0.0353
298.195	15170	0.050568	1.3718	0.0353
298.195	15170	0.050568	1.3693	0.0353
298.195	15170	0.096566	2.6067	0.0392
298.195	15170	0.096566	2.6075	0.0392
298.195	15170	0.096566	2.6076	0.0392
298.195	15170	0.202749	5.4069	0.0479
298.195	15170	0.202749	5.4052	0.0479
298.195	15170	0.202749	5.404	0.0479
298.195	15170	0.294936	7.7757	0.0553
298.195	15170	0.294936	7.7755	0.0553
298.195	15170	0.294936	7.7742	0.0553
298.195	15170	0.398819	10.3795	0.0635
298.195	15170	0.398819	10.3776	0.0634
298.195	15170	0.398819	10.3806	0.0635
298.551	30150	0.050568	1.3315	0.0383
298.551	30150	0.050568	1.3313	0.0383
298.551	30150	0.050568	1.3322	0.0383
298.551	30150	0.096566	2.5306	0.0448
298.551	30150	0.096566	2.5306	0.0448
298.551	30150	0.096566	2.5324	0.0448
298.551	30150	0.202749	5.2508	0.0596
298.551	30150	0.202749	5.2504	0.0596
298.551	30150	0.202749	5.2462	0.0596
298.551	30150	0.294936	7.5554	0.0722
298.551	30150	0.294936	7.5568	0.0722
298.551	30150	0.294936	7.5665	0.0722
298.551	30150	0.398819	10.0984	0.086
298.551	30150	0.398819	10.0926	0.086
318.201	560	0.050568	1.3301	0.0322
318.201	560	0.050568	1.3298	0.0322
318.201	560	0.050568	1.3329	0.0322
318.201	560	0.096566	2.5238	0.0332
318.201	560	0.096566	2.5235	0.0332
318.201	560	0.096566	2.5216	0.0332
318.201	560	0.202749	5.2216	0.0355
318.201	560	0.202749	5.2216	0.0355
318.201	560	0.202749	5.2225	0.0355
318.201	560	0.294936	7.4975	0.0375
318.201	560	0.294936	7.4976	0.0375
318.201	560	0.294936	7.4992	0.0375
318.201	560	0.398819	9.9951	0.0397
318.201	560	0.398819	9.9933	0.0397
318.201	560	0.398819	9.9952	0.0397
318.223	15200	0.050568	1.3045	0.0351
318.223	15200	0.050568	1.2975	0.0351
318.223	15200	0.050568	1.3046	0.0351
318.223	15200	0.096566	2.4769	0.0388
318.223	15200	0.096566	2.4835	0.0388
318.223	15200	0.096566	2.476	0.0388
318.223	15200	0.202749	5.1255	0.0471
318.223	15200	0.202749	5.1207	0.047
318.223	15200	0.202749	5.1224	0.047
318.223	15200	0.294936	7.358	0.054
318.223	15200	0.294936	7.3594	0.054
318.223	15200	0.294936	7.3618	0.0541
318.223	15200	0.398819	9.8278	0.0618
318.223	15200	0.398819	9.8133	0.0617
318.223	15200	0.398819	9.8127	0.0617
318.219	30200	0.050568	1.2832	0.038
318.219	30200	0.050568	1.2821	0.038
318.219	30200	0.050568	1.2821	0.038
318.219	30200	0.096566	2.4302	0.0443
318.219	30200	0.096566	2.4317	0.0443
318.219	30200	0.096566	2.4319	0.0443
318.219	30200	0.202749	5.0314	0.0584
318.219	30200	0.202749	5.0322	0.0585
318.219	30200	0.202749	5.0278	0.0584
318.219	30200	0.294936	7.2298	0.0704
318.219	30200	0.294936	7.2261	0.0704
318.219	30200	0.294936	7.2235	0.0704
318.219	30200	0.398819	9.6386	0.0836
318.219	30200	0.398819	9.6407	0.0836
318.219	30200	0.398819	9.6345	0.0835
338.206	560	0.050568	1.2657	0.0322
338.206	560	0.050568	1.2662	0.0322
338.206	560	0.050568	1.2661	0.0322
338.206	560	0.096566	2.4014	0.0331
338.206	560	0.096566	2.4005	0.0331
338.206	560	0.096566	2.4009	0.0331
338.206	560	0.202749	4.9609	0.0353
338.206	560	0.202749	4.9619	0.0353
338.206	560	0.202749	4.9618	0.0353
338.206	560	0.294936	7.1166	0.0372
338.206	560	0.294936	7.1153	0.0372
338.206	560	0.294936	7.1176	0.0372
338.206	560	0.398819	9.4783	0.0393
338.206	560	0.398819	9.477	0.0393
338.206	560	0.398819	9.4782	0.0393
338.227	15270	0.050568	1.2507	0.035
338.227	15270	0.050568	1.2484	0.035
338.227	15270	0.050568	1.2491	0.035
338.227	15270	0.096566	2.3721	0.0385
338.227	15270	0.096566	2.3713	0.0385
338.227	15270	0.096566	2.37	0.0385
338.227	15270	0.202749	4.8965	0.0464
338.227	15270	0.202749	4.8967	0.0464
338.227	15270	0.202749	4.8982	0.0464
338.227	15270	0.294936	7.0299	0.0531
338.227	15270	0.294936	7.0299	0.0531
338.227	15270	0.294936	7.0302	0.0531
338.227	15270	0.398819	9.3634	0.0605
338.227	15270	0.398819	9.3634	0.0605
338.227	15270	0.398819	9.3629	0.0605
338.225	30230	0.050568	1.2324	0.0381
338.225	30230	0.050568	1.2314	0.0381
338.225	30230	0.050568	1.2301	0.0381
338.225	30230	0.096566	2.3393	0.0438
338.225	30230	0.096566	2.3398	0.0438
338.225	30230	0.096566	2.3392	0.0438
338.225	30230	0.202749	4.8327	0.0574
338.225	30230	0.202749	4.8341	0.0574
338.225	30230	0.202749	4.8333	0.0574
338.225	30230	0.294936	6.936	0.0689
338.225	30230	0.294936	6.9343	0.0689
338.225	30230	0.294936	6.9345	0.0689
338.225	30230	0.398819	9.25	0.0815
338.225	30230	0.398819	9.2491	0.0815
338.225	30230	0.398819	9.2482	0.0815
358.245	560	0.050568	1.2069	0.0327
358.245	560	0.050568	1.2111	0.0327
358.245	560	0.050568	1.2107	0.0327
358.245	560	0.096566	2.2995	0.0335
358.245	560	0.096566	2.2992	0.0335
358.245	560	0.096566	2.2965	0.0335
358.245	560	0.202749	4.7437	0.0354
358.245	560	0.202749	4.739	0.0354
358.245	560	0.202749	4.7377	0.0354
358.245	560	0.294936	6.7932	0.0371
358.245	560	0.294936	6.7905	0.0371
358.245	560	0.294936	6.7892	0.0371
358.245	560	0.398819	9.0436	0.0391
358.245	560	0.398819	9.0475	0.0391
358.245	560	0.398819	9.0461	0.0391
358.237	15270	0.051744	1.2337	0.0361
358.237	15270	0.051744	1.2316	0.0361
358.237	15270	0.051744	1.2309	0.0361
358.237	15270	0.096566	2.2796	0.0388
358.237	15270	0.096566	2.28	0.0388
358.237	15270	0.096566	2.2821	0.0388
358.237	15270	0.202749	4.7121	0.0461
358.237	15270	0.202749	4.709	0.046
358.237	15270	0.202749	4.7087	0.046
358.237	15270	0.294936	6.7436	0.0524
358.237	15270	0.294936	6.7464	0.0524
358.237	15270	0.294936	6.7436	0.0524
358.237	15270	0.398819	8.9934	0.0595
358.237	15270	0.398819	8.9857	0.0595
358.237	15270	0.398819	8.9856	0.0595
358.204	29970	0.051744	1.2238	0.0395
358.204	29970	0.051744	1.2201	0.0395
358.204	29970	0.051744	1.2192	0.0395
358.204	29970	0.095605	2.2367	0.044
358.204	29970	0.095605	2.2387	0.044
358.204	29970	0.095605	2.2387	0.044
358.204	29970	0.198557	4.5762	0.056
358.204	29970	0.198557	4.5753	0.056
358.204	29970	0.198557	4.5742	0.056
358.204	29970	0.302864	6.8716	0.0685
358.204	29970	0.302864	6.8684	0.0685
358.204	29970	0.302864	6.8699	0.0685
358.204	29970	0.399294	8.9185	0.0796
358.204	29970	0.399294	8.9161	0.0796
358.204	29970	0.399294	8.921	0.0796
373.192	540	0.051744	1.2027	0.034
373.192	540	0.051744	1.2044	0.034
373.192	540	0.051744	1.2042	0.034
373.192	540	0.095605	2.2079	0.0347
373.192	540	0.095605	2.2088	0.0347
373.192	540	0.095605	2.2078	0.0347
373.192	540	0.198557	4.5087	0.0363
373.192	540	0.198557	4.5065	0.0363
373.192	540	0.198557	4.5063	0.0363
373.192	540	0.302864	6.76	0.0379
373.192	540	0.302864	6.7599	0.0379
373.192	540	0.302864	6.7591	0.0379
373.192	540	0.399294	8.7758	0.0394
373.192	540	0.399294	8.7745	0.0394
373.192	540	0.399294	8.7754	0.0394
373.178	15170	0.051744	1.2048	0.0374
373.178	15170	0.051744	1.2022	0.0374
373.178	15170	0.051744	1.2015	0.0374
373.178	15170	0.095605	2.2019	0.0399
373.178	15170	0.095605	2.2002	0.0399
373.178	15170	0.095605	2.1999	0.0399
373.178	15170	0.198557	4.4925	0.0457
373.178	15170	0.198557	4.4904	0.0457
373.178	15170	0.198557	4.4903	0.0457
373.178	15170	0.302864	6.7449	0.0527
373.178	15170	0.302864	6.7396	0.0527
373.178	15170	0.302864	6.7385	0.0527
373.178	15170	0.399294	8.7522	0.059
373.178	15170	0.399294	8.7485	0.059
373.178	15170	0.399294	8.7482	0.059
373.245	30140	0.051744	1.1971	0.0409
373.245	30140	0.051744	1.1977	0.0409
373.245	30140	0.051744	1.1971	0.0409
373.245	30140	0.095605	2.1881	0.0451
373.245	30140	0.095605	2.1891	0.0451
373.245	30140	0.095605	2.1876	0.0451
373.245	30140	0.198557	4.47	0.0559
373.245	30140	0.198557	4.4708	0.056
373.245	30140	0.198557	4.471	0.056
373.245	30140	0.302864	6.7105	0.0681
373.245	30140	0.302864	6.7096	0.0681
373.245	30140	0.302864	6.7074	0.0681
373.245	30140	0.399294	8.7109	0.079
373.245	30140	0.399294	8.7118	0.079
373.245	30140	0.399294	8.7113	0.079
398.196	1990	0.051744	1.1526	0.0373
398.196	1990	0.051744	1.1514	0.0373
398.196	1990	0.051744	1.151	0.0373
398.196	1990	0.095605	2.1063	0.0381
398.196	1990	0.095605	2.1067	0.0381
398.196	1990	0.095605	2.105	0.0381
398.196	1990	0.198557	4.2978	0.0399
398.196	1990	0.198557	4.2978	0.0399
398.196	1990	0.198557	4.2971	0.0399
398.196	1990	0.302864	6.4467	0.0418
398.196	1990	0.302864	6.4459	0.0418
398.196	1990	0.302864	6.4471	0.0418
398.196	1990	0.399294	8.3661	0.0434
398.196	1990	0.399294	8.3654	0.0434
398.196	1990	0.399294	8.3655	0.0434
398.205	15320	0.051744	1.1545	0.0403
398.205	15320	0.051744	1.1571	0.0403
398.205	15320	0.051744	1.1567	0.0403
398.205	15320	0.095605	2.105	0.0426
398.205	15320	0.095605	2.1101	0.0426
398.205	15320	0.095605	2.1136	0.0426
398.205	15320	0.198557	4.3101	0.0481
398.205	15320	0.302864	6.4608	0.0536
398.205	15320	0.302864	6.465	0.0536
398.205	15320	0.302864	6.4655	0.0536
398.205	15320	0.399294	8.3932	0.0594
398.205	15320	0.399294	8.3917	0.0594
398.205	15320	0.399294	8.3953	0.0594
398.201	30310	0.051744	1.1613	0.0438
398.201	30310	0.051744	1.1576	0.0438
398.201	30310	0.051744	1.1549	0.0438
398.201	30310	0.095605	2.1034	0.0478
398.201	30310	0.095605	2.1139	0.0478
398.201	30310	0.095605	2.1125	0.0478
398.201	30310	0.198557	4.3081	0.0574
398.201	30310	0.198557	4.3076	0.0574
398.201	30310	0.302864	6.4549	0.0682
398.201	30310	0.302864	6.462	0.0683
398.201	30310	0.302864	6.4678	0.0683
398.201	30310	0.399294	8.3941	0.0788
398.201	30310	0.399294	8.3965	0.0789
398.201	30310	0.399294	8.3942	0.0788
423.155	2020	0.051744	1.1053	0.0414
423.155	2020	0.051744	1.1103	0.0414
423.155	2020	0.051744	1.1092	0.0414
423.155	2020	0.095605	2.0279	0.0422
423.155	2020	0.095605	2.0225	0.0422
423.155	2020	0.095605	2.0238	0.0422
423.155	2020	0.198557	4.1223	0.0439
423.155	2020	0.198557	4.1236	0.0439
423.155	2020	0.198557	4.1259	0.0439
423.155	2020	0.302864	6.1913	0.0456
423.155	2020	0.302864	6.188	0.0456
423.155	2020	0.302864	6.1891	0.0456
423.155	2020	0.399294	8.0302	0.0472
423.155	2020	0.399294	8.0283	0.0472
423.155	2020	0.399294	8.0281	0.0472
423.144	15030	0.051744	1.1208	0.0444
423.144	15030	0.051744	1.1203	0.0444
423.144	15030	0.051744	1.1193	0.0444
423.144	15030	0.095605	2.0375	0.0465
423.144	15030	0.095605	2.0375	0.0465
423.144	15030	0.095605	2.0386	0.0465
423.144	15030	0.198557	4.1592	0.0516
423.144	15030	0.198557	4.1553	0.0516
423.144	15030	0.198557	4.1567	0.0516
423.144	15030	0.302864	6.2386	0.0567
423.144	15030	0.302864	6.2427	0.0567
423.144	15030	0.302864	6.2401	0.0567
423.144	15030	0.399294	8.0936	0.0614
423.144	15030	0.399294	8.0947	0.0614
423.144	15030	0.399294	8.0969	0.0614
423.146	30500	0.051744	1.1268	0.0479
423.146	30500	0.051744	1.1293	0.0479
423.146	30500	0.051744	1.128	0.0479
423.146	30500	0.095605	2.0494	0.0517
423.146	30500	0.095605	2.0533	0.0517
423.146	30500	0.095605	2.0515	0.0517
423.146	30500	0.198557	4.1793	0.0609
423.146	30500	0.198557	4.1804	0.0609
423.146	30500	0.198557	4.1834	0.0609
423.146	30500	0.302864	6.2791	0.0703
423.146	30500	0.302864	6.2761	0.0703
423.146	30500	0.302864	6.2773	0.0703
423.146	30500	0.399294	8.1486	0.0805
423.146	30500	0.399294	8.1464	0.0805
423.146	30500	0.399294	8.1454	0.0805
448.141	1750	0.048697	1.0019	0.0472
448.141	1750	0.048697	0.9997	0.0472
448.141	1750	0.048697	1.0028	0.0472
448.141	1750	0.095605	1.9504	0.0479
448.141	1750	0.095605	1.9503	0.0479
448.141	1750	0.095605	1.95	0.0479
448.141	1750	0.198557	3.974	0.0495
448.141	1750	0.198557	3.975	0.0495
448.141	1750	0.198557	3.975	0.0495
448.141	1750	0.302864	5.9659	0.0511
448.141	1750	0.302864	5.9675	0.0511
448.141	1750	0.302864	5.9669	0.0511
448.141	1750	0.399294	7.7406	0.0525
448.141	1750	0.399294	7.7406	0.0525
448.141	1750	0.399294	7.7385	0.0525
448.138	15280	0.048697	1.0131	0.0501
448.138	15280	0.048697	1.016	0.0501
448.138	15280	0.048697	1.0141	0.0501
448.138	15280	0.095605	1.9784	0.0524
448.138	15280	0.095605	1.9778	0.0524
448.138	15280	0.095605	1.9772	0.0524
448.138	15280	0.198557	4.0313	0.0573
448.138	15280	0.198557	4.0278	0.0573
448.138	15280	0.198557	4.031	0.0573
448.138	15280	0.302864	6.0513	0.0623
448.138	15280	0.302864	6.0502	0.0623
448.138	15280	0.302864	6.0507	0.0623
448.138	15280	0.401378	7.8866	0.0669
448.138	15280	0.401378	7.8859	0.0669
448.138	15280	0.401378	7.8847	0.0669
448.129	30300	0.048697	1.0211	0.0534
448.129	30300	0.048697	1.0228	0.0534
448.129	30300	0.048697	1.0241	0.0535
448.129	30300	0.09964	2.0704	0.0577
448.129	30300	0.09964	2.074	0.0577
448.129	30300	0.09964	2.0757	0.0577
448.129	30300	0.208185	4.2518	0.0669
448.129	30300	0.208185	4.254	0.0669
448.129	30300	0.208185	4.2524	0.0669
448.129	30300	0.304682	6.1287	0.0752
448.129	30300	0.304682	6.1268	0.0752
448.129	30300	0.304682	6.1288	0.0752
448.129	30300	0.401378	7.9436	0.0842
448.129	30300	0.401378	7.9457	0.0842
448.129	30300	0.401378	7.9475	0.0842
473.136	2010	0.048697	0.9695	0.0556
473.136	2010	0.048697	0.9694	0.0556
473.136	2010	0.048697	0.9706	0.0556
473.136	2010	0.09964	1.967	0.0564
473.136	2010	0.09964	1.9658	0.0564
473.136	2010	0.09964	1.9666	0.0564
473.136	2010	0.208185	4.0367	0.0581
473.136	2010	0.208185	4.0347	0.0581
473.136	2010	0.208185	4.0358	0.0581
473.136	2010	0.304682	5.8201	0.0596
473.136	2010	0.304682	5.8197	0.0596
473.136	2010	0.304682	5.8199	0.0596
473.136	2010	0.401378	7.5495	0.061
473.136	2010	0.401378	7.5495	0.061
473.136	2010	0.401378	7.5479	0.061
473.138	15100	0.048697	0.9909	0.0583
473.138	15100	0.048697	0.9893	0.0583
473.138	15100	0.048697	0.989	0.0583
473.138	15100	0.09964	2.0046	0.0607
473.138	15100	0.09964	2.0062	0.0607
473.138	15100	0.09964	2.0046	0.0607
473.138	15100	0.208185	4.116	0.0658
473.138	15100	0.208185	4.1152	0.0658
473.138	15100	0.208185	4.1137	0.0658
473.138	15100	0.304682	5.9361	0.0703
473.138	15100	0.304682	5.9342	0.0703
473.138	15100	0.304682	5.9361	0.0703
473.138	15100	0.401378	7.6996	0.0747
473.138	15100	0.401378	7.6997	0.0747
473.138	15100	0.401378	7.6986	0.0747
473.14	30530	0.048697	1.0057	0.0617
473.14	30530	0.048697	1.0046	0.0617
473.14	30530	0.048697	1.0036	0.0617
473.14	30530	0.09964	2.0381	0.0659
473.14	30530	0.09964	2.0384	0.0659
473.14	30530	0.09964	2.0369	0.0659
473.14	30530	0.208185	4.1823	0.0751
473.14	30530	0.208185	4.1818	0.0751
473.14	30530	0.208185	4.1812	0.0751
473.14	30530	0.304682	6.0312	0.0834
473.14	30530	0.304682	6.0286	0.0834
473.14	30530	0.304682	6.0301	0.0834
473.14	30530	0.401378	7.8201	0.092
473.14	30530	0.401378	7.8211	0.092
473.14	30530	0.401378	7.8228	0.092
498.179	2940	0.048697	0.9479	0.0675
498.179	2940	0.048697	0.9449	0.0675
498.179	2940	0.048697	0.9474	0.0675
498.179	2940	0.09964	1.9237	0.0684
498.179	2940	0.09964	1.9223	0.0684
498.179	2940	0.09964	1.9207	0.0684
498.179	2940	0.208185	3.9484	0.0704
498.179	2940	0.208185	3.9488	0.0704
498.179	2940	0.208185	3.9496	0.0704
498.179	2940	0.304682	5.7021	0.0721
498.179	2940	0.304682	5.7008	0.0721
498.179	2940	0.304682	5.699	0.0721
498.179	2940	0.401378	7.4014	0.0738
498.179	2940	0.401378	7.3801	0.0737
498.179	2940	0.401378	7.4226	0.0738
498.195	15160	0.048697	0.9746	0.0701
498.195	15160	0.048697	0.9734	0.0701
498.195	15160	0.048697	0.9748	0.0701
498.195	15160	0.09964	1.9742	0.0725
498.195	15160	0.09964	1.9741	0.0725
498.195	15160	0.09964	1.9718	0.0725
498.195	15160	0.208185	4.0523	0.0776
498.195	15160	0.208185	4.0544	0.0776
498.195	15160	0.208185	4.0539	0.0776
498.195	15160	0.304682	5.8496	0.0821
498.195	15160	0.304682	5.8515	0.0821
498.195	15160	0.304682	5.85	0.0821
498.195	15160	0.401378	7.5987	0.0866
498.195	15160	0.401378	7.5982	0.0866
498.195	15160	0.401378	7.5962	0.0866
498.194	30160	0.048697	0.9967	0.0732
498.194	30160	0.048697	0.9998	0.0733
498.194	30160	0.048697	0.9992	0.0733
498.194	30160	0.09964	2.0164	0.0775
498.194	30160	0.09964	2.0176	0.0775
498.194	30160	0.09964	2.0193	0.0776
498.194	30160	0.208185	4.1398	0.0867
498.194	30160	0.208185	4.1412	0.0868
498.194	30160	0.208185	4.1413	0.0868
498.194	30160	0.304682	5.9762	0.0949
498.194	30160	0.304682	5.9746	0.0949
498.194	30160	0.304682	5.9743	0.0949
498.194	30160	0.401378	7.7498	0.1039
498.194	30160	0.401378	7.7566	0.104
498.194	30160	0.401378	7.7541	0.104
523.125	5150	0.048697	0.9433	0.0844
523.125	5150	0.048697	0.9392	0.0844
523.125	5150	0.048697	0.9447	0.0844
523.125	5150	0.09964	1.9145	0.0856
523.125	5150	0.09964	1.9168	0.0856
523.125	5150	0.09964	1.9162	0.0856
523.125	5150	0.208185	3.9381	0.0882
523.125	5150	0.208185	3.946	0.0882
523.125	5150	0.208185	3.9407	0.0882
523.125	5150	0.304682	5.7024	0.0905
523.125	5150	0.304682	5.6986	0.0905
523.125	5150	0.401378	7.4022	0.0927
523.125	5150	0.401378	7.4016	0.0927
523.125	5150	0.401378	7.3925	0.0926
523.118	15160	0.048697	0.9775	0.0864
523.118	15160	0.048697	0.9796	0.0864
523.118	15160	0.048697	0.9774	0.0864
523.118	15160	0.09964	1.9768	0.0889
523.118	15160	0.09964	1.9654	0.0889
523.118	15160	0.09964	1.9749	0.0889
523.118	15160	0.208185	4.0556	0.0942
523.118	15160	0.208185	4.0565	0.0942
523.118	15160	0.208185	4.0526	0.0942
523.118	15160	0.304682	5.8648	0.0989
523.118	15160	0.304682	5.8597	0.0989
523.118	15160	0.304682	5.8568	0.0989
523.118	15160	0.401378	7.6096	0.1039
523.118	15160	0.401378	7.6105	0.1039
523.118	15160	0.401378	7.6107	0.1039
523.121	30310	0.048697	1.0121	0.0897
523.121	30310	0.048697	1.0018	0.0896
523.121	30310	0.048697	1.0063	0.0896
523.121	30310	0.09964	2.0411	0.0942
523.121	30310	0.09964	2.0291	0.0941
523.121	30310	0.09964	2.0458	0.0942
523.121	30310	0.208185	4.1932	0.1038
523.121	30310	0.208185	4.1749	0.1037
523.121	30310	0.208185	4.1496	0.1036
523.121	30310	0.304682	6.0008	0.1129
523.121	30310	0.304682	6.0011	0.1129
523.121	30310	0.304682	6.015	0.113
523.121	30310	0.401378	7.8534	0.1231
523.121	30310	0.401378	7.8407	0.123
523.121	30310	0.401378	7.8249	0.1229
548.227	7430	0.048697	0.9601	0.1078
548.227	7430	0.048697	0.9578	0.1078
548.227	7430	0.048697	0.9595	0.1078
548.227	7430	0.09964	1.9457	0.1097
548.227	7430	0.09964	1.9464	0.1097
548.227	7430	0.09964	1.9485	0.1097
548.227	7430	0.208185	4.0096	0.1137
548.227	7430	0.208185	4.011	0.1137
548.227	7430	0.208185	4.0102	0.1137
548.227	7430	0.304682	5.8005	0.1171
548.227	7430	0.304682	5.8036	0.1171
548.227	7430	0.304682	5.8037	0.1171
548.227	7430	0.401378	7.5496	0.1205
548.227	7430	0.401378	7.5539	0.1205
548.227	7430	0.401378	7.5532	0.1205
548.227	15180	0.05521	1.1121	0.1096
548.227	15180	0.05521	1.1126	0.1096
548.227	15180	0.05521	1.113	0.1096
548.227	15180	0.09964	1.9973	0.1122
548.227	15180	0.09964	1.9985	0.1122
548.227	15180	0.09964	1.997	0.1122
548.227	15180	0.207719	4.1002	0.1188
548.227	15180	0.207719	4.1008	0.1188
548.227	15180	0.207719	4.1001	0.1188
548.227	15180	0.293558	5.7359	0.1239
548.227	15180	0.293558	5.7342	0.1239
548.227	15180	0.293558	5.7335	0.1239
548.227	15180	0.412358	7.9388	0.1308
548.227	15180	0.412358	7.9365	0.1308
548.227	15180	0.412358	7.9355	0.1308
548.232	30320	0.05541	1.1424	0.113
548.232	30320	0.05541	1.1464	0.113
548.232	30320	0.05541	1.1551	0.1131
548.232	30320	0.09964	2.0492	0.1172
548.232	30320	0.09964	2.0488	0.1172
548.232	30320	0.09964	2.0575	0.1172
548.232	30320	0.207719	4.1838	0.1289
548.232	30320	0.207719	4.2164	0.1291
548.232	30320	0.207719	4.2209	0.1291
548.232	30320	0.293558	5.8628	0.1381
548.232	30320	0.293558	5.8904	0.1382
548.232	30320	0.293558	5.8971	0.1383
548.232	30320	0.412358	8.1092	0.1504
548.232	30320	0.412358	8.1486	0.1506
548.232	30320	0.412358	8.16	0.1506
573.186	10000	0.05541	1.1392	0.1433
573.186	10000	0.05541	1.1398	0.1433
573.186	10000	0.05541	1.1414	0.1433
573.186	10000	0.108591	2.2183	0.1458
573.186	10000	0.108591	2.2151	0.1458
573.186	10000	0.108591	2.2192	0.1458
573.186	10000	0.207719	4.2087	0.1504
573.186	10000	0.207719	4.207	0.1504
573.186	10000	0.207719	4.2066	0.1504
573.186	10000	0.293558	5.8926	0.1544
573.186	10000	0.293558	5.8903	0.1544
573.186	10000	0.293558	5.8939	0.1544
573.186	10000	0.412358	8.1727	0.1597
573.186	10000	0.412358	8.1771	0.1597
573.186	10000	0.412358	8.1768	0.1597
573.183	15210	0.05541	1.1551	0.1443
573.183	15210	0.05541	1.1578	0.1443
573.183	15210	0.05541	1.1612	0.1443
573.183	15210	0.108591	2.2523	0.1477
573.183	15210	0.108591	2.2491	0.1477
573.183	15210	0.108591	2.2537	0.1477
573.183	15210	0.207719	4.2685	0.154
573.183	15210	0.207719	4.2725	0.154
573.183	15210	0.207719	4.2716	0.154
573.183	15210	0.293558	5.9676	0.1594
573.183	15210	0.293558	5.9725	0.1594
573.183	15210	0.293558	5.9719	0.1594
573.183	15210	0.412358	8.2757	0.1666
573.183	15210	0.412358	8.2794	0.1666
573.183	15210	0.412358	8.2762	0.1666
573.17	23080	0.05541	1.1797	0.1458
573.17	23080	0.05541	1.1779	0.1458
573.17	23080	0.05541	1.175	0.1458
573.17	23080	0.108591	2.2933	0.1506
573.17	23080	0.108591	2.2911	0.1506
573.17	23080	0.108591	2.2913	0.1506
573.17	23080	0.207719	4.3417	0.1595
573.17	23080	0.207719	4.3416	0.1595
573.17	23080	0.207719	4.3438	0.1595
573.17	23080	0.293558	6.0769	0.1671
573.17	23080	0.293558	6.0745	0.1671
573.17	23080	0.293558	6.0739	0.1671
573.17	23080	0.412358	8.4152	0.1773
573.17	23080	0.412358	8.4089	0.1772
573.17	23080	0.412358	8.4067	0.1772
573.186	30300	0.05541	1.1888	0.1472
573.186	30300	0.05541	1.1916	0.1472
573.186	30300	0.05541	1.1938	0.1472
573.186	30300	0.108591	2.3196	0.1534
573.186	30300	0.108591	2.3181	0.1533
573.186	30300	0.108591	2.3208	0.1534
573.186	30300	0.207719	4.3915	0.1647
573.186	30300	0.207719	4.3927	0.1647
573.186	30300	0.207719	4.3931	0.1647
573.186	30300	0.293558	6.1343	0.1742
573.186	30300	0.293558	6.1411	0.1743
573.186	30300	0.293558	6.1431	0.1743
573.186	30300	0.412358	8.4897	0.1871
573.186	30300	0.412358	8.4948	0.1871
573.186	30300	0.412358	8.4959	0.1872
