Measured thermophysical data. Binary and ternary solid-liquid phase equilibrium for the systems formed by succinic acid, urea and diethylene glycol: Determination and modelling
Source: J. Chem. Thermodyn., 2017, 10.1016/j.jct.2017.01.010
Compound 1: butanedioic acid, C4H6O4, InChI=1S/C4H6O4/c5-3(6)1-2-4(7)8/h1-2H2,(H,5,6)(H,7,8), purity 98.5%
Compound 2: urea, CH4N2O, InChI=1S/CH4N2O/c2-1(3)4/h(H4,2,3,4), purity 99.2%
Compound 3: diethylene glycol, C4H10O3, InChI=1S/C4H10O3/c5-1-3-7-4-2-6/h5-6H,1-4H2, purity 99.8%

System: butanedioic acid + diethylene glycol; phases: Liquid, Crystal
Fixed: Pressure, kPa = 101.2
Property: Mole fraction of butanedioic acid (Liquid); method: Chromatography
Temperature, K	Mole fraction of butanedioic acid	uncertainty
298.15	0.07701	0.00447
303.15	0.08209	0.00476
308.15	0.08752	0.00508
313.15	0.09319	0.00541
318.15	0.09973	0.00579
323.15	0.1069	0.0062
328.15	0.1147	0.0067
333.15	0.1238	0.0072

System: butanedioic acid + diethylene glycol; phases: Liquid
Fixed: Pressure, kPa = 101.2
Property: Mass density, kg/m3 (Liquid); method: Vibrating tube method
Temperature, K	Mass fraction of butanedioic acid	Mass density, kg/m3	uncertainty
298.15	0.08496	1150.4	50.6
313.15	0.1026	1156.1	50.9
333.15	0.1359	1198	52.7

System: urea + butanedioic acid + diethylene glycol; phases: Liquid, Crystal
Fixed: Pressure, kPa = 101.2
Property: Mass fraction of urea (Liquid); method: UV spectrophotometry
Temperature, K	Mass fraction of butanedioic acid	Mass fraction of urea	uncertainty
298.15	0	0.2315	0.012
298.15	0.00459	0.2291	0.0119
298.15	0.00911	0.2277	0.0119
298.15	0.016	0.2234	0.0116
313.15	0	0.2807	0.0146
313.15	0.01024	0.2775	0.0144
313.15	0.02013	0.273	0.0142
313.15	0.03444	0.267	0.0139
333.15	0	0.3526	0.0184
333.15	0.02329	0.3474	0.0181
333.15	0.04852	0.3423	0.0178
333.15	0.07366	0.3385	0.0176

System: urea + butanedioic acid + diethylene glycol; phases: Liquid, Crystal of intercomponent compound 1
Fixed: Pressure, kPa = 101.2
Property: Mass fraction of butanedioic acid (Liquid); method: Chromatography
Temperature, K	Mass fraction of urea	Mass fraction of butanedioic acid	uncertainty
298.15	0.2234	0.016	0.00165
298.15	0.1793	0.02141	0.00197
298.15	0.1416	0.03032	0.00249
298.15	0.1029	0.04139	0.00289
298.15	0.0581	0.06017	0.00349
298.15	0.03	0.07903	0.00424
313.15	0.267	0.03444	0.00273
313.15	0.2338	0.03936	0.00282
313.15	0.1927	0.04666	0.00317
313.15	0.1494	0.05618	0.0035
313.15	0.1092	0.06714	0.0039
313.15	0.07013	0.08128	0.00447
313.15	0.03381	0.09699	0.00511
333.15	0.3385	0.07366	0.0042
333.15	0.2972	0.07768	0.00433
333.15	0.2481	0.08264	0.00455
333.15	0.1955	0.08937	0.00488
333.15	0.1419	0.09788	0.00526
333.15	0.08406	0.1092	0.0058
333.15	0.03901	0.1211	0.0063

System: urea + butanedioic acid + diethylene glycol; phases: Liquid, Crystal
Fixed: Pressure, kPa = 101.2
Property: Mass fraction of butanedioic acid (Liquid); method: Chromatography
Temperature, K	Mass fraction of urea	Mass fraction of butanedioic acid	uncertainty
298.15	0.03	0.07903	0.00417
298.15	0.02001	0.08352	0.00435
298.15	0	0.08496	0.00442
313.15	0.03381	0.09699	0.00505
313.15	0.0175	0.09869	0.00514
313.15	0	0.1026	0.0053
333.15	0.03901	0.1211	0.0063
333.15	0.02102	0.124	0.0065
333.15	0	0.1359	0.0071

System: urea + butanedioic acid + diethylene glycol; phases: Liquid
Fixed: Pressure, kPa = 101.2
Property: Mass density, kg/m3 (Liquid); method: Vibrating tube method
Temperature, K	Mass fraction of butanedioic acid	Mass fraction of urea	Mass density, kg/m3	uncertainty
298.15	0	0.2315	1160.9	52.7
298.15	0.00459	0.2291	1175.2	51.9
298.15	0.00911	0.2277	1181.4	52.2
298.15	0.016	0.2234	1189.8	52.5
298.15	0.02141	0.1793	1182.1	52.2
298.15	0.03032	0.1416	1174.9	51.7
298.15	0.04139	0.1029	1173.2	51.7
298.15	0.06017	0.0581	1165.7	51.3
298.15	0.07903	0.03	1162.2	51.3
298.15	0.08352	0.02001	1155.6	51.1
298.15	0.08496	0	1150.4	50.6
313.15	0	0.2807	1174.2	52.4
313.15	0.01024	0.2775	1190	52.8
313.15	0.02013	0.273	1201.4	53.2
313.15	0.03444	0.267	1217	53.9
313.15	0.03936	0.2338	1209.5	53.6
313.15	0.04666	0.1927	1201.6	53.2
313.15	0.05618	0.1494	1194.9	52.9
313.15	0.06714	0.1092	1188.1	52.3
313.15	0.08128	0.07013	1181.4	52.4
313.15	0.09699	0.03381	1176.8	52.2
313.15	0.09869	0.0175	1167.5	51.8
313.15	0.1026	0	1156.1	54.4
333.15	0	0.3526	1184.5	56.4
333.15	0.02329	0.3474	1213.5	53.8
333.15	0.04852	0.3423	1243.3	55.3
333.15	0.07366	0.3385	1278.7	57
333.15	0.07768	0.2972	1267.1	56.5
333.15	0.08264	0.2481	1254.9	55.7
333.15	0.08937	0.1955	1241.6	55.2
333.15	0.09788	0.1419	1229.5	54.1
333.15	0.1092	0.08406	1217.3	53.6
333.15	0.1211	0.03901	1210	53.2
333.15	0.124	0.02102	1204.5	53
333.15	0.1359	0	1198	52.7
