Measured thermophysical data. Measurement and correlation of phase equilibria for (water + aromatic hydrocarbon) binary mixtures at T = (573 to 623) K using microfluidic mixing
Source: J. Chem. Thermodyn., 2013, 10.1016/j.jct.2012.03.001
Compound 1: 1,4-dimethylbenzene, C8H10, InChI=1S/C8H10/c1-7-3-5-8(2)6-4-7/h3-6H,1-2H3, purity 98%
Compound 2: water, H2O, InChI=1S/H2O/h1H2, purity 99.8%
Compound 3: decahydronaphthalene, C10H18, InChI=1S/C10H18/c1-2-6-10-8-4-3-7-9(10)5-1/h9-10H,1-8H2, purity 95%

System: 1,4-dimethylbenzene + water; phases: Liquid mixture 1, Liquid mixture 2
Property: Mole fraction of water (Liquid mixture 1); method: Chromatography
Temperature, K	Pressure, kPa	Mole fraction of water	uncertainty
573	11200	0.989	0.008
573	13900	0.985	0.008
573	15600	0.987	0.008
573	18000	0.986	0.008
573	20700	0.991	0.008
583	12000	0.987	0.008
583	15200	0.976	0.009
583	15600	0.983	0.008
583	19400	0.982	0.008
583	22600	0.983	0.008
593	13600	0.981	0.008
593	15600	0.968	0.008
593	17500	0.966	0.008
593	19400	0.971	0.008
593	23000	0.978	0.008
603	13300	0.997	0.003
603	14100	0.993	0.007
603	15100	0.979	0.008
603	16200	0.973	0.009
603	18200	0.98	0.008
603	20200	0.978	0.008
603	21100	0.984	0.008
613	16200	0.996	0.004
613	17300	0.979	0.009
623	17200	0.994	0.006
623	19700	0.981	0.008

System: 1,4-dimethylbenzene + water; phases: Liquid mixture 2, Liquid mixture 1
Property: Mole fraction of water (Liquid mixture 2); method: Chromatography
Temperature, K	Pressure, kPa	Mole fraction of water	uncertainty
573	11200	0.684	0.038
573	13900	0.637	0.024
573	15600	0.645	0.023
573	18000	0.646	0.02
573	20700	0.567	0.023
583	12000	0.855	0.041
583	15200	0.753	0.019
583	15600	0.748	0.021
583	19400	0.708	0.017
583	22600	0.684	0.016
593	13600	0.88	0.024
593	15600	0.814	0.018
593	17500	0.804	0.017
593	19400	0.783	0.014
593	23000	0.748	0.016
603	13300	0.97	0.019
603	14100	0.946	0.019
603	15100	0.906	0.019
603	16200	0.87	0.02
603	18200	0.867	0.008
603	20200	0.84	0.013
603	21100	0.838	0.013
613	16200	0.977	0.023
613	17300	0.927	0.016
623	17200	0.98	0.013
623	19700	0.944	0.013

System: 1,4-dimethylbenzene + water; phases: Gas, Liquid
Property: Mole fraction of water (Gas); method: Chromatography
Temperature, K	Pressure, kPa	Mole fraction of water	uncertainty
573	6100	0.608	0.029
573	7800	0.637	0.03
573	9600	0.695	0.03
573	10300	0.657	0.037
583	4300	0.371	0.032
583	5000	0.441	0.029
583	6000	0.507	0.027
583	6900	0.518	0.025
583	7700	0.538	0.027
583	8400	0.563	0.028
583	9000	0.553	0.035
583	9400	0.558	0.034
593	4900	0.359	0.028
593	5500	0.42	0.026
593	6400	0.433	0.024
593	6900	0.455	0.025
593	7400	0.463	0.025
603	4700	0.303	0.024
603	5800	0.349	0.027
603	6100	0.37	0.026

System: 1,4-dimethylbenzene + water; phases: Liquid, Gas
Property: Mole fraction of water (Liquid); method: Chromatography
Temperature, K	Pressure, kPa	Mole fraction of water	uncertainty
573	6100	0.206	0.025
573	7800	0.331	0.025
573	9600	0.466	0.034
573	10300	0.64	0.054
583	4300	0.074	0.03
583	5000	0.151	0.024
583	6000	0.183	0.025
583	6900	0.291	0.026
583	7700	0.307	0.022
583	8400	0.363	0.022
583	9000	0.359	0.025
583	9400	0.428	0.04
593	4900	0.142	0.029
593	5500	0.205	0.026
593	6400	0.265	0.025
593	6900	0.296	0.022
593	7400	0.306	0.021
603	4700	0.124	0.025
603	5800	0.207	0.024
603	6100	0.206	0.023

System: decahydronaphthalene + water; phases: Liquid mixture 1, Liquid mixture 2
Property: Mole fraction of water (Liquid mixture 1); method: Chromatography
Temperature, K	Pressure, kPa	Mole fraction of water	uncertainty
583	10000	0.999	0.001
583	11300	0.998	0.002
583	13700	0.999	0.001
583	15200	0.998	0.002
583	20200	0.998	0.002
603	14200	0.996	0.004
603	15200	0.995	0.005
603	17200	0.997	0.003
603	20200	0.998	0.002
623	18100	0.994	0.006
623	20200	0.989	0.008
623	22100	0.995	0.005
623	24200	0.996	0.004

System: decahydronaphthalene + water; phases: Liquid mixture 2, Liquid mixture 1
Property: Mole fraction of water (Liquid mixture 2); method: Chromatography
Temperature, K	Pressure, kPa	Mole fraction of water	uncertainty
583	10000	0.955	0.022
583	11300	0.888	0.061
583	13700	0.437	0.051
583	15200	0.415	0.041
583	20200	0.412	0.013
603	14200	0.916	0.056
603	15200	0.822	0.045
603	17200	0.705	0.034
603	20200	0.515	0.026
623	18100	0.947	0.029
623	20200	0.887	0.038
623	22100	0.808	0.038
623	24200	0.742	0.037

System: decahydronaphthalene + water; phases: Gas, Liquid
Property: Mole fraction of water (Gas); method: Chromatography
Temperature, K	Pressure, kPa	Mole fraction of water	uncertainty
583	4100	0.781	0.023
583	6200	0.85	0.021
583	8200	0.84	0.021
583	9100	0.843	0.021
603	6200	0.759	0.022
603	8100	0.795	0.021
603	10200	0.797	0.021
603	12100	0.797	0.021
623	6100	0.668	0.023
623	8100	0.738	0.022
623	10100	0.739	0.02
623	12100	0.734	0.021
623	14200	0.736	0.021

System: decahydronaphthalene + water; phases: Liquid, Gas
Property: Mole fraction of water (Liquid); method: Chromatography
Temperature, K	Pressure, kPa	Mole fraction of water	uncertainty
583	4100	0.178	0.021
583	6200	0.194	0.021
583	8200	0.305	0.022
583	9100	0.331	0.021
603	6200	0.268	0.022
603	8100	0.293	0.022
603	10200	0.42	0.023
603	12100	0.456	0.021
623	6100	0.189	0.025
623	8100	0.31	0.022
623	10100	0.335	0.021
623	12100	0.419	0.022
623	14200	0.5	0.023
