Measured thermophysical data. Dielectric permittivity, polarizability and dipole moment of refrigerants R1234ze(E) and R1234yf determined using a microwave re-entrant cavity resonator
Source: J. Chem. Thermodyn., 2019, 10.1016/j.jct.2018.07.011
Compound 1: carbon dioxide, CO2, InChI=1S/CO2/c2-1-3, purity 99.995%
Compound 2: trans-1,3,3,3-tetrafluoropropene, C3H2F4, InChI=1S/C3H2F4/c4-2-1-3(5,6)7/h1-2H/b2-1+, purity 99.5%
Compound 3: 2,3,3,3-tetrafluoro-1-propene, C3H2F4, InChI=1S/C3H2F4/c1-2(4)3(5,6)7/h1H2, purity 99.9%
Compound 4: argon, Ar, InChI=1S/Ar, purity 99.999%

System: carbon dioxide; phases: Liquid
Fixed: Frequency, MHz = 270
Property: Relative permittivity at various frequencies (Liquid); method: Reentrant cavity resonator
Temperature, K	Pressure, kPa	Relative permittivity at various frequencies	uncertainty
297.61	6991	1.45145	0.00145145
297.57	7002	1.45192	0.00145192
273.6	7004	1.59893	0.00159893
273.75	6019	1.5936	0.0015936
274.12	5019	1.58749	0.00158749
274.66	4024	1.58054	0.00158054
252.7	6996	1.685	0.001685
251.38	6015	1.68401	0.00168401
251.72	5017	1.6809	0.0016809
248.98	4006	1.68089	0.00168089
249.12	3018	1.67791	0.00167791
249.15	2012	1.67486	0.00167486
235.13	6031	1.73287	0.00173287
234.7	5002	1.73109	0.00173109
234.76	4012	1.729	0.001729
234.78	3015	1.72689	0.00172689
234.77	2015	1.72473	0.00172473

System: carbon dioxide; phases: Gas
Fixed: Frequency, MHz = 340
Property: Relative permittivity at various frequencies (Gas); method: Reentrant cavity resonator
Temperature, K	Pressure, kPa	Relative permittivity at various frequencies	uncertainty
297.38	1176	1.01138	0.00051
297.64	2005	1.02052	0.00051
297.7	3002	1.03319	0.00052
297.73	3998	1.0487	0.00052
297.75	4570	1.05962	0.00053
297.6	5992	1.10291	0.00055

System: trans-1,3,3,3-tetrafluoropropene; phases: Liquid
Fixed: Frequency, MHz = 200
Property: Relative permittivity at various frequencies (Liquid); method: Reentrant cavity resonator
Temperature, K	Pressure, kPa	Relative permittivity at various frequencies	uncertainty
249.07	10680	3.48805	0.00348805
249.06	8448	3.47696	0.00347696
249.02	6251	3.46583	0.00346583
249	4121	3.45458	0.00345458
248.98	2078	3.44336	0.00344336
273.19	10470	3.21071	0.00321071
273.01	7894	3.19554	0.00319554
273.23	4627	3.17426	0.00317426
273.36	1598	3.15254	0.00315254
273.46	486	3.14403	0.00314403
297.63	10470	2.96416	0.00296416
297.65	7982	2.94513	0.00294513
297.63	5735	2.92689	0.00292689
297.67	3490	2.90668	0.00290668
297.67	1491	2.88752	0.00288752
321.79	10980	2.74469	0.00274469
321.78	7249	2.70714	0.00270714
321.76	3999	2.66845	0.00266845
346.59	9481	2.51185	0.00251185
346.53	6645	2.46858	0.00246858
346.5	4377	2.42553	0.00242553
365.93	9015	2.33081	0.00233081
365.87	6046	2.25994	0.00225994
365.83	4248	2.19675	0.00219675

System: trans-1,3,3,3-tetrafluoropropene; phases: Gas
Fixed: Frequency, MHz = 340
Property: Relative permittivity at various frequencies (Gas); method: Reentrant cavity resonator
Temperature, K	Pressure, kPa	Relative permittivity at various frequencies	uncertainty
273.66	73.9	1.00498	0.0005
274.29	139	1.00927	0.0005
297.6	349.7	1.02033	0.00051
297.59	79.6	1.00458	0.0005
297.64	140.5	1.00794	0.0005
297.59	240.4	1.01364	0.00051
321.63	210.1	1.0105	0.00051
321.55	211.2	1.01063	0.00051
345.97	225.2	1.01005	0.00051
345.96	227.2	1.01022	0.00051
365.54	236.9	1.00981	0.0005
365.79	239.2	1.00997	0.0005

System: 2,3,3,3-tetrafluoro-1-propene; phases: Liquid
Fixed: Frequency, MHz = 120
Property: Relative permittivity at various frequencies (Liquid); method: Reentrant cavity resonator
Temperature, K	Pressure, kPa	Relative permittivity at various frequencies	uncertainty
249.67	10580	11.19763	0.01119763
249.71	8272	11.12167	0.01112167
249.75	6476	11.06169	0.01106169
249.76	4750	10.9998	0.0109998
249.77	3089	10.93792	0.01093792
248.51	10580	11.21911	0.01121911
248.71	8271	11.15389	0.01115389
248.95	6475	11.07605	0.01107605
249.16	4746	11.01312	0.01101312
249.37	3089	10.94666	0.01094666
273.14	10470	9.47583	0.00947583
273.5	7893	9.37498	0.00937498
273.69	4628	9.24224	0.00924224
273.95	1601	9.10293	0.00910293
273.41	10970	9.48739	0.00948739
273.59	8235	9.38477	0.00938477
273.79	5794	9.28399	0.00928399
274.32	3368	9.17004	0.00917004
275.05	1116	9.04939	0.00904939
297.57	10760	8.06626	0.00806626
297.54	7675	7.93035	0.00793035
297.57	4942	7.79441	0.00779441
297.58	2537	7.65994	0.00765994
321.65	10590	6.89633	0.00689633
321.65	7089	6.70204	0.00670204
321.63	4262	6.51012	0.00651012
346.01	10290	5.83949	0.00583949
345.93	6822	5.57121	0.00557121
345.89	4404	5.30782	0.00530782

System: 2,3,3,3-tetrafluoro-1-propene; phases: Gas
Fixed: Frequency, MHz = 340
Property: Relative permittivity at various frequencies (Gas); method: Reentrant cavity resonator
Temperature, K	Pressure, kPa	Relative permittivity at various frequencies	uncertainty
297.56	247.8	1.03846	0.00052
297.61	259.6	1.04022	0.00052
297.63	225.5	1.03469	0.00052
297.67	100.9	1.01502	0.00051
321.5	203	1.02682	0.00051
321.53	644.4	1.09027	0.00055
321.55	817.8	1.11132	0.00056
345.73	218.5	1.02515	0.00051
345.75	693	1.08291	0.00054
345.74	874.9	1.10115	0.00055
365.3	230.9	1.0241	0.00051
365.25	713.8	1.07604	0.00054
365.22	908.6	1.09359	0.00055

System: argon; phases: Gas
Fixed: Frequency, MHz = 340
Property: Relative permittivity at various frequencies (Gas); method: Reentrant cavity resonator
Temperature, K	Pressure, kPa	Relative permittivity at various frequencies	uncertainty
272.94	8533	1.05077	0.00053
273.04	5986	1.03462	0.00052
273.17	3359	1.01869	0.00051
297.44	9503	1.05146	0.00053
297.45	6614	1.03509	0.00052
297.45	3675	1.01893	0.00051
321.93	7248	1.03523	0.00052
321.92	4005	1.01899	0.00051
