Measured thermophysical data. Solubility and vapor pressure data of bioactive 6-(acetylamino)-N-(5-ethyl-1,3,4-thiadiazol-2-yl) hexanamide
Source: J. Chem. Thermodyn., 2019, 10.1016/j.jct.2019.03.015
Compound 1: 6-acetamido-N-(5-ethyl-1,3,4-thiadiazol-2-yl)hexanamide, C12H20N4O2S, InChI=1S/C12H20N4O2S/c1-3-11-15-16-12(19-11)14-10(18)7-5-4-6-8-13-9(2)17/h3-8H2,1-2H3,(H,13,17)(H,14,16,18), purity 95%
Compound 2: ethanol, C2H6O, InChI=1S/C2H6O/c1-2-3/h3H,2H2,1H3, purity 99%
Compound 3: octan-1-ol, C8H18O, InChI=1S/C8H18O/c1-2-3-4-5-6-7-8-9/h9H,2-8H2,1H3, purity 99%
Compound 4: hexane, C6H14, InChI=1S/C6H14/c1-3-5-6-4-2/h3-6H2,1-2H3, purity 97%
Compound 5: benzoic acid, C7H6O2, InChI=1S/C7H6O2/c8-7(9)6-4-2-1-3-5-6/h1-5H,(H,8,9), purity 99.5%
Compound 6: water, H2O, InChI=1S/H2O/h1H2

System: 6-acetamido-N-(5-ethyl-1,3,4-thiadiazol-2-yl)hexanamide; phases: Crystal, Liquid, Air at 1 atmosphere
Property: Normal melting temperature, K (Crystal); method: DTA
Normal melting temperature, K	uncertainty
478.35	0.4

System: 6-acetamido-N-(5-ethyl-1,3,4-thiadiazol-2-yl)hexanamide; phases: Crystal, Liquid, Air at 1 atmosphere
Property: Molar enthalpy of transition or fusion, kJ/mol (Crystal); method: DSC
Molar enthalpy of transition or fusion, kJ/mol	uncertainty
35.2	0.9

System: 6-acetamido-N-(5-ethyl-1,3,4-thiadiazol-2-yl)hexanamide; phases: Crystal, Gas
Property: Vapor or sublimation pressure, kPa (Crystal); method: Transpiration method
Temperature, K	Vapor or sublimation pressure, kPa	uncertainty
433.15	1.3e-05	1.4e-06
435.15	1.53e-05	1.7e-06
437.15	1.79e-05	2e-06
439.15	2.08e-05	2.3e-06
441.15	2.39e-05	2.6e-06
443.15	2.73e-05	3e-06
445.15	3.27e-05	3.6e-06
446.65	3.68e-05	4e-06
448.15	3.98e-05	4.4e-06
450.15	4.83e-05	5.3e-06
452.15	5.54e-05	6e-06
454.15	6.44e-05	7e-06

System: 6-acetamido-N-(5-ethyl-1,3,4-thiadiazol-2-yl)hexanamide + hexane; phases: Liquid, Crystal
Fixed: Pressure, kPa = 100
Property: Mole fraction of 6-acetamido-N-(5-ethyl-1,3,4-thiadiazol-2-yl)hexanamide (Liquid); method: UV-vis spectrophotometer
Temperature, K	Mole fraction of 6-acetamido-N-(5-ethyl-1,3,4-thiadiazol-2-yl)hexanamide	uncertainty
288.15	1.54e-05	1.2e-06
293.15	1.81e-05	1.5e-06
298.15	2.15e-05	1.7e-06
303.15	2.47e-05	2e-06
308.15	3.05e-05	2.5e-06
313.15	3.55e-05	2.9e-06
318.15	4.13e-05	3.3e-06

System: 6-acetamido-N-(5-ethyl-1,3,4-thiadiazol-2-yl)hexanamide + hexane; phases: Liquid, Crystal
Fixed: Pressure, kPa = 100
Property: Mass density, kg/m3 (Liquid); method: Vibrating tube method
Temperature, K	Mass density, kg/m3	uncertainty
288.15	664.2	8
293.15	659.4	8
298.15	654.8	8
303.15	650.2	8
308.15	645.4	8
313.15	640.7	8
318.15	637.1	8

System: 6-acetamido-N-(5-ethyl-1,3,4-thiadiazol-2-yl)hexanamide + ethanol; phases: Liquid, Crystal
Fixed: Pressure, kPa = 100
Property: Mole fraction of 6-acetamido-N-(5-ethyl-1,3,4-thiadiazol-2-yl)hexanamide (Liquid); method: UV-vis spectrophotometer
Temperature, K	Mole fraction of 6-acetamido-N-(5-ethyl-1,3,4-thiadiazol-2-yl)hexanamide	uncertainty
288.15	0.000578	4.7e-05
293.15	0.000733	6e-05
298.15	0.000965	7.8e-05
303.15	0.00118	0.0001
308.15	0.00162	0.00013
313.15	0.0021	0.00017
318.15	0.0026	0.00021

System: 6-acetamido-N-(5-ethyl-1,3,4-thiadiazol-2-yl)hexanamide + ethanol; phases: Liquid, Crystal
Fixed: Pressure, kPa = 100
Property: Mass density, kg/m3 (Liquid); method: Vibrating tube method
Temperature, K	Mass density, kg/m3	uncertainty
288.15	796.4	8
293.15	792.4	8
298.15	787.3	8
303.15	783	8
308.15	778.9	8
313.15	774.3	8
318.15	768.9	8

System: 6-acetamido-N-(5-ethyl-1,3,4-thiadiazol-2-yl)hexanamide + octan-1-ol; phases: Liquid, Crystal
Fixed: Pressure, kPa = 100
Property: Mole fraction of 6-acetamido-N-(5-ethyl-1,3,4-thiadiazol-2-yl)hexanamide (Liquid); method: UV-vis spectrophotometer
Temperature, K	Mole fraction of 6-acetamido-N-(5-ethyl-1,3,4-thiadiazol-2-yl)hexanamide	uncertainty
288.15	0.000685	5.5e-05
293.15	0.000814	6.6e-05
298.15	0.000961	7.7e-05
303.15	0.00113	9e-05
308.15	0.00142	0.00011
313.15	0.00167	0.00013
318.15	0.00194	0.00016

System: 6-acetamido-N-(5-ethyl-1,3,4-thiadiazol-2-yl)hexanamide + octan-1-ol; phases: Liquid, Crystal
Fixed: Pressure, kPa = 100
Property: Mass density, kg/m3 (Liquid); method: Vibrating tube method
Temperature, K	Mass density, kg/m3	uncertainty
288.15	829.5	8
293.15	826.6	8
298.15	823.5	8
303.15	820.3	8
308.15	817.3	8
313.15	814.4	8
318.15	811.7	8

System: benzoic acid + water; phases: Liquid, Crystal
Fixed: Pressure, kPa = 100
Property: Molality, mol/kg of benzoic acid (Liquid); method: Spectrophotometry
Temperature, K	Molality, mol/kg of benzoic acid	uncertainty
283.15	0.0174	0.0014
293.15	0.0233	0.0019
298.15	0.0277	0.0022
303.15	0.0332	0.0027
308.15	0.039	0.0031
313.15	0.0447	0.0036
318.15	0.0539	0.0044
323.15	0.0645	0.0052
