Measured thermophysical data. Calibration and test of an aneroid mini-bomb combustion calorimeter
Source: J. Chem. Thermodyn., 2007, 10.1016/j.jct.2006.10.013
Compound 1: carbon dioxide, CO2, InChI=1S/CO2/c2-1-3
Compound 2: water, H2O, InChI=1S/H2O/h1H2
Compound 3: oxygen, O2, InChI=1S/O2/c1-2
Compound 4: nitrogen, N2, InChI=1S/N2/c1-2
Compound 5: anthracene, C14H10, InChI=1S/C14H10/c1-2-6-12-10-14-8-4-3-7-13(14)9-11(12)5-1/h1-10H
Compound 6: butanedioic acid, C4H6O4, InChI=1S/C4H6O4/c5-3(6)1-2-4(7)8/h1-2H2,(H,5,6)(H,7,8)
Compound 7: N-phenylethanamide, C8H9NO, InChI=1S/C8H9NO/c1-7(10)9-8-5-3-2-4-6-8/h2-6H,1H3,(H,9,10)
Compound 8: 1H-1,2,4-triazole, C2H3N3, InChI=1S/C2H3N3/c1-3-2-5-4-1/h1-2H,(H,3,4,5)

Reaction: -1 anthracene + 14 carbon dioxide + 5 water + -16.5 oxygen
Property: Specific internal energy of reaction at constant volume, J/g
-39591.6

Reaction: -1 butanedioic acid + 4 carbon dioxide + 3 water + -3.5 oxygen
Property: Specific internal energy of reaction at constant volume, J/g
-12630.1

Reaction: -1 N-phenylethanamide + 8 carbon dioxide + .5 nitrogen + 4.5 water + -9.75 oxygen
Property: Specific internal energy of reaction at constant volume, J/g
-31243.7

Reaction: -1 1H-1,2,4-triazole + 2 carbon dioxide + 1.5 nitrogen + 1.5 water + -2.75 oxygen
Property: Specific internal energy of reaction at constant volume, J/g
-19227.3
