Measured thermophysical data. Activity coefficients and excess Gibbs free energy of some binary mixtures formed by p-cresol at 95.23 kPa
Source: J. Chem. Thermodyn., 2007, 10.1016/j.jct.2006.12.017
Compound 1: 4-methylphenol, C7H8O, InChI=1S/C7H8O/c1-6-2-4-7(8)5-3-6/h2-5,8H,1H3
Compound 2: 1,2-dichloroethane, C2H4Cl2, InChI=1S/C2H4Cl2/c3-1-2-4/h1-2H2
Compound 3: 1,1,2,2-tetrachloroethane, C2H2Cl4, InChI=1S/C2H2Cl4/c3-1(4)2(5)6/h1-2H
Compound 4: trichloroethene, C2HCl3, InChI=1S/C2HCl3/c3-1-2(4)5/h1H
Compound 5: tetrachloroethene, C2Cl4, InChI=1S/C2Cl4/c3-1(4)2(5)6
Compound 6: 1,4-dimethylbenzene, C8H10, InChI=1S/C8H10/c1-7-3-5-8(2)6-4-7/h3-6H,1-2H3
Compound 7: 1,3-dimethylbenzene, C8H10, InChI=1S/C8H10/c1-7-4-3-5-8(2)6-7/h3-6H,1-2H3
Compound 8: 1,2-dimethylbenzene, C8H10, InChI=1S/C8H10/c1-7-5-3-4-6-8(7)2/h3-6H,1-2H3, purity 99%

System: 4-methylphenol; phases: Liquid
Property: Refractive index (Na D-line) (Liquid); method: ABBE:UFactor:16
Temperature, K	Pressure, kPa	Refractive index (Na D-line)	uncertainty
298.15	101.325	1.5391	0.005

System: 4-methylphenol; phases: Liquid
Property: Mass density, kg/m3 (Liquid); method: PYCNOM:UFactor:8
Temperature, K	Pressure, kPa	Mass density, kg/m3	uncertainty
298.15	101.325	1154	50

System: 4-methylphenol; phases: Liquid, Gas
Property: Vapor or sublimation pressure, kPa (Liquid); method: EBULLIO:UFactor:8
Temperature, K	Vapor or sublimation pressure, kPa	uncertainty
472.85	95.23	5

System: 1,2-dichloroethane; phases: Liquid
Property: Refractive index (Na D-line) (Liquid); method: ABBE:UFactor:4
Temperature, K	Pressure, kPa	Refractive index (Na D-line)	uncertainty
293.15	101.325	1.4196	0.005

System: 1,2-dichloroethane; phases: Liquid
Property: Mass density, kg/m3 (Liquid); method: PYCNOM:UFactor:8
Temperature, K	Pressure, kPa	Mass density, kg/m3	uncertainty
293.15	101.325	1252.9	2.7

System: 1,2-dichloroethane; phases: Liquid, Gas
Property: Vapor or sublimation pressure, kPa (Liquid); method: EBULLIO:UFactor:8
Temperature, K	Vapor or sublimation pressure, kPa	uncertainty
355.05	95.23	5

System: 1,1,2,2-tetrachloroethane; phases: Liquid
Property: Refractive index (Na D-line) (Liquid); method: ABBE:UFactor:4
Temperature, K	Pressure, kPa	Refractive index (Na D-line)	uncertainty
293.15	101.325	1.494	0.005

System: 1,1,2,2-tetrachloroethane; phases: Liquid
Property: Mass density, kg/m3 (Liquid); method: PYCNOM:UFactor:8
Temperature, K	Pressure, kPa	Mass density, kg/m3	uncertainty
293.15	101.325	1593	3.6

System: 1,1,2,2-tetrachloroethane; phases: Liquid, Gas
Property: Vapor or sublimation pressure, kPa (Liquid); method: EBULLIO:UFactor:8
Temperature, K	Vapor or sublimation pressure, kPa	uncertainty
417.15	95.23	5

System: trichloroethene; phases: Liquid
Property: Refractive index (Na D-line) (Liquid); method: ABBE:UFactor:4
Temperature, K	Pressure, kPa	Refractive index (Na D-line)	uncertainty
298.15	101.325	1.4782	0.005

System: trichloroethene; phases: Liquid
Property: Mass density, kg/m3 (Liquid); method: PYCNOM:UFactor:8
Temperature, K	Pressure, kPa	Mass density, kg/m3	uncertainty
298.15	101.325	1464	3.3

System: trichloroethene; phases: Liquid, Gas
Property: Vapor or sublimation pressure, kPa (Liquid); method: EBULLIO:UFactor:8
Temperature, K	Vapor or sublimation pressure, kPa	uncertainty
358.35	95.23	5

System: tetrachloroethene; phases: Liquid
Property: Refractive index (Na D-line) (Liquid); method: ABBE:UFactor:4
Temperature, K	Pressure, kPa	Refractive index (Na D-line)	uncertainty
293.15	101.325	1.505	0.005

System: tetrachloroethene; phases: Liquid
Property: Mass density, kg/m3 (Liquid); method: PYCNOM:UFactor:8
Temperature, K	Pressure, kPa	Mass density, kg/m3	uncertainty
293.15	101.325	1625	3.7

System: tetrachloroethene; phases: Liquid, Gas
Property: Vapor or sublimation pressure, kPa (Liquid); method: EBULLIO:UFactor:8
Temperature, K	Vapor or sublimation pressure, kPa	uncertainty
392.05	95.23	5

System: 1,4-dimethylbenzene; phases: Liquid
Property: Refractive index (Na D-line) (Liquid); method: ABBE:UFactor:4
Temperature, K	Pressure, kPa	Refractive index (Na D-line)	uncertainty
293.15	101.325	1.4858	0.005

System: 1,4-dimethylbenzene; phases: Liquid
Property: Mass density, kg/m3 (Liquid); method: PYCNOM:UFactor:8
Temperature, K	Pressure, kPa	Mass density, kg/m3	uncertainty
293.15	101.325	861	1.7

System: 1,4-dimethylbenzene; phases: Liquid, Gas
Property: Vapor or sublimation pressure, kPa (Liquid); method: EBULLIO:UFactor:8
Temperature, K	Vapor or sublimation pressure, kPa	uncertainty
409.15	95.23	5

System: 1,3-dimethylbenzene; phases: Liquid
Property: Refractive index (Na D-line) (Liquid); method: ABBE:UFactor:4
Temperature, K	Pressure, kPa	Refractive index (Na D-line)	uncertainty
293.15	101.325	1.4972	0.005

System: 1,3-dimethylbenzene; phases: Liquid
Property: Mass density, kg/m3 (Liquid); method: PYCNOM:UFactor:8
Temperature, K	Pressure, kPa	Mass density, kg/m3	uncertainty
293.15	101.325	864.4	1.7

System: 1,3-dimethylbenzene; phases: Liquid, Gas
Property: Vapor or sublimation pressure, kPa (Liquid); method: EBULLIO:UFactor:8
Temperature, K	Vapor or sublimation pressure, kPa	uncertainty
410.15	95.23	5

System: 1,2-dimethylbenzene; phases: Liquid
Property: Refractive index (Na D-line) (Liquid); method: ABBE:UFactor:4
Temperature, K	Pressure, kPa	Refractive index (Na D-line)	uncertainty
293.15	101.325	1.4858	0.005

System: 1,2-dimethylbenzene; phases: Liquid
Property: Mass density, kg/m3 (Liquid); method: PYCNOM:UFactor:8
Temperature, K	Pressure, kPa	Mass density, kg/m3	uncertainty
293.15	101.325	880.1	1.9

System: 1,2-dimethylbenzene; phases: Liquid, Gas
Property: Vapor or sublimation pressure, kPa (Liquid); method: EBULLIO:UFactor:8
Temperature, K	Vapor or sublimation pressure, kPa	uncertainty
415.35	95.23	5

System: 4-methylphenol + 1,2-dichloroethane; phases: Liquid, Gas
Fixed: Pressure, kPa = 95.23
Property: Boiling temperature at pressure P, K (Liquid); method: EBULLIO:UFactor:8
Mole fraction of 1,2-dichloroethane	Boiling temperature at pressure P, K	uncertainty
0	472.85	0.68
0.0514	451.55	0.68
0.1003	435.85	0.68
0.197	413.85	0.68
0.3004	398.15	0.68
0.3802	389.05	0.68
0.5004	378.95	0.68
0.5982	372.55	0.68
0.7004	366.85	0.68
0.7882	362.85	0.68
0.9004	358.45	0.68
1	355.05	0.68

System: 1,1,2,2-tetrachloroethane + 4-methylphenol; phases: Liquid, Gas
Fixed: Pressure, kPa = 95.23
Property: Boiling temperature at pressure P, K (Liquid); method: EBULLIO:UFactor:8
Mole fraction of 1,1,2,2-tetrachloroethane	Boiling temperature at pressure P, K	uncertainty
0	472.85	0.68
0.0515	469.85	0.68
0.1002	466.95	0.68
0.1912	461.55	0.68
0.3002	455.05	0.68
0.393	449.55	0.68
0.5002	443.25	0.68
0.615	436.55	0.68
0.7003	431.75	0.68
0.7887	426.85	0.68
0.9002	421.25	0.68
1	417.15	0.68

System: trichloroethene + 4-methylphenol; phases: Liquid, Gas
Fixed: Pressure, kPa = 95.23
Property: Boiling temperature at pressure P, K (Liquid); method: EBULLIO:UFactor:8
Mole fraction of trichloroethene	Boiling temperature at pressure P, K	uncertainty
0	472.85	0.68
0.0512	441.15	0.68
0.1002	422.05	0.68
0.245	392.85	0.68
0.3002	386.55	0.68
0.3936	378.75	0.68
0.5002	372.45	0.68
0.621	367.65	0.68
0.7003	365.25	0.68
0.813	362.55	0.68
0.9004	360.75	0.68
1	358.35	0.68

System: 4-methylphenol + tetrachloroethene; phases: Liquid, Gas
Fixed: Pressure, kPa = 95.23
Property: Boiling temperature at pressure P, K (Liquid); method: EBULLIO:UFactor:8
Mole fraction of tetrachloroethene	Boiling temperature at pressure P, K	uncertainty
0	472.85	0.68
0.0523	446.15	0.68
0.1002	432.05	0.68
0.203	416.05	0.68
0.3002	408.45	0.68
0.4049	403.75	0.68
0.5002	401.15	0.68
0.595	399.05	0.68
0.7002	397.15	0.68
0.837	395.25	0.68
0.9002	394.05	0.68
1	392.05	0.68

System: 1,2-dimethylbenzene + 4-methylphenol; phases: Liquid, Gas
Fixed: Pressure, kPa = 95.23
Property: Boiling temperature at pressure P, K (Liquid); method: EBULLIO:UFactor:8
Mole fraction of 1,2-dimethylbenzene	Boiling temperature at pressure P, K	uncertainty
0	472.85	0.68
0.0511	465.15	0.68
0.1004	459.15	0.68
0.194	449.95	0.68
0.3002	442.45	0.68
0.392	437.25	0.69
0.5003	432.15	0.69
0.544	430.35	0.69
0.7007	424.65	0.69
0.829	420.45	0.69
0.9002	418.25	0.69
1	415.35	0.69

System: 4-methylphenol + 1,3-dimethylbenzene; phases: Liquid, Gas
Fixed: Pressure, kPa = 95.23
Property: Boiling temperature at pressure P, K (Liquid); method: EBULLIO:UFactor:8
Mole fraction of 1,3-dimethylbenzene	Boiling temperature at pressure P, K	uncertainty
0	472.85	0.68
0.0505	460.75	0.68
0.1003	455.45	0.68
0.192	448.55	0.68
0.3004	441.75	0.68
0.387	436.75	0.68
0.5006	430.75	0.68
0.614	425.15	0.68
0.7006	421.15	0.68
0.827	416.15	0.68
0.9006	413.35	0.68
1	410.15	0.68

System: 1,4-dimethylbenzene + 4-methylphenol; phases: Liquid, Gas
Fixed: Pressure, kPa = 95.23
Property: Boiling temperature at pressure P, K (Liquid); method: EBULLIO:UFactor:8
Mole fraction of 1,4-dimethylbenzene	Boiling temperature at pressure P, K	uncertainty
0	472.85	0.68
0.0498	461.75	0.68
0.1004	453.15	0.68
0.191	442.05	0.68
0.3002	433.15	0.68
0.387	428.25	0.68
0.5002	423.35	0.68
0.614	419.45	0.68
0.7003	416.95	0.68
0.826	413.75	0.68
0.9006	411.75	0.68
1	409.15	0.68
