Measured thermophysical data. Experimental and high level ab initio enthalpies of formation of di- tri- tetra- and pentamethyl- substituted pyrroles
Source: J. Chem. Thermodyn., 2014, 10.1016/j.jct.2014.04.003
Compound 1: carbon dioxide, CO2, InChI=1S/CO2/c2-1-3
Compound 2: nitrogen, N2, InChI=1S/N2/c1-2
Compound 3: water, H2O, InChI=1S/H2O/h1H2
Compound 4: oxygen, O2, InChI=1S/O2/c1-2
Compound 5: 1,2,5-trimethylpyrrole, C7H11N, InChI=1S/C7H11N/c1-6-4-5-7(2)8(6)3/h4-5H,1-3H3, purity 99%

System: 1,2,5-trimethylpyrrole; phases: Liquid, Gas
Property: Molar enthalpy of vaporization or sublimation, kJ/mol (Liquid); method: Static calorimetry
Temperature, K	Molar enthalpy of vaporization or sublimation, kJ/mol	uncertainty
298.15	50.7	1.3

Reaction: -1 1,2,5-trimethylpyrrole + 7 carbon dioxide + .5 nitrogen + 5.5 water + -9.75 oxygen
Property: Specific internal energy of reaction at constant volume, J/g
-39433.2
