Measured thermophysical data. Super- and near-critical fluid phase behavior and phenomena of the ternary system CO2 + 1-decanol + n-tetradecane
Source: J. Chem. Thermodyn., 2017, 10.1016/j.jct.2017.03.009
Compound 1: decan-1-ol, C10H22O, InChI=1S/C10H22O/c1-2-3-4-5-6-7-8-9-10-11/h11H,2-10H2,1H3, purity 99%
Compound 2: tetradecane, C14H30, InChI=1S/C14H30/c1-3-5-7-9-11-13-14-12-10-8-6-4-2/h3-14H2,1-2H3, purity 99%
Compound 3: carbon dioxide, CO2, InChI=1S/CO2/c2-1-3, purity 99%

System: decan-1-ol + carbon dioxide; phases: Gas, Liquid
Fixed: Mass fraction of decan-1-ol = 0.114
Property: Vapor or sublimation pressure, kPa (Gas); method: Closed cell (Static) method
Temperature, K	Vapor or sublimation pressure, kPa	uncertainty
313.8	22060	260
318.5	20850	250
328	18800	230
338.2	19160	240
348.5	19940	240

System: decan-1-ol + carbon dioxide; phases: Liquid, Gas
Fixed: Mass fraction of decan-1-ol = 0.302
Property: Vapor or sublimation pressure, kPa (Liquid); method: Closed cell (Static) method
Temperature, K	Vapor or sublimation pressure, kPa	uncertainty
314.8	27540	320
319.7	24330	280
328.2	21720	260
338.3	21040	250
348.3	21460	260

System: carbon dioxide + tetradecane; phases: Gas, Liquid
Fixed: Mass fraction of tetradecane = 0.121
Property: Vapor or sublimation pressure, kPa (Gas); method: Closed cell (Static) method
Temperature, K	Vapor or sublimation pressure, kPa	uncertainty
313.9	9690	160
327.2	12810	180
343.8	16080	210
353.5	17690	220
358.5	18430	230

System: carbon dioxide + tetradecane; phases: Liquid, Gas
Fixed: Mass fraction of tetradecane = 0.3
Property: Vapor or sublimation pressure, kPa (Liquid); method: Closed cell (Static) method
Temperature, K	Vapor or sublimation pressure, kPa	uncertainty
315.1	10610	160
327.6	13220	180
344.2	16350	210
353.9	18130	230
358.6	18770	230

System: decan-1-ol + carbon dioxide + tetradecane; phases: Liquid, Gas
Property: Vapor or sublimation pressure, kPa (Liquid); method: Closed cell (Static) method
Temperature, K	Solvent: Mass fraction of decan-1-ol	Mass fraction of carbon dioxide	Vapor or sublimation pressure, kPa	uncertainty
309.2	0.7595	0.407	9320	160
318.3	0.7595	0.407	10140	160
328.8	0.7595	0.407	11690	170
338.4	0.7595	0.407	13060	180
347.9	0.7595	0.407	14280	190
357.8	0.7595	0.407	15410	200
358.7	0.7595	0.456	16550	210
310.9	0.5	0.391	7530	140
310.6	0.5	0.483	8250	150
318.9	0.5	0.391	8680	150
318.5	0.5	0.483	9750	160
328.4	0.5	0.391	10040	160
338	0.5	0.391	11300	170
349.2	0.5	0.391	12630	180
358.9	0.5	0.391	13680	190
358.4	0.5	0.483	15950	210
308.7	0.3601	0.392	6990	140
309.4	0.3601	0.476	7590	140
308.7	0.3601	0.532	7620	140
318.6	0.3601	0.392	8430	150
318.8	0.3601	0.476	9110	150
318.4	0.3601	0.532	9510	160
329.1	0.3601	0.392	9860	160
329.4	0.3601	0.476	10880	170
338.6	0.3601	0.392	11120	170
338.6	0.3601	0.476	12320	180
348.5	0.3601	0.392	12340	180
358.3	0.3601	0.392	13430	190
358.3	0.3601	0.476	15050	200
309.6	0.2302	0.402	6990	140
308.9	0.2302	0.496	7380	140
308.7	0.2302	0.542	7510	140
318.6	0.2302	0.402	8300	150
318.6	0.2302	0.496	9050	150
319.2	0.2302	0.542	9560	160
327.1	0.2302	0.402	9700	160
329.6	0.2302	0.496	10890	170
338.9	0.2302	0.402	11040	170
338.7	0.2302	0.496	12300	180
348.5	0.2302	0.402	12350	180
358.4	0.2302	0.402	13560	190
358.5	0.2302	0.496	15260	200
308.5	0.1838	0.379	6830	140
308	0.1838	0.428	7060	140
308.3	0.1838	0.524	7490	140
308.5	0.1838	0.581	7600	140
317.9	0.1838	0.379	8170	150
318	0.1838	0.428	8640	150
318.6	0.1838	0.524	9340	160
319	0.1838	0.581	9760	160
327.9	0.1838	0.379	9520	160
327.4	0.1838	0.428	10130	160
338.1	0.1838	0.379	10800	170
337.6	0.1838	0.428	11660	170
347.6	0.1838	0.379	11970	170
348	0.1838	0.428	13080	180
357.5	0.1838	0.379	13170	180
357.6	0.1838	0.428	14400	190
308.6	0.08	0.376	6880	140
308.6	0.08	0.425	7240	140
308.9	0.08	0.515	7580	140
309.8	0.08	0.58	7870	150
318.9	0.08	0.376	8180	150
318.7	0.08	0.425	8850	150
318.8	0.08	0.515	9470	160
319.3	0.08	0.58	9990	160
328.4	0.08	0.376	9400	160
328.4	0.08	0.425	10280	160
338.5	0.08	0.376	10730	170
337.8	0.08	0.425	11730	170
348.5	0.08	0.376	11970	170
348.1	0.08	0.425	13290	180
358.4	0.08	0.376	13130	180
357.8	0.08	0.425	14600	200

System: decan-1-ol + carbon dioxide + tetradecane; phases: Gas, Liquid
Property: Vapor or sublimation pressure, kPa (Gas); method: Closed cell (Static) method
Temperature, K	Solvent: Mass fraction of decan-1-ol	Mass fraction of carbon dioxide	Vapor or sublimation pressure, kPa	uncertainty
308.8	0.7595	0.9487	9570	160
309.1	0.7595	0.9741	7990	150
308.5	0.7595	0.9849	7720	150
318.6	0.7595	0.9487	11360	170
318.4	0.7595	0.9741	10140	160
319.6	0.7595	0.9849	9660	160
328.4	0.7595	0.9741	11910	170
328.5	0.7595	0.9849	11190	170
339.2	0.7595	0.9741	13490	190
338	0.7595	0.9849	12390	180
349.4	0.7595	0.9741	14800	200
348.1	0.7595	0.9849	13500	190
358.7	0.7595	0.9741	15550	200
358	0.7595	0.9849	14090	190
309	0.5	0.9197	9060	150
309.6	0.5	0.9464	8150	150
308.9	0.5	0.9722	7850	150
308.8	0.5	0.9846	7740	150
318.4	0.5	0.9197	10860	170
318.9	0.5	0.9464	10240	160
318.8	0.5	0.9722	9810	160
317.8	0.5	0.9846	9310	160
328.5	0.5	0.9464	12040	180
328.1	0.5	0.9722	11460	170
328	0.5	0.9846	11020	170
339.9	0.5	0.9464	14010	190
339.6	0.5	0.9722	13190	180
338.8	0.5	0.9846	12450	180
349.2	0.5	0.9722	14370	190
348.2	0.5	0.9846	13370	190
358.7	0.5	0.9722	15290	200
358.1	0.5	0.9846	14010	190
308.2	0.3601	0.9164	8090	150
308.9	0.3601	0.9423	7860	150
307.9	0.3601	0.9744	7600	140
308.6	0.3601	0.9847	7660	140
318.7	0.3601	0.9164	10280	160
318.5	0.3601	0.9423	9860	160
318.6	0.3601	0.9744	9500	160
319	0.3601	0.9847	9310	160
328.7	0.3601	0.9423	11910	170
327.9	0.3601	0.9744	11180	170
328.3	0.3601	0.9847	10750	170
338.4	0.3601	0.9423	13700	190
337.7	0.3601	0.9744	12640	180
337.9	0.3601	0.9847	11930	170
348.2	0.3601	0.9744	14060	190
348.7	0.3601	0.9847	13040	180
357.9	0.3601	0.9744	14910	200
357.9	0.3601	0.9847	13760	190
308.5	0.2302	0.9199	7560	140
308.3	0.2302	0.9475	7580	140
308.6	0.2302	0.9736	7610	140
308.1	0.2302	0.9846	7540	140
318.5	0.2302	0.9199	9820	160
318.5	0.2302	0.9475	9720	160
319.2	0.2302	0.9736	9460	160
319.2	0.2302	0.9846	9340	160
328.5	0.2302	0.9475	11700	170
328.1	0.2302	0.9736	11080	170
329.7	0.2302	0.9846	10710	170
338.7	0.2302	0.9475	13530	190
337.8	0.2302	0.9736	12580	180
338.3	0.2302	0.9846	11920	170
348	0.2302	0.9736	13900	190
348.9	0.2302	0.9846	13010	180
357.8	0.2302	0.9736	14880	200
358.1	0.2302	0.9846	13680	190
309.1	0.1838	0.9223	7860	150
308.6	0.1838	0.9494	7710	150
308.7	0.1838	0.9732	7740	150
308.9	0.1838	0.9843	7670	140
318.9	0.1838	0.9223	10080	160
318.7	0.1838	0.9494	9780	160
318.6	0.1838	0.9732	9540	160
319.5	0.1838	0.9843	9660	160
328.9	0.1838	0.9494	11860	170
328.2	0.1838	0.9732	11340	170
328.6	0.1838	0.9843	11190	170
338.1	0.1838	0.9494	13510	190
338	0.1838	0.9732	12960	180
338.2	0.1838	0.9843	12580	180
348.1	0.1838	0.9732	14230	190
348	0.1838	0.9843	13620	190
357.7	0.1838	0.9732	15220	200
358.1	0.1838	0.9843	14580	200
309.4	0.08	0.9495	7840	150
309.7	0.08	0.9772	7910	150
309.9	0.08	0.9842	7860	150
318.8	0.08	0.9167	10300	160
319.7	0.08	0.9495	9960	160
318.5	0.08	0.9772	9570	160
319.4	0.08	0.9842	9500	160
329.6	0.08	0.9495	11990	170
328.8	0.08	0.9772	11380	170
328.7	0.08	0.9842	10910	170
338.3	0.08	0.9495	13680	190
337.7	0.08	0.9772	12760	180
338.5	0.08	0.9842	12250	180
348.6	0.08	0.9772	14120	190
348.5	0.08	0.9842	13360	190
358.3	0.08	0.9772	15040	200
358.2	0.08	0.9842	14080	190

System: decan-1-ol + carbon dioxide + tetradecane; phases: Liquid, Gas
Property: Vapor or sublimation pressure, kPa (Liquid); method: Closed cell (Static) method
Temperature, K	Solvent: Mass fraction of decan-1-ol	Mass fraction of carbon dioxide	Vapor or sublimation pressure, kPa	uncertainty
309.9	0.7595	0.456	12260	180
309.2	0.7595	0.526	14580	200
309.7	0.7595	0.609	16470	210
309.2	0.7595	0.657	18100	230
308.3	0.7595	0.738	19630	240
309.5	0.7595	0.806	18920	230
309.4	0.7595	0.877	16330	210
308.3	0.7595	0.914	13190	180
318.3	0.7595	0.456	12160	180
318.3	0.7595	0.526	13790	190
319.7	0.7595	0.609	15270	200
319.2	0.7595	0.657	15990	210
319.2	0.7595	0.738	16750	210
319	0.7595	0.806	16850	220
319.4	0.7595	0.877	15440	200
318	0.7595	0.914	13510	190
327.9	0.7595	0.456	13170	180
328.7	0.7595	0.526	14390	190
328.8	0.7595	0.609	15660	200
329.2	0.7595	0.657	16240	210
328.6	0.7595	0.738	16830	210
328.3	0.7595	0.806	16860	220
329.1	0.7595	0.877	16020	210
328.5	0.7595	0.914	14700	200
328	0.7595	0.9487	13000	180
338.6	0.7595	0.456	14190	190
338	0.7595	0.526	15470	200
338.2	0.7595	0.609	16610	210
339.1	0.7595	0.657	17190	220
338.3	0.7595	0.738	17690	220
338.7	0.7595	0.806	17680	220
338.5	0.7595	0.877	17030	220
337.9	0.7595	0.914	15980	210
338.2	0.7595	0.9487	14640	200
348.9	0.7595	0.456	15420	200
348.8	0.7595	0.526	16750	210
348.9	0.7595	0.609	17850	220
348.8	0.7595	0.657	18370	230
348	0.7595	0.738	18740	230
348.4	0.7595	0.806	18750	230
348.3	0.7595	0.877	18170	230
347.8	0.7595	0.914	17250	220
348.1	0.7595	0.9487	15950	210
358	0.7595	0.526	17810	220
358.8	0.7595	0.609	19010	230
358	0.7595	0.657	19460	240
357.8	0.7595	0.738	19840	240
358	0.7595	0.806	19770	240
358.2	0.7595	0.877	19290	240
357.8	0.7595	0.914	18480	230
358	0.7595	0.9487	17070	220
308.5	0.5	0.535	9360	160
308.6	0.5	0.603	10610	160
308.7	0.5	0.651	10970	170
308.1	0.5	0.743	11760	170
308.2	0.5	0.808	11850	170
309	0.5	0.874	11010	170
318.2	0.5	0.535	10600	160
318.1	0.5	0.603	11620	170
317.9	0.5	0.651	11810	170
317.7	0.5	0.743	12370	180
318	0.5	0.808	12450	180
318.2	0.5	0.874	12000	170
328.2	0.5	0.483	11510	170
328.5	0.5	0.535	12310	180
328.3	0.5	0.603	13110	180
328.3	0.5	0.651	13390	190
327.8	0.5	0.743	13820	190
329.2	0.5	0.808	13990	190
328.2	0.5	0.874	13490	190
328.4	0.5	0.9197	12720	180
339.1	0.5	0.483	13280	180
338.1	0.5	0.535	13930	190
337.9	0.5	0.603	14680	200
338.2	0.5	0.651	15080	200
338.5	0.5	0.743	15550	200
339.6	0.5	0.808	15570	200
338.7	0.5	0.874	15220	200
338.4	0.5	0.9197	14520	200
348.7	0.5	0.483	14710	200
348.4	0.5	0.535	15460	200
348.3	0.5	0.603	16350	210
348.3	0.5	0.651	16680	210
348.3	0.5	0.743	17060	220
348.6	0.5	0.808	17040	220
348.4	0.5	0.874	16650	210
348.8	0.5	0.9197	16030	210
349.8	0.5	0.9464	15460	200
358.7	0.5	0.535	16870	220
358.7	0.5	0.603	17810	220
358.5	0.5	0.651	18160	230
358.1	0.5	0.743	18440	230
358.1	0.5	0.808	18370	230
358.3	0.5	0.874	18100	230
358.1	0.5	0.9197	17210	220
358.5	0.5	0.9464	16480	210
308.7	0.3601	0.614	8550	150
308.9	0.3601	0.662	8830	150
309	0.3601	0.753	9160	150
308.2	0.3601	0.813	9160	150
308.7	0.3601	0.87	8950	150
318.9	0.3601	0.614	10500	160
319	0.3601	0.662	10710	170
319.6	0.3601	0.753	11140	170
319	0.3601	0.813	11040	170
318.2	0.3601	0.87	10620	160
328.3	0.3601	0.532	11380	170
329.2	0.3601	0.614	12490	180
328.9	0.3601	0.662	12680	180
328.7	0.3601	0.753	12970	180
328.4	0.3601	0.813	12870	180
328.5	0.3601	0.87	12600	180
328	0.3601	0.9164	12220	180
338.8	0.3601	0.532	13240	180
338.5	0.3601	0.614	14210	190
338.7	0.3601	0.662	14560	200
338.9	0.3601	0.753	14910	200
338.6	0.3601	0.813	14840	200
338.1	0.3601	0.87	14400	190
338	0.3601	0.9164	14030	190
348.9	0.3601	0.476	13840	190
348	0.3601	0.532	14650	200
348.7	0.3601	0.614	15960	210
348.6	0.3601	0.662	16270	210
348.6	0.3601	0.753	16530	210
348.2	0.3601	0.813	16440	210
348.1	0.3601	0.87	16180	210
348.1	0.3601	0.9164	15850	210
350.7	0.3601	0.9423	15520	200
358	0.3601	0.532	16120	210
358	0.3601	0.614	17350	220
358.4	0.3601	0.662	17810	220
358.4	0.3601	0.753	18070	230
358	0.3601	0.813	18010	230
358.6	0.3601	0.87	17710	220
357.8	0.3601	0.9164	17280	220
357.7	0.3601	0.9423	16340	210
308.4	0.2302	0.599	7590	140
309.4	0.2302	0.661	7990	150
308.9	0.2302	0.751	8260	150
308	0.2302	0.811	7960	150
308.5	0.2302	0.875	7640	140
318.7	0.2302	0.599	9830	160
318.5	0.2302	0.661	10110	160
318.8	0.2302	0.751	10460	160
318.7	0.2302	0.811	10450	160
319	0.2302	0.875	10250	160
328.1	0.2302	0.542	11300	170
328.8	0.2302	0.599	11820	170
328.5	0.2302	0.661	12280	180
329	0.2302	0.751	12700	180
328.1	0.2302	0.811	12630	180
328	0.2302	0.875	12250	180
328.8	0.2302	0.9199	12040	180
338.3	0.2302	0.542	13210	180
338.9	0.2302	0.599	13830	190
338.2	0.2302	0.661	14190	190
338.4	0.2302	0.751	14670	200
338.2	0.2302	0.811	14740	200
338.2	0.2302	0.875	14280	190
337.9	0.2302	0.9199	13840	190
349.8	0.2302	0.496	14010	190
347.7	0.2302	0.542	14750	200
349.3	0.2302	0.599	15610	200
348.3	0.2302	0.661	16060	210
348.2	0.2302	0.751	16480	210
347.9	0.2302	0.811	16480	210
348.5	0.2302	0.875	16190	210
348.7	0.2302	0.9199	15660	200
349.1	0.2302	0.9475	15100	200
358.3	0.2302	0.542	16450	210
357.8	0.2302	0.599	16940	220
358	0.2302	0.661	17600	220
357.7	0.2302	0.751	17930	220
357.5	0.2302	0.811	18030	230
357.9	0.2302	0.875	17620	220
358.2	0.2302	0.9199	16990	220
358.5	0.2302	0.9475	16390	210
309	0.1838	0.661	7930	150
309.1	0.1838	0.745	8090	150
308.7	0.1838	0.813	7790	150
309.2	0.1838	0.879	7880	150
318.6	0.1838	0.661	10190	160
318.2	0.1838	0.745	10340	160
318.7	0.1838	0.813	10410	160
318.4	0.1838	0.879	10170	160
328.7	0.1838	0.524	11180	170
328.2	0.1838	0.581	11670	170
328.4	0.1838	0.661	12310	180
328.3	0.1838	0.745	12600	180
328.2	0.1838	0.813	12520	180
328.1	0.1838	0.879	12350	180
328.5	0.1838	0.9223	12150	180
338.9	0.1838	0.524	13000	180
338.2	0.1838	0.581	13660	190
338.5	0.1838	0.661	14380	190
337.6	0.1838	0.745	14630	200
338.1	0.1838	0.813	14590	200
337.9	0.1838	0.879	14300	190
337.6	0.1838	0.9223	13960	190
348.7	0.1838	0.524	14600	200
348.2	0.1838	0.581	15360	200
348.9	0.1838	0.661	16310	210
348.5	0.1838	0.745	16870	220
348.6	0.1838	0.813	16450	210
348.2	0.1838	0.879	16150	210
348.1	0.1838	0.9223	15830	210
348.7	0.1838	0.9494	15180	200
358.3	0.1838	0.524	16090	210
357.5	0.1838	0.581	16930	220
358.5	0.1838	0.661	17890	220
358.9	0.1838	0.745	18280	230
358.3	0.1838	0.813	18030	230
358	0.1838	0.879	17710	220
357.5	0.1838	0.9223	17240	220
358.6	0.1838	0.9494	16340	210
309.2	0.08	0.666	8240	150
309.7	0.08	0.736	8670	150
308.3	0.08	0.808	8170	150
309.1	0.08	0.864	8260	150
310	0.08	0.9167	8070	150
318.8	0.08	0.666	10600	160
318.7	0.08	0.736	10820	170
318.3	0.08	0.808	10760	170
318.3	0.08	0.864	10640	160
329	0.08	0.515	11370	170
328.4	0.08	0.58	11890	170
328.5	0.08	0.666	12690	180
328.3	0.08	0.736	12880	180
327.5	0.08	0.808	12790	180
328.2	0.08	0.864	12940	180
328.9	0.08	0.9167	12490	180
338.1	0.08	0.515	13130	180
338.3	0.08	0.58	13830	190
338.6	0.08	0.666	14810	200
338	0.08	0.736	14960	200
337.7	0.08	0.808	14910	200
338.1	0.08	0.864	15000	200
338.9	0.08	0.9167	14440	190
349.1	0.08	0.515	14910	200
348.7	0.08	0.58	15710	210
349.2	0.08	0.666	16740	210
348.1	0.08	0.736	16890	220
348.2	0.08	0.808	16880	220
348.2	0.08	0.864	16830	210
349.1	0.08	0.9167	16190	210
348.9	0.08	0.9495	15370	200
358.3	0.08	0.515	16310	210
358.5	0.08	0.58	17290	220
358.3	0.08	0.666	18240	230
357.9	0.08	0.736	18510	230
356.5	0.08	0.808	18250	230
357.4	0.08	0.864	18220	230
357.8	0.08	0.9167	17430	220
358.2	0.08	0.9495	16570	210
