Measured thermophysical data. Experimental and modeling investigations of solubility and saturated liquid densities and viscosities for binary systems (methane +, ethane +, and carbon dioxide + 2-propanol)
Source: J. Chem. Thermodyn., 2013, 10.1016/j.jct.2013.05.040
Compound 1: methane, CH4, InChI=1S/CH4/h1H4, purity 99.97%
Compound 2: ethane, C2H6, InChI=1S/C2H6/c1-2/h1-2H3, purity 99.999%
Compound 3: carbon dioxide, CO2, InChI=1S/CO2/c2-1-3, purity 99.998%
Compound 4: propan-2-ol, C3H8O, InChI=1S/C3H8O/c1-3(2)4/h3-4H,1-2H3, purity 99.5%

System: propan-2-ol; phases: Liquid
Property: Mass density, kg/m3 (Liquid); method: Vibrating tube method
Temperature, K	Pressure, kPa	Mass density, kg/m3	uncertainty
302.9	1040	778.1	0.3
302.9	2000	778.9	0.4
302.9	2990	779.8	0.4
302.9	4060	780.8	0.4
302.9	5010	781.6	0.4
302.9	6000	782.5	0.4
302.9	7020	783.4	0.4
302.9	8020	784.3	0.4
302.9	9000	785.1	0.4
302.9	10000	786	0.4
323	1000	760.6	0.4
323	2020	761.6	0.4
323	3000	762.7	0.4
323	4070	763.7	0.4
323	5000	764.7	0.4
323	6010	765.7	0.4
323	7020	766.7	0.4
323	8010	767.7	0.4
323	9010	768.6	0.4
323	10020	769.6	0.4

System: propan-2-ol; phases: Liquid
Fixed: Pressure, kPa = 101.325
Property: Viscosity, Pa*s (Liquid); method: Moving piston method
Temperature, K	Viscosity, Pa*s	uncertainty
303.3	0.001716	0.000175
323.2	0.000973	4e-05

System: propan-2-ol + methane; phases: Liquid, Gas
Property: Mole fraction of methane (Liquid); method: PVT analysis
Temperature, K	Pressure, kPa	Mole fraction of methane	uncertainty
302.8	1070	0.019	0.004
302.8	2080	0.037	0.004
302.8	3190	0.055	0.004
302.8	4080	0.069	0.004
302.8	5080	0.085	0.004
302.8	6060	0.1	0.004
323.1	980	0.018	0.004
323.1	2020	0.033	0.004
323.1	3080	0.049	0.004
323.1	4080	0.065	0.004
323.1	4980	0.078	0.004
323.1	6040	0.093	0.004

System: propan-2-ol + methane; phases: Liquid
Property: Mass density, kg/m3 (Liquid); method: Vibrating tube method
Temperature, K	Pressure, kPa	Mole fraction of methane	Mass density, kg/m3	uncertainty
302.8	1070	0.019	771.2	1
302.8	2080	0.037	767.2	2.9
302.8	3190	0.055	761.2	1
302.8	4080	0.069	756.5	3.2
302.8	5080	0.085	753.3	2
302.8	6060	0.1	748.9	1
323.1	980	0.018	754.5	2.6
323.1	2020	0.033	750	1.9
323.1	3080	0.049	745	1.9
323.1	4080	0.065	740.7	1.3
323.1	4980	0.078	736.9	3.2
323.1	6040	0.093	732.3	2.3

System: propan-2-ol + methane; phases: Liquid
Property: Viscosity, Pa*s (Liquid); method: Moving piston method
Temperature, K	Pressure, kPa	Mole fraction of methane	Viscosity, Pa*s	uncertainty
302.8	1070	0.019	0.001523	0.000188
302.8	2080	0.037	0.001403	0.000162
302.8	3190	0.055	0.001339	0.000112
302.8	4080	0.069	0.001262	7.3e-05
302.8	5080	0.085	0.001208	0.000183
302.8	6060	0.1	0.001129	5.1e-05
323.1	980	0.018	0.000908	7.7e-05
323.1	2020	0.033	0.000847	9.8e-05
323.1	3080	0.049	0.0008	9e-05
323.1	4080	0.065	0.00074	9.5e-05
323.1	4980	0.078	0.000717	2.6e-05
323.1	6040	0.093	0.000676	3.5e-05

System: propan-2-ol + ethane; phases: Liquid, Gas
Property: Mole fraction of ethane (Liquid); method: PVT analysis
Temperature, K	Pressure, kPa	Mole fraction of ethane	uncertainty
302.9	1030	0.09	0.004
302.9	2030	0.199	0.004
302.9	3040	0.347	0.005
302.9	3650	0.47	0.006
323.1	910	0.057	0.004
323.1	1990	0.141	0.004
323.1	2970	0.227	0.004
323.1	3970	0.334	0.005
323.1	4940	0.478	0.006
323.1	5620	0.644	0.007

System: propan-2-ol + ethane; phases: Liquid
Property: Mass density, kg/m3 (Liquid); method: Vibrating tube method
Temperature, K	Pressure, kPa	Mole fraction of ethane	Mass density, kg/m3	uncertainty
302.9	1030	0.09	751.2	1.3
302.9	2030	0.199	718.5	1.9
302.9	3040	0.347	669.3	1.3
302.9	3650	0.47	623	1.3
323.1	910	0.057	741.3	3.8
323.1	1990	0.141	716.3	1.9
323.1	2970	0.227	688.2	3.2
323.1	3970	0.334	650.6	2.6
323.1	4940	0.478	593.7	2.6
323.1	5620	0.644	515.7	1.9

System: propan-2-ol + ethane; phases: Liquid
Property: Viscosity, Pa*s (Liquid); method: Moving piston method
Temperature, K	Pressure, kPa	Mole fraction of ethane	Viscosity, Pa*s	uncertainty
302.9	1030	0.09	0.001251	5.8e-05
302.9	2030	0.199	0.000919	4.2e-05
302.9	3040	0.347	0.000526	8.3e-05
302.9	3650	0.47	0.000246	2.3e-05
323.1	910	0.057	0.000882	0.000115
323.1	1990	0.141	0.000663	6.7e-05
323.1	2970	0.227	0.000471	7.8e-05
323.1	3970	0.334	0.000338	4.2e-05
323.1	4940	0.478	0.000217	3.6e-05
323.1	5620	0.644	0.000131	1.1e-05

System: propan-2-ol + carbon dioxide; phases: Liquid, Gas
Property: Mole fraction of carbon dioxide (Liquid); method: PVT analysis
Temperature, K	Pressure, kPa	Mole fraction of carbon dioxide	uncertainty
302.8	990	0.062	0.004
302.8	2000	0.133	0.004
302.8	2980	0.212	0.004
302.8	3970	0.304	0.005
323.1	980	0.047	0.004
323.1	1960	0.102	0.004
323.1	2950	0.164	0.004
323.1	3930	0.23	0.004
323.1	4930	0.305	0.005
323.1	5940	0.391	0.005

System: propan-2-ol + carbon dioxide; phases: Liquid
Property: Mass density, kg/m3 (Liquid); method: Vibrating tube method
Temperature, K	Pressure, kPa	Mole fraction of carbon dioxide	Mass density, kg/m3	uncertainty
302.8	990	0.062	783.8	1.3
302.8	2000	0.133	791	1.3
302.8	2980	0.212	798.5	1.3
302.8	3970	0.304	807.3	3.2
323.1	980	0.047	762.7	2.6
323.1	1960	0.102	767.2	1.9
323.1	2950	0.164	771.5	3.2
323.1	3930	0.23	776.1	2
323.1	4930	0.305	780.3	2.6
323.1	5940	0.391	783.7	2.6

System: propan-2-ol + carbon dioxide; phases: Liquid
Property: Viscosity, Pa*s (Liquid); method: Moving piston method
Temperature, K	Pressure, kPa	Mole fraction of carbon dioxide	Viscosity, Pa*s	uncertainty
302.8	990	0.062	0.001365	6.1e-05
302.8	2000	0.133	0.001108	5.7e-05
302.8	2980	0.212	0.000895	0.000127
302.8	3970	0.304	0.000604	2.9e-05
323.1	980	0.047	0.000895	7.7e-05
323.1	1960	0.102	0.000743	0.000117
323.1	2950	0.164	0.000657	7.1e-05
323.1	3930	0.23	0.000538	8.1e-05
323.1	4930	0.305	0.000394	4e-05
323.1	5940	0.391	0.000321	1.7e-05
