Measured thermophysical data. Apparent molar volumes and compressibilities of tetrabutyl-ammonium bromide in organic solvents
Source: J. Chem. Thermodyn., 2011, 10.1016/j.jct.2011.01.005
Compound 1: tetrabutylammonium bromide, C16H36BrN, InChI=1S/C16H36N.BrH/c1-5-9-13-17(14-10-6-2,15-11-7-3)16-12-8-4;/h5-16H2,1-4H3;1H/q+1;/p-1
Compound 2: propan-1-ol, C3H8O, InChI=1S/C3H8O/c1-2-3-4/h4H,2-3H2,1H3, purity 99.8%
Compound 3: butan-1-ol, C4H10O, InChI=1S/C4H10O/c1-2-3-4-5/h5H,2-4H2,1H3, purity 99.8%
Compound 4: acetone, C3H6O, InChI=1S/C3H6O/c1-3(2)4/h1-2H3, purity 99.8%

System: propan-1-ol; phases: Liquid
Property: Mass density, kg/m3 (Liquid); method: Vibrating tube method
Temperature, K	Pressure, kPa	Mass density, kg/m3	uncertainty
298.15	101.325	799.45	0.122

System: propan-1-ol; phases: Liquid
Property: Speed of sound, m/s (Liquid); method: Pulse-echo method
Temperature, K	Pressure, kPa	Speed of sound, m/s	uncertainty
298.15	101.325	1204.9	0.68

System: propan-1-ol; phases: Liquid
Fixed: Pressure, kPa = 101
Property: Mass density, kg/m3 (Liquid); method: Vibrating tube method
Temperature, K	Mass density, kg/m3	uncertainty
288.15	807.444	0.135
293.15	803.46	0.137
303.15	795.412	0.141
308.15	791.342	0.143
313.15	787.224	0.145
323.15	778.856	0.147

System: butan-1-ol; phases: Liquid
Property: Mass density, kg/m3 (Liquid); method: Vibrating tube method
Temperature, K	Pressure, kPa	Mass density, kg/m3	uncertainty
298.15	101.325	805.644	0.12

System: butan-1-ol; phases: Liquid
Property: Speed of sound, m/s (Liquid); method: Pulse-echo method
Temperature, K	Pressure, kPa	Speed of sound, m/s	uncertainty
298.15	101.325	1239	0.69

System: butan-1-ol; phases: Liquid
Fixed: Pressure, kPa = 101
Property: Mass density, kg/m3 (Liquid); method: Vibrating tube method
Temperature, K	Mass density, kg/m3	uncertainty
288.15	813.254	0.132
293.15	809.46	0.134
303.15	801.803	0.138
308.15	797.931	0.139
313.15	794.023	0.142
323.15	786.072	0.143

System: acetone; phases: Liquid
Property: Mass density, kg/m3 (Liquid); method: Vibrating tube method
Temperature, K	Pressure, kPa	Mass density, kg/m3	uncertainty
298.15	101.325	784.242	0.128

System: acetone; phases: Liquid
Property: Speed of sound, m/s (Liquid); method: Pulse-echo method
Temperature, K	Pressure, kPa	Speed of sound, m/s	uncertainty
298.15	101.325	1239	0.69

System: acetone; phases: Liquid
Fixed: Pressure, kPa = 101
Property: Mass density, kg/m3 (Liquid); method: Vibrating tube method
Temperature, K	Mass density, kg/m3	uncertainty
288.15	795.645	0.15
293.15	789.96	0.154
303.15	778.478	0.159
308.15	772.669	0.161
313.15	766.807	0.163

System: propan-1-ol + tetrabutylammonium bromide; phases: Liquid
Fixed: Pressure, kPa = 101
Fixed: Temperature, K = 298.15
Property: Speed of sound, m/s (Liquid); method: Pulse-echo method
Molality, mol/kg of tetrabutylammonium bromide	Speed of sound, m/s	uncertainty
0.009749	1205.56	0.68
0.01468	1205.9	0.68
0.01943	1206.21	0.68
0.02431	1206.55	0.69
0.03048	1206.95	0.69
0.04338	1207.84	0.69
0.05581	1208.68	0.69
0.07182	1209.59	0.69
0.08999	1210.76	0.69
0.115	1212.47	0.69
0.1469	1214.43	0.7
0.1811	1216.15	0.7
0.211	1218.13	0.7
0.2504	1220.35	0.71
0.2878	1222.34	0.71

System: propan-1-ol + tetrabutylammonium bromide; phases: Liquid
Fixed: Pressure, kPa = 101
Property: Mass density, kg/m3 (Liquid); method: Vibrating tube method
Temperature, K	Molality, mol/kg of tetrabutylammonium bromide	Mass density, kg/m3	uncertainty
288.15	0	807.444	0.135
288.15	0.009749	808.127	0.135
288.15	0.01468	808.467	0.135
288.15	0.01943	808.792	0.134
288.15	0.02431	809.124	0.134
288.15	0.03048	809.541	0.134
288.15	0.04338	810.408	0.133
288.15	0.05581	811.232	0.132
288.15	0.07182	812.273	0.132
288.15	0.08999	813.45	0.132
288.15	0.115	815.047	0.131
288.15	0.1469	817.043	0.13
288.15	0.1811	819.156	0.129
288.15	0.211	820.961	0.128
288.15	0.2504	823.288	0.128
288.15	0.2878	825.502	0.128
293.15	0	803.46	0.137
293.15	0.009749	804.146	0.136
293.15	0.01468	804.487	0.136
293.15	0.01943	804.813	0.136
293.15	0.02431	805.147	0.136
293.15	0.03048	805.569	0.135
293.15	0.04338	806.439	0.135
293.15	0.05581	807.268	0.134
293.15	0.07182	808.316	0.133
293.15	0.08999	809.495	0.133
293.15	0.115	811.102	0.132
293.15	0.1469	813.106	0.131
293.15	0.1811	815.232	0.131
293.15	0.211	817.046	0.13
293.15	0.2504	819.38	0.129
293.15	0.2878	821.602	0.129
298.15	0	799.45	0.139
298.15	0.009749	800.142	0.138
298.15	0.01468	800.485	0.137
298.15	0.01943	800.815	0.137
298.15	0.02431	801.152	0.137
298.15	0.03048	801.575	0.137
298.15	0.04338	802.452	0.136
298.15	0.05581	803.285	0.135
298.15	0.07182	804.338	0.135
298.15	0.08999	805.523	0.134
298.15	0.115	807.14	0.134
298.15	0.1469	809.15	0.133
298.15	0.1811	811.284	0.132
298.15	0.211	813.105	0.131
298.15	0.2504	815.453	0.131
298.15	0.2878	817.688	0.13
303.15	0	795.412	0.141
303.15	0.009749	796.11	0.14
303.15	0.01468	796.458	0.139
303.15	0.01943	796.789	0.139
303.15	0.02431	797.128	0.139
303.15	0.03048	797.555	0.138
303.15	0.04338	798.437	0.138
303.15	0.05581	799.276	0.137
303.15	0.07182	800.336	0.137
303.15	0.08999	801.535	0.136
303.15	0.115	803.15	0.135
303.15	0.1469	805.17	0.134
303.15	0.1811	807.316	0.134
303.15	0.211	809.145	0.133
303.15	0.2504	811.503	0.132
303.15	0.2878	813.745	0.132
308.15	0	791.342	0.143
308.15	0.009749	792.047	0.141
308.15	0.01468	792.396	0.141
308.15	0.01943	792.73	0.14
308.15	0.02431	793.07	0.14
308.15	0.03048	793.502	0.14
308.15	0.04338	794.383	0.139
308.15	0.05581	795.225	0.138
308.15	0.07182	796.29	0.138
308.15	0.08999	797.5	0.137
308.15	0.115	799.128	0.137
308.15	0.1469	801.166	0.136
308.15	0.1811	803.316	0.135
308.15	0.211	805.158	0.134
308.15	0.2504	807.532	0.134
308.15	0.2878	809.786	0.133
313.15	0	787.224	0.145
313.15	0.009749	787.939	0.143
313.15	0.01468	788.292	0.143
313.15	0.01943	788.632	0.142
313.15	0.02431	788.976	0.142
313.15	0.03048	789.41	0.142
313.15	0.04338	790.301	0.141
313.15	0.05581	791.146	0.14
313.15	0.07182	792.223	0.14
313.15	0.08999	793.434	0.139
313.15	0.115	795.075	0.138
313.15	0.1469	797.125	0.137
313.15	0.1811	799.286	0.137
313.15	0.211	801.131	0.136
313.15	0.2504	803.526	0.135
313.15	0.2878	805.789	0.134
323.15	0	778.856	0.147
323.15	0.009749	779.586	0.147
323.15	0.01468	779.948	0.146
323.15	0.01943	780.289	0.145
323.15	0.02431	780.639	0.145
323.15	0.03048	781.078	0.145
323.15	0.04338	781.983	0.144
323.15	0.05581	782.839	0.143
323.15	0.07182	783.934	0.143
323.15	0.08999	785.16	0.142
323.15	0.115	786.825	0.141
323.15	0.1469	788.901	0.14
323.15	0.1811	791.085	0.14
323.15	0.211	792.962	0.139
323.15	0.2504	795.383	0.138
323.15	0.2878	797.673	0.138

System: butan-1-ol + tetrabutylammonium bromide; phases: Liquid
Fixed: Pressure, kPa = 101
Fixed: Temperature, K = 298.15
Property: Speed of sound, m/s (Liquid); method: Pulse-echo method
Molality, mol/kg of tetrabutylammonium bromide	Speed of sound, m/s	uncertainty
0.007842	1239.5	0.7
0.01652	1240.05	0.7
0.02812	1240.77	0.7
0.04097	1241.54	0.7
0.05576	1242.38	0.7
0.07112	1243.19	0.7
0.08676	1244.05	0.7
0.1111	1245.28	0.71
0.1434	1246.85	0.71
0.1767	1248.5	0.71
0.2066	1250.03	0.71
0.2435	1251.62	0.72
0.2803	1253.23	0.72

System: butan-1-ol + tetrabutylammonium bromide; phases: Liquid
Fixed: Pressure, kPa = 101
Property: Mass density, kg/m3 (Liquid); method: Vibrating tube method
Temperature, K	Molality, mol/kg of tetrabutylammonium bromide	Mass density, kg/m3	uncertainty
288.15	0	813.254	0.132
288.15	0.007842	813.791	0.132
288.15	0.01176	814.058	0.132
288.15	0.01652	814.376	0.132
288.15	0.02112	814.686	0.131
288.15	0.02812	815.148	0.131
288.15	0.04097	815.986	0.13
288.15	0.05576	816.939	0.13
288.15	0.07112	817.914	0.129
288.15	0.08676	818.891	0.129
288.15	0.1111	820.416	0.128
288.15	0.1434	822.391	0.127
288.15	0.1767	824.376	0.126
288.15	0.2066	826.137	0.126
288.15	0.2435	828.255	0.125
288.15	0.2803	830.355	0.125
293.15	0	809.46	0.134
293.15	0.007842	810.001	0.134
293.15	0.01176	810.269	0.133
293.15	0.01652	810.59	0.133
293.15	0.02112	810.899	0.132
293.15	0.02812	811.361	0.132
293.15	0.04097	812.206	0.131
293.15	0.05576	813.161	0.131
293.15	0.07112	814.144	0.13
293.15	0.08676	815.125	0.13
293.15	0.1111	816.654	0.129
293.15	0.1434	818.638	0.128
293.15	0.1767	820.63	0.128
293.15	0.2066	822.399	0.127
293.15	0.2435	824.523	0.126
293.15	0.2803	826.635	0.126
298.15	0	805.644	0.136
298.15	0.007842	806.188	0.135
298.15	0.01176	806.458	0.135
298.15	0.01652	806.781	0.134
298.15	0.02112	807.092	0.134
298.15	0.02812	807.558	0.133
298.15	0.04097	808.407	0.133
298.15	0.05576	809.367	0.132
298.15	0.07112	810.351	0.132
298.15	0.08676	811.335	0.131
298.15	0.1111	812.876	0.131
298.15	0.1434	814.87	0.13
298.15	0.1767	816.87	0.129
298.15	0.2066	818.643	0.128
298.15	0.2435	820.779	0.128
298.15	0.2803	822.9	0.127
303.15	0	801.803	0.138
303.15	0.007842	802.352	0.137
303.15	0.01176	802.625	0.136
303.15	0.01652	802.95	0.136
303.15	0.02112	803.261	0.136
303.15	0.02812	803.735	0.135
303.15	0.04097	804.585	0.134
303.15	0.05576	805.548	0.134
303.15	0.07112	806.538	0.133
303.15	0.08676	807.534	0.133
303.15	0.1111	809.074	0.132
303.15	0.1434	811.075	0.131
303.15	0.1767	813.088	0.13
303.15	0.2066	814.869	0.13
303.15	0.2435	817.014	0.129
303.15	0.2803	819.156	0.129
308.15	0	797.931	0.139
308.15	0.007842	798.484	0.138
308.15	0.01176	798.758	0.138
308.15	0.01652	799.084	0.137
308.15	0.02112	799.4	0.137
308.15	0.02812	799.876	0.137
308.15	0.04097	800.735	0.136
308.15	0.05576	801.703	0.135
308.15	0.07112	802.694	0.135
308.15	0.08676	803.691	0.134
308.15	0.1111	805.244	0.134
308.15	0.1434	807.256	0.133
308.15	0.1767	809.278	0.132
308.15	0.2066	811.064	0.131
308.15	0.2435	813.223	0.131
308.15	0.2803	815.374	0.13
313.15	0	794.023	0.142
313.15	0.007842	794.579	0.139
313.15	0.01176	794.854	0.139
313.15	0.01652	795.184	0.139
313.15	0.02112	795.501	0.139
313.15	0.02812	795.977	0.138
313.15	0.04097	796.837	0.137
313.15	0.05576	797.816	0.137
313.15	0.07112	798.811	0.136
313.15	0.08676	799.818	0.136
313.15	0.1111	801.38	0.135
313.15	0.1434	803.403	0.134
313.15	0.1767	805.438	0.133
313.15	0.2066	807.229	0.133
313.15	0.2435	809.405	0.132
313.15	0.2803	811.565	0.131
323.15	0	786.072	0.143
323.15	0.007842	786.637	0.143
323.15	0.01176	786.915	0.142
323.15	0.01652	787.25	0.142
323.15	0.02112	787.571	0.141
323.15	0.02812	788.052	0.141
323.15	0.04097	788.927	0.14
323.15	0.05576	789.918	0.14
323.15	0.07112	790.938	0.139
323.15	0.08676	791.949	0.139
323.15	0.1111	793.525	0.138
323.15	0.1434	795.573	0.137
323.15	0.1767	797.642	0.136
323.15	0.2066	799.456	0.135
323.15	0.2435	801.655	0.135
323.15	0.2803	803.832	0.134

System: acetone + tetrabutylammonium bromide; phases: Liquid
Fixed: Pressure, kPa = 101
Fixed: Temperature, K = 298.15
Property: Speed of sound, m/s (Liquid); method: Pulse-echo method
Molality, mol/kg of tetrabutylammonium bromide	Speed of sound, m/s	uncertainty
0.009811	1161.32	0.67
0.01993	1162.11	0.67
0.03004	1163.38	0.67
0.05018	1164.53	0.67
0.06646	1165.66	0.67
0.0849	1167.05	0.68
0.1046	1168.38	0.68
0.1339	1170.43	0.68
0.1734	1172.94	0.69
0.213	1175.46	0.69
0.2514	1177.77	0.69
0.2993	1180.78	0.7
0.3392	1182.87	0.7

System: acetone + tetrabutylammonium bromide; phases: Liquid
Fixed: Pressure, kPa = 101
Property: Mass density, kg/m3 (Liquid); method: Vibrating tube method
Temperature, K	Molality, mol/kg of tetrabutylammonium bromide	Mass density, kg/m3	uncertainty
288.15	0	795.645	0.15
288.15	0.009811	796.473	0.15
288.15	0.01516	796.92	0.149
288.15	0.01993	797.313	0.149
288.15	0.02519	797.742	0.148
288.15	0.03004	798.135	0.148
288.15	0.03553	798.583	0.147
288.15	0.05018	799.751	0.147
288.15	0.06646	801.035	0.145
288.15	0.0849	802.431	0.144
288.15	0.1046	803.893	0.143
288.15	0.1339	806.069	0.142
288.15	0.1734	808.93	0.14
288.15	0.213	811.672	0.139
288.15	0.2514	814.317	0.138
288.15	0.2993	817.478	0.137
288.15	0.3392	820.117	0.137
293.15	0	789.96	0.154
293.15	0.009811	790.802	0.152
293.15	0.01516	791.254	0.151
293.15	0.01993	791.648	0.151
293.15	0.02519	792.086	0.151
293.15	0.03004	792.486	0.151
293.15	0.03553	792.944	0.15
293.15	0.05018	794.121	0.149
293.15	0.06646	795.423	0.147
293.15	0.0849	796.824	0.146
293.15	0.1046	798.3	0.2
293.15	0.1339	800.499	0.144
293.15	0.1734	803.387	0.143
293.15	0.213	806.159	0.141
293.15	0.2514	808.83	0.14
293.15	0.2993	812.021	0.139
293.15	0.3392	814.684	0.139
298.15	0	784.242	0.156
298.15	0.009811	785.096	0.155
298.15	0.01516	785.555	0.154
298.15	0.01993	785.954	0.153
298.15	0.02519	786.395	0.153
298.15	0.03004	786.8	0.2
298.15	0.03553	787.26	0.15
298.15	0.05018	788.45	0.15
298.15	0.06646	789.767	0.15
298.15	0.0849	791.185	0.148
298.15	0.1046	792.675	0.148
298.15	0.1339	794.899	0.147
298.15	0.1734	797.817	0.145
298.15	0.213	800.616	0.144
298.15	0.2514	803.313	0.142
298.15	0.2993	806.535	0.141
298.15	0.3392	809.226	0.141
303.15	0	778.478	0.159
303.15	0.009811	779.343	0.157
303.15	0.01516	779.809	0.156
303.15	0.01993	780.213	0.156
303.15	0.02519	780.659	0.155
303.15	0.03004	781.07	0.16
303.15	0.03553	781.532	0.154
303.15	0.05018	782.739	0.153
303.15	0.06646	784.068	0.152
303.15	0.0849	785.504	0.15
303.15	0.1046	787.009	0.15
303.15	0.1339	789.258	0.149
303.15	0.1734	792.208	0.147
303.15	0.213	795.035	0.146
303.15	0.2514	797.76	0.14
303.15	0.2993	801.014	0.143
303.15	0.3392	803.734	0.143
308.15	0	772.669	0.161
308.15	0.009811	773.545	0.16
308.15	0.01516	774.014	0.159
308.15	0.01993	774.424	0.158
308.15	0.02519	774.876	0.158
308.15	0.03004	775.289	0.157
308.15	0.03553	775.757	0.157
308.15	0.05018	776.98	0.16
308.15	0.06646	778.324	0.154
308.15	0.0849	779.779	0.153
308.15	0.1046	781.301	0.152
308.15	0.1339	783.572	0.151
308.15	0.1734	786.555	0.149
308.15	0.213	789.411	0.148
308.15	0.2514	792.168	0.146
308.15	0.2993	795.455	0.145
308.15	0.3392	798.203	0.145
313.15	0	766.807	0.163
313.15	0.009811	767.695	0.162
313.15	0.01516	768.172	0.161
313.15	0.01993	768.587	0.16
313.15	0.02519	769.043	0.16
313.15	0.03004	769.463	0.16
313.15	0.03553	769.94	0.16
313.15	0.05018	771.173	0.158
313.15	0.06646	772.536	0.157
313.15	0.0849	774.005	0.155
313.15	0.1046	775.544	0.154
313.15	0.1339	777.841	0.153
313.15	0.1734	780.856	0.152
313.15	0.213	783.746	0.15
313.15	0.2514	786.53	0.15
313.15	0.2993	789.855	0.147
313.15	0.3392	792.631	0.147
