Measured thermophysical data. Study of molecular interactions of binary mixtures DEC with alkoxyalkanols at various temperatures
Source: J. Chem. Thermodyn., 2017, 10.1016/j.jct.2016.11.002
Compound 1: diethyl carbonate, C5H10O3, InChI=1S/C5H10O3/c1-3-7-5(6)8-4-2/h3-4H2,1-2H3, purity 99%
Compound 2: 2-propoxyethanol, C5H12O2, InChI=1S/C5H12O2/c1-2-4-7-5-3-6/h6H,2-5H2,1H3, purity 99%
Compound 3: 2-methoxyethan-1-ol, C3H8O2, InChI=1S/C3H8O2/c1-5-3-2-4/h4H,2-3H2,1H3, purity 99%
Compound 4: 2-ethoxyethan-1-ol, C4H10O2, InChI=1S/C4H10O2/c1-2-6-4-3-5/h5H,2-4H2,1H3, purity 99%

System: 2-methoxyethan-1-ol; phases: Liquid
Fixed: Pressure, kPa = 100
Property: Mass density, kg/m3 (Liquid); method: Vibrating tube method
Temperature, K	Mass density, kg/m3	uncertainty
298.15	960.32	1.01
303.15	955.71	1.01
308.15	951.08	1.01
313.15	946.42	1.01
318.15	941.72	1.01
323.15	936.89	1.01

System: 2-methoxyethan-1-ol; phases: Liquid
Fixed: Pressure, kPa = 100
Fixed: Frequency, MHz = 3
Property: Speed of sound, m/s (Liquid); method: Single path-length method
Temperature, K	Speed of sound, m/s	uncertainty
298.15	1342.09	1.27
303.15	1324.72	1.27
308.15	1307.38	1.27
313.15	1290.05	1.27
318.15	1272.73	1.27
323.15	1255.43	1.26

System: 2-methoxyethan-1-ol; phases: Liquid
Fixed: Pressure, kPa = 100
Property: Refractive index (Na D-line) (Liquid); method: Standard Abbe refractometry
Temperature, K	Refractive index (Na D-line)	uncertainty
298.15	1.4001	0.0016
303.15	1.3981	0.0016
308.15	1.3961	0.0016
313.15	1.3943	0.0016
318.15	1.3922	0.0016
323.15	1.3902	0.0016

System: 2-ethoxyethan-1-ol; phases: Liquid
Fixed: Pressure, kPa = 100
Property: Mass density, kg/m3 (Liquid); method: Vibrating tube method
Temperature, K	Mass density, kg/m3	uncertainty
298.15	925.54	1.01
303.15	920.99	1.01
308.15	916.41	1.01
313.15	911.8	1.01
318.15	907.15	1.01
323.15	902.46	1.01

System: 2-ethoxyethan-1-ol; phases: Liquid
Fixed: Pressure, kPa = 100
Fixed: Frequency, MHz = 3
Property: Speed of sound, m/s (Liquid); method: Single path-length method
Temperature, K	Speed of sound, m/s	uncertainty
298.15	1302.81	1.31
303.15	1285.05	1.31
308.15	1267.32	1.31
313.15	1249.63	1.31
318.15	1231.95	1.31
323.15	1214.29	1.31
318.15	1231.53	1.31

System: 2-ethoxyethan-1-ol; phases: Liquid
Fixed: Pressure, kPa = 100
Property: Refractive index (Na D-line) (Liquid); method: Standard Abbe refractometry
Temperature, K	Refractive index (Na D-line)	uncertainty
298.15	1.4055	0.0016
303.15	1.4042	0.0016
308.15	1.4028	0.0016
313.15	1.4016	0.0016
318.15	1.4001	0.0016
323.15	1.3988	0.0016

System: diethyl carbonate + 2-methoxyethan-1-ol; phases: Liquid
Fixed: Pressure, kPa = 100
Property: Mass density, kg/m3 (Liquid); method: Vibrating tube method
Temperature, K	Mole fraction of diethyl carbonate	Mass density, kg/m3	uncertainty
298.15	0	960.32	1.01
298.15	0.0645	960.64	1.01
298.15	0.1406	961.01	1.01
298.15	0.2248	961.49	1.01
298.15	0.3025	961.99	1.01
298.15	0.3928	962.65	1.01
298.15	0.4994	963.51	1.01
298.15	0.6007	964.44	1.01
298.15	0.7212	965.66	1.01
298.15	0.8496	967.12	1.01
298.15	1	969.1	1.01
303.15	0	955.71	1.01
303.15	0.0645	955.91	1.01
303.15	0.1406	956.16	1.01
303.15	0.2248	956.52	1.01
303.15	0.3025	956.91	1.01
303.15	0.3928	957.45	1.01
303.15	0.4994	958.2	1.01
303.15	0.6007	959.03	1.01
303.15	0.7212	960.16	1.01
303.15	0.8496	961.54	1.01
303.15	1	963.47	1.01
308.15	0	951.08	1.01
308.15	0.0645	951.16	1.01
308.15	0.1406	951.29	1.01
308.15	0.2248	951.51	1.01
308.15	0.3025	951.79	1.01
308.15	0.3928	952.22	1.01
308.15	0.4994	952.85	1.01
308.15	0.6007	953.59	1.01
308.15	0.7212	954.63	1.01
308.15	0.8496	955.94	1.01
308.15	1	957.81	1.01
313.15	0	946.42	1.01
313.15	0.0645	946.39	1.01
313.15	0.1406	946.49	1.01
313.15	0.2248	946.58	1.01
313.15	0.3025	946.66	1.01
313.15	0.3928	946.97	1.01
313.15	0.4994	947.49	1.01
313.15	0.6007	948.13	1.01
313.15	0.7212	949.08	1.01
313.15	0.8496	950.31	1.01
313.15	1	952.13	1.01
318.15	0	941.72	1.01
318.15	0.0645	941.57	1.01
318.15	0.1406	941.44	1.01
318.15	0.2248	941.41	1.01
318.15	0.3025	941.48	1.01
318.15	0.3928	941.67	1.01
318.15	0.4994	942.07	1.01
318.15	0.6007	942.61	1.01
318.15	0.7212	943.46	1.01
318.15	0.8496	944.62	1.01
318.15	1	946.43	1.01
323.15	0	936.89	1.01
323.15	0.0645	936.71	1.01
323.15	0.1406	936.46	1.01
323.15	0.2248	936.29	1.01
323.15	0.3025	936.25	1.01
323.15	0.3928	936.34	1.01
323.15	0.4994	936.62	1.01
323.15	0.6007	937.08	1.01
323.15	0.7212	937.86	1.01
323.15	0.8496	938.96	1.01
323.15	1	940.69	1.01

System: diethyl carbonate + 2-methoxyethan-1-ol; phases: Liquid
Fixed: Pressure, kPa = 100
Fixed: Frequency, MHz = 3
Property: Speed of sound, m/s (Liquid); method: Single path-length method
Temperature, K	Mole fraction of diethyl carbonate	Speed of sound, m/s	uncertainty
298.15	0	1342.09	1.27
298.15	0.0645	1322.45	1.28
298.15	0.1406	1302.15	1.29
298.15	0.2248	1282.25	1.3
298.15	0.3025	1265.75	1.31
298.15	0.3928	1248.7	1.33
298.15	0.4994	1231.18	1.34
298.15	0.6007	1216.88	1.36
298.15	0.7212	1202.46	1.39
298.15	0.8496	1189.74	1.42
298.15	1	1177.46	1.45
303.15	0	1324.72	1.27
303.15	0.0645	1304.58	1.28
303.15	0.1406	1283.75	1.29
303.15	0.2248	1263.42	1.3
303.15	0.3025	1246.71	1.31
303.15	0.3928	1229.43	1.32
303.15	0.4994	1211.74	1.34
303.15	0.6007	1197.24	1.36
303.15	0.7212	1182.48	1.38
303.15	0.8496	1169.47	1.41
303.15	1	1156.94	1.45
308.15	0	1307.38	1.27
308.15	0.0645	1286.68	1.28
308.15	0.1406	1265.36	1.29
308.15	0.2248	1244.66	1.3
308.15	0.3025	1227.71	1.31
308.15	0.3928	1210.25	1.32
308.15	0.4994	1192.38	1.34
308.15	0.6007	1177.72	1.36
308.15	0.7212	1162.66	1.38
308.15	0.8496	1149.33	1.41
308.15	1	1136.62	1.45
313.15	0	1290.05	1.27
313.15	0.0645	1268.8	1.28
313.15	0.1406	1246.98	1.28
313.15	0.2248	1225.97	1.3
313.15	0.3025	1208.79	1.31
313.15	0.3928	1191.22	1.32
313.15	0.4994	1173.18	1.34
313.15	0.6007	1158.32	1.36
313.15	0.7212	1143.01	1.38
313.15	0.8496	1129.42	1.41
313.15	1	1116.45	1.45
318.15	0	1272.73	1.27
318.15	0.0645	1250.96	1.27
318.15	0.1406	1228.76	1.28
318.15	0.2248	1207.39	1.3
318.15	0.3025	1190.09	1.31
318.15	0.3928	1172.3	1.32
318.15	0.4994	1154.08	1.34
318.15	0.6007	1139.07	1.36
318.15	0.7212	1123.55	1.38
318.15	0.8496	1109.7	1.41
318.15	1	1096.47	1.45
323.15	0	1255.43	1.26
323.15	0.0645	1233.24	1.27
323.15	0.1406	1210.57	1.28
323.15	0.2248	1188.88	1.29
323.15	0.3025	1171.4	1.3
323.15	0.3928	1153.45	1.31
323.15	0.4994	1135.08	1.33
323.15	0.6007	1119.9	1.35
323.15	0.7212	1104.18	1.38
323.15	0.8496	1090.05	1.4
323.15	1	1076.66	1.44

System: diethyl carbonate + 2-methoxyethan-1-ol; phases: Liquid
Fixed: Pressure, kPa = 100
Property: Refractive index (Na D-line) (Liquid); method: Standard Abbe refractometry
Temperature, K	Mole fraction of diethyl carbonate	Refractive index (Na D-line)	uncertainty
298.15	0	1.4001	0.0016
298.15	0.0645	1.3989	0.0016
298.15	0.1406	1.3976	0.0016
298.15	0.2248	1.3963	0.0016
298.15	0.3025	1.3951	0.0016
298.15	0.3928	1.3936	0.0016
298.15	0.4994	1.3916	0.0016
298.15	0.6007	1.3897	0.0016
298.15	0.7212	1.3874	0.0016
298.15	0.8496	1.3851	0.0016
298.15	1	1.3825	0.0016
303.15	0	1.3981	0.0016
303.15	0.0645	1.3969	0.0016
303.15	0.1406	1.3957	0.0016
303.15	0.2248	1.3943	0.0016
303.15	0.3025	1.3931	0.0016
303.15	0.3928	1.3915	0.0016
303.15	0.4994	1.3895	0.0016
303.15	0.6007	1.3876	0.0016
303.15	0.7212	1.3853	0.0016
303.15	0.8496	1.3829	0.0016
303.15	1	1.3802	0.0016
308.15	0	1.3961	0.0016
308.15	0.0645	1.395	0.0016
308.15	0.1406	1.3938	0.0016
308.15	0.2248	1.3924	0.0016
308.15	0.3025	1.3911	0.0016
308.15	0.3928	1.3894	0.0016
308.15	0.4994	1.3875	0.0016
308.15	0.6007	1.3855	0.0016
308.15	0.7212	1.3832	0.0016
308.15	0.8496	1.3807	0.0016
308.15	1	1.3779	0.0016
313.15	0	1.3943	0.0016
313.15	0.0645	1.3931	0.0016
313.15	0.1406	1.3918	0.0016
313.15	0.2248	1.3904	0.0016
313.15	0.3025	1.389	0.0016
313.15	0.3928	1.3874	0.0016
313.15	0.4994	1.3854	0.0016
313.15	0.6007	1.3834	0.0016
313.15	0.7212	1.3811	0.0016
313.15	0.8496	1.3786	0.0016
313.15	1	1.3756	0.0016
318.15	0	1.3922	0.0016
318.15	0.0645	1.3913	0.0016
318.15	0.1406	1.39	0.0016
318.15	0.2248	1.3885	0.0016
318.15	0.3025	1.3871	0.0016
318.15	0.3928	1.3853	0.0016
318.15	0.4994	1.3833	0.0016
318.15	0.6007	1.3814	0.0016
318.15	0.7212	1.379	0.0016
318.15	0.8496	1.3764	0.0016
318.15	1	1.3733	0.0016
323.15	0	1.3902	0.0016
323.15	0.0645	1.3894	0.0016
323.15	0.1406	1.3881	0.0016
323.15	0.2248	1.3865	0.0016
323.15	0.3025	1.385	0.0016
323.15	0.3928	1.3832	0.0016
323.15	0.4994	1.3812	0.0016
323.15	0.6007	1.3792	0.0016
323.15	0.7212	1.3768	0.0016
323.15	0.8496	1.3743	0.0016
323.15	1	1.371	0.0016

System: diethyl carbonate + 2-ethoxyethan-1-ol; phases: Liquid
Fixed: Pressure, kPa = 100
Property: Mass density, kg/m3 (Liquid); method: Vibrating tube method
Temperature, K	Mole fraction of diethyl carbonate	Mass density, kg/m3	uncertainty
298.15	0	925.54	1.01
298.15	0.0957	929.94	1.01
298.15	0.1529	932.54	1.01
298.15	0.2624	937.43	1.01
298.15	0.3484	941.21	1.01
298.15	0.4447	945.38	1.01
298.15	0.5468	949.76	1.01
298.15	0.6539	954.3	1.01
298.15	0.7721	959.31	1.01
298.15	0.8793	963.87	1.01
298.15	1	969.1	1.01
303.15	0	920.99	1.01
303.15	0.0957	925.24	1.01
303.15	0.1529	927.76	1.01
303.15	0.2624	932.5	1.01
303.15	0.3484	936.17	1.01
303.15	0.4447	940.24	1.01
303.15	0.5468	944.5	1.01
303.15	0.6539	948.94	1.01
303.15	0.7721	953.83	1.01
303.15	0.8793	958.31	1.01
303.15	1	963.47	1.01
308.15	0	916.41	1.01
308.15	0.0957	920.51	1.01
308.15	0.1529	922.94	1.01
308.15	0.2624	927.54	1.01
308.15	0.3484	931.11	1.01
308.15	0.4447	935.08	1.01
308.15	0.5468	939.21	1.01
308.15	0.6539	943.54	1.01
308.15	0.7721	948.31	1.01
308.15	0.8793	952.72	1.01
308.15	1	957.81	1.01
313.15	0	911.8	1.01
313.15	0.0957	915.76	1.01
313.15	0.1529	918.09	1.01
313.15	0.2624	922.55	1.01
313.15	0.3484	926	1.01
313.15	0.4447	929.84	1.01
313.15	0.5468	933.88	1.01
313.15	0.6539	938.09	1.01
313.15	0.7721	942.77	1.01
313.15	0.8793	947.11	1.01
313.15	1	952.13	1.01
318.15	0	907.15	1.01
318.15	0.0957	910.93	1.01
318.15	0.1529	913.21	1.01
318.15	0.2624	917.51	1.01
318.15	0.3484	920.86	1.01
318.15	0.4447	924.57	1.01
318.15	0.5468	928.49	1.01
318.15	0.6539	932.6	1.01
318.15	0.7721	937.19	1.01
318.15	0.8793	941.45	1.01
318.15	1	946.43	1.01
323.15	0	902.46	1.01
323.15	0.0957	906.11	1.01
323.15	0.1529	908.28	1.01
323.15	0.2624	912.44	1.01
323.15	0.3484	915.7	1.01
323.15	0.4447	919.3	1.01
323.15	0.5468	923.1	1.01
323.15	0.6539	927.1	1.01
323.15	0.7721	931.58	1.01
323.15	0.8793	935.76	1.01
323.15	1	940.69	1.01

System: diethyl carbonate + 2-ethoxyethan-1-ol; phases: Liquid
Fixed: Pressure, kPa = 100
Fixed: Frequency, MHz = 3
Property: Speed of sound, m/s (Liquid); method: Single path-length method
Temperature, K	Mole fraction of diethyl carbonate	Speed of sound, m/s	uncertainty
298.15	0	1302.81	1.31
298.15	0.0957	1287.05	1.33
298.15	0.1529	1278.3	1.33
298.15	0.2624	1262.2	1.35
298.15	0.3484	1249.95	1.36
298.15	0.4447	1236.66	1.37
298.15	0.5468	1223.5	1.38
298.15	0.6539	1210.85	1.4
298.15	0.7721	1198.32	1.42
298.15	0.8793	1188	1.43
298.15	1	1177.46	1.45
303.15	0	1285.05	1.31
303.15	0.0957	1268.93	1.33
303.15	0.1529	1259.85	1.33
303.15	0.2624	1243.38	1.35
303.15	0.3484	1230.72	1.36
303.15	0.4447	1217.28	1.37
303.15	0.5468	1204.02	1.38
303.15	0.6539	1191.1	1.4
303.15	0.7721	1178.35	1.41
303.15	0.8793	1167.75	1.43
303.15	1	1156.94	1.45
308.15	0	1267.32	1.31
308.15	0.0957	1250.68	1.33
308.15	0.1529	1241.35	1.33
308.15	0.2624	1224.56	1.35
308.15	0.3484	1211.93	1.36
308.15	0.4447	1198.34	1.37
308.15	0.5468	1184.74	1.38
308.15	0.6539	1171.56	1.4
308.15	0.7721	1158.37	1.41
308.15	0.8793	1147.58	1.43
308.15	1	1136.62	1.45
313.15	0	1249.63	1.31
313.15	0.0957	1232.45	1.33
313.15	0.1529	1223.02	1.33
313.15	0.2624	1205.91	1.35
313.15	0.3484	1193.05	1.36
313.15	0.4447	1179.31	1.37
313.15	0.5468	1165.63	1.38
313.15	0.6539	1152.09	1.4
313.15	0.7721	1138.63	1.41
313.15	0.8793	1127.54	1.43
313.15	1	1116.45	1.45
318.15	0	1231.95	1.31
318.15	0.0957	1214.38	1.33
318.15	0.1529	1204.6	1.33
318.15	0.2624	1187.23	1.35
318.15	0.3484	1174.32	1.35
318.15	0.4447	1160.42	1.37
318.15	0.5468	1146.57	1.38
318.15	0.6539	1132.84	1.39
318.15	0.7721	1118.99	1.41
318.15	0.8793	1107.76	1.43
318.15	1	1096.47	1.45
323.15	0	1214.29	1.31
323.15	0.0957	1196.28	1.32
323.15	0.1529	1186.32	1.33
323.15	0.2624	1168.68	1.34
323.15	0.3484	1155.63	1.35
323.15	0.4447	1141.57	1.37
323.15	0.5468	1127.53	1.38
323.15	0.6539	1113.64	1.39
323.15	0.7721	1099.63	1.41
323.15	0.8793	1088.1	1.42
323.15	1	1076.66	1.44

System: diethyl carbonate + 2-ethoxyethan-1-ol; phases: Liquid
Fixed: Pressure, kPa = 100
Property: Refractive index (Na D-line) (Liquid); method: Standard Abbe refractometry
Temperature, K	Mole fraction of diethyl carbonate	Refractive index (Na D-line)	uncertainty
298.15	0	1.4055	0.0016
298.15	0.0957	1.4036	0.0016
298.15	0.1529	1.4025	0.0016
298.15	0.2624	1.4003	0.0016
298.15	0.3484	1.3985	0.0016
298.15	0.4447	1.3963	0.0016
298.15	0.5468	1.3939	0.0016
298.15	0.6539	1.3912	0.0016
298.15	0.7721	1.3882	0.0016
298.15	0.8793	1.3855	0.0016
298.15	1	1.3825	0.0016
303.15	0	1.4042	0.0016
303.15	0.0957	1.4024	0.0016
303.15	0.1529	1.4012	0.0016
303.15	0.2624	1.3989	0.0016
303.15	0.3484	1.397	0.0016
303.15	0.4447	1.3947	0.0016
303.15	0.5468	1.3921	0.0016
303.15	0.6539	1.3894	0.0016
303.15	0.7721	1.3862	0.0016
303.15	0.8793	1.3834	0.0016
303.15	1	1.3802	0.0016
308.15	0	1.4028	0.0016
308.15	0.0957	1.4011	0.0016
308.15	0.1529	1.3999	0.0016
308.15	0.2624	1.3975	0.0016
308.15	0.3484	1.3954	0.0016
308.15	0.4447	1.393	0.0016
308.15	0.5468	1.3904	0.0016
308.15	0.6539	1.3875	0.0016
308.15	0.7721	1.3843	0.0016
308.15	0.8793	1.3813	0.0016
308.15	1	1.3779	0.0016
313.15	0	1.4016	0.0016
313.15	0.0957	1.3999	0.0016
313.15	0.1529	1.3987	0.0016
313.15	0.2624	1.3961	0.0016
313.15	0.3484	1.3939	0.0016
313.15	0.4447	1.3914	0.0016
313.15	0.5468	1.3886	0.0016
313.15	0.6539	1.3857	0.0016
313.15	0.7721	1.3823	0.0016
313.15	0.8793	1.3792	0.0016
313.15	1	1.3756	0.0016
318.15	0	1.4001	0.0016
318.15	0.0957	1.3986	0.0016
318.15	0.1529	1.3973	0.0016
318.15	0.2624	1.3946	0.0016
318.15	0.3484	1.3923	0.0016
318.15	0.4447	1.3897	0.0016
318.15	0.5468	1.3868	0.0016
318.15	0.6539	1.3838	0.0016
318.15	0.7721	1.3804	0.0016
318.15	0.8793	1.377	0.0016
318.15	1	1.3733	0.0016
323.15	0	1.3988	0.0016
323.15	0.0957	1.3973	0.0016
323.15	0.1529	1.396	0.0016
323.15	0.2624	1.3931	0.0016
323.15	0.3484	1.3907	0.0016
323.15	0.4447	1.388	0.0016
323.15	0.5468	1.3851	0.0016
323.15	0.6539	1.382	0.0016
323.15	0.7721	1.3784	0.0016
323.15	0.8793	1.3749	0.0016
323.15	1	1.371	0.0016

System: diethyl carbonate + 2-propoxyethanol; phases: Liquid
Fixed: Pressure, kPa = 100
Property: Mass density, kg/m3 (Liquid); method: Vibrating tube method
Temperature, K	Mole fraction of diethyl carbonate	Mass density, kg/m3	uncertainty
298.15	0	907.16	1.01
298.15	0.0881	912.3	1.01
298.15	0.1907	918.42	1.01
298.15	0.2866	924.17	1.01
298.15	0.3906	930.48	1.01
298.15	0.484	936.17	1.01
298.15	0.5955	943.04	1.01
298.15	0.6907	948.97	1.01
298.15	0.7908	955.29	1.01
298.15	0.8939	961.94	1.01
298.15	1	969.1	1.01
303.15	0	902.74	1.01
303.15	0.0881	907.76	1.01
303.15	0.1907	913.74	1.01
303.15	0.2866	919.36	1.01
303.15	0.3906	925.55	1.01
303.15	0.484	931.11	1.01
303.15	0.5955	937.84	1.01
303.15	0.6907	943.65	1.01
303.15	0.7908	949.85	1.01
303.15	0.8939	956.4	1.01
303.15	1	963.47	1.01
308.15	0	898.32	1.01
308.15	0.0881	903.19	1.01
308.15	0.1907	909.01	1.01
308.15	0.2866	914.52	1.01
308.15	0.3906	920.55	1.01
308.15	0.484	926.02	1.01
308.15	0.5955	932.6	1.01
308.15	0.6907	938.31	1.01
308.15	0.7908	944.38	1.01
308.15	0.8939	950.83	1.01
308.15	1	957.81	1.01
313.15	0	893.89	1.01
313.15	0.0881	898.63	1.01
313.15	0.1907	904.33	1.01
313.15	0.2866	909.68	1.01
313.15	0.3906	915.57	1.01
313.15	0.484	920.91	1.01
313.15	0.5955	927.35	1.01
313.15	0.6907	932.94	1.01
313.15	0.7908	938.9	1.01
313.15	0.8939	945.23	1.01
313.15	1	952.13	1.01
318.15	0	889.45	1.01
318.15	0.0881	894.03	1.01
318.15	0.1907	899.58	1.01
318.15	0.2866	904.8	1.01
318.15	0.3906	910.54	1.01
318.15	0.484	915.74	1.01
318.15	0.5955	922.05	1.01
318.15	0.6907	927.53	1.01
318.15	0.7908	933.4	1.01
318.15	0.8939	939.63	1.01
318.15	1	946.43	1.01
323.15	0	885	1.01
323.15	0.0881	889.44	1.01
323.15	0.1907	894.82	1.01
323.15	0.2866	899.91	1.01
323.15	0.3906	905.53	1.01
323.15	0.484	910.62	1.01
323.15	0.5955	916.75	1.01
323.15	0.6907	922.11	1.01
323.15	0.7908	927.83	1.01
323.15	0.8939	933.96	1.01
323.15	1	940.69	1.01

System: diethyl carbonate + 2-propoxyethanol; phases: Liquid
Fixed: Pressure, kPa = 100
Fixed: Frequency, MHz = 3
Property: Speed of sound, m/s (Liquid); method: Single path-length method
Temperature, K	Mole fraction of diethyl carbonate	Speed of sound, m/s	uncertainty
298.15	0	1300.92	1.31
298.15	0.0881	1289.11	1.32
298.15	0.1907	1276.12	1.33
298.15	0.2866	1264	1.35
298.15	0.3906	1250.33	1.36
298.15	0.484	1237.85	1.37
298.15	0.5955	1223.41	1.39
298.15	0.6907	1211.73	1.4
298.15	0.7908	1200.05	1.42
298.15	0.8939	1188.52	1.43
298.15	1	1177.46	1.45
303.15	0	1283.65	1.31
303.15	0.0881	1271.67	1.32
303.15	0.1907	1258.15	1.33
303.15	0.2866	1245.57	1.35
303.15	0.3906	1231.45	1.36
303.15	0.484	1218.71	1.37
303.15	0.5955	1203.92	1.39
303.15	0.6907	1191.97	1.4
303.15	0.7908	1180.1	1.42
303.15	0.8939	1168.33	1.43
303.15	1	1156.94	1.45
308.15	0	1266.41	1.31
308.15	0.0881	1254.25	1.32
308.15	0.1907	1240.17	1.33
308.15	0.2866	1227.12	1.35
308.15	0.3906	1212.65	1.36
308.15	0.484	1199.65	1.37
308.15	0.5955	1184.56	1.39
308.15	0.6907	1172.35	1.4
308.15	0.7908	1160.17	1.42
308.15	0.8939	1148.25	1.43
308.15	1	1136.62	1.45
313.15	0	1249.17	1.31
313.15	0.0881	1236.76	1.32
313.15	0.1907	1222.34	1.33
313.15	0.2866	1208.85	1.35
313.15	0.3906	1194.01	1.36
313.15	0.484	1180.72	1.37
313.15	0.5955	1165.34	1.39
313.15	0.6907	1152.88	1.4
313.15	0.7908	1140.45	1.41
313.15	0.8939	1128.35	1.43
313.15	1	1116.45	1.45
318.15	0	1231.93	1.31
318.15	0.0881	1219.29	1.32
318.15	0.1907	1204.45	1.33
318.15	0.2866	1190.58	1.35
318.15	0.3906	1175.34	1.36
318.15	0.484	1161.85	1.37
318.15	0.5955	1146.22	1.39
318.15	0.6907	1133.53	1.4
318.15	0.7908	1120.95	1.41
318.15	0.8939	1108.56	1.43
318.15	1	1096.47	1.45
323.15	0	1214.95	1.31
323.15	0.0881	1201.92	1.32
323.15	0.1907	1186.85	1.33
323.15	0.2866	1172.53	1.34
323.15	0.3906	1156.91	1.36
323.15	0.484	1143.22	1.37
323.15	0.5955	1127.31	1.38
323.15	0.6907	1114.45	1.4
323.15	0.7908	1101.65	1.41
323.15	0.8939	1089.03	1.43
323.15	1	1076.66	1.44

System: diethyl carbonate + 2-propoxyethanol; phases: Liquid
Fixed: Pressure, kPa = 100
Property: Refractive index (Na D-line) (Liquid); method: Standard Abbe refractometry
Temperature, K	Mole fraction of diethyl carbonate	Refractive index (Na D-line)	uncertainty
298.15	0	1.4103	0.0016
298.15	0.0881	1.4089	0.0016
298.15	0.1907	1.4074	0.0016
298.15	0.2866	1.4062	0.0016
298.15	0.3906	1.4046	0.0016
298.15	0.484	1.4023	0.0016
298.15	0.5955	1.3988	0.0016
298.15	0.6907	1.3953	0.0016
298.15	0.7908	1.3914	0.0016
298.15	0.8939	1.3871	0.0016
298.15	1	1.3825	0.0016
303.15	0	1.4081	0.0016
303.15	0.0881	1.4068	0.0016
303.15	0.1907	1.4054	0.0016
303.15	0.2866	1.4042	0.0016
303.15	0.3906	1.4026	0.0016
303.15	0.484	1.4004	0.0016
303.15	0.5955	1.3968	0.0016
303.15	0.6907	1.3933	0.0016
303.15	0.7908	1.3894	0.0016
303.15	0.8939	1.385	0.0016
303.15	1	1.3802	0.0016
308.15	0	1.4058	0.0016
308.15	0.0881	1.4046	0.0016
308.15	0.1907	1.4034	0.0016
308.15	0.2866	1.4023	0.0016
308.15	0.3906	1.4006	0.0016
308.15	0.484	1.3984	0.0016
308.15	0.5955	1.3948	0.0016
308.15	0.6907	1.3912	0.0016
308.15	0.7908	1.3873	0.0016
308.15	0.8939	1.3828	0.0016
308.15	1	1.3779	0.0016
313.15	0	1.4034	0.0016
313.15	0.0881	1.4024	0.0016
313.15	0.1907	1.4014	0.0016
313.15	0.2866	1.4004	0.0016
313.15	0.3906	1.3987	0.0016
313.15	0.484	1.3964	0.0016
313.15	0.5955	1.3928	0.0016
313.15	0.6907	1.3892	0.0016
313.15	0.7908	1.3851	0.0016
313.15	0.8939	1.3805	0.0016
313.15	1	1.3756	0.0016
318.15	0	1.4011	0.0016
318.15	0.0881	1.4003	0.0016
318.15	0.1907	1.3995	0.0016
318.15	0.2866	1.3985	0.0016
318.15	0.3906	1.3967	0.0016
318.15	0.484	1.3944	0.0016
318.15	0.5955	1.3908	0.0016
318.15	0.6907	1.3872	0.0016
318.15	0.7908	1.3831	0.0016
318.15	0.8939	1.3782	0.0016
318.15	1	1.3733	0.0016
323.15	0	1.3988	0.0016
323.15	0.0881	1.3982	0.0016
323.15	0.1907	1.3975	0.0016
323.15	0.2866	1.3966	0.0016
323.15	0.3906	1.3947	0.0016
323.15	0.484	1.3924	0.0016
323.15	0.5955	1.3888	0.0016
323.15	0.6907	1.3852	0.0016
323.15	0.7908	1.3809	0.0016
323.15	0.8939	1.376	0.0016
323.15	1	1.371	0.0016
