Measured thermophysical data. The (water + acetonitrile) mixture revisited: A new approach for calculating partial molar volumes
Source: J. Chem. Thermodyn., 2006, 10.1016/j.jct.2005.08.009
Compound 1: water, H2O, InChI=1S/H2O/h1H2
Compound 2: acetonitrile, C2H3N, InChI=1S/C2H3N/c1-2-3/h1H3, purity 99.9%

System: acetonitrile; phases: Liquid
Fixed: Pressure, kPa = 101
Property: Viscosity, Pa*s (Liquid); method: CAPTUB::UFactor:2
Temperature, K	Viscosity, Pa*s	uncertainty
298.15	0.0003417	5.3e-06
303.15	0.000328	5.1e-06
308.15	0.0003129	4.9e-06
313.15	0.0003009	4.8e-06
318.15	0.0002899	4.7e-06

System: acetonitrile; phases: Liquid
Fixed: Pressure, kPa = 101
Property: Mass density, kg/m3 (Liquid); method: VIBTUB:UFactor:16
Temperature, K	Mass density, kg/m3	uncertainty
298.15	776.69	1.89
303.15	771.89	1.92
308.15	765.46	1.96
313.15	760.86	1.99
318.15	754.76	2.03

System: acetonitrile + water; phases: Liquid
Fixed: Pressure, kPa = 101
Property: Viscosity, Pa*s (Liquid); method: CAPTUB:UFactor:2
Temperature, K	Mole fraction of acetonitrile	Viscosity, Pa*s	uncertainty
298.15	0	0.0008901	1.12e-05
298.15	0.051	0.0009849	1.22e-05
298.15	0.1169	0.0009567	1.19e-05
298.15	0.1971	0.0008743	1.1e-05
298.15	0.2728	0.0007891	1.01e-05
298.15	0.3601	0.0006953	9.1e-06
298.15	0.4417	0.0006061	8.1e-06
298.15	0.5204	0.0005387	7.4e-06
298.15	0.6012	0.0004802	6.8e-06
298.15	0.6671	0.0004415	6.3e-06
298.15	0.7398	0.0004064	6e-06
298.15	0.8253	0.0003722	5.6e-06
298.15	0.886	0.0003561	5.4e-06
298.15	0.9389	0.0003478	5.3e-06
298.15	0.999	0.0003418	5.3e-06
298.15	1	0.0003417	5.3e-06
303.15	0	0.0007973	1.02e-05
303.15	0.051	0.0008799	1.11e-05
303.15	0.1169	0.0008628	1.09e-05
303.15	0.1971	0.0007931	1.01e-05
303.15	0.2728	0.0007152	9.3e-06
303.15	0.3601	0.0006298	8.4e-06
303.15	0.4417	0.0005574	7.6e-06
303.15	0.5204	0.0004972	6.9e-06
303.15	0.6012	0.0004473	6.4e-06
303.15	0.6671	0.0004138	6e-06
303.15	0.7398	0.0003831	5.7e-06
303.15	0.8253	0.0003545	5.4e-06
303.15	0.886	0.0003405	5.2e-06
303.15	0.9389	0.000333	5.2e-06
303.15	0.999	0.0003281	5.1e-06
303.15	1	0.000328	5.1e-06
308.15	0	0.0007193	9.3e-06
308.15	0.051	0.0007964	1.02e-05
308.15	0.1169	0.0007842	1e-05
308.15	0.1971	0.0007218	9.4e-06
308.15	0.2728	0.0006502	8.6e-06
308.15	0.3601	0.0005737	7.8e-06
308.15	0.4417	0.0005121	7.1e-06
308.15	0.5204	0.0004606	6.5e-06
308.15	0.6012	0.0004189	6.1e-06
308.15	0.6671	0.0003902	5.8e-06
308.15	0.7398	0.0003633	5.5e-06
308.15	0.8253	0.0003386	5.2e-06
308.15	0.886	0.0003259	5.1e-06
308.15	0.9389	0.0003173	5e-06
308.15	0.999	0.000313	4.9e-06
308.15	1	0.0003129	4.9e-06
313.15	0	0.000653	8.6e-06
313.15	0.051	0.0007208	9.3e-06
313.15	0.1169	0.0007155	9.3e-06
313.15	0.1971	0.0006628	8.7e-06
313.15	0.2728	0.0005951	8e-06
313.15	0.3601	0.0005266	7.3e-06
313.15	0.4417	0.0004744	6.7e-06
313.15	0.5204	0.0004317	6.2e-06
313.15	0.6012	0.0003959	5.8e-06
313.15	0.6671	0.0003698	5.6e-06
313.15	0.7398	0.0003471	5.3e-06
313.15	0.8253	0.0003256	5.1e-06
313.15	0.886	0.0003142	5e-06
313.15	0.9389	0.0003061	4.9e-06
313.15	0.999	0.000301	4.8e-06
313.15	1	0.0003009	4.8e-06
318.15	0	0.0005961	8e-06
318.15	0.051	0.0006522	8.6e-06
318.15	0.1169	0.0006524	8.6e-06
318.15	0.1971	0.0006069	8.1e-06
318.15	0.2728	0.0005462	7.5e-06
318.15	0.3601	0.0004853	6.8e-06
318.15	0.4417	0.0004435	6.4e-06
318.15	0.5204	0.0004089	6e-06
318.15	0.6012	0.0003783	5.6e-06
318.15	0.6671	0.0003556	5.4e-06
318.15	0.7398	0.0003353	5.2e-06
318.15	0.8253	0.0003159	5e-06
318.15	0.886	0.0003039	4.8e-06
318.15	0.9389	0.0002963	4.8e-06
318.15	0.999	0.00029	4.7e-06
318.15	1	0.0002899	4.7e-06

System: acetonitrile + water; phases: Liquid
Fixed: Pressure, kPa = 101
Property: Mass density, kg/m3 (Liquid); method: VIBTUB:UFactor:16
Temperature, K	Mole fraction of acetonitrile	Mass density, kg/m3	uncertainty
298.15	0	997.05	0.52
298.15	0.051	978.98	0.63
298.15	0.1169	954.73	0.78
298.15	0.1971	924.74	0.97
298.15	0.2728	900.14	1.12
298.15	0.3601	876.35	1.27
298.15	0.4417	857.17	1.39
298.15	0.5204	841.27	1.49
298.15	0.6012	826.9	1.58
298.15	0.6671	816.3	1.65
298.15	0.7398	805.64	1.71
298.15	0.8253	794.81	1.78
298.15	0.886	787.78	1.82
298.15	0.9389	782.44	1.86
298.15	1	776.69	1.89
303.15	0	995.65	0.53
303.15	0.051	975.65	0.65
303.15	0.1169	951.24	0.8
303.15	0.1971	921.1	0.99
303.15	0.2728	896.29	1.15
303.15	0.3601	872.19	1.3
303.15	0.4417	852.79	1.42
303.15	0.5204	836.65	1.52
303.15	0.6012	822.15	1.61
303.15	0.6671	811.49	1.68
303.15	0.7398	800.78	1.74
303.15	0.8253	789.89	1.81
303.15	0.886	782.84	1.86
303.15	0.9389	777.52	1.89
303.15	1	771.89	1.92
308.15	0	994.03	0.54
308.15	0.051	972.14	0.67
308.15	0.1169	947.08	0.83
308.15	0.1971	916.51	1.02
308.15	0.2728	891.33	1.18
308.15	0.3601	866.86	1.33
308.15	0.4417	846.98	1.46
308.15	0.5204	830.76	1.56
308.15	0.6012	816.07	1.65
308.15	0.6671	805.22	1.72
308.15	0.7398	794.39	1.78
308.15	0.8253	783.52	1.85
308.15	0.886	776.44	1.9
308.15	0.9389	771.07	1.93
308.15	1	765.46	1.96
313.15	0	992.22	0.55
313.15	0.051	969.11	0.69
313.15	0.1169	943.32	0.85
313.15	0.1971	912.69	1.05
313.15	0.2728	887.31	1.2
313.15	0.3601	862.67	1.36
313.15	0.4417	842.61	1.49
313.15	0.5204	826.18	1.59
313.15	0.6012	811.38	1.68
313.15	0.6671	800.45	1.75
313.15	0.7398	789.71	1.81
313.15	0.8253	778.81	1.88
313.15	0.886	771.75	1.93
313.15	0.9389	766.36	1.96
313.15	1	760.86	1.99
318.15	0	990.21	0.56
318.15	0.051	965.89	0.71
318.15	0.1169	939.05	0.88
318.15	0.1971	908.03	1.07
318.15	0.2728	882.39	1.24
318.15	0.3601	857.41	1.39
318.15	0.4417	837.06	1.52
318.15	0.5204	820.41	1.62
318.15	0.6012	805.44	1.72
318.15	0.6671	794.36	1.78
318.15	0.7398	783.69	1.85
318.15	0.8253	772.68	1.92
318.15	0.886	765.67	1.96
318.15	0.9389	760.29	2
318.15	1	754.76	2.03
