Measured thermophysical data. (Vapour + liquid + liquid) equilibria and excess molar enthalpies of binary and ternary mixtures of isopropanol, water, and propylene
Source: J. Chem. Thermodyn., 2008, 10.1016/j.jct.2007.12.002
Compound 1: water, H2O, InChI=1S/H2O/h1H2
Compound 2: propan-2-ol, C3H8O, InChI=1S/C3H8O/c1-3(2)4/h3-4H,1-2H3
Compound 3: propene, C3H6, InChI=1S/C3H6/c1-3-2/h3H,1H2,2H3, purity 99.5%

System: propan-2-ol + water; phases: Liquid
Fixed: Pressure, kPa = 101
Property: Excess molar enthalpy (molar enthalpy of mixing), kJ/mol (Liquid); method: Flow calorimetry
Temperature, K	Mole fraction of propan-2-ol	Excess molar enthalpy (molar enthalpy of mixing), kJ/mol	uncertainty
313.15	0.0102	-0.0973	0.0062
313.15	0.0306	-0.2719	0.0098
313.15	0.0611	-0.423	0.0129
313.15	0.1018	-0.4481	0.0136
313.15	0.2031	-0.3026	0.0104
313.15	0.3041	-0.1218	0.0066
313.15	0.4047	0.049	0.0051
313.15	0.5048	0.1916	0.0081
313.15	0.5548	0.2468	0.0093
313.15	0.6046	0.2904	0.0102
313.15	0.6544	0.3157	0.0108
313.15	0.704	0.3259	0.011
313.15	0.8031	0.293	0.0102
313.15	0.9017	0.1781	0.0079
313.15	0.9509	0.0961	0.0062
333.15	0.0102	-0.0628	0.0053
333.15	0.0407	-0.1899	0.0081
333.15	0.0611	-0.2168	0.0087
333.15	0.0713	-0.216	0.0087
333.15	0.1018	-0.1997	0.0083
333.15	0.2013	-0.0435	0.0049
333.15	0.3041	0.1244	0.0066
333.15	0.4047	0.2727	0.0098
333.15	0.5048	0.3873	0.0123
333.15	0.5548	0.4258	0.0131
333.15	0.6046	0.4482	0.0136
333.15	0.704	0.4425	0.0134
333.15	0.8031	0.3741	0.0119
333.15	0.9017	0.2282	0.0089
333.15	0.9509	0.1004	0.0062
353.15	0.0102	-0.027	0.0047
353.15	0.0306	-0.0742	0.0055
353.15	0.0611	-0.0763	0.0057
353.15	0.1018	0.0009	0.0041
353.15	0.2031	0.2165	0.0087
353.15	0.3041	0.4048	0.0125
353.15	0.4047	0.5247	0.0151
353.15	0.5048	0.5988	0.0167
353.15	0.5548	0.6375	0.0176
353.15	0.6046	0.6639	0.018
353.15	0.6544	0.6668	0.0182
353.15	0.704	0.6306	0.0174
353.15	0.8031	0.4924	0.0144
353.15	0.9017	0.2797	0.01
353.15	0.9509	0.1614	0.0074

System: propan-2-ol + propene + water; phases: Liquid mixture 1, Liquid mixture 2, Gas
Fixed: Temperature, K = 313.15
Property: Mole fraction of propan-2-ol (Liquid mixture 1); method: Chromatography
Pressure, kPa	Mole fraction of propan-2-ol	uncertainty
1381	0.11878	0.00485
1403	0.11363	0.00467
1424	0.10308	0.00421
1473	0.09706	0.00396
1488	0.08937	0.00371
1516	0.08007	0.00333
1590	0.05342	0.00236
1690	0	1e-05

System: propan-2-ol + propene + water; phases: Liquid mixture 2, Liquid mixture 1, Gas
Fixed: Temperature, K = 313.15
Property: Mole fraction of propan-2-ol (Liquid mixture 2); method: Chromatography
Pressure, kPa	Mole fraction of propan-2-ol	uncertainty
1381	0.3678	0.01505
1403	0.3876	0.0158
1424	0.39524	0.01606
1473	0.40399	0.01641
1488	0.40536	0.01647
1516	0.39898	0.01699
1590	0.16276	0.008
1690	0	1e-05

System: propan-2-ol + propene + water; phases: Gas, Liquid mixture 1, Liquid mixture 2
Fixed: Temperature, K = 313.15
Property: Mole fraction of propan-2-ol (Gas); method: Chromatography
Pressure, kPa	Mole fraction of propan-2-ol	uncertainty
1424	0.00887	0.00036
1488	0.00831	0.00034
1516	0.00848	0.00035
1590	0.00689	0.00028

System: propan-2-ol + propene + water; phases: Liquid mixture 1, Liquid mixture 2, Gas
Fixed: Temperature, K = 313.15
Property: Mole fraction of propene (Liquid mixture 1); method: Chromatography
Pressure, kPa	Mole fraction of propene	uncertainty
1381	0.00971	0.00042
1403	0.00803	0.00036
1424	0.00632	0.00027
1473	0.00464	0.0002
1488	0.00409	0.00017
1516	0.00344	0.00015
1590	0.00193	8e-05
1690	0.00083	4e-05

System: propan-2-ol + propene + water; phases: Liquid mixture 2, Liquid mixture 1, Gas
Fixed: Temperature, K = 313.15
Property: Mole fraction of propene (Liquid mixture 2); method: Chromatography
Pressure, kPa	Mole fraction of propene	uncertainty
1381	0.14373	0.00634
1403	0.171	0.0075
1424	0.20483	0.00892
1473	0.2836	0.01196
1488	0.30792	0.0134
1516	0.3846	0.01859
1590	0.80471	0.03293
1690	0.99173	0.00827

System: propan-2-ol + propene + water; phases: Gas, Liquid mixture 1, Liquid mixture 2
Fixed: Temperature, K = 313.15
Property: Mole fraction of propene (Gas); method: Chromatography
Pressure, kPa	Mole fraction of propene	uncertainty
1424	0.98247	0.01753
1488	0.9838	0.0162
1516	0.99152	0.00848
1590	0.98502	0.01498

System: propan-2-ol + propene + water; phases: Liquid
Fixed: Temperature, K = 313.15
Property: Excess molar enthalpy (molar enthalpy of mixing), kJ/mol (Liquid); method: Flow calorimetry
Pressure, kPa	Solvent: Amount ratio of component to other component of binary solvent of water	Mole fraction of propene	Excess molar enthalpy (molar enthalpy of mixing), kJ/mol	uncertainty
1997	1.0121	0.0503	0.1317	0.0068
1997	1.0121	0.1006	0.2347	0.0089
1997	1.0121	0.1508	0.3104	0.0106
1997	1.0121	0.201	0.3651	0.0119
1997	1.0121	0.2512	0.4043	0.0125
1997	1.0121	0.3013	0.4298	0.0131
1997	1.0121	0.4015	0.4707	0.014
1997	1.0121	0.5016	0.5018	0.0146
1997	1.0121	0.6015	0.5248	0.0151
1997	1.0121	0.6514	0.5298	0.0153
1997	1.0121	0.7013	0.5316	0.0153
1997	1.0121	0.801	0.5147	0.0149
1997	1.0121	0.9006	0.4173	0.0129
1997	1.0121	0.9503	0.3201	0.0108
2169	3.3103	0.0503	0.1531	0.0072
2169	3.3103	0.1006	0.2246	0.0087
2169	3.3103	0.1509	0.2545	0.0093
2169	3.3103	0.2011	0.2849	0.01
2169	3.3103	0.2513	0.315	0.0108
2169	3.3103	0.3015	0.342	0.0112
2169	3.3103	0.4017	0.3874	0.0123
2169	3.3103	0.5018	0.4191	0.0129
2169	3.3103	0.6017	0.4434	0.0134
2169	3.3103	0.6516	0.442	0.0134
2169	3.3103	0.7015	0.4387	0.0134
2169	3.3103	0.8011	0.41	0.0127
2169	3.3103	0.9006	0.3315	0.011
2169	3.3103	0.9503	0.2225	0.0087
3897	1.0121	0.0509	0.1297	0.0068
3897	1.0121	0.1008	0.2323	0.0089
3897	1.0121	0.1511	0.3103	0.0106
3897	1.0121	0.2014	0.3692	0.0119
3897	1.0121	0.2517	0.4114	0.0127
3897	1.0121	0.3019	0.4432	0.0134
3897	1.0121	0.4021	0.4803	0.0142
3897	1.0121	0.5022	0.513	0.0148
3897	1.0121	0.6021	0.5466	0.0157
3897	1.0121	0.652	0.5506	0.0157
3897	1.0121	0.7019	0.5483	0.0157
3897	1.0121	0.8014	0.5124	0.0148
3897	1.0121	0.9008	0.4103	0.0127
3897	1.0121	0.9504	0.3044	0.0104

System: propan-2-ol + propene + water; phases: Liquid
Fixed: Pressure, kPa = 3980
Fixed: Solvent: Amount ratio of component to other component of binary solvent of water = 1.004
Fixed: Temperature, K = 323.15
Property: Excess molar enthalpy (molar enthalpy of mixing), kJ/mol (Liquid); method: Flow calorimetry
Mole fraction of propene	Excess molar enthalpy (molar enthalpy of mixing), kJ/mol	uncertainty
0.0509	0.1469	0.0072
0.1016	0.2607	0.0096
0.1523	0.3465	0.0114
0.2029	0.4092	0.0127
0.2534	0.4615	0.0138
0.3038	0.496	0.0146
0.4044	0.5411	0.0155
0.5065	0.5769	0.0163
0.6044	0.6016	0.0168
0.6541	0.6092	0.017
0.7038	0.6046	0.0168
0.8029	0.5719	0.0161
0.9016	0.4483	0.0136
0.9509	0.315	0.0108

System: propan-2-ol + propene + water; phases: Liquid
Fixed: Temperature, K = 333.15
Property: Excess molar enthalpy (molar enthalpy of mixing), kJ/mol (Liquid); method: Flow calorimetry
Pressure, kPa	Solvent: Amount ratio of component to other component of binary solvent of water	Mole fraction of propene	Excess molar enthalpy (molar enthalpy of mixing), kJ/mol	uncertainty
3975	1.004	0.0507	0.1577	0.0074
3975	1.004	0.1013	0.2879	0.0102
3975	1.004	0.1519	0.384	0.0121
3975	1.004	0.2023	0.4548	0.0136
3975	1.004	0.2527	0.5108	0.0148
3975	1.004	0.3031	0.5472	0.0157
3975	1.004	0.3533	0.5766	0.0163
3975	1.004	0.4035	0.6036	0.0168
3975	1.004	0.5036	0.6514	0.0178
3975	1.004	0.6035	0.6842	0.0185
3975	1.004	0.703	0.6982	0.0189
3975	1.004	0.7527	0.6937	0.0187
3975	1.004	0.8023	0.6713	0.0182
3975	1.004	0.9013	0.5366	0.0155
3975	1.004	0.9507	0.3874	0.0123
3980	3.298	0.0506	0.1269	0.0068
3980	3.298	0.1011	0.2514	0.0093
3980	3.298	0.1516	0.3583	0.0117
3980	3.298	0.202	0.4571	0.0138
3980	3.298	0.2523	0.5423	0.0155
3980	3.298	0.3026	0.62	0.0172
3980	3.298	0.3528	0.6877	0.0187
3980	3.298	0.403	0.743	0.0198
3980	3.298	0.4531	0.7915	0.0209
3980	3.298	0.5031	0.8289	0.0217
3980	3.298	0.5531	0.8551	0.0223
3980	3.298	0.603	0.8741	0.0226
3980	3.298	0.7026	0.8827	0.0228
3980	3.298	0.802	0.8384	0.0219
3980	3.298	0.9011	0.6495	0.0179
3980	3.329	0.101	0.2259	0.0089
3980	3.329	0.2018	0.3164	0.0108
3980	3.329	0.3024	0.3922	0.0124
3980	3.329	0.3526	0.4262	0.0132
3980	3.329	0.4027	0.4545	0.0137
3980	3.329	0.4528	0.4833	0.0144
3980	3.329	0.5029	0.5073	0.015
3980	3.329	0.5528	0.5269	0.0154
3980	3.329	0.6027	0.5412	0.0156
3980	3.329	0.6526	0.549	0.0157
3980	3.329	0.7024	0.5501	0.0158
3980	3.329	0.8018	0.5133	0.015
3980	3.329	0.901	0.379	0.0122
3980	3.329	0.3526	0.4243	0.0131
5890	3.329	0.0406	0.1607	0.0074
5890	3.329	0.0711	0.2079	0.0085
5890	3.329	0.1015	0.2457	0.0093
5890	3.329	0.1521	0.2947	0.0102
5890	3.329	0.2026	0.3484	0.0114
5890	3.329	0.3537	0.4675	0.014
5890	3.329	0.454	0.5258	0.0153
5890	3.329	0.554	0.5659	0.0161
5890	3.329	0.6039	0.5798	0.0163
5890	3.329	0.6537	0.5854	0.0165
5890	3.329	0.7034	0.5816	0.0163
5890	3.329	0.8026	0.5351	0.0155
5890	3.329	0.8521	0.4643	0.0138
5890	3.329	0.9014	0.3872	0.0123
5890	3.329	0.9409	0.2836	0.01
