Measured thermophysical data. Solubilities of CO2 capture absorbents methyl benzoate, ethyl hexanoate and methyl heptanoate
Source: J. Chem. Thermodyn., 2018, 10.1016/j.jct.2018.07.010
Compound 1: carbon dioxide, CO2, InChI=1S/CO2/c2-1-3, purity 99.999%
Compound 2: methyl benzoate, C8H8O2, InChI=1S/C8H8O2/c1-10-8(9)7-5-3-2-4-6-7/h2-6H,1H3, purity 98%
Compound 3: ethyl hexanoate, C8H16O2, InChI=1S/C8H16O2/c1-3-5-6-7-8(9)10-4-2/h3-7H2,1-2H3, purity 99%
Compound 4: methyl heptanoate, C8H16O2, InChI=1S/C8H16O2/c1-3-4-5-6-7-8(9)10-2/h3-7H2,1-2H3, purity 97%

System: carbon dioxide + methyl benzoate; phases: Liquid, Gas
Property: Mole fraction of carbon dioxide (Liquid); method: volumetric method
Temperature, K	Pressure, kPa	Mole fraction of carbon dioxide	uncertainty
293.15	162.7	0.0235	0.0013
293.15	321	0.0468	0.0026
293.15	496.7	0.0721	0.0041
293.15	635.8	0.0933	0.0053
293.15	758.8	0.114	0.0064
293.15	908.4	0.136	0.0077
293.15	1062.1	0.1571	0.0088
293.15	1198.5	0.178	0.01
303.15	148.7	0.0191	0.0011
303.15	309.8	0.0409	0.0023
303.15	461.5	0.0607	0.0034
303.15	607.2	0.0791	0.0045
303.15	754	0.1007	0.0057
303.15	897.5	0.1178	0.0066
303.15	1039.9	0.1382	0.0078
303.15	1189.2	0.1537	0.0087
313.15	190.4	0.0216	0.0012
313.15	303.7	0.0347	0.002
313.15	457.1	0.0524	0.003
313.15	615.6	0.0705	0.004
313.15	758.3	0.0886	0.005
313.15	912.3	0.1054	0.0059
313.15	1084.4	0.1246	0.007
313.15	1197.5	0.1361	0.0077
323.15	153.1	0.0159	0.0009
323.15	298	0.0304	0.0017
323.15	450.8	0.0455	0.0026
323.15	619.6	0.0625	0.0035
323.15	777.7	0.0774	0.0044
323.15	909.2	0.0925	0.0052
323.15	1052.4	0.1065	0.006
323.15	1192.4	0.1219	0.0069
333.15	157.9	0.0143	0.0008
333.15	334.3	0.0305	0.0017
333.15	461.9	0.0434	0.0024
333.15	609.5	0.0576	0.0032
333.15	744.5	0.0705	0.004
333.15	904.9	0.0838	0.0047
333.15	1071.7	0.0987	0.0056
333.15	1200.1	0.1099	0.0062

System: carbon dioxide + ethyl hexanoate; phases: Liquid, Gas
Property: Mole fraction of carbon dioxide (Liquid); method: volumetric method
Temperature, K	Pressure, kPa	Mole fraction of carbon dioxide	uncertainty
293.15	140.4	0.0326	0.0018
293.15	317.4	0.0752	0.0042
293.15	534.8	0.1316	0.0074
293.15	670.4	0.1601	0.009
293.15	800.7	0.1916	0.0108
293.15	946.4	0.2265	0.0128
293.15	1075.2	0.2521	0.0142
293.15	1195.6	0.2857	0.0161
303.15	155.2	0.031	0.0017
303.15	343	0.0705	0.004
303.15	496.2	0.1051	0.0059
303.15	661	0.1357	0.0076
303.15	805.7	0.1657	0.0093
303.15	940	0.1952	0.011
303.15	1090.7	0.2228	0.0125
303.15	1198.8	0.2445	0.0138
313.15	137.6	0.0258	0.0015
313.15	352.2	0.0653	0.0037
313.15	503.6	0.0932	0.0052
313.15	649.8	0.1193	0.0067
313.15	788.9	0.1434	0.0081
313.15	921.9	0.1701	0.0096
313.15	1064	0.1938	0.0109
313.15	1195.3	0.2184	0.0123
323.15	145.3	0.0236	0.0013
323.15	336.9	0.0534	0.003
323.15	498.4	0.0786	0.0044
323.15	629.1	0.1015	0.0057
323.15	772.3	0.1235	0.007
323.15	901.6	0.1474	0.0083
323.15	1057.2	0.1701	0.0096
323.15	1185.9	0.1905	0.0107
333.15	155.6	0.0218	0.0012
333.15	348.8	0.0491	0.0028
333.15	473.7	0.0691	0.0039
333.15	609.5	0.0889	0.005
333.15	750.6	0.1097	0.0062
333.15	903.3	0.1313	0.0074
333.15	1051.4	0.151	0.0085
333.15	1163	0.1682	0.0095

System: carbon dioxide + methyl heptanoate; phases: Liquid, Gas
Property: Mole fraction of carbon dioxide (Liquid); method: volumetric method
Temperature, K	Pressure, kPa	Mole fraction of carbon dioxide	uncertainty
293.15	125.1	0.0293	0.0017
293.15	310.4	0.0704	0.004
293.15	466.6	0.109	0.0061
293.15	623.2	0.1434	0.0081
293.15	837.1	0.1906	0.0107
293.15	927.3	0.2128	0.012
293.15	1066.6	0.2408	0.0136
293.15	1175.3	0.266	0.015
303.15	129.8	0.0256	0.0014
303.15	272.7	0.054	0.003
303.15	459.7	0.0923	0.0052
303.15	630.7	0.1278	0.0072
303.15	710.9	0.1453	0.0082
303.15	890.3	0.1795	0.0101
303.15	1036.8	0.2059	0.0116
303.15	1169.2	0.2338	0.0132
313.15	188.9	0.0326	0.0018
313.15	326.8	0.0573	0.0032
313.15	460.2	0.0828	0.0047
313.15	615.4	0.111	0.0063
313.15	766.5	0.1381	0.0078
313.15	944.9	0.1663	0.0094
313.15	1071	0.189	0.0107
313.15	1199.5	0.2109	0.0119
323.15	143.5	0.0218	0.0012
323.15	322.5	0.0521	0.0029
323.15	484.8	0.0762	0.0043
323.15	619.1	0.0977	0.0055
323.15	758.1	0.1199	0.0068
323.15	912	0.1432	0.0081
323.15	1060.3	0.1659	0.0094
323.15	1200.3	0.1863	0.0105
333.15	158	0.0221	0.0012
333.15	347.3	0.0507	0.0029
333.15	491.6	0.0712	0.004
333.15	622.4	0.0896	0.005
333.15	785.7	0.1121	0.0063
333.15	967.9	0.1364	0.0077
333.15	1090.8	0.1542	0.0087
333.15	1142.3	0.1643	0.0093
