Measured thermophysical data. Apparatus for wide-ranging, high-accuracy fluid (p,q,T) measurements based on a compact two-sinker densimeter
Source: J. Chem. Thermodyn., 2007, 10.1016/j.jct.2006.09.012
Compound 1: nitrogen, N2, InChI=1S/N2/c1-2
Compound 2: helium, He, InChI=1S/He
Compound 3: 2-trifluoromethyl-3-ethoxydodecafluorohexane, C9H5F15O, InChI=1S/C9H5F15O/c1-2-25-6(15,3(10,7(16,17)18)8(19,20)21)4(11,12)5(13,14)9(22,23)24/h2H2,1H3

System: nitrogen; phases: Gas
Property: Mass density, kg/m3 (Gas); method: Buoyancy - hydrostatic balance with magnetic suspension - two sinkers
Temperature, K	Pressure, kPa	Mass density, kg/m3	uncertainty
249.999	4032	55.8105	0.0403
250	4032	55.8107	0.0403
250	11944.3	167.5304	0.3468
250	19672.1	264.4362	0.8453
250	31915.6	377.5128	1.7241
250	4032	55.8109	0.0403
250.001	4032	55.8112	0.0403
250.001	7922	111.2011	0.1641
250.001	11944.3	167.5305	0.3468
250.001	15945.4	220.078	0.591
250.001	19672.1	264.4357	0.8453
250.001	23917.7	309.0332	1.1531
250.001	23918.6	309.0428	1.1531
250.001	27921.7	345.6187	1.4408
250.001	27921.9	345.6199	1.4408
250.001	27922.3	345.6238	1.4408
250.001	27922.8	345.6288	1.4408
250.001	31913.8	377.4977	1.724
250.001	31915	377.5055	1.724
250.001	31916.3	377.516	1.7241
250.001	4032	55.8104	0.0403
250.001	7922	111.2009	0.1641
250.001	11944.3	167.531	0.3468
250.002	7922.1	111.2012	0.1641
250.002	11944.3	167.5306	0.3468
250.002	15945.3	220.0776	0.591
250.002	19672.3	264.4371	0.8453
250.002	19672.4	264.4384	0.8453
250.002	23918.2	309.0349	1.1531
250.002	23920.8	309.0618	1.1532
250.002	27922.8	345.6271	1.4408
250.002	31914.3	377.4996	1.724
250.002	31914.8	377.5038	1.724
250.002	11944.3	167.5298	0.3468
250.002	15945.3	220.0778	0.591
250.002	11944.3	167.5299	0.3468
250.003	7922.1	111.2012	0.1641
250.003	15945.3	220.0762	0.591
250.003	15945.6	220.0791	0.591
250.003	19672	264.4339	0.8453
250.003	23918.5	309.0379	1.1531
250.003	23920.4	309.0561	1.1532
250.003	27922.4	345.6208	1.4408
273.157	6172.5	77.4431	0.0761
273.158	3969.2	49.6242	0.0332
273.158	6172.5	77.4438	0.0761
273.158	8165.1	102.4783	0.1431
273.158	12167.9	151.5658	0.2928
273.158	12168	151.5667	0.2928
273.158	16375.9	200.1297	0.4976
273.158	16376.1	200.1314	0.4976
273.158	20308.2	241.7355	0.7244
273.158	20309	241.7456	0.7245
273.158	28793.7	318.0674	1.2497
273.158	33964.4	356.4025	1.5706
273.158	3969.2	49.6241	0.0332
273.158	6172.5	77.4433	0.0761
273.158	8165.1	102.4798	0.1431
273.159	6172.6	77.4441	0.0761
273.159	8165.2	102.4804	0.1431
273.159	12168	151.5676	0.2928
273.159	12168.1	151.568	0.2928
273.159	16376.3	200.1327	0.4976
273.159	20308.5	241.7389	0.7244
273.159	20308.9	241.7448	0.7245
273.159	24524.5	281.9097	0.9845
273.159	24526	281.9219	0.9845
273.159	28792.4	318.0555	1.2497
273.159	33963.7	356.3973	1.5706
273.16	3969.2	49.6244	0.0332
273.16	3969.3	49.6242	0.0332
273.16	6172.6	77.4442	0.0761
273.16	8165.1	102.4795	0.1431
273.16	8165.2	102.4802	0.1431
273.16	12167.8	151.5632	0.2928
273.16	16375.9	200.1274	0.4976
273.16	16376	200.1292	0.4976
273.16	28792.9	318.057	1.2497
273.16	28793.7	318.0651	1.2497
273.16	33963.1	356.3909	1.5705
273.16	33965.4	356.4068	1.5706
273.16	3969.2	49.6239	0.0332
273.16	8165.2	102.479	0.1431
273.161	20309	241.743	0.7245
273.161	24525	281.9126	0.9845
273.161	24525.4	281.9148	0.9845
273.161	24526	281.9206	0.9845
273.161	28793.3	318.0575	1.2497
273.161	33966.2	356.4129	1.5706
293.138	1498.5	17.2764	0.0107
293.138	1998	23.0541	0.0124
293.138	2997.1	34.6235	0.0187
293.138	3996.1	46.1973	0.0292
293.138	5994.2	69.291	0.0628
293.138	1498.5	17.2762	0.0107
293.139	299.7	3.4472	0.0036
293.139	499.5	5.7477	0.0038
293.139	999	11.5071	0.0045
293.139	1498.5	17.2761	0.0107
293.139	1998	23.0541	0.0124
293.139	2997.1	34.6233	0.0187
293.139	3996.1	46.1976	0.0292
293.139	4995.2	57.7597	0.0445
293.139	5994.2	69.2908	0.0628
293.139	5994.3	69.2914	0.0628
293.139	299.7	3.447	0.0036
293.139	499.5	5.7475	0.0038
293.139	999	11.5071	0.0045
293.139	1498.5	17.2763	0.0107
293.139	1998	23.0541	0.0124
293.139	2997.1	34.6235	0.0187
293.139	3996.1	46.1976	0.0292
293.139	4995.2	57.7599	0.0445
293.139	5994.2	69.291	0.0628
293.139	299.7	3.4472	0.0036
293.139	999	11.5075	0.0045
293.139	1498.5	17.2763	0.0107
293.139	1998	23.0539	0.0124
293.139	2997.1	34.6233	0.0187
293.139	3996.1	46.1974	0.0292
293.139	299.7	3.4472	0.0036
293.139	999	11.5075	0.0045
293.139	1498.5	17.2763	0.0107
293.139	2997.1	34.6236	0.0187
293.139	3996.1	46.1974	0.0292
293.139	299.7	3.447	0.0036
293.139	999	11.5074	0.0045
293.139	1498.5	17.2763	0.0107
293.139	3996.1	46.1982	0.0292
293.139	299.7	3.4473	0.0036
293.139	999	11.5074	0.0045
293.139	3996.1	46.198	0.0292
293.139	999	11.5074	0.0045
293.14	99.9	1.1486	0.0034
293.14	199.8	2.2978	0.0035
293.14	299.7	3.4473	0.0036
293.14	499.5	5.7477	0.0038
293.14	749.2	8.6261	0.004
293.14	749.3	8.6261	0.004
293.14	999	11.5071	0.0045
293.14	1498.5	17.2761	0.0107
293.14	4995.1	57.7592	0.0445
293.14	5994.2	69.2909	0.0628
293.14	5994.3	69.2915	0.0628
293.14	99.9	1.1488	0.0034
293.14	199.8	2.2977	0.0035
293.14	299.7	3.4472	0.0036
293.14	499.5	5.7476	0.0038
293.14	749.2	8.626	0.004
293.14	999	11.5072	0.0045
293.14	1498.5	17.2762	0.0107
293.14	5994.2	69.2909	0.0628
293.14	199.8	2.2976	0.0035
293.14	299.7	3.4472	0.0036
293.14	749.2	8.626	0.004
293.14	199.8	2.2977	0.0035
293.14	299.7	3.4473	0.0036
293.14	749.2	8.626	0.004
293.14	199.8	2.2978	0.0035
293.14	199.8	2.2976	0.0035
293.141	99.9	1.1487	0.0034
293.141	99.9	1.1485	0.0034
293.141	99.9	1.1487	0.0034
293.15	5964.9	68.951	0.0625
293.15	7948.6	91.6867	0.1205
293.15	32147	317.9221	1.2742
293.15	32147.5	317.9256	1.2742
293.151	4004.8	46.2932	0.0301
293.151	5964.9	68.951	0.0625
293.151	7948.6	91.6871	0.1205
293.151	7948.8	91.689	0.1205
293.151	11979.6	136.7132	0.2431
293.151	11979.7	136.7149	0.2431
293.151	15954.7	178.7821	0.4059
293.151	19567.1	214.4519	0.5833
293.151	19567.7	214.4565	0.5833
293.151	28412.1	290.4478	1.06
293.151	28413	290.455	1.0601
293.151	32145.3	317.9093	1.2741
293.151	32145.9	317.9116	1.2741
293.151	4004.8	46.2934	0.0301
293.151	19567.7	214.4565	0.5833
293.152	4004.8	46.2936	0.0301
293.152	4004.9	46.2937	0.0301
293.152	5964.9	68.9516	0.0625
293.152	7948.6	91.6868	0.1205
293.152	7948.8	91.6881	0.1205
293.152	11979.8	136.7158	0.2431
293.152	11980.1	136.7194	0.2431
293.152	15954.5	178.7796	0.4059
293.152	15954.6	178.7811	0.4059
293.152	15954.8	178.7837	0.4059
293.152	19567.4	214.4528	0.5833
293.152	24175.8	256.0494	0.8278
293.152	24176	256.0518	0.8278
293.152	32144.5	317.9018	1.2741
293.152	32145.1	317.9053	1.2741
293.152	7948.6	91.6869	0.1205
293.153	4004.8	46.2933	0.0301
293.153	5964.9	68.9512	0.0625
293.153	11979.7	136.7146	0.2431
293.153	11979.8	136.7158	0.2431
293.153	15954.7	178.7803	0.4059
293.153	15954.8	178.7829	0.4059
293.153	19567.4	214.4535	0.5833
293.153	19567.6	214.4572	0.5833
293.153	24175.2	256.0423	0.8278
293.153	28411.9	290.4433	1.06
293.153	28412.2	290.4472	1.06
293.153	32146.6	317.9172	1.2742
293.153	4004.8	46.2931	0.0301
293.153	5964.9	68.9517	0.0625
293.153	4004.8	46.2933	0.0301
293.154	4004.8	46.2935	0.0301
293.154	11980.1	136.7181	0.2431
293.154	15954.7	178.7812	0.4059
293.154	15954.9	178.7828	0.4059
293.154	24175.6	256.0474	0.8278
293.154	24176.5	256.0548	0.8278
293.154	28411.9	290.4438	1.06
293.154	28412.9	290.4526	1.06
319.995	4775.8	50.1489	0.0349
319.995	4775.8	50.1482	0.0349
319.996	4775.8	50.1481	0.0349
319.996	4775.9	50.1492	0.0349
319.996	10134.6	104.9993	0.1525
319.996	4775.9	50.1493	0.0349
319.996	4775.9	50.149	0.0349
319.997	10134.9	105.0014	0.1525
319.997	10134.9	105.0014	0.1525
319.997	10134.9	105.0019	0.1525
319.998	10135	105.0021	0.1525
319.998	20209.6	198.7985	0.5129
319.998	20209.8	198.7991	0.5129
319.998	10135	105.0014	0.1525
319.999	20209.5	198.7966	0.5129
319.999	20209.7	198.7988	0.5129
319.999	20209.9	198.8005	0.5129
319.999	20209.5	198.7961	0.5129
339.975	499.5	4.9482	0.0035
339.975	1998	19.7585	0.0105
339.975	499.5	4.9481	0.0035
339.975	1998	19.7583	0.0105
339.975	499.5	4.9482	0.0035
339.975	499.5	4.948	0.0035
339.976	499.5	4.9481	0.0035
339.976	999	9.8915	0.004
339.976	1998	19.7583	0.0105
339.976	3996	39.382	0.0228
339.976	999	9.8916	0.004
339.976	1998	19.7583	0.0105
339.976	999	9.8915	0.004
339.977	999	9.8915	0.004
339.977	1998	19.7584	0.0105
339.977	3996	39.3817	0.0228
339.977	5994.1	58.7959	0.0476
339.977	999	9.8916	0.004
339.977	3996	39.3819	0.0228
339.977	5994.1	58.7959	0.0476
339.977	3996	39.3818	0.0228
339.977	5994.1	58.7959	0.0476
339.977	3996	39.3818	0.0228
339.978	5994.1	58.7959	0.0476
339.978	5994.1	58.796	0.0476
339.993	5081.9	49.9596	0.0352
339.993	5082.1	49.9616	0.0352
339.994	5082	49.9602	0.0352
339.994	21784.3	198.014	0.5184
339.994	5082	49.9596	0.0352
339.995	5082	49.96	0.0352
339.996	10840.4	104.5878	0.1534
339.996	10840.5	104.589	0.1534
339.996	10840.4	104.5878	0.1534
339.997	10840.4	104.5886	0.1534
339.997	10840.5	104.5892	0.1534
339.997	21783.8	198.0078	0.5184
339.997	10840.4	104.5876	0.1534
339.998	21783.8	198.006	0.5184
339.998	21784.1	198.0096	0.5184
339.998	21784.1	198.0087	0.5184
339.999	21783.8	198.0068	0.5184
340.006	11961.9	114.8453	0.1821
340.007	3874.6	38.1897	0.0222
340.007	5932.3	58.1965	0.0472
340.007	7789.7	76.0005	0.0898
340.007	11961.8	114.8449	0.1821
340.007	15961.4	150.2409	0.3027
340.007	20071.7	184.4431	0.4503
340.007	20071.9	184.4451	0.4503
340.007	20072.4	184.4501	0.4503
340.007	24069.2	215.4629	0.6108
340.007	24069.9	215.4674	0.6108
340.007	28607.8	247.996	0.8112
340.007	28608	247.9986	0.8112
340.007	33720.3	281.3894	1.0378
340.007	3874.6	38.1898	0.0222
340.007	5932.3	58.1955	0.0472
340.008	3874.6	38.1897	0.0222
340.008	7789.6	75.9992	0.0898
340.008	7789.7	76.0006	0.0898
340.008	11961.7	114.8441	0.1821
340.008	15961.2	150.2383	0.3026
340.008	15961.5	150.242	0.3027
340.008	20072.2	184.4486	0.4503
340.008	20072.7	184.4528	0.4503
340.008	24069.3	215.4629	0.6108
340.008	28606.8	247.989	0.8112
340.008	33718.5	281.3791	1.0378
340.008	33719.5	281.3858	1.0378
340.008	11961.7	114.8423	0.1821
340.008	15961.5	150.2396	0.3026
340.009	3874.6	38.1896	0.0222
340.009	7789.7	76.0004	0.0898
340.009	11961.8	114.8443	0.1821
340.009	15961.3	150.2393	0.3026
340.009	24069.7	215.4654	0.6108
340.009	24069.8	215.4662	0.6108
340.009	28607.2	247.9904	0.8112
340.009	28607.6	247.9933	0.8112
340.009	33718.7	281.38	1.0378
340.009	33719.3	281.3836	1.0378
340.009	7789.7	76.0001	0.0898
340.01	3874.6	38.1894	0.0222
340.01	5932.4	58.1962	0.0472
340.01	7789.7	75.9998	0.0898
340.01	20072.2	184.447	0.4503
340.01	3874.6	38.1895	0.0222
340.01	5932.4	58.1962	0.0472
359.992	5385.3	49.7747	0.0359
359.993	5385.4	49.7738	0.0359
359.993	5385.4	49.7746	0.0359
359.994	5385.5	49.7747	0.0359
359.994	11538.6	104.182	0.1538
359.994	23336.9	197.2465	0.524
359.994	5385.5	49.7744	0.0359
359.994	5385.5	49.7747	0.0359
359.995	11538.5	104.1806	0.1538
359.996	11538.5	104.1806	0.1538
359.996	11538.6	104.1816	0.1538
359.996	23336.6	197.2431	0.524
359.996	11538.6	104.1809	0.1538
359.997	11538.5	104.1802	0.1538
359.997	23336.6	197.2426	0.524
359.998	23336.1	197.2376	0.524
359.998	23336.2	197.2387	0.524
359.998	23336.4	197.241	0.524
379.991	5685.8	49.589	0.0356
379.992	5685.7	49.5891	0.0356
379.993	5685.7	49.5887	0.0356
379.993	5685.8	49.5891	0.0356
379.993	5685.7	49.5886	0.0356
379.994	5685.7	49.5883	0.0356
379.994	12228.3	103.7761	0.1544
379.994	12228.4	103.7759	0.1544
379.994	12228.5	103.7783	0.1544
379.995	12228.3	103.7752	0.1544
379.996	12228.3	103.7749	0.1544
379.996	12228.4	103.7761	0.1544
379.996	24869.1	196.497	0.5258
379.997	24868.2	196.492	0.5258
379.998	24868.4	196.4927	0.5258
379.998	24869.1	196.4959	0.5258
379.999	24868.2	196.491	0.5258
379.999	24868.6	196.4924	0.5258
399.972	999	8.3914	0.0037
399.972	1998	16.7314	0.0087
399.972	999	8.3913	0.0037
399.973	499.5	4.2016	0.0033
399.973	999	8.3912	0.0037
399.973	1998	16.7313	0.0087
399.973	3996	33.2413	0.0182
399.973	5994.1	49.4948	0.0364
399.973	499.5	4.2016	0.0033
399.973	1998	16.7315	0.0087
399.973	3996	33.241	0.0182
399.973	5994.1	49.4949	0.0364
399.973	499.5	4.2015	0.0033
399.973	1998	16.7315	0.0087
399.973	3996	33.241	0.0182
399.973	5994.1	49.4948	0.0364
399.973	499.5	4.2015	0.0033
399.973	5994.1	49.4947	0.0364
399.973	499.5	4.2014	0.0033
399.974	999	8.3913	0.0037
399.974	1998	16.7314	0.0087
399.974	3996	33.241	0.0182
399.974	3996	33.2411	0.0182
399.992	5983.6	49.4072	0.0363
399.992	5983.8	49.4087	0.0363
399.993	5983.6	49.4075	0.0363
399.993	5983.7	49.4089	0.0363
399.993	5983.8	49.4092	0.0363
399.994	5983.7	49.4079	0.0363
399.994	12911.1	103.3833	0.1556
399.994	12911.5	103.3867	0.1556
399.995	12911.2	103.385	0.1556
399.995	12911.5	103.3879	0.1556
399.996	12911	103.3836	0.1556
399.996	12911	103.3827	0.1556
399.997	26381	195.7629	0.5313
399.997	26381.8	195.7697	0.5313
399.998	26382.6	195.774	0.5313
399.999	26380.9	195.7628	0.5313
399.999	26381.3	195.7658	0.5313
399.999	26381.9	195.7696	0.5313
419.991	6278.6	49.2274	0.0361
419.992	6278.6	49.2271	0.0361
419.992	6278.6	49.2273	0.0361
419.993	6278.6	49.2276	0.0361
419.993	6278.6	49.2274	0.0361
419.994	13586.7	103.0011	0.1564
419.994	13586.9	103.0021	0.1564
419.996	13586.7	102.9999	0.1564
419.996	13586.8	103.0014	0.1564
419.996	27878	195.0695	0.5371
419.996	13586.7	103.001	0.1564
419.997	13586.9	103.0019	0.1564
419.997	27875.7	195.0566	0.5371
419.997	27876.7	195.0645	0.5371
419.997	27876.9	195.0639	0.5371
419.998	27875.9	195.0582	0.5371
419.999	27876.5	195.0605	0.5371
439.977	499.5	3.8187	0.0032
439.977	999	7.6237	0.0036
439.977	1998	15.1913	0.008
439.977	499.5	3.8186	0.0032
439.977	999	7.6237	0.0036
439.977	1998	15.1914	0.008
439.978	499.5	3.8188	0.0032
439.978	999	7.6237	0.0036
439.978	1998	15.1914	0.008
439.978	499.5	3.8187	0.0032
439.978	999	7.6236	0.0036
439.978	1998	15.1913	0.008
439.978	499.5	3.8185	0.0032
439.978	999	7.6238	0.0036
439.978	1998	15.1913	0.008
439.979	3995.9	30.1496	0.0155
439.979	3995.9	30.1496	0.0155
439.98	3995.9	30.1495	0.0155
439.98	3995.9	30.1492	0.0155
439.98	3995.9	30.1497	0.0155
439.982	5993.9	44.8531	0.0313
439.983	5993.9	44.8534	0.0313
439.983	5993.9	44.8532	0.0313
439.983	5993.9	44.853	0.0313
439.992	6571.1	49.0504	0.0368
439.993	6571	49.0492	0.0368
439.993	6571.1	49.0497	0.0368
439.994	6571.1	49.05	0.0368
439.996	14255.1	102.6214	0.1573
439.997	14255.2	102.6215	0.1573
439.997	14255.3	102.6222	0.1573
439.998	14255.3	102.6225	0.1573
439.998	14255.4	102.624	0.1573
439.999	14255.2	102.6219	0.1573
439.999	29347.7	194.3402	0.5427
439.999	29348	194.3416	0.5427
439.999	29348.3	194.3438	0.5427
439.999	29348.7	194.3454	0.5427
439.999	29348.9	194.3467	0.5427
439.999	29349.3	194.3481	0.5427
459.994	6861.3	48.8758	0.0486
459.994	6861.3	48.8757	0.0486
459.995	6861.3	48.8757	0.0486
459.995	6861.4	48.8764	0.0486
459.996	6861.3	48.8759	0.0486
459.996	14917.4	102.253	0.1586
459.997	14917.1	102.2504	0.1586
459.997	14917.2	102.2509	0.1586
459.997	14917.5	102.2532	0.1586
459.997	14917.2	102.2515	0.1586
459.998	14917.3	102.2519	0.1586
459.999	30809.2	193.675	0.5485
459.999	30810.7	193.6832	0.5485
459.999	30812.1	193.6903	0.5485
460	30810.5	193.6813	0.5485
460.001	30809.6	193.6773	0.5485
460.001	30810.1	193.6784	0.5485
479.993	7148.7	48.7027	0.0492
479.994	7148.6	48.7024	0.0492
479.995	7148.7	48.7027	0.0492
479.996	7148.6	48.7016	0.0492
479.996	15572.5	101.8857	0.1597
479.996	7148.6	48.7015	0.0492
479.997	15572.2	101.8829	0.1577
479.997	15572.4	101.8846	0.1597
479.997	15572.6	101.886	0.1597
479.998	15572.3	101.8835	0.1577
479.998	15572.3	101.884	0.1597
480	32254.5	193.0251	0.5503
480	32256	193.0317	0.5504
480	32256.4	193.0345	0.5504
480.001	1998	13.9149	0.0073
480.001	32254.8	193.0268	0.5504
480.001	32255.7	193.0316	0.5504
480.001	1998	13.9143	0.0073
480.001	1998	13.9142	0.0073
480.001	1998	13.9139	0.0073
480.002	499.5	3.4996	0.0031
480.002	999	6.9857	0.0034
480.002	1998	13.915	0.0073
480.002	32255.3	193.0292	0.5504
480.002	499.5	3.4991	0.0031
480.002	999	6.9856	0.0034
480.003	499.5	3.4995	0.0031
480.003	999	6.9852	0.0034
480.003	3996	27.6012	0.0138
480.003	5994.1	41.0449	0.0271
480.003	999	6.9854	0.0034
480.003	3996	27.6015	0.0138
480.003	999	6.9853	0.0034
480.003	3996	27.6009	0.0138
480.004	499.5	3.4998	0.0031
480.004	5994	41.0449	0.0271
480.004	5994.1	41.0443	0.0271
480.004	499.5	3.4995	0.0031
480.005	5994	41.045	0.0271
480.005	5994.1	41.045	0.0271
499.995	7433.7	48.5307	0.0482
499.995	7433.8	48.531	0.0482
499.996	7433.7	48.5313	0.0482
499.996	7433.8	48.5323	0.0482
499.996	16220.3	101.5167	0.1588
499.996	16220.6	101.519	0.1588
499.996	16220.8	101.5207	0.1588
499.997	7433.8	48.5317	0.0482
499.997	7433.9	48.5314	0.0482
499.997	16220.4	101.5177	0.1588
499.998	16220.4	101.5181	0.1588
499.998	16220.5	101.5188	0.1588
499.998	33681.2	192.3769	0.5561
499.998	33681.8	192.3795	0.5561
499.998	33683.6	192.3886	0.5561
499.998	33685.5	192.3964	0.5562
500	33682.9	192.3842	0.5561
500.001	33682.5	192.3822	0.5561

System: helium; phases: Gas
Property: Mass density, kg/m3 (Gas); method: Buoyancy - hydrostatic balance with magnetic suspension - two sinkers
Temperature, K	Pressure, kPa	Mass density, kg/m3	uncertainty
223.1502	19641.7	37.6511	0.0207
223.1508	3970	8.3499	0.0037
223.151	26025	48.1887	0.0305
223.1513	3970.1	8.35	0.0037
223.1513	8133.1	16.6701	0.0107
223.1513	32015.2	57.4679	0.0416
223.1514	32016.6	57.4698	0.0416
223.1515	1881.4	4.0102	0.0033
223.1516	11880.2	23.8089	0.0128
223.1516	15827.6	30.9995	0.0162
223.1516	19641.8	37.6507	0.0207
223.1518	3970.1	8.3501	0.0037
223.1519	19641.5	37.6502	0.0207
223.1519	26023.7	48.1863	0.0305
223.1519	26024.8	48.1881	0.0305
223.152	8133.1	16.67	0.0107
223.152	38282.3	66.6131	0.0548
223.1521	11880.1	23.8085	0.0128
223.1521	11880.3	23.8088	0.0128
223.1521	15827.3	30.9985	0.0162
223.1521	15827.6	30.9993	0.0162
223.1521	32014.8	57.4668	0.0416
223.1523	1881.4	4.0102	0.0033
223.1523	32015.8	57.4684	0.0416
223.1523	38283.1	66.614	0.0548
223.1524	11880.2	23.8086	0.0128
223.1524	38281.9	66.6126	0.0548
223.1525	26025.2	48.1886	0.0305
223.1526	8133.1	16.6699	0.0107
223.1526	38281.2	66.6119	0.0548
223.1527	38284	66.616	0.0548
223.1528	1881.5	4.0102	0.0033
223.1528	8133.2	16.6699	0.0107
223.1529	8133.2	16.6701	0.0107
223.153	3970.1	8.3499	0.0037
223.153	26024.1	48.1868	0.0305
223.1531	1881.4	4.0101	0.0033
223.1531	11880.3	23.8087	0.0128
223.1532	3970.2	8.3499	0.0037
223.1533	1881.4	4.0101	0.0033
223.1533	15827.5	30.999	0.0162
223.1533	19641.5	37.65	0.0207
223.1533	15827.5	30.9989	0.0162
223.1534	32014.4	57.4666	0.0416
253.1469	19865.7	34.0081	0.0179
253.1471	31940.3	51.647	0.0351
253.1476	11895.5	21.2023	0.0113
253.1478	11895.3	21.202	0.0113
253.1478	19865.5	34.0112	0.0179
253.1479	3784.6	7.046	0.0035
253.1479	31938	51.6436	0.0351
253.148	7472.2	13.634	0.0094
253.1481	15957.7	27.8557	0.0142
253.1481	25977.7	43.181	0.0258
253.1483	15957.3	27.8548	0.0142
253.1483	19864.9	34.0064	0.0179
253.1483	31938.5	51.6443	0.0351
253.1484	15957.6	27.8555	0.0142
253.1484	37813.7	59.5664	0.0456
253.1484	37816.9	59.5703	0.0456
253.1486	25976.9	43.179	0.0258
253.1486	25977.5	43.1801	0.0258
253.1486	31939.9	51.6462	0.0351
253.1487	1929.3	3.629	0.0031
253.1487	3784.6	7.0462	0.0035
253.1488	25976.5	43.1785	0.0258
253.149	7472.3	13.634	0.0094
253.149	19865.4	34.007	0.0179
253.149	37812.9	59.5651	0.0456
253.1491	3784.6	7.046	0.0035
253.1492	11895.3	21.2018	0.0113
253.1492	25977.2	43.1796	0.0258
253.1493	3784.6	7.0461	0.0035
253.1493	7472.3	13.634	0.0094
253.1493	11895.6	21.2022	0.0113
253.1493	15957.5	27.8548	0.0142
253.1493	37815.8	59.5686	0.0456
253.1494	1929.3	3.6294	0.0031
253.1494	11895.5	21.2019	0.0113
253.1494	15957.6	27.8552	0.0142
253.1494	37814.8	59.5673	0.0456
253.1498	7472.3	13.634	0.0094
253.1498	31939.5	51.6454	0.0351
253.1499	1929.2	3.629	0.0031
253.1502	1929.2	3.6292	0.0031
253.1507	1929.3	3.6292	0.0031
273.1575	31779.9	48.2235	0.0327
273.1585	20243.1	32.314	0.0161
273.1587	1927.3	3.363	0.003
273.159	37201.2	55.1895	0.0408
273.1591	15586.4	25.4234	0.0135
273.1594	935.8	1.6415	0.0026
273.1594	3975.1	6.8634	0.0033
273.1594	31865.4	48.3352	0.0314
273.1596	12056.3	19.9988	0.0092
273.1597	7766.6	13.1563	0.0081
273.1598	1927.3	3.3629	0.003
273.1598	20242.5	32.313	0.0161
273.1598	31867	48.3375	0.0314
273.1599	3952.8	6.8257	0.0034
273.1599	11783.4	19.5715	0.0119
273.1599	11855	19.6833	0.0097
273.1599	31864.8	48.3344	0.0314
273.1599	37199	55.1865	0.0408
273.16	11783.3	19.5714	0.0119
273.16	16078	26.164	0.0108
273.16	19870.2	31.7727	0.0162
273.1601	8006.1	13.5452	0.0083
273.1601	20242	32.3121	0.0161
273.1601	25916	40.3324	0.022
273.1601	31777.5	48.22	0.0327
273.1601	37200.6	55.1885	0.0408
273.1602	7916.1	13.3992	0.0084
273.1602	7973.4	13.4923	0.0083
273.1602	16090.4	26.1826	0.011
273.1602	25914.6	40.3302	0.0219
273.1602	25914.9	40.3307	0.0219
273.1602	37199.8	55.1874	0.0408
273.1603	11854.9	19.6832	0.0097
273.1603	25435.2	39.6682	0.0233
273.1603	31866.7	48.3368	0.0314
273.1604	935.9	1.6416	0.0026
273.1604	3626.7	6.2732	0.0034
273.1604	3626.8	6.2735	0.0034
273.1604	7766.1	13.1555	0.0081
273.1604	16077.7	26.1636	0.0108
273.1605	7764.9	13.1534	0.0081
273.1605	8006.2	13.5452	0.0083
273.1605	19708.7	31.5382	0.0179
273.1606	1956.4	3.4135	0.003
273.1606	3626.6	6.273	0.0034
273.1606	3952.8	6.8257	0.0034
273.1606	3975.2	6.8633	0.0033
273.1606	7916	13.399	0.0084
273.1606	11783.2	19.571	0.0119
273.1606	11829.8	19.6436	0.0167
273.1606	25915.7	40.3317	0.0219
273.1606	32212.5	48.7903	0.0315
273.1607	3975.2	6.8635	0.0033
273.1607	11855.1	19.6835	0.0097
273.1607	15980.5	26.0175	0.0109
273.1607	20242.2	32.3124	0.0161
273.1607	31775	48.2167	0.0327
273.1608	3926.1	6.7802	0.0033
273.1608	7973.4	13.4922	0.0083
273.1608	11854.9	19.6831	0.0097
273.1608	16077.3	26.1628	0.0108
273.1608	16090.1	26.1821	0.011
273.1608	20241.8	32.3117	0.0161
273.1608	25466.1	39.7107	0.0234
273.1608	25915.4	40.3313	0.0219
273.1608	31866.1	48.3358	0.0314
273.1609	935.9	1.6415	0.0026
273.1609	1927.4	3.3629	0.003
273.1609	8006.1	13.5452	0.0083
273.1609	25464.4	39.7083	0.0234
273.1609	25964.9	40.4011	0.022
273.1609	32210.1	48.7873	0.0315
273.1609	37536.1	55.6095	0.041
273.161	7916	13.399	0.0084
273.161	8006.1	13.5452	0.0083
273.161	11783.3	19.5712	0.0119
273.161	11829.9	19.6438	0.0167
273.161	12056.4	19.999	0.0092
273.161	19708.7	31.5385	0.0179
273.161	25466.5	39.7113	0.0234
273.161	37531.2	55.6035	0.041
273.1611	3952.9	6.8257	0.0034
273.1611	7765.3	13.1538	0.0081
273.1611	11829.7	19.6434	0.0168
273.1611	11829.8	19.6435	0.0167
273.1611	15586.6	25.4235	0.0135
273.1611	16077.4	26.1631	0.0108
273.1611	25465.5	39.7099	0.0234
273.1611	31577.7	47.9581	0.0329
273.1611	37539.6	55.6136	0.041
273.1612	1927.4	3.363	0.003
273.1612	7973.4	13.4921	0.0083
273.1612	8006.1	13.5452	0.0083
273.1612	12056.4	19.9987	0.0092
273.1612	15980.1	26.0168	0.0109
273.1612	16077.6	26.1633	0.0108
273.1612	16090.2	26.1822	0.011
273.1612	19869.4	31.7712	0.0162
273.1612	25465	39.7092	0.0234
273.1612	32213.2	48.7913	0.0315
273.1612	37197.8	55.185	0.0408
273.1612	38113.7	56.3321	0.0418
273.1613	1881.8	3.2839	0.003
273.1613	3975.2	6.8633	0.0033
273.1613	11855	19.6831	0.0097
273.1613	19869.7	31.7718	0.0162
273.1613	25434.1	39.6666	0.0233
273.1613	31778.8	48.2215	0.0327
273.1613	37514.3	55.5816	0.041
273.1613	37537.4	55.6109	0.041
273.1614	1927.4	3.3629	0.003
273.1614	7973.3	13.4919	0.0083
273.1614	11829.8	19.6435	0.0167
273.1614	15586.6	25.4235	0.0135
273.1614	16090	26.1818	0.011
273.1614	19644.9	31.445	0.0185
273.1614	19708.3	31.5381	0.0179
273.1614	37516.6	55.5843	0.041
273.1615	1956.5	3.4135	0.003
273.1615	3975.2	6.8635	0.0033
273.1615	11783.3	19.571	0.0119
273.1615	16090.4	26.1823	0.011
273.1615	19644.8	31.4447	0.0185
273.1615	25433.8	39.6662	0.0233
273.1615	31776	48.2177	0.0327
273.1615	38116	56.335	0.0418
273.1616	935.9	1.6416	0.0026
273.1616	1956.5	3.4134	0.003
273.1616	3952.9	6.8257	0.0034
273.1616	7973.4	13.4922	0.0083
273.1616	15586.5	25.4233	0.0135
273.1616	31776.8	48.2188	0.0327
273.1616	37538.6	55.6125	0.041
273.1617	3626.6	6.273	0.0034
273.1617	7916.1	13.399	0.0084
273.1617	15980.5	26.0174	0.0109
273.1617	19708.3	31.5379	0.0179
273.1617	19870.1	31.7722	0.0162
273.1617	31576.6	47.957	0.0329
273.1617	32210.8	48.788	0.0315
273.1617	37517.7	55.5858	0.041
273.1618	1956.4	3.4135	0.003
273.1618	15980.2	26.017	0.0109
273.1618	31576.4	47.9567	0.0329
273.1618	37515.4	55.5829	0.041
273.1618	38115.5	56.3346	0.0418
273.1619	935.9	1.6416	0.0026
273.1619	19869.2	31.7709	0.0162
273.1619	25435	39.6678	0.0233
273.162	3626.6	6.2731	0.0034
273.162	3952.9	6.8257	0.0034
273.162	19645.2	31.4453	0.0185
273.162	19709	31.5386	0.0179
273.1621	1881.8	3.2839	0.003
273.1621	3926.2	6.7804	0.0033
273.1621	15586.6	25.4232	0.0135
273.1621	19644.6	31.4443	0.0185
273.1621	25434.5	39.6672	0.0233
273.1621	31577.5	47.9577	0.0329
273.1622	3926.2	6.7802	0.0033
273.1622	7765.7	13.1545	0.0081
273.1623	1881.8	3.2839	0.003
273.1623	1956.5	3.4135	0.003
273.1623	3926.2	6.7803	0.0033
273.1623	7916.1	13.3991	0.0084
273.1623	25964.5	40.3998	0.0221
273.1623	25964.9	40.4013	0.022
273.1623	25965.2	40.4011	0.022
273.1623	32211.5	48.7886	0.0315
273.1623	38114.3	56.3327	0.0418
273.1624	15980	26.0165	0.0109
273.1624	31577	47.9575	0.0329
273.1626	1881.8	3.2839	0.003
273.1627	25965.7	40.402	0.022
273.1628	3926.2	6.7802	0.0033
273.1628	38114.9	56.3338	0.0418
273.1629	12056.5	19.9988	0.0092
273.1631	1881.8	3.2839	0.003
273.1631	12056.4	19.9985	0.0092
273.1635	37519.7	55.5878	0.041
293.1493	11762.1	18.2839	0.0097
293.1503	4007	6.4541	0.0034
293.1505	31848.2	45.4862	0.0288
293.1508	4006.9	6.4542	0.0034
293.1508	19905.7	29.8595	0.015
293.1508	31850.1	45.4879	0.0288
293.1509	1731.6	2.8204	0.003
293.1509	7883	12.4722	0.0083
293.1509	38007.2	52.9958	0.0379
293.1511	3908.9	6.3008	0.0033
293.1511	11762.1	18.2839	0.0097
293.1511	25778.5	37.7301	0.0211
293.1512	19905.8	29.8599	0.015
293.1513	980.1	1.6025	0.0026
293.1513	11762.1	18.2837	0.0097
293.1513	16004.9	24.4156	0.012
293.1514	980.2	1.6025	0.0026
293.1514	3908.9	6.3009	0.0033
293.1514	7058.1	11.2089	0.0084
293.1514	7881.3	12.4696	0.0083
293.1514	16004.5	24.4152	0.012
293.1515	25778.2	37.7298	0.0211
293.1516	980.2	1.6025	0.0026
293.1516	1731.6	2.8205	0.003
293.1516	4007	6.4543	0.0034
293.1516	19905	29.8586	0.015
293.1516	31846.2	45.4829	0.0288
293.1516	38006.1	52.9944	0.0379
293.1516	1731.6	2.8205	0.003
293.1517	7058	11.2086	0.0084
293.1518	3908.9	6.3007	0.0033
293.1518	11761.9	18.2834	0.0097
293.1519	4007	6.4543	0.0034
293.1519	7881.6	12.4701	0.0083
293.1519	16004.8	24.4153	0.012
293.1519	25777.3	37.7285	0.0211
293.1519	29509.6	42.5393	0.0257
293.1519	38003.4	52.9909	0.0379
293.152	14018.1	21.5714	0.0109
293.152	29507.2	42.5361	0.0257
293.152	31847.5	45.4845	0.0288
293.1521	16005.1	24.4159	0.012
293.1521	24473.6	36.0124	0.0197
293.1521	25779.1	37.7309	0.0211
293.1521	29510.8	42.5405	0.0257
293.1521	38004.4	52.9921	0.0379
293.1522	7882.6	12.4715	0.0083
293.1522	19905.6	29.8592	0.015
293.1522	24474.9	36.0141	0.0197
293.1522	29508.4	42.5375	0.0257
293.1523	1731.6	2.8207	0.003
293.1523	11762	18.2835	0.0097
293.1523	29508.1	42.5373	0.0257
293.1524	14017.9	21.5709	0.0109
293.1524	14018.1	21.5712	0.0109
293.1524	19905.4	29.8588	0.015
293.1524	24474.2	36.0133	0.0197
293.1524	29509	42.5383	0.0257
293.1524	31846.9	45.4837	0.0288
293.1524	38005.4	52.993	0.0379
293.1525	980.2	1.6025	0.0026
293.1525	3908.9	6.3006	0.0033
293.1525	7058	11.2086	0.0084
293.1525	7058.2	11.2089	0.0084
293.1525	10034.7	15.7202	0.0091
293.1525	18019.2	27.2484	0.0136
293.1525	25777.8	37.7293	0.0211
293.1525	29510	42.5394	0.0257
293.1525	980.2	1.6026	0.0026
293.1526	7058.1	11.2088	0.0084
293.1526	18018.5	27.2473	0.0136
293.1527	16004.7	24.4152	0.012
293.1527	18018.1	27.2468	0.0136
293.1527	18018.1	27.2464	0.0136
293.1528	14018.2	21.5716	0.0109
293.1528	24475.8	36.0152	0.0197
293.1529	4006.9	6.4542	0.0034
293.1529	29509.3	42.5383	0.0257
293.153	1731.6	2.8204	0.003
293.153	3908.9	6.3007	0.0033
293.153	18018.8	27.2477	0.0136
293.1531	7882.1	12.4707	0.0083
293.1531	10034.6	15.7202	0.0091
293.1531	18019.1	27.2483	0.0136
293.1532	24473.9	36.0123	0.0197
293.1534	14018	21.5709	0.0109
293.1535	4007	6.4543	0.0034
293.1535	10034.5	15.7199	0.0091
293.1535	24474.7	36.0137	0.0197
293.1535	24475.1	36.0141	0.0197
293.1536	10034.7	15.7202	0.0091
293.1536	18019	27.2479	0.0136
293.1537	4007	6.4542	0.0034
293.1538	10034.8	15.7205	0.0091
293.1538	14018.3	21.5716	0.0109
293.1539	14017.8	21.5709	0.0109
293.1542	24473.5	36.0121	0.0197
293.1544	18018.7	27.2474	0.0136
293.1545	14018.2	21.5715	0.0109
293.1551	10034.2	15.7195	0.0091
323.1477	19306.2	26.5662	0.0131
323.1478	15082	21.1007	0.0104
323.149	11648.2	16.523	0.0089
323.149	19305.5	26.5653	0.0131
323.1491	3959.1	5.7989	0.0032
323.1491	11648.3	16.5232	0.0089
323.1492	1780.1	2.6324	0.0029
323.1492	7974.4	11.4837	0.0077
323.1493	1780.1	2.6323	0.0029
323.1493	7974.4	11.4836	0.0077
323.1494	1780.1	2.6323	0.0029
323.1494	11647.9	16.5226	0.0089
323.1494	19305.4	26.565	0.0131
323.1495	3959.1	5.7989	0.0032
323.1495	7974.3	11.4834	0.0077
323.1495	15081.6	21.1001	0.0104
323.1497	15081.5	21.1	0.0104
323.1498	3959.1	5.7989	0.0032
323.1498	37890.6	48.6888	0.0332
323.1499	7974.3	11.4836	0.0077
323.1499	37892	48.6904	0.0332
323.1501	15081.3	21.0997	0.0104
323.1502	7974.4	11.4836	0.0077
323.1502	31796.7	41.7536	0.0253
323.1502	37889.6	48.6876	0.0332
323.1503	15081.4	21.0997	0.0104
323.1503	25679.6	34.4886	0.0186
323.1503	31797.3	41.7543	0.0253
323.1504	1780.1	2.6322	0.0029
323.1504	3959.1	5.7987	0.0032
323.1504	25680	34.489	0.0186
323.1506	1780.2	2.6323	0.0029
323.1506	11648.2	16.5228	0.0089
323.1506	19305	26.5643	0.0131
323.1506	37888.6	48.6863	0.0332
323.1508	11648.1	16.5227	0.0089
323.1508	31794.8	41.7513	0.0253
323.1508	37887.7	48.6852	0.0332
323.1509	3959.1	5.7989	0.0032
323.1509	19305.3	26.5647	0.0131
323.1511	25678.8	34.4876	0.0186
323.1511	25680.4	34.4895	0.0186
323.1513	25679.3	34.4883	0.0186
323.1513	31796.1	41.7528	0.0253
323.1515	31795.4	41.752	0.0253

System: 2-trifluoromethyl-3-ethoxydodecafluorohexane; phases: Liquid
Property: Mass density, kg/m3 (Liquid); method: Buoyancy - hydrostatic balance with magnetic suspension - two sinkers
Temperature, K	Pressure, kPa	Mass density, kg/m3	uncertainty
285	5220.2	1659.809	2.168
285	10197.4	1670.467	2.184
285.001	1205.2	1650.594	2.156
285.002	1204.2	1650.591	2.156
285.002	1204.8	1650.597	2.156
285.002	5212.8	1659.79	2.168
285.002	10181.3	1670.439	2.184
308.003	19845.1	1649.196	2.196
308.007	19825	1649.159	2.196
308.008	19786.4	1649.073	2.196
308.012	1320.9	1604.262	2.131
308.012	1331	1604.292	2.131
308.012	5219.6	1614.987	2.147
308.012	5223.4	1615.004	2.147
308.012	10450.5	1628.167	2.165
308.012	10476.5	1628.238	2.165
308.013	1314.5	1604.243	2.131
308.013	10467.7	1628.212	2.165
308.014	5215.7	1614.977	2.147
349.998	1285.8	1515.319	2.076
349.998	1286	1515.323	2.076
349.998	1286.3	1515.321	2.076
349.998	1286.7	1515.322	2.076
349.998	1286.8	1515.323	2.076
349.998	5286.1	1531.011	2.098
349.998	5291	1531.029	2.098
349.998	10401.2	1548.708	2.124
349.998	16850.3	1568.238	2.153
349.998	19715.8	1576.138	2.166
349.999	1286.4	1515.323	2.076
349.999	10387.7	1548.662	2.124
349.999	10394.5	1548.686	2.124
349.999	16835.9	1568.197	2.153
349.999	17082.2	1568.894	2.155
349.999	19732.4	1576.182	2.166
349.999	19786	1576.327	2.166
400.002	1164.7	1398.227	1.985
400.002	5227.2	1424.086	2.024
400.002	9984.1	1448.955	2.061
400.002	19275.6	1487.554	2.119
400.002	19347.1	1487.813	2.119
400.003	1164.4	1398.224	1.985
400.003	5225.5	1424.075	2.024
400.003	9975.6	1448.914	2.061
400.003	9979.7	1448.935	2.061
400.003	19217.7	1487.343	2.119
400.003	19257.6	1487.488	2.119
400.003	19286.7	1487.593	2.119
400.003	19317.3	1487.706	2.119
400.003	19380.2	1487.935	2.119
400.003	19391.4	1487.975	2.119
400.003	19582.5	1488.672	2.121
400.004	1164.3	1398.222	1.985
400.004	5228.8	1424.095	2.024
400.004	19328.2	1487.745	2.119
400.004	19369.2	1487.894	2.119
400.004	19495.4	1488.354	2.119
400.004	19543.1	1488.527	2.121
400.004	19559.9	1488.587	2.121
400.005	19197	1487.266	2.119
400.005	19207.5	1487.304	2.119
400.005	19416.3	1488.066	2.119
400.005	19518.6	1488.438	2.119
