Measured thermophysical data. Density measurements on binary mixtures (nitrogen + carbon dioxide and argon + carbon dioxide) at temperatures from (298.15 to 423.15) K with pressures from (11 to 31) MPa using a single-sinker densimeter
Source: J. Chem. Thermodyn., 2015, 10.1016/j.jct.2015.07.014
Compound 1: nitrogen, N2, InChI=1S/N2/c1-2, purity 99.9999%
Compound 2: argon, Ar, InChI=1S/Ar, purity 99.9999%
Compound 3: carbon dioxide, CO2, InChI=1S/CO2/c2-1-3, purity 99.9995%

System: nitrogen; phases: Fluid (supercritical or subcritical phases)
Property: Mass density, kg/m3 (Fluid (supercritical or subcritical phases)); method: Buoyancy - hydrostatic balance with magnetic suspension - one sinker
Temperature, K	Pressure, kPa	Mass density, kg/m3	uncertainty
298.234	10976	123.118	0.07
298.233	12976	144.452	0.079
298.236	14976	165.17	0.088
298.228	16971	185.161	0.096
298.242	18975	204.467	0.104
298.231	20970	222.928	0.113
298.231	22971	240.653	0.121
298.235	24970	257.55	0.128
298.232	26968	273.675	0.136
298.228	28965	289.039	0.143
298.218	30959	303.674	0.146
298.117	32109	311.953	0.153
298.331	30945	303.445	0.146
298.234	28966	289.035	0.143
298.232	26969	273.679	0.136
298.244	24971	257.546	0.128
298.237	22992	240.817	0.121
298.241	21004	223.219	0.113
298.233	19010	204.785	0.104
298.239	17014	185.557	0.096
298.245	15014	165.544	0.088
298.235	13017	144.868	0.079
298.237	11019	123.569	0.07
348.254	10981	103.086	0.183
348.282	12976	120.712	0.069
348.282	14976	137.928	0.073
348.258	16972	154.648	0.113
348.237	18974	170.907	0.093
348.259	20971	186.577	0.307
348.253	22970	201.759	0.32
348.247	24970	216.421	0.126
348.24	26968	230.548	0.115
348.214	28966	244.176	0.121
348.255	30963	257.253	0.127
348.231	32959	269.893	0.134
348.247	30963	257.258	0.127
348.235	28967	244.162	0.121
348.248	26979	230.612	0.115
348.291	25001	216.612	0.126
348.279	23006	202.007	0.32
348.275	21013	186.886	0.308
348.279	19011	171.174	0.093
348.232	17010	154.974	0.113
348.256	15015	138.272	0.074
348.246	13016	121.065	0.07
348.272	11019	103.42	0.183
398.253	12976	104.354	0.057
398.279	14977	119.222	0.065
398.292	16973	133.67	0.07
398.283	18975	147.786	0.076
398.241	20972	161.499	0.082
398.251	22969	174.806	0.088
398.262	24969	187.737	0.094
398.235	26967	200.287	0.1
398.244	28966	212.445	0.105
398.26	30962	224.219	0.111
398.219	32961	235.672	0.116
398.27	30977	224.298	0.111
398.222	28993	212.616	0.105
398.214	27000	200.503	0.1
398.233	25002	187.957	0.094
398.187	23005	175.071	0.088
398.169	21012	161.802	0.082
398.222	19011	148.062	0.076
398.362	17012	133.928	0.07
398.389	15006	119.391	0.065
398.299	13014	104.623	0.057
398.324	11005	89.328	0.051

System: argon; phases: Fluid (supercritical or subcritical phases)
Property: Mass density, kg/m3 (Fluid (supercritical or subcritical phases)); method: Buoyancy - hydrostatic balance with magnetic suspension - one sinker
Temperature, K	Pressure, kPa	Mass density, kg/m3	uncertainty
298.23	10975	185.811	0.108
298.23	12977	220.515	0.123
298.227	14975	254.862	0.138
298.239	16973	288.723	0.153
298.225	18968	321.888	0.168
298.227	20970	354.268	0.182
298.228	22969	385.599	0.196
298.226	24967	415.802	0.21
298.223	26965	444.81	0.223
298.221	28963	472.591	0.236
298.205	30957	499.118	0.249
348.21	10976	153.363	0.077
348.252	12974	181.049	0.342
348.274	14970	208.427	0.295
348.241	16969	235.508	0.419
348.216	18971	262.184	0.136
348.273	20969	288.199	0.169
348.266	22970	313.733	0.193
348.261	24967	338.568	0.873
348.237	26966	362.782	1.257
348.211	28963	386.293	0.194
348.194	30960	409.077	0.204
348.252	32887	430.274	0.212
348.243	30961	409.019	0.204
348.224	28964	386.289	0.194
348.273	26989	363.019	1.257
348.282	25000	338.949	0.873
348.287	23010	314.199	0.193
348.26	21009	288.719	0.169
348.212	19007	262.654	0.136
348.232	17005	236	0.419
348.243	15014	209.051	0.295
348.278	13012	181.556	0.342
348.28	11019	153.917	0.078
397.907	12975	155.101	0.085
397.977	14981	178.323	0.096
398.167	16979	201.05	0.113
398.605	18975	223.208	0.117
398.868	20975	245.092	0.126
398.915	22970	266.619	0.135
398.096	24969	288.472	0.143
398.227	26971	309.171	0.17
398.284	28964	329.33	0.164
398.225	30962	349.179	0.174
398.207	32960	368.494	0.183
398.189	30985	349.444	0.174
398.202	28999	329.764	0.165
398.346	27004	309.394	0.155
398.471	25004	288.536	0.143
398.258	23005	267.5	0.133
398.252	21010	245.897	0.123
398.238	19010	223.818	0.113
398.296	17005	201.261	0.113
398.31	15013	178.513	0.097
398.262	13011	155.367	0.085
398.243	11017	132.022	0.076

System: carbon dioxide; phases: Fluid (supercritical or subcritical phases)
Property: Mass density, kg/m3 (Fluid (supercritical or subcritical phases)); method: Buoyancy - hydrostatic balance with magnetic suspension - one sinker
Temperature, K	Pressure, kPa	Mass density, kg/m3	uncertainty
323.204	10968	497.981	0.291
323.246	12967	633.58	0.32
323.237	14966	698.2	0.344
323.25	16965	739.597	0.356
323.239	18962	770.445	0.369
323.259	20966	795.018	0.379
323.248	22962	815.681	0.388
323.241	24961	833.514	0.397
323.247	26959	849.181	0.404
323.247	28037	856.967	0.407

System: carbon dioxide + nitrogen; phases: Fluid (supercritical or subcritical phases)
Property: Mass density, kg/m3 (Fluid (supercritical or subcritical phases)); method: Buoyancy - hydrostatic balance with magnetic suspension - one sinker
Temperature, K	Pressure, kPa	Mole fraction of nitrogen	Mass density, kg/m3	uncertainty
298.184	10974	0.95	128.536	0.226
298.187	12974	0.95	151.108	0.265
298.192	14973	0.95	173.056	0.305
298.187	16968	0.95	194.247	0.344
298.188	18971	0.95	214.733	0.382
298.189	20972	0.95	234.34	0.419
298.186	22968	0.95	253.055	0.453
298.194	24966	0.95	270.906	0.486
298.185	26964	0.95	287.919	0.517
298.177	28960	0.95	304.08	0.547
298.111	30854	0.95	318.784	0.577
323.183	10979	0.95	116.684	0.211
323.189	12977	0.95	136.963	0.243
323.176	14973	0.95	156.725	0.28
323.204	16971	0.95	175.903	0.316
323.201	18972	0.95	194.494	0.351
323.188	20974	0.95	212.443	0.384
323.192	22968	0.95	229.628	0.416
323.195	24967	0.95	246.174	0.446
323.197	26964	0.95	262.031	0.475
323.195	28961	0.95	277.225	0.503
323.179	30957	0.95	291.768	0.54
348.174	10975	0.95	107.02	0.189
348.161	12976	0.95	125.56	0.219
348.154	14974	0.95	143.613	0.251
348.194	16972	0.95	161.157	0.283
348.219	18976	0.95	178.236	0.314
348.226	20969	0.95	194.689	0.344
348.207	22970	0.95	210.667	0.373
348.207	24968	0.95	226.054	0.4
348.201	26965	0.95	240.883	0.427
348.236	28961	0.95	255.123	0.453
348.195	30958	0.95	268.893	0.485
373.141	10975	0.95	99.052	0.172
373.168	12975	0.95	116.113	0.199
373.111	14975	0.95	132.811	0.228
373.179	16969	0.95	148.99	0.257
373.194	18968	0.95	164.767	0.285
373.162	20970	0.95	180.142	0.312
373.195	22970	0.95	194.991	0.339
373.19	24968	0.95	209.378	0.364
373.192	26966	0.95	223.295	0.389
373.2	28961	0.95	236.723	0.413
373.171	30957	0.95	249.734	0.442
398.118	10979	0.95	92.339	0.159
398.202	12973	0.95	108.135	0.184
398.205	14975	0.95	123.655	0.21
398.231	16974	0.95	138.767	0.237
398.214	18973	0.95	153.504	0.262
398.219	20969	0.95	167.809	0.287
398.211	22970	0.95	181.754	0.312
398.206	24969	0.95	195.274	0.335
398.211	26967	0.95	208.381	0.358
398.184	28962	0.95	221.089	0.381
398.168	30958	0.95	233.41	0.407
423.175	10978	0.95	86.517	0.145
423.177	12971	0.95	101.311	0.169
423.176	14973	0.95	115.841	0.193
423.183	16967	0.95	129.977	0.217
423.16	18970	0.95	143.837	0.24
423.163	20971	0.95	157.318	0.263
423.136	22965	0.95	170.413	0.285
423.126	24967	0.95	183.194	0.307
423.127	26965	0.95	195.591	0.329
423.127	28962	0.95	207.636	0.349
423.129	30956	0.95	219.326	0.371
298.189	10975	0.99	124.2	0.22
298.189	12977	0.99	145.801	0.263
298.189	14975	0.99	166.746	0.303
298.189	16973	0.99	186.99	0.341
298.189	18971	0.99	206.482	0.379
298.187	20971	0.99	225.196	0.414
298.19	22969	0.99	243.092	0.448
298.189	24967	0.99	260.186	0.48
298.183	26965	0.99	276.485	0.51
298.183	28960	0.99	291.991	0.538
298.153	30889	0.99	306.308	0.561
323.207	10980	0.99	112.998	0.189
323.202	12978	0.99	132.477	0.227
323.188	14974	0.99	151.425	0.261
323.196	16973	0.99	169.822	0.293
323.205	18975	0.99	187.629	0.325
323.204	20974	0.99	204.784	0.356
323.198	22971	0.99	221.285	0.386
323.192	24968	0.99	237.145	0.415
323.189	26966	0.99	252.374	0.442
323.181	28962	0.99	266.975	0.469
323.18	30957	0.99	280.954	0.485
348.167	10975	0.99	103.828	0.173
348.176	12974	0.99	121.664	0.207
348.204	14978	0.99	139.081	0.237
348.211	16969	0.99	155.902	0.266
348.192	18968	0.99	172.299	0.295
348.18	20972	0.99	188.207	0.323
348.202	22973	0.99	203.544	0.35
348.177	24966	0.99	218.313	0.377
348.16	26965	0.99	232.594	0.402
348.164	28963	0.99	246.335	0.426
348.176	30959	0.99	259.551	0.443
373.143	10978	0.99	96.257	0.16
373.174	12978	0.99	112.737	0.19
373.181	14973	0.99	128.781	0.217
373.204	16976	0.99	144.455	0.245
373.198	18972	0.99	159.653	0.271
373.208	20974	0.99	174.438	0.296
373.196	22969	0.99	188.731	0.321
373.144	24968	0.99	202.615	0.346
373.142	26966	0.99	216.025	0.369
373.161	28962	0.99	228.969	0.392
373.185	30958	0.99	241.48	0.409
398.165	10981	0.99	89.797	0.149
398.224	12974	0.99	105.084	0.176
398.19	14974	0.99	120.089	0.202
398.146	16976	0.99	134.736	0.226
398.196	18973	0.99	148.923	0.251
398.189	20968	0.99	162.734	0.274
398.203	22966	0.99	176.162	0.298
398.199	24970	0.99	189.239	0.32
398.165	26965	0.99	201.89	0.342
398.18	28963	0.99	214.146	0.363
398.17	30957	0.99	226.029	0.38
423.177	10979	0.99	84.203	0.142
423.167	12979	0.99	98.597	0.167
423.108	14972	0.99	112.628	0.191
423.16	16970	0.99	126.322	0.214
423.173	18968	0.99	139.677	0.237
423.181	20972	0.99	152.731	0.259
423.191	22973	0.99	165.419	0.281
423.215	24968	0.99	177.709	0.303
423.221	26966	0.99	189.691	0.323
423.207	28961	0.99	201.322	0.343
423.181	30957	0.99	212.642	0.362

System: carbon dioxide + argon; phases: Fluid (supercritical or subcritical phases)
Property: Mass density, kg/m3 (Fluid (supercritical or subcritical phases)); method: Buoyancy - hydrostatic balance with magnetic suspension - one sinker
Temperature, K	Pressure, kPa	Mole fraction of argon	Mass density, kg/m3	uncertainty
298.222	10976	0.95	190.182	0.251
298.227	12976	0.95	226.201	0.299
298.229	14974	0.95	261.987	0.347
298.226	16969	0.95	297.274	0.395
298.228	18970	0.95	331.923	0.443
298.228	20969	0.95	365.576	0.489
298.233	22968	0.95	398.09	0.533
298.229	24967	0.95	429.349	0.574
298.227	26965	0.95	459.226	0.613
298.225	28963	0.95	487.701	0.65
298.174	30944	0.95	514.698	0.688
323.256	10976	0.95	170.993	0.233
323.257	12974	0.95	202.641	0.271
323.257	14973	0.95	234.077	0.315
323.255	16970	0.95	265.1	0.358
323.266	18969	0.95	295.579	0.401
323.271	20973	0.95	325.456	0.442
323.252	22969	0.95	354.46	0.482
323.239	24968	0.95	382.594	0.521
323.271	26965	0.95	409.68	0.556
323.253	28963	0.95	435.856	0.59
323.237	30958	0.95	460.997	0.642
348.297	10979	0.95	155.9	0.207
348.299	12976	0.95	184.3	0.24
348.302	14972	0.95	212.437	0.277
348.3	16971	0.95	240.266	0.314
348.277	18972	0.95	267.685	0.351
348.277	20972	0.95	294.53	0.387
348.293	22970	0.95	320.729	0.422
348.306	24969	0.95	346.237	0.456
348.294	26966	0.95	371.043	0.488
348.28	28962	0.95	395.094	0.519
348.25	30958	0.95	418.385	0.562
373.242	10977	0.95	143.58	0.187
373.302	12975	0.95	169.447	0.218
373.315	14971	0.95	195.043	0.25
373.289	16972	0.95	220.418	0.283
373.281	18969	0.95	245.312	0.315
373.311	20969	0.95	269.779	0.347
373.319	22966	0.95	293.716	0.378
373.322	24968	0.95	317.167	0.408
373.311	26966	0.95	340.003	0.438
373.292	28963	0.95	362.242	0.466
373.288	30959	0.95	383.847	0.502
398.369	10980	0.95	133.275	0.172
398.356	12973	0.95	157.068	0.2
398.333	14977	0.95	180.735	0.229
398.361	16970	0.95	203.95	0.259
398.352	18973	0.95	226.932	0.288
398.346	20972	0.95	249.488	0.316
398.34	22971	0.95	271.617	0.344
398.331	24965	0.95	293.233	0.372
398.311	26966	0.95	314.455	0.399
398.315	28963	0.95	335.112	0.425
398.332	30959	0.95	355.238	0.456
423.335	10981	0.95	124.535	0.158
423.31	12974	0.95	146.65	0.184
423.335	14975	0.95	168.571	0.211
423.346	16970	0.95	190.146	0.237
423.337	18970	0.95	211.466	0.263
423.353	20971	0.95	232.422	0.289
423.364	22968	0.95	252.983	0.315
423.323	24968	0.95	273.195	0.34
423.331	26968	0.95	292.962	0.364
423.338	28966	0.95	312.296	0.388
423.345	30960	0.95	331.165	0.412
298.194	10975	0.99	187.045	0.247
298.195	12973	0.99	222.038	0.295
298.191	14969	0.99	256.759	0.344
298.19	16969	0.99	291.075	0.393
298.193	18969	0.99	324.674	0.441
298.197	20967	0.99	357.351	0.487
298.197	22966	0.99	389.003	0.531
298.199	24964	0.99	419.491	0.573
298.195	26962	0.99	448.747	0.611
298.178	28957	0.99	476.725	0.646
298.123	30871	0.99	502.471	0.674
323.202	10978	0.99	168.714	0.213
323.218	12973	0.99	199.627	0.254
323.213	14970	0.99	230.302	0.292
323.207	16971	0.99	260.652	0.331
323.211	18969	0.99	290.39	0.369
323.213	20969	0.99	319.49	0.407
323.215	22966	0.99	347.807	0.443
323.199	24965	0.99	375.34	0.478
323.21	26962	0.99	401.924	0.512
323.212	28960	0.99	427.589	0.545
323.197	30955	0.99	452.317	0.566
348.252	10977	0.99	154.064	0.194
348.245	12974	0.99	181.967	0.23
348.213	14972	0.99	209.619	0.264
348.21	16970	0.99	236.897	0.298
348.209	18972	0.99	263.764	0.332
348.217	20972	0.99	290.057	0.365
348.257	22968	0.99	315.675	0.398
348.254	24966	0.99	340.708	0.429
348.242	26963	0.99	365.062	0.46
348.233	28960	0.99	388.704	0.49
348.224	30956	0.99	411.615	0.512
373.248	10978	0.99	142.11	0.178
373.249	12977	0.99	167.627	0.211
373.24	14972	0.99	192.822	0.241
373.217	16970	0.99	217.712	0.272
373.219	18968	0.99	242.204	0.303
373.238	20969	0.99	266.255	0.333
373.227	22970	0.99	289.853	0.362
373.226	24965	0.99	312.835	0.391
373.229	26964	0.99	335.305	0.419
373.237	28960	0.99	357.169	0.446
373.223	30957	0.99	378.472	0.468
398.283	10979	0.99	132.065	0.166
398.263	12977	0.99	155.613	0.195
398.296	14970	0.99	178.803	0.223
398.305	16969	0.99	201.75	0.251
398.298	18971	0.99	224.388	0.279
398.28	20968	0.99	246.59	0.306
398.298	22969	0.99	268.392	0.333
398.298	24967	0.99	289.714	0.36
398.286	26962	0.99	310.557	0.386
398.288	28962	0.99	330.96	0.411
398.278	30957	0.99	350.842	0.432
423.221	10980	0.99	123.515	0.156
423.235	12971	0.99	145.339	0.183
423.227	14969	0.99	166.982	0.21
423.223	16967	0.99	188.325	0.236
423.278	18967	0.99	209.329	0.262
423.297	20973	0.99	230.071	0.288
423.301	22965	0.99	250.298	0.313
423.334	24964	0.99	270.201	0.337
423.344	26961	0.99	289.685	0.362
423.328	28959	0.99	308.785	0.385
423.304	30956	0.99	327.48	0.408
