Measured thermophysical data. Experimental study on the gaseous p.rho.Tx properties for (HFO1234yf + HC290)
Source: J. Chem. Thermodyn., 2017, 10.1016/j.jct.2016.12.029
Compound 1: 2,3,3,3-tetrafluoro-1-propene, C3H2F4, InChI=1S/C3H2F4/c1-2(4)3(5,6)7/h1H2, purity 99.9%
Compound 2: propane, C3H8, InChI=1S/C3H8/c1-3-2/h3H2,1-2H3, purity 99.9%

System: 2,3,3,3-tetrafluoro-1-propene; phases: Gas
Property: Mass density, kg/m3 (Gas); method: Buoyancy - hydrostatic balance with magnetic suspension - one sinker
Temperature, K	Pressure, kPa	Mass density, kg/m3	uncertainty
300.203	668.8	36.434	0.077
300.21	545.8	28.564	0.074
300.214	439.4	22.291	0.069
300.209	324	15.933	0.064
300.215	218.9	10.489	0.061
300.215	108	5.039	0.059
295.405	600.7	32.885	0.077
295.406	510.2	27.092	0.074
295.403	400.6	20.565	0.07
295.406	305.3	15.255	0.065
295.404	196.9	9.565	0.062
295.405	101.7	4.829	0.06
290.399	421.2	22.298	0.07
290.399	308.8	15.792	0.067
290.389	184.5	9.113	0.063
290.385	102.2	4.937	0.061
285.279	358.5	19.078	0.069
285.275	258.8	13.34	0.067
285.277	164.2	8.23	0.064
285.276	104.7	5.162	0.062
280.294	356.2	19.43	0.072
280.291	274	14.527	0.069
280.286	176.6	9.076	0.066
280.283	103.6	5.208	0.064
275.418	303.7	16.657	0.071
275.401	208.6	11.064	0.068
275.391	106.2	5.448	0.066
270.385	250.3	13.798	0.07
270.385	164.6	8.792	0.069
270.363	101	5.279	0.066
265.476	207.2	11.507	0.069
265.46	101.2	5.404	0.069

System: propane + 2,3,3,3-tetrafluoro-1-propene; phases: Gas
Property: Mass density, kg/m3 (Gas); method: Buoyancy - hydrostatic balance with magnetic suspension - one sinker
Temperature, K	Pressure, kPa	Mole fraction of 2,3,3,3-tetrafluoro-1-propene	Mass density, kg/m3	uncertainty
300.229	569.7	0.8116	26.154	0.093
300.245	489.8	0.8116	22.015	0.084
300.252	392.5	0.8116	17.228	0.074
300.265	301.1	0.8116	12.94	0.065
300.268	198.3	0.8116	8.334	0.057
300.265	106.3	0.8116	4.378	0.053
295.495	514.3	0.8116	23.825	0.089
295.484	403.2	0.8116	18.133	0.077
295.479	304	0.8116	13.338	0.067
295.48	198.1	0.8116	8.481	0.058
295.48	105.6	0.8116	4.43	0.054
290.464	465.4	0.8116	21.81	0.085
290.456	380.2	0.8116	17.392	0.076
290.445	298.5	0.8116	13.363	0.068
290.437	199.7	0.8116	8.728	0.06
290.441	106.8	0.8116	4.568	0.055
285.377	413.6	0.8116	19.58	0.081
285.371	311	0.8116	14.287	0.071
285.354	203.4	0.8116	9.079	0.062
285.353	107.3	0.8116	4.677	0.056
280.404	369	0.8116	17.665	0.078
280.38	294.7	0.8116	13.792	0.071
280.368	190.7	0.8116	8.666	0.062
280.362	103.6	0.8116	4.599	0.057
275.491	325.2	0.8116	15.724	0.075
275.473	211	0.8116	9.844	0.065
275.469	107.9	0.8116	4.886	0.059
270.5	286.6	0.8116	14.015	0.072
270.497	182.6	0.8116	8.631	0.065
270.496	105.1	0.8116	4.852	0.06
265.6	249	0.8116	12.31	0.071
265.575	181.7	0.8116	8.775	0.066
265.546	106.5	0.8116	5.018	0.062
300.241	701	0.583	27.648	0.092
300.254	600.3	0.583	23.086	0.081
300.26	506.5	0.583	19.062	0.071
300.268	400.3	0.583	14.716	0.062
300.26	298.9	0.583	10.761	0.054
300.258	200.3	0.583	7.077	0.048
300.26	102.6	0.583	3.557	0.044
295.469	624.6	0.583	24.759	0.085
295.453	511.2	0.583	19.692	0.074
295.458	410.8	0.583	15.457	0.064
295.457	304.8	0.583	11.205	0.056
295.46	202.1	0.583	7.273	0.049
295.459	105.6	0.583	3.727	0.045
290.245	583.7	0.583	23.524	0.083
290.412	496.6	0.583	19.555	0.074
290.411	403.8	0.583	15.532	0.065
290.409	300.6	0.583	11.287	0.057
290.401	203.9	0.583	7.494	0.05
290.408	103.5	0.583	3.727	0.046
285.327	524.2	0.583	21.282	0.078
285.323	414.1	0.583	16.308	0.068
285.318	309.1	0.583	11.855	0.059
285.317	198.9	0.583	7.432	0.051
285.32	104.6	0.583	3.829	0.047
280.353	481.2	0.583	19.822	0.076
280.343	401.2	0.583	16.148	0.069
280.337	300.9	0.583	11.781	0.06
280.334	202	0.583	7.713	0.052
280.336	102.8	0.583	3.835	0.048
275.491	415.1	0.583	17.223	0.071
275.472	300.7	0.583	12.066	0.062
275.455	198.4	0.583	7.744	0.054
275.455	102.2	0.583	3.894	0.049
270.467	349	0.583	14.488	0.065
270.454	215	0.583	8.58	0.056
270.453	102.6	0.583	3.972	0.05
265.586	295.1	0.583	12.343	0.062
265.566	198.3	0.583	8.052	0.056
265.561	107.5	0.583	4.254	0.051
295.451	638.2	0.2546	18.298	0.063
295.435	526.9	0.2546	14.734	0.055
295.435	420	0.2546	11.485	0.047
295.441	312	0.2546	8.352	0.041
295.434	213.4	0.2546	5.607	0.037
290.439	586.4	0.2546	16.977	0.06
290.427	490.8	0.2546	13.893	0.053
290.422	393.4	0.2546	10.9	0.047
290.422	297.9	0.2546	8.09	0.041
290.415	202.4	0.2546	5.395	0.036
290.418	102.2	0.2546	2.673	0.033
285.29	520.3	0.2546	15.183	0.057
285.293	414.7	0.2546	11.796	0.049
285.291	306.8	0.2546	8.517	0.042
285.295	204	0.2546	5.541	0.037
285.298	104	0.2546	2.771	0.034
280.315	476.4	0.2546	14.119	0.054
280.312	360.4	0.2546	10.374	0.047
280.317	279.7	0.2546	7.895	0.042
280.314	195.7	0.2546	5.424	0.038
280.311	101.5	0.2546	2.757	0.035
275.427	404.2	0.2546	12.054	0.052
275.411	306	0.2546	8.898	0.044
275.41	188.7	0.2546	5.334	0.039
270.421	267	0.2546	7.839	0.042
270.413	182.2	0.2546	5.239	0.039
270.402	103.2	0.2546	2.918	0.036
300.206	702.5	0.0906	16.204	0.054
300.236	599.9	0.0906	13.531	0.048
300.246	506.5	0.0906	11.208	0.042
300.249	396.6	0.0906	8.595	0.037
300.259	300	0.0906	6.389	0.032
300.252	190.5	0.0906	3.98	0.028
300.259	104.5	0.0906	2.152	0.026
295.475	629.5	0.0906	14.594	0.051
295.473	517.9	0.0906	11.713	0.044
295.465	411.3	0.0906	9.102	0.038
295.463	309.4	0.0906	6.711	0.033
295.468	209.6	0.0906	4.463	0.029
295.469	104.2	0.0906	2.174	0.027
290.465	539.6	0.0906	12.53	0.046
290.458	409.5	0.0906	9.237	0.039
290.459	314.2	0.0906	6.95	0.034
290.46	208.6	0.0906	4.52	0.03
290.457	104.6	0.0906	2.225	0.027
285.395	494.1	0.0906	11.653	0.045
285.38	402.5	0.0906	9.29	0.04
285.369	298.4	0.0906	6.733	0.034
285.363	205.6	0.0906	4.552	0.03
285.353	103.9	0.0906	2.256	0.028
280.403	425	0.0906	10.088	0.042
280.388	315.2	0.0906	7.287	0.036
280.374	207.3	0.0906	4.678	0.031
280.36	106.5	0.0906	2.352	0.028
275.468	374.9	0.0906	8.996	0.04
275.461	282.9	0.0906	6.633	0.035
275.462	196	0.0906	4.504	0.031
275.46	103.9	0.0906	2.338	0.029
270.438	338.6	0.0906	8.243	0.038
270.438	194.1	0.0906	4.555	0.033
270.441	102.4	0.0906	2.353	0.03
265.578	299.3	0.0906	7.374	0.037
265.573	206.2	0.0906	4.954	0.033
265.575	104	0.0906	2.433	0.03
300.203	668.8	1	36.434	0.077
300.21	545.8	1	28.564	0.074
300.214	439.4	1	22.291	0.069
300.209	324	1	15.933	0.064
300.215	218.9	1	10.489	0.061
300.215	108	1	5.039	0.059
295.405	600.7	1	32.885	0.077
295.406	510.2	1	27.092	0.074
295.403	400.6	1	20.565	0.07
295.406	305.3	1	15.255	0.065
295.404	196.9	1	9.565	0.062
295.405	101.7	1	4.829	0.06
290.399	421.2	1	22.298	0.07
290.399	308.8	1	15.792	0.067
290.389	184.5	1	9.113	0.063
290.385	102.2	1	4.937	0.061
285.279	358.5	1	19.078	0.069
285.275	258.8	1	13.34	0.067
285.277	164.2	1	8.23	0.064
285.276	104.7	1	5.162	0.062
280.294	356.2	1	19.43	0.072
280.291	274	1	14.527	0.069
280.286	176.6	1	9.076	0.066
280.283	103.6	1	5.208	0.064
275.418	303.7	1	16.657	0.071
275.401	208.6	1	11.064	0.068
275.391	106.2	1	5.448	0.066
270.385	250.3	1	13.798	0.07
270.385	164.6	1	8.792	0.069
270.363	101	1	5.279	0.066
265.476	207.2	1	11.507	0.069
265.46	101.2	1	5.404	0.069
