Measured thermophysical data. Apparent molar volumes and viscosity B-coefficients of nicotinamide in aqueous tetrabutylammonium bromide solutions at T = (298.15, 308.15, and 318.15) K
Source: J. Chem. Thermodyn., 2008, 10.1016/j.jct.2007.09.012
Compound 1: 3-pyridinecarboxamide, C6H6N2O, InChI=1S/C6H6N2O/c7-6(9)5-2-1-3-8-4-5/h1-4H,(H2,7,9), purity 99%
Compound 2: water, H2O, InChI=1S/H2O/h1H2
Compound 3: tetrabutylammonium bromide, C16H36BrN, InChI=1S/C16H36N.BrH/c1-5-9-13-17(14-10-6-2,15-11-7-3)16-12-8-4;/h5-16H2,1-4H3;1H/q+1;/p-1

System: tetrabutylammonium bromide + water; phases: Liquid
Fixed: Pressure, kPa = 101
Property: Viscosity, Pa*s (Liquid); method: CAPTUB:UFactor:4
Amount concentration (molarity), mol/dm3 of tetrabutylammonium bromide	Temperature, K	Viscosity, Pa*s	uncertainty
0.05	298.15	0.0008712	2.19e-05
0.05	308.15	0.0007107	1.85e-05
0.05	318.15	0.0005908	1.59e-05
0.1	298.15	0.0009974	2.46e-05
0.1	308.15	0.0007774	1.99e-05
0.1	318.15	0.0006526	1.72e-05
0.15	298.15	0.0009352	2.33e-05
0.15	308.15	0.0007378	1.9e-05
0.15	318.15	0.0006163	1.64e-05

System: tetrabutylammonium bromide + water; phases: Liquid
Fixed: Pressure, kPa = 101
Property: Mass density, kg/m3 (Liquid); method: PYCNOM:UFactor:3
Amount concentration (molarity), mol/dm3 of tetrabutylammonium bromide	Temperature, K	Mass density, kg/m3	uncertainty
0.05	298.15	998.2	0.7
0.05	308.15	995.2	0.8
0.05	318.15	991.4	0.9
0.1	298.15	1000.6	0.7
0.1	308.15	997	0.8
0.1	318.15	993.4	0.9
0.15	298.15	999.1	0.7
0.15	308.15	996.2	0.8
0.15	318.15	992.3	0.9

System: 3-pyridinecarboxamide + water; phases: Liquid
Fixed: Pressure, kPa = 101.3
Property: Viscosity, Pa*s (Liquid); method: CAPTUB:UFactor:4
Temperature, K	Amount concentration (molarity), mol/dm3 of 3-pyridinecarboxamide	Viscosity, Pa*s	uncertainty
298.15	0.0199	0.000837	2.2e-05
298.15	0.0319	0.00084	2.2e-05
298.15	0.0518	0.000846	2.2e-05
298.15	0.0718	0.000851	2.2e-05
298.15	0.0877	0.000855	2.2e-05
298.15	0.0997	0.000857	2.2e-05
308.15	0.0198	0.000673	1.8e-05
308.15	0.0318	0.000677	1.8e-05
308.15	0.0516	0.000684	1.8e-05
308.15	0.0716	0.00069	1.8e-05
308.15	0.0874	0.000695	1.8e-05
308.15	0.0993	0.0007	1.9e-05
318.15	0.0197	0.000566	1.6e-05
318.15	0.0317	0.000569	1.6e-05
318.15	0.0515	0.000575	1.6e-05
318.15	0.0713	0.000581	1.6e-05
318.15	0.0871	0.000585	1.6e-05
318.15	0.099	0.000588	1.6e-05

System: 3-pyridinecarboxamide + water; phases: Liquid
Fixed: Pressure, kPa = 101.3
Property: Mass density, kg/m3 (Liquid); method: PYCNOM:UFactor:3
Temperature, K	Amount concentration (molarity), mol/dm3 of 3-pyridinecarboxamide	Mass density, kg/m3	uncertainty
298.15	0.0199	997.6	0.9
298.15	0.0319	998	0.9
298.15	0.0518	998.5	0.9
298.15	0.0718	999	0.9
298.15	0.0877	999.5	0.9
298.15	0.0997	999.8	0.9
308.15	0.0198	994.6	1
308.15	0.0318	994.9	1
308.15	0.0516	995.5	1
308.15	0.0716	996	1
308.15	0.0874	996.5	1
308.15	0.0993	996.8	1
318.15	0.0197	990.8	1.1
318.15	0.0317	991.1	1.1
318.15	0.0515	991.6	1.1
318.15	0.0713	992.1	1.1
318.15	0.0871	992.5	1.1
318.15	0.099	992.9	1.1

System: 3-pyridinecarboxamide + tetrabutylammonium bromide + water; phases: Liquid
Fixed: Pressure, kPa = 101
Property: Viscosity, Pa*s (Liquid); method: CAPTUB:UFactor:4
Temperature, K	Amount concentration (molarity), mol/dm3 of 3-pyridinecarboxamide	Solvent: Amount concentration (molarity), mol/dm3 of tetrabutylammonium bromide	Viscosity, Pa*s	uncertainty
298.15	0.0199	0	0.000837	2.2e-05
298.15	0.0199	0.1	0.000936	2.4e-05
298.15	0.02	0.05	0.000878	2.3e-05
298.15	0.02	0.15	0.000995	2.5e-05
298.15	0.0319	0	0.00084	2.2e-05
298.15	0.032	0.05	0.000881	2.3e-05
298.15	0.032	0.1	0.000939	2.4e-05
298.15	0.032	0.15	0.000998	2.5e-05
298.15	0.0518	0	0.000846	2.2e-05
298.15	0.0519	0.1	0.000943	2.4e-05
298.15	0.052	0.15	0.001004	2.5e-05
298.15	0.0521	0.05	0.000886	2.3e-05
298.15	0.068	0.05	0.00089	2.3e-05
298.15	0.0718	0	0.000851	2.2e-05
298.15	0.0719	0.1	0.000949	2.4e-05
298.15	0.072	0.15	0.00101	2.5e-05
298.15	0.084	0.05	0.000894	2.3e-05
298.15	0.0877	0	0.000855	2.2e-05
298.15	0.0878	0.1	0.000953	2.4e-05
298.15	0.088	0.15	0.001017	2.6e-05
298.15	0.098	0.05	0.000898	2.3e-05
298.15	0.0997	0	0.000857	2.2e-05
298.15	0.0998	0.1	0.000956	2.4e-05
298.15	0.1	0.15	0.001021	2.6e-05
308.15	0.0198	0	0.000673	1.8e-05
308.15	0.0199	0.1	0.000743	2e-05
308.15	0.0199	0.15	0.000776	2e-05
308.15	0.02	0.05	0.000712	1.9e-05
308.15	0.0318	0	0.000677	1.8e-05
308.15	0.0319	0.05	0.000714	1.9e-05
308.15	0.0319	0.1	0.000749	2e-05
308.15	0.0319	0.15	0.000781	2e-05
308.15	0.0516	0	0.000684	1.8e-05
308.15	0.0517	0.1	0.000759	2e-05
308.15	0.0518	0.15	0.000789	2.1e-05
308.15	0.0519	0.05	0.000719	1.9e-05
308.15	0.0678	0.05	0.000723	1.9e-05
308.15	0.0716	0	0.00069	1.8e-05
308.15	0.0716	0.1	0.00077	2e-05
308.15	0.0717	0.15	0.000798	2.1e-05
308.15	0.0837	0.05	0.000727	1.9e-05
308.15	0.0874	0	0.000695	1.8e-05
308.15	0.0875	0.1	0.000779	2e-05
308.15	0.0877	0.15	0.000806	2.1e-05
308.15	0.0977	0.05	0.000731	1.9e-05
308.15	0.0993	0	0.0007	1.9e-05
308.15	0.0994	0.1	0.000786	2e-05
308.15	0.0997	0.15	0.000813	2.1e-05
318.15	0.0197	0	0.000566	1.6e-05
318.15	0.0198	0.1	0.000617	1.7e-05
318.15	0.0198	0.15	0.00065	1.7e-05
318.15	0.0199	0.05	0.000591	1.6e-05
318.15	0.0317	0	0.000569	1.6e-05
318.15	0.0318	0.05	0.000593	1.6e-05
318.15	0.0318	0.1	0.000622	1.7e-05
318.15	0.0318	0.15	0.000654	1.8e-05
318.15	0.0515	0	0.000575	1.6e-05
318.15	0.0515	0.1	0.000629	1.7e-05
318.15	0.0516	0.15	0.000661	1.8e-05
318.15	0.0517	0.05	0.000598	1.6e-05
318.15	0.0676	0.05	0.000602	1.6e-05
318.15	0.0713	0	0.000581	1.6e-05
318.15	0.0713	0.1	0.000637	1.7e-05
318.15	0.0714	0.15	0.00067	1.8e-05
318.15	0.0834	0.05	0.000606	1.7e-05
318.15	0.0871	0	0.000585	1.6e-05
318.15	0.0872	0.1	0.000645	1.7e-05
318.15	0.0874	0.15	0.000677	1.8e-05
318.15	0.0973	0.05	0.00061	1.7e-05
318.15	0.099	0	0.000588	1.6e-05
318.15	0.0991	0.1	0.000651	1.8e-05
318.15	0.0993	0.15	0.000683	1.8e-05

System: 3-pyridinecarboxamide + tetrabutylammonium bromide + water; phases: Liquid
Fixed: Pressure, kPa = 101
Property: Mass density, kg/m3 (Liquid); method: PYCNOM:UFactor:3
Temperature, K	Amount concentration (molarity), mol/dm3 of 3-pyridinecarboxamide	Solvent: Amount concentration (molarity), mol/dm3 of tetrabutylammonium bromide	Mass density, kg/m3	uncertainty
298.15	0.0199	0	997.6	0.9
298.15	0.0199	0.1	999.6	0.9
298.15	0.02	0.05	998.7	0.9
298.15	0.02	0.15	1001.1	0.9
298.15	0.0319	0	998	0.9
298.15	0.032	0.05	999	0.9
298.15	0.032	0.1	999.9	0.9
298.15	0.032	0.15	1001.4	0.9
298.15	0.0518	0	998.5	0.9
298.15	0.0519	0.1	1000.4	0.9
298.15	0.052	0.15	1001.9	0.9
298.15	0.0521	0.05	999.6	0.9
298.15	0.068	0.05	1000	0.9
298.15	0.0718	0	999	0.9
298.15	0.0719	0.1	1000.9	0.9
298.15	0.072	0.15	1002.4	0.9
298.15	0.084	0.05	1000.4	0.9
298.15	0.0877	0	999.5	0.9
298.15	0.0878	0.1	1001.3	0.9
298.15	0.088	0.15	1002.8	1
298.15	0.098	0.05	1000.8	0.9
298.15	0.0997	0	999.8	0.9
298.15	0.0998	0.1	1001.6	0.9
298.15	0.1	0.15	1003.1	1
308.15	0.0198	0	994.6	1
308.15	0.0199	0.1	996.6	1
308.15	0.0199	0.15	997.3	1
308.15	0.02	0.05	995.7	1
308.15	0.0318	0	994.9	1
308.15	0.0319	0.05	996	1
308.15	0.0319	0.1	996.8	1
308.15	0.0319	0.15	997.6	1
308.15	0.0516	0	995.5	1
308.15	0.0517	0.1	997.3	1
308.15	0.0518	0.15	998	1
308.15	0.0519	0.05	996.5	1
308.15	0.0678	0.05	996.9	1
308.15	0.0716	0	996	1
308.15	0.0716	0.1	997.7	1
308.15	0.0717	0.15	998.4	1
308.15	0.0837	0.05	997.3	1
308.15	0.0874	0	996.5	1
308.15	0.0875	0.1	998.1	1
308.15	0.0877	0.15	998.8	1
308.15	0.0977	0.05	997.7	1
308.15	0.0993	0	996.8	1
308.15	0.0994	0.1	998.4	1
308.15	0.0997	0.15	999.1	1
318.15	0.0197	0	990.8	1.1
318.15	0.0198	0.1	992.6	1.1
318.15	0.0198	0.15	993.6	1.1
318.15	0.0199	0.05	991.8	1.1
318.15	0.0317	0	991.1	1.1
318.15	0.0318	0.05	992	1.1
318.15	0.0318	0.1	992.8	1.1
318.15	0.0318	0.15	993.8	1.1
318.15	0.0515	0	991.6	1.1
318.15	0.0515	0.1	993.3	1.1
318.15	0.0516	0.15	994.1	1.1
318.15	0.0517	0.05	992.5	1.1
318.15	0.0676	0.05	992.9	1.1
318.15	0.0713	0	992.1	1.1
318.15	0.0713	0.1	993.7	1.1
318.15	0.0714	0.15	994.5	1.1
318.15	0.0834	0.05	993.3	1.1
318.15	0.0871	0	992.5	1.1
318.15	0.0872	0.1	994.1	1.1
318.15	0.0874	0.15	994.8	1.1
318.15	0.0973	0.05	993.6	1.1
318.15	0.099	0	992.9	1.1
318.15	0.0991	0.1	994.3	1.1
318.15	0.0993	0.15	995	1.1
