Measured thermophysical data. Solubility and density of the disodium salt hemiheptahydrate of ceftriaxone in (acetone + water) at T=(298.15,308.15, and 318.15) K
Source: J. Chem. Thermodyn., 2004, 10.1016/j.jct.2003.10.006
Compound 1: disodium ceftriaxone, C18H16N8Na2O7S3, InChI=1S/C18H18N8O7S3.2Na/c1-25-18(22-12(28)13(29)23-25)36-4-6-3-34-15-9(14(30)26(15)10(6)16(31)32)21-11(27)8(24-33-2)7-5-35-17(19)20-7;;/h5,9,15H,3-4H2,1-2H3,(H5,19,20,21,23,27,29,31,32);;/q;2*+1/p-2/b24-8-;;/t9-,15-;;/m1../s1
Compound 2: water, H2O, InChI=1S/H2O/h1H2
Compound 3: acetone, C3H6O, InChI=1S/C3H6O/c1-3(2)4/h1-2H3

System: acetone + water + disodium ceftriaxone; phases: Liquid, Crystal
Fixed: Pressure, kPa = 101.3
Property: Mass ratio of solute to solvent of disodium ceftriaxone (Liquid); method: OTHER
Temperature, K	Solvent: Mass fraction of acetone	Mass ratio of solute to solvent of disodium ceftriaxone	uncertainty
298.15	0.2	0.35572	0.02134
298.15	0.3	0.25288	0.01518
298.15	0.4	0.17305	0.01039
298.15	0.5	0.09717	0.00583
298.15	0.6	0.03529	0.00212
298.15	0.7	0.01072	0.00064
298.15	0.8	0.00191	0.00012
298.15	0.9	0.000215	1.3e-05
308.15	0.2	0.37428	0.02246
308.15	0.3	0.29573	0.01775
308.15	0.4	0.2132	0.0128
308.15	0.5	0.11061	0.00664
308.15	0.6	0.04183	0.00251
308.15	0.7	0.01315	0.00079
308.15	0.8	0.00232	0.00014
308.15	0.9	0.000188	1.3e-05
318.15	0.2	0.39572	0.02374
318.15	0.3	0.33139	0.01989
318.15	0.4	0.2366	0.0142
318.15	0.5	0.14245	0.00855
318.15	0.6	0.0513	0.00309
318.15	0.7	0.01568	0.00095
318.15	0.8	0.00364	0.00022
318.15	0.9	0.001492	9e-05

System: acetone + water + disodium ceftriaxone; phases: Liquid, Crystal
Fixed: Pressure, kPa = 101.3
Property: Mass density, kg/m3 (Liquid); method: VIBTUB:UFactor:64
Temperature, K	Solvent: Mass fraction of acetone	Mass density, kg/m3	uncertainty
298.15	0.2	1129.1	5.2
298.15	0.3	1075.6	3.9
298.15	0.4	1018.9	2.5
298.15	0.5	962.2	2.9
298.15	0.6	910.5	4.2
298.15	0.7	877	5.1
298.15	0.8	846.2	5.8
298.15	0.9	818.4	6.5
308.15	0.2	1139.4	5.5
308.15	0.3	1083.9	10
308.15	0.4	1030.9	2.8
308.15	0.5	974.6	2.6
308.15	0.6	919.6	4
308.15	0.7	883.2	4.9
308.15	0.8	848.6	5.8
308.15	0.9	819.9	6.5
318.15	0.2	1151.9	5.8
318.15	0.3	1105.3	4.6
318.15	0.4	1043.7	3.1
318.15	0.5	984.7	2.4
318.15	0.6	927.4	3.8
318.15	0.7	890.6	4.7
318.15	0.8	851.2	5.7
318.15	0.9	821	6.5
