Measured thermophysical data. A re-entrant resonator for the measurement of phase boundaries: dew points for {0.4026CH4 + 0.5974C3H8}
Source: J. Chem. Thermodyn., 2005, 10.1016/j.jct.2004.11.004
Compound 1: methane, CH4, InChI=1S/CH4/h1H4, purity 0.9999%
Compound 2: propane, C3H8, InChI=1S/C3H8/c1-3-2/h3H2,1-2H3, purity 0.9985%

System: methane + propane; phases: Gas, Liquid
Fixed: Mole fraction of propane = 0.5974
Property: Vapor or sublimation pressure, kPa (Gas); method: Reentrant cavity resonator
Temperature, K	Vapor or sublimation pressure, kPa	uncertainty
315.53	2870.9	569.4
320.95	3332.2	660.8
324.16	3642.4	722.2
325.99	3856.3	764.7
329.11	4213.6	835.3
331.38	4520.5	896.1
333.83	4892.2	969.8
335.69	5268.3	1044.7
337.06	5573.4	1106.6
340.38	6826	1356
