Measured thermophysical data. The investigation on the vapour liquid phase equilibrium of (ammonia + 1,1,1,2-tetrafluoroethane) system over the temperatures ranging from (243.150 to 283.150) K
Source: J. Chem. Thermodyn., 2017, 10.1016/j.jct.2017.01.019
Compound 1: ammonia, H3N, InChI=1S/H3N/h1H3, purity 99.999%
Compound 2: 1,1,1,2-tetrafluoroethane, C2H2F4, InChI=1S/C2H2F4/c3-1-2(4,5)6/h1H2, purity 99.9%

System: ammonia; phases: Liquid, Gas
Property: Vapor or sublimation pressure, kPa (Liquid); method: Closed cell (Static) method
Temperature, K	Vapor or sublimation pressure, kPa	uncertainty
243.15	119.7	1.6
248.15	151.7	1.6
253.15	190.2	1.6
258.15	236.4	1.6
263.15	290.7	1.7
268.15	354.8	1.7
273.15	429.3	1.7
278.15	515.5	1.8
283.15	615.1	1.8
288.15	728.5	1.9
293.15	857.1	2

System: 1,1,1,2-tetrafluoroethane; phases: Liquid, Gas
Property: Vapor or sublimation pressure, kPa (Liquid); method: Closed cell (Static) method
Temperature, K	Vapor or sublimation pressure, kPa	uncertainty
243.15	84.5	1.6
248.15	106.4	1.6
253.15	132.7	1.6
258.15	163.9	1.6
263.15	200.6	1.6
268.15	243.3	1.6
273.15	292.7	1.7
278.15	349.6	1.7
283.15	414.3	1.7
288.15	488.2	1.8
293.15	570.7	1.8

System: 1,1,1,2-tetrafluoroethane + ammonia; phases: Liquid, Gas
Property: Vapor or sublimation pressure, kPa (Liquid); method: Closed cell (Static) method
Mole fraction of ammonia	Temperature, K	Vapor or sublimation pressure, kPa	uncertainty
0	243.15	84.5	1.6
0.267	243.15	120.5	1.6
0.642	243.15	142.9	1.7
0.721	243.15	144	1.7
0.749	243.15	144.1	1.7
0.76	243.15	144	1.7
0.854	243.15	143	1.7
0.902	243.15	140.8	1.7
0.942	243.15	138.3	1.7
1	243.15	119.7	1.6
0	253.15	132.7	1.6
0.296	253.15	186.4	1.7
0.658	253.15	222.2	1.7
0.723	253.15	223.8	1.7
0.752	253.15	224.2	1.7
0.758	253.15	224.1	1.7
0.843	253.15	222.7	1.7
0.903	253.15	219.7	1.7
0.939	253.15	215.5	1.7
1	253.15	190.2	1.7
0	263.15	200.6	1.7
0.305	263.15	276.9	1.8
0.657	263.15	332.5	1.9
0.73	263.15	335.6	1.9
0.753	263.15	336.1	1.9
0.76	263.15	336.1	1.9
0.843	263.15	334.5	1.9
0.897	263.15	329.8	1.9
0.941	263.15	323.9	1.9
1	263.15	290.7	1.8
0	273.15	292.7	1.8
0.303	273.15	398.8	2
0.657	273.15	482	2.1
0.725	273.15	487	2.1
0.752	273.15	487.9	2.1
0.762	273.15	487.9	2.1
0.852	273.15	486	2.1
0.903	273.15	479.8	2.1
0.942	273.15	470.9	2.1
1	273.15	429.3	2
0	283.15	414.3	2
0.296	283.15	558.5	2.3
0.654	283.15	678.3	2.5
0.734	283.15	686.5	2.6
0.757	283.15	688.1	2.6
0.761	283.15	688.1	2.6
0.849	283.15	686.7	2.6
0.909	283.15	678.4	2.5
0.945	283.15	666.9	2.5
1	283.15	615.1	2.4

System: 1,1,1,2-tetrafluoroethane + ammonia; phases: Gas, Liquid
Property: Mole fraction of ammonia (Gas); method: Chromatography
Mole fraction of ammonia	Temperature, K	Mole fraction of ammonia	uncertainty
0	243.15	0	
0.267	243.15	0.445	0.011
0.642	243.15	0.707	0.01
0.721	243.15	0.737	0.01
0.749	243.15	0.747	0.01
0.76	243.15	0.751	0.01
0.854	243.15	0.786	0.01
0.902	243.15	0.816	0.01
0.942	243.15	0.844	0.01
1	243.15	1	
0	253.15	0	
0.296	253.15	0.463	0.011
0.658	253.15	0.71	0.01
0.723	253.15	0.742	0.01
0.752	253.15	0.755	0.01
0.758	253.15	0.758	0.01
0.843	253.15	0.798	0.01
0.903	253.15	0.832	0.01
0.939	253.15	0.861	0.01
1	253.15	1	
0	263.15	0	
0.305	263.15	0.457	0.011
0.657	263.15	0.714	0.01
0.73	263.15	0.749	0.01
0.753	263.15	0.761	0.01
0.76	263.15	0.765	0.01
0.843	263.15	0.809	0.01
0.897	263.15	0.843	0.01
0.941	263.15	0.875	0.01
1	263.15	1	
0	273.15	0	
0.303	273.15	0.444	0.011
0.657	273.15	0.715	0.01
0.725	273.15	0.753	0.01
0.752	273.15	0.766	0.01
0.762	273.15	0.772	0.01
0.852	273.15	0.815	0.01
0.903	273.15	0.854	0.01
0.942	273.15	0.886	0.01
1	273.15	1	
0	283.15	0	
0.296	283.15	0.434	0.011
0.654	283.15	0.716	0.01
0.734	283.15	0.756	0.01
0.757	283.15	0.772	0.01
0.761	283.15	0.777	0.01
0.849	283.15	0.825	0.01
0.909	283.15	0.862	0.01
0.945	283.15	0.895	0.01
1	283.15	1	
