Measured thermophysical data. Volumetric and acoustical properties of aqueous mixtures of N-methyl-2-hydroxyethylammonium butyrate and N-methyl-2-hydroxyethylammonium pentanoate at T = (298.15 to 333.15) K
Source: J. Chem. Thermodyn., 2016, 10.1016/j.jct.2016.01.028
Compound 1: 2-hydroxy-N-methylethanaminium pentanoate, C8H19NO3, InChI=1S/C5H10O2.C3H9NO/c1-2-3-4-5(6)7;1-4-2-3-5/h2-4H2,1H3,(H,6,7);4-5H,2-3H2,1H3, purity 99%
Compound 2: N-methyl-2-hydroxyethylammonium butanoate, C7H17NO3, InChI=1S/C4H8O2.C3H9NO/c1-2-3-4(5)6;1-4-2-3-5/h2-3H2,1H3,(H,5,6);4-5H,2-3H2,1H3, purity 99%
Compound 3: water, H2O, InChI=1S/H2O/h1H2, purity 99.8%

System: 2-hydroxy-N-methylethanaminium pentanoate; phases: Liquid
Fixed: Pressure, kPa = 102
Fixed: Frequency, MHz = 5
Property: Speed of sound, m/s (Liquid); method: Single path-length method
Temperature, K	Speed of sound, m/s	uncertainty
293.15	1537	2.6
298.15	1516.3	2.6
303.15	1503.7	2.6
308.15	1486.5	2.6
313.15	1471	2.6
318.15	1457	2.6
323.15	1440	2.6
328.15	1424.6	2.6
333.15	1412.8	2.6
338.15	1397.1	2.6
343.15	1381.9	2.6

System: N-methyl-2-hydroxyethylammonium butanoate; phases: Liquid
Fixed: Pressure, kPa = 102
Fixed: Frequency, MHz = 5
Property: Speed of sound, m/s (Liquid); method: Single path-length method
Temperature, K	Speed of sound, m/s	uncertainty
293.15	1576.8	2.6
298.15	1562.9	2.6
303.15	1548	2.6
308.15	1529.7	2.6
313.15	1511.9	2.6
318.15	1499.4	2.6
323.15	1481.3	2.6
328.15	1467.2	2.6
333.15	1451.2	2.6
338.15	1436.7	2.6
343.15	1419.4	2.6

System: water + N-methyl-2-hydroxyethylammonium butanoate; phases: Liquid
Fixed: Pressure, kPa = 102
Property: Mass density, kg/m3 (Liquid); method: Vibrating tube method
Temperature, K	Mole fraction of N-methyl-2-hydroxyethylammonium butanoate	Mass density, kg/m3	uncertainty
298.15	0.0199	1016.9	4
298.15	0.0497	1035	4
298.15	0.1005	1040.8	4
298.15	0.196	1050.5	4
298.15	0.3008	1052.5	4
298.15	0.4005	1049.1	4
298.15	0.509	1046.8	4
298.15	0.5968	1045	4
298.15	0.8069	1041.3	4
298.15	1	1035.3	4
303.15	0.0199	1013.1	4
303.15	0.0497	1032.4	4
303.15	0.1005	1037.9	4
303.15	0.196	1047.4	4
303.15	0.3008	1049.4	4
303.15	0.4005	1046	4
303.15	0.509	1043.6	4
303.15	0.5968	1041.7	4
303.15	0.8069	1038	4
303.15	1	1031.9	4
308.15	0.0199	1009.2	4
308.15	0.0497	1029.8	4
308.15	0.1005	1035	4
308.15	0.196	1044.4	4
308.15	0.3008	1046.3	4
308.15	0.4005	1042.8	4
308.15	0.509	1040.4	4
308.15	0.5968	1038.5	4
308.15	0.8069	1034.7	4
308.15	1	1028.6	4
313.15	0.0199	1005.3	4
313.15	0.0497	1027.2	4
313.15	0.1005	1032	4
313.15	0.196	1041.3	4
313.15	0.3008	1043.2	4
313.15	0.4005	1039.6	4
313.15	0.509	1037.2	4
313.15	0.5968	1035.3	4
313.15	0.8069	1031.4	4
313.15	1	1025.2	4
318.15	0.0199	1001.5	4
318.15	0.0497	1024.6	4
318.15	0.1005	1029.1	4
318.15	0.196	1038.3	4
318.15	0.3008	1040.1	4
318.15	0.4005	1036.4	4
318.15	0.509	1034	4
318.15	0.5968	1032.1	4
318.15	0.8069	1028.1	4
318.15	1	1021.9	4
323.15	0.0199	997.6	4
323.15	0.0497	1022	4
323.15	0.1005	1026.2	4
323.15	0.196	1035.2	4
323.15	0.3008	1036.9	4
323.15	0.4005	1033.3	4
323.15	0.509	1030.9	4
323.15	0.5968	1028.9	4
323.15	0.8069	1024.9	4
323.15	1	1018.5	4
328.15	0.0199	993.7	4
328.15	0.0497	1019.4	4
328.15	0.1005	1023.2	4
328.15	0.196	1032.2	4
328.15	0.3008	1033.8	4
328.15	0.4005	1030.1	4
328.15	0.509	1027.7	4
328.15	0.5968	1025.6	4
328.15	0.8069	1021.6	4
328.15	1	1015.2	4
333.15	0.0199	989.9	4
333.15	0.0497	1016.8	4
333.15	0.1005	1020.3	4
333.15	0.196	1029.1	4
333.15	0.3008	1030.7	4
333.15	0.4005	1026.9	4
333.15	0.509	1024.5	4
333.15	0.5968	1022.4	4
333.15	0.8069	1018.3	4
333.15	1	1011.9	4

System: water + N-methyl-2-hydroxyethylammonium butanoate; phases: Liquid
Fixed: Pressure, kPa = 102
Fixed: Frequency, MHz = 5
Property: Speed of sound, m/s (Liquid); method: Single path-length method
Temperature, K	Mole fraction of N-methyl-2-hydroxyethylammonium butanoate	Speed of sound, m/s	uncertainty
298.15	0.0199	1645.6	14
298.15	0.0497	1762.6	14
298.15	0.1005	1773.4	14
298.15	0.196	1739.5	14
298.15	0.3008	1732	14
298.15	0.4005	1693.9	14
298.15	0.509	1674.1	14
298.15	0.5968	1659.6	14
298.15	0.8069	1630.4	14
298.15	1	1562.9	14
303.15	0.0199	1646.1	14
303.15	0.0497	1755.1	14
303.15	0.1005	1763.6	14
303.15	0.196	1725.4	14
303.15	0.3008	1717	14
303.15	0.4005	1678.1	14
303.15	0.509	1658.3	14
303.15	0.5968	1643.9	14
303.15	0.8069	1614.5	14
303.15	1	1548	14
308.15	0.0199	1646.7	14
308.15	0.0497	1747.6	14
308.15	0.1005	1753.8	14
308.15	0.196	1711.3	14
308.15	0.3008	1701.9	14
308.15	0.4005	1662.3	14
308.15	0.509	1642.4	14
308.15	0.5968	1628.1	14
308.15	0.8069	1598.6	14
308.15	1	1529.7	14
313.15	0.0199	1647.3	14
313.15	0.0497	1740	14
313.15	0.1005	1744	14
313.15	0.196	1697.2	14
313.15	0.3008	1686.8	14
313.15	0.4005	1646.5	14
313.15	0.509	1626.6	14
313.15	0.5968	1612.4	14
313.15	0.8069	1582.7	14
313.15	1	1511.9	14
318.15	0.0199	1647.8	14
318.15	0.0497	1732.5	14
318.15	0.1005	1734.2	14
318.15	0.196	1683.1	14
318.15	0.3008	1671.7	14
318.15	0.4005	1630.6	14
318.15	0.509	1610.7	14
318.15	0.5968	1596.6	14
318.15	0.8069	1566.8	14
318.15	1	1499.4	14
323.15	0.0199	1648.4	14
323.15	0.0497	1725	14
323.15	0.1005	1724.5	14
323.15	0.196	1669	14
323.15	0.3008	1656.6	14
323.15	0.4005	1614.8	14
323.15	0.509	1594.8	14
323.15	0.5968	1580.8	14
323.15	0.8069	1550.9	14
323.15	1	1481.3	14
328.15	0.0199	1648.9	14
328.15	0.0497	1717.5	14
328.15	0.1005	1714.7	14
328.15	0.196	1654.9	14
328.15	0.3008	1641.6	14
328.15	0.4005	1599	14
328.15	0.509	1579	14
328.15	0.5968	1565.1	14
328.15	0.8069	1535	14
328.15	1	1467.2	14
333.15	0.0199	1649.5	14
333.15	0.0497	1709.9	14
333.15	0.1005	1704.9	14
333.15	0.196	1640.8	14
333.15	0.3008	1626.5	14
333.15	0.4005	1583.1	14
333.15	0.509	1563.1	14
333.15	0.5968	1549.3	14
333.15	0.8069	1519.1	14
333.15	1	1451.2	14

System: water + 2-hydroxy-N-methylethanaminium pentanoate; phases: Liquid
Fixed: Pressure, kPa = 102
Property: Mass density, kg/m3 (Liquid); method: Vibrating tube method
Temperature, K	Mole fraction of 2-hydroxy-N-methylethanaminium pentanoate	Mass density, kg/m3	uncertainty
298.15	0.0199	1013	4
298.15	0.05	1026	4
298.15	0.0988	1027.5	4
298.15	0.2023	1029.9	4
298.15	0.3	1028.5	4
298.15	0.4053	1025.2	4
298.15	0.5003	1021	4
298.15	0.5993	1019.1	4
298.15	0.8061	1013.3	4
298.15	1	1009.3	4
303.15	0.0199	1009.6	4
303.15	0.05	1022.7	4
303.15	0.0988	1024.2	4
303.15	0.2023	1026.8	4
303.15	0.3	1025.4	4
303.15	0.4053	1022.1	4
303.15	0.5003	1017.8	4
303.15	0.5993	1015.9	4
303.15	0.8061	1010.1	4
303.15	1	1006	4
308.15	0.0199	1006.1	4
308.15	0.05	1019.3	4
308.15	0.0988	1020.9	4
308.15	0.2023	1023.7	4
308.15	0.3	1022.3	4
308.15	0.4053	1018.9	4
308.15	0.5003	1014.6	4
308.15	0.5993	1012.7	4
308.15	0.8061	1006.9	4
308.15	1	1002.8	4
313.15	0.0199	1002.7	4
313.15	0.05	1015.9	4
313.15	0.0988	1017.7	4
313.15	0.2023	1020.7	4
313.15	0.3	1019.2	4
313.15	0.4053	1015.8	4
313.15	0.5003	1011.5	4
313.15	0.5993	1009.5	4
313.15	0.8061	1003.6	4
313.15	1	999.6	4
318.15	0.0199	999.3	4
318.15	0.05	1012.6	4
318.15	0.0988	1014.4	4
318.15	0.2023	1017.6	4
318.15	0.3	1016.1	4
318.15	0.4053	1012.7	4
318.15	0.5003	1008.3	4
318.15	0.5993	1006.3	4
318.15	0.8061	1000.4	4
318.15	1	996.3	4
323.15	0.0199	995.8	4
323.15	0.05	1009.2	4
323.15	0.0988	1011.1	4
323.15	0.2023	1014.6	4
323.15	0.3	1012.9	4
323.15	0.4053	1009.5	4
323.15	0.5003	1005.1	4
323.15	0.5993	1003.1	4
323.15	0.8061	997.2	4
323.15	1	993.1	4
328.15	0.0199	992.4	4
328.15	0.05	1005.9	4
328.15	0.0988	1007.8	4
328.15	0.2023	1011.5	4
328.15	0.3	1009.8	4
328.15	0.4053	1006.4	4
328.15	0.5003	1002	4
328.15	0.5993	999.9	4
328.15	0.8061	993.9	4
328.15	1	989.9	4
333.15	0.0199	988.9	4
333.15	0.05	1002.5	4
333.15	0.0988	1004.5	4
333.15	0.2023	1008.5	4
333.15	0.3	1006.7	4
333.15	0.4053	1003.2	4
333.15	0.5003	998.8	4
333.15	0.5993	996.7	4
333.15	0.8061	990.7	4
333.15	1	986.7	4

System: water + 2-hydroxy-N-methylethanaminium pentanoate; phases: Liquid
Fixed: Pressure, kPa = 102
Fixed: Frequency, MHz = 5
Property: Speed of sound, m/s (Liquid); method: Single path-length method
Temperature, K	Mole fraction of 2-hydroxy-N-methylethanaminium pentanoate	Speed of sound, m/s	uncertainty
298.15	0.0199	1645.3	14
298.15	0.05	1705.8	14
298.15	0.0988	1670.2	14
298.15	0.2023	1644.9	14
298.15	0.3	1633.5	14
298.15	0.4053	1609.2	14
298.15	0.5003	1583.7	14
298.15	0.5993	1571.3	14
298.15	0.8061	1541.8	14
298.15	1	1516.3	14
303.15	0.0199	1644.5	14
303.15	0.05	1698.6	14
303.15	0.0988	1659.8	14
303.15	0.2023	1631.5	14
303.15	0.3	1618.8	14
303.15	0.4053	1594.7	14
303.15	0.5003	1568.6	14
303.15	0.5993	1556.3	14
303.15	0.8061	1526.5	14
303.15	1	1503.7	14
308.15	0.0199	1643.7	14
308.15	0.05	1691.5	14
308.15	0.0988	1649.5	14
308.15	0.2023	1618.1	14
308.15	0.3	1604.2	14
308.15	0.4053	1580.2	14
308.15	0.5003	1553.5	14
308.15	0.5993	1541.4	14
308.15	0.8061	1511.2	14
308.15	1	1486.5	14
313.15	0.0199	1642.9	14
313.15	0.05	1684.3	14
313.15	0.0988	1639.1	14
313.15	0.2023	1604.8	14
313.15	0.3	1589.6	14
313.15	0.4053	1565.7	14
313.15	0.5003	1538.4	14
313.15	0.5993	1526.5	14
313.15	0.8061	1495.9	14
313.15	1	1471	14
318.15	0.0199	1642.2	14
318.15	0.05	1677.2	14
318.15	0.0988	1628.8	14
318.15	0.2023	1591.4	14
318.15	0.3	1575	14
318.15	0.4053	1551.2	14
318.15	0.5003	1523.3	14
318.15	0.5993	1511.5	14
318.15	0.8061	1480.6	14
318.15	1	1457	14
323.15	0.0199	1641.4	14
323.15	0.05	1670	14
323.15	0.0988	1618.5	14
323.15	0.2023	1578	14
323.15	0.3	1560.4	14
323.15	0.4053	1536.7	14
323.15	0.5003	1508.2	14
323.15	0.5993	1496.6	14
323.15	0.8061	1465.3	14
323.15	1	1440	14
328.15	0.0199	1640.6	14
328.15	0.05	1662.8	14
328.15	0.0988	1608.1	14
328.15	0.2023	1564.6	14
328.15	0.3	1545.7	14
328.15	0.4053	1522.2	14
328.15	0.5003	1493.1	14
328.15	0.5993	1481.7	14
328.15	0.8061	1450	14
328.15	1	1424.6	14
333.15	0.0199	1639.8	14
333.15	0.05	1655.7	14
333.15	0.0988	1597.8	14
333.15	0.2023	1551.2	14
333.15	0.3	1531.1	14
333.15	0.4053	1507.7	14
333.15	0.5003	1478.1	14
333.15	0.5993	1466.7	14
333.15	0.8061	1434.6	14
333.15	1	1412.8	14
