Measured thermophysical data. Solubility of CO2 in methanol, ethanol, 1,2-propanediol and glycerol from 283.15 K to 373.15 K and up to 6.0 MPa
Source: J. Chem. Thermodyn., 2019, 10.1016/j.jct.2019.05.003
Compound 1: carbon dioxide, CO2, InChI=1S/CO2/c2-1-3
Compound 2: ethanol, C2H6O, InChI=1S/C2H6O/c1-2-3/h3H,2H2,1H3
Compound 3: methanol, CH4O, InChI=1S/CH4O/c1-2/h2H,1H3
Compound 4: 1,2-propanediol, C3H8O2, InChI=1S/C3H8O2/c1-3(5)2-4/h3-5H,2H2,1H3
Compound 5: glycerol, C3H8O3, InChI=1S/C3H8O3/c4-1-3(6)2-5/h3-6H,1-2H2, purity 99%

System: carbon dioxide + ethanol; phases: Liquid, Gas
Property: Mole fraction of carbon dioxide (Liquid); method: Volumetric method
Temperature, K	Pressure, kPa of carbon dioxide	Mole fraction of carbon dioxide	uncertainty
283.15	82	0.0075	0.0004
283.15	567	0.0505	0.0009
283.15	1059	0.101	0.0013
283.15	1551	0.1433	0.0018
283.15	2044	0.1914	0.0026
283.15	2468	0.2369	0.0033
303.15	110	0.007	0.0004
303.15	756	0.0474	0.0009
303.15	1422	0.0953	0.0015
303.15	2109	0.1364	0.002
303.15	2803	0.181	0.0028
303.15	3419	0.2243	0.0036
323.15	135	0.0067	0.0004
323.15	943	0.045	0.0008
323.15	1781	0.0908	0.0015
323.15	2664	0.1302	0.0021
323.15	3565	0.1727	0.003
323.15	4385	0.2141	0.004
343.15	157	0.0065	0.0004
343.15	1113	0.0434	0.001
343.15	2117	0.0878	0.0017
343.15	3187	0.1262	0.0023
343.15	4290	0.1673	0.0031
343.15	5307	0.2075	0.0042
363.15	173	0.0065	0.0004
363.15	1262	0.0426	0.001
363.15	2472	0.084	0.0017
363.15	3664	0.1242	0.0023
363.15	4951	0.1647	0.0033
293.15	96	0.0072	0.0004
293.15	661	0.0489	0.0009
293.15	1239	0.098	0.0015
293.15	1827	0.1402	0.002
293.15	2418	0.186	0.0026
293.15	2936	0.2305	0.0035
313.15	124	0.0068	0.0004
313.15	851	0.0461	0.0009
313.15	1603	0.0929	0.0015
313.15	2389	0.1331	0.0021
313.15	3187	0.1765	0.003
313.15	3905	0.2188	0.0038
333.15	147	0.0066	0.0004
333.15	1029	0.0441	0.0008
333.15	1952	0.0891	0.0017
333.15	2932	0.1279	0.0023
333.15	3937	0.1696	0.0032
333.15	4854	0.2103	0.004
353.15	166	0.0065	0.0004
353.15	1191	0.0429	0.001
353.15	2274	0.0868	0.0017
353.15	3432	0.1249	0.0023
353.15	4629	0.1657	0.0033
353.15	5738	0.2056	0.0044
373.15	178	0.0066	0.0004
373.15	1328	0.0425	0.001
373.15	2612	0.0838	0.0017
373.15	3881	0.1239	0.0025
373.15	5253	0.1645	0.0033

System: carbon dioxide + methanol; phases: Liquid, Gas
Property: Mole fraction of carbon dioxide (Liquid); method: Volumetric method
Temperature, K	Pressure, kPa of carbon dioxide	Mole fraction of carbon dioxide	uncertainty
283.15	79	0.0072	0.0003
283.15	479	0.0439	0.0005
283.15	878	0.0811	0.0008
283.15	1274	0.1203	0.0011
283.15	1673	0.1616	0.0015
283.15	2073	0.2048	0.002
303.15	112	0.0067	0.0002
303.15	671	0.0412	0.0005
303.15	1233	0.0763	0.0009
303.15	1798	0.1135	0.0012
303.15	2376	0.1527	0.0017
303.15	2968	0.1938	0.0023
323.15	142	0.0064	0.0002
323.15	870	0.0389	0.0005
323.15	1600	0.0722	0.0009
323.15	2348	0.1075	0.0014
323.15	3120	0.1447	0.0018
323.15	3923	0.1838	0.0024
343.15	167	0.0062	0.0002
343.15	1064	0.0372	0.0006
343.15	1961	0.069	0.0011
343.15	2890	0.1027	0.0015
343.15	3860	0.1384	0.002
343.15	4871	0.176	0.0028
363.15	189	0.0061	0.0002
363.15	1247	0.036	0.0006
363.15	2298	0.0668	0.0011
363.15	3400	0.0996	0.0015
363.15	4561	0.1343	0.0021
293.15	94	0.007	0.0003
293.15	573	0.0425	0.0005
293.15	1052	0.0786	0.0008
293.15	1530	0.1169	0.0012
293.15	2015	0.1572	0.0017
293.15	2508	0.1993	0.0021
313.15	127	0.0065	0.0002
313.15	770	0.04	0.0005
313.15	1417	0.0741	0.0009
313.15	2072	0.1103	0.0014
313.15	2746	0.1485	0.0018
313.15	3443	0.1886	0.0025
333.15	156	0.0063	0.0002
333.15	969	0.038	0.0006
333.15	1783	0.0705	0.0009
333.15	2622	0.1049	0.0013
333.15	3493	0.1413	0.002
333.15	4405	0.1795	0.0026
353.15	179	0.0061	0.0002
353.15	1158	0.0365	0.0006
353.15	2133	0.0678	0.0011
353.15	3152	0.1009	0.0015
353.15	4216	0.1361	0.0021
353.15	5341	0.173	0.003
373.15	196	0.0061	0.00021
373.15	1331	0.03558	0.00064
373.15	2456	0.06617	0.00107
373.15	3643	0.09855	0.0017
373.15	4895	0.13295	0.00233

System: carbon dioxide + 1,2-propanediol; phases: Liquid, Gas
Property: Mole fraction of carbon dioxide (Liquid); method: Volumetric method
Temperature, K	Pressure, kPa of carbon dioxide	Mole fraction of carbon dioxide	uncertainty
283.15	98	0.0044	0.0006
283.15	490	0.0232	0.001
283.15	881	0.0412	0.0014
283.15	1284	0.0599	0.0018
283.15	1686	0.0794	0.0022
283.15	2086	0.0985	0.0027
283.15	2487	0.118	0.0033
303.15	119	0.0039	0.0006
303.15	594	0.0206	0.001
303.15	1066	0.0368	0.0014
303.15	1558	0.0532	0.0018
303.15	2056	0.0704	0.0024
303.15	2551	0.0872	0.003
303.15	3060	0.1038	0.0035
323.15	138	0.0035	0.0006
323.15	684	0.019	0.001
323.15	1232	0.0338	0.0016
323.15	1802	0.049	0.002
323.15	2387	0.0647	0.0026
323.15	2969	0.0802	0.003
323.15	3574	0.0953	0.0038
343.15	156	0.0033	0.0006
343.15	766	0.018	0.001
343.15	1380	0.0321	0.0016
343.15	2022	0.0466	0.002
343.15	2686	0.0615	0.0026
343.15	3347	0.0763	0.0032
343.15	4041	0.0908	0.0038
363.15	172	0.0031	0.0006
363.15	839	0.0175	0.001
363.15	1513	0.0312	0.0016
363.15	2221	0.0454	0.002
363.15	2957	0.06	0.0026
363.15	3692	0.0746	0.0032
363.15	4466	0.0891	0.004
293.15	108	0.0042	0.0006
293.15	544	0.0217	0.001
293.15	976	0.0388	0.0014
293.15	1426	0.0562	0.0018
293.15	1876	0.0744	0.0024
293.15	2325	0.0922	0.0029
293.15	2781	0.1101	0.0035
313.15	129	0.0037	0.0006
313.15	640	0.0197	0.001
313.15	1152	0.0351	0.0014
313.15	1684	0.0509	0.002
313.15	2226	0.0672	0.0024
313.15	2765	0.0832	0.003
313.15	3324	0.099	0.0036
333.15	148	0.0034	0.0006
333.15	726	0.0185	0.001
333.15	1308	0.0328	0.0016
333.15	1915	0.0476	0.002
333.15	2540	0.0628	0.0026
333.15	3161	0.0779	0.0032
333.15	3813	0.0926	0.0038
353.15	164	0.0032	0.0006
353.15	803	0.0177	0.001
353.15	1448	0.0316	0.0016
353.15	2124	0.0458	0.002
353.15	2825	0.0605	0.0026
353.15	3522	0.0752	0.0032
353.15	4258	0.0897	0.0038
373.15	179	0.0031	0.0006
373.15	873	0.0174	0.001
373.15	1575	0.0311	0.0016
373.15	2313	0.0452	0.002
373.15	3084	0.0598	0.0026
373.15	3853	0.0744	0.0032
373.15	4667	0.089	0.004

System: carbon dioxide + glycerol; phases: Liquid, Gas
Property: Mole fraction of carbon dioxide (Liquid); method: Volumetric method
Temperature, K	Pressure, kPa of carbon dioxide	Mole fraction of carbon dioxide	uncertainty
323.15	180	0.0018	0.0004
323.15	931	0.0089	0.001
323.15	1936	0.0179	0.0018
343.15	197	0.0017	0.0004
343.15	1016	0.0085	0.001
343.15	2115	0.0173	0.0018
363.15	212	0.0017	0.0004
363.15	1095	0.0085	0.001
363.15	2284	0.0173	0.0018
333.15	189	0.0018	0.0004
333.15	976	0.0086	0.001
333.15	2027	0.0175	0.0018
353.15	205	0.0017	0.0004
353.15	1056	0.0084	0.001
353.15	2201	0.0172	0.0018
373.15	219	0.0017	0.0004
373.15	1132	0.0083	0.001
373.15	2365	0.0173	0.0018
