Measured thermophysical data. Benchmark thermodynamic properties of 1,3-propanediol: Comprehensive experimental and theoretical study
Source: J. Chem. Thermodyn., 2015, 10.1016/j.jct.2015.01.014
Compound 1: carbon dioxide, CO2, InChI=1S/CO2/c2-1-3
Compound 2: water, H2O, InChI=1S/H2O/h1H2
Compound 3: oxygen, O2, InChI=1S/O2/c1-2
Compound 4: propan-1,3-diol, C3H8O2, InChI=1S/C3H8O2/c4-2-1-3-5/h4-5H,1-3H2, purity 99%

System: propan-1,3-diol; phases: Liquid, Gas
Property: Vapor or sublimation pressure, kPa (Liquid); method: Transpiration method
Temperature, K	Vapor or sublimation pressure, kPa	uncertainty
292.5	0.00167	0.00012
296.4	0.00239	0.00015
300.4	0.00346	0.00023
306.3	0.00584	0.00041
338.7	0.08145	0.00522
344.3	0.1208	0.0077
346.4	0.139	0.0087

Reaction: -1 propan-1,3-diol + 3 carbon dioxide + 4 water + -4 oxygen
Property: Specific internal energy of reaction at constant volume, J/g
-24171.9
