Measured thermophysical data. Thermophysical study of methyl levulinate
Source: J. Chem. Thermodyn., 2013, 10.1016/j.jct.2013.05.025
Compound 1: methyl levulinate, C6H10O3, InChI=1S/C6H10O3/c1-5(7)3-4-6(8)9-2/h3-4H2,1-2H3, purity 98%

System: methyl levulinate; phases: Liquid
Property: Mass density, kg/m3 (Liquid); method: Vibrating tube method
Temperature, K	Pressure, kPa	Mass density, kg/m3	uncertainty
278.15	101	1065.229	0.972
280.65	101	1062.751	0.967
283.15	101	1060.272	0.961
285.65	101	1057.79	0.956
288.15	101	1055.311	0.951
290.65	101	1052.833	0.946
293.15	101	1050.353	0.941
295.65	101	1047.876	0.936
298.15	101	1045.396	0.93
300.65	101	1042.916	0.925
303.15	101	1040.435	0.92
305.65	101	1037.953	0.915
308.15	101	1035.47	0.91
310.65	101	1032.987	0.905
313.15	101	1030.502	0.9
315.65	101	1028.015	0.895
318.15	101	1025.528	0.889
320.65	101	1023.039	0.884
323.15	101	1020.547	0.879
325.65	101	1018.054	0.874
328.15	101	1015.557	0.869
330.65	101	1013.06	0.864
333.15	101	1010.561	0.859
335.65	101	1008.058	0.854
338.15	101	1005.552	0.849
283.15	100	1060.29	0.96
288.15	100	1055.31	0.95
293.15	100	1050.3	0.94
298.15	100	1045.38	0.93
303.15	100	1040.44	0.92
308.15	100	1035.54	0.91
313.15	100	1030.55	0.9
318.15	100	1025.58	0.89
323.15	100	1020.49	0.88
328.15	100	1015.61	0.87
333.15	100	1010.56	0.86
338.15	100	1005.52	0.85
283.15	2500	1062.16	0.97
288.15	2500	1057.25	0.96
293.15	2500	1052.33	0.95
298.15	2500	1047.36	0.94
303.15	2500	1042.52	0.93
308.15	2500	1037.62	0.92
313.15	2500	1032.72	0.91
318.15	2500	1027.81	0.9
323.15	2500	1022.88	0.89
328.15	2500	1017.91	0.88
333.15	2500	1012.95	0.87
338.15	2500	1007.98	0.85
283.15	5000	1063.68	0.98
288.15	5000	1058.78	0.97
293.15	5000	1053.92	0.96
298.15	5000	1049.14	0.95
303.15	5000	1044.34	0.94
308.15	5000	1039.43	0.93
313.15	5000	1034.49	0.91
318.15	5000	1029.63	0.9
323.15	5000	1024.69	0.89
328.15	5000	1019.85	0.88
333.15	5000	1014.89	0.87
338.15	5000	1009.95	0.86
283.15	7500	1065.19	0.99
288.15	7500	1060.35	0.98
293.15	7500	1055.56	0.97
298.15	7500	1050.79	0.96
303.15	7500	1045.93	0.94
308.15	7500	1041.06	0.93
313.15	7500	1036.23	0.92
318.15	7500	1031.41	0.91
323.15	7500	1026.57	0.9
328.15	7500	1021.73	0.89
333.15	7500	1016.89	0.88
338.15	7500	1012.01	0.87
283.15	10000	1066.72	1
288.15	10000	1061.84	0.99
293.15	10000	1057.05	0.98
298.15	10000	1052.35	0.96
303.15	10000	1047.54	0.95
308.15	10000	1042.78	0.94
313.15	10000	1037.95	0.93
318.15	10000	1033.21	0.92
323.15	10000	1028.34	0.91
328.15	10000	1023.55	0.89
333.15	10000	1018.69	0.88
338.15	10000	1013.94	0.87
283.15	20000	1072.35	1.04
288.15	20000	1067.71	1.03
293.15	20000	1063.03	1.02
298.15	20000	1058.57	1
303.15	20000	1053.84	0.99
308.15	20000	1049.29	0.98
313.15	20000	1044.5	0.96
318.15	20000	1039.93	0.95
323.15	20000	1035.2	0.94
328.15	20000	1030.73	0.92
333.15	20000	1025.95	0.91
338.15	20000	1021.4	0.9
283.15	30000	1077.77	1.09
288.15	30000	1073.2	1.07
293.15	30000	1068.66	1.06
298.15	30000	1064.4	1.04
303.15	30000	1059.68	1.03
308.15	30000	1055.2	1.01
313.15	30000	1050.69	1
318.15	30000	1046.25	0.99
323.15	30000	1041.67	0.97
328.15	30000	1037.3	0.96
333.15	30000	1032.71	0.94
338.15	30000	1028.29	0.93
283.15	40000	1082.9	1.14
288.15	40000	1078.45	1.12
293.15	40000	1073.99	1.1
298.15	40000	1069.98	1.09
303.15	40000	1065.23	1.07
308.15	40000	1060.99	1.06
313.15	40000	1056.5	1.04
318.15	40000	1052.2	1.03
323.15	40000	1047.68	1.01
328.15	40000	1043.5	0.99
333.15	40000	1039.01	0.98
338.15	40000	1034.77	0.96
283.15	50000	1087.68	1.19
288.15	50000	1083.39	1.17
293.15	50000	1079.05	1.15
298.15	50000	1075.16	1.14
303.15	50000	1070.58	1.12
308.15	50000	1066.36	1.1
313.15	50000	1061.97	1.08
318.15	50000	1057.79	1.07
323.15	50000	1053.46	1.05
328.15	50000	1049.36	1.03
333.15	50000	1044.91	1.02
338.15	50000	1040.88	1
283.15	60000	1092.28	1.24
288.15	60000	1088.19	1.23
293.15	60000	1083.84	1.21
298.15	60000	1079.87	1.19
303.15	60000	1075.6	1.17
308.15	60000	1071.57	1.15
313.15	60000	1067.19	1.13
318.15	60000	1063.14	1.11
323.15	60000	1058.87	1.1
328.15	60000	1054.88	1.08
333.15	60000	1050.58	1.06
338.15	60000	1046.63	1.04

System: methyl levulinate; phases: Liquid
Fixed: Pressure, kPa = 101.325
Property: Speed of sound, m/s (Liquid); method: Sing-around technique in a fixed-path interferometer
Temperature, K	Speed of sound, m/s	uncertainty
278.15	1463.92	2.33
280.65	1454.55	2.33
283.15	1444.81	2.33
285.65	1434.88	2.33
288.15	1424.98	2.33
290.65	1415.15	2.33
293.15	1405.4	2.33
295.65	1395.77	2.33
298.15	1386.22	2.32
300.65	1376.75	2.32
303.15	1367.34	2.32
305.65	1357.95	2.32
308.15	1348.59	2.32
310.65	1339.25	2.32
313.15	1329.97	2.32
315.65	1320.77	2.32
318.15	1311.59	2.32
320.65	1302.45	2.32
323.15	1293.32	2.32
325.65	1284.22	2.32
328.15	1275.16	2.31
330.65	1266.13	2.31
333.15	1257.13	2.31
335.65	1248.15	2.31
338.15	1239.21	2.31

System: methyl levulinate; phases: Liquid
Fixed: Pressure, kPa = 101.325
Property: Refractive index (Na D-line) (Liquid); method: Standard Abbe refractometry
Temperature, K	Refractive index (Na D-line)	uncertainty
283.15	1.42686	0.000506
285.65	1.425844	0.000506
288.15	1.424812	0.000506
290.65	1.423794	0.000506
293.15	1.422754	0.000506
295.65	1.421723	0.000506
298.15	1.420688	0.000506
300.65	1.419656	0.000506
303.15	1.418614	0.000506
305.65	1.417578	0.000506
308.15	1.416553	0.000506
310.65	1.415494	0.000506
313.15	1.41446	0.000506
315.65	1.413419	0.000506
318.15	1.412376	0.000506
320.65	1.411344	0.000506
323.15	1.410301	0.000506
325.65	1.40924	0.000506
328.15	1.408188	0.000506
330.65	1.407141	0.000506
333.15	1.406112	0.000506
335.65	1.405071	0.000506
338.15	1.404004	0.000506

System: methyl levulinate; phases: Liquid, Air at 1 atmosphere
Property: Surface tension liquid-gas, N/m (Liquid); method: Drop volume
Temperature, K	Surface tension liquid-gas, N/m	uncertainty
278.15	0.03759	0.00108
280.65	0.03735	0.00108
283.15	0.03703	0.00108
285.65	0.03676	0.00108
288.15	0.03649	0.00108
290.65	0.03623	0.00108
293.15	0.036	0.00107
295.65	0.03574	0.00107
298.15	0.03533	0.00107
300.65	0.03506	0.00107
303.15	0.0348	0.00107
305.65	0.03449	0.00107
308.15	0.0342	0.00107
310.65	0.03398	0.00107
313.15	0.03369	0.00107
315.65	0.0334	0.00107
318.15	0.0331	0.00106
320.65	0.03285	0.00106
323.15	0.0326	0.00106
325.65	0.03233	0.00106
328.15	0.032	0.00106
330.65	0.03177	0.00106
333.15	0.03148	0.00106
335.65	0.03118	0.00106
338.15	0.0309	0.00106

System: methyl levulinate; phases: Liquid
Fixed: Pressure, kPa = 101.325
Property: Viscosity, Pa*s (Liquid); method: Capillary tube (Ostwald; Ubbelohde) method
Temperature, K	Viscosity, Pa*s	uncertainty
278.15	0.0030633	7.03e-05
280.65	0.0028618	6.57e-05
283.15	0.0026756	6.14e-05
285.65	0.0025132	5.77e-05
288.15	0.0023627	5.42e-05
290.65	0.0022375	5.14e-05
293.15	0.0021109	4.85e-05
295.65	0.0020076	4.61e-05
298.15	0.0019159	4.4e-05
300.65	0.0018145	4.17e-05
303.15	0.0017287	3.97e-05
305.65	0.001643	3.78e-05
308.15	0.0015704	3.61e-05
310.65	0.0014987	3.45e-05
313.15	0.0014359	3.3e-05
315.65	0.0013759	3.17e-05
318.15	0.0013158	3.03e-05
320.65	0.0012641	2.91e-05
323.15	0.0012143	2.8e-05
325.65	0.0011692	2.69e-05
328.15	0.0011372	2.62e-05
330.65	0.0010903	2.51e-05
333.15	0.0010547	2.43e-05
335.65	0.0010207	2.35e-05
338.15	0.000988	2.28e-05

System: methyl levulinate; phases: Liquid, Gas
Property: Vapor or sublimation pressure, kPa (Liquid); method: Ebulliometric method (Recirculating still)
Temperature, K	Vapor or sublimation pressure, kPa	uncertainty
333.15	0.446	0.012
338.15	0.627	0.012
343.15	0.826	0.012
348.15	1.078	0.013
353.15	1.423	0.013
358.15	1.85	0.013
363.15	2.38	0.013
368.15	3.033	0.014
373.15	3.831	0.015
378.15	4.798	0.016
383.15	5.96	0.018
388.15	7.348	0.02
393.15	8.993	0.023
398.15	10.931	0.027
403.15	13.2	0.031
408.15	15.842	0.036
413.15	18.9	0.042
418.15	22.421	0.049
423.15	26.457	0.057
428.15	31.059	0.067
433.15	36.284	0.077
438.15	42.191	0.089
443.15	48.842	0.103
448.15	56.3	0.118
453.15	64.632	0.134

System: methyl levulinate; phases: Liquid
Fixed: Pressure, kPa = 101
Fixed: Frequency, MHz = 2
Property: Relative permittivity at various frequencies (Liquid); method: Parallel plate capacitor
Temperature, K	Relative permittivity at various frequencies	uncertainty
278.15	16.027	0.16
280.65	15.867	0.159
283.15	15.701	0.157
285.65	15.561	0.156
288.15	15.416	0.154
290.65	15.261	0.153
293.15	15.131	0.151
295.65	15.012	0.15
298.15	14.843	0.148
300.65	14.691	0.147
303.15	14.567	0.146
305.65	14.4	0.144
308.15	14.246	0.142
310.65	14.073	0.141
313.15	13.954	0.14
315.65	13.784	0.138
318.15	13.614	0.136
320.65	13.475	0.135
323.15	13.359	0.134
325.65	13.181	0.132
328.15	13.06	0.131
330.65	12.935	0.129
333.15	12.783	0.128
335.65	12.67	0.127
338.15	12.515	0.125
