Measured thermophysical data. Phase composition and saturated liquid properties in binary and ternary systems containing carbon dioxide, n-decane, and n-tetradecane
Source: J. Chem. Thermodyn., 2013, 10.1016/j.jct.2012.08.019
Compound 1: carbon dioxide, CO2, InChI=1S/CO2/c2-1-3, purity 99.998%
Compound 2: decane, C10H22, InChI=1S/C10H22/c1-3-5-7-9-10-8-6-4-2/h3-10H2,1-2H3, purity 99%
Compound 3: tetradecane, C14H30, InChI=1S/C14H30/c1-3-5-7-9-11-13-14-12-10-8-6-4-2/h3-14H2,1-2H3, purity 99%

System: decane; phases: Liquid
Fixed: Temperature, K = 323.2
Property: Mass density, kg/m3 (Liquid); method: Vibrating tube method
Pressure, kPa	Mass density, kg/m3	uncertainty
100	707	0.3
1000	707.9	0.4
2000	708.8	0.4
3000	709.7	0.4
4000	710.6	0.4
5000	711.5	0.4
6000	712.4	0.4
7000	713.3	0.4
8000	714.1	0.4
9000	715	0.4
10000	715.9	0.4

System: tetradecane; phases: Liquid
Fixed: Temperature, K = 323.2
Property: Mass density, kg/m3 (Liquid); method: Vibrating tube method
Pressure, kPa	Mass density, kg/m3	uncertainty
100	741.3	0.4
1000	742.1	0.4
2000	742.9	0.4
3000	743.7	0.4
4000	744.4	0.4
5000	745.2	0.4
6000	746	0.4
7000	746.7	0.4
8000	747.5	0.4
9000	748.2	0.4
10000	749	0.4

System: decane + tetradecane; phases: Liquid
Fixed: Temperature, K = 323.2
Property: Mass density, kg/m3 (Liquid); method: Vibrating tube method
Pressure, kPa	Mole fraction of decane	Mass density, kg/m3	uncertainty
100	0	741.3	0.4
1000	0	742.1	0.4
2000	0	742.9	0.4
3000	0	743.7	0.4
4000	0	744.4	0.4
5000	0	745.2	0.4
6000	0	746	0.4
7000	0	746.7	0.4
8000	0	747.5	0.4
9000	0	748.2	0.4
10000	0	749	0.4
100	0.25	734.3	0.4
1000	0.25	735.1	0.4
2000	0.25	735.9	0.4
3000	0.25	736.7	0.4
4000	0.25	737.5	0.4
5000	0.25	738.3	0.4
6000	0.25	739.1	0.4
7000	0.25	739.9	0.4
8000	0.25	740.7	0.4
9000	0.25	741.5	0.4
10000	0.25	742.2	0.4
100	0.5	726.5	0.4
1000	0.5	727.4	0.4
2000	0.5	728.2	0.4
3000	0.5	729.1	0.4
4000	0.5	729.8	0.4
5000	0.5	730.7	0.4
6000	0.5	731.5	0.4
7000	0.5	732.4	0.4
8000	0.5	733.2	0.4
9000	0.5	734	0.4
10000	0.5	734.8	0.4
100	0.75	717.2	0.4
1000	0.75	718.1	0.4
2000	0.75	719	0.4
3000	0.75	719.8	0.4
4000	0.75	720.7	0.4
5000	0.75	721.6	0.4
6000	0.75	722.5	0.4
7000	0.75	723.2	0.4
8000	0.75	724	0.4
9000	0.75	724.9	0.4
10000	0.75	725.8	0.4
100	1	707	0.3
1000	1	707.9	0.4
2000	1	708.8	0.4
3000	1	709.7	0.4
4000	1	710.6	0.4
5000	1	711.5	0.4
6000	1	712.4	0.4
7000	1	713.3	0.4
8000	1	714.1	0.4
9000	1	715	0.4
10000	1	715.9	0.4

System: decane + carbon dioxide; phases: Liquid
Fixed: Temperature, K = 323.3
Property: Mass density, kg/m3 (Liquid); method: Vibrating tube method
Pressure, kPa	Mole fraction of carbon dioxide	Mass density, kg/m3	uncertainty
1020	0.094	711	2
2080	0.19	716	2
2970	0.263	720	2
3940	0.353	724	2
4910	0.429	729	2
5960	0.513	735	2

System: decane + carbon dioxide; phases: Liquid
Fixed: Temperature, K = 323.2
Property: Viscosity, Pa*s (Liquid); method: Moving piston method
Pressure, kPa	Mole fraction of carbon dioxide	Viscosity, Pa*s	uncertainty
1020	0.094	0.00056	0.0001
2080	0.19	0.00046	0.0001
2970	0.263	0.00042	0.0001
3940	0.353	0.00038	0.0001
4910	0.429	0.00033	0.0001
5960	0.513	0.00028	0.0001

System: decane + carbon dioxide; phases: Liquid, Gas
Fixed: Temperature, K = 323.2
Property: Mole fraction of carbon dioxide (Liquid); method: Density calibration data
Pressure, kPa	Mole fraction of carbon dioxide	uncertainty
1020	0.094	0.003
2080	0.19	0.003
2970	0.263	0.003
3940	0.353	0.003
4910	0.429	0.003
5960	0.513	0.003

System: carbon dioxide + tetradecane; phases: Liquid
Fixed: Temperature, K = 323.3
Property: Mass density, kg/m3 (Liquid); method: Vibrating tube method
Pressure, kPa	Mole fraction of carbon dioxide	Mass density, kg/m3	uncertainty
980	0.097	744	2
2060	0.196	748	2
3000	0.279	751	2
4030	0.358	755	2
4960	0.429	758	2
6000	0.496	762	2

System: carbon dioxide + tetradecane; phases: Liquid
Fixed: Temperature, K = 323.2
Property: Viscosity, Pa*s (Liquid); method: Moving piston method
Pressure, kPa	Mole fraction of carbon dioxide	Viscosity, Pa*s	uncertainty
980	0.097	0.00118	0.0001
2060	0.196	0.00108	0.0001
3000	0.279	0.00096	0.0001
4030	0.358	0.00079	0.0001
4960	0.429	0.00067	0.0001
6000	0.496	0.00056	0.0001

System: carbon dioxide + tetradecane; phases: Liquid, Gas
Fixed: Temperature, K = 323.2
Property: Mole fraction of carbon dioxide (Liquid); method: Density calibration data
Pressure, kPa	Mole fraction of carbon dioxide	uncertainty
980	0.097	0.003
2060	0.196	0.003
3000	0.279	0.003
4030	0.358	0.003
4960	0.429	0.003
6000	0.496	0.003

System: decane + carbon dioxide + tetradecane; phases: Liquid, Gas
Fixed: Temperature, K = 323.2
Property: Mole fraction of carbon dioxide (Liquid); method: Density calibration data
Pressure, kPa	Solvent: Mole fraction of decane	Mole fraction of carbon dioxide	uncertainty
970	0.684	0.089	0.004
2010	0.609	0.188	0.004
3000	0.547	0.271	0.004
3970	0.488	0.349	0.004
4990	0.425	0.434	0.004
6010	0.363	0.515	0.005
990	0.454	0.093	0.004
1970	0.409	0.181	0.004
2980	0.367	0.266	0.004
4030	0.324	0.351	0.004
5040	0.281	0.438	0.004
6030	0.245	0.509	0.004
1000	0.225	0.098	0.004
2020	0.202	0.19	0.004
3010	0.181	0.275	0.004
4000	0.164	0.345	0.004
5010	0.142	0.432	0.004
6020	0.123	0.506	0.004

System: decane + carbon dioxide + tetradecane; phases: Liquid
Fixed: Temperature, K = 323.2
Property: Mass density, kg/m3 (Liquid); method: Vibrating tube method
Pressure, kPa	Mole fraction of carbon dioxide	Mole fraction of decane	Mass density, kg/m3	uncertainty
970	0.089	0.684	721	19
2010	0.188	0.609	725	2
3000	0.271	0.547	729	3
3970	0.349	0.488	734	3
4990	0.434	0.425	738	2
6010	0.515	0.363	743	5
990	0.093	0.454	730	3
1970	0.181	0.409	733	2
2980	0.266	0.367	737	2
4030	0.351	0.324	741	2
5040	0.438	0.281	746	2
6030	0.509	0.245	751	3
1000	0.098	0.225	738	9
2020	0.19	0.202	741	2
3010	0.275	0.181	744	2
4000	0.345	0.164	748	2
5010	0.432	0.142	753	2
6020	0.506	0.123	756	10

System: decane + carbon dioxide + tetradecane; phases: Liquid
Fixed: Temperature, K = 323.2
Property: Viscosity, Pa*s (Liquid); method: Moving piston method
Pressure, kPa	Mole fraction of carbon dioxide	Mole fraction of decane	Viscosity, Pa*s	uncertainty
970	0.089	0.684	0.00064	0.00036
2010	0.188	0.609	0.00057	0.0001
3000	0.271	0.547	0.00054	0.0001
3970	0.349	0.488	0.00049	0.00013
4990	0.434	0.425	0.00038	0.00013
6010	0.515	0.363	0.00034	0.00011
990	0.093	0.454	0.0008	0.00011
1970	0.181	0.409	0.00073	0.0001
2980	0.266	0.367	0.00068	0.0001
4030	0.351	0.324	0.00057	0.0001
5040	0.438	0.281	0.00047	0.0001
6030	0.509	0.245	0.0004	0.0001
1000	0.098	0.225	0.00098	0.00022
2020	0.19	0.202	0.00086	0.0001
3010	0.275	0.181	0.00075	0.0001
4000	0.345	0.164	0.00068	0.0001
5010	0.432	0.142	0.00056	0.0001
6020	0.506	0.123	0.00047	0.00016
