Measured thermophysical data. Solubility modelling and preferential solvation of adenine in solvent mixtures of (N,N-dimethylformamide, N-methyl pyrrolidone, propylene glycol and dimethyl sulfoxide) plus water
Source: J. Chem. Thermodyn., 2018, 10.1016/j.jct.2018.05.030
Compound 1: 6-amino-1H-purine, C5H5N5, InChI=1S/C5H5N5/c6-4-3-5(9-1-7-3)10-2-8-4/h1-2H,(H3,6,7,8,9,10), purity 98.3%
Compound 2: dimethylformamide, C3H7NO, InChI=1S/C3H7NO/c1-4(2)3-5/h3H,1-2H3, purity 99.5%
Compound 3: N-methylpyrrolidone, C5H9NO, InChI=1S/C5H9NO/c1-6-4-2-3-5(6)7/h2-4H2,1H3, purity 99.4%
Compound 4: 1,2-propanediol, C3H8O2, InChI=1S/C3H8O2/c1-3(5)2-4/h3-5H,2H2,1H3, purity 99.4%
Compound 5: dimethyl sulfoxide, C2H6OS, InChI=1S/C2H6OS/c1-4(2)3/h1-2H3, purity 99.5%
Compound 6: water, H2O, InChI=1S/H2O/h1H2

System: 6-amino-1H-purine + dimethylformamide + water; phases: Liquid, Crystal
Fixed: Pressure, kPa = 101.1
Property: Mole fraction of 6-amino-1H-purine (Liquid); method: Chromatography
Solvent: Mass fraction of dimethylformamide	Temperature, K	Mole fraction of 6-amino-1H-purine	uncertainty
0	278.15	5.427e-05	4.89e-06
0	283.15	6.883e-05	6.2e-06
0	288.15	8.542e-05	7.69e-06
0	293.15	0.0001078	9.7e-06
0	298.15	0.0001344	1.21e-05
0	303.15	0.0001711	1.54e-05
0	308.15	0.0002156	1.94e-05
0	313.15	0.0002635	2.37e-05
0	318.15	0.0003214	2.89e-05
0.1004	278.15	0.0001459	1.31e-05
0.1004	283.15	0.0001712	1.54e-05
0.1004	288.15	0.0002074	1.87e-05
0.1004	293.15	0.0002547	2.29e-05
0.1004	298.15	0.0003135	2.82e-05
0.1004	303.15	0.0003813	3.43e-05
0.1004	308.15	0.0004691	4.22e-05
0.1004	313.15	0.0005587	5.03e-05
0.1004	318.15	0.0006783	6.11e-05
0.2001	278.15	0.0002712	2.44e-05
0.2001	283.15	0.0003193	2.87e-05
0.2001	288.15	0.0003899	3.51e-05
0.2001	293.15	0.0004644	4.18e-05
0.2001	298.15	0.0005486	4.94e-05
0.2001	303.15	0.0006603	5.95e-05
0.2001	308.15	0.0007876	7.09e-05
0.2001	313.15	0.0009432	8.49e-05
0.2001	318.15	0.00109	9.8e-05
0.2999	278.15	0.0004241	3.82e-05
0.2999	283.15	0.0005018	4.52e-05
0.2999	288.15	0.0005921	5.33e-05
0.2999	293.15	0.0006834	6.15e-05
0.2999	298.15	0.0008146	7.33e-05
0.2999	303.15	0.0009531	8.58e-05
0.2999	308.15	0.001139	0.000103
0.2999	313.15	0.001294	0.000117
0.2999	318.15	0.001495	0.000135
0.3988	278.15	0.0005896	5.31e-05
0.3988	283.15	0.0006774	6.1e-05
0.3988	288.15	0.0007877	7.09e-05
0.3988	293.15	0.0009137	8.23e-05
0.3988	298.15	0.001063	9.6e-05
0.3988	303.15	0.001219	0.00011
0.3988	308.15	0.00143	0.000129
0.3988	313.15	0.001618	0.000146
0.3988	318.15	0.001831	0.000165
0.5005	278.15	0.0007778	7e-05
0.5005	283.15	0.0008901	8.01e-05
0.5005	288.15	0.001005	9e-05
0.5005	293.15	0.001133	0.000102
0.5005	298.15	0.001298	0.000117
0.5005	303.15	0.001463	0.000132
0.5005	308.15	0.001695	0.000153
0.5005	313.15	0.001883	0.00017
0.5005	318.15	0.002124	0.000191
0.5993	278.15	0.0009705	8.74e-05
0.5993	283.15	0.001066	9.6e-05
0.5993	288.15	0.001204	0.000108
0.5993	293.15	0.001343	0.000121
0.5993	298.15	0.001526	0.000137
0.5993	303.15	0.001704	0.000153
0.5993	308.15	0.001933	0.000174
0.5993	313.15	0.002124	0.000191
0.5993	318.15	0.002354	0.000212
0.6992	278.15	0.00118	0.000106
0.6992	283.15	0.001295	0.000117
0.6992	288.15	0.001425	0.000128
0.6992	293.15	0.001588	0.000143
0.6992	298.15	0.00174	0.000157
0.6992	303.15	0.001945	0.000175
0.6992	308.15	0.002158	0.000194
0.6992	313.15	0.002371	0.000213
0.6992	318.15	0.002584	0.000233
0.8007	278.15	0.001441	0.00013
0.8007	283.15	0.001578	0.000142
0.8007	288.15	0.001696	0.000153
0.8007	293.15	0.001857	0.000167
0.8007	298.15	0.002011	0.000181
0.8007	303.15	0.002204	0.000198
0.8007	308.15	0.002407	0.000217
0.8007	313.15	0.002596	0.000234
0.8007	318.15	0.00283	0.000255
0.9011	278.15	0.001702	0.000153
0.9011	283.15	0.001832	0.000165
0.9011	288.15	0.001962	0.000177
0.9011	293.15	0.002118	0.000191
0.9011	298.15	0.002271	0.000204
0.9011	303.15	0.002442	0.00022
0.9011	308.15	0.002639	0.000238
0.9011	313.15	0.002819	0.000254
0.9011	318.15	0.003031	0.000273
1	278.15	0.001916	0.000172
1	283.15	0.002048	0.000184
1	288.15	0.002175	0.000196
1	293.15	0.002317	0.000209
1	298.15	0.002462	0.000222
1	303.15	0.002622	0.000236
1	308.15	0.002781	0.00025
1	313.15	0.002951	0.000266
1	318.15	0.003124	0.000281

System: 6-amino-1H-purine + N-methylpyrrolidone + water; phases: Liquid, Crystal
Fixed: Pressure, kPa = 101.1
Property: Mole fraction of 6-amino-1H-purine (Liquid); method: Chromatography
Solvent: Mass fraction of N-methylpyrrolidone	Temperature, K	Mole fraction of 6-amino-1H-purine	uncertainty
0	278.15	5.427e-05	4.89e-06
0	283.15	6.883e-05	6.2e-06
0	288.15	8.542e-05	7.69e-06
0	293.15	0.0001078	9.7e-06
0	298.15	0.0001344	1.21e-05
0	303.15	0.0001711	1.54e-05
0	308.15	0.0002156	1.94e-05
0	313.15	0.0002635	2.37e-05
0	318.15	0.0003214	2.89e-05
0.1005	278.15	0.0002997	2.7e-05
0.1005	283.15	0.0003406	3.07e-05
0.1005	288.15	0.0004016	3.62e-05
0.1005	293.15	0.0005234	4.71e-05
0.1005	298.15	0.0006238	5.62e-05
0.1005	303.15	0.0007251	6.53e-05
0.1005	308.15	0.0009079	8.17e-05
0.1005	313.15	0.001038	9.3e-05
0.1005	318.15	0.001256	0.000113
0.2008	278.15	0.0008379	7.54e-05
0.2008	283.15	0.0009439	8.5e-05
0.2008	288.15	0.001128	0.000102
0.2008	293.15	0.00134	0.000121
0.2008	298.15	0.001544	0.000139
0.2008	303.15	0.001774	0.00016
0.2008	308.15	0.002089	0.000188
0.2008	313.15	0.002419	0.000218
0.2008	318.15	0.00282	0.000254
0.2993	278.15	0.001534	0.000138
0.2993	283.15	0.001766	0.000159
0.2993	288.15	0.001932	0.000174
0.2993	293.15	0.002222	0.0002
0.2993	298.15	0.002639	0.000238
0.2993	303.15	0.002929	0.000264
0.2993	308.15	0.003459	0.000311
0.2993	313.15	0.003839	0.000346
0.2993	318.15	0.004418	0.000398
0.3996	278.15	0.002228	0.000201
0.3996	283.15	0.002498	0.000225
0.3996	288.15	0.002753	0.000248
0.3996	293.15	0.003151	0.000284
0.3996	298.15	0.003537	0.000318
0.3996	303.15	0.00402	0.000362
0.3996	308.15	0.004436	0.000399
0.3996	313.15	0.005029	0.000453
0.3996	318.15	0.005502	0.000495
0.5002	278.15	0.002878	0.000259
0.5002	283.15	0.003125	0.000281
0.5002	288.15	0.0035	0.000315
0.5002	293.15	0.003879	0.000349
0.5002	298.15	0.004242	0.000382
0.5002	303.15	0.004789	0.000431
0.5002	308.15	0.005221	0.00047
0.5002	313.15	0.005717	0.000515
0.5002	318.15	0.006325	0.000569
0.5999	278.15	0.003592	0.000323
0.5999	283.15	0.003813	0.000343
0.5999	288.15	0.004155	0.000374
0.5999	293.15	0.0046	0.000414
0.5999	298.15	0.005044	0.000454
0.5999	303.15	0.005512	0.000496
0.5999	308.15	0.005897	0.000531
0.5999	313.15	0.006358	0.000572
0.5999	318.15	0.006976	0.000628
0.6987	278.15	0.004572	0.000412
0.6987	283.15	0.004827	0.000435
0.6987	288.15	0.005124	0.000461
0.6987	293.15	0.005582	0.000503
0.6987	298.15	0.00586	0.000528
0.6987	303.15	0.006419	0.000578
0.6987	308.15	0.006774	0.00061
0.6987	313.15	0.007278	0.000655
0.6987	318.15	0.007663	0.00069
0.8001	278.15	0.005934	0.000534
0.8001	283.15	0.006296	0.000567
0.8001	288.15	0.006561	0.000591
0.8001	293.15	0.006846	0.000616
0.8001	298.15	0.007302	0.000657
0.8001	303.15	0.007664	0.00069
0.8001	308.15	0.00808	0.000727
0.8001	313.15	0.008401	0.000756
0.8001	318.15	0.008901	0.000801
0.9004	278.15	0.007789	0.000701
0.9004	283.15	0.008023	0.000722
0.9004	288.15	0.008326	0.00075
0.9004	293.15	0.008565	0.000771
0.9004	298.15	0.008938	0.000805
0.9004	303.15	0.009215	0.00083
0.9004	308.15	0.009598	0.000864
0.9004	313.15	0.00988	0.000889
0.9004	318.15	0.01016	0.00091
1	278.15	0.009502	0.000855
1	283.15	0.009712	0.000874
1	288.15	0.009901	0.000891
1	293.15	0.0101	0.00091
1	298.15	0.01031	0.00093
1	303.15	0.01051	0.00095
1	308.15	0.01071	0.00096
1	313.15	0.01095	0.00099
1	318.15	0.01116	0.001

System: 6-amino-1H-purine + 1,2-propanediol + water; phases: Liquid, Crystal
Fixed: Pressure, kPa = 101.1
Property: Mole fraction of 6-amino-1H-purine (Liquid); method: Chromatography
Solvent: Mass fraction of 1,2-propanediol	Temperature, K	Mole fraction of 6-amino-1H-purine	uncertainty
0	278.15	5.427e-05	4.89e-06
0	283.15	6.883e-05	6.2e-06
0	288.15	8.542e-05	7.69e-06
0	293.15	0.0001078	9.7e-06
0	298.15	0.0001344	1.21e-05
0	303.15	0.0001711	1.54e-05
0	308.15	0.0002156	1.94e-05
0	313.15	0.0002635	2.37e-05
0	318.15	0.0003214	2.89e-05
0.1008	278.15	0.0003086	2.78e-05
0.1008	283.15	0.00037	3.33e-05
0.1008	288.15	0.0004492	4.04e-05
0.1008	293.15	0.0005257	4.73e-05
0.1008	298.15	0.0006436	5.8e-05
0.1008	303.15	0.0007851	7.07e-05
0.1008	308.15	0.0009377	8.44e-05
0.1008	313.15	0.001127	0.000101
0.1008	318.15	0.001296	0.000117
0.2006	278.15	0.0008944	8.05e-05
0.2006	283.15	0.001067	9.6e-05
0.2006	288.15	0.001181	0.000106
0.2006	293.15	0.001372	0.000124
0.2006	298.15	0.001668	0.00015
0.2006	303.15	0.001968	0.000177
0.2006	308.15	0.00231	0.000208
0.2006	313.15	0.002579	0.000232
0.2006	318.15	0.00303	0.000273
0.2997	278.15	0.001645	0.000148
0.2997	283.15	0.001908	0.000172
0.2997	288.15	0.002112	0.00019
0.2997	293.15	0.002457	0.000221
0.2997	298.15	0.002781	0.00025
0.2997	303.15	0.003262	0.000294
0.2997	308.15	0.003699	0.000333
0.2997	313.15	0.004147	0.000373
0.2997	318.15	0.004728	0.000426
0.3993	278.15	0.002377	0.000214
0.3993	283.15	0.00274	0.000247
0.3993	288.15	0.002978	0.000268
0.3993	293.15	0.003435	0.000309
0.3993	298.15	0.003766	0.000339
0.3993	303.15	0.004267	0.000384
0.3993	308.15	0.004868	0.000438
0.3993	313.15	0.005327	0.00048
0.3993	318.15	0.005949	0.000536
0.5002	278.15	0.003156	0.000284
0.5002	283.15	0.003407	0.000307
0.5002	288.15	0.003766	0.000339
0.5002	293.15	0.004225	0.00038
0.5002	298.15	0.004655	0.000419
0.5002	303.15	0.00506	0.000456
0.5002	308.15	0.005627	0.000507
0.5002	313.15	0.006238	0.000562
0.5002	318.15	0.006656	0.000599
0.5988	278.15	0.003994	0.00036
0.5988	283.15	0.00424	0.000382
0.5988	288.15	0.004601	0.000414
0.5988	293.15	0.005067	0.000456
0.5988	298.15	0.005378	0.000484
0.5988	303.15	0.005954	0.000536
0.5988	308.15	0.006419	0.000578
0.5988	313.15	0.006897	0.000621
0.5988	318.15	0.007484	0.000674
0.6999	278.15	0.005102	0.000459
0.6999	283.15	0.005403	0.000486
0.6999	288.15	0.005805	0.000523
0.6999	293.15	0.006132	0.000552
0.6999	298.15	0.00659	0.000593
0.6999	303.15	0.006979	0.000628
0.6999	308.15	0.007469	0.000672
0.6999	313.15	0.007961	0.000717
0.6999	318.15	0.008428	0.000759
0.8004	278.15	0.006741	0.000607
0.8004	283.15	0.007045	0.000634
0.8004	288.15	0.007361	0.000663
0.8004	293.15	0.007781	0.0007
0.8004	298.15	0.008077	0.000727
0.8004	303.15	0.008547	0.000769
0.8004	308.15	0.008982	0.000809
0.8004	313.15	0.009348	0.000842
0.8004	318.15	0.009745	0.000877
0.9001	278.15	0.008839	0.000796
0.9001	283.15	0.009093	0.000819
0.9001	288.15	0.009338	0.000841
0.9001	293.15	0.009618	0.000866
0.9001	298.15	0.009906	0.000892
0.9001	303.15	0.01018	0.00092
0.9001	308.15	0.01051	0.00095
0.9001	313.15	0.01078	0.00097
0.9001	318.15	0.01103	0.00099
1	278.15	0.01057	0.00095
1	283.15	0.01078	0.00097
1	288.15	0.01093	0.00098
1	293.15	0.01108	0.001
1	298.15	0.01123	0.00101
1	303.15	0.01137	0.00102
1	308.15	0.01155	0.00104
1	313.15	0.01168	0.00105
1	318.15	0.01183	0.00107

System: 6-amino-1H-purine + dimethyl sulfoxide + water; phases: Liquid, Crystal
Fixed: Pressure, kPa = 101.1
Property: Mole fraction of 6-amino-1H-purine (Liquid); method: Chromatography
Solvent: Mass fraction of dimethyl sulfoxide	Temperature, K	Mole fraction of 6-amino-1H-purine	uncertainty
0	293.15	0.0001078	9.7e-06
0	298.15	0.0001344	1.21e-05
0	303.15	0.0001711	1.54e-05
0	308.15	0.0002156	1.94e-05
0	313.15	0.0002635	2.37e-05
0	318.15	0.0003214	2.89e-05
0.1006	293.15	0.0005739	5.17e-05
0.1006	298.15	0.0006702	6.03e-05
0.1006	303.15	0.0007904	7.12e-05
0.1006	308.15	0.0009917	8.93e-05
0.1006	313.15	0.001188	0.000107
0.1006	318.15	0.001413	0.000127
0.2007	293.15	0.00152	0.000137
0.2007	298.15	0.001701	0.000153
0.2007	303.15	0.002029	0.000183
0.2007	308.15	0.002431	0.000219
0.2007	313.15	0.002769	0.000249
0.2007	318.15	0.003292	0.000296
0.2995	293.15	0.002553	0.00023
0.2995	298.15	0.003046	0.000274
0.2995	303.15	0.003449	0.000311
0.2995	308.15	0.004128	0.000372
0.2995	313.15	0.004579	0.000412
0.2995	318.15	0.005306	0.000478
0.3997	293.15	0.003713	0.000334
0.3997	298.15	0.004197	0.000378
0.3997	303.15	0.004698	0.000423
0.3997	308.15	0.005505	0.000496
0.3997	313.15	0.006039	0.000544
0.3997	318.15	0.006897	0.000621
0.5001	293.15	0.004631	0.000417
0.5001	298.15	0.005116	0.000461
0.5001	303.15	0.005732	0.000516
0.5001	308.15	0.006425	0.000578
0.5001	313.15	0.007109	0.00064
0.5001	318.15	0.008047	0.000724
0.5994	293.15	0.005415	0.000488
0.5994	298.15	0.005975	0.000538
0.5994	303.15	0.006827	0.000615
0.5994	308.15	0.007441	0.00067
0.5994	313.15	0.008174	0.000736
0.5994	318.15	0.009075	0.000817
0.6988	293.15	0.006545	0.000589
0.6988	298.15	0.007294	0.000657
0.6988	303.15	0.008057	0.000725
0.6988	308.15	0.008654	0.000779
0.6988	313.15	0.009447	0.00085
0.6988	318.15	0.01026	0.00092
0.8003	293.15	0.008192	0.000738
0.8003	298.15	0.009021	0.000812
0.8003	303.15	0.009612	0.000865
0.8003	308.15	0.01053	0.00095
0.8003	313.15	0.01108	0.001
0.8003	318.15	0.01199	0.00108
0.9002	293.15	0.009987	0.000899
0.9002	298.15	0.01087	0.00098
0.9002	303.15	0.01145	0.00103
0.9002	308.15	0.01215	0.00109
0.9002	313.15	0.01288	0.00116
0.9002	318.15	0.01363	0.00123
1	293.15	0.01109	0.001
1	298.15	0.01173	0.00106
1	303.15	0.01239	0.00112
1	308.15	0.01306	0.00118
1	313.15	0.01374	0.00124
1	318.15	0.01443	0.0013

System: 6-amino-1H-purine + water; phases: Liquid, Crystal
Fixed: Pressure, kPa = 101.1
Property: Mole fraction of 6-amino-1H-purine (Liquid); method: Chromatography
Temperature, K	Mole fraction of 6-amino-1H-purine	uncertainty
278.15	5.427e-05	4.89e-06
283.15	6.883e-05	6.2e-06
288.15	8.542e-05	7.69e-06
293.15	0.0001078	9.7e-06
298.15	0.0001344	1.21e-05
303.15	0.0001711	1.54e-05
308.15	0.0002156	1.94e-05
313.15	0.0002635	2.37e-05
318.15	0.0003214	2.89e-05

System: 6-amino-1H-purine + dimethylformamide; phases: Liquid, Crystal
Fixed: Pressure, kPa = 101.1
Property: Mole fraction of 6-amino-1H-purine (Liquid); method: Chromatography
Temperature, K	Mole fraction of 6-amino-1H-purine	uncertainty
278.15	0.001916	0.000172
283.15	0.002048	0.000184
288.15	0.002175	0.000196
293.15	0.002317	0.000209
298.15	0.002462	0.000222
303.15	0.002622	0.000236
308.15	0.002781	0.00025
313.15	0.002951	0.000266
318.15	0.003124	0.000281

System: 6-amino-1H-purine + N-methylpyrrolidone; phases: Liquid, Crystal
Fixed: Pressure, kPa = 101.1
Property: Mole fraction of 6-amino-1H-purine (Liquid); method: Chromatography
Temperature, K	Mole fraction of 6-amino-1H-purine	uncertainty
278.15	0.009502	0.000855
283.15	0.009712	0.000874
288.15	0.009901	0.000891
293.15	0.0101	0.00091
298.15	0.01031	0.00093
303.15	0.01051	0.00095
308.15	0.01071	0.00096
313.15	0.01095	0.00099
318.15	0.01116	0.001

System: 6-amino-1H-purine + 1,2-propanediol; phases: Liquid, Crystal
Fixed: Pressure, kPa = 101.1
Property: Mole fraction of 6-amino-1H-purine (Liquid); method: Chromatography
Temperature, K	Mole fraction of 6-amino-1H-purine	uncertainty
278.15	0.01057	0.00095
283.15	0.01078	0.00097
288.15	0.01093	0.00098
293.15	0.01108	0.001
298.15	0.01123	0.00101
303.15	0.01137	0.00102
308.15	0.01155	0.00104
313.15	0.01168	0.00105
318.15	0.01183	0.00107

System: 6-amino-1H-purine + dimethyl sulfoxide; phases: Liquid, Crystal
Fixed: Pressure, kPa = 101.1
Property: Mole fraction of 6-amino-1H-purine (Liquid); method: Chromatography
Temperature, K	Mole fraction of 6-amino-1H-purine	uncertainty
293.15	0.01109	0.001
298.15	0.01173	0.00106
303.15	0.01239	0.00112
308.15	0.01306	0.00118
313.15	0.01374	0.00124
318.15	0.01443	0.0013
