Measured thermophysical data. Low-temperature thermodynamic properties of holmium selenide (2:3)
Source: J. Chem. Thermodyn., 2018, 10.1016/j.jct.2017.10.013
Compound 1: holmium selenide (Ho2Se3), Ho2Se3, InChI=1S/2Ho.3Se/q2*+3;3*-2, purity 99%

System: holmium selenide (Ho2Se3); phases: Crystal 3, Crystal 2, Gas
Property: Triple point temperature, K (Crystal 3); method: Adiabatic calorimetry
Triple point temperature, K	uncertainty
6.03	0.05

System: holmium selenide (Ho2Se3); phases: Crystal 2, Crystal 1, Gas
Property: Triple point temperature, K (Crystal 2); method: Adiabatic calorimetry
Triple point temperature, K	uncertainty
228.4	0.05

System: holmium selenide (Ho2Se3); phases: Crystal 3, Crystal 2, Gas
Property: Molar enthalpy of transition or fusion, kJ/mol (Crystal 3); method: Adiabatic calorimetry
Molar enthalpy of transition or fusion, kJ/mol	uncertainty
0	1

System: holmium selenide (Ho2Se3); phases: Crystal 2, Crystal 1, Gas
Property: Molar enthalpy of transition or fusion, kJ/mol (Crystal 2); method: Adiabatic calorimetry
Molar enthalpy of transition or fusion, kJ/mol	uncertainty
0	1

System: holmium selenide (Ho2Se3); phases: Crystal 3
Fixed: Pressure, kPa = 101.325
Property: Molar heat capacity at constant pressure, J/K/mol (Crystal 3); method: Vacuum adiabatic calorimetry
Temperature, K	Molar heat capacity at constant pressure, J/K/mol	uncertainty
4.75	4.433	0.358
5.01	4.889	0.409
5.32	7.582	0.624
6.03	11.86	0.96

System: holmium selenide (Ho2Se3); phases: Crystal 3
Fixed: Pressure, kPa = 101.325
Property: Molar heat capacity at constant pressure, J/K/mol (Crystal 3); method: Vacuum adiabatic calorimetry
Temperature, K	Molar heat capacity at constant pressure, J/K/mol	uncertainty
5	5.229	0.44
6.03	12	0.97

System: holmium selenide (Ho2Se3); phases: Crystal 3
Fixed: Pressure, kPa = 101.325
Property: Molar entropy, J/K/mol (Crystal 3); method: Vacuum adiabatic calorimetry
Temperature, K	Molar entropy, J/K/mol	uncertainty
5	1.64	0.201
6.03	3.189	0.386

System: holmium selenide (Ho2Se3); phases: Crystal 3
Fixed: Pressure, kPa = 101.325
Property: Molar enthalpy, kJ/mol (Crystal 3); method: Vacuum adiabatic calorimetry
Temperature, K	Molar enthalpy, kJ/mol	uncertainty
5	0.006157	0.000525
6.03	0.01478	0.0012

System: holmium selenide (Ho2Se3); phases: Crystal 2
Fixed: Pressure, kPa = 101.325
Property: Molar heat capacity at constant pressure, J/K/mol (Crystal 2); method: Vacuum adiabatic calorimetry
Temperature, K	Molar heat capacity at constant pressure, J/K/mol	uncertainty
6.03	11.86	0.95
7.23	9.963	0.8
8.62	9.268	0.744
10.31	9.187	0.737
10.68	9.794	0.786
11.33	10.14	0.81
12.42	11.01	0.88
13.07	11.54	0.93
14.47	12.75	1.02
16.86	14.62	1.17
20.03	17.51	0.16
22.71	19.72	0.18
25.13	22.18	0.19
28.04	25.54	0.22
31.2	29.55	0.25
34.35	34.03	0.28
37.49	38.79	0.32
40.37	43.37	0.36
43.16	48	0.4
46.66	53.47	0.44
51.18	60.48	0.5
55.76	66.98	0.55
59.76	72.46	0.59
63.99	77.76	0.64
68.39	82.55	0.68
72.45	86.7	0.71
76.57	90.48	0.74
80.18	93.23	0.37
85.83	97.43	0.39
91.8	101	0.4
97.35	103.9	0.4
102.86	106.2	0.4
108.72	108.5	0.5
114.93	110.9	0.5
121.18	112.4	0.5
127.91	114.2	0.5
135.11	115.7	0.5
142.05	116.8	0.5
148.79	117.9	0.5
155.35	118.6	0.5
161.76	119.2	0.5
168.04	119.9	0.5
174.8	120.3	0.5
182.04	120.9	0.5
189.15	121.4	0.5
196.14	122.1	0.8
203.04	122.2	0.8
209.83	122.9	0.8
216.54	123.2	0.8
223.16	124	0.8
217.14	123.4	0.8
220.38	123.3	0.8
222.96	123.9	0.8
224.88	124.3	0.8
226.8	124.9	0.8
228.4	125	0.8

System: holmium selenide (Ho2Se3); phases: Crystal 1
Fixed: Pressure, kPa = 101.325
Property: Molar heat capacity at constant pressure, J/K/mol (Crystal 1); method: Vacuum adiabatic calorimetry
Temperature, K	Molar heat capacity at constant pressure, J/K/mol	uncertainty
229.7	124.4	0.8
236.16	123.1	0.8
242.82	122.7	0.8
249.67	123.4	0.5
256.45	123.6	0.5
263.41	123.5	0.5
270.54	123.7	0.5
228.4	125	0.8
229.68	124.4	0.8
230.95	123.6	0.8
232.22	122.9	0.8
233.8	123.6	0.8
235.69	122.7	0.8
238.19	123.1	0.8
241.31	123.4	0.8
244.42	123.3	0.8
274.01	123.6	0.5
276.98	124	0.5
280.45	123.7	0.5
284.65	124	0.5
289.2	123.9	0.5
293.71	123.6	0.5
298.18	123.9	0.5
302.6	124.2	0.5

System: holmium selenide (Ho2Se3); phases: Crystal 2
Fixed: Pressure, kPa = 101.325
Property: Molar heat capacity at constant pressure, J/K/mol (Crystal 2); method: Vacuum adiabatic calorimetry
Temperature, K	Molar heat capacity at constant pressure, J/K/mol	uncertainty
6.03	12	0.96
10	8.4	0.7
15	13.14	1.05
20	17.39	0.16
25	22.07	0.19
30	27.86	0.23
35	34.94	0.29
40	42.81	0.36
45	50.85	0.42
50	58.65	0.48
60	72.86	0.6
70	84.33	0.69
80	93.16	0.37
90	99.99	0.42
100	105.2	0.4
110	109.2	0.5
120	112.4	0.5
130	114.8	0.5
140	116.5	0.5
150	117.9	0.5
160	119	0.5
170	119.9	0.5
180	120.8	0.5
190	121.5	0.8
200	122.1	0.8
210	122.8	0.8
220	123.6	0.8
228.4	125.2	0.8
7	10.5	0.8
8	6.9	0.6
9	7.3	0.6

System: holmium selenide (Ho2Se3); phases: Crystal 1
Fixed: Pressure, kPa = 101.325
Property: Molar heat capacity at constant pressure, J/K/mol (Crystal 1); method: Vacuum adiabatic calorimetry
Temperature, K	Molar heat capacity at constant pressure, J/K/mol	uncertainty
228.4	125.2	0.8
230	124.3	0.8
240	123.1	0.8
250	123.4	0.5
260	123.6	0.5
270	123.7	0.5
280	123.8	0.5
290	123.9	0.5
298.15	123.9	0.5
300	123.9	0.5
302	123.9	0.5

System: holmium selenide (Ho2Se3); phases: Crystal 2
Fixed: Pressure, kPa = 101.325
Property: Molar entropy, J/K/mol (Crystal 2); method: Vacuum adiabatic calorimetry
Temperature, K	Molar entropy, J/K/mol	uncertainty
6.03	3.189	0.386
10	8.227	0.991
15	12.67	1.52
20	17.04	0.23
25	21.4	0.28
30	25.92	0.33
35	30.74	0.38
40	35.91	0.45
45	41.42	0.51
50	47.18	0.58
60	59.16	0.73
70	71.3	0.88
80	83.16	0.5
90	94.54	0.6
100	105.4	0.7
110	115.6	0.7
120	125.2	0.8
130	134.3	0.8
140	142.9	0.9
150	151	0.9
160	158.6	0.9
170	165.9	1
180	172.7	1
190	179.3	1.7
200	185.5	1.7
210	191.5	1.8
220	197.3	1.8
228.4	201.9	1.9

System: holmium selenide (Ho2Se3); phases: Crystal 1
Fixed: Pressure, kPa = 101.325
Property: Molar entropy, J/K/mol (Crystal 1); method: Vacuum adiabatic calorimetry
Temperature, K	Molar entropy, J/K/mol	uncertainty
228.4	201.9	1.9
230	202.8	1.9
240	208	1.9
250	213	1.3
260	217.9	1.3
270	222.6	1.3
280	227.1	1.4
290	231.4	1.4
298.15	234.8	1.4
300	235.6	1.4
302	236.4	1.4

System: holmium selenide (Ho2Se3); phases: Crystal 2
Fixed: Pressure, kPa = 101.325
Property: Molar enthalpy, kJ/mol (Crystal 2); method: Vacuum adiabatic calorimetry
Temperature, K	Molar enthalpy, kJ/mol	uncertainty
6.03	0.01478	0.00121
10	0.05381	0.00433
15	0.1093	0.0088
20	0.1856	0.0018
25	0.2839	0.0026
30	0.4083	0.0036
35	0.5649	0.0049
40	0.759	0.0065
45	0.9932	0.0084
50	1.267	0.011
60	1.927	0.016
70	2.715	0.023
80	3.604	0.015
90	4.572	0.023
100	5.6	0.03
110	6.671	0.032
120	7.78	0.036
130	8.916	0.041
140	10.07	0.045
150	11.25	0.05
160	12.43	0.055
170	13.63	0.06
180	14.83	0.064
190	16.04	0.1
200	17.26	0.11
210	18.48	0.12
220	19.71	0.13
228.4	20.76	0.13

System: holmium selenide (Ho2Se3); phases: Crystal 1
Fixed: Pressure, kPa = 101.325
Property: Molar enthalpy, kJ/mol (Crystal 1); method: Vacuum adiabatic calorimetry
Temperature, K	Molar enthalpy, kJ/mol	uncertainty
228.4	20.76	0.13
230	20.96	0.13
240	22.19	0.14
250	23.42	0.1
260	24.66	0.11
270	25.89	0.11
280	27.13	0.12
290	28.37	0.12
298.15	29.38	0.13
300	29.61	0.13
302	29.86	0.13
