Measured thermophysical data. Tailor-made ionic liquids
Source: J. Chem. Thermodyn., 2005, 10.1016/j.jct.2005.04.013
Compound 1: water, H2O, InChI=1S/H2O/h1H2
Compound 2: 1-methyl-3-octylimidazolium tetrafluoroborate, C12H23BF4N2, InChI=1S/C12H23N2.BF4/c1-3-4-5-6-7-8-9-14-11-10-13(2)12-14;2-1(3,4)5/h10-12H,3-9H2,1-2H3;/q+1;-1
Compound 3: tetrahydrofuran, C4H8O, InChI=1S/C4H8O/c1-2-4-5-3-1/h1-4H2
Compound 4: ethanol, C2H6O, InChI=1S/C2H6O/c1-2-3/h3H,2H2,1H3
Compound 5: 1-butyl-3-methylimidazolium tetrafluoroborate, C8H15BF4N2, InChI=1S/C8H15N2.BF4/c1-3-4-5-10-7-6-9(2)8-10;2-1(3,4)5/h6-8H,3-5H2,1-2H3;/q+1;-1
Compound 6: 1-ethyl-3-methylimidazolium tetrafluoroborate, C6H11BF4N2, InChI=1S/C6H11N2.BF4/c1-3-8-5-4-7(2)6-8;2-1(3,4)5/h4-6H,3H2,1-2H3;/q+1;-1
Compound 7: methanol, CH4O, InChI=1S/CH4O/c1-2/h2H,1H3
Compound 8: 1-butyl-3-methylimidazolium chloride, C8H15ClN2, InChI=1S/C8H15N2.ClH/c1-3-4-5-10-7-6-9(2)8-10;/h6-8H,3-5H2,1-2H3;1H/q+1;/p-1
Compound 9: methylcyclohexane, C7H14, InChI=1S/C7H14/c1-7-5-3-2-4-6-7/h7H,2-6H2,1H3
Compound 10: toluene, C7H8, InChI=1S/C7H8/c1-7-5-3-2-4-6-7/h2-6H,1H3
Compound 11: N-methyl-N-butylpyrrolidinium p-toluenesulfonate, C16H27NO3S, InChI=1S/C9H20N.C7H8O3S/c1-3-4-7-10(2)8-5-6-9-10;1-6-2-4-7(5-3-6)11(8,9)10/h3-9H2,1-2H3;2-5H,1H3,(H,8,9,10)/q+1;/p-1
Compound 12: N-methyl-N-ethylpyrrolidinium p-toluenesulfonate, C14H23NO3S, InChI=1S/C7H16N.C7H8O3S/c1-3-8(2)6-4-5-7-8;1-6-2-4-7(5-3-6)11(8,9)10/h3-7H2,1-2H3;2-5H,1H3,(H,8,9,10)/q+1;/p-1
Compound 13: 1-butyl-1-methylpyrrolidinium dicyanamide, C11H20N4, InChI=1S/C9H20N.C2N3/c1-3-4-7-10(2)8-5-6-9-10;3-1-5-2-4/h3-9H2,1-2H3;/q+1;-1
Compound 14: 1-butyl-3-methylimidazolium methyl sulfate, C9H18N2O4S, InChI=1S/C8H15N2.CH4O4S/c1-3-4-5-10-7-6-9(2)8-10;1-5-6(2,3)4/h6-8H,3-5H2,1-2H3;1H3,(H,2,3,4)/q+1;/p-1
Compound 15: 1-butyl-3-methylimidazolium hydrogen sulfate, C8H16N2O4S, InChI=1S/C8H15N2.H2O4S/c1-3-4-5-10-7-6-9(2)8-10;1-5(2,3)4/h6-8H,3-5H2,1-2H3;(H2,1,2,3,4)/q+1;/p-1
Compound 16: 17-hydroxy-N-(17-hydroxy-3,6,9,12,15-pentaoxaheptadec-1-yl)-N-methyl-N-tetradecyl-3,6,9,12,15-pentaoxaheptadecan-1-aminium methyl sulfate, C40H85NO16S, InChI=1S/C39H82NO12.CH4O4S/c1-3-4-5-6-7-8-9-10-11-12-13-14-15-40(2,16-20-43-24-28-47-32-36-51-38-34-49-30-26-45-22-18-41)17-21-44-25-29-48-33-37-52-39-35-50-31-27-46-23-19-42;1-5-6(2,3)4/h41-42H,3-39H2,1-2H3;1H3,(H,2,3,4)/q+1;/p-1
Compound 17: 1-butyl-3-methylimidazolium bis(trifluoromethylsulfonyl)imide, C10H15F6N3O4S2, InChI=1S/C8H15N2.C2F6NO4S2/c1-3-4-5-10-7-6-9(2)8-10;3-1(4,5)14(10,11)9-15(12,13)2(6,7)8/h6-8H,3-5H2,1-2H3;/q+1;-1
Compound 18: 1-ethyl-3-methylimidazolium chloride, C6H11ClN2, InChI=1S/C6H11N2.ClH/c1-3-8-5-4-7(2)6-8;/h4-6H,3H2,1-2H3;1H/q+1;/p-1
Compound 19: 1-ethyl-3-methylimidazolium ethyl sulfate, C8H16N2O4S, InChI=1S/C6H11N2.C2H6O4S/c1-3-8-5-4-7(2)6-8;1-2-6-7(3,4)5/h4-6H,3H2,1-2H3;2H2,1H3,(H,3,4,5)/q+1;/p-1
Compound 20: 1-ethyl-3-methylimidazolium trifluoromethanesulfonate, C7H11F3N2O3S, InChI=1S/C6H11N2.CHF3O3S/c1-3-8-5-4-7(2)6-8;2-1(3,4)8(5,6)7/h4-6H,3H2,1-2H3;(H,5,6,7)/q+1;/p-1
Compound 21: 1-ethyl-3-methylimidazolium hexafluorophosphate, C6H11F6N2P, InChI=1S/C6H11N2.F6P/c1-3-8-5-4-7(2)6-8;1-7(2,3,4,5)6/h4-6H,3H2,1-2H3;/q+1;-1
Compound 22: 1-ethyl-3-methylimidazolium bis((trifluoromethyl)sulfonyl)imide, C8H11F6N3O4S2, InChI=1S/C6H11N2.C2F6NO4S2/c1-3-8-5-4-7(2)6-8;3-1(4,5)14(10,11)9-15(12,13)2(6,7)8/h4-6H,3H2,1-2H3;/q+1;-1
Compound 23: 1-octylquinolinium bis[(trifluoromethyl)sulfonyl]imide, C19H24F6N2O4S2, InChI=1S/C17H24N.C2F6NO4S2/c1-2-3-4-5-6-9-14-18-15-10-12-16-11-7-8-13-17(16)18;3-1(4,5)14(10,11)9-15(12,13)2(6,7)8/h7-8,10-13,15H,2-6,9,14H2,1H3;/q+1;-1
Compound 24: 1-butyl-3-methylimidazolium octyl sulfate, C16H32N2O4S, InChI=1S/C8H15N2.C8H18O4S/c1-3-4-5-10-7-6-9(2)8-10;1-2-3-4-5-6-7-8-12-13(9,10)11/h6-8H,3-5H2,1-2H3;2-8H2,1H3,(H,9,10,11)/q+1;/p-1
Compound 25: 1-butyl-3-methylimidazolium thiocyanate, C9H15N3S, InChI=1S/C8H15N2.CHNS/c1-3-4-5-10-7-6-9(2)8-10;2-1-3/h6-8H,3-5H2,1-2H3;3H/q+1;/p-1
Compound 26: 1-butyl-3-methylimidazolium salicylate, C15H20N2O3, InChI=1S/C8H15N2.C7H6O3/c1-3-4-5-10-7-6-9(2)8-10;8-6-4-2-1-3-5(6)7(9)10/h6-8H,3-5H2,1-2H3;1-4,8H,(H,9,10)/q+1;/p-1

System: water + 1-methyl-3-octylimidazolium tetrafluoroborate; phases: Liquid, Gas
Property: Activity coefficient of water (Liquid); method: CHROM:UFactor:2
Temperature, K	Mole fraction of water	Activity coefficient of water	uncertainty
363.65	0	0.68	0.06

System: tetrahydrofuran + 1-methyl-3-octylimidazolium tetrafluoroborate; phases: Liquid, Gas
Property: Activity coefficient of tetrahydrofuran (Liquid); method: CHROM:UFactor:2
Temperature, K	Mole fraction of tetrahydrofuran	Activity coefficient of tetrahydrofuran	uncertainty
363.65	0	1.09	0.06

System: ethanol + 1-methyl-3-octylimidazolium tetrafluoroborate; phases: Liquid, Gas
Property: Activity coefficient of ethanol (Liquid); method: CHROM:UFactor:2
Temperature, K	Mole fraction of ethanol	Activity coefficient of ethanol	uncertainty
363.65	0	0.81	0.06

System: water + 1-butyl-3-methylimidazolium tetrafluoroborate; phases: Liquid, Gas
Property: Activity coefficient of water (Liquid); method: CHROM:UFactor:2
Temperature, K	Mole fraction of water	Activity coefficient of water	uncertainty
363.65	0	0.61	0.06

System: tetrahydrofuran + 1-butyl-3-methylimidazolium tetrafluoroborate; phases: Liquid, Gas
Property: Activity coefficient of tetrahydrofuran (Liquid); method: CHROM:UFactor:2
Temperature, K	Mole fraction of tetrahydrofuran	Activity coefficient of tetrahydrofuran	uncertainty
363.65	0	2	0.18

System: ethanol + 1-butyl-3-methylimidazolium tetrafluoroborate; phases: Liquid, Gas
Property: Activity coefficient of ethanol (Liquid); method: CHROM:UFactor:2
Temperature, K	Mole fraction of ethanol	Activity coefficient of ethanol	uncertainty
363.65	0	1.25	0.08

System: water + 1-ethyl-3-methylimidazolium tetrafluoroborate; phases: Liquid, Gas
Property: Activity coefficient of water (Liquid); method: CHROM:UFactor:2
Temperature, K	Mole fraction of water	Activity coefficient of water	uncertainty
363.65	0	0.45	0.07

System: tetrahydrofuran + 1-ethyl-3-methylimidazolium tetrafluoroborate; phases: Liquid, Gas
Property: Activity coefficient of tetrahydrofuran (Liquid); method: CHROM:UFactor:2
Temperature, K	Mole fraction of tetrahydrofuran	Activity coefficient of tetrahydrofuran	uncertainty
363.65	0	3.48	0.32

System: tetrahydrofuran + 1-ethyl-3-methylimidazolium tetrafluoroborate; phases: Liquid, Gas
Fixed: Temperature, K = 337.15
Property: Vapor or sublimation pressure, kPa (Liquid); method: CCELL:UFactor:16
Mole fraction of tetrahydrofuran	Vapor or sublimation pressure, kPa	uncertainty
0.034	12.4	2
0.044	14.2	4.4
0.057	22	3.3
0.079	25.2	3.3
0.089	32.1	4.5
0.117	41.5	3.7
0.138	45.7	3.4
0.181	55.9	3.7
0.208	60.5	4.2
0.233	69.5	4.7
0.258	74.4	4.6
0.281	80.3	4.7
0.309	84.2	4.7

System: ethanol + 1-ethyl-3-methylimidazolium tetrafluoroborate; phases: Liquid, Gas
Property: Activity coefficient of ethanol (Liquid); method: CHROM:UFactor:2
Temperature, K	Mole fraction of ethanol	Activity coefficient of ethanol	uncertainty
363.65	0	1.33	0.09

System: methanol + 1-ethyl-3-methylimidazolium tetrafluoroborate; phases: Liquid, Gas
Property: Activity coefficient of methanol (Liquid); method: CHROM:UFactor:2
Temperature, K	Mole fraction of methanol	Activity coefficient of methanol	uncertainty
363.65	0	0.4	0.07

System: water + 1-butyl-3-methylimidazolium chloride; phases: Liquid, Gas
Property: Activity coefficient of water (Liquid); method: CHROM:UFactor:2
Temperature, K	Mole fraction of water	Activity coefficient of water	uncertainty
363.65	0	0.1	0.08

System: tetrahydrofuran + 1-butyl-3-methylimidazolium chloride; phases: Liquid, Gas
Property: Activity coefficient of tetrahydrofuran (Liquid); method: CHROM:UFactor:2
Temperature, K	Mole fraction of tetrahydrofuran	Activity coefficient of tetrahydrofuran	uncertainty
363.65	0	3.81	0.35

System: ethanol + 1-butyl-3-methylimidazolium chloride; phases: Liquid, Gas
Property: Activity coefficient of ethanol (Liquid); method: CHROM:UFactor:2
Temperature, K	Mole fraction of ethanol	Activity coefficient of ethanol	uncertainty
363.65	0	0.2	0.07

System: methylcyclohexane + toluene; phases: Gas, Liquid
Fixed: Temperature, K = 373.15
Property: Mole fraction of methylcyclohexane (Gas); method: Chromatography
Mole fraction of methylcyclohexane	Mole fraction of methylcyclohexane	uncertainty
0.601	0.642	0.03
0.7	0.726	0.03
0.799	0.812	0.03
0.898	0.902	0.03
0.948	0.949	0.03

System: tetrahydrofuran + water + N-methyl-N-butylpyrrolidinium p-toluenesulfonate; phases: Gas, Liquid
Property: Mole fraction of tetrahydrofuran (Gas); method: Chromatography
Solvent: Mole fraction of tetrahydrofuran	Temperature, K	Mole fraction of N-methyl-N-butylpyrrolidinium p-toluenesulfonate	Mole fraction of tetrahydrofuran	uncertainty
0.818	337.15	0.3	0.977	0.023

System: tetrahydrofuran + water + N-methyl-N-ethylpyrrolidinium p-toluenesulfonate; phases: Gas, Liquid
Property: Mole fraction of tetrahydrofuran (Gas); method: Chromatography
Solvent: Mole fraction of tetrahydrofuran	Temperature, K	Mole fraction of N-methyl-N-ethylpyrrolidinium p-toluenesulfonate	Mole fraction of tetrahydrofuran	uncertainty
0.819	337.15	0.3	0.981	0.019

System: tetrahydrofuran + water + 1-butyl-3-methylimidazolium chloride; phases: Gas, Liquid
Property: Mole fraction of tetrahydrofuran (Gas); method: Chromatography
Solvent: Mole fraction of tetrahydrofuran	Mole fraction of 1-butyl-3-methylimidazolium chloride	Temperature, K	Mole fraction of tetrahydrofuran	uncertainty
0.819	0.3	337.15	0.993	0.007

System: tetrahydrofuran + water + 1-butyl-1-methylpyrrolidinium dicyanamide; phases: Gas, Liquid
Property: Mole fraction of tetrahydrofuran (Gas); method: Chromatography
Solvent: Mole fraction of tetrahydrofuran	Temperature, K	Mole fraction of 1-butyl-1-methylpyrrolidinium dicyanamide	Mole fraction of tetrahydrofuran	uncertainty
0.818	337.15	0.3	0.974	0.026

System: tetrahydrofuran + water + 1-butyl-3-methylimidazolium methyl sulfate; phases: Gas, Liquid
Property: Mole fraction of tetrahydrofuran (Gas); method: Chromatography
Solvent: Mole fraction of tetrahydrofuran	Temperature, K	Mole fraction of 1-butyl-3-methylimidazolium methyl sulfate	Mole fraction of tetrahydrofuran	uncertainty
0.819	337.15	0.3	0.975	0.025

System: tetrahydrofuran + water + 1-butyl-3-methylimidazolium hydrogen sulfate; phases: Gas, Liquid
Property: Mole fraction of tetrahydrofuran (Gas); method: Chromatography
Solvent: Mole fraction of tetrahydrofuran	Temperature, K	Mole fraction of 1-butyl-3-methylimidazolium hydrogen sulfate	Mole fraction of tetrahydrofuran	uncertainty
0.821	337.15	0.3	0.975	0.025

System: tetrahydrofuran + water + 17-hydroxy-N-(17-hydroxy-3,6,9,12,15-pentaoxaheptadec-1-yl)-N-methyl-N-tetradecyl-3,6,9,12,15-pentaoxaheptadecan-1-aminium methyl sulfate; phases: Gas, Liquid
Property: Mole fraction of tetrahydrofuran (Gas); method: Chromatography
Solvent: Mole fraction of tetrahydrofuran	Temperature, K	Mole fraction of 17-hydroxy-N-(17-hydroxy-3,6,9,12,15-pentaoxaheptadec-1-yl)-N-methyl-N-tetradecyl-3,6,9,12,15-pentaoxaheptadecan-1-aminium methyl sulfate	Mole fraction of tetrahydrofuran	uncertainty
0.82	337.15	0.3	0.977	0.023

System: methylcyclohexane + toluene + 17-hydroxy-N-(17-hydroxy-3,6,9,12,15-pentaoxaheptadec-1-yl)-N-methyl-N-tetradecyl-3,6,9,12,15-pentaoxaheptadecan-1-aminium methyl sulfate; phases: Gas, Liquid
Fixed: Temperature, K = 373.15
Fixed: Mole fraction of 17-hydroxy-N-(17-hydroxy-3,6,9,12,15-pentaoxaheptadec-1-yl)-N-methyl-N-tetradecyl-3,6,9,12,15-pentaoxaheptadecan-1-aminium methyl sulfate = 0.3
Property: Mole fraction of methylcyclohexane (Gas); method: Chromatography
Solvent: Mole fraction of methylcyclohexane	Mole fraction of methylcyclohexane	uncertainty
0.6	0.704	0.03
0.701	0.787	0.03
0.8	0.862	0.03
0.9	0.931	0.03
0.948	0.965	0.03

System: methylcyclohexane + toluene + 1-butyl-3-methylimidazolium bis(trifluoromethylsulfonyl)imide; phases: Gas, Liquid
Fixed: Temperature, K = 373.15
Fixed: Mole fraction of 1-butyl-3-methylimidazolium bis(trifluoromethylsulfonyl)imide = 0.3
Property: Mole fraction of methylcyclohexane (Gas); method: Chromatography
Solvent: Mole fraction of methylcyclohexane	Mole fraction of methylcyclohexane	uncertainty
0.599	0.718	0.03
0.698	0.787	0.03
0.798	0.856	0.03
0.898	0.928	0.03
0.947	0.963	0.03

System: tetrahydrofuran + water + 1-butyl-3-methylimidazolium tetrafluoroborate; phases: Gas, Liquid
Property: Mole fraction of tetrahydrofuran (Gas); method: Chromatography
Solvent: Mole fraction of tetrahydrofuran	Temperature, K	Mole fraction of 1-butyl-3-methylimidazolium tetrafluoroborate	Mole fraction of tetrahydrofuran	uncertainty
0.819	337.15	0.3	0.941	0.03

System: tetrahydrofuran + water + 1-butyl-3-methylimidazolium bis(trifluoromethylsulfonyl)imide; phases: Gas, Liquid
Property: Mole fraction of tetrahydrofuran (Gas); method: Chromatography
Solvent: Mole fraction of tetrahydrofuran	Mole fraction of 1-butyl-3-methylimidazolium bis(trifluoromethylsulfonyl)imide	Temperature, K	Mole fraction of tetrahydrofuran	uncertainty
0.819	0.3	337.15	0.851	0.03

System: tetrahydrofuran + water + 1-ethyl-3-methylimidazolium chloride; phases: Gas, Liquid
Property: Mole fraction of tetrahydrofuran (Gas); method: Chromatography
Solvent: Mole fraction of tetrahydrofuran	Temperature, K	Mole fraction of 1-ethyl-3-methylimidazolium chloride	Mole fraction of tetrahydrofuran	uncertainty
0.82	337.15	0.3	0.993	0.007

System: tetrahydrofuran + water + 1-ethyl-3-methylimidazolium ethyl sulfate; phases: Gas, Liquid
Property: Mole fraction of tetrahydrofuran (Gas); method: Chromatography
Solvent: Mole fraction of tetrahydrofuran	Mole fraction of 1-ethyl-3-methylimidazolium ethyl sulfate	Temperature, K	Mole fraction of tetrahydrofuran	uncertainty
0.819	0.3	337.15	0.984	0.016

System: tetrahydrofuran + water + 1-ethyl-3-methylimidazolium trifluoromethanesulfonate; phases: Gas, Liquid
Property: Mole fraction of tetrahydrofuran (Gas); method: Chromatography
Solvent: Mole fraction of tetrahydrofuran	Temperature, K	Mole fraction of 1-ethyl-3-methylimidazolium trifluoromethanesulfonate	Mole fraction of tetrahydrofuran	uncertainty
0.82	337.15	0.3	0.947	0.03

System: tetrahydrofuran + water + 1-ethyl-3-methylimidazolium tetrafluoroborate; phases: Gas, Liquid
Property: Mole fraction of tetrahydrofuran (Gas); method: Chromatography
Solvent: Mole fraction of tetrahydrofuran	Mole fraction of 1-ethyl-3-methylimidazolium tetrafluoroborate	Temperature, K	Mole fraction of tetrahydrofuran	uncertainty
0.82	0.3	337.15	0.952	0.03

System: tetrahydrofuran + water + 1-ethyl-3-methylimidazolium hexafluorophosphate; phases: Gas, Liquid
Property: Mole fraction of tetrahydrofuran (Gas); method: Chromatography
Solvent: Mole fraction of tetrahydrofuran	Temperature, K	Mole fraction of 1-ethyl-3-methylimidazolium hexafluorophosphate	Mole fraction of tetrahydrofuran	uncertainty
0.819	337.15	0.3	0.909	0.03

System: tetrahydrofuran + water + 1-ethyl-3-methylimidazolium bis((trifluoromethyl)sulfonyl)imide; phases: Gas, Liquid
Property: Mole fraction of tetrahydrofuran (Gas); method: Chromatography
Solvent: Mole fraction of tetrahydrofuran	Temperature, K	Mole fraction of 1-ethyl-3-methylimidazolium bis((trifluoromethyl)sulfonyl)imide	Mole fraction of tetrahydrofuran	uncertainty
0.82	337.15	0.3	0.872	0.03

System: methylcyclohexane + toluene + 1-octylquinolinium bis[(trifluoromethyl)sulfonyl]imide; phases: Gas, Liquid
Fixed: Temperature, K = 373.15
Fixed: Mole fraction of 1-octylquinolinium bis[(trifluoromethyl)sulfonyl]imide = 0.3
Property: Mole fraction of methylcyclohexane (Gas); method: Chromatography
Solvent: Mole fraction of methylcyclohexane	Mole fraction of methylcyclohexane	uncertainty
0.601	0.769	0.03
0.7	0.831	0.03
0.798	0.887	0.03
0.898	0.942	0.03
0.95	0.972	0.028

System: tetrahydrofuran + water + 1-butyl-3-methylimidazolium octyl sulfate; phases: Gas, Liquid
Property: Mole fraction of tetrahydrofuran (Gas); method: Chromatography
Solvent: Mole fraction of tetrahydrofuran	Temperature, K	Mole fraction of 1-butyl-3-methylimidazolium octyl sulfate	Mole fraction of tetrahydrofuran	uncertainty
0.818	337.15	0.3	0.99	0.01

System: tetrahydrofuran + water + 1-butyl-3-methylimidazolium thiocyanate; phases: Gas, Liquid
Property: Mole fraction of tetrahydrofuran (Gas); method: Chromatography
Solvent: Mole fraction of tetrahydrofuran	Temperature, K	Mole fraction of 1-butyl-3-methylimidazolium thiocyanate	Mole fraction of tetrahydrofuran	uncertainty
0.818	337.15	0.3	0.975	0.025

System: tetrahydrofuran + water + 1-butyl-3-methylimidazolium salicylate; phases: Gas, Liquid
Property: Mole fraction of tetrahydrofuran (Gas); method: Chromatography
Solvent: Mole fraction of tetrahydrofuran	Temperature, K	Mole fraction of 1-butyl-3-methylimidazolium salicylate	Mole fraction of tetrahydrofuran	uncertainty
0.818	337.15	0.3	0.974	0.026
