Measured thermophysical data. Phase equilibria in the system Na+, K+//SO4(2-)-(CH2OH)2-H2O and Na+, K+//Cl , SO4(2-)-(CH2OH)2-H2O at 328.15 K
Source: J. Chem. Thermodyn., 2017, 10.1016/j.jct.2017.05.002
Compound 1: potassium sulfate, K2O4S, InChI=1S/2K.H2O4S/c;;1-5(2,3)4/h;;(H2,1,2,3,4)/q2*+1;/p-2, purity 99%
Compound 2: sodium sulfate, Na2O4S, InChI=1S/2Na.H2O4S/c;;1-5(2,3)4/h;;(H2,1,2,3,4)/q2*+1;/p-2, purity 99%
Compound 3: 1,2-ethanediol, C2H6O2, InChI=1S/C2H6O2/c3-1-2-4/h3-4H,1-2H2, purity 99.8%
Compound 4: water, H2O, InChI=1S/H2O/h1H2

System: 1,2-ethanediol + water + potassium sulfate; phases: Liquid
Property: Refractive index (Na D-line) (Liquid); method: Standard Abbe refractometry
Solvent: Mass fraction of 1,2-ethanediol	Mass fraction of potassium sulfate	Temperature, K	Pressure, kPa	Refractive index (Na D-line)	uncertainty
0.3	0.0532	328.15	88.4	1.3612	0.0006

System: 1,2-ethanediol + water + potassium sulfate; phases: Liquid
Property: Viscosity, Pa*s (Liquid); method: Capillary tube (Ostwald; Ubbelohde) method
Solvent: Mass fraction of 1,2-ethanediol	Mass fraction of potassium sulfate	Temperature, K	Pressure, kPa	Viscosity, Pa*s	uncertainty
0.3	0.0532	328.15	88.4	0.0010339	0.0001036

System: 1,2-ethanediol + water + potassium sulfate; phases: Liquid
Property: Mass density, kg/m3 (Liquid); method: Pycnometric method
Solvent: Mass fraction of 1,2-ethanediol	Mass fraction of potassium sulfate	Temperature, K	Pressure, kPa	Mass density, kg/m3	uncertainty
0.3	0.0532	328.15	88.4	1061.9	2.2

System: 1,2-ethanediol + water + potassium sulfate; phases: Liquid, Crystal
Property: Mass fraction of potassium sulfate (Liquid); method: Titration method
Solvent: Mass fraction of 1,2-ethanediol	Temperature, K	Pressure, kPa	Mass fraction of potassium sulfate	uncertainty
0.3	328.15	88.4	0.0532	0.0021

System: 1,2-ethanediol + water + sodium sulfate; phases: Liquid
Property: Refractive index (Na D-line) (Liquid); method: Standard Abbe refractometry
Solvent: Mass fraction of 1,2-ethanediol	Mass fraction of sodium sulfate	Temperature, K	Pressure, kPa	Refractive index (Na D-line)	uncertainty
0.3	0.1342	328.15	88.4	1.373	0.0006

System: 1,2-ethanediol + water + sodium sulfate; phases: Liquid
Property: Viscosity, Pa*s (Liquid); method: Capillary tube (Ostwald; Ubbelohde) method
Solvent: Mass fraction of 1,2-ethanediol	Mass fraction of sodium sulfate	Temperature, K	Pressure, kPa	Viscosity, Pa*s	uncertainty
0.3	0.1342	328.15	88.4	0.0015934	0.0001596

System: 1,2-ethanediol + water + sodium sulfate; phases: Liquid
Property: Mass density, kg/m3 (Liquid); method: Pycnometric method
Solvent: Mass fraction of 1,2-ethanediol	Mass fraction of sodium sulfate	Temperature, K	Pressure, kPa	Mass density, kg/m3	uncertainty
0.3	0.1342	328.15	88.4	1140.6	2.5

System: 1,2-ethanediol + water + sodium sulfate; phases: Liquid, Crystal
Property: Mass fraction of sodium sulfate (Liquid); method: Titration method
Solvent: Mass fraction of 1,2-ethanediol	Temperature, K	Pressure, kPa	Mass fraction of sodium sulfate	uncertainty
0.3	328.15	88.4	0.1342	0.0081
