Measured thermophysical data. Liquid-liquid equilibrium and heat capacity measurements of the binary solution {ethanol + 1-butyl-3-methylimidazolium hexafluorophosphate}
Source: J. Chem. Thermodyn., 2017, 10.1016/j.jct.2017.07.014
Compound 1: 1-butyl-3-methylimidazolium hexafluorophosphate, C8H15F6N2P, InChI=1S/C8H15N2.F6P/c1-3-4-5-10-7-6-9(2)8-10;1-7(2,3,4,5)6/h6-8H,3-5H2,1-2H3;/q+1;-1, purity 99%
Compound 2: ethanol, C2H6O, InChI=1S/C2H6O/c1-2-3/h3H,2H2,1H3, purity 99.8%

System: 1-butyl-3-methylimidazolium hexafluorophosphate; phases: Liquid
Fixed: Pressure, kPa = 108
Fixed: Wavelength, nm = 632.8
Property: Refractive index (other wavelength) (Liquid); method: minimum deviation method
Temperature, K	Refractive index (other wavelength)	uncertainty
315.206	1.4038	0.0003
321.472	1.4021	0.0003
317.26	1.4032	0.0003
323.47	1.4016	0.0003
319.226	1.4027	0.0003
325.405	1.4011	0.0003

System: ethanol; phases: Liquid
Fixed: Pressure, kPa = 108
Fixed: Wavelength, nm = 632.8
Property: Refractive index (other wavelength) (Liquid); method: minimum deviation method
Temperature, K	Refractive index (other wavelength)	uncertainty
315.241	1.3509	0.0002
321.315	1.3483	0.0002
317.21	1.3501	0.0002
323.304	1.3474	0.0002
319.256	1.3492	0.0002
325.389	1.3465	0.0002

System: 1-butyl-3-methylimidazolium hexafluorophosphate + ethanol; phases: Liquid mixture 1, Liquid mixture 2, Air at 1 atmosphere
Property: Upper consolute composition: mole fraction of 1-butyl-3-methylimidazolium hexafluorophosphate (Liquid mixture 1); method: equal voume method
Upper consolute composition: mole fraction of 1-butyl-3-methylimidazolium hexafluorophosphate	uncertainty
0.107	0.002

System: 1-butyl-3-methylimidazolium hexafluorophosphate + ethanol; phases: Liquid mixture 1, Liquid mixture 2, Air at 1 atmosphere
Property: Upper consolute temperature, K (Liquid mixture 1); method: equal volume method
Upper consolute temperature, K	uncertainty
325.34	0.1

System: 1-butyl-3-methylimidazolium hexafluorophosphate + ethanol; phases: Liquid mixture 1, Liquid mixture 2
Fixed: Pressure, kPa = 109
Property: Mole fraction of 1-butyl-3-methylimidazolium hexafluorophosphate (Liquid mixture 1); method: Index of refraction calibration data
Temperature, K	Mole fraction of 1-butyl-3-methylimidazolium hexafluorophosphate	uncertainty
325.333	0.096	0.008
325.326	0.094	0.007
325.322	0.092	0.007
325.316	0.091	0.006
325.31	0.09	0.007
325.302	0.089	0.007
325.288	0.088	0.007
325.271	0.086	0.006
325.261	0.084	0.006
325.246	0.083	0.006
325.232	0.082	0.006
325.205	0.08	0.005
325.181	0.079	0.005
325.155	0.077	0.005
325.118	0.076	0.005
325.084	0.074	0.005
325.027	0.072	0.004
324.972	0.071	0.004
324.908	0.069	0.004
324.849	0.067	0.004
324.774	0.065	0.004
324.674	0.064	0.004
324.548	0.062	0.004
324.423	0.06	0.004
324.275	0.058	0.004
324.104	0.055	0.004
323.904	0.053	0.004
323.712	0.051	0.004
323.496	0.05	0.004
323.254	0.048	0.004
323.013	0.047	0.004
322.728	0.045	0.004
322.45	0.043	0.004
322.149	0.042	0.004
321.837	0.04	0.004
321.493	0.039	0.004
321.051	0.037	0.004
320.549	0.035	0.004
320.048	0.033	0.004
319.574	0.031	0.004
319.099	0.03	0.004
318.513	0.029	0.004
317.826	0.028	0.004
317.033	0.026	0.004
316.157	0.024	0.004

System: 1-butyl-3-methylimidazolium hexafluorophosphate + ethanol; phases: Liquid mixture 2, Liquid mixture 1
Fixed: Pressure, kPa = 109
Property: Mole fraction of 1-butyl-3-methylimidazolium hexafluorophosphate (Liquid mixture 2); method: Index of refraction calibration data
Temperature, K	Mole fraction of 1-butyl-3-methylimidazolium hexafluorophosphate	uncertainty
325.333	0.12	0.011
325.326	0.122	0.009
325.322	0.123	0.009
325.316	0.125	0.009
325.31	0.127	0.008
325.302	0.129	0.008
325.288	0.131	0.009
325.271	0.133	0.008
325.261	0.135	0.007
325.246	0.136	0.007
325.232	0.138	0.006
325.205	0.141	0.006
325.181	0.142	0.006
325.155	0.144	0.006
325.118	0.147	0.006
325.084	0.149	0.006
325.027	0.152	0.005
324.972	0.154	0.005
324.908	0.157	0.006
324.849	0.161	0.006
324.774	0.163	0.006
324.674	0.168	0.006
324.548	0.172	0.006
324.423	0.174	0.006
324.275	0.18	0.006
324.104	0.183	0.006
323.904	0.188	0.006
323.712	0.192	0.006
323.496	0.196	0.006
323.254	0.202	0.006
323.013	0.206	0.006
322.728	0.211	0.006
322.45	0.216	0.006
322.149	0.221	0.006
321.837	0.224	0.006
321.493	0.229	0.006
321.051	0.235	0.006
320.549	0.242	0.007
320.048	0.248	0.007
319.574	0.253	0.007
319.099	0.259	0.007
318.513	0.265	0.007
317.826	0.272	0.007
317.033	0.28	0.007
316.157	0.288	0.007

System: 1-butyl-3-methylimidazolium hexafluorophosphate + ethanol; phases: Liquid mixture 1, Liquid mixture 2
Fixed: Pressure, kPa = 109
Fixed: Wavelength, nm = 632.8
Property: Refractive index (other wavelength) (Liquid mixture 1); method: minimum deviation method
Temperature, K	Refractive index (other wavelength)	uncertainty
325.333	1.3641	0.001
325.326	1.3639	0.0009
325.322	1.3636	0.0007
325.316	1.3635	0.0008
325.31	1.3633	0.0008
325.302	1.3631	0.0007
325.288	1.363	0.0009
325.271	1.3627	0.0006
325.261	1.3624	0.0005
325.246	1.3623	0.0006
325.232	1.3621	0.0005
325.205	1.3619	0.0005
325.181	1.3617	0.0004
325.155	1.3614	0.0004
325.118	1.3612	0.0004
325.084	1.3609	0.0003
325.027	1.3607	0.0003
324.972	1.3605	0.0003
324.908	1.3603	0.0003
324.849	1.36	0.0003
324.774	1.3597	0.0003
324.674	1.3595	0.0003
324.548	1.3592	0.0003
324.423	1.3589	0.0003
324.275	1.3586	0.0003
324.104	1.3583	0.0002
323.904	1.358	0.0002
323.712	1.3577	0.0002
323.496	1.3575	0.0002
323.254	1.3574	0.0002
323.013	1.3572	0.0002
322.728	1.357	0.0002
322.45	1.3568	0.0002
322.149	1.3567	0.0002
321.837	1.3565	0.0002
321.493	1.3564	0.0002
321.051	1.3562	0.0002
320.549	1.3561	0.0002
320.048	1.3559	0.0002
319.574	1.3558	0.0002
319.099	1.3558	0.0002
318.513	1.3557	0.0002
317.826	1.3558	0.0002
317.033	1.3558	0.0002
316.157	1.3558	0.0002

System: 1-butyl-3-methylimidazolium hexafluorophosphate + ethanol; phases: Liquid mixture 2, Liquid mixture 1
Fixed: Pressure, kPa = 109
Fixed: Wavelength, nm = 632.8
Property: Refractive index (other wavelength) (Liquid mixture 2); method: minimum deviation method
Temperature, K	Refractive index (other wavelength)	uncertainty
325.333	1.3674	0.0012
325.326	1.3676	0.001
325.322	1.3678	0.001
325.316	1.368	0.0009
325.31	1.3682	0.0009
325.302	1.3685	0.0007
325.288	1.3687	0.0009
325.271	1.369	0.0007
325.261	1.3692	0.0006
325.246	1.3693	0.0006
325.232	1.3696	0.0006
325.205	1.3699	0.0005
325.181	1.3701	0.0004
325.155	1.3703	0.0004
325.118	1.3706	0.0004
325.084	1.3709	0.0004
325.027	1.3712	0.0003
324.972	1.3715	0.0003
324.908	1.3718	0.0003
324.849	1.3722	0.0003
324.774	1.3725	0.0003
324.674	1.373	0.0003
324.548	1.3734	0.0003
324.423	1.3737	0.0003
324.275	1.3743	0.0003
324.104	1.3747	0.0003
323.904	1.3752	0.0003
323.712	1.3756	0.0003
323.496	1.3761	0.0003
323.254	1.3767	0.0003
323.013	1.3771	0.0002
322.728	1.3776	0.0002
322.45	1.3781	0.0002
322.149	1.3786	0.0002
321.837	1.379	0.0002
321.493	1.3795	0.0002
321.051	1.3801	0.0002
320.549	1.3808	0.0002
320.048	1.3814	0.0002
319.574	1.3819	0.0002
319.099	1.3825	0.0002
318.513	1.3831	0.0002
317.826	1.3838	0.0002
317.033	1.3846	0.0002
316.157	1.3854	0.0002

System: 1-butyl-3-methylimidazolium hexafluorophosphate + ethanol; phases: Liquid
Fixed: Pressure, kPa = 108
Fixed: Wavelength, nm = 632.8
Property: Refractive index (other wavelength) (Liquid); method: minimum deviation method
Mole fraction of 1-butyl-3-methylimidazolium hexafluorophosphate	Temperature, K	Refractive index (other wavelength)	uncertainty
0	315.241	1.3509	0.0002
0	321.315	1.3483	0.0002
0	317.21	1.3501	0.0002
0	323.304	1.3474	0.0002
0	319.256	1.3492	0.0002
0	325.389	1.3465	0.0002
1	315.206	1.4038	0.0003
1	321.472	1.4021	0.0003
1	317.26	1.4032	0.0003
1	323.47	1.4016	0.0003
1	319.226	1.4027	0.0003
1	325.405	1.4011	0.0003
0.1	325.417	1.3647	0.0004
0.1	328.912	1.3636	0.0003
0.1	326.639	1.3643	0.0003
0.1	329.441	1.3634	0.0003
0.1	327.861	1.3639	0.0003
0.2	323.584	1.3759	0.0003
0.2	327.045	1.3748	0.0003
0.2	324.555	1.3756	0.0003
0.2	328.273	1.3744	0.0003
0.2	325.63	1.3753	0.0003
0.3	320.244	1.3841	0.0002
0.3	323.254	1.3832	0.0002
0.3	326.514	1.3822	0.0002
0.3	321.273	1.3838	0.0003
0.3	324.257	1.3828	0.0002
0.3	327.748	1.3817	0.0002
0.3	322.243	1.3835	0.0002
0.3	325.313	1.3825	0.0002
0.4	320.239	1.3889	0.0002
0.4	323.297	1.388	0.0002
0.4	326.482	1.387	0.0002
0.4	321.294	1.3886	0.0002
0.4	324.277	1.3877	0.0002
0.4	327.636	1.3867	0.0002
0.4	322.285	1.3884	0.0002
0.4	325.277	1.3874	0.0002
0.5	320.271	1.3923	0.0002
0.5	323.275	1.3915	0.0002
0.5	326.598	1.3905	0.0002
0.5	321.345	1.392	0.0002
0.5	324.301	1.3912	0.0002
0.5	327.647	1.3902	0.0002
0.5	322.291	1.3918	0.0002
0.5	325.337	1.3909	0.0002
0.6	320.245	1.3951	0.0003
0.6	323.299	1.3943	0.0003
0.6	326.603	1.3934	0.0003
0.6	321.293	1.3949	0.0003
0.6	324.278	1.394	0.0003
0.6	327.674	1.3931	0.0003
0.6	322.294	1.3945	0.0003
0.6	325.284	1.3938	0.0003
0.7	320.249	1.3973	0.0003
0.7	323.302	1.3965	0.0003
0.7	326.613	1.3956	0.0003
0.7	321.276	1.3971	0.0003
0.7	324.24	1.3962	0.0003
0.7	327.733	1.3953	0.0003
0.7	322.271	1.3968	0.0003
0.7	325.318	1.396	0.0003
0.801	320.263	1.3992	0.0003
0.801	323.278	1.3984	0.0003
0.801	326.582	1.3975	0.0003
0.801	321.267	1.3989	0.0003
0.801	324.234	1.3981	0.0003
0.801	327.929	1.3972	0.0003
0.801	322.289	1.3987	0.0003
0.801	325.265	1.3979	0.0003
0.901	320.237	1.4008	0.0003
0.901	323.235	1.4	0.0003
0.901	326.59	1.3991	0.0003
0.901	321.271	1.4005	0.0003
0.901	324.228	1.3997	0.0003
0.901	327.914	1.3987	0.0003
0.901	322.269	1.4002	0.0003
0.901	325.31	1.3994	0.0003

System: 1-butyl-3-methylimidazolium hexafluorophosphate + ethanol; phases: Liquid
Fixed: Pressure, kPa = 102.6
Fixed: Mole fraction of 1-butyl-3-methylimidazolium hexafluorophosphate = 0.107
Property: Molar heat capacity at constant pressure, J/K/mol (Liquid); method: Large sample (1 g) DSC
Temperature, K	Molar heat capacity at constant pressure, J/K/mol	uncertainty
348.152	176.791721399119	3.1480516963016
347.823	176.648628140197	3.1480516963016
347.507	176.720174769658	3.1480516963016
347.168	177.077907916965	3.1480516963016
346.855	176.433988251812	3.1480516963016
346.536	176.648628140197	3.1480516963016
346.188	176.147801733967	3.0765050668402
345.87	175.861615216121	3.0765050668402
345.554	175.933161845583	3.0765050668402
345.214	176.076255104505	3.0765050668402
344.9	175.861615216121	3.0765050668402
344.56	175.79006858666	3.0765050668402
344.236	175.718521957198	3.0765050668402
343.908	175.718521957198	3.0765050668402
343.602	175.646975327737	3.0765050668402
343.256	175.79006858666	3.0765050668402
342.93	175.432335439353	3.0765050668402
342.602	175.575428698276	3.0765050668402
342.304	174.931509033123	3.0765050668402
341.977	175.28924218043	3.0765050668402
341.638	175.003055662584	3.0765050668402
341.32	175.074602292046	3.0765050668402
340.99	175.28924218043	3.0765050668402
340.664	175.575428698276	3.0765050668402
340.345	175.074602292046	3.0765050668402
340.036	174.716869144739	3.0765050668402
339.694	174.716869144739	3.0765050668402
339.351	174.072949479586	3.0765050668402
339.05	174.216042738509	3.0765050668402
338.717	174.430682626893	3.0765050668402
338.391	174.144496109048	3.0765050668402
338.065	174.072949479586	3.0765050668402
337.74	174.072949479586	3.0765050668402
337.414	173.500576443895	3.0765050668402
337.089	172.785110149281	3.0765050668402
336.76	172.928203408204	3.0765050668402
336.379	173.071296667127	3.0765050668402
336.094	173.285936555511	3.0765050668402
335.784	173.715216332279	3.0765050668402
335.462	174.216042738509	3.0765050668402
335.137	173.858309591202	3.0765050668402
334.812	173.715216332279	3.0765050668402
334.486	173.572123073356	3.0765050668402
334.161	173.500576443895	3.0765050668402
333.836	173.357483184972	3.0765050668402
333.511	173.429029814434	3.0765050668402
333.185	173.429029814434	3.0765050668402
332.86	173.429029814434	3.0765050668402
332.534	173.285936555511	3.0765050668402
332.209	173.429029814434	3.0765050668402
331.884	173.429029814434	3.0765050668402
331.559	173.429029814434	3.0765050668402
331.234	173.429029814434	3.0765050668402
330.908	173.500576443895	3.0765050668402
330.582	173.572123073356	3.0765050668402
330.257	173.643669702818	3.0765050668402
329.932	173.715216332279	3.0765050668402
329.607	173.786762961741	3.0765050668402
329.281	173.929856220663	3.0765050668402
328.956	174.072949479586	3.0765050668402
328.63	174.28758936797	3.0765050668402
328.305	174.359135997432	3.0765050668402
327.979	174.573775885816	3.0765050668402
327.654	174.931509033123	3.0765050668402
327.329	175.360788809891	3.0765050668402
327.004	175.933161845583	3.1480516963016
326.679	176.791721399119	3.1480516963016
326.352	178.079560729425	3.1480516963016
326.028	181.084519166803	5.8668236158348
325.703	210.275543987055	5.1513573212208
325.377	205.338826554218	3.7919713614542
325.052	201.761495081148	3.57733147307
324.726	198.255710237539	3.5057848436086
324.401	195.894671465313	3.2911449552244
324.075	194.606832135008	3.2911449552244
323.75	192.961259657396	3.219598325763
323.424	191.959606844936	3.219598325763
323.1	190.886407403015	3.219598325763
322.775	190.170941108401	3.219598325763
322.449	189.383928184326	3.219598325763
322.123	188.59691526025	3.1480516963016
321.798	187.952995595098	3.1480516963016
321.473	187.094436041561	3.1480516963016
321.148	186.450516376408	3.1480516963016
320.822	186.02123659964	3.1480516963016
320.497	185.377316934487	3.1480516963016
320.171	184.876490528258	3.1480516963016
319.846	184.375664122028	3.1480516963016
319.521	183.874837715798	3.1480516963016
319.195	183.302464680107	3.1480516963016
318.87	182.658545014954	3.0765050668402
318.545	182.300811867647	3.0765050668402
318.219	181.799985461417	3.0765050668402
317.894	181.227612425726	3.0765050668402
317.568	180.869879278419	3.0765050668402
317.243	180.440599501651	3.0765050668402
316.918	179.86822646596	3.0765050668402
316.592	179.582039948114	3.0765050668402
316.267	179.081213541884	3.0765050668402
315.942	178.795027024039	3.0765050668402
315.616	178.151107358886	3.0765050668402
315.291	177.86492084104	3.0765050668402
314.966	177.435641064272	3.0765050668402
314.641	177.077907916965	3.0049584373788
314.315	176.720174769658	3.0049584373788
