Measured thermophysical data. Solubility, solution thermodynamics and preferential solvation for 4- bromopyrazole in mixed solvents of (methanol/ethanol + water) from T = (283.15 to 318.15) K
Source: J. Chem. Thermodyn., 2017, 10.1016/j.jct.2017.05.005
Compound 1: 4-bromopyrazole, C3H3BrN2, InChI=1S/C3H3BrN2/c4-3-1-5-6-2-3/h1-2H,(H,5,6), purity 98.7%
Compound 2: methanol, CH4O, InChI=1S/CH4O/c1-2/h2H,1H3, purity 99.5%
Compound 3: ethanol, C2H6O, InChI=1S/C2H6O/c1-2-3/h3H,2H2,1H3, purity 99.5%
Compound 4: water, H2O, InChI=1S/H2O/h1H2

System: methanol + 4-bromopyrazole + water; phases: Liquid, Crystal
Fixed: Pressure, kPa = 101
Property: Mole fraction of 4-bromopyrazole (Liquid); method: Chromatography
Temperature, K	Solvent: Mass fraction of methanol	Mole fraction of 4-bromopyrazole	uncertainty
283.15	0	0.004799	0.000413
285.65	0	0.005014	0.000431
288.15	0	0.005324	0.000458
290.65	0	0.005617	0.000483
293.15	0	0.005911	0.000509
295.65	0	0.006231	0.000536
298.15	0	0.006602	0.000568
300.65	0	0.006955	0.000598
303.15	0	0.007332	0.000631
305.65	0	0.007717	0.000664
308.15	0	0.008095	0.000696
310.65	0	0.008481	0.00073
313.15	0	0.008946	0.00077
315.65	0	0.009406	0.000809
318.15	0	0.009874	0.000849
283.15	0.09883	0.006521	0.000561
285.65	0.09883	0.006954	0.000598
288.15	0.09883	0.007388	0.000636
290.65	0.09883	0.007841	0.000675
293.15	0.09883	0.008312	0.000715
295.65	0.09883	0.008769	0.000754
298.15	0.09883	0.009269	0.000797
300.65	0.09883	0.009857	0.000848
303.15	0.09883	0.01045	0.0009
305.65	0.09883	0.01106	0.00095
308.15	0.09883	0.01167	0.001
310.65	0.09883	0.01231	0.00106
313.15	0.09883	0.01304	0.00112
315.65	0.09883	0.01373	0.00118
318.15	0.09883	0.01456	0.00125
283.15	0.1992	0.01106	0.00095
285.65	0.1992	0.01179	0.00101
288.15	0.1992	0.0126	0.00108
290.65	0.1992	0.01332	0.00115
293.15	0.1992	0.0142	0.00122
295.65	0.1992	0.01509	0.0013
298.15	0.1992	0.01605	0.00138
300.65	0.1992	0.017	0.00146
303.15	0.1992	0.01809	0.00156
305.65	0.1992	0.01916	0.00165
308.15	0.1992	0.02031	0.00175
310.65	0.1992	0.02149	0.00185
313.15	0.1992	0.02287	0.00197
315.65	0.1992	0.02416	0.00208
318.15	0.1992	0.0258	0.00222
283.15	0.2985	0.02005	0.00173
285.65	0.2985	0.02162	0.00186
288.15	0.2985	0.02308	0.00199
290.65	0.2985	0.02449	0.00211
293.15	0.2985	0.02605	0.00224
295.65	0.2985	0.0279	0.0024
298.15	0.2985	0.02997	0.00258
300.65	0.2985	0.03211	0.00276
303.15	0.2985	0.03423	0.00295
305.65	0.2985	0.03641	0.00313
308.15	0.2985	0.03903	0.00336
310.65	0.2985	0.04142	0.00357
313.15	0.2985	0.04418	0.0038
315.65	0.2985	0.04686	0.00403
318.15	0.2985	0.04986	0.00429
283.15	0.3981	0.03677	0.00316
285.65	0.3981	0.03981	0.00343
288.15	0.3981	0.04318	0.00372
290.65	0.3981	0.04648	0.004
293.15	0.3981	0.04999	0.0043
295.65	0.3981	0.05365	0.00462
298.15	0.3981	0.05781	0.00498
300.65	0.3981	0.06203	0.00534
303.15	0.3981	0.06641	0.00572
305.65	0.3981	0.07104	0.00611
308.15	0.3981	0.07577	0.00652
310.65	0.3981	0.0808	0.00695
313.15	0.3981	0.08619	0.00742
315.65	0.3981	0.09153	0.00788
318.15	0.3981	0.09684	0.00833
283.15	0.501	0.06106	0.00526
285.65	0.501	0.06545	0.00563
288.15	0.501	0.06974	0.006
290.65	0.501	0.0743	0.00639
293.15	0.501	0.07957	0.00685
295.65	0.501	0.0848	0.0073
298.15	0.501	0.08982	0.00773
300.65	0.501	0.09576	0.00824
303.15	0.501	0.102	0.0088
305.65	0.501	0.1084	0.0093
308.15	0.501	0.1155	0.0099
310.65	0.501	0.122	0.0105
313.15	0.501	0.1296	0.0112
315.65	0.501	0.1371	0.0118
318.15	0.501	0.1443	0.0124
283.15	0.5989	0.08597	0.0074
285.65	0.5989	0.09229	0.00794
288.15	0.5989	0.09935	0.00855
290.65	0.5989	0.1068	0.0092
293.15	0.5989	0.1149	0.0099
295.65	0.5989	0.1239	0.0107
298.15	0.5989	0.1316	0.0113
300.65	0.5989	0.1404	0.0121
303.15	0.5989	0.1506	0.013
305.65	0.5989	0.1605	0.0138
308.15	0.5989	0.1718	0.0148
310.65	0.5989	0.1833	0.0158
313.15	0.5989	0.195	0.0168
315.65	0.5989	0.2067	0.0178
318.15	0.5989	0.2226	0.0192
283.15	0.6974	0.1104	0.0095
285.65	0.6974	0.1181	0.0102
288.15	0.6974	0.1264	0.0109
290.65	0.6974	0.1365	0.0117
293.15	0.6974	0.1465	0.0126
295.65	0.6974	0.1566	0.0135
298.15	0.6974	0.1689	0.0145
300.65	0.6974	0.181	0.0156
303.15	0.6974	0.1931	0.0166
305.65	0.6974	0.2069	0.0178
308.15	0.6974	0.2198	0.0189
310.65	0.6974	0.234	0.0201
313.15	0.6974	0.2492	0.0214
315.65	0.6974	0.2658	0.0229
318.15	0.6974	0.285	0.0245
283.15	0.7958	0.1361	0.0117
285.65	0.7958	0.1459	0.0126
288.15	0.7958	0.1563	0.0134
290.65	0.7958	0.1681	0.0145
293.15	0.7958	0.1797	0.0155
295.65	0.7958	0.193	0.0166
298.15	0.7958	0.2095	0.018
300.65	0.7958	0.2232	0.0192
303.15	0.7958	0.2394	0.0206
305.65	0.7958	0.2548	0.0219
308.15	0.7958	0.2703	0.0233
310.65	0.7958	0.2876	0.0247
313.15	0.7958	0.3061	0.0263
315.65	0.7958	0.3255	0.028
318.15	0.7958	0.3486	0.03
283.15	0.8977	0.1656	0.0142
285.65	0.8977	0.1777	0.0153
288.15	0.8977	0.1907	0.0164
290.65	0.8977	0.2049	0.0176
293.15	0.8977	0.2203	0.019
295.65	0.8977	0.2352	0.0202
298.15	0.8977	0.2511	0.0216
300.65	0.8977	0.2677	0.023
303.15	0.8977	0.2855	0.0246
305.65	0.8977	0.305	0.0262
308.15	0.8977	0.3245	0.0279
310.65	0.8977	0.3453	0.0297
313.15	0.8977	0.3668	0.0316
315.65	0.8977	0.3899	0.0335
318.15	0.8977	0.4135	0.0356
283.15	1	0.2031	0.0175
285.65	1	0.2183	0.0188
288.15	1	0.2335	0.0201
290.65	1	0.2517	0.0217
293.15	1	0.2698	0.0232
295.65	1	0.2922	0.0251
298.15	1	0.3116	0.0268
300.65	1	0.3328	0.0286
303.15	1	0.3553	0.0306
305.65	1	0.3789	0.0326
308.15	1	0.4024	0.0346
310.65	1	0.4258	0.0366
313.15	1	0.452	0.0389
315.65	1	0.4793	0.0412
318.15	1	0.503	0.0428

System: ethanol + 4-bromopyrazole + water; phases: Liquid, Crystal
Fixed: Pressure, kPa = 101
Property: Mole fraction of 4-bromopyrazole (Liquid); method: Chromatography
Temperature, K	Solvent: Mass fraction of ethanol	Mole fraction of 4-bromopyrazole	uncertainty
283.15	0	0.004802	0.000413
285.65	0	0.00501	0.000431
288.15	0	0.005319	0.000458
290.65	0	0.005617	0.000483
293.15	0	0.005911	0.000509
295.65	0	0.006232	0.000536
298.15	0	0.006607	0.000568
300.65	0	0.006947	0.000598
303.15	0	0.007332	0.000631
305.65	0	0.007716	0.000664
308.15	0	0.008108	0.000698
310.65	0	0.008483	0.00073
313.15	0	0.008949	0.00077
315.65	0	0.009408	0.000809
318.15	0	0.009873	0.000849
283.15	0.1008	0.00912	0.000785
285.65	0.1008	0.00966	0.000831
288.15	0.1008	0.01018	0.00088
290.65	0.1008	0.01081	0.00093
293.15	0.1008	0.01149	0.00099
295.65	0.1008	0.01218	0.00105
298.15	0.1008	0.01297	0.00112
300.65	0.1008	0.01365	0.00117
303.15	0.1008	0.01451	0.00125
305.65	0.1008	0.01538	0.00132
308.15	0.1008	0.01628	0.0014
310.65	0.1008	0.0172	0.00148
313.15	0.1008	0.01817	0.00156
315.65	0.1008	0.01921	0.00165
318.15	0.1008	0.02031	0.00175
283.15	0.1982	0.0179	0.00154
285.65	0.1982	0.01895	0.00163
288.15	0.1982	0.01993	0.00171
290.65	0.1982	0.02108	0.00181
293.15	0.1982	0.02222	0.00191
295.65	0.1982	0.02348	0.00202
298.15	0.1982	0.02476	0.00213
300.65	0.1982	0.02617	0.00225
303.15	0.1982	0.02759	0.00237
305.65	0.1982	0.02906	0.0025
308.15	0.1982	0.03063	0.00264
310.65	0.1982	0.03229	0.00278
313.15	0.1982	0.03393	0.00292
315.65	0.1982	0.03557	0.00306
318.15	0.1982	0.03738	0.00322
283.15	0.2988	0.03749	0.00323
285.65	0.2988	0.0392	0.00337
288.15	0.2988	0.04091	0.00352
290.65	0.2988	0.04269	0.00367
293.15	0.2988	0.04465	0.00384
295.65	0.2988	0.04666	0.00402
298.15	0.2988	0.04899	0.00422
300.65	0.2988	0.05121	0.00441
303.15	0.2988	0.05358	0.00461
305.65	0.2988	0.05575	0.0048
308.15	0.2988	0.05807	0.005
310.65	0.2988	0.06047	0.0052
313.15	0.2988	0.063	0.00542
315.65	0.2988	0.06575	0.00566
318.15	0.2988	0.06895	0.00593
283.15	0.401	0.06787	0.00584
285.65	0.401	0.07026	0.00605
288.15	0.401	0.07266	0.00625
290.65	0.401	0.07549	0.0065
293.15	0.401	0.07825	0.00673
295.65	0.401	0.08119	0.00699
298.15	0.401	0.08448	0.00727
300.65	0.401	0.08758	0.00754
303.15	0.401	0.09071	0.00781
305.65	0.401	0.0939	0.00808
308.15	0.401	0.09735	0.00838
310.65	0.401	0.1008	0.0087
313.15	0.401	0.1039	0.0089
315.65	0.401	0.1077	0.0093
318.15	0.401	0.1118	0.0096
283.15	0.5003	0.09547	0.00821
285.65	0.5003	0.09948	0.00856
288.15	0.5003	0.1038	0.0089
290.65	0.5003	0.108	0.0093
293.15	0.5003	0.1125	0.0097
295.65	0.5003	0.1175	0.0101
298.15	0.5003	0.1229	0.0106
300.65	0.5003	0.1283	0.011
303.15	0.5003	0.1338	0.0115
305.65	0.5003	0.14	0.012
308.15	0.5003	0.1469	0.0126
310.65	0.5003	0.1534	0.0132
313.15	0.5003	0.1607	0.0138
315.65	0.5003	0.167	0.0144
318.15	0.5003	0.1733	0.0149
283.15	0.5997	0.1245	0.0107
285.65	0.5997	0.1302	0.0112
288.15	0.5997	0.1361	0.0117
290.65	0.5997	0.142	0.0122
293.15	0.5997	0.1482	0.0128
295.65	0.5997	0.1549	0.0133
298.15	0.5997	0.1626	0.014
300.65	0.5997	0.1698	0.0146
303.15	0.5997	0.1772	0.0152
305.65	0.5997	0.1854	0.016
308.15	0.5997	0.1938	0.0167
310.65	0.5997	0.2022	0.0174
313.15	0.5997	0.2104	0.0181
315.65	0.5997	0.2191	0.0189
318.15	0.5997	0.2273	0.0196
283.15	0.6979	0.1478	0.0127
285.65	0.6979	0.1549	0.0133
288.15	0.6979	0.1624	0.014
290.65	0.6979	0.1699	0.0146
293.15	0.6979	0.1782	0.0153
295.65	0.6979	0.1872	0.0161
298.15	0.6979	0.1966	0.0169
300.65	0.6979	0.2066	0.0178
303.15	0.6979	0.2169	0.0187
305.65	0.6979	0.2284	0.0196
308.15	0.6979	0.2392	0.0206
310.65	0.6979	0.2515	0.0216
313.15	0.6979	0.2638	0.0227
315.65	0.6979	0.2759	0.0237
318.15	0.6979	0.2891	0.0249
283.15	0.8004	0.1774	0.0153
285.65	0.8004	0.1859	0.016
288.15	0.8004	0.1951	0.0168
290.65	0.8004	0.205	0.0176
293.15	0.8004	0.2152	0.0185
295.65	0.8004	0.226	0.0194
298.15	0.8004	0.2368	0.0204
300.65	0.8004	0.2475	0.0213
303.15	0.8004	0.2592	0.0223
305.65	0.8004	0.272	0.0234
308.15	0.8004	0.2858	0.0246
310.65	0.8004	0.2994	0.0258
313.15	0.8004	0.3146	0.0271
315.65	0.8004	0.33	0.0284
318.15	0.8004	0.3506	0.0302
283.15	0.8975	0.2066	0.0178
285.65	0.8975	0.2165	0.0186
288.15	0.8975	0.2269	0.0195
290.65	0.8975	0.2383	0.0205
293.15	0.8975	0.2506	0.0216
295.65	0.8975	0.2639	0.0227
298.15	0.8975	0.278	0.0239
300.65	0.8975	0.2928	0.0252
303.15	0.8975	0.3087	0.0266
305.65	0.8975	0.3264	0.0281
308.15	0.8975	0.3434	0.0295
310.65	0.8975	0.3611	0.0311
313.15	0.8975	0.3765	0.0324
315.65	0.8975	0.3955	0.034
318.15	0.8975	0.4148	0.0357
283.15	1	0.2646	0.0228
285.65	1	0.2754	0.0237
288.15	1	0.2875	0.0247
290.65	1	0.2992	0.0257
293.15	1	0.3109	0.0267
295.65	1	0.3249	0.028
298.15	1	0.3388	0.0291
300.65	1	0.3538	0.0304
303.15	1	0.3716	0.032
305.65	1	0.3895	0.0335
308.15	1	0.4088	0.0352
310.65	1	0.4315	0.0371
313.15	1	0.4568	0.0393
315.65	1	0.4815	0.0414
318.15	1	0.5063	0.0425

System: 4-bromopyrazole + water; phases: Liquid, Crystal
Fixed: Pressure, kPa = 101
Property: Mole fraction of 4-bromopyrazole (Liquid); method: Chromatography
Temperature, K	Mole fraction of 4-bromopyrazole	uncertainty
283.15	0.004799	0.000413
285.65	0.005014	0.000431
288.15	0.005324	0.000458
290.65	0.005617	0.000483
293.15	0.005911	0.000509
295.65	0.006231	0.000536
298.15	0.006602	0.000568
300.65	0.006955	0.000598
303.15	0.007332	0.000631
305.65	0.007717	0.000664
308.15	0.008095	0.000696
310.65	0.008481	0.00073
313.15	0.008946	0.00077
315.65	0.009406	0.000809
318.15	0.009874	0.000849
283.15	0.004802	0.000413
285.65	0.00501	0.000431
288.15	0.005319	0.000458
295.65	0.006232	0.000536
298.15	0.006607	0.000568
300.65	0.006947	0.000598
305.65	0.007716	0.000664
308.15	0.008108	0.000698
310.65	0.008483	0.00073
313.15	0.008949	0.00077
315.65	0.009408	0.000809
318.15	0.009873	0.000849

System: methanol + 4-bromopyrazole; phases: Liquid, Crystal
Fixed: Pressure, kPa = 101
Property: Mole fraction of 4-bromopyrazole (Liquid); method: Chromatography
Temperature, K	Mole fraction of 4-bromopyrazole	uncertainty
283.15	0.2031	0.0175
285.65	0.2183	0.0188
288.15	0.2335	0.0201
290.65	0.2517	0.0217
293.15	0.2698	0.0232
295.65	0.2922	0.0251
298.15	0.3116	0.0268
300.65	0.3328	0.0286
303.15	0.3553	0.0306
305.65	0.3789	0.0326
308.15	0.4024	0.0346
310.65	0.4258	0.0366
313.15	0.452	0.0389
315.65	0.4793	0.0412
318.15	0.503	0.0428

System: ethanol + 4-bromopyrazole; phases: Liquid, Crystal
Fixed: Pressure, kPa = 101
Property: Mole fraction of 4-bromopyrazole (Liquid); method: Chromatography
Temperature, K	Mole fraction of 4-bromopyrazole	uncertainty
283.15	0.2646	0.0228
285.65	0.2754	0.0237
288.15	0.2875	0.0247
290.65	0.2992	0.0257
293.15	0.3109	0.0267
295.65	0.3249	0.028
298.15	0.3388	0.0291
300.65	0.3538	0.0304
303.15	0.3716	0.032
305.65	0.3895	0.0335
308.15	0.4088	0.0352
310.65	0.4315	0.0371
313.15	0.4568	0.0393
315.65	0.4815	0.0414
318.15	0.5063	0.0425
