Measured thermophysical data. Density and sound speed study of hydration of 1-butyl-3-methylimidazolium based amino acid ionic liquids in aqueous solutions
Source: J. Chem. Thermodyn., 2014, 10.1016/j.jct.2014.07.026
Compound 1: water, H2O, InChI=1S/H2O/h1H2
Compound 2: 1-butyl-3-methylimidazolium glycinate, C10H19N3O2, InChI=1S/C8H15N2.C2H5NO2/c1-3-4-5-10-7-6-9(2)8-10;3-1-2(4)5/h6-8H,3-5H2,1-2H3;1,3H2,(H,4,5)/q+1;/p-1
Compound 3: 3-butyl-1-methyl-1H-imidazolium L-alaninate, C11H21N3O2, InChI=1S/C8H15N2.C3H7NO2/c1-3-4-5-10-7-6-9(2)8-10;1-2(4)3(5)6/h6-8H,3-5H2,1-2H3;2H,4H2,1H3,(H,5,6)/q+1;/p-1/t;2-/m.0/s1
Compound 4: 1-butyl-3-methylimidazolium L-valinate, C13H25N3O2, InChI=1S/C8H15N2.C5H11NO2/c1-3-4-5-10-7-6-9(2)8-10;1-3(2)4(6)5(7)8/h6-8H,3-5H2,1-2H3;3-4H,6H2,1-2H3,(H,7,8)/q+1;/p-1/t;4-/m.0/s1
Compound 5: 1-butyl-3-methylimidazolium L-leucinate, C14H27N3O2, InChI=1S/C8H15N2.C6H13NO2/c1-3-4-5-10-7-6-9(2)8-10;1-4(2)3-5(7)6(8)9/h6-8H,3-5H2,1-2H3;4-5H,3,7H2,1-2H3,(H,8,9)/q+1;/p-1/t;5-/m.0/s1
Compound 6: 1-butyl-3-methyl-1H-imidazolium L-isoleucinate, C14H27N3O2, InChI=1S/C8H15N2.C6H13NO2/c1-3-4-5-10-7-6-9(2)8-10;1-3-4(2)5(7)6(8)9/h6-8H,3-5H2,1-2H3;4-5H,3,7H2,1-2H3,(H,8,9)/q+1;/p-1/t;4-,5-/m.0/s1

System: water; phases: Liquid
Fixed: Pressure, kPa = 100
Property: Mass density, kg/m3 (Liquid); method: Vibrating tube method
Temperature, K	Mass density, kg/m3	uncertainty
293.15	998.206	0.107
298.15	997.047	0.107
303.15	995.65	0.107
308.15	994.035	0.108
313.15	992.219	0.108

System: water; phases: Liquid
Property: Speed of sound, m/s (Liquid); method: Linear variable-path acoustic interferometer
Pressure, kPa	Temperature, K	Frequency, MHz	Speed of sound, m/s	uncertainty
100	298.15	2	1497.7	2.5

System: water + 1-butyl-3-methylimidazolium glycinate; phases: Liquid
Fixed: Pressure, kPa = 100
Property: Mass density, kg/m3 (Liquid); method: Vibrating tube method
Temperature, K	Molality, mol/kg of 1-butyl-3-methylimidazolium glycinate	Mass density, kg/m3	uncertainty
293.15	0	998.206	0.107
293.15	0.03911	999.516	0.107
293.15	0.05766	1000.126	0.107
293.15	0.07571	1000.707	0.107
293.15	0.09405	1001.282	0.107
293.15	0.11772	1002.03	0.107
293.15	0.16344	1003.423	0.108
293.15	0.20133	1004.578	0.108
293.15	0.25353	1006.129	0.108
293.15	0.29048	1007.197	0.109
293.15	0.34958	1008.888	0.109
293.15	0.40893	1010.572	0.11
293.15	0.46066	1012.005	0.11
293.15	0.51877	1013.575	0.11
298.15	0	997.047	0.107
298.15	0.03911	998.332	0.107
298.15	0.05766	998.92	0.107
298.15	0.07571	999.491	0.107
298.15	0.09405	1000.032	0.107
298.15	0.11772	1000.771	0.107
298.15	0.16344	1002.136	0.107
298.15	0.20133	1003.251	0.108
298.15	0.25353	1004.777	0.108
298.15	0.29048	1005.833	0.108
298.15	0.34958	1007.53	0.109
298.15	0.40893	1009.105	0.109
298.15	0.46066	1010.515	0.11
298.15	0.51877	1012.108	0.11
303.15	0	995.65	0.107
303.15	0.03911	996.915	0.107
303.15	0.05766	997.485	0.107
303.15	0.07571	998.049	0.107
303.15	0.09405	998.596	0.107
303.15	0.11772	999.306	0.107
303.15	0.16344	1000.642	0.107
303.15	0.20133	1001.732	0.108
303.15	0.25353	1003.196	0.108
303.15	0.29048	1004.245	0.108
303.15	0.34958	1005.868	0.109
303.15	0.40893	1007.477	0.109
303.15	0.46066	1008.893	0.11
303.15	0.51877	1010.426	0.11
308.15	0	994.035	0.108
308.15	0.03804	995.245	0.108
308.15	0.05959	995.908	0.108
308.15	0.07881	996.479	0.108
308.15	0.09916	997.101	0.108
308.15	0.11987	997.708	0.108
308.15	0.15119	998.623	0.108
308.15	0.20596	1000.165	0.108
308.15	0.24617	1001.309	0.108
308.15	0.28725	1002.428	0.108
308.15	0.35896	1004.361	0.109
308.15	0.39537	1005.298	0.109
308.15	0.449782	1006.756	0.11
308.15	0.518774	1008.594	0.11
313.15	0	992.219	0.108
313.15	0.03949	993.444	0.108
313.15	0.05959	994.046	0.108
313.15	0.07881	994.62	0.108
313.15	0.09916	995.217	0.108
313.15	0.11987	995.816	0.108
313.15	0.15119	996.706	0.108
313.15	0.20596	998.24	0.108
313.15	0.24617	999.361	0.108
313.15	0.28725	1000.453	0.108
313.15	0.35896	1002.392	0.109
313.15	0.39537	1003.306	0.109
313.15	0.44978	1004.719	0.109
313.15	0.51877	1006.517	0.11

System: water + 1-butyl-3-methylimidazolium glycinate; phases: Liquid
Fixed: Pressure, kPa = 100
Fixed: Temperature, K = 298.15
Fixed: Frequency, MHz = 2
Property: Speed of sound, m/s (Liquid); method: Linear variable-path acoustic interferometer
Molality, mol/kg of 1-butyl-3-methylimidazolium glycinate	Speed of sound, m/s	uncertainty
0	1497.6	2.5
0.05112	1505.2	2.5
0.1057	1512.8	2.5
0.1479	1518.7	2.5
0.1966	1525.4	2.5
0.2458	1531.5	2.5
0.2904	1537.8	2.5
0.3486	1545.1	2.5
0.4012	1551.1	2.5
0.4523	1557.8	2.5
0.5271	1566.9	2.5

System: water + 3-butyl-1-methyl-1H-imidazolium L-alaninate; phases: Liquid
Fixed: Pressure, kPa = 100
Property: Mass density, kg/m3 (Liquid); method: Vibrating tube method
Temperature, K	Molality, mol/kg of 3-butyl-1-methyl-1H-imidazolium L-alaninate	Mass density, kg/m3	uncertainty
293.15	0	998.206	0.107
293.15	0.03078	999.145	0.107
293.15	0.04697	999.63	0.107
293.15	0.06646	1000.212	0.107
293.15	0.08363	1000.715	0.107
293.15	0.0978	1001.139	0.107
293.15	0.13925	1002.336	0.107
293.15	0.16743	1003.147	0.108
293.15	0.20105	1004.085	0.108
293.15	0.2513	1005.48	0.108
293.15	0.29464	1006.667	0.109
293.15	0.33122	1007.64	0.109
293.15	0.38295	1009.05	0.109
293.15	0.43373	1010.326	0.11
298.15	0	997.047	0.107
298.15	0.03078	997.956	0.107
298.15	0.04697	998.423	0.107
298.15	0.06646	998.985	0.107
298.15	0.08363	999.477	0.107
298.15	0.0978	999.884	0.107
298.15	0.13925	1001.049	0.107
298.15	0.16743	1001.834	0.107
298.15	0.20105	1002.751	0.108
298.15	0.2513	1004.094	0.108
298.15	0.29464	1005.249	0.108
298.15	0.33122	1006.214	0.109
298.15	0.38295	1007.547	0.109
298.15	0.43373	1008.881	0.11
303.15	0	995.65	0.107
303.15	0.03078	996.541	0.107
303.15	0.04697	996.999	0.107
303.15	0.06646	997.554	0.107
303.15	0.08363	998.04	0.107
303.15	0.0978	998.438	0.107
303.15	0.13925	999.57	0.107
303.15	0.16743	1000.338	0.107
303.15	0.20105	1001.231	0.108
303.15	0.2513	1002.537	0.108
303.15	0.29464	1003.669	0.108
303.15	0.33122	1004.625	0.109
303.15	0.38295	1005.952	0.109
303.15	0.43373	1007.206	0.11
308.15	0	994.035	0.108
308.15	0.03124	994.926	0.108
308.15	0.05075	995.469	0.108
308.15	0.06032	995.732	0.108
308.15	0.08315	996.374	0.108
308.15	0.09789	996.775	0.108
308.15	0.13989	997.892	0.108
308.15	0.18104	998.999	0.108
308.15	0.21076	999.761	0.108
308.15	0.25555	1000.939	0.108
308.15	0.29961	1002.034	0.108
308.15	0.3385	1003.031	0.109
308.15	0.38138	1004.064	0.109
308.15	0.43373	1005.365	0.109
313.15	0	992.219	0.108
313.15	0.03124	993.094	0.108
313.15	0.05075	993.624	0.108
313.15	0.06032	993.886	0.108
313.15	0.08315	994.504	0.108
313.15	0.09789	994.894	0.108
313.15	0.13989	996.012	0.108
313.15	0.18104	997.076	0.108
313.15	0.21076	997.849	0.108
313.15	0.25555	998.984	0.108
313.15	0.29961	1000.071	0.108
313.15	0.3385	1001.052	0.109
313.15	0.38138	1002.073	0.109
313.15	0.43373	1003.343	0.109

System: water + 3-butyl-1-methyl-1H-imidazolium L-alaninate; phases: Liquid
Fixed: Pressure, kPa = 100
Fixed: Temperature, K = 298.15
Fixed: Frequency, MHz = 2
Property: Speed of sound, m/s (Liquid); method: Linear variable-path acoustic interferometer
Molality, mol/kg of 3-butyl-1-methyl-1H-imidazolium L-alaninate	Speed of sound, m/s	uncertainty
0	1497.8	2.5
0.06346	1507.5	2.5
0.14281	1519.5	2.5
0.18481	1526.1	2.5
0.24339	1534.3	2.5
0.29681	1541.6	2.5
0.34553	1549.5	2.5
0.39341	1555.4	2.5
0.43985	1561.4	2.5
0.48718	1567.8	2.5
0.54596	1576.5	2.5

System: water + 1-butyl-3-methylimidazolium L-valinate; phases: Liquid
Fixed: Pressure, kPa = 100
Property: Mass density, kg/m3 (Liquid); method: Vibrating tube method
Temperature, K	Molality, mol/kg of 1-butyl-3-methylimidazolium L-valinate	Mass density, kg/m3	uncertainty
293.15	0	998.206	0.107
293.15	0.03333	999.132	0.107
293.15	0.05233	999.647	0.107
293.15	0.07111	1000.15	0.107
293.15	0.08607	1000.551	0.107
293.15	0.10012	1000.926	0.107
293.15	0.13801	1001.927	0.107
293.15	0.18045	1003.025	0.108
293.15	0.21873	1004.003	0.108
293.15	0.32954	1006.772	0.109
293.15	0.35947	1007.512	0.109
293.15	0.26526	1005.207	0.108
293.15	0.40456	1008.614	0.11
293.15	0.45607	1009.85	0.11
298.15	0	997.047	0.107
298.15	0.03333	997.952	0.107
298.15	0.05233	998.454	0.107
298.15	0.07111	998.947	0.107
298.15	0.08607	999.329	0.107
298.15	0.10012	999.708	0.107
298.15	0.13801	1000.657	0.107
298.15	0.18045	1001.724	0.108
298.15	0.21873	1002.665	0.108
298.15	0.32954	1005.343	0.109
298.15	0.35947	1006.075	0.109
298.15	0.26526	1003.866	0.108
298.15	0.40456	1007.106	0.109
298.15	0.45607	1008.316	0.11
303.15	0	995.65	0.107
303.15	0.03333	996.535	0.107
303.15	0.05233	997.021	0.107
303.15	0.07111	997.503	0.107
303.15	0.08607	997.878	0.107
303.15	0.10012	998.242	0.107
303.15	0.13801	999.178	0.107
303.15	0.18045	1000.224	0.108
303.15	0.21873	1001.129	0.108
303.15	0.32954	1003.73	0.109
303.15	0.35947	1004.444	0.109
303.15	0.26526	1002.261	0.108
303.15	0.40456	1005.441	0.109
303.15	0.45607	1006.667	0.11
308.15	0	994.035	0.108
308.15	0.032342	994.871	0.108
308.15	0.051335	995.354	0.108
308.15	0.06493	995.698	0.108
308.15	0.08884	996.286	0.108
308.15	0.105764	996.698	0.108
308.15	0.134661	997.389	0.108
308.15	0.181026	998.492	0.108
308.15	0.218232	999.371	0.108
308.15	0.258254	1000.299	0.108
308.15	0.317721	1001.664	0.109
308.15	0.359068	1002.598	0.109
308.15	0.404117	1003.614	0.109
308.15	0.456067	1004.693	0.11
313.15	0	992.219	0.108
313.15	0.032342	993.036	0.108
313.15	0.051335	993.509	0.108
313.15	0.06493	993.842	0.108
313.15	0.08884	994.427	0.108
313.15	0.105764	994.828	0.108
313.15	0.134661	995.499	0.108
313.15	0.181026	996.579	0.108
313.15	0.218232	997.425	0.108
313.15	0.258254	998.325	0.108
313.15	0.317721	999.623	0.109
313.15	0.359068	1000.512	0.109
313.15	0.404117	1001.498	0.109
313.15	0.456067	1002.64	0.11

System: water + 1-butyl-3-methylimidazolium L-valinate; phases: Liquid
Fixed: Pressure, kPa = 100
Fixed: Temperature, K = 298.15
Fixed: Frequency, MHz = 2
Property: Speed of sound, m/s (Liquid); method: Linear variable-path acoustic interferometer
Molality, mol/kg of 1-butyl-3-methylimidazolium L-valinate	Speed of sound, m/s	uncertainty
0	1497.6	2.5
0.06361	1509.7	2.5
0.11782	1519.6	2.5
0.14941	1525.3	2.5
0.20091	1534.4	2.5
0.24674	1542.1	2.5
0.29649	1550.5	2.5
0.34338	1558.2	2.5
0.40491	1568.3	2.5
0.44958	1575.2	2.5
0.51298	1584.9	2.5
0.57135	1593.8	2.6

System: water + 1-butyl-3-methylimidazolium L-leucinate; phases: Liquid
Fixed: Pressure, kPa = 100
Property: Mass density, kg/m3 (Liquid); method: Vibrating tube method
Temperature, K	Molality, mol/kg of 1-butyl-3-methylimidazolium L-leucinate	Mass density, kg/m3	uncertainty
293.15	0	998.206	0.107
293.15	0.03697	999.215	0.107
293.15	0.05641	999.729	0.107
293.15	0.07287	1000.173	0.107
293.15	0.09146	1000.667	0.107
293.15	0.11317	1001.233	0.107
293.15	0.15444	1002.322	0.108
293.15	0.19112	1003.249	0.108
293.15	0.23353	1004.322	0.108
293.15	0.28272	1005.517	0.109
293.15	0.39568	1008.25	0.11
293.15	0.34242	1007.011	0.109
293.15	0.45269	1009.603	0.11
293.15	0.51271	1010.961	0.111
298.15	0	997.047	0.107
298.15	0.03697	998.03	0.107
298.15	0.05641	998.525	0.107
298.15	0.07287	998.954	0.107
298.15	0.09146	999.435	0.107
298.15	0.11317	999.978	0.107
298.15	0.15444	1001.007	0.107
298.15	0.19112	1001.903	0.108
298.15	0.23353	1002.93	0.108
298.15	0.28272	1004.134	0.108
298.15	0.39568	1006.704	0.109
298.15	0.34242	1005.514	0.109
298.15	0.45269	1008.014	0.11
298.15	0.51271	1009.373	0.111
303.15	0	995.65	0.107
303.15	0.03697	996.605	0.107
303.15	0.05641	997.088	0.107
303.15	0.07287	997.496	0.107
303.15	0.09146	997.966	0.107
303.15	0.11317	998.492	0.107
303.15	0.15444	999.496	0.108
303.15	0.19112	1000.349	0.108
303.15	0.23353	1001.354	0.108
303.15	0.28272	1002.523	0.109
303.15	0.39568	1005.022	0.109
303.15	0.34242	1003.842	0.109
303.15	0.45269	1006.252	0.11
303.15	0.51271	1007.542	0.111
308.15	0	994.035	0.108
308.15	0.03562	994.921	0.108
308.15	0.05661	995.428	0.108
308.15	0.07558	995.879	0.108
308.15	0.0961	996.37	0.108
308.15	0.11405	996.791	0.108
308.15	0.15771	997.799	0.108
308.15	0.19457	998.637	0.108
308.15	0.24687	999.798	0.108
308.15	0.28133	1000.572	0.108
308.15	0.34497	1001.952	0.109
308.15	0.39916	1003.133	0.109
308.15	0.4555	1004.309	0.11
308.15	0.51271	1005.434	0.11
313.15	0	992.219	0.108
313.15	0.03562	993.087	0.108
313.15	0.05661	993.589	0.108
313.15	0.07558	994.031	0.108
313.15	0.0961	994.501	0.108
313.15	0.11405	994.919	0.108
313.15	0.15771	995.899	0.108
313.15	0.19457	996.701	0.108
313.15	0.24687	997.848	0.108
313.15	0.28133	998.573	0.109
313.15	0.34497	999.913	0.109
313.15	0.39916	1001.032	0.109
313.15	0.4555	1002.107	0.11
313.15	0.51271	1003.224	0.11

System: water + 1-butyl-3-methylimidazolium L-leucinate; phases: Liquid
Fixed: Pressure, kPa = 100
Fixed: Temperature, K = 298.15
Fixed: Frequency, MHz = 2
Property: Speed of sound, m/s (Liquid); method: Linear variable-path acoustic interferometer
Molality, mol/kg of 1-butyl-3-methylimidazolium L-leucinate	Speed of sound, m/s	uncertainty
0	1497.6	2.5
0.04773	1507.7	2.5
0.10384	1519.1	2.5
0.14954	1528.5	2.5
0.19937	1538.3	2.5
0.24465	1547.3	2.5
0.29569	1557.1	2.5
0.34905	1567.5	2.5
0.4035	1577.8	2.5
0.46053	1588.7	2.6
0.51644	1599.4	2.6

System: water + 1-butyl-3-methyl-1H-imidazolium L-isoleucinate; phases: Liquid
Fixed: Pressure, kPa = 100
Property: Mass density, kg/m3 (Liquid); method: Vibrating tube method
Temperature, K	Molality, mol/kg of 1-butyl-3-methyl-1H-imidazolium L-isoleucinate	Mass density, kg/m3	uncertainty
293.15	0	998.206	0.107
293.15	0.02906	999.041	0.107
293.15	0.04398	999.456	0.107
293.15	0.05752	999.834	0.107
293.15	0.0722	1000.244	0.107
293.15	0.07899	1000.431	0.107
293.15	0.11822	1001.489	0.107
293.15	0.1456	1002.228	0.107
293.15	0.16617	1002.783	0.108
293.15	0.17654	1003.053	0.108
293.15	0.25024	1004.974	0.108
293.15	0.29367	1006.089	0.109
293.15	0.33562	1007.148	0.109
293.15	0.38021	1008.256	0.11
298.15	0	997.047	0.107
298.15	0.02906	997.851	0.107
298.15	0.04398	998.255	0.107
298.15	0.05752	998.616	0.107
298.15	0.0722	999.019	0.107
298.15	0.07899	999.193	0.107
298.15	0.11822	1000.216	0.107
298.15	0.1456	1000.93	0.107
298.15	0.16617	1001.465	0.108
298.15	0.17654	1001.727	0.108
298.15	0.25024	1003.601	0.108
298.15	0.29367	1004.663	0.109
298.15	0.33562	1005.719	0.109
298.15	0.38021	1006.752	0.109
303.15	0	995.65	0.107
303.15	0.02906	996.433	0.107
303.15	0.04398	996.821	0.107
303.15	0.05752	997.168	0.107
303.15	0.0722	997.554	0.107
303.15	0.07899	997.73	0.107
303.15	0.11822	998.731	0.107
303.15	0.1456	999.436	0.107
303.15	0.16617	999.965	0.108
303.15	0.17654	1000.201	0.108
303.15	0.25024	1002.005	0.108
303.15	0.29367	1003.047	0.109
303.15	0.33562	1004.058	0.109
303.15	0.38021	1005.079	0.109
308.15	0	994.035	0.108
308.15	0.03034	994.828	0.108
308.15	0.0467	995.242	0.108
308.15	0.05983	995.575	0.108
308.15	0.07535	995.962	0.108
308.15	0.09204	996.388	0.108
308.15	0.12101	997.102	0.108
308.15	0.14516	997.702	0.108
308.15	0.18318	998.629	0.108
308.15	0.21907	999.468	0.108
308.15	0.26315	1000.506	0.108
308.15	0.29768	1001.311	0.109
308.15	0.33668	1002.205	0.109
308.15	0.38021	1003.17	0.109
313.15	0	992.219	0.108
313.15	0.03034	992.995	0.108
313.15	0.0467	993.401	0.108
313.15	0.05983	993.731	0.108
313.15	0.07535	994.106	0.108
313.15	0.09204	994.515	0.108
313.15	0.12101	995.217	0.108
313.15	0.14516	995.792	0.108
313.15	0.18318	996.685	0.108
313.15	0.21907	997.538	0.108
313.15	0.26315	998.53	0.108
313.15	0.29768	999.299	0.109
313.15	0.33668	1000.184	0.109
313.15	0.38021	1001.146	0.109

System: water + 1-butyl-3-methyl-1H-imidazolium L-isoleucinate; phases: Liquid
Fixed: Pressure, kPa = 100
Fixed: Temperature, K = 298.15
Fixed: Frequency, MHz = 2
Property: Speed of sound, m/s (Liquid); method: Linear variable-path acoustic interferometer
Molality, mol/kg of 1-butyl-3-methyl-1H-imidazolium L-isoleucinate	Speed of sound, m/s	uncertainty
0	1497.8	2.5
0.0472	1507.8	2.5
0.1029	1519.2	2.5
0.1481	1528.4	2.5
0.1974	1538.3	2.5
0.2422	1547.2	2.5
0.2927	1557.1	2.5
0.3455	1567.6	2.5
0.3987	1578.2	2.5
0.4518	1588.5	2.6
0.5064	1599.2	2.6
