Measured thermophysical data. Thermochemical studies on salicylaldehyde and salicylamide
Source: J. Chem. Thermodyn., 2007, 10.1016/j.jct.2007.03.006
Compound 1: carbon dioxide, CO2, InChI=1S/CO2/c2-1-3
Compound 2: water, H2O, InChI=1S/H2O/h1H2
Compound 3: oxygen, O2, InChI=1S/O2/c1-2
Compound 4: nitrogen, N2, InChI=1S/N2/c1-2
Compound 5: 2-hydroxybenzaldehyde, C7H6O2, InChI=1S/C7H6O2/c8-5-6-3-1-2-4-7(6)9/h1-5,9H, purity 98%
Compound 6: 2-hydroxybenzamide, C7H7NO2, InChI=1S/C7H7NO2/c8-7(10)5-3-1-2-4-6(5)9/h1-4,9H,(H2,8,10), purity 99%

System: 2-hydroxybenzaldehyde; phases: Crystal, Gas
Property: Molar enthalpy of vaporization or sublimation, kJ/mol (Crystal); method: Static calorimetry
Temperature, K	Molar enthalpy of vaporization or sublimation, kJ/mol	uncertainty
298.15	63.3	0.4

System: 2-hydroxybenzaldehyde; phases: Gas
Property: Molar enthalpy, kJ/mol (Gas); method: Vacuum sublimation drop method
Temperature, K	Pressure, kPa	Molar enthalpy, kJ/mol	uncertainty
386	101.3	63.3	2.5

System: 2-hydroxybenzamide; phases: Crystal, Gas
Property: Molar enthalpy of vaporization or sublimation, kJ/mol (Crystal); method: Static calorimetry
Temperature, K	Molar enthalpy of vaporization or sublimation, kJ/mol	uncertainty
298.15	113.7	0.6

System: 2-hydroxybenzamide; phases: Gas
Property: Molar enthalpy, kJ/mol (Gas); method: Vacuum sublimation drop calorimetry
Temperature, K	Pressure, kPa	Molar enthalpy, kJ/mol	uncertainty
386	101.3	113.7	4.5

Reaction: -1 2-hydroxybenzaldehyde + 7 carbon dioxide + 3 water + -7.5 oxygen
Property: Specific internal energy of reaction at constant volume, J/g
-27144.2

Reaction: -1 2-hydroxybenzamide + 7 carbon dioxide + .5 nitrogen + 3.5 water + -7.75 oxygen
Property: Specific internal energy of reaction at constant volume, J/g
-24402.8
