Measured thermophysical data. The low-temperature heat capacities, phase transitions and thermodynamic properties of 1,3-dimethyladamantane and 1-ethyladamantane
Source: J. Chem. Thermodyn., 2005, 10.1016/j.jct.2004.06.009
Compound 1: 1,3-dimethyladamantane, C12H20, InChI=1S/C12H20/c1-11-4-9-3-10(5-11)7-12(2,6-9)8-11/h9-10H,3-8H2,1-2H3
Compound 2: 1-ethyladamantane, C12H20, InChI=1S/C12H20/c1-2-12-6-9-3-10(7-12)5-11(4-9)8-12/h9-11H,2-8H2,1H3

System: 1,3-dimethyladamantane; phases: Crystal 2, Crystal 1, Gas
Property: Molar enthalpy of transition or fusion, kJ/mol (Crystal 2); method: ADIACA:UFactor:4:FP
Molar enthalpy of transition or fusion, kJ/mol	uncertainty
9.31	0.03

System: 1,3-dimethyladamantane; phases: Crystal 1, Liquid, Gas
Property: Molar enthalpy of transition or fusion, kJ/mol (Crystal 1); method: ADIACA:UFactor:4:FP
Molar enthalpy of transition or fusion, kJ/mol	uncertainty
1.541	0.041

System: 1,3-dimethyladamantane; phases: Crystal 2, Crystal 1, Gas
Property: Triple point temperature, K (Crystal 2); method: ADIACA:UFactor:4:FP
Triple point temperature, K	uncertainty
223.38	0.16

System: 1,3-dimethyladamantane; phases: Crystal 1, Liquid, Gas
Property: Triple point temperature, K (Crystal 1); method: ADIACA:UFactor:4:FP
Triple point temperature, K	uncertainty
247.79	0.16

System: 1,3-dimethyladamantane; phases: Crystal 2
Fixed: Pressure, kPa = 101.325
Property: Molar heat capacity at constant pressure, J/K/mol (Crystal 2); method: VADIAC:UFactor:4
Temperature, K	Molar heat capacity at constant pressure, J/K/mol	uncertainty
8.24	2.062	0.109
8.72	2.425	0.119
9.2	2.838	0.132
9.68	3.291	0.145
10.16	3.758	0.158
10.73	4.336	0.174
11.38	5.1	0.194
12.04	5.875	0.214
12.71	6.75	0.236
13.36	7.626	0.257
14.03	8.543	0.278
14.69	9.462	0.298
15.35	10.408	0.317
16.02	11.41	0.337
16.68	12.454	0.357
17.35	13.38	0.372
18.02	14.364	0.388
18.7	15.265	0.4
19.36	16.172	0.412
20.03	17.187	0.426
20.92	18.429	0.439
22.01	19.869	0.451
23.09	21.29	0.46
24.18	22.586	0.464
25.26	23.978	0.467
26.35	25.202	0.464
27.44	26.348	0.458
30.7	29.559	0.397
31.79	30.559	0.405
32.87	31.438	0.412
33.96	32.41	0.42
35.04	33.238	0.426
36.12	34.108	0.433
37.2	34.834	0.439
38.29	35.571	0.445
39.37	36.348	0.451
40.44	37.089	0.457
41.52	37.792	0.463
42.59	38.45	0.468
43.67	39.146	0.473
44.74	39.935	0.48
45.82	40.577	0.485
46.91	41.261	0.49
49.08	42.535	0.5
50.15	43.168	0.506
51.21	43.972	0.512
52.28	44.549	0.517
53.34	45.28	0.522
54.4	45.93	0.528
55.46	46.84	0.535
56.52	47.675	0.542
58.46	49.491	0.556
60.51	51.105	0.569
62.53	52.456	0.58
63	52.933	0.584
63.91	53.569	0.589
64.83	54.058	0.593
65.75	54.71	0.598
66.66	55.077	0.601
67.58	55.664	0.605
68.49	56.238	0.61
69.41	57.055	0.617
71.4	57.874	0.623
73.43	58.841	0.631
75.49	59.925	0.639
77.45	60.937	0.648
79.6	62.146	0.657
81.55	63.113	0.665
82.51	63.177	0.665
83.54	64.039	0.672
84.58	64.377	0.675
85.62	65.275	0.682
86.66	66.25	0.69
87.69	66.496	0.692
88.73	67.152	0.697
89.76	68.171	0.706
90.79	68.779	1.075
91.82	69.622	1.079
92.85	70.648	1.083
93.88	71.071	1.084
94.91	71.832	1.087
95.93	72.841	1.091
96.96	73.519	1.094
97.98	74.022	1.096
99.01	74.65	1.099
100.04	75.78	1.103
101.06	77.138	1.109
102.08	77.293	1.109
103.1	78.161	1.113
104.13	78.649	1.115
105.15	79.244	1.117
106.17	79.769	1.119
107.18	80.753	1.123
108.2	81.193	1.125
109.21	82.31	1.129
110.22	83.304	1.133
111.24	83.759	1.135
112.25	84.738	1.139
113.26	85.564	1.142
114.27	86.064	1.144
115.29	86.712	1.147
116.3	87.606	1.151
117.31	88.529	1.154
118.32	89.31	1.157
119.33	90.065	1.16
120.34	90.804	1.163
121.35	91.662	1.167
122.36	92.559	1.17
123.36	93.094	1.172
124.37	94.235	1.177
125.38	94.725	1.179
126.39	95.767	1.183
127.4	96.321	1.185
128.4	97.154	1.189
129.4	97.61	1.191
130.4	98.841	1.195
131.41	99.232	1.197
132.41	99.738	1.199
133.41	100.92	1.2
135.41	102.12	1.21
136.41	102.85	1.21
137.41	103.66	1.21
138.41	104.15	1.22
139.41	105.02	1.22
140.41	106	1.22
141.4	106.56	1.23
142.4	107.72	1.23
143.4	107.89	1.23
144.4	108.44	1.23
145.37	109.47	1.24
146.37	110.32	1.24
147.36	111.05	1.24
148.36	112.04	1.25
149.35	112.85	1.25
150.34	113.58	1.25
151.33	114.44	1.26
153.32	115.43	1.26
154.31	116.66	1.27
155.3	117.21	1.27
156.29	118.03	1.27
157.28	118.57	1.27
158.26	119.55	1.28
159.25	119.81	1.28
160.24	120.34	1.28
161.21	122.14	1.29
162.2	123.06	1.29
163.18	123.69	1.29
164.17	123.65	1.29
165.15	125.01	1.3
166.14	125.6	1.3
167.12	126.03	1.3
168.11	127.28	1.31
169.09	127.61	1.31
170.07	128.22	1.31
171.06	129.42	1.32
172.04	130.05	1.32
173.02	130.24	1.32
174	130.98	1.32
174.98	131.94	1.33
175.95	133.61	1.33
177.89	134.48	1.34
178.87	134.87	1.34
179.85	135.66	1.34
180.58	136.61	1.35
181.56	136.89	1.35
182.53	137.98	1.35
183.51	138.41	1.35
184.48	139.16	1.36
185.46	140.28	1.36
186.43	141.09	1.36
187.4	142.02	1.37
189.35	143.47	1.37
190.3	143.86	1.38
194.17	146.97	1.39
195.13	148.03	1.39
197.07	149.99	1.4
198.04	150.21	1.4
198.92	151.08	1.4
199.88	152.08	1.41
201.81	154.34	1.42
202.78	154.59	1.42
203.74	155.44	1.42
204.71	156.27	1.43
205.67	156.84	1.43
206.64	157.68	1.43
207.51	158.4	1.43
208.55	158.98	1.44
209.51	160.26	1.44
210.47	161.38	1.45
211.43	162.2	1.45
212.27	162.95	1.45
213.23	163.97	1.46
214.19	164.82	1.46
215.15	165.6	1.46
216.12	166.3	1.47
217.08	166.99	1.47
218.03	167.93	1.47
218.99	169.35	1.48
219.95	170.97	1.48

System: 1,3-dimethyladamantane; phases: Crystal 1
Fixed: Pressure, kPa = 101.325
Property: Molar heat capacity at constant pressure, J/K/mol (Crystal 1); method: VADIAC:UFactor:4
Temperature, K	Molar heat capacity at constant pressure, J/K/mol	uncertainty
225.79	199.33	1.6
226.66	199.97	1.6
227.53	201.06	1.6
228.4	201.46	1.61
230.04	202.98	1.61
230.88	203.84	1.88
230.9	202.87	1.88
231.76	203.35	1.61
232.42	205.24	1.62
233.95	206.13	1.62
235.48	207.28	1.63
237	208.26	1.63
238.51	209.76	1.64
240.02	210.33	1.64
241.45	210.84	1.64
242.96	212.78	1.65
244.46	214.29	1.66

System: 1,3-dimethyladamantane; phases: Liquid
Fixed: Pressure, kPa = 101.325
Property: Molar heat capacity at constant pressure, J/K/mol (Liquid); method: VADIAC:UFactor:4
Temperature, K	Molar heat capacity at constant pressure, J/K/mol	uncertainty
251.29	225.79	1.7
252.68	226.58	1.71
254.08	227.55	1.71
255.49	228.41	1.71
256.89	229.48	1.72
258.3	230.29	1.72
259.7	231	1.72
261.1	232.08	1.73
262.5	232.76	1.73
263.89	233.85	1.74
265.29	235.31	1.74
266.68	235.54	1.74
268.08	236.58	1.75
269.46	237.84	1.75
270.85	239.09	1.76
272.24	239.93	1.76
273.56	240.47	1.76
274.94	241.87	1.77
277.72	243.58	1.77
279.1	244.65	1.78
280.48	245.61	1.78
281.85	246.79	1.79
283.23	247.54	1.79
284.61	248.53	1.79
285.98	249.45	1.8
287.36	250.28	1.8
288.73	251.39	1.81
290.1	252.27	1.81
291.46	253.18	1.81
292.84	254.46	1.82
294.2	254.72	1.82
295.48	256.04	1.82
296.85	256.83	1.83
298.22	258.31	1.83
299.58	259.27	1.84
300.95	260.05	1.84
302.3	260.79	1.84
303.66	261.66	1.85
306.37	263.51	1.85
307.73	264.36	1.86
309.08	265.4	1.86
310.42	266.59	1.87
311.76	267.05	1.87
313.08	268.41	1.87
314.41	269.34	1.88
315.76	270.21	1.88
317	270.69	1.88
318.33	272.36	1.89
319.67	272.93	1.89
321.02	273.59	1.89
322.36	274.52	1.9
323.7	275.69	1.9
325.04	276.85	1.91
326.38	276.96	1.91
327.72	278.17	1.91
329.06	279.49	1.92
330.4	280.25	1.92
331.73	281.52	1.93
334.39	283.43	1.93
335.72	284.46	1.94
337.04	285.09	1.94
338.23	285.9	1.94
339.56	286.67	1.95
340.88	287.92	1.95
342.17	289.16	1.96
343.47	290.19	1.96
344.79	291.02	1.96
346.09	292.18	1.97
347.39	292.25	1.97
348.71	293.14	1.97
350.02	294.11	1.98
351.34	294.99	1.98
352.65	295.66	1.98
353.96	296.46	1.99
355.26	297.51	1.99
356.57	298.73	1.99
357.86	298.97	2
359	299.74	2

System: 1,3-dimethyladamantane; phases: Liquid
Property: Molar enthalpy, kJ/mol (Liquid); method: VADIAC:UFactor:4
Temperature, K	Pressure, kPa	Molar enthalpy, kJ/mol	uncertainty
298.15	101.325	47.19	0.43

System: 1,3-dimethyladamantane; phases: Liquid
Property: Molar entropy, J/K/mol (Liquid); method: VADIAC:UFactor:4
Temperature, K	Pressure, kPa	Molar entropy, J/K/mol	uncertainty
298.15	101.325	283.07	2.9

System: 1-ethyladamantane; phases: Crystal, Liquid, Gas
Property: Molar enthalpy of transition or fusion, kJ/mol (Crystal); method: ADIACA:UFactor:4:FP
Molar enthalpy of transition or fusion, kJ/mol	uncertainty
11.28	0.05

System: 1-ethyladamantane; phases: Crystal, Liquid, Gas
Property: Triple point temperature, K (Crystal); method: ADIACA:UFactor:4:FP
Triple point temperature, K	uncertainty
225.56	0.16

System: 1-ethyladamantane; phases: Crystal
Fixed: Pressure, kPa = 101.325
Property: Molar heat capacity at constant pressure, J/K/mol (Crystal); method: VADIAC:UFactor:4
Temperature, K	Molar heat capacity at constant pressure, J/K/mol	uncertainty
8.03	1.395	0.087
8.87	1.961	0.104
9.72	2.621	0.124
10.57	3.39	0.145
11.44	4.278	0.169
12.32	5.225	0.194
13.21	6.255	0.219
14.1	7.376	0.245
14.99	8.556	0.271
15.9	9.727	0.294
16.8	10.962	0.318
17.71	12.223	0.34
18.62	13.484	0.359
19.54	14.717	0.377
20.54	16.129	0.395
21.56	17.517	0.409
22.59	18.888	0.421
23.61	20.316	0.431
24.63	21.668	0.438
26.68	24.201	0.441
27.71	25.398	0.437
28.74	26.624	0.432
29.76	27.845	0.425
30.79	29.119	0.394
32.85	31.294	0.411
33.87	32.436	0.42
34.9	33.503	0.428
35.93	34.391	0.436
37.98	36.32	0.451
39.01	37.212	0.458
40.03	38.153	0.466
41.06	39.004	0.472
42.08	39.935	0.48
43.1	40.639	0.485
44.12	41.406	0.491
45.14	42.157	0.497
46.16	42.913	0.504
47.18	43.59	0.509
48.2	44.119	0.513
49.22	44.801	0.519
50.23	45.533	0.524
51.25	46	0.528
52.26	46.774	0.534
53.27	47.661	0.542
54.29	48.356	0.547
55.3	49.159	0.554
56.32	50.025	0.56
57.33	50.663	0.565
60.8	53.313	0.587
62.77	54.435	0.596
64.71	55.942	0.608
65.75	56.402	0.611
66.79	57.475	0.62
67.84	57.622	0.621
68.88	58.332	0.627
69.92	59.01	0.632
70.96	59.561	0.637
72	60.077	0.641
73.04	60.85	0.647
74.08	61.288	0.65
75.11	62.33	0.659
76.15	62.984	0.664
77.19	63.416	0.667
78.22	64.334	0.675
79.25	64.56	0.677
80.28	65.399	0.683
81.31	66.117	0.689
81.85	65.931	0.688
82.34	66.67	0.694
82.88	66.845	0.695
83.37	67.235	0.698
83.91	67.617	0.701
84.26	67.629	0.701
84.94	68.154	0.705
85.59	68.603	0.709
85.97	68.796	0.711
86.66	69.392	0.715
87	69.655	0.717
87.74	70.116	0.721
88.82	70.922	0.728
89.89	71.561	0.733
90.96	72.217	1.089
92.04	72.901	1.092
93.11	73.402	1.094
94.18	73.817	1.095
95.25	75.041	1.1
96.32	75.508	1.102
97.39	76.243	1.105
98.46	76.812	1.107
99.54	77.833	1.111
100.87	78.377	1.114
102.46	79.352	1.117
104.05	80.354	1.121
105.64	81.432	1.126
107.23	82.561	1.13
108.82	83.524	1.134
110.4	84.713	1.139
111.99	85.657	1.143
113.57	86.758	1.147
115.16	87.631	1.151
116.73	88.667	1.155
118.31	89.742	1.159
119.89	90.676	1.163
121.47	91.899	1.168
123.04	92.756	1.171
124.62	93.938	1.176
126.2	94.866	1.18
127.77	96.088	1.184
129.34	97.093	1.188
130.92	97.985	1.192
132.49	99.071	1.196
134.06	100.25	1.2
135.63	101.16	1.2
137.2	102.25	1.21
138.77	103.19	1.21
140.34	104.1	1.22
141.9	105.44	1.22
143.46	106.52	1.23
145.03	107.47	1.23
146.59	108.5	1.23
148.16	109.54	1.24
149.72	110.66	1.24
151.28	111.92	1.25
152.83	112.8	1.25
154.39	113.97	1.26
155.94	114.98	1.26
157.5	116.23	1.27
159.05	117.17	1.27
160.6	118.16	1.27
162.16	119.21	1.28
163.71	120.38	1.28
165.26	121.36	1.29
166.82	122.47	1.29
168.37	123.67	1.29
169.92	124.78	1.3
171.47	125.84	1.3
173.02	126.95	1.31
174.57	128.01	1.31
176.11	129.2	1.32
177.66	130.08	1.32
179.2	131.06	1.32
180.74	132.22	1.33
182.28	133.41	1.33
183.82	134.59	1.34
185.36	135.72	1.34
186.9	136.96	1.35
188.44	138.08	1.35
189.98	139.07	1.36
191.52	140.27	1.36
193.06	141.34	1.37
194.59	142.65	1.37
196.12	143.78	1.38
197.65	144.95	1.38
199.17	146.07	1.38
200.7	147.28	1.39
202.23	148.71	1.39
205.28	150.89	1.4
206.8	152.02	1.41
208.31	152.99	1.41
209.83	154.47	1.42
211.34	155.33	1.42
212.86	156.65	1.43
214.37	157.99	1.43
215.88	159.85	1.44
217.38	161.46	1.45
218.88	163.87	1.46
220.38	167.18	1.47

System: 1-ethyladamantane; phases: Liquid
Fixed: Pressure, kPa = 101.325
Property: Molar heat capacity at constant pressure, J/K/mol (Liquid); method: VADIAC:UFactor:4
Temperature, K	Molar heat capacity at constant pressure, J/K/mol	uncertainty
228.19	213.96	1.66
229.69	214.76	1.66
231.15	216.02	1.66
232.62	216.73	1.67
234.09	217.38	1.67
235.55	218.44	1.67
237.02	218.96	1.68
238.48	219.64	1.68
239.95	220.45	1.68
241.41	222.1	1.69
242.87	222.52	1.69
244.34	223.6	1.69
245.81	224.53	1.7
247.27	225.06	1.7
248.74	225.78	1.7
250.2	226.74	1.71
251.63	227.78	1.71
253.09	228.8	1.72
254.56	229.67	1.72
256.02	230.53	1.72
257.48	231.41	1.73
258.94	232.48	1.73
260.41	233.18	1.73
261.87	234.01	1.74
263.33	235.14	1.74
264.79	236.35	1.75
266.25	237.17	1.75
267.71	238.18	1.75
269.18	238.96	1.76
270.64	240.09	1.76
272.1	240.99	1.76
273.56	242.19	1.77
274.98	242.56	1.77
276.44	243.82	1.78
277.9	244.9	1.78
279.36	245.49	1.78
280.82	246.39	1.79
282.28	247.77	1.79
283.74	248.37	1.79
285.2	249.48	1.8
286.65	250.83	1.8
288.11	251.75	1.81
289.57	252.24	1.81
291.03	253.03	1.81
292.48	254.46	1.82
293.94	255.49	1.82
295.4	256.65	1.83
296.85	257.72	1.83
298.28	258.45	1.83
299.74	259.79	1.84
301.19	260.37	1.84
302.65	261.81	1.85
304.1	262.96	1.85
305.56	263.59	1.85
307.02	264.26	1.86
308.47	265.38	1.86
309.93	266.44	1.87
311.38	267.77	1.87
312.84	268.68	1.87
314.29	268.95	1.88
315.75	271	1.88
317.21	271.58	1.89
318.66	272.26	1.89
320.12	273.19	1.89
321.55	274.59	1.9
323	275.5	1.9
324.46	276.62	1.91
325.92	277.16	1.91
327.37	278.45	1.91
328.83	279.65	1.92
330.29	280.77	1.92
331.75	281.88	1.93
332.28	282.18	1.93
333.21	282.65	1.93
333.65	283.08	1.93
334.66	283.89	1.94
335.01	284.12	1.94
336.12	284.89	1.94
336.37	285.08	1.94
337.58	285.8	1.94
337.72	286.15	1.94
339.07	287.35	1.95
340.41	288.22	1.95
341.76	289.11	1.96
342.95	290.27	1.96
344.28	291.29	1.97
345.62	292.19	1.97
346.95	292.96	1.97
348.28	294.44	1.98
349.61	295.79	1.98
350.93	296.76	1.99
352.25	297.68	1.99
353.57	298.69	1.99
354.88	299.75	2
356.19	300.53	2
357.5	301.48	2.01
358.78	302.8	2.01
360.08	303.82	2.02
361.37	304.5	2.02
362.66	305.46	2.02
363.76	305.56	2.02
365.04	306.42	2.03
366.32	307.62	2.03
367.59	308.68	2.03
368.87	309.55	2.04
370.13	310.5	2.04
371.4	311.2	2.04
372.65	312.25	2.05
373.9	313.52	2.05

System: 1-ethyladamantane; phases: Liquid
Property: Molar enthalpy, kJ/mol (Liquid); method: VADIAC:UFactor:4
Temperature, K	Pressure, kPa	Molar enthalpy, kJ/mol	uncertainty
298.15	101.325	47.56	0.43

System: 1-ethyladamantane; phases: Liquid
Property: Molar entropy, J/K/mol (Liquid); method: VADIAC:UFactor:4
Temperature, K	Pressure, kPa	Molar entropy, J/K/mol	uncertainty
298.15	101.325	283.93	2.9
