Measured thermophysical data. Heat capacity of hafnia at low temperature
Source: J. Chem. Thermodyn., 2011, 10.1016/j.jct.2011.02.002
Compound 1: hafnium(IV) oxide, HfO2, InChI=1S/Hf.2O/q+4;2*-2, purity 99.95%

System: hafnium(IV) oxide; phases: Crystal
Fixed: Pressure, kPa = 101.325
Property: Molar heat capacity at constant pressure, J/K/mol (Crystal); method: Thermal relaxation technique
Temperature, K	Molar heat capacity at constant pressure, J/K/mol	uncertainty
1.92	0.0006	0.0001
2.04	0.0007	0.0001
2.19	0.0009	0.0001
2.48	0.0011	0.0001
2.8	0.0015	0.0002
3.09	0.002	0.0002
3.4	0.0027	0.0003
3.77	0.0037	0.0004
4.17	0.0048	0.0005
4.63	0.0065	0.0007
5.17	0.0091	0.0009
5.74	0.0118	0.0012
6.4	0.0162	0.0016
7.11	0.022	0.0022
7.9	0.0304	0.003
8.79	0.0411	0.0041
9.77	0.0569	0.0057
10.87	0.0795	0.008
12.08	0.1132	0.0113
13.43	0.1598	0.016
14.85	0.2256	0.0226
16.63	0.3276	0.0328
18.43	0.4834	0.0484
20.37	0.6725	0.0136
22.69	0.967	0.0195
25.26	1.3692	0.0276
28.1	1.905	0.0383
31.26	2.5686	0.0516
34.79	3.4285	0.0688
38.68	4.4691	0.0896
43	5.6843	0.1138
47.81	7.0489	0.1411
53.14	8.65	0.1731
59.07	10.4468	0.209
65.65	12.3896	0.2479
72.95	14.5012	0.2901
81.06	16.9453	0.339
90.05	19.6881	0.3938
100.01	22.3535	0.4471
110.26	25.026	0.501
120.29	27.4344	0.5487
130.3	29.9794	0.5996
140.32	32.4417	0.6488
150.53	34.5888	0.6918
160.66	36.82	0.7364
170.61	38.8271	0.7766
180.78	40.8052	0.8161
190.96	42.6205	0.8524
201.26	44.4496	0.889
211.45	46.1571	0.9231
221.7	48.0068	0.9601
231.89	49.471	0.9894
242.02	50.8904	1.0178
252.09	52.3865	1.0477
262.17	53.4543	1.0691
272.31	54.5597	1.0912
282.4	55.7011	1.114
292.46	56.8878	1.1378
302.51	58.6292	1.1726

System: hafnium(IV) oxide; phases: Crystal
Fixed: Pressure, kPa = 101.325
Property: Molar heat capacity at constant pressure, J/K/mol (Crystal); method: Thermal relaxation technique
Temperature, K	Molar heat capacity at constant pressure, J/K/mol	uncertainty
2	0.00065	8.1e-05
5	0.00802	0.00082
10	0.061	0.006
20	0.63	0.01
30	2.3	0.05
40	4.82	0.1
50	7.72	0.15
100	22.26	0.45
150	34.61	0.69
200	44.22	0.88
250	51.9	1.04
273.15	54.95	1.1
298.15	57.73	1.15

System: hafnium(IV) oxide; phases: Crystal
Fixed: Pressure, kPa = 101.325
Property: Molar enthalpy, kJ/mol (Crystal); method: Calculated from correlation
Temperature, K	Molar enthalpy, kJ/mol	uncertainty
2	4.04e-07	7.9e-08
5	1.05e-05	1.1e-06
10	0.00015	2e-05
20	0.00287	6e-05
30	0.01658	0.00034
40	0.0517	0.00104
50	0.11424	0.00229
100	0.86865	0.01738
150	2.30242	0.04605
200	4.28315	0.08567
250	6.69264	0.13386
273.15	7.93013	0.15861
298.15	9.33992	0.1868

System: hafnium(IV) oxide; phases: Crystal
Fixed: Pressure, kPa = 101.325
Property: Molar entropy, J/K/mol (Crystal); method: Calculated from correlation
Temperature, K	Molar entropy, J/K/mol	uncertainty
2	0.000322	5.1e-05
5	0.00295	0.00045
10	0.021	0.003
20	0.19	0.01
30	0.72	0.02
40	1.71	0.05
50	3.1	0.09
100	12.98	0.39
150	24.43	0.73
200	35.76	1.07
250	46.48	1.39
273.15	51.22	1.54
298.15	56.15	1.68
