Measured thermophysical data. Measurement and modelling of high pressure density and interfacial tension of (gas + n-alkane) binary mixtures
Source: J. Chem. Thermodyn., 2016, 10.1016/j.jct.2015.12.036
Compound 1: carbon dioxide, CO2, InChI=1S/CO2/c2-1-3, purity 99.995%
Compound 2: methane, CH4, InChI=1S/CH4/h1H4, purity 99.995%
Compound 3: nitrogen, N2, InChI=1S/N2/c1-2, purity 99.99%
Compound 4: decane, C10H22, InChI=1S/C10H22/c1-3-5-7-9-10-8-6-4-2/h3-10H2,1-2H3, purity 99%

System: methane + decane; phases: Liquid, Gas
Property: Surface tension liquid-gas, N/m (Liquid); method: Capillary rise
Pressure, kPa	Temperature, K	Surface tension liquid-gas, N/m	uncertainty
450	313.3	0.01956	0.00022
1080	313.3	0.01858	0.00021
2970	313.3	0.01601	0.00018
5830	313.3	0.01301	0.00017
10430	313.3	0.00896	0.00015
12460	313.3	0.0075	0.00014
15280	313.3	0.00581	0.00014
18200	313.3	0.00422	0.00011
22040	313.3	0.0028	0.0001
28020	313.3	0.00112	8e-05
29640	313.3	0.0008	7e-05
30500	313.3	0.00069	7e-05
860	343.2	0.01687	0.00022
1870	343.2	0.01592	0.00023
3620	343.2	0.01386	0.00021
7110	343.2	0.01078	0.00019
10690	343.2	0.00819	0.00017
13970	343.2	0.0063	0.00015
17340	343.2	0.0046	0.00013
20830	343.2	0.00315	0.00011
24430	343.2	0.00199	9e-05
29160	343.2	0.00086	7e-05
940	392.6	0.01296	0.00022
3850	392.6	0.01054	0.00019
7450	392.6	0.00822	0.00017
10500	392.6	0.00673	0.00015
14080	392.6	0.00483	0.00013
17860	392.6	0.00348	0.00011
21140	392.6	0.00246	0.00011
23990	392.6	0.00168	9e-05
28490	392.6	0.00083	8e-05
4180	442.3	0.00766	0.00015
7180	442.3	0.00614	0.00015
11110	442.3	0.00452	0.00013
14250	442.3	0.00331	0.00011
17430	442.3	0.0023	0.00011
20700	442.3	0.00133	9e-05
22530	442.3	0.00093	8e-05
24630	442.3	0.00061	7e-05

System: methane + decane; phases: Liquid, Gas
Property: Mass density, kg/m3 (Liquid); method: Vibrating tube method
Pressure, kPa	Temperature, K	Mass density, kg/m3	uncertainty
890	313.1	715.1	1.6
3290	313.1	702.4	1.6
5830	313.1	690.3	1.6
8310	313.1	679.5	1.6
10670	313.1	666.2	1.6
12340	313.1	659.4	1.6
15290	313.1	642.9	1.6
18170	313.1	626.2	1.6
22150	313.1	607.4	1.7
27890	313.1	569.2	1.7
34190	313.1	525.2	1.8
1870	343.3	685.6	1.6
3620	343.3	678.8	1.6
7100	343.3	662.7	1.6
10700	343.3	645.9	1.6
13980	343.3	631.1	1.6
17330	343.3	613.1	1.6
20790	343.3	592.9	1.7
24360	343.3	572.1	1.7
29100	343.3	536.7	1.8
940	392.9	647.8	1.6
3830	392.9	636.9	1.6
7420	392.9	620.9	1.6
10400	392.9	609	1.6
14210	392.9	588.5	1.6
16230	392.9	576.3	1.6
17800	392.9	570	1.6
19980	392.9	554.9	1.7
21070	392.9	547.1	1.7
23900	392.9	527.3	1.8
27050	392.9	499.9	1.8
3190	442.8	593.9	1.6
4170	442.8	590.7	1.6
7180	442.8	575.3	1.6
11090	442.8	557.8	1.6
13910	442.8	543.5	1.7
14210	442.8	541.2	1.7
17410	442.8	519.9	1.7
20710	442.8	495.1	1.7
22480	442.8	478.8	1.8
23270	442.8	470.8	1.9
23470	442.8	466.6	2.3
24480	442.8	455.4	1.9

System: methane + decane; phases: Gas, Liquid
Property: Mass density, kg/m3 (Gas); method: Vibrating tube method
Pressure, kPa	Temperature, K	Mass density, kg/m3	uncertainty
2430	313.1	16.3	7
5980	313.1	41.5	7
10290	313.1	73.4	7
14470	313.1	105.8	7
21170	313.1	160.8	7
21170	313.1	160.8	7
27750	313.1	218	7
13160	343.3	89	7
17630	343.3	117.8	7
21130	343.3	154.8	7
26580	343.3	194.7	7
29160	343.3	213.3	7
32560	343.3	245.5	7.1
10460	392.9	57.3	7
13640	392.9	76.6	7
17850	392.9	108.7	7
24850	392.9	156.7	7
29110	392.9	193.7	7
13940	442.8	75.8	7
17430	442.8	101.5	7
21340	442.8	132.7	7
26720	442.8	190.1	7.1

System: decane + carbon dioxide; phases: Liquid, Gas
Property: Surface tension liquid-gas, N/m (Liquid); method: Capillary rise
Pressure, kPa	Temperature, K	Surface tension liquid-gas, N/m	uncertainty
3490	313.5	0.01329	0.00027
5510	313.5	0.00781	0.00025
6710	313.5	0.00482	0.00024
6790	313.5	0.0044	0.00024
7090	313.5	0.0036	0.00024
990	343.2	0.01613	0.00031
3590	343.2	0.01217	0.00028
5690	343.2	0.00879	0.00025
7020	343.2	0.00683	0.00024
8390	343.2	0.00476	0.00019
10430	343.2	0.00202	0.00014
10840	343.2	0.0016	0.00014
11520	343.2	0.00084	0.00012
11800	343.2	0.0006	0.00011
1210	392.7	0.01242	0.00017
4840	392.7	0.00901	0.00016
8730	392.7	0.00545	0.00015
10810	392.7	0.00371	0.00013
12650	392.7	0.00239	0.00012
13980	392.7	0.00162	0.00011
15470	392.7	0.00058	0.0001
3600	442.5	0.00763	0.00015
6020	442.5	0.00603	0.00014
7860	442.5	0.00478	0.00013
10260	442.5	0.00339	0.00012
12640	442.5	0.00218	0.00011
14440	442.5	0.0013	9e-05

System: decane + carbon dioxide; phases: Liquid, Gas
Property: Mass density, kg/m3 (Liquid); method: Vibrating tube method
Pressure, kPa	Temperature, K	Mass density, kg/m3	uncertainty
490	313.4	722.1	1.6
1130	313.4	725.8	1.6
2300	313.4	731.8	1.6
6340	313.4	761.6	1.8
7250	313.4	771.3	1.8
980	343.3	695.7	1.5
3560	343.3	702.5	1.5
5640	343.3	708.8	1.6
7020	343.3	713.7	1.5
8400	343.3	717.7	1.5
10430	343.3	722	1.5
11510	343.3	717.2	1.8
11800	343.3	703.7	3.6
12220	343.3	688	4.5
12530	343.3	664.4	6.3
2430	393	657.8	1.5
4920	393	660.2	1.5
10530	393	663.2	1.5
12580	393	660.6	1.6
14000	393	655.2	1.6
15480	393	646.1	1.7
16640	393	632.3	1.8
3160	443.1	610.8	1.5
5730	443.1	612.4	1.5
8580	443.1	607.7	1.6
12930	443.1	598.4	1.6
15620	443.1	575.7	1.7

System: decane + carbon dioxide; phases: Gas, Liquid
Property: Mass density, kg/m3 (Gas); method: Vibrating tube method
Pressure, kPa	Temperature, K	Mass density, kg/m3	uncertainty
6750	313.4	199.8	7.4
7170	313.4	222.7	7.4
7270	313.4	228.1	7.4
8050	313.4	328.4	7.7
8070	313.4	341.3	7.8
6940	343.3	146.7	7.2
8360	343.3	206.5	7.3
10450	343.3	291.1	7.4
10820	343.3	314.6	7.4
11500	343.3	377.3	7.5
11810	343.3	398	7.5
12230	343.3	442.5	7.6
8640	393	165.6	7.2
10810	393	216.5	7.2
12610	393	264.3	7.2
13930	393	310.4	7.2
15180	393	362.2	7.3
16520	393	406	7.3
16590	393	408.8	7.3
16640	393	410.8	7.3
16660	393	411.6	7.3
10140	443.1	172.4	7.1
12570	443.1	216	7.1
12600	443.1	213	7.1
12590	443.1	212	7.1
14330	443.1	255.3	7.1

System: decane + nitrogen; phases: Liquid, Gas
Property: Surface tension liquid-gas, N/m (Liquid); method: Capillary rise
Pressure, kPa	Temperature, K	Surface tension liquid-gas, N/m	uncertainty
1190	313.4	0.02158	0.00021
3740	313.4	0.01969	0.00019
10540	313.4	0.01589	0.0002
14750	313.4	0.01404	0.0002
22000	313.4	0.01173	0.00022
27980	313.4	0.01026	0.00023
34680	313.4	0.00872	0.00024
42360	313.4	0.00749	0.00025
47330	313.4	0.00683	0.00024
51020	313.4	0.00636	0.00024
55780	313.4	0.00587	0.00025
62170	313.4	0.00524	0.00025
710	343.2	0.01903	0.00017
3720	343.2	0.01729	0.00017
7320	343.2	0.01536	0.00017
14500	343.2	0.01247	0.00017
21100	343.2	0.01047	0.00018
28290	343.2	0.00866	0.00018
35010	343.2	0.00734	0.00019
41750	343.2	0.00622	0.00019
48850	343.2	0.00537	0.00019
57070	343.2	0.00448	0.00019
64470	343.2	0.00381	0.00018
69000	343.2	0.00343	0.00018
410	392.6	0.01486	0.00016
3800	392.6	0.01321	0.00015
7480	392.6	0.01191	0.00015
14670	392.6	0.00955	0.00013
20900	392.6	0.00784	0.00012
28270	392.6	0.00612	0.00011
34920	392.6	0.00499	0.00011
41990	392.6	0.00415	0.00011
49270	392.6	0.00321	9e-05
55600	392.6	0.00267	9e-05
62590	392.6	0.00202	8e-05
64930	392.6	0.00186	8e-05
900	442.2	0.01079	0.00013
4380	442.2	0.00944	0.00012
7630	442.2	0.00865	0.00011
16350	442.2	0.00619	0.0001
21240	442.2	0.00519	9e-05
28270	442.2	0.00388	8e-05
35480	442.2	0.00286	8e-05
45910	442.2	0.00155	7e-05
48670	442.2	0.00131	6e-05
55670	442.2	0.0009	6e-05

System: decane + nitrogen; phases: Liquid, Gas
Property: Mass density, kg/m3 (Liquid); method: Vibrating tube method
Pressure, kPa	Temperature, K	Mass density, kg/m3	uncertainty
1460	313.2	719.3	1.5
10440	313.2	721.8	1.5
33740	313.2	724.1	1.6
41030	313.2	726.6	1.6
45180	313.2	728.1	1.6
48830	313.2	729.7	1.6
53570	313.2	731.5	1.6
59940	313.2	733.8	1.7
67770	313.2	737.4	1.7
710	343.5	693	1.5
3570	343.5	693.2	1.5
6960	343.5	693.5	1.5
14160	343.5	694.4	1.5
20540	343.5	695.4	1.6
26740	343.5	696.1	1.6
34090	343.5	698.4	1.6
40580	343.5	699.4	1.6
47420	343.5	701.9	1.7
62650	343.5	706.7	1.7
68080	343.5	709.2	1.7
410	393.3	652.2	1.5
7240	393.3	651.5	1.5
14160	393.3	650.9	1.6
20450	393.3	650.9	1.6
27480	393.3	650.2	1.6
34030	393.3	650.3	1.6
40960	393.3	650.4	1.7
47810	393.3	650.6	1.7
53830	393.3	650.6	1.7
61530	393.3	650.3	1.8
64830	393.3	652.5	1.8
7650	443.2	607.2	1.5
16510	443.2	603.8	1.6
21110	443.2	602.7	1.6
27580	443.2	599.5	1.6
35230	443.2	595.7	1.7
40780	443.2	591.9	1.7
47060	443.2	588.7	1.8
54700	443.2	584.3	1.8

System: decane + nitrogen; phases: Gas, Liquid
Property: Mass density, kg/m3 (Gas); method: Vibrating tube method
Pressure, kPa	Temperature, K	Mass density, kg/m3	uncertainty
1250	313.2	15.3	7.1
3910	313.2	44.1	7.1
9320	313.2	102	7
19640	313.2	200.6	7
28120	313.2	270.3	7
35040	313.2	318.5	7
38760	313.2	341.7	7
48690	313.2	395.5	7.1
59430	313.2	442.7	7.1
67050	313.2	471	7.1
11970	343.5	120.3	7
27330	343.5	242.1	7
41050	343.5	329.3	7
54150	343.5	390.1	7.1
63310	343.5	428.4	7.1
13930	393.3	117.3	7
25290	393.3	200.5	7
34630	393.3	258.5	7
48920	393.3	331.5	7
58580	393.3	373.5	7.1
67270	393.3	410.5	7.1
11360	443.2	89.2	7
19410	443.2	146.3	7
31050	443.2	218.8	7
38020	443.2	261.9	7
43450	443.2	287.4	7
