Measured thermophysical data. Volumetric study of diethylamine-water mixtures between 278.15 K and 308.15 K
Source: J. Chem. Thermodyn., 2004, 10.1016/j.jct.2004.07.008
Compound 1: diethylamine, C4H11N, InChI=1S/C4H11N/c1-3-5-4-2/h5H,3-4H2,1-2H3, purity 99%
Compound 2: water, H2O, InChI=1S/H2O/h1H2

System: diethylamine; phases: Liquid
Fixed: Pressure, kPa = 100
Property: Mass density, kg/m3 (Liquid); method: VIBTUB:UFactor:8
Temperature, K	Mass density, kg/m3	uncertainty
278.15	719.94	1.182
288.15	709.52	1.211
293.15	704.59	1.225
298.15	698.97	1.241
308.15	688.29	1.272

System: diethylamine + water; phases: Liquid
Fixed: Pressure, kPa = 100
Property: Mass density, kg/m3 (Liquid); method: VIBTUB:UFactor:8
Mole fraction of diethylamine	Temperature, K	Mass density, kg/m3	uncertainty
0	278.15	999.964	0.253
0	288.15	999.097	0.256
0	293.15	998.201	0.258
0	298.15	997.041	0.262
0	308.15	994.027	0.271
0.0006	278.15	999.491	0.258
0.0006	288.15	998.664	0.26
0.0006	293.15	997.751	0.263
0.0006	298.15	996.626	0.267
0.0006	308.15	993.562	0.276
0.0024	278.15	997.912	0.263
0.0024	288.15	997.039	0.266
0.0024	293.15	996.154	0.268
0.0024	298.15	994.988	0.272
0.0024	308.15	991.942	0.281
0.0035	278.15	996.932	0.306
0.0035	288.15	996.037	0.269
0.0035	293.15	995.136	0.272
0.0035	298.15	993.969	0.275
0.0035	308.15	990.903	0.511
0.0044	278.15	996.139	0.268
0.0044	288.15	995.23	0.271
0.0044	293.15	994.323	0.274
0.0044	298.15	993.151	0.278
0.0044	308.15	990.065	0.287
0.0056	278.15	995.225	0.271
0.0056	288.15	994.285	0.274
0.0056	293.15	993.371	0.277
0.0056	298.15	992.182	0.281
0.0056	308.15	989.066	0.29
0.0064	278.15	994.57	0.273
0.0064	288.15	993.602	0.276
0.0064	293.15	992.679	0.279
0.0064	298.15	991.472	0.283
0.0064	308.15	988.353	0.292
0.0081	278.15	993.249	0.277
0.0081	288.15	992.212	0.28
0.0081	293.15	991.279	0.283
0.0081	298.15	990.04	0.287
0.0081	308.15	986.873	0.297
0.0097	278.15	992.04	0.28
0.0097	288.15	990.934	0.284
0.0097	293.15	989.98	0.287
0.0097	298.15	988.714	0.291
0.0097	308.15	985.476	0.301
0.0172	278.15	987.17	0.295
0.0172	288.15	985.63	0.3
0.0172	293.15	984.539	0.304
0.0172	298.15	983.09	0.308
0.0172	308.15	979.496	0.319
0.0291	278.15	980.983	0.314
0.0291	288.15	978.376	0.323
0.0291	293.15	976.96	0.327
0.0291	298.15	975.088	0.333
0.0291	308.15	970.666	0.347
0.04	278.15	976.381	0.329
0.04	288.15	972.612	0.341
0.04	293.15	970.596	0.348
0.04	298.15	968.411	0.354
0.04	308.15	962.812	0.372
0.0799	278.15	957.078	0.392
0.0799	288.15	949.316	0.416
0.0799	293.15	945.543	0.427
0.0799	298.15	941.882	0.439
0.0799	308.15	936.416	0.455
0.0962	288.15	939.288	0.448
0.0962	298.15	932.747	0.468
0.0962	308.15	927.169	0.485
0.1023	288.15	935.289	0.46
0.1023	298.15	928.614	0.481
0.1023	308.15	923.171	0.498
0.1157	288.15	927.131	0.486
0.1157	298.15	918.262	0.514
0.1191	278.15	933.215	0.468
0.1191	288.15	925.183	0.492
0.1191	293.15	920.953	0.505
0.1191	298.15	916.971	0.517
0.1191	308.15	910.193	0.538
0.1717	278.15	905.317	0.557
0.1717	288.15	896.85	0.583
0.1717	293.15	892.377	0.596
0.1717	298.15	888.178	0.609
0.1717	308.15	883.177	0.624
0.229	288.15	871.09	0.665
0.2382	278.15	876.611	0.649
0.2382	288.15	867.217	0.678
0.2382	293.15	863.096	0.69
0.2382	298.15	858.163	0.705
0.2382	308.15	848.844	0.734
0.2939	278.15	859.045	0.707
0.2939	293.15	842.233	0.758
0.2939	298.15	837.568	0.772
0.2939	308.15	827.974	0.801
0.3003	278.15	857.537	0.712
0.3003	288.15	844.712	0.751
0.3003	293.15	839.967	0.765
0.3003	298.15	835.41	0.779
0.3003	308.15	825.737	0.808
0.3501	288.15	829.202	0.801
0.3501	293.15	824.477	0.816
0.3501	298.15	819.781	0.83
0.3501	308.15	810.104	0.859
0.3558	278.15	838.534	0.774
0.3558	293.15	822.73	0.821
0.3558	298.15	817.933	0.836
0.3558	308.15	808.149	0.865
0.3911	298.15	809.086	0.865
0.4057	288.15	814.027	0.852
0.4057	293.15	809.021	0.867
0.4057	308.15	794.354	0.911
0.4407	278.15	815.342	0.851
0.4407	298.15	795.926	0.909
0.4625	278.15	810.256	0.868
0.4625	288.15	799.75	0.899
0.4625	293.15	795.056	0.913
0.4625	298.15	789.779	0.929
0.4625	308.15	779.967	0.958
0.4844	278.15	805.352	0.884
0.4844	298.15	784.888	0.945
0.5091	278.15	799.695	0.903
0.5091	308.15	769.213	0.994
0.523	293.15	781.055	0.96
0.523	308.15	766.718	1.002
0.5287	298.15	775.014	0.978
0.6144	278.15	779.133	0.973
0.6144	288.15	768.288	1.005
0.6144	293.15	763.538	1.019
0.6144	298.15	759.804	1.03
0.6144	308.15	748.753	1.063
0.6304	278.15	775.979	0.984
0.6304	293.15	760.21	1.031
0.6304	308.15	745.249	1.075
0.7017	278.15	763.313	1.028
0.7017	293.15	747.769	1.073
0.7017	298.15	742.589	1.088
0.7017	308.15	732.049	1.119
0.7022	288.15	752.772	1.059
0.7022	298.15	742.461	1.089
0.7022	308.15	732.247	1.119
0.726	293.15	742.965	1.089
0.7549	293.15	738.917	1.104
0.7549	298.15	733.676	1.119
0.7549	308.15	723.048	1.15
0.7771	278.15	751.837	1.068
0.7771	293.15	735.541	1.116
0.7771	298.15	730.331	1.131
0.7771	308.15	719.687	1.162
0.805	278.15	749.039	1.079
0.805	288.15	737.02	1.114
0.805	293.15	731.853	1.129
0.805	298.15	726.558	1.144
0.8523	278.15	741.596	1.105
0.8523	288.15	729.358	1.14
0.8523	293.15	724.287	1.155
0.8523	298.15	718.777	1.171
0.8523	308.15	708.199	1.202
0.8755	278.15	735.261	1.126
0.8755	298.15	715.631	1.182
0.8822	288.15	725.559	1.154
0.8822	293.15	719.965	1.17
0.8822	298.15	714.728	1.185
0.8941	293.15	718.394	1.176
0.8941	298.15	713.135	1.191
0.8941	308.15	702.403	1.222
0.9019	278.15	732.413	1.136
0.9019	298.15	712.05	1.195
0.931	288.15	718.71	1.178
0.931	293.15	713.312	1.194
0.931	298.15	708.033	1.209
0.941	278.15	726.848	1.156
0.941	293.15	712.088	1.198
0.941	298.15	706.818	1.213
0.941	308.15	696.061	1.244
0.9589	278.15	724.66	1.164
0.9589	298.15	704.314	1.222
0.9727	293.15	708.394	1.212
0.9727	298.15	703.131	1.227
0.9727	308.15	692.387	1.258
0.979	278.15	721.447	1.175
0.979	298.15	701.729	1.231
1	278.15	719.94	1.182
1	288.15	709.52	1.211
1	293.15	704.59	1.225
1	298.15	698.97	1.241
1	308.15	688.29	1.272
