Measured thermophysical data. Partial molar volumes of organic solutes in water. XIV. Polyhydric alcohols derived from ethane and propane at temperatures T = 298 K to T = 573 K and at pressures up to 30 MPa
Source: J. Chem. Thermodyn., 2006, 10.1016/j.jct.2005.08.015
Compound 1: water, H2O, InChI=1S/H2O/h1H2
Compound 2: 1,2-ethanediol, C2H6O2, InChI=1S/C2H6O2/c3-1-2-4/h3-4H,1-2H2, purity 99.5%
Compound 3: 1,2-propanediol, C3H8O2, InChI=1S/C3H8O2/c1-3(5)2-4/h3-5H,2H2,1H3, purity 99.5%
Compound 4: propan-1,3-diol, C3H8O2, InChI=1S/C3H8O2/c4-2-1-3-5/h4-5H,1-3H2, purity 99%
Compound 5: glycerol, C3H8O3, InChI=1S/C3H8O3/c4-1-3(6)2-5/h3-6H,1-2H2, purity 99.5%

System: 1,2-ethanediol + water; phases: Liquid
Fixed: Mole fraction of 1,2-ethanediol = 0
Property: Partial molar volume, m3/mol of 1,2-ethanediol (Liquid); method: vibrating tube densimetry
Temperature, K	Pressure, kPa	Partial molar volume, m3/mol of 1,2-ethanediol	uncertainty
298.21	640	5.462e-05	6e-08
298.21	29790	5.452e-05	4e-08
298.23	15130	5.457e-05	6e-08
318.17	470	5.548e-05	6e-08
318.17	14770	5.53e-05	6e-08
318.17	30150	5.516e-05	6e-08
338.16	440	5.63e-05	6e-08
338.16	15150	5.604e-05	6e-08
338.16	30360	5.584e-05	6e-08
373.12	30010	5.724e-05	6e-08
373.14	15170	5.754e-05	6e-08
373.15	1960	5.78e-05	6e-08
408.15	30070	5.89e-05	8e-08
408.16	1760	5.969e-05	6e-08
408.16	15000	5.932e-05	6e-08
441.98	1950	6.178e-05	8e-08
442.03	15670	6.123e-05	8e-08
442.04	29810	6.072e-05	8e-08
473.15	1900	6.408e-05	8e-08
473.15	30250	6.266e-05	8e-08
473.16	15750	6.337e-05	8e-08
498.15	15970	6.53e-05	8e-08
498.15	30110	6.448e-05	8e-08
498.16	2930	6.621e-05	8e-08
523.16	5030	6.856e-05	8e-08
523.16	16160	6.754e-05	8e-08
523.16	30260	6.653e-05	8e-08
548.17	7030	7.13e-05	1e-07
548.18	18020	6.994e-05	1e-07
548.18	30300	6.88e-05	1e-07
573.14	30090	7.119e-05	1e-07
573.18	10040	7.399e-05	1e-07
573.19	15080	7.318e-05	1e-07
573.19	19910	7.25e-05	8e-08
573.23	24730	7.182e-05	8e-08

System: 1,2-propanediol + water; phases: Liquid
Fixed: Mole fraction of 1,2-propanediol = 0
Property: Partial molar volume, m3/mol of 1,2-propanediol (Liquid); method: vibrating tube densimetry
Temperature, K	Pressure, kPa	Partial molar volume, m3/mol of 1,2-propanediol	uncertainty
298.21	640	7.123e-05	6e-08
298.22	15160	7.119e-05	6e-08
298.22	29790	7.112e-05	6e-08
318.17	500	7.214e-05	6e-08
318.17	14770	7.192e-05	6e-08
318.17	30140	7.175e-05	4e-08
338.16	440	7.321e-05	4e-08
338.16	15160	7.291e-05	6e-08
338.16	30320	7.263e-05	4e-08
373.13	15150	7.509e-05	6e-08
373.13	29980	7.46e-05	4e-08
373.14	2010	7.548e-05	6e-08
408.15	29980	7.718e-05	4e-08
408.16	1760	7.843e-05	4e-08
408.16	15000	7.781e-05	4e-08
441.99	1840	8.185e-05	4e-08
442.03	15650	8.093e-05	6e-08
442.03	29800	8.01e-05	6e-08
473.15	1890	8.576e-05	6e-08
473.15	15760	8.445e-05	6e-08
473.16	30230	8.325e-05	4e-08
498.15	2930	8.947e-05	6e-08
498.15	15970	8.777e-05	8e-08
498.15	30110	8.627e-05	8e-08
523.16	4980	9.38e-05	8e-08
523.16	16130	9.172e-05	6e-08
523.16	30320	8.966e-05	6e-08
548.17	7020	9.914e-05	8e-08
548.18	18020	9.621e-05	8e-08
548.18	30440	9.367e-05	1e-07
573.14	30360	9.86e-05	1e-07
573.18	10120	0.00010603	8e-08
573.19	19990	0.00010175	8e-08

System: propan-1,3-diol + water; phases: Liquid
Fixed: Mole fraction of propan-1,3-diol = 0
Property: Partial molar volume, m3/mol of propan-1,3-diol (Liquid); method: vibrating tube densimetry
Temperature, K	Pressure, kPa	Partial molar volume, m3/mol of propan-1,3-diol	uncertainty
298.22	640	7.193e-05	4e-08
298.22	29780	7.167e-05	4e-08
298.23	15160	7.183e-05	4e-08
318.17	480	7.262e-05	4e-08
318.17	14770	7.234e-05	4e-08
318.17	30240	7.212e-05	4e-08
338.16	440	7.345e-05	4e-08
338.16	15130	7.315e-05	4e-08
338.16	30290	7.289e-05	4e-08
373.13	30110	7.451e-05	4e-08
373.14	15170	7.496e-05	4e-08
373.16	1960	7.536e-05	4e-08
408.15	14940	7.727e-05	4e-08
408.15	30010	7.668e-05	4e-08
408.16	1870	7.783e-05	4e-08
442.02	1820	8.074e-05	4e-08
442.03	15700	7.994e-05	4e-08
442.08	29800	7.924e-05	4e-08
473.15	1940	8.402e-05	4e-08
473.16	15710	8.291e-05	4e-08
473.16	30280	8.188e-05	4e-08
498.15	15940	8.561e-05	4e-08
498.16	2960	8.701e-05	4e-08
498.16	30110	8.438e-05	4e-08
523.16	5030	9.047e-05	4e-08
523.16	16160	8.885e-05	4e-08
523.16	30260	8.723e-05	4e-08
548.18	7070	9.443e-05	4e-08
548.18	18040	9.233e-05	4e-08
548.18	30580	9.05e-05	4e-08
573.17	30240	9.414e-05	4e-08
573.18	10100	9.925e-05	4e-08
573.19	19920	9.645e-05	4e-08

System: glycerol + water; phases: Liquid
Fixed: Mole fraction of glycerol = 0
Property: Partial molar volume, m3/mol of glycerol (Liquid); method: vibrating tube densimetry
Temperature, K	Pressure, kPa	Partial molar volume, m3/mol of glycerol	uncertainty
298.21	640	7.093e-05	8e-08
298.21	29800	7.103e-05	8e-08
298.22	15170	7.097e-05	8e-08
318.17	470	7.205e-05	8e-08
318.17	14770	7.195e-05	8e-08
318.17	30260	7.194e-05	8e-08
338.16	440	7.304e-05	8e-08
338.16	15150	7.288e-05	8e-08
338.16	30360	7.277e-05	8e-08
373.13	15180	7.444e-05	1e-07
373.13	30110	7.428e-05	8e-08
373.14	1980	7.463e-05	8e-08
408.15	30120	7.586e-05	1e-07
408.16	1830	7.644e-05	1e-07
408.16	14970	7.616e-05	1e-07
441.99	1850	7.825e-05	1e-07
442.03	15670	7.795e-05	1.2e-07
442.13	29820	7.764e-05	1e-07
473.15	1960	8e-05	1.2e-07
473.15	15740	7.962e-05	1e-07
473.16	30290	7.92e-05	1e-07
498.15	3000	8.129e-05	1.2e-07
498.15	30210	8.047e-05	1.2e-07
498.16	15930	8.087e-05	1.2e-07
523.15	16150	8.212e-05	1.4e-07
523.16	5030	8.238e-05	1.6e-07
523.16	30280	8.184e-05	1.4e-07
548.17	7070	8.292e-05	1.6e-07
548.18	18040	8.309e-05	1.6e-07
548.18	30570	8.347e-05	1.4e-07
573.14	30040	8.344e-05	1.8e-07
573.18	10150	8.171e-05	1.8e-07
573.19	15080	8.249e-05	1.8e-07
573.19	19940	8.3e-05	1.6e-07
573.25	24690	8.32e-05	1.8e-07
