Measured thermophysical data. Isopiestic determination of the osmotic coefficient and vapour pressure of N-R-4-(N,N-dimethylamino)pyridinium tetrafluoroborate (R = C4H9, C5H11, C6H13) in the ethanol solution at T = 298.15 K
Source: J. Chem. Thermodyn., 2012, 10.1016/j.jct.2012.01.007
Compound 1: 4-(dimethylamino)-1-butylpyridinium tetrafluoroborate, C11H19BF4N2, InChI=1S/C11H19N2.BF4/c1-4-5-8-13-9-6-11(7-10-13)12(2)3;2-1(3,4)5/h6-7,9-10H,4-5,8H2,1-3H3;/q+1;-1
Compound 2: 4-(dimethylamino)-1-pentylpyridinium tetrafluoroborate, C12H21BF4N2, InChI=1S/C12H21N2.BF4/c1-4-5-6-9-14-10-7-12(8-11-14)13(2)3;2-1(3,4)5/h7-8,10-11H,4-6,9H2,1-3H3;/q+1;-1
Compound 3: 4-(dimethylamino)-1-hexylpyridinium tetrafluoroborate, C13H23BF4N2, InChI=1S/C13H23N2.BF4/c1-4-5-6-7-10-15-11-8-13(9-12-15)14(2)3;2-1(3,4)5/h8-9,11-12H,4-7,10H2,1-3H3;/q+1;-1
Compound 4: ethanol, C2H6O, InChI=1S/C2H6O/c1-2-3/h3H,2H2,1H3, purity 99.8%

System: ethanol + 4-(dimethylamino)-1-butylpyridinium tetrafluoroborate; phases: Liquid, Gas
Fixed: Temperature, K = 298.15
Property: Osmotic coefficient (Liquid); method: ISOPIE
Molality, mol/kg of 4-(dimethylamino)-1-butylpyridinium tetrafluoroborate	Osmotic coefficient	uncertainty
0	1	0.15
0.3225	0.606	0.096
0.333	0.526	0.085
0.3357	0.6	0.095
0.3459	0.506	0.083
0.4422	0.468	0.073
0.4806	0.429	0.068
0.4806	0.445	0.07
0.4942	0.418	0.067
0.5101	0.404	0.065
0.5101	0.42	0.066
0.6548	0.383	0.061
0.7459	0.394	0.063
0.8064	0.365	0.059
0.9658	0.343	0.057
1.0752	0.327	0.055
1.1544	0.339	0.056
1.1952	0.318	0.053
1.2888	0.325	0.054
1.3927	0.322	0.054
1.6128	0.321	0.054
1.945	0.304	0.052
2.7163	0.316	0.053
3.6764	0.336	0.056
3.7632	0.326	0.055
5.4684	0.283	0.05
7.2476	0.218	0.043

System: ethanol + 4-(dimethylamino)-1-pentylpyridinium tetrafluoroborate; phases: Liquid, Gas
Fixed: Temperature, K = 298.15
Property: Osmotic coefficient (Liquid); method: ISOPIE
Molality, mol/kg of 4-(dimethylamino)-1-pentylpyridinium tetrafluoroborate	Osmotic coefficient	uncertainty
0	0.999	0.15
0.4148	0.513	0.079
0.4808	0.455	0.071
0.5469	0.468	0.073
0.568	0.397	0.074
0.6869	0.376	0.061
0.8468	0.359	0.058
0.9582	0.335	0.055
1.2909	0.38	0.061
1.7571	0.331	0.055
1.8991	0.327	0.055
2.5155	0.327	0.055
4.3042	0.283	0.049
5.3126	0.288	0.05
7.3343	0.301	0.051

System: ethanol + 4-(dimethylamino)-1-hexylpyridinium tetrafluoroborate; phases: Liquid, Gas
Fixed: Temperature, K = 298.15
Property: Osmotic coefficient (Liquid); method: ISOPIE
Molality, mol/kg of 4-(dimethylamino)-1-hexylpyridinium tetrafluoroborate	Osmotic coefficient	uncertainty
0	0.999	0.15
0.3863	0.523	0.081
0.4915	0.435	0.068
0.6139	0.417	0.066
0.7149	0.447	0.07
0.7716	0.429	0.068
1.2249	0.413	0.065
1.2249	0.431	0.068
1.3899	0.375	0.06
1.4946	0.39	0.062
1.7777	0.35	0.112
1.7994	0.409	0.117
2.2832	0.376	0.061
2.7526	0.378	0.061
3.718	0.351	0.057
4.1275	0.37	0.06
5.5812	0.384	0.062
