Measured thermophysical data. Speed of sound as a function of temperature and pressure for propane derivatives
Source: J. Chem. Thermodyn., 2017, 10.1016/j.jct.2016.12.016
Compound 1: 1-nitropropane, C3H7NO2, InChI=1S/C3H7NO2/c1-2-3-4(5)6/h2-3H2,1H3, purity 99%
Compound 2: propanenitrile, C3H5N, InChI=1S/C3H5N/c1-2-3-4/h2H2,1H3, purity 99%
Compound 3: propan-1-amine, C3H9N, InChI=1S/C3H9N/c1-2-3-4/h2-4H2,1H3, purity 99%
Compound 4: propanoic acid, C3H6O2, InChI=1S/C3H6O2/c1-2-3(4)5/h2H2,1H3,(H,4,5), purity 99%
Compound 5: 1,2-dichloropropane, C3H6Cl2, InChI=1S/C3H6Cl2/c1-3(5)2-4/h3H,2H2,1H3, purity 98.5%
Compound 6: 1,3-dichloropropane, C3H6Cl2, InChI=1S/C3H6Cl2/c4-2-1-3-5/h1-3H2, purity 99%

System: 1-nitropropane; phases: Liquid
Property: Mass density, kg/m3 (Liquid); method: Vibrating tube method
Temperature, K	Pressure, kPa	Mass density, kg/m3	uncertainty
298.15	101.325	996.1	2

System: 1-nitropropane; phases: Liquid
Property: Refractive index (Na D-line) (Liquid); method: Standard Abbe refractometry
Temperature, K	Pressure, kPa	Refractive index (Na D-line)	uncertainty
298.15	101.325	1.3993	0.0028

System: 1-nitropropane; phases: Liquid
Fixed: Frequency, MHz = 1.5
Property: Speed of sound, m/s (Liquid); method: Single path-length method
Temperature, K	Pressure, kPa	Speed of sound, m/s	uncertainty
283.15	200	1331.8	2.9
283.15	5100	1352.1	3
283.15	10100	1372.4	3
283.15	20100	1410.7	3.1
283.15	30100	1446.5	3.1
283.15	40100	1480.3	3.2
283.15	50100	1512.5	3.3
283.15	60100	1543.6	3.3
283.15	70100	1573.3	3.4
283.15	80100	1601.5	3.4
283.15	90100	1628.7	3.5
283.15	95100	1641.6	3.5
293.15	200	1292.5	2.8
293.15	5100	1313.5	2.9
293.15	10100	1334.2	3
293.15	20100	1373.9	3
293.15	30100	1411.4	3.1
293.15	40100	1446.6	3.1
293.15	50100	1479.8	3.2
293.15	60100	1511.4	3.2
293.15	70100	1541.6	3.3
293.15	80100	1570.6	3.3
293.15	90100	1598.3	3.4
293.15	95100	1611.8	3.4
303.15	200	1253.4	2.7
303.15	5100	1275.7	2.9
303.15	10100	1297.3	2.9
303.15	20100	1338	3
303.15	30100	1376.8	3
303.15	40100	1413.2	3.1
303.15	50100	1447.5	3.1
303.15	60100	1480.2	3.2
303.15	70100	1511	3.2
303.15	80100	1540.6	3.3
303.15	90100	1569	3.3
303.15	95100	1583	3.4
313.15	200	1214.4	2.6
313.15	5100	1237.7	2.8
313.15	10100	1260.6	2.9
313.15	20100	1303	2.9
313.15	30100	1342.6	3
313.15	40100	1380.1	3
313.15	50100	1415.5	3.1
313.15	60100	1449	3.1
313.15	70100	1480.7	3.2
313.15	80100	1511	3.2
313.15	90100	1540.4	3.3
313.15	95100	1554.5	3.3
323.15	200	1175.9	2.6
323.15	5100	1200.4	2.8
323.15	10100	1224.3	2.8
323.15	20100	1268.9	2.9
323.15	30100	1309.7	2.9
323.15	40100	1348.3	3
323.15	50100	1384.6	3
323.15	60100	1419.1	3.1
323.15	70100	1451.8	3.1
323.15	80100	1482.8	3.2
323.15	90100	1512.7	3.2
323.15	95100	1527.2	3.3
333.15	200	1140.1	2.5
333.15	5100	1165.2	2.7
333.15	10100	1188.7	2.7
333.15	20100	1235.2	2.8
333.15	30100	1277.9	2.9
333.15	40100	1317.1	2.9
333.15	50100	1354.4	3
333.15	60100	1389.9	3
333.15	70100	1423.5	3.1
333.15	80100	1455.3	3.1
333.15	90100	1485.8	3.2
333.15	95100	1500.3	3.2
343.15	200	1104.4	2.4
343.15	5100	1128.3	2.7
343.15	10100	1153.8	2.7
343.15	20100	1202.1	2.8
343.15	30100	1246.5	2.8
343.15	40100	1287.4	2.9
343.15	50100	1325.5	2.9
343.15	60100	1361.7	3
343.15	70100	1396.2	3
343.15	80100	1429	3.1
343.15	90100	1460	3.1
343.15	95100	1475.1	3.2

System: propanenitrile; phases: Liquid
Property: Mass density, kg/m3 (Liquid); method: Vibrating tube method
Temperature, K	Pressure, kPa	Mass density, kg/m3	uncertainty
298.15	101.325	776.7	1.6

System: propanenitrile; phases: Liquid
Property: Refractive index (Na D-line) (Liquid); method: Standard Abbe refractometry
Temperature, K	Pressure, kPa	Refractive index (Na D-line)	uncertainty
298.15	101.325	1.3638	0.0028

System: propanenitrile; phases: Liquid
Fixed: Frequency, MHz = 1.5
Property: Speed of sound, m/s (Liquid); method: Single path-length method
Temperature, K	Pressure, kPa	Speed of sound, m/s	uncertainty
283.15	100	1325.9	2.8
283.15	5000	1350.7	3.1
283.15	10000	1375.5	3.1
283.15	20000	1421.7	3.1
283.15	30000	1461.6	3.2
283.15	40000	1503.3	3.3
283.15	50000	1538.1	3.3
283.15	60000	1573.5	3.4
283.15	70000	1605.5	3.4
283.15	80000	1636.9	3.5
283.15	90000	1666.8	3.5
283.15	95000	1681.2	3.6
293.15	100	1283.6	2.8
293.15	5000	1308.9	3
293.15	10000	1333.8	3
293.15	20000	1380.4	3.1
293.15	30000	1423.7	3.1
293.15	40000	1464.1	3.2
293.15	50000	1502.2	3.3
293.15	60000	1537.8	3.3
293.15	70000	1572	3.4
293.15	80000	1604.4	3.4
293.15	90000	1635.2	3.5
293.15	95000	1650.2	3.5
303.15	100	1241.5	2.7
303.15	5000	1268.4	2.9
303.15	10000	1294.2	2.9
303.15	20000	1342.6	3
303.15	30000	1387.8	3.1
303.15	40000	1430.4	3.1
303.15	50000	1469	3.2
303.15	60000	1506	3.3
303.15	70000	1541.1	3.3
303.15	80000	1574.6	3.4
303.15	90000	1606.6	3.4
303.15	95000	1621.8	3.4
313.15	100	1199.7	2.6
313.15	5000	1228.1	2.9
313.15	10000	1255.5	2.9
313.15	20000	1305.8	3
313.15	30000	1352.3	3
313.15	40000	1395.7	3.1
313.15	50000	1436.5	3.1
313.15	60000	1474.5	3.2
313.15	70000	1510.3	3.3
313.15	80000	1544.6	3.3
313.15	90000	1577.2	3.4
313.15	95000	1592.9	3.4
323.15	100	1158.5	2.5
323.15	5000	1188.4	2.8
323.15	10000	1217.1	2.8
323.15	20000	1270.1	2.9
323.15	30000	1318	3
323.15	40000	1362.7	3
323.15	50000	1404.6	3.1
323.15	60000	1443.9	3.2
323.15	70000	1480.7	3.2
323.15	80000	1515.8	3.3
323.15	90000	1549.2	3.3
323.15	95000	1565.5	3.4
333.15	100	1119	2.5
333.15	5000	1149.9	2.8
333.15	10000	1179.8	2.8
333.15	20000	1235.3	2.9
333.15	30000	1285.2	2.9
333.15	40000	1330.9	3
333.15	50000	1374	3
333.15	60000	1414.4	3.1
333.15	70000	1452.2	3.2
333.15	80000	1488.1	3.2
333.15	90000	1522	3.3
333.15	95000	1538.5	3.3
343.15	100	1078.9	2.4
343.15	5000	1111.5	2.8
343.15	10000	1142.7	2.8
343.15	20000	1200.4	2.8
343.15	30000	1252.6	2.9
343.15	40000	1299.9	2.9
343.15	50000	1343.8	3
343.15	60000	1385.6	3.1
343.15	70000	1424.3	3.1
343.15	80000	1461.3	3.2
343.15	90000	1496.1	3.2
343.15	95000	1512.7	3.3

System: propan-1-amine; phases: Liquid
Property: Mass density, kg/m3 (Liquid); method: Vibrating tube method
Temperature, K	Pressure, kPa	Mass density, kg/m3	uncertainty
298.15	101.325	711.8	1.4

System: propan-1-amine; phases: Liquid
Property: Refractive index (Na D-line) (Liquid); method: Standard Abbe refractometry
Temperature, K	Pressure, kPa	Refractive index (Na D-line)	uncertainty
298.15	101.325	1.3851	0.0028

System: propan-1-amine; phases: Liquid
Fixed: Frequency, MHz = 1.5
Property: Speed of sound, m/s (Liquid); method: Single path-length method
Temperature, K	Pressure, kPa	Speed of sound, m/s	uncertainty
283.15	600	1292.5	3
283.15	5100	1319.6	3.1
283.15	10100	1348.8	3.1
283.15	20100	1402.8	3.2
283.15	30100	1452.1	3.2
283.15	40100	1497.9	3.3
283.15	50100	1540.7	3.3
283.15	60100	1581.2	3.4
283.15	70100	1619.2	3.5
283.15	80100	1655.1	3.5
283.15	90100	1688.7	3.6
283.15	95100	1705.9	3.6
293.15	600	1243.3	3
293.15	5100	1272.4	3
293.15	10100	1302.8	3
293.15	20100	1359.2	3.1
293.15	30100	1410.9	3.2
293.15	40100	1458.7	3.2
293.15	50100	1503.1	3.3
293.15	60100	1544.8	3.4
293.15	70100	1584.2	3.4
293.15	80100	1621.5	3.5
293.15	90100	1657.1	3.5
293.15	95100	1674.3	3.6
303.15	600	1195.5	3
303.15	5100	1226.6	3
303.15	10100	1258.9	3
303.15	20100	1318.2	3
303.15	30100	1372.1	3.1
303.15	40100	1421.8	3.2
303.15	50100	1468.2	3.2
303.15	60100	1510.9	3.3
303.15	70100	1551.5	3.4
303.15	80100	1589.9	3.4
303.15	90100	1626.4	3.5
303.15	95100	1644.2	3.5
313.15	600	1146.3	2.9
313.15	5100	1178.9	2.9
313.15	10100	1213.3	2.9
313.15	20100	1275.8	3
313.15	30100	1331.7	3
313.15	40100	1383.1	3.1
313.15	50100	1430.8	3.2
313.15	60100	1475.6	3.2
313.15	70100	1517.2	3.3
313.15	80100	1556.9	3.4
313.15	90100	1594.3	3.4
313.15	95100	1612.3	3.5
323.15	600	1097.3	2.9
323.15	5100	1132	2.9
323.15	10100	1167.7	2.9
323.15	20100	1233.6	2.9
323.15	30100	1292.3	3
323.15	40100	1345.4	3.1
323.15	50100	1394.8	3.1
323.15	60100	1440.8	3.2
323.15	70100	1483.6	3.2
323.15	80100	1524.6	3.3
323.15	90100	1562.9	3.4
323.15	95100	1581.4	3.4
333.15	600	1048	2.9
333.15	5100	1085.4	2.9
333.15	10100	1123.6	2.8
333.15	20100	1192.3	2.9
333.15	30100	1253.7	2.9
333.15	40100	1308.7	3
333.15	50100	1359.6	3.1
333.15	60100	1407	3.1
333.15	70100	1451	3.2
333.15	80100	1492.7	3.3
333.15	90100	1531.9	3.3
333.15	95100	1550.7	3.4
343.15	600	998.3	2.9
343.15	5100	1038.5	2.9
343.15	10100	1079.3	2.8
343.15	20100	1151.4	2.9
343.15	30100	1215.6	2.9
343.15	40100	1273	3
343.15	50100	1325.7	3
343.15	60100	1374.4	3.1
343.15	70100	1420.2	3.1
343.15	80100	1462.7	3.2
343.15	90100	1502.3	3.3
343.15	95100	1521.6	3.3

System: propanoic acid; phases: Liquid
Property: Mass density, kg/m3 (Liquid); method: Vibrating tube method
Temperature, K	Pressure, kPa	Mass density, kg/m3	uncertainty
298.15	101.325	987.9	2

System: propanoic acid; phases: Liquid
Property: Refractive index (Na D-line) (Liquid); method: Standard Abbe refractometry
Temperature, K	Pressure, kPa	Refractive index (Na D-line)	uncertainty
298.15	101.325	1.3845	0.0028

System: propanoic acid; phases: Liquid
Fixed: Frequency, MHz = 1.5
Property: Speed of sound, m/s (Liquid); method: Single path-length method
Temperature, K	Pressure, kPa	Speed of sound, m/s	uncertainty
283.15	100	1210.1	2.6
283.15	5000	1233.3	2.8
283.15	10000	1256.2	2.8
283.15	20000	1298.7	2.9
283.15	30000	1338.2	3
283.15	40000	1375.7	3
283.15	50000	1411.5	3.1
283.15	60000	1445.1	3.1
283.15	70000	1477	3.2
283.15	80000	1507.5	3.2
283.15	90000	1537.4	3.3
283.15	95000	1551.6	3.3
293.15	100	1169.4	2.6
293.15	5000	1193.3	2.8
293.15	10000	1217.8	2.8
293.15	20000	1262.3	2.9
293.15	30000	1303.1	2.9
293.15	40000	1341.3	3
293.15	50000	1378.1	3
293.15	60000	1412.6	3.1
293.15	70000	1445.7	3.1
293.15	80000	1476.7	3.2
293.15	90000	1506.7	3.2
293.15	95000	1521.5	3.3
303.15	100	1129.2	2.5
303.15	5000	1154.2	2.7
303.15	10000	1178.6	2.7
303.15	20000	1225.3	2.8
303.15	30000	1268.2	2.9
303.15	40000	1307.7	2.9
303.15	50000	1345.1	3
303.15	60000	1380.9	3
303.15	70000	1414.8	3.1
303.15	80000	1447	3.1
303.15	90000	1477.7	3.2
303.15	95000	1492.7	3.2
313.15	100	1090.8	2.4
313.15	5000	1117.1	2.7
313.15	10000	1142.2	2.7
313.15	20000	1189.9	2.7
313.15	30000	1234.6	2.8
313.15	40000	1275.8	2.9
313.15	50000	1313.9	2.9
313.15	60000	1350.4	3
313.15	70000	1385.1	3
313.15	80000	1418.1	3.1
313.15	90000	1449.7	3.1
313.15	95000	1464.8	3.2
323.15	100	1053.2	2.3
323.15	5000	1081.2	2.6
323.15	10000	1107.8	2.6
323.15	20000	1156.4	2.7
323.15	30000	1202.5	2.8
323.15	40000	1245.3	2.8
323.15	50000	1285	2.9
323.15	60000	1321.5	2.9
323.15	70000	1356.9	3
323.15	80000	1390.9	3
323.15	90000	1423.1	3.1
323.15	95000	1438.6	3.1
333.15	100	1017.4	2.3
333.15	5000	1046.5	2.6
333.15	10000	1074.6	2.6
333.15	20000	1125.6	2.7
333.15	30000	1172	2.7
333.15	40000	1216.2	2.8
333.15	50000	1257	2.8
333.15	60000	1295.3	2.9
333.15	70000	1330.5	2.9
333.15	80000	1365.2	3
333.15	90000	1399.1	3
333.15	95000	1413.6	3.1

System: 1,2-dichloropropane; phases: Liquid
Property: Mass density, kg/m3 (Liquid); method: Vibrating tube method
Temperature, K	Pressure, kPa	Mass density, kg/m3	uncertainty
298.15	101.325	1149.1	2.4

System: 1,2-dichloropropane; phases: Liquid
Property: Refractive index (Na D-line) (Liquid); method: Standard Abbe refractometry
Temperature, K	Pressure, kPa	Refractive index (Na D-line)	uncertainty
298.15	101.325	1.4368	0.0029

System: 1,2-dichloropropane; phases: Liquid
Fixed: Frequency, MHz = 1.5
Property: Speed of sound, m/s (Liquid); method: Single path-length method
Temperature, K	Pressure, kPa	Speed of sound, m/s	uncertainty
283.15	100	1204.4	2.8
283.15	5000	1225	3
283.15	10000	1245.1	3
283.15	20000	1282.7	3.1
283.15	30000	1317.5	3.1
283.15	40000	1350.3	3.2
283.15	50000	1382.1	3.2
283.15	60000	1412.3	3.3
283.15	70000	1440.9	3.3
283.15	80000	1468	3.3
283.15	90000	1494	3.4
283.15	95000	1506.6	3.4
293.15	100	1165	2.8
293.15	5000	1186.2	2.9
293.15	10000	1207.3	3
293.15	20000	1247	3
293.15	30000	1283.3	3.1
293.15	40000	1316.8	3.1
293.15	50000	1349	3.2
293.15	60000	1380	3.2
293.15	70000	1409.3	3.2
293.15	80000	1437.4	3.3
293.15	90000	1464.2	3.3
293.15	95000	1477.1	3.4
303.15	100	1126.3	2.7
303.15	5000	1148.1	2.9
303.15	10000	1169.5	2.9
303.15	20000	1210.8	3
303.15	30000	1249	3
303.15	40000	1284.4	3.1
303.15	50000	1317.4	3.1
303.15	60000	1348.8	3.2
303.15	70000	1379.2	3.2
303.15	80000	1408.1	3.2
303.15	90000	1435.8	3.3
303.15	95000	1449	3.3
313.15	100	1088.2	2.7
313.15	5000	1111.4	2.8
313.15	10000	1133.7	2.9
313.15	20000	1175.8	2.9
313.15	30000	1215.6	3
313.15	40000	1252.6	3
313.15	50000	1286.9	3.1
313.15	60000	1318.9	3.1
313.15	70000	1349.7	3.1
313.15	80000	1379.5	3.2
313.15	90000	1407.8	3.2
313.15	95000	1421.5	3.3
323.15	100	1050.2	2.6
323.15	5000	1075.1	2.8
323.15	10000	1098.9	2.8
323.15	20000	1142.4	2.9
323.15	30000	1183.1	2.9
323.15	40000	1221.6	3
323.15	50000	1257.5	3
323.15	60000	1290.6	3.1
323.15	70000	1321.9	3.1
323.15	80000	1352	3.2
323.15	90000	1381.2	3.2
323.15	95000	1395.6	3.2
333.15	100	1012.9	2.5
333.15	5000	1039.2	2.8
333.15	10000	1064.5	2.8
333.15	20000	1110.7	2.8
333.15	30000	1152.2	2.9
333.15	40000	1191.7	2.9
333.15	50000	1228.8	3
333.15	60000	1263.1	3
333.15	70000	1295.4	3.1
333.15	80000	1326.1	3.1
333.15	90000	1355.8	3.2
333.15	95000	1370	3.2
343.15	100	978.6	2.5
343.15	5000	998	2.7
343.15	10000	1027.2	2.8
343.15	20000	1077	2.8
343.15	30000	1121	2.8
343.15	40000	1161.5	2.9
343.15	50000	1200	2.9
343.15	60000	1236.2	3
343.15	70000	1269.8	3
343.15	80000	1301.1	3.1
343.15	90000	1331	3.1
343.15	95000	1345.5	3.1

System: 1,3-dichloropropane; phases: Liquid
Property: Mass density, kg/m3 (Liquid); method: Vibrating tube method
Temperature, K	Pressure, kPa	Mass density, kg/m3	uncertainty
298.15	101.325	1179.2	2.4

System: 1,3-dichloropropane; phases: Liquid
Property: Refractive index (Na D-line) (Liquid); method: Standard Abbe refractometry
Temperature, K	Pressure, kPa	Refractive index (Na D-line)	uncertainty
298.15	101.325	1.4459	0.0029

System: 1,3-dichloropropane; phases: Liquid
Fixed: Frequency, MHz = 1.5
Property: Speed of sound, m/s (Liquid); method: Single path-length method
Temperature, K	Pressure, kPa	Speed of sound, m/s	uncertainty
293.15	100	1259.2	2.7
293.15	5000	1277.2	2.8
293.15	10000	1295.2	2.9
293.15	20000	1329.7	2.9
293.15	30000	1362.3	3
293.15	40000	1393.7	3
293.15	50000	1423.1	3.1
293.15	60000	1451.4	3.1
293.15	70000	1477.9	3.2
293.15	80000	1503.8	3.2
293.15	90000	1528.5	3.3
293.15	95000	1540.8	3.3
303.15	100	1220.6	2.6
303.15	5000	1240.1	2.8
303.15	10000	1259.2	2.8
303.15	20000	1295.1	2.9
303.15	30000	1328.7	2.9
303.15	40000	1360.7	3
303.15	50000	1391.6	3
303.15	60000	1420.8	3.1
303.15	70000	1448.4	3.1
303.15	80000	1475	3.2
303.15	90000	1500.7	3.2
303.15	95000	1513.1	3.2
313.15	100	1182.6	2.6
313.15	5000	1203.1	2.7
313.15	10000	1223.2	2.8
313.15	20000	1260.9	2.8
313.15	30000	1295.9	2.9
313.15	40000	1328.6	2.9
313.15	50000	1360.3	3
313.15	60000	1390.4	3
313.15	70000	1419.1	3.1
313.15	80000	1446.2	3.1
313.15	90000	1472.3	3.2
313.15	95000	1485.1	3.2
323.15	100	1145.8	2.5
323.15	5000	1166.8	2.7
323.15	10000	1187.8	2.7
323.15	20000	1227.5	2.8
323.15	30000	1264.1	2.8
323.15	40000	1297.9	2.9
323.15	50000	1330	2.9
323.15	60000	1360.8	3
323.15	70000	1390.5	3
323.15	80000	1418.6	3.1
323.15	90000	1445.3	3.1
323.15	95000	1458.4	3.1
333.15	100	1110.6	2.4
333.15	5000	1132.5	2.6
333.15	10000	1153.6	2.7
333.15	20000	1194.6	2.7
333.15	30000	1232.8	2.8
333.15	40000	1268.2	2.8
333.15	50000	1301.1	2.9
333.15	60000	1332.5	2.9
333.15	70000	1362.5	3
333.15	80000	1391.5	3
333.15	90000	1419.3	3.1
333.15	95000	1432.7	3.1
343.15	100	1074.5	2.4
343.15	5000	1098.1	2.6
343.15	10000	1120.4	2.6
343.15	20000	1162.1	2.7
343.15	30000	1201.8	2.7
343.15	40000	1238.6	2.8
343.15	50000	1273.1	2.8
343.15	60000	1305.2	2.9
343.15	70000	1336.3	2.9
343.15	80000	1365.6	3
343.15	90000	1393.8	3
343.15	95000	1407.7	3
