Measured thermophysical data. Excess molar volumes and dynamic viscosities for binary mixtures of toluene + n-alkanes (C5 C10) at T = 298.15 K Comparison with Prigogine Flory Patterson theory
Source: J. Chem. Thermodyn., 2006, 10.1016/j.jct.2005.10.011
Compound 1: toluene, C7H8, InChI=1S/C7H8/c1-7-5-3-2-4-6-7/h2-6H,1H3, purity 99%
Compound 2: pentane, C5H12, InChI=1S/C5H12/c1-3-5-4-2/h3-5H2,1-2H3, purity 99%
Compound 3: hexane, C6H14, InChI=1S/C6H14/c1-3-5-6-4-2/h3-6H2,1-2H3, purity 99%
Compound 4: heptane, C7H16, InChI=1S/C7H16/c1-3-5-7-6-4-2/h3-7H2,1-2H3, purity 99%
Compound 5: octane, C8H18, InChI=1S/C8H18/c1-3-5-7-8-6-4-2/h3-8H2,1-2H3, purity 98%
Compound 6: nonane, C9H20, InChI=1S/C9H20/c1-3-5-7-9-8-6-4-2/h3-9H2,1-2H3, purity 98%
Compound 7: decane, C10H22, InChI=1S/C10H22/c1-3-5-7-9-10-8-6-4-2/h3-10H2,1-2H3, purity 99%

System: toluene; phases: Liquid
Property: Mass density, kg/m3 (Liquid); method: VIBTUB:UFactor:4
Temperature, K	Pressure, kPa	Mass density, kg/m3	uncertainty
298.15	101.325	862.19	0.62

System: toluene; phases: Liquid
Property: Isobaric coefficient of expansion, 1/K (Liquid); method: vibrating tube densimeter
Temperature, K	Pressure, kPa	Isobaric coefficient of expansion, 1/K	uncertainty
298.15	101.325	0.00109	2e-05

System: toluene; phases: Liquid
Property: Viscosity, Pa*s (Liquid); method: Capillary tube (Ostwald; Ubbelohde) method
Temperature, K	Pressure, kPa	Viscosity, Pa*s	uncertainty
298.15	101.325	0.000552	6e-06

System: pentane; phases: Liquid
Property: Mass density, kg/m3 (Liquid); method: VIBTUB:UFactor:4
Temperature, K	Pressure, kPa	Mass density, kg/m3	uncertainty
298.15	101.325	621.22	0.99

System: pentane; phases: Liquid
Property: Isobaric coefficient of expansion, 1/K (Liquid); method: vibrating tube densimeter
Temperature, K	Pressure, kPa	Isobaric coefficient of expansion, 1/K	uncertainty
298.15	101.325	0.0016	3e-05

System: pentane; phases: Liquid
Property: Viscosity, Pa*s (Liquid); method: Capillary tube (Ostwald; Ubbelohde) method
Temperature, K	Pressure, kPa	Viscosity, Pa*s	uncertainty
298.15	101.325	0.000216	5e-06

System: hexane; phases: Liquid
Property: Mass density, kg/m3 (Liquid); method: VIBTUB:UFactor:4
Temperature, K	Pressure, kPa	Mass density, kg/m3	uncertainty
298.15	101.325	655.07	0.93

System: hexane; phases: Liquid
Property: Isobaric coefficient of expansion, 1/K (Liquid); method: vibrating tube densimeter
Temperature, K	Pressure, kPa	Isobaric coefficient of expansion, 1/K	uncertainty
298.15	101.325	0.00138	3e-05

System: hexane; phases: Liquid
Property: Viscosity, Pa*s (Liquid); method: Capillary tube (Ostwald; Ubbelohde) method
Temperature, K	Pressure, kPa	Viscosity, Pa*s	uncertainty
298.15	101.325	0.000295	5e-06

System: heptane; phases: Liquid
Property: Mass density, kg/m3 (Liquid); method: VIBTUB:UFactor:4
Temperature, K	Pressure, kPa	Mass density, kg/m3	uncertainty
298.15	101.325	679.69	0.89

System: heptane; phases: Liquid
Property: Isobaric coefficient of expansion, 1/K (Liquid); method: vibrating tube densimeter
Temperature, K	Pressure, kPa	Isobaric coefficient of expansion, 1/K	uncertainty
298.15	101.325	0.00124	2e-05

System: heptane; phases: Liquid
Property: Viscosity, Pa*s (Liquid); method: Capillary tube (Ostwald; Ubbelohde) method
Temperature, K	Pressure, kPa	Viscosity, Pa*s	uncertainty
298.15	101.325	0.000395	5e-06

System: octane; phases: Liquid
Property: Mass density, kg/m3 (Liquid); method: VIBTUB:UFactor:8
Temperature, K	Pressure, kPa	Mass density, kg/m3	uncertainty
298.15	101.325	698.59	1.72

System: octane; phases: Liquid
Property: Isobaric coefficient of expansion, 1/K (Liquid); method: vibrating tube densimeter
Temperature, K	Pressure, kPa	Isobaric coefficient of expansion, 1/K	uncertainty
298.15	101.325	0.00115	2e-05

System: octane; phases: Liquid
Property: Viscosity, Pa*s (Liquid); method: Capillary tube (Ostwald; Ubbelohde) method
Temperature, K	Pressure, kPa	Viscosity, Pa*s	uncertainty
298.15	101.325	0.000514	7e-06

System: nonane; phases: Liquid
Property: Mass density, kg/m3 (Liquid); method: VIBTUB:UFactor:8
Temperature, K	Pressure, kPa	Mass density, kg/m3	uncertainty
298.15	101.325	714.01	1.67

System: nonane; phases: Liquid
Property: Isobaric coefficient of expansion, 1/K (Liquid); method: vibrating tube densimeter
Temperature, K	Pressure, kPa	Isobaric coefficient of expansion, 1/K	uncertainty
298.15	101.325	0.00108	2e-05

System: nonane; phases: Liquid
Property: Viscosity, Pa*s (Liquid); method: Capillary tube (Ostwald; Ubbelohde) method
Temperature, K	Pressure, kPa	Viscosity, Pa*s	uncertainty
298.15	101.325	0.000665	9e-06

System: decane; phases: Liquid
Property: Mass density, kg/m3 (Liquid); method: VIBTUB:UFactor:4
Temperature, K	Pressure, kPa	Mass density, kg/m3	uncertainty
298.15	101.325	726.29	0.81

System: decane; phases: Liquid
Property: Isobaric coefficient of expansion, 1/K (Liquid); method: vibrating tube densimeter
Temperature, K	Pressure, kPa	Isobaric coefficient of expansion, 1/K	uncertainty
298.15	101.325	0.00104	2e-05

System: decane; phases: Liquid
Property: Viscosity, Pa*s (Liquid); method: Capillary tube (Ostwald; Ubbelohde) method
Temperature, K	Pressure, kPa	Viscosity, Pa*s	uncertainty
298.15	101.325	0.000861	8e-06

System: toluene + pentane; phases: Liquid
Fixed: Temperature, K = 298.15
Fixed: Pressure, kPa = 101
Property: Mass density, kg/m3 (Liquid); method: VIBTUB:UFactor:4
Mole fraction of toluene	Mass density, kg/m3	uncertainty
0.0415	629.87	0.96
0.2011	668.27	0.9
0.2799	687.21	0.87
0.3647	707.61	0.84
0.4341	724.3	0.81
0.6011	764.45	0.75
0.6821	783.95	0.72
0.7502	800.32	0.7
0.8213	817.43	0.67
0.9137	839.65	0.65

System: toluene + pentane; phases: Liquid
Fixed: Temperature, K = 298.15
Fixed: Pressure, kPa = 101
Property: Viscosity, Pa*s (Liquid); method: Capillary tube (Ostwald; Ubbelohde) method
Mole fraction of toluene	Viscosity, Pa*s	uncertainty
0.0415	-1.25e-05	2.04e-05
0.2011	-4.12e-05	2.04e-05
0.2799	-5.62e-05	2.05e-05
0.3647	-6.93e-05	2.05e-05
0.4341	-7.48e-05	2.06e-05
0.6011	-7.54e-05	2.06e-05
0.6821	-7.18e-05	2.06e-05
0.7502	-6.47e-05	2.05e-05
0.8213	-5.25e-05	2.05e-05
0.9137	-3.33e-05	2.04e-05

System: toluene + hexane; phases: Liquid
Fixed: Temperature, K = 298.15
Fixed: Pressure, kPa = 101
Property: Mass density, kg/m3 (Liquid); method: VIBTUB:UFactor:4
Mole fraction of toluene	Mass density, kg/m3	uncertainty
0.0406	657.47	0.92
0.2028	690.93	0.86
0.2804	706.95	0.84
0.3596	723.29	0.81
0.4423	740.35	0.79
0.5997	772.81	0.74
0.6757	788.5	0.71
0.7597	805.83	0.69
0.8412	822.63	0.67
0.9199	838.87	0.65

System: toluene + hexane; phases: Liquid
Fixed: Temperature, K = 298.15
Fixed: Pressure, kPa = 101
Property: Viscosity, Pa*s (Liquid); method: Capillary tube (Ostwald; Ubbelohde) method
Mole fraction of toluene	Viscosity, Pa*s	uncertainty
0.0406	-2.02e-05	2.04e-05
0.2028	-4.04e-05	2.04e-05
0.2804	-4.92e-05	2.05e-05
0.3596	-5.95e-05	2.05e-05
0.4423	-6.66e-05	2.05e-05
0.5997	-6.85e-05	2.05e-05
0.6757	-6.64e-05	2.05e-05
0.7597	-5.93e-05	2.05e-05
0.8412	-4.73e-05	2.05e-05
0.9199	-3.29e-05	2.04e-05

System: toluene + heptane; phases: Liquid
Fixed: Temperature, K = 298.15
Fixed: Pressure, kPa = 101
Property: Mass density, kg/m3 (Liquid); method: VIBTUB:UFactor:128
Mole fraction of toluene	Mass density, kg/m3	uncertainty
0.0398	678.24	25.92
0.1999	693.04	24.97
0.2791	721.62	23.12
0.3596	736.18	22.18
0.4416	764.46	20.35
0.6048	779.21	19.4
0.6825	793.71	18.46
0.7593	808.12	17.53
0.8463	823.09	16.56
0.9132	837.25	15.65

System: toluene + heptane; phases: Liquid
Fixed: Temperature, K = 298.15
Fixed: Pressure, kPa = 101
Property: Viscosity, Pa*s (Liquid); method: Capillary tube (Ostwald; Ubbelohde) method
Mole fraction of toluene	Viscosity, Pa*s	uncertainty
0.0398	-1.95e-05	2.04e-05
0.1999	-3.24e-05	2.04e-05
0.2791	-4.72e-05	2.05e-05
0.3596	-5.31e-05	2.05e-05
0.4416	-6.04e-05	2.05e-05
0.6048	-6.05e-05	2.05e-05
0.6825	-5.9e-05	2.05e-05
0.7593	-5.23e-05	2.05e-05
0.8463	-4.33e-05	2.05e-05
0.9132	-2.73e-05	2.04e-05

System: toluene + octane; phases: Liquid
Fixed: Temperature, K = 298.15
Fixed: Pressure, kPa = 101
Property: Mass density, kg/m3 (Liquid); method: VIBTUB:UFactor:4
Mole fraction of toluene	Mass density, kg/m3	uncertainty
0.0398	692.41	1.04
0.1999	718.64	0.98
0.2791	731.62	0.95
0.3596	744.8	0.92
0.4416	758.23	0.89
0.6048	784.96	0.82
0.6825	797.69	0.78
0.7593	810.27	0.75
0.8463	824.52	0.71
0.9132	835.49	0.67

System: toluene + octane; phases: Liquid
Fixed: Temperature, K = 298.15
Fixed: Pressure, kPa = 101
Property: Viscosity, Pa*s (Liquid); method: Capillary tube (Ostwald; Ubbelohde) method
Mole fraction of toluene	Viscosity, Pa*s	uncertainty
0.0398	-1.53e-05	2.04e-05
0.1999	-3.47e-05	2.04e-05
0.2791	-3.97e-05	2.04e-05
0.3596	-4.4e-05	2.05e-05
0.4416	-4.89e-05	2.05e-05
0.6048	-5.14e-05	2.05e-05
0.6825	-4.81e-05	2.05e-05
0.7593	-4.39e-05	2.05e-05
0.8463	-3.83e-05	2.04e-05
0.9132	-2.96e-05	2.04e-05

System: toluene + nonane; phases: Liquid
Fixed: Temperature, K = 298.15
Fixed: Pressure, kPa = 101
Property: Mass density, kg/m3 (Liquid); method: VIBTUB:UFactor:4
Mole fraction of toluene	Mass density, kg/m3	uncertainty
0.0396	719.17	1.02
0.1938	731.3	0.97
0.2815	739.97	0.94
0.3621	749.08	0.92
0.4429	759.3	0.89
0.6	782.29	0.82
0.6627	792.62	0.79
0.7595	809.87	0.75
0.8399	825.37	0.71
0.9168	841.23	0.67

System: toluene + nonane; phases: Liquid
Fixed: Temperature, K = 298.15
Fixed: Pressure, kPa = 101
Property: Viscosity, Pa*s (Liquid); method: Capillary tube (Ostwald; Ubbelohde) method
Mole fraction of toluene	Viscosity, Pa*s	uncertainty
0.0396	-6.8e-06	2.04e-05
0.1938	-2.38e-05	2.04e-05
0.2815	-3.22e-05	2.04e-05
0.3621	-3.69e-05	2.04e-05
0.4429	-4.07e-05	2.04e-05
0.6	-4.24e-05	2.05e-05
0.6627	-4.22e-05	2.05e-05
0.7595	-3.71e-05	2.04e-05
0.8399	-2.88e-05	2.04e-05
0.9168	-1.98e-05	2.04e-05

System: toluene + decane; phases: Liquid
Fixed: Temperature, K = 298.15
Fixed: Pressure, kPa = 101
Property: Mass density, kg/m3 (Liquid); method: VIBTUB:UFactor:4
Mole fraction of toluene	Mass density, kg/m3	uncertainty
0.0405	730.61	0.8
0.1975	740.67	0.78
0.2817	747.82	0.77
0.3619	755.75	0.76
0.4394	764.48	0.75
0.6	785.86	0.72
0.6811	798.34	0.7
0.7615	811.84	0.68
0.84	826.07	0.66
0.92	841.69	0.64

System: toluene + decane; phases: Liquid
Fixed: Temperature, K = 298.15
Fixed: Pressure, kPa = 101
Property: Viscosity, Pa*s (Liquid); method: Capillary tube (Ostwald; Ubbelohde) method
Mole fraction of toluene	Viscosity, Pa*s	uncertainty
0.0405	-1.6e-06	2.04e-05
0.1975	-3.58e-05	2.04e-05
0.2817	-4.94e-05	2.05e-05
0.3619	-5.79e-05	2.05e-05
0.4394	-6.3e-05	2.05e-05
0.6	-6.12e-05	2.05e-05
0.6811	-5.56e-05	2.05e-05
0.7615	-4.55e-05	2.05e-05
0.84	-3.26e-05	2.04e-05
0.92	-1.33e-05	2.04e-05
