Measured thermophysical data. Thermodynamic properties of ethanol solution of chiral camphors and its derivatives
Source: J. Chem. Thermodyn., 2009, 10.1016/j.jct.2009.05.005
Compound 1: d-camphor, C10H16O, InChI=1S/C10H16O/c1-9(2)7-4-5-10(9,3)8(11)6-7/h7H,4-6H2,1-3H3/t7-,10+/m1/s1, purity 99.9%
Compound 2: (1S)-1,7,7-trimethylbicyclo[2.2.1]heptan-2-one, C10H16O, InChI=1S/C10H16O/c1-9(2)7-4-5-10(9,3)8(11)6-7/h7H,4-6H2,1-3H3/t7-,10+/m0/s1, purity 99.9%
Compound 3: (1R)-(-)-10-camphorsulfonamide, C10H17NO3S, InChI=1S/C10H17NO3S/c1-9(2)7-3-4-10(9,8(12)5-7)6-15(11,13)14/h7H,3-6H2,1-2H3,(H2,11,13,14)/t7?,10-/m0/s1, purity 99.9%
Compound 4: (1S)-(+)-10-camphorsulfonamide, C10H17NO3S, InChI=1S/C10H17NO3S/c1-9(2)7-3-4-10(9,8(12)5-7)6-15(11,13)14/h7H,3-6H2,1-2H3,(H2,11,13,14)/t7-,10-/m1/s1, purity 99.9%
Compound 5: (1R)-(-)-10-camphorsulfonic acid, C10H16O4S, InChI=1S/C10H16O4S/c1-9(2)7-3-4-10(9,8(11)5-7)6-15(12,13)14/h7H,3-6H2,1-2H3,(H,12,13,14)/t7-,10-/m0/s1, purity 99.9%
Compound 6: (1S)-(+)-10-camphorsulfonic acid, C10H16O4S, InChI=1S/C10H16O4S/c1-9(2)7-3-4-10(9,8(11)5-7)6-15(12,13)14/h7H,3-6H2,1-2H3,(H,12,13,14)/t7-,10-/m1/s1, purity 99.9%
Compound 7: (-)-camphorquinone, C10H14O2, InChI=1S/C10H14O2/c1-9(2)6-4-5-10(9,3)8(12)7(6)11/h6H,4-5H2,1-3H3/t6-,10+/m1/s1, purity 99.9%
Compound 8: (+)-camphorquinone, C10H14O2, InChI=1S/C10H14O2/c1-9(2)6-4-5-10(9,3)8(12)7(6)11/h6H,4-5H2,1-3H3/t6-,10+/m0/s1, purity 99.9%
Compound 9: (1R)-(-)-10-camphorsulfonyl chloride, C10H15ClO3S, InChI=1S/C10H15ClO3S/c1-9(2)7-3-4-10(9,8(12)5-7)6-15(11,13)14/h7H,3-6H2,1-2H3/t7-,10-/m0/s1, purity 99.9%
Compound 10: d-10-camphorsulfonyl chloride, C10H15ClO3S, InChI=1S/C10H15ClO3S/c1-9(2)7-3-4-10(9,8(12)5-7)6-15(11,13)14/h7H,3-6H2,1-2H3, purity 99.9%
Compound 11: ethanol, C2H6O, InChI=1S/C2H6O/c1-2-3/h3H,2H2,1H3

System: ethanol + d-camphor; phases: Liquid
Fixed: Temperature, K = 298.15
Fixed: Pressure, kPa = 101
Property: Mass density, kg/m3 (Liquid); method: Vibrating tube method
Mole fraction of d-camphor	Mass density, kg/m3	uncertainty
0	785.055	0.149
0.00161316	786.229	0.148
0.00305494	786.827	0.148
0.00916145	788.887	0.147
0.0157383	789.421	0.146

System: ethanol + (1S)-1,7,7-trimethylbicyclo[2.2.1]heptan-2-one; phases: Liquid
Fixed: Temperature, K = 298.15
Fixed: Pressure, kPa = 101
Property: Mass density, kg/m3 (Liquid); method: Vibrating tube method
Mole fraction of (1S)-1,7,7-trimethylbicyclo[2.2.1]heptan-2-one	Mass density, kg/m3	uncertainty
0	785.056	0.149
0.00161315	786.229	0.148
0.00305495	786.828	0.148
0.00916146	788.869	0.147
0.0157385	789.42	0.146

System: ethanol + (1R)-(-)-10-camphorsulfonamide; phases: Liquid
Fixed: Temperature, K = 298.15
Fixed: Pressure, kPa = 101
Property: Mass density, kg/m3 (Liquid); method: Vibrating tube method
Mole fraction of (1R)-(-)-10-camphorsulfonamide	Mass density, kg/m3	uncertainty
0	785.015	0.149
9.66504e-05	785.189	0.149
0.00150204	787.626	0.147
0.00201251	788.408	0.147

System: ethanol + (1S)-(+)-10-camphorsulfonamide; phases: Liquid
Fixed: Temperature, K = 298.15
Fixed: Pressure, kPa = 101
Property: Mass density, kg/m3 (Liquid); method: Vibrating tube method
Mole fraction of (1S)-(+)-10-camphorsulfonamide	Mass density, kg/m3	uncertainty
0	785.013	0.149
9.66504e-05	785.188	0.149
0.00150204	787.624	0.147
0.00201251	788.405	0.147

System: ethanol + (1R)-(-)-10-camphorsulfonic acid; phases: Liquid
Fixed: Temperature, K = 298.15
Fixed: Pressure, kPa = 101
Property: Mass density, kg/m3 (Liquid); method: Vibrating tube method
Mole fraction of (1R)-(-)-10-camphorsulfonic acid	Mass density, kg/m3	uncertainty
0	785.024	0.149
0.00106665	787.036	0.148
0.00149577	787.969	0.147
0.00227092	789.366	0.146

System: ethanol + (1S)-(+)-10-camphorsulfonic acid; phases: Liquid
Fixed: Temperature, K = 298.15
Fixed: Pressure, kPa = 101
Property: Mass density, kg/m3 (Liquid); method: Vibrating tube method
Mole fraction of (1S)-(+)-10-camphorsulfonic acid	Mass density, kg/m3	uncertainty
0	785.026	0.149
0.00106665	787.039	0.148
0.00149578	787.971	0.147
0.00227091	789.368	0.146

System: ethanol + (-)-camphorquinone; phases: Liquid
Fixed: Temperature, K = 298.15
Fixed: Pressure, kPa = 101
Property: Mass density, kg/m3 (Liquid); method: Vibrating tube method
Mole fraction of (-)-camphorquinone	Mass density, kg/m3	uncertainty
0	785.025	0.149
0.0013894	786.235	0.148
0.0020897	786.827	0.148
0.00279185	787.379	0.147

System: ethanol + (+)-camphorquinone; phases: Liquid
Fixed: Temperature, K = 298.15
Fixed: Pressure, kPa = 101
Property: Mass density, kg/m3 (Liquid); method: Vibrating tube method
Mole fraction of (+)-camphorquinone	Mass density, kg/m3	uncertainty
0	785.022	0.149
0.0013893	786.234	0.148
0.0020896	786.827	0.148
0.00279184	787.377	0.147

System: ethanol + (1R)-(-)-10-camphorsulfonyl chloride; phases: Liquid
Fixed: Temperature, K = 298.15
Fixed: Pressure, kPa = 101
Property: Mass density, kg/m3 (Liquid); method: Vibrating tube method
Mole fraction of (1R)-(-)-10-camphorsulfonyl chloride	Mass density, kg/m3	uncertainty
0	785.035	0.149
0.000684845	786.329	0.148
0.00138474	787.654	0.147
0.00203933	788.885	0.147

System: ethanol + d-10-camphorsulfonyl chloride; phases: Liquid
Fixed: Temperature, K = 298.15
Fixed: Pressure, kPa = 101
Property: Mass density, kg/m3 (Liquid); method: Vibrating tube method
Mole fraction of d-10-camphorsulfonyl chloride	Mass density, kg/m3	uncertainty
0	785.033	0.149
0.000684845	786.327	0.148
0.00138475	787.552	0.147
0.00203932	788.887	0.147

System: ethanol + (1S)-1,7,7-trimethylbicyclo[2.2.1]heptan-2-one + d-camphor; phases: Liquid
Fixed: Temperature, K = 298.15
Fixed: Pressure, kPa = 101
Property: Excess molar enthalpy (molar enthalpy of mixing), kJ/mol (Liquid); method: Flow calorimetry
Mass fraction of ethanol	Solvent: Amount ratio of component to other component of binary solvent of (1S)-1,7,7-trimethylbicyclo[2.2.1]heptan-2-one	Excess molar enthalpy (molar enthalpy of mixing), kJ/mol	uncertainty
0.95	0.198	-0.01726	0.00117
0.95	0.396	-0.0284	0.0013
0.95	0.594	-0.03511	0.00135
0.95	0.792	-0.03954	0.0014
0.95	0.99	-0.04214	0.00142
0.95	1.021	-0.0434	0.0014
0.95	1.276	-0.04107	0.00141
0.95	1.702	-0.03694	0.00137
0.95	2.552	-0.03042	0.0013
0.95	5.105	-0.01875	0.00119
0.97	0.195	-0.0267	0.0013
0.97	0.389	-0.04482	0.00145
0.97	0.584	-0.05652	0.00157
0.97	0.778	-0.06433	0.00164
0.97	0.973	-0.06967	0.0017
0.97	1.026	-0.06932	0.00169
0.97	1.283	-0.06514	0.00165
0.97	1.71	-0.05789	0.00158
0.97	2.565	-0.04651	0.00147
0.97	5.131	-0.02964	0.0013
0.99	0.193	-0.07118	0.00171
0.99	0.386	-0.1147	0.0021
0.99	0.579	-0.1372	0.0024
0.99	0.772	-0.1501	0.0025
0.99	0.965	-0.1572	0.0026
0.99	1.004	-0.1571	0.0026
0.99	1.254	-0.1508	0.0025
0.99	1.672	-0.1371	0.0024
0.99	2.509	-0.1153	0.0022
0.99	5.017	-0.07075	0.00171
0.995	0.201	-0.147	0.003
0.995	0.403	-0.2502	0.0035
0.995	0.604	-0.3147	0.0041
0.995	0.806	-0.3517	0.0045
0.995	1.007	-0.3733	0.0047
0.995	1.061	-0.3735	0.0047
0.995	1.327	-0.3516	0.0045
0.995	1.769	-0.3089	0.0041
0.995	2.652	-0.2466	0.0035
0.995	5.305	-0.1508	0.0025

System: ethanol + (1S)-(+)-10-camphorsulfonamide + (1R)-(-)-10-camphorsulfonamide; phases: Liquid
Fixed: Temperature, K = 298.15
Fixed: Pressure, kPa = 101
Property: Excess molar enthalpy (molar enthalpy of mixing), kJ/mol (Liquid); method: Flow calorimetry
Mass fraction of ethanol	Solvent: Amount ratio of component to other component of binary solvent of (1S)-(+)-10-camphorsulfonamide	Excess molar enthalpy (molar enthalpy of mixing), kJ/mol	uncertainty
0.99	0.187	-0.06032	0.0016
0.99	0.374	-0.0866	0.0019
0.99	0.561	-0.114	0.002
0.99	0.748	-0.1324	0.0023
0.99	0.935	-0.1454	0.0025
0.99	1.266	-0.1295	0.0023
0.99	1.583	-0.1137	0.0021
0.99	2.11	-0.09981	0.002
0.99	3.165	-0.08019	0.0018
0.99	6.331	-0.05205	0.00152
0.9925	0.188	-0.0636	0.0016
0.9925	0.375	-0.1039	0.002
0.9925	0.563	-0.1335	0.0023
0.9925	0.751	-0.1532	0.0025
0.9925	0.938	-0.1688	0.0027
0.9925	1.089	-0.1594	0.0026
0.9925	1.361	-0.1468	0.0025
0.9925	1.815	-0.1305	0.0023
0.9925	2.722	-0.1095	0.0021
0.9925	5.443	-0.06741	0.00167
0.995	0.206	-0.1628	0.0026
0.995	0.412	-0.2608	0.0036
0.995	0.618	-0.3183	0.0042
0.995	0.824	-0.354	0.005
0.995	1.03	-0.3899	0.0049
0.995	1.087	-0.4019	0.005
0.995	1.358	-0.3771	0.0048
0.995	1.811	-0.3368	0.0044
0.995	2.717	-0.2694	0.0037
0.995	5.435	-0.167	0.003
0.997	0.199	-0.3529	0.0045
0.997	0.398	-0.5958	0.007
0.997	0.597	-0.7531	0.0085
0.997	0.797	-0.8603	0.0096
0.997	0.996	-0.9225	0.0102
0.997	1.045	-0.9262	0.0103
0.997	1.306	-0.8588	0.0096
0.997	1.742	-0.737	0.008
0.997	2.613	-0.5779	0.0068
0.997	5.227	-0.3432	0.0044

System: ethanol + (1S)-(+)-10-camphorsulfonic acid + (1R)-(-)-10-camphorsulfonic acid; phases: Liquid
Fixed: Temperature, K = 298.15
Fixed: Pressure, kPa = 101
Property: Excess molar enthalpy (molar enthalpy of mixing), kJ/mol (Liquid); method: Flow calorimetry
Mass fraction of ethanol	Solvent: Amount ratio of component to other component of binary solvent of (1S)-(+)-10-camphorsulfonic acid	Excess molar enthalpy (molar enthalpy of mixing), kJ/mol	uncertainty
0.95	0.196	-0.01871	0.00119
0.95	0.392	-0.03008	0.0013
0.95	0.588	-0.03769	0.00138
0.95	0.783	-0.04286	0.00143
0.95	0.979	-0.04665	0.00147
0.95	1.026	-0.04827	0.00148
0.95	1.282	-0.04474	0.00145
0.95	1.709	-0.0391	0.0014
0.95	2.564	-0.03117	0.00131
0.95	5.127	-0.01888	0.00119
0.97	0.196	-0.04074	0.00141
0.97	0.393	-0.06288	0.00163
0.97	0.589	-0.07482	0.00175
0.97	0.785	-0.08136	0.00181
0.97	0.981	-0.08644	0.00186
0.97	1.027	-0.08557	0.00186
0.97	1.284	-0.07914	0.00179
0.97	1.712	-0.07007	0.0017
0.97	2.569	-0.0516	0.0015
0.97	5.135	-0.03333	0.00133
0.99	0.179	-0.08005	0.0018
0.99	0.359	-0.127	0.002
0.99	0.538	-0.1777	0.0028
0.99	0.718	-0.2164	0.0032
0.99	0.897	-0.23	0.003
0.99	1.086	-0.2599	0.0036
0.99	1.357	-0.2421	0.0034
0.99	1.81	-0.2148	0.0031
0.99	2.715	-0.1818	0.0028
0.99	5.427	-0.113	0.002
0.995	0.182	-0.2183	0.0032
0.995	0.364	-0.3665	0.0047
0.995	0.546	-0.4557	0.0056
0.995	0.728	-0.5016	0.006
0.995	0.909	-0.5408	0.0064
0.995	1.084	-0.5379	0.0064
0.995	1.355	-0.5159	0.0062
0.995	1.807	-0.4546	0.0055
0.995	2.711	-0.3808	0.0048
0.995	5.418	-0.2321	0.0033

System: ethanol + d-10-camphorsulfonyl chloride + (1R)-(-)-10-camphorsulfonyl chloride; phases: Liquid
Fixed: Temperature, K = 298.15
Fixed: Pressure, kPa = 101
Property: Excess molar enthalpy (molar enthalpy of mixing), kJ/mol (Liquid); method: Flow calorimetry
Mass fraction of ethanol	Solvent: Amount ratio of component to other component of binary solvent of d-10-camphorsulfonyl chloride	Excess molar enthalpy (molar enthalpy of mixing), kJ/mol	uncertainty
0.99	0.106	-0.07799	0.00178
0.99	0.212	-0.1331	0.0023
0.99	0.318	-0.1763	0.0028
0.99	0.424	-0.2174	0.0032
0.99	0.53	-0.2347	0.0033
0.99	0.636	-0.2551	0.0036
0.99	0.742	-0.278	0.004
0.99	0.848	-0.2921	0.0039
0.99	0.955	-0.3076	0.0041
0.99	1.031	-0.3157	0.0042
0.99	1.16	-0.2969	0.004
0.99	1.326	-0.2798	0.0038
0.99	1.546	-0.2508	0.0035
0.99	1.856	-0.2276	0.0033
0.99	2.319	-0.1893	0.0029
0.99	3.093	-0.1592	0.0026
0.99	4.64	-0.1071	0.0021
0.99	9.277	-0.05821	0.00158
0.9925	0.118	-0.0881	0.0019
0.9925	0.237	-0.1413	0.0024
0.9925	0.355	-0.1893	0.0029
0.9925	0.473	-0.2395	0.0034
0.9925	0.591	-0.2699	0.0037
0.9925	0.71	-0.3128	0.0041
0.9925	0.828	-0.346	0.004
0.9925	1.191	-0.3567	0.0046
0.9925	1.323	-0.3435	0.0044
0.9925	1.488	-0.3237	0.0042
0.9925	1.701	-0.3012	0.004
0.9925	1.984	-0.2662	0.0037
0.9925	2.381	-0.2379	0.0034
0.9925	2.976	-0.1965	0.003
0.9925	3.968	-0.1465	0.0025
0.9925	5.954	-0.1128	0.0021
0.9925	11.903	-0.05514	0.00155
0.995	0.215	-0.2722	0.0037
0.995	0.431	-0.4411	0.0054
0.995	0.646	-0.5441	0.0064
0.995	0.861	-0.6075	0.0071
0.995	1.076	-0.656	0.008
0.995	1.113	-0.6457	0.0075
0.995	1.391	-0.5987	0.007
0.995	1.856	-0.5292	0.0063
0.995	2.782	-0.4155	0.0052
0.995	5.566	-0.2453	0.0035

System: ethanol + (+)-camphorquinone + (-)-camphorquinone; phases: Liquid
Fixed: Temperature, K = 298.15
Fixed: Pressure, kPa = 101
Property: Excess molar enthalpy (molar enthalpy of mixing), kJ/mol (Liquid); method: Flow calorimetry
Mass fraction of ethanol	Solvent: Amount ratio of component to other component of binary solvent of (-)-camphorquinone	Excess molar enthalpy (molar enthalpy of mixing), kJ/mol	uncertainty
0.99	0.234	-0.05386	0.00154
0.99	0.267	-0.06323	0.00163
0.99	0.468	-0.09429	0.00194
0.99	0.702	-0.1181	0.0022
0.99	0.936	-0.1395	0.0024
0.99	1.037	-0.1378	0.0024
0.99	1.297	-0.1274	0.0023
0.99	1.729	-0.112	0.002
0.99	2.595	-0.08455	0.00185
0.99	5.188	-0.0501	0.0015
0.9925	0.178	-0.05865	0.00159
0.9925	0.356	-0.09843	0.00198
0.9925	0.534	-0.1274	0.0023
0.9925	0.711	-0.1504	0.0025
0.9925	0.889	-0.1667	0.0027
0.9925	1.098	-0.1644	0.0026
0.9925	1.373	-0.1526	0.0025
0.9925	1.83	-0.1322	0.0023
0.9925	2.745	-0.1042	0.002
0.9925	5.494	-0.06427	0.00164
0.995	0.153	-0.07008	0.0017
0.995	0.332	-0.1125	0.0021
0.995	0.46	-0.1507	0.0025
0.995	0.613	-0.1807	0.0028
0.995	0.766	-0.2055	0.0031
0.995	1.145	-0.2074	0.0031
0.995	1.909	-0.1717	0.0027
0.995	2.177	-0.1481	0.0025
0.995	3.266	-0.115	0.002
0.995	6.53	-0.07219	0.00172
