Measured thermophysical data. Ternary and binary LLE measurements for solvent (2-methyltetrahydrofuran and cyclopentyl methyl ether) + furfural + water between 298 and 343 K
Source: J. Chem. Thermodyn., 2017, 10.1016/j.jct.2017.02.016
Compound 1: 2-methyltetrahydrofuran, C5H10O, InChI=1S/C5H10O/c1-5-3-2-4-6-5/h5H,2-4H2,1H3, purity 99.5%
Compound 2: methoxycyclopentane, C6H12O, InChI=1S/C6H12O/c1-7-6-4-2-3-5-6/h6H,2-5H2,1H3, purity 99.9%
Compound 3: 2-furaldehyde, C5H4O2, InChI=1S/C5H4O2/c6-4-5-2-1-3-7-5/h1-4H, purity 99%
Compound 4: water, H2O, InChI=1S/H2O/h1H2, purity 99.8%
Compound 5: acetone, C3H6O, InChI=1S/C3H6O/c1-3(2)4/h1-2H3, purity 99.93%

System: 2-methyltetrahydrofuran; phases: Liquid
Property: Refractive index (Na D-line) (Liquid); method: Standard Abbe refractometry
Temperature, K	Pressure, kPa	Refractive index (Na D-line)	uncertainty
298.15	101.325	1.4028	0.001

System: methoxycyclopentane; phases: Liquid
Property: Refractive index (Na D-line) (Liquid); method: Standard Abbe refractometry
Temperature, K	Pressure, kPa	Refractive index (Na D-line)	uncertainty
298.15	101.325	1.4182	0.001

System: 2-furaldehyde; phases: Liquid
Property: Refractive index (Na D-line) (Liquid); method: Standard Abbe refractometry
Temperature, K	Pressure, kPa	Refractive index (Na D-line)	uncertainty
298.15	101.325	1.5226	0.001

System: water; phases: Liquid
Property: Refractive index (Na D-line) (Liquid); method: Standard Abbe refractometry
Temperature, K	Pressure, kPa	Refractive index (Na D-line)	uncertainty
298.15	101.325	1.3325	0.001

System: acetone; phases: Liquid
Property: Refractive index (Na D-line) (Liquid); method: Standard Abbe refractometry
Temperature, K	Pressure, kPa	Refractive index (Na D-line)	uncertainty
298.15	101.325	1.3555	0.001

System: 2-methyltetrahydrofuran + water; phases: Liquid mixture 1, Liquid mixture 2
Fixed: Pressure, kPa = 101
Property: Mass fraction of 2-methyltetrahydrofuran (Liquid mixture 1); method: Chromatography
Temperature, K	Mass fraction of 2-methyltetrahydrofuran	uncertainty
287.2	0.9657	0.0044
288.5	0.9658	0.0044
293.1	0.9655	0.0044
293.6	0.9654	0.0044
298.2	0.9651	0.0044
298.7	0.9653	0.0045
299.4	0.9627	0.0047
302.6	0.9649	0.0044
303.2	0.965	0.0044
307.6	0.9647	0.0044
308.2	0.9643	0.0044
312.5	0.9642	0.0044
313.2	0.9642	0.0044
317.6	0.9646	0.0044
318.2	0.9644	0.0044
322.1	0.9605	0.0044
322.5	0.9633	0.0044
323.2	0.9634	0.0044
326.9	0.9633	0.0044
328.2	0.9628	0.0044
332.3	0.9621	0.0044
333.2	0.9616	0.0044
337.1	0.9605	0.0044
338.2	0.9604	0.0044
341.1	0.9619	0.0044
342.3	0.9612	0.0044
343.2	0.9606	0.0044

System: 2-methyltetrahydrofuran + water; phases: Liquid mixture 2, Liquid mixture 1
Fixed: Pressure, kPa = 101
Property: Mass fraction of 2-methyltetrahydrofuran (Liquid mixture 2); method: Chromatography
Temperature, K	Mass fraction of 2-methyltetrahydrofuran	uncertainty
287.2	0.1612	0.0166
288.5	0.1598	0.0167
293.1	0.1428	0.0168
293.6	0.1455	0.0168
298.2	0.129	0.0166
298.7	0.1286	0.0173
299.4	0.115	0.0183
302.6	0.1162	0.0166
303.2	0.116	0.0166
307.6	0.1043	0.0166
308.2	0.1049	0.0166
312.5	0.0966	0.0166
313.2	0.0956	0.0166
317.6	0.0869	0.0166
318.2	0.0881	0.0166
322.1	0.0701	0.0166
322.5	0.0799	0.0166
323.2	0.0794	0.0166
326.9	0.0742	0.0166
328.2	0.0741	0.0166
332.3	0.0698	0.0166
333.2	0.0693	0.0166
337.1	0.0652	0.0166
338.2	0.0651	0.0166
341.1	0.0565	0.0166
342.3	0.0619	0.0166
343.2	0.0614	0.0166

System: methoxycyclopentane + water; phases: Liquid mixture 1, Liquid mixture 2
Fixed: Pressure, kPa = 101
Property: Mass fraction of methoxycyclopentane (Liquid mixture 1); method: Chromatography
Temperature, K	Mass fraction of methoxycyclopentane	uncertainty
286	0.9952	0.0006
286.6	0.9952	0.0006
292.4	0.9948	0.0006
292.8	0.9945	0.0006
297.5	0.9945	0.0006
298	0.9945	0.0006
298.1	0.9947	0.0006
302.1	0.9943	0.0006
302.4	0.9943	0.0006
306.9	0.9938	0.0006
307.4	0.9938	0.0006
311.4	0.9932	0.0006
311.8	0.9934	0.0006
316.9	0.9934	0.0006
317.3	0.9929	0.0006
321.6	0.9926	0.0006
322.1	0.9925	0.0006
323.1	0.9934	0.0006
325.5	0.992	0.0006
326.3	0.992	0.0006
331.5	0.9921	0.0006
331.9	0.9915	0.0006
336.4	0.9911	0.0006
336.6	0.9907	0.0006
341.3	0.9909	0.0007
341.8	0.9905	0.0008
343.2	0.9928	0.0009

System: methoxycyclopentane + water; phases: Liquid mixture 2, Liquid mixture 1
Fixed: Pressure, kPa = 101
Property: Mass fraction of methoxycyclopentane (Liquid mixture 2); method: Chromatography
Temperature, K	Mass fraction of methoxycyclopentane	uncertainty
286	0.0143	0.0143
286.6	0.0145	0.0145
292.4	0.0126	0.0126
292.8	0.0126	0.0126
297.5	0.0112	0.0112
298	0.0112	0.0112
298.1	0.0106	0.0106
302.1	0.0103	0.0103
302.4	0.0103	0.0103
306.9	0.0094	0.0094
307.4	0.0094	0.0094
311.4	0.0088	0.0088
311.8	0.0088	0.0088
316.9	0.0083	0.0083
317.3	0.0082	0.0082
321.6	0.0078	0.0078
322.1	0.0078	0.0078
323.1	0.0075	0.0075
325.5	0.0074	0.0074
326.3	0.0075	0.0075
331.5	0.0071	0.0071
331.9	0.0071	0.0071
336.4	0.0069	0.0069
336.6	0.0068	0.0068
341.3	0.0067	0.0067
341.8	0.0068	0.0068
343.2	0.0065	0.0065

System: 2-methyltetrahydrofuran + 2-furaldehyde + water; phases: Liquid mixture 2, Liquid mixture 1
Fixed: Pressure, kPa = 101
Property: Mass fraction of 2-furaldehyde (Liquid mixture 2); method: Chromatography
Property: Mass fraction of 2-furaldehyde (Liquid mixture 1); method: Chromatography
Property: Mass fraction of 2-methyltetrahydrofuran (Liquid mixture 1); method: Chromatography
Temperature, K	Mass fraction of 2-methyltetrahydrofuran	Mass fraction of 2-furaldehyde	uncertainty	Mass fraction of 2-furaldehyde	uncertainty	Mass fraction of 2-methyltetrahydrofuran	uncertainty
298.8	0.0126	0.0704	0.0174	0.8784	0.0051	0.0728	
299	0.0218	0.0669	0.0174	0.8206	0.0052	0.1272	
299.2	0.0309	0.0625	0.0174	0.7523	0.0053	0.1906	
299.4	0.0396	0.0591	0.0174	0.6871	0.0055	0.253	
298.8	0.0485	0.0531	0.0174	0.6045	0.0057	0.3315	
299	0.059	0.0476	0.0174	0.5167	0.0061	0.4167	
299.2	0.0692	0.0416	0.0174	0.4309	0.0059	0.5017	
299.4	0.0799	0.0335	0.0174	0.3283	0.0055	0.6057	
298.8	0.0914	0.0271	0.0174	0.2504	0.0053	0.6871	
299	0.0986	0.0195	0.0174	0.1696	0.0051	0.774	
299.2	0.109	0.0103	0.0103	0.0838	0.005	0.8686	
322.3	0.0094	0.0808	0.0174	0.8596	0.0051	0.0739	
322.3	0.0157	0.0754	0.0174	0.7964	0.0052	0.1348	
322.3	0.0217	0.0701	0.0174	0.7328	0.0053	0.1957	
322.2	0.0275	0.0639	0.0174	0.6611	0.0055	0.2634	
322.3	0.0341	0.0567	0.0174	0.5862	0.0058	0.3387	
322.3	0.0401	0.0505	0.0174	0.5023	0.0061	0.4236	
322.2	0.0463	0.0422	0.0174	0.4152	0.0058	0.5129	
322.1	0.0529	0.0332	0.0174	0.3184	0.0055	0.6148	
322.3	0.0585	0.0267	0.0174	0.2413	0.0053	0.6961	
322.2	0.0627	0.0187	0.0174	0.1645	0.0051	0.7792	
322.2	0.0669	0.0097	0.0097	0.0796	0.005	0.8717	
341.8	0.0083	0.0985	0.0174	0.84	0.0051	0.0753	
341.6	0.0143	0.0906	0.0174	0.7805	0.0052	0.132	
341.4	0.0193	0.0822	0.0174	0.7222	0.0054	0.1927	
341.3	0.0245	0.0743	0.0174	0.6496	0.0056	0.2626	
341.7	0.0298	0.0663	0.0174	0.5822	0.0058	0.332	
341.6	0.035	0.0561	0.0174	0.4987	0.0061	0.4215	
341.4	0.0396	0.0466	0.0174	0.4115	0.0058	0.5136	
341.2	0.0439	0.0366	0.0174	0.3138	0.0055	0.6181	
341.7	0.0477	0.0282	0.0174	0.2382	0.0053	0.699	
341.5	0.0499	0.0197	0.0174	0.161	0.0051	0.7839	
341.3	0.0531	0.0102	0.0102	0.0787	0.005	0.872	

System: 2-furaldehyde + methoxycyclopentane + water; phases: Liquid mixture 2, Liquid mixture 1
Fixed: Pressure, kPa = 101
Property: Mass fraction of methoxycyclopentane (Liquid mixture 2); method: Chromatography
Property: Mass fraction of methoxycyclopentane (Liquid mixture 1); method: Chromatography
Property: Mass fraction of 2-furaldehyde (Liquid mixture 1); method: Chromatography
Temperature, K	Mass fraction of 2-furaldehyde	Mass fraction of methoxycyclopentane	uncertainty	Mass fraction of methoxycyclopentane	uncertainty	Mass fraction of 2-furaldehyde	uncertainty
298.2	0.0763	0.0023	0.0023	0.053	0.006	0.9078	
298.2	0.0689	0.0043	0.0043	0.1187	0.0059	0.8455	
298.2	0.0623	0.0061	0.0061	0.2021	0.006	0.7651	
298.2	0.0584	0.0071	0.0071	0.2579	0.0062	0.7113	
298.1	0.0515	0.0079	0.0079	0.3509	0.0064	0.6225	
298.1	0.0474	0.0088	0.0088	0.4368	0.0067	0.5397	
298.1	0.0417	0.0095	0.0095	0.5514	0.0068	0.4289	
298.1	0.0372	0.0097	0.0097	0.6315	0.0065	0.3519	
298.1	0.0312	0.0102	0.0102	0.7312	0.0062	0.2556	
298.1	0.0252	0.0105	0.0105	0.8136	0.006	0.176	
298.1	0.0169	0.0105	0.0105	0.8927	0.0059	0.0994	
323.1	0.0877	0.0017	0.0017	0.0527	0.0065	0.8931	
323.1	0.0792	0.0034	0.0034	0.1195	0.0062	0.8328	
323.1	0.0702	0.0046	0.0046	0.2019	0.0061	0.7561	
323.1	0.0655	0.0053	0.0053	0.2566	0.0063	0.7035	
323.1	0.0574	0.006	0.006	0.354	0.0066	0.6122	
323.1	0.0517	0.0065	0.0065	0.4367	0.0068	0.5339	
323.1	0.0445	0.0069	0.0069	0.5497	0.0068	0.4267	
323.1	0.0395	0.007	0.007	0.6311	0.0065	0.3487	
323.1	0.0334	0.0075	0.0075	0.728	0.0062	0.2555	
323.1	0.0261	0.0074	0.0074	0.8111	0.006	0.1761	
323.1	0.0171	0.0075	0.0075	0.8901	0.0059	0.0995	
343.1	0.1087	0.0018	0.0018	0.0511	0.007	0.8764	
343.1	0.0958	0.0034	0.0034	0.1158	0.0065	0.8243	
343.1	0.0838	0.0046	0.0046	0.1939	0.0063	0.7522	
343.1	0.0774	0.0051	0.0051	0.2469	0.0064	0.7037	
343.1	0.0667	0.0058	0.0058	0.3473	0.0067	0.611	
343.1	0.0596	0.0063	0.0063	0.4374	0.007	0.5302	
343.1	0.0507	0.0065	0.0065	0.5498	0.0069	0.4246	
343.1	0.0448	0.0068	0.0068	0.6312	0.0065	0.3493	
343.2	0.0364	0.0069	0.0069	0.7274	0.0061	0.2541	
343.2	0.0281	0.0069	0.0069	0.8109	0.006	0.1746	
343.2	0.0181	0.0068	0.0068	0.889	0.0059	0.0998	
