Measured thermophysical data. Enthalpies of formation of nitromethane and nitrobenzene: New experiments vs. quantum chemical calculations
Source: J. Chem. Thermodyn., 2014, 10.1016/j.jct.2013.12.013
Compound 1: carbon dioxide, CO2, InChI=1S/CO2/c2-1-3
Compound 2: nitrogen, N2, InChI=1S/N2/c1-2
Compound 3: water, H2O, InChI=1S/H2O/h1H2
Compound 4: oxygen, O2, InChI=1S/O2/c1-2
Compound 5: nitromethane, CH3NO2, InChI=1S/CH3NO2/c1-2(3)4/h1H3, purity 99%
Compound 6: nitrobenzene, C6H5NO2, InChI=1S/C6H5NO2/c8-7(9)6-4-2-1-3-5-6/h1-5H, purity 99%

Reaction: -1 nitromethane + 1 carbon dioxide + .5 nitrogen + 1.5 water + -.75 oxygen
Property: Specific internal energy of reaction at constant volume, J/g
-11703.3

Reaction: -1 nitrobenzene + 6 carbon dioxide + .5 nitrogen + 2.5 water + -6.25 oxygen
Property: Specific internal energy of reaction at constant volume, J/g
-25067.4
