Measured thermophysical data. Densities, ultrasonic speeds, excess and partial molar properties of binary mixtures of 2-pyrrolidone with isomeric propanediols at temperatures from 303.15 K to 323.15 K
Source: J. Chem. Thermodyn., 2017, 10.1016/j.jct.2017.03.022
Compound 1: 2-pyrrolidinone, C4H7NO, InChI=1S/C4H7NO/c6-4-2-1-3-5-4/h1-3H2,(H,5,6), purity 99%
Compound 2: 1,2-propanediol, C3H8O2, InChI=1S/C3H8O2/c1-3(5)2-4/h3-5H,2H2,1H3, purity 99%
Compound 3: propan-1,3-diol, C3H8O2, InChI=1S/C3H8O2/c4-2-1-3-5/h4-5H,1-3H2, purity 98%

System: propan-1,3-diol; phases: Liquid
Fixed: Pressure, kPa = 101
Property: Mass density, kg/m3 (Liquid); method: Vibrating tube method
Temperature, K	Mass density, kg/m3	uncertainty
303.15	1046.56	1.01
308.15	1043.43	1.01
313.15	1040.28	1.01
318.15	1037.11	1.01
323.15	1033.92	1.01

System: 1,2-propanediol + 2-pyrrolidinone; phases: Liquid
Fixed: Pressure, kPa = 101
Property: Mass density, kg/m3 (Liquid); method: Vibrating tube method
Temperature, K	Mole fraction of 2-pyrrolidinone	Mass density, kg/m3	uncertainty
303.15	0	1028.94	1.01
303.15	0.0994	1038.42	1.05
303.15	0.1962	1047.15	1.04
303.15	0.3038	1056.3	1.04
303.15	0.4148	1065.17	1.04
303.15	0.5021	1071.72	1.03
303.15	0.5951	1078.36	1.03
303.15	0.6891	1084.67	1.03
303.15	0.7994	1091.64	1.03
303.15	0.8908	1097.03	1.02
303.15	1	1103.07	1.01
308.15	0	1025.2	1.01
308.15	0.0994	1034.26	1.04
308.15	0.1962	1042.74	1.04
308.15	0.3038	1051.69	1.04
308.15	0.4148	1060.55	1.04
308.15	0.5021	1067.1	1.03
308.15	0.5951	1073.71	1.03
308.15	0.6891	1080.01	1.03
308.15	0.7994	1087.08	1.03
308.15	0.8908	1092.6	1.02
308.15	1	1098.99	1.01
313.15	0	1021.43	1.01
313.15	0.0994	1030.26	1.04
313.15	0.1962	1038.53	1.04
313.15	0.3038	1047.29	1.04
313.15	0.4148	1055.91	1.03
313.15	0.5021	1062.38	1.03
313.15	0.5951	1069.03	1.03
313.15	0.6891	1075.46	1.03
313.15	0.7994	1082.66	1.03
313.15	0.8908	1088.37	1.02
313.15	1	1094.9	1.01
318.15	0	1017.63	1.01
318.15	0.0994	1026.14	1.04
318.15	0.1962	1034.14	1.04
318.15	0.3038	1042.69	1.03
318.15	0.4148	1051.2	1.03
318.15	0.5021	1057.63	1.03
318.15	0.5951	1064.29	1.03
318.15	0.6891	1070.79	1.03
318.15	0.7994	1078.14	1.03
318.15	0.8908	1084.03	1.03
318.15	1	1090.82	1.01
323.15	0	1013.79	1.01
323.15	0.0994	1021.99	1.04
323.15	0.1962	1029.74	1.04
323.15	0.3038	1038.13	1.03
323.15	0.4148	1046.49	1.03
323.15	0.5021	1052.9	1.03
323.15	0.5951	1059.57	1.03
323.15	0.6891	1066.14	1.03
323.15	0.7994	1073.64	1.03
323.15	0.8908	1079.69	1.03
323.15	1	1086.75	1.01

System: 1,2-propanediol + 2-pyrrolidinone; phases: Liquid
Fixed: Pressure, kPa = 101
Fixed: Frequency, MHz = 3
Property: Speed of sound, m/s (Liquid); method: Single path-length method
Temperature, K	Mole fraction of 2-pyrrolidinone	Speed of sound, m/s	uncertainty
303.15	0	1496.6	1.3
303.15	0.0994	1511.8	1.3
303.15	0.1962	1526.8	1.3
303.15	0.3038	1543.7	1.3
303.15	0.4148	1560.1	1.3
303.15	0.5021	1571.9	1.3
303.15	0.5951	1583.5	1.3
303.15	0.6891	1594.1	1.2
303.15	0.7994	1604.8	1.2
303.15	0.8908	1612.3	1.2
303.15	1	1617.7	1.2
308.15	0	1482.6	1.3
308.15	0.0994	1497.1	1.3
308.15	0.1962	1511.5	1.3
308.15	0.3038	1528.1	1.3
308.15	0.4148	1544.3	1.3
308.15	0.5021	1555.9	1.3
308.15	0.5951	1567.3	1.3
308.15	0.6891	1577.5	1.2
308.15	0.7994	1588.2	1.2
308.15	0.8908	1595.6	1.2
308.15	1	1601.3	1.2
313.15	0	1468.5	1.3
313.15	0.0994	1482.2	1.3
313.15	0.1962	1496.4	1.3
313.15	0.3038	1512.5	1.3
313.15	0.4148	1528.5	1.3
313.15	0.5021	1540	1.3
313.15	0.5951	1551.2	1.3
313.15	0.6891	1561.4	1.2
313.15	0.7994	1572	1.2
313.15	0.8908	1579.6	1.2
313.15	1	1585.4	1.2
318.15	0	1454.3	1.3
318.15	0.0994	1467.6	1.3
318.15	0.1962	1481.6	1.3
318.15	0.3038	1497.3	1.3
318.15	0.4148	1513.2	1.3
318.15	0.5021	1524.6	1.3
318.15	0.5951	1535.7	1.3
318.15	0.6891	1545.9	1.2
318.15	0.7994	1556.7	1.2
318.15	0.8908	1563.9	1.2
318.15	1	1570.4	1.2
323.15	0	1440.1	1.3
323.15	0.0994	1453	1.3
323.15	0.1962	1466.5	1.3
323.15	0.3038	1481.7	1.3
323.15	0.4148	1497.3	1.3
323.15	0.5021	1508.5	1.3
323.15	0.5951	1519.4	1.3
323.15	0.6891	1529.3	1.2
323.15	0.7994	1539.9	1.2
323.15	0.8908	1546.7	1.2
323.15	1	1553.5	1.2

System: propan-1,3-diol + 2-pyrrolidinone; phases: Liquid
Fixed: Pressure, kPa = 101
Property: Mass density, kg/m3 (Liquid); method: Vibrating tube method
Temperature, K	Mole fraction of 2-pyrrolidinone	Mass density, kg/m3	uncertainty
303.15	0	1046.56	1.01
303.15	0.1108	1052.98	1.03
303.15	0.2172	1059.11	1.03
303.15	0.3044	1064.1	1.03
303.15	0.4174	1070.53	1.03
303.15	0.5076	1075.64	1.02
303.15	0.6177	1081.83	1.02
303.15	0.6909	1085.92	1.02
303.15	0.8139	1092.77	1.02
303.15	0.8736	1096.07	1.02
303.15	1	1103.07	1.01
308.15	0	1043.43	1.01
308.15	0.1108	1049.7	1.03
308.15	0.2172	1055.69	1.03
308.15	0.3044	1060.58	1.02
308.15	0.4174	1066.89	1.02
308.15	0.5076	1071.91	1.02
308.15	0.6177	1078	1.02
308.15	0.6909	1082.04	1.02
308.15	0.8139	1088.8	1.02
308.15	0.8736	1092.07	1.02
308.15	1	1098.99	1.01
313.15	0	1040.28	1.01
313.15	0.1108	1046.4	1.03
313.15	0.2172	1052.25	1.02
313.15	0.3044	1057.04	1.02
313.15	0.4174	1063.24	1.02
313.15	0.5076	1068.17	1.02
313.15	0.6177	1074.17	1.02
313.15	0.6909	1078.15	1.02
313.15	0.8139	1084.83	1.02
313.15	0.8736	1088.06	1.02
313.15	1	1094.9	1
318.15	0	1037.11	1.01
318.15	0.1108	1043.08	1.02
318.15	0.2172	1048.8	1.02
318.15	0.3044	1053.49	1.02
318.15	0.4174	1059.57	1.02
318.15	0.5076	1064.41	1.02
318.15	0.6177	1070.32	1.02
318.15	0.6909	1074.25	1.02
318.15	0.8139	1080.85	1.02
318.15	0.8736	1084.05	1.02
318.15	1	1090.82	1.01
323.15	0	1033.92	1.01
323.15	0.1108	1039.74	1.02
323.15	0.2172	1045.34	1.02
323.15	0.3044	1049.93	1.02
323.15	0.4174	1055.89	1.02
323.15	0.5076	1060.65	1.02
323.15	0.6177	1066.47	1.02
323.15	0.6909	1070.34	1.02
323.15	0.8139	1076.87	1.02
323.15	0.8736	1080.04	1.02
323.15	1	1086.75	1.01

System: propan-1,3-diol + 2-pyrrolidinone; phases: Liquid
Fixed: Pressure, kPa = 101
Fixed: Frequency, MHz = 3
Property: Speed of sound, m/s (Liquid); method: Single path-length method
Temperature, K	Mole fraction of 2-pyrrolidinone	Speed of sound, m/s	uncertainty
303.15	0	1617.6	1.3
303.15	0.1108	1619.8	1.3
303.15	0.2172	1621.2	1.3
303.15	0.3044	1621.9	1.2
303.15	0.4174	1622.4	1.2
303.15	0.5076	1622.4	1.2
303.15	0.6177	1621.9	1.2
303.15	0.6909	1621.4	1.2
303.15	0.8139	1620.2	1.2
303.15	0.8736	1619.5	1.2
303.15	1	1617.7	1.2
308.15	0	1606.2	1.3
308.15	0.1108	1607.5	1.3
308.15	0.2172	1608.3	1.3
308.15	0.3044	1608.6	1.2
308.15	0.4174	1608.5	1.2
308.15	0.5076	1608	1.2
308.15	0.6177	1607	1.2
308.15	0.6909	1606.2	1.2
308.15	0.8139	1604.5	1.2
308.15	0.8736	1603.5	1.2
308.15	1	1601.3	1.2
313.15	0	1594.8	1.3
313.15	0.1108	1595.3	1.3
313.15	0.2172	1595.4	1.3
313.15	0.3044	1595.3	1.2
313.15	0.4174	1594.6	1.2
313.15	0.5076	1593.7	1.2
313.15	0.6177	1592.3	1.2
313.15	0.6909	1591.2	1.2
313.15	0.8139	1589	1.2
313.15	0.8736	1587.9	1.2
313.15	1	1585.4	1.2
318.15	0	1583.5	1.3
318.15	0.1108	1583.4	1.3
318.15	0.2172	1582.9	1.3
318.15	0.3044	1582.3	1.2
318.15	0.4174	1581.1	1.2
318.15	0.5076	1579.9	1.2
318.15	0.6177	1578.2	1.2
318.15	0.6909	1576.8	1.2
318.15	0.8139	1574.4	1.2
318.15	0.8736	1573.1	1.2
318.15	1	1570.4	1.2
323.15	0	1572.1	1.3
323.15	0.1108	1571.2	1.3
323.15	0.2172	1569.9	1.3
323.15	0.3044	1568.7	1.2
323.15	0.4174	1566.8	1.2
323.15	0.5076	1565.1	1.2
323.15	0.6177	1562.8	1.2
323.15	0.6909	1561.1	1.2
323.15	0.8139	1558.2	1.2
323.15	0.8736	1556.8	1.2
323.15	1	1553.5	1.2
