Measured thermophysical data. Densities and excess volumes of binary mixtures of the ionic liquid 1-butyl-3-methylimidazolium hexafluorophosphate with aromatic compound at T = (298.15 to 313.15) K
Source: J. Chem. Thermodyn., 2007, 10.1016/j.jct.2006.07.001
Compound 1: 1-butyl-3-methylimidazolium hexafluorophosphate, C8H15F6N2P, InChI=1S/C8H15N2.F6P/c1-3-4-5-10-7-6-9(2)8-10;1-7(2,3,4,5)6/h6-8H,3-5H2,1-2H3;/q+1;-1
Compound 2: benzenemethanol, C7H8O, InChI=1S/C7H8O/c8-6-7-4-2-1-3-5-7/h1-5,8H,6H2, purity 99%
Compound 3: benzaldehyde, C7H6O, InChI=1S/C7H6O/c8-6-7-4-2-1-3-5-7/h1-6H, purity 98.5%

System: 1-butyl-3-methylimidazolium hexafluorophosphate; phases: Liquid
Property: Mass density, kg/m3 (Liquid); method: Vibrating tube method
Temperature, K	Pressure, kPa	Mass density, kg/m3	uncertainty
298.15	101.325	1369.74	10.24

System: benzenemethanol; phases: Liquid
Property: Mass density, kg/m3 (Liquid); method: Vibrating tube method
Temperature, K	Pressure, kPa	Mass density, kg/m3	uncertainty
298.15	101.325	1044.85	0.27

System: benzaldehyde; phases: Liquid
Property: Mass density, kg/m3 (Liquid); method: Vibrating tube method
Temperature, K	Pressure, kPa	Mass density, kg/m3	uncertainty
298.15	101.325	1043.61	0.54

System: benzenemethanol + 1-butyl-3-methylimidazolium hexafluorophosphate; phases: Liquid
Fixed: Pressure, kPa = 101
Property: Mass density, kg/m3 (Liquid); method: Vibrating tube method
Temperature, K	Mole fraction of 1-butyl-3-methylimidazolium hexafluorophosphate	Mass density, kg/m3	uncertainty
298.15	0	1044.85	0.26
298.15	0.0502	1079.03	0.4
298.15	0.0989	1108.64	0.55
298.15	0.1998	1160.82	0.97
298.15	0.3001	1203.01	1.53
298.15	0.4012	1238.3	2.25
298.15	0.5012	1267.82	3.12
298.15	0.6014	1293.35	4.17
298.15	0.7003	1315.45	5.39
298.15	0.8005	1335.42	6.81
298.15	0.9016	1353.6	8.44
298.15	1	1369.74	10.24
303.15	0	1040.97	0.26
303.15	0.0502	1075.09	0.4
303.15	0.0989	1104.66	0.55
303.15	0.1998	1156.76	0.96
303.15	0.3001	1198.94	1.52
303.15	0.4012	1234.23	2.23
303.15	0.5012	1263.74	3.1
303.15	0.6014	1289.24	4.15
303.15	0.7003	1311.33	5.35
303.15	0.8005	1331.26	6.76
303.15	0.9016	1349.39	8.39
303.15	1	1365.51	10.18
308.15	0	1037.09	0.26
308.15	0.0502	1071.16	0.39
308.15	0.0989	1100.7	0.54
308.15	0.1998	1152.74	0.96
308.15	0.3001	1194.89	1.51
308.15	0.4012	1230.15	2.22
308.15	0.5012	1259.64	3.08
308.15	0.6014	1285.12	4.12
308.15	0.7003	1307.18	5.32
308.15	0.8005	1327.14	6.72
308.15	0.9016	1345.29	8.34
308.15	1	1361.36	10.11
313.15	0	1033.17	0.26
313.15	0.0502	1067.2	0.39
313.15	0.0989	1096.72	0.54
313.15	0.1998	1148.71	0.95
313.15	0.3001	1190.83	1.5
313.15	0.4012	1226.07	2.2
313.15	0.5012	1255.53	3.06
313.15	0.6014	1280.98	4.09
313.15	0.7003	1303.04	5.28
313.15	0.8005	1322.96	6.68
313.15	0.9016	1341.08	8.29
313.15	1	1357.17	10.05

System: benzaldehyde + 1-butyl-3-methylimidazolium hexafluorophosphate; phases: Liquid
Fixed: Pressure, kPa = 101
Property: Mass density, kg/m3 (Liquid); method: Vibrating tube method
Temperature, K	Mole fraction of 1-butyl-3-methylimidazolium hexafluorophosphate	Mass density, kg/m3	uncertainty
298.15	0	1043.68	0.54
298.15	0.0523	1081.36	0.73
298.15	0.1034	1113.62	0.94
298.15	0.2003	1164.9	1.43
298.15	0.2996	1207.37	2.04
298.15	0.4026	1243.63	2.82
298.15	0.5118	1275.65	3.79
298.15	0.5983	1297.3	4.68
298.15	0.7011	1319.6	5.87
298.15	0.7977	1337.76	7.13
298.15	0.8996	1354.63	8.62
298.15	1	1369.74	10.24
303.15	0	1039.64	0.53
303.15	0.0523	1077.27	0.72
303.15	0.1034	1109.46	0.93
303.15	0.2003	1160.74	1.42
303.15	0.2996	1203.19	2.03
303.15	0.4026	1239.44	2.8
303.15	0.5118	1271.44	3.76
303.15	0.5983	1293.14	4.65
303.15	0.7011	1315.55	5.83
303.15	0.7977	1333.78	7.09
303.15	0.8996	1350.65	8.56
303.15	1	1365.51	10.18
308.15	0	1035.35	0.53
308.15	0.0523	1072.95	0.72
308.15	0.1034	1105.14	0.93
308.15	0.2003	1156.46	1.4
308.15	0.2996	1198.97	2.01
308.15	0.4026	1235.23	2.78
308.15	0.5118	1267.23	3.74
308.15	0.5983	1288.9	4.62
308.15	0.7011	1311.29	5.8
308.15	0.7977	1329.56	7.04
308.15	0.8996	1346.5	8.51
308.15	1	1361.36	10.11
313.15	0	1031	0.52
313.15	0.0523	1068.58	0.71
313.15	0.1034	1100.81	0.92
313.15	0.2003	1152.16	1.39
313.15	0.2996	1194.73	2
313.15	0.4026	1231.01	2.76
313.15	0.5118	1263.03	3.71
313.15	0.5983	1284.74	4.58
313.15	0.7011	1307.11	5.76
313.15	0.7977	1325.4	7
313.15	0.8996	1342.31	8.46
313.15	1	1357.17	10.05
