Measured thermophysical data. Volumetric properties of (1-propoxypropan-2-ol + water) mixtures between (283 and 303) K: The effect of branching on alkoxyalcohols
Source: J. Chem. Thermodyn., 2009, 10.1016/j.jct.2009.06.016
Compound 1: 1-propoxy-2-propanol, C6H14O2, InChI=1S/C6H14O2/c1-3-4-8-5-6(2)7/h6-7H,3-5H2,1-2H3
Compound 2: water, H2O, InChI=1S/H2O/h1H2, purity 99.9%

System: 1-propoxy-2-propanol; phases: Liquid
Fixed: Pressure, kPa = 101
Property: Mass density, kg/m3 (Liquid); method: Vibrating tube method
Temperature, K	Mass density, kg/m3	uncertainty
283.15	894.462	0.233
288.15	889.963	0.233
293.15	885.456	0.234
298.15	880.837	0.234
303.15	876.279	0.234

System: water; phases: Liquid
Fixed: Pressure, kPa = 101
Property: Mass density, kg/m3 (Liquid); method: Vibrating tube method
Temperature, K	Mass density, kg/m3	uncertainty
283.15	999.699	0.05
288.15	999.097	0.051
293.15	998.201	0.051
298.15	997.041	0.052
303.15	995.643	0.052

System: 1-propoxy-2-propanol + water; phases: Liquid
Fixed: Pressure, kPa = 101
Property: Mass density, kg/m3 (Liquid); method: Vibrating tube method
Temperature, K	Mole fraction of 1-propoxy-2-propanol	Mass density, kg/m3	uncertainty
283.15	0	999.699	0.05
283.15	0.001639	999.31	0.055
283.15	0.003265	999.009	0.053
283.15	0.010494	998.189	0.052
283.15	0.017408	997.871	0.052
283.15	0.024125	997.617	0.053
283.15	0.024925	997.584	0.053
283.15	0.033406	997.009	0.055
283.15	0.041102	995.626	0.06
283.15	0.049035	993.374	0.065
283.15	0.058964	990.231	0.067
283.15	0.069188	987.019	0.069
283.15	0.077216	984.1	0.07
283.15	0.088961	980.8	0.07
283.15	0.098332	977.885	0.071
283.15	0.108292	975.142	0.072
283.15	0.118223	972.498	0.072
283.15	0.124856	970.842	0.073
283.15	0.128326	969.927	0.073
283.15	0.136508	967.946	0.074
283.15	0.147511	965.216	0.074
283.15	0.167695	961.137	0.076
283.15	0.195507	955.28	0.079
283.15	0.22806	950.34	0.082
283.15	0.274339	943.61	0.087
283.15	0.320765	937.609	0.092
283.15	0.348289	934.321	0.095
283.15	0.373805	931.91	0.098
283.15	0.421418	927.214	0.105
283.15	0.478698	922.45	0.114
283.15	0.52573	918.715	0.122
283.15	0.548001	916.854	0.127
283.15	0.57709	915.29	0.132
283.15	0.597692	913.887	0.136
283.15	0.624652	912.186	0.141
283.15	0.638518	911.37	0.144
283.15	0.671992	909.401	0.151
283.15	0.679262	909.018	0.153
283.15	0.719203	906.894	0.162
283.15	0.727165	906.317	0.164
283.15	0.744756	905.495	0.167
283.15	0.758947	904.809	0.171
283.15	0.768177	903.977	0.173
283.15	0.785828	903.51	0.177
283.15	0.798062	902.909	0.18
283.15	0.822355	901.51	0.186
283.15	0.839781	901.029	0.19
283.15	0.858822	900.07	0.195
283.15	0.879232	898.865	0.2
283.15	0.879625	899.334	0.2
283.15	0.899335	898.371	0.206
283.15	0.919691	897.715	0.211
283.15	0.919694	897.195	0.211
283.15	0.938832	896.775	0.216
283.15	0.948574	896.411	0.219
283.15	0.960916	895.933	0.222
283.15	0.962833	896.008	0.223
283.15	0.971555	895.539	0.225
283.15	0.97985	895.261	0.227
283.15	0.981795	895.15	0.228
283.15	0.991864	894.781	0.231
283.15	1	894.462	0.233
288.15	0	999.097	0.051
288.15	0.001639	998.703	0.056
288.15	0.003265	998.36	0.053
288.15	0.010494	997.309	0.053
288.15	0.017408	996.708	0.053
288.15	0.024125	996.172	0.054
288.15	0.024925	996.099	0.054
288.15	0.033406	994.916	0.058
288.15	0.041102	993.032	0.063
288.15	0.049035	990.531	0.067
288.15	0.058964	987.111	0.069
288.15	0.069188	983.629	0.071
288.15	0.077216	980.908	0.07
288.15	0.088961	977.203	0.072
288.15	0.098332	974.328	0.072
288.15	0.108292	971.439	0.073
288.15	0.118223	968.762	0.074
288.15	0.124856	967.03	0.074
288.15	0.128326	966.142	0.074
288.15	0.136508	964.14	0.075
288.15	0.147511	961.573	0.075
288.15	0.167695	957.197	0.077
288.15	0.195507	951.825	0.079
288.15	0.22806	946.219	0.083
288.15	0.274339	939.47	0.087
288.15	0.320765	933.429	0.093
288.15	0.348289	930.247	0.095
288.15	0.373805	927.69	0.099
288.15	0.421418	922.877	0.106
288.15	0.478698	918.2	0.115
288.15	0.52573	914.413	0.124
288.15	0.548001	912.761	0.127
288.15	0.57709	910.9	0.133
288.15	0.597692	909.422	0.137
288.15	0.624652	907.847	0.143
288.15	0.626396	907.647	0.143
288.15	0.638518	906.945	0.145
288.15	0.671992	905.017	0.152
288.15	0.67583	904.871	0.153
288.15	0.679262	904.571	0.154
288.15	0.719203	902.407	0.163
288.15	0.727165	901.907	0.164
288.15	0.744756	901.061	0.168
288.15	0.758947	900.364	0.172
288.15	0.768177	899.934	0.173
288.15	0.785828	899.08	0.178
288.15	0.798062	898.495	0.181
288.15	0.822355	897.287	0.186
288.15	0.839781	896.637	0.191
288.15	0.858822	895.641	0.196
288.15	0.879232	894.921	0.2
288.15	0.879625	894.851	0.201
288.15	0.899335	893.936	0.206
288.15	0.919691	893.212	0.211
288.15	0.919694	893.204	0.211
288.15	0.938832	892.326	0.216
288.15	0.948574	891.949	0.219
288.15	0.960916	891.451	0.223
288.15	0.962833	891.604	0.223
288.15	0.971555	891.059	0.225
288.15	0.97985	890.77	0.228
288.15	0.981795	890.664	0.228
288.15	0.991864	890.294	0.231
288.15	1	889.963	0.233
293.15	0	998.201	0.051
293.15	0.001639	997.77	0.057
293.15	0.003265	997.378	0.055
293.15	0.010494	996.156	0.054
293.15	0.017408	995.295	0.054
293.15	0.024125	994.434	0.057
293.15	0.024925	994.315	0.057
293.15	0.033406	992.599	0.061
293.15	0.041102	990.295	0.066
293.15	0.049035	987.469	0.07
293.15	0.058964	983.811	0.071
293.15	0.069188	980.171	0.072
293.15	0.077216	977.347	0.073
293.15	0.088961	973.523	0.073
293.15	0.098332	970.577	0.074
293.15	0.108292	967.62	0.074
293.15	0.118223	964.864	0.075
293.15	0.124856	963.131	0.075
293.15	0.128326	962.218	0.075
293.15	0.136508	960.182	0.076
293.15	0.147511	957.6	0.077
293.15	0.167695	953.147	0.078
293.15	0.195507	947.746	0.081
293.15	0.22806	942.051	0.084
293.15	0.274339	935.34	0.088
293.15	0.320765	929.158	0.094
293.15	0.348289	926.15	0.097
293.15	0.373805	923.45	0.1
293.15	0.421418	918.572	0.107
293.15	0.478698	913.81	0.117
293.15	0.52573	910.011	0.125
293.15	0.548001	908.503	0.129
293.15	0.57709	906.52	0.134
293.15	0.597692	905.093	0.138
293.15	0.624652	903.425	0.144
293.15	0.626396	903.218	0.144
293.15	0.638518	902.498	0.147
293.15	0.671992	900.577	0.153
293.15	0.67583	900.301	0.154
293.15	0.679262	900.121	0.155
293.15	0.719203	897.954	0.164
293.15	0.727165	897.467	0.165
293.15	0.744756	896.614	0.169
293.15	0.758947	895.887	0.172
293.15	0.768177	895.456	0.174
293.15	0.785828	894.6	0.179
293.15	0.798062	894.001	0.181
293.15	0.822355	892.828	0.187
293.15	0.839781	891.636	0.192
293.15	0.858822	891.133	0.196
293.15	0.879232	890.346	0.201
293.15	0.879625	890.337	0.201
293.15	0.899335	889.399	0.207
293.15	0.919691	888.659	0.212
293.15	0.919694	888.679	0.212
293.15	0.938832	887.803	0.217
293.15	0.948574	887.413	0.219
293.15	0.960916	886.918	0.223
293.15	0.962833	887.059	0.223
293.15	0.971555	886.524	0.226
293.15	0.97985	886.193	0.228
293.15	0.981795	886.123	0.229
293.15	0.991864	885.746	0.231
293.15	1	885.456	0.234
298.15	0	997.041	0.052
298.15	0.001639	996.607	0.058
298.15	0.003265	996.203	0.056
298.15	0.010494	994.754	0.056
298.15	0.017408	993.639	0.056
298.15	0.024125	992.449	0.059
298.15	0.024925	992.281	0.059
298.15	0.033406	990.099	0.064
298.15	0.041102	987.401	0.07
298.15	0.049035	984.302	0.072
298.15	0.058964	980.443	0.073
298.15	0.069188	976.629	0.074
298.15	0.077216	973.676	0.074
298.15	0.088961	969.756	0.075
298.15	0.098332	966.718	0.075
298.15	0.108292	963.724	0.076
298.15	0.118223	960.927	0.076
298.15	0.124856	959.154	0.077
298.15	0.128326	958.25	0.077
298.15	0.136508	956.19	0.077
298.15	0.147511	953.581	0.078
298.15	0.167695	949.056	0.079
298.15	0.195507	943.61	0.082
298.15	0.22806	937.893	0.085
298.15	0.274339	931.11	0.09
298.15	0.320765	924.917	0.095
298.15	0.348289	921.878	0.098
298.15	0.373805	919.12	0.101
298.15	0.421418	914.335	0.108
298.15	0.478698	909.35	0.118
298.15	0.52573	905.586	0.126
298.15	0.548001	904.085	0.13
298.15	0.57709	902.07	0.136
298.15	0.597692	900.499	0.139
298.15	0.624652	898.961	0.145
298.15	0.626396	898.785	0.145
298.15	0.638518	897.87	0.147
298.15	0.671992	896.108	0.154
298.15	0.67583	895.81	0.155
298.15	0.679262	895.632	0.156
298.15	0.719203	893.432	0.164
298.15	0.727165	892.945	0.166
298.15	0.744756	892.14	0.17
298.15	0.758947	891.371	0.173
298.15	0.768177	890.967	0.175
298.15	0.785828	890.07	0.179
298.15	0.798062	889.483	0.182
298.15	0.822355	888.311	0.188
298.15	0.839781	887.602	0.192
298.15	0.858822	886.589	0.197
298.15	0.879232	885.821	0.202
298.15	0.879625	885.871	0.202
298.15	0.899335	884.854	0.207
298.15	0.919691	884.155	0.212
298.15	0.919694	884.109	0.212
298.15	0.938832	883.236	0.217
298.15	0.948574	882.854	0.22
298.15	0.960916	882.36	0.223
298.15	0.962833	882.424	0.224
298.15	0.971555	881.962	0.226
298.15	0.97985	881.641	0.228
298.15	0.981795	881.551	0.229
298.15	0.991864	881.183	0.232
298.15	1	880.837	0.234
303.15	0	995.643	0.052
303.15	0.001639	995.166	0.059
303.15	0.003265	994.729	0.058
303.15	0.010494	993.101	0.057
303.15	0.017408	991.738	0.058
303.15	0.024125	990.242	0.063
303.15	0.024925	990.035	0.063
303.15	0.033406	987.376	0.068
303.15	0.041102	984.348	0.073
303.15	0.049035	981.013	0.074
303.15	0.058964	976.913	0.075
303.15	0.069188	972.832	0.076
303.15	0.077216	969.873	0.075
303.15	0.088961	965.792	0.076
303.15	0.098332	962.723	0.076
303.15	0.108292	959.684	0.077
303.15	0.118223	956.826	0.077
303.15	0.124856	955.036	0.078
303.15	0.128326	954.135	0.078
303.15	0.136508	952.054	0.078
303.15	0.147511	949.414	0.079
303.15	0.167695	944.898	0.08
303.15	0.195507	939.419	0.082
303.15	0.22806	933.693	0.085
303.15	0.274339	926.81	0.09
303.15	0.320765	920.58	0.096
303.15	0.348289	917.532	0.099
303.15	0.373805	914.74	0.102
303.15	0.421418	909.931	0.109
303.15	0.478698	904.97	0.119
303.15	0.52573	901.122	0.127
303.15	0.548001	899.604	0.131
303.15	0.57709	897.57	0.137
303.15	0.597692	896.129	0.14
303.15	0.624652	894.432	0.146
303.15	0.626396	894.261	0.146
303.15	0.638518	893.542	0.148
303.15	0.671992	891.567	0.155
303.15	0.67583	891.293	0.156
303.15	0.679262	891.142	0.157
303.15	0.719203	888.909	0.165
303.15	0.727165	888.391	0.167
303.15	0.744756	887.56	0.171
303.15	0.758947	886.848	0.174
303.15	0.768177	886.382	0.176
303.15	0.785828	885.47	0.18
303.15	0.798062	884.923	0.183
303.15	0.822355	883.721	0.189
303.15	0.839781	882.984	0.193
303.15	0.858822	882.007	0.197
303.15	0.879232	881.196	0.203
303.15	0.879625	881.204	0.203
303.15	0.899335	880.259	0.207
303.15	0.919691	879.548	0.213
303.15	0.919694	879.479	0.213
303.15	0.938832	878.623	0.218
303.15	0.948574	878.219	0.22
303.15	0.960916	877.745	0.224
303.15	0.962833	877.865	0.224
303.15	0.971555	877.362	0.226
303.15	0.97985	876.998	0.229
303.15	0.981795	876.955	0.229
303.15	0.991864	876.546	0.232
303.15	1	876.279	0.234
