Measured thermophysical data. Thermodynamics of proton dissociations from aqueous serine at temperatures from (278.15 to 393.15) K, molalities from (0.01 up to 1.0) mol Ae kg-1, and at the pressure 0.35 MPa: Apparent molar heat capacities and apparent molar volumes of serine, serinium chloride, and sodium serinate
Source: J. Chem. Thermodyn., 2006, 10.1016/j.jct.2005.07.019
Compound 1: L-serine, C3H7NO3, InChI=1S/C3H7NO3/c4-2(1-5)3(6)7/h2,5H,1,4H2,(H,6,7)/t2-/m0/s1, purity 99%
Compound 2: (.+-.)-serine, C3H7NO3, InChI=1S/C3H7NO3/c4-2(1-5)3(6)7/h2,5H,1,4H2,(H,6,7), purity 99%
Compound 3: (R)-(-)-serine, C3H7NO3, InChI=1S/C3H7NO3/c4-2(1-5)3(6)7/h2,5H,1,4H2,(H,6,7)/t2-/m1/s1, purity 99%
Compound 4: hydrogen chloride, ClH, InChI=1S/ClH/h1H
Compound 5: water, H2O, InChI=1S/H2O/h1H2
Compound 6: sodium hydroxide, HNaO, InChI=1S/Na.H2O/h;1H2/q+1;/p-1

System: L-serine + water; phases: Liquid
Fixed: Pressure, kPa = 350
Property: Apparent molar heat capacity, J/K/mol (Liquid); method: Extra sensitive DSC
Molality, mol/kg of L-serine	Temperature, K	Apparent molar heat capacity, J/K/mol	uncertainty
0.015	278.15	58.9	51.8
0.015	283.15	78.9	51.8
0.015	288.15	94.8	51.9
0.015	293.15	108	51.9
0.015	298.15	118.7	51.9
0.015	303.15	127.9	51.9
0.015	308.15	135.6	52
0.015	313.15	142.6	52
0.015	318.15	148.7	52
0.015	323.15	153.9	52
0.015	328.15	158.6	52
0.015	333.15	163.4	52
0.015	338.15	167.3	52
0.015	343.15	170.4	52
0.015	348.15	173.7	52.1
0.015	353.15	176	52
0.015	358.15	178	52
0.015	363.15	179	52
0.015	368.15	181	52
0.015	373.15	181	53
0.015	378.15	181	53
0.015	383.15	182	54
0.015	388.15	183	54
0.015	393.15	183	55
0.0302	278.15	59.2	25.8
0.0302	283.15	79.3	25.8
0.0302	288.15	95.4	25.9
0.0302	293.15	108.7	25.9
0.0302	298.15	119.4	25.9
0.0302	303.15	128.6	26
0.0302	308.15	136.4	26
0.0302	313.15	143.1	26
0.0302	318.15	148.9	26
0.0302	323.15	154.1	26
0.0302	328.15	158.6	26
0.0302	333.15	163.1	26
0.0302	338.15	166.8	26
0.0302	343.15	169.9	26.1
0.0302	348.15	172.4	26.1
0.0302	353.15	174.9	26.1
0.0302	358.15	176.9	26.4
0.0302	363.15	178.4	26.6
0.0302	368.15	179.7	26.6
0.0302	373.15	180.9	26.7
0.0302	378.15	181.7	26.9
0.0302	383.15	182.2	27.1
0.0302	388.15	182.6	27.4
0.0302	393.15	182.6	27.6
0.05	278.15	58.9	15.6
0.05	283.15	79.2	15.7
0.05	288.15	95.2	15.7
0.05	293.15	108.4	15.8
0.05	298.15	119.2	15.8
0.05	303.15	128.4	15.8
0.05	308.15	136.2	15.8
0.05	313.15	142.9	15.8
0.05	318.15	148.6	15.8
0.05	323.15	153.8	15.9
0.05	328.15	158.3	15.9
0.05	333.15	162.2	15.9
0.05	338.15	165.8	15.9
0.05	343.15	168.8	15.9
0.05	348.15	171.4	15.9
0.05	353.15	173.8	15.9
0.05	358.15	176	16.2
0.05	363.15	177.6	16.3
0.05	368.15	178.9	16.3
0.05	373.15	180.2	16.4
0.05	378.15	181	16.5
0.05	383.15	181.8	16.7
0.05	388.15	182.7	16.8
0.05	393.15	183.3	16.9
0.08	278.15	60.7	9.8
0.08	283.15	80.6	9.9
0.08	288.15	96.5	9.9
0.08	293.15	109.5	9.9
0.08	298.15	120.1	10
0.08	303.15	129.2	10
0.08	308.15	136.9	10
0.08	313.15	143.5	10
0.08	318.15	149.2	10
0.08	323.15	154.2	10
0.08	328.15	158.7	10.1
0.08	333.15	162.6	10.1
0.08	338.15	166.2	10.1
0.08	343.15	169	10.2
0.08	348.15	171.6	10.2
0.08	353.15	174	10.3
0.08	358.15	176	10.5
0.08	363.15	177.7	10.5
0.08	368.15	179	10.5
0.08	373.15	180.1	10.6
0.08	378.15	180.7	10.7
0.08	383.15	181.3	10.8
0.08	388.15	181.4	10.9
0.08	393.15	181.2	11
0.1249	278.15	62.4	6.4
0.1249	283.15	82.1	6.4
0.1249	288.15	97.7	6.4
0.1249	293.15	110.5	6.5
0.1249	298.15	120.9	6.5
0.1249	303.15	129.9	6.5
0.1249	308.15	137.5	6.5
0.1249	313.15	144.1	6.6
0.1249	318.15	149.7	6.6
0.1249	323.15	154.6	6.6
0.1249	328.15	159	6.7
0.1249	333.15	162.9	6.7
0.1249	338.15	166.4	6.8
0.1249	343.15	169.3	6.8
0.1249	348.15	171.9	6.9
0.1249	353.15	174.3	6.9
0.1249	358.15	176.4	7
0.1249	363.15	178.1	7.1
0.1249	368.15	179.6	7.1
0.1249	373.15	180.7	7.1
0.1249	378.15	181.7	7.3
0.1249	383.15	182.4	7.3
0.1249	388.15	183	7.4
0.1249	393.15	183.4	7.4
0.2501	278.15	67.93	3.52
0.2501	283.15	86.36	3.57
0.2501	288.15	101.28	3.59
0.2501	293.15	113.56	3.6
0.2501	298.15	123.63	3.63
0.2501	303.15	132.24	3.66
0.2501	308.15	139.63	3.68
0.2501	313.15	145.98	3.72
0.2501	318.15	151.4	3.7
0.2501	323.15	156.2	3.7
0.2501	328.15	160.4	3.9
0.2501	333.15	164.2	3.9
0.2501	338.15	167.6	3.9
0.2501	343.15	170.5	3.9
0.2501	348.15	173.1	4
0.2501	353.15	175.4	4
0.2501	358.15	177.4	4
0.2501	363.15	179.1	4.1
0.2501	368.15	180.6	4.1
0.2501	373.15	181.8	4.1
0.2501	378.15	182.9	4.1
0.2501	383.15	183.8	4.1
0.2501	388.15	184.4	4.3
0.2501	393.15	184.8	4.3
0.3717	278.15	72.64	2.69
0.3717	283.15	90.3	2.73
0.3717	288.15	104.58	2.74
0.3717	293.15	116.4	2.75
0.3717	298.15	126.11	2.76
0.3717	303.15	134.43	2.78
0.3717	308.15	141.58	2.8
0.3717	313.15	147.77	2.82
0.3717	318.15	153.04	2.84
0.3717	323.15	157.74	2.88
0.3717	328.15	161.86	2.9
0.3717	333.15	165.59	2.93
0.3717	338.15	168.91	2.96
0.3717	343.15	171.75	2.99
0.3717	348.15	174.28	3.02
0.3717	353.15	176.6	3
0.3717	358.15	178.6	3
0.3717	363.15	180.3	3.2
0.3717	368.15	181.8	3.2
0.3717	373.15	183	3.2
0.3717	378.15	183.9	3.2
0.3717	383.15	184.8	3.2
0.3717	388.15	185.4	3.3
0.3717	393.15	185.7	3.3
0.7002	278.15	84.65	1.95
0.7002	283.15	99.99	1.99
0.7002	288.15	112.69	1.99
0.7002	293.15	123.33	1.99
0.7002	298.15	132.2	2
0.7002	303.15	139.82	1.99
0.7002	308.15	146.36	2
0.7002	313.15	152.15	2.03
0.7002	318.15	157.06	2.05
0.7002	323.15	161.47	2.05
0.7002	328.15	165.32	2.07
0.7002	333.15	168.83	2.09
0.7002	338.15	172	2.13
0.7002	343.15	174.71	2.15
0.7002	348.15	177.14	2.17
0.7002	353.15	179.33	2.2
0.7002	358.15	181.28	2.23
0.7002	363.15	182.94	2.27
0.7002	368.15	184.38	2.27
0.7002	373.15	185.63	2.29
0.7002	378.15	186.55	2.3
0.7002	383.15	187.46	2.34
0.7002	388.15	188.07	2.35
0.7002	393.15	188.6	2.5
1.0007	278.15	94.04	1.74
1.0007	283.15	108.37	1.77
1.0007	288.15	120.13	1.77
1.0007	293.15	129.97	1.76
1.0007	298.15	138.25	1.76
1.0007	303.15	145.45	1.75
1.0007	308.15	151.62	1.76
1.0007	313.15	157.1	1.78
1.0007	318.15	161.73	1.79
1.0007	323.15	165.95	1.81
1.0007	328.15	169.63	1.83
1.0007	333.15	173.01	1.83
1.0007	338.15	176.07	1.85
1.0007	343.15	178.65	1.89
1.0007	348.15	181.02	1.91
1.0007	353.15	183.15	1.93
1.0007	358.15	185.03	1.96
1.0007	363.15	186.63	1.98
1.0007	368.15	188	1.98
1.0007	373.15	189.22	2
1.0007	378.15	190.12	2.03
1.0007	383.15	190.98	2.05
1.0007	388.15	191.6	2.07
1.0007	393.15	192.04	2.1

System: L-serine + water; phases: Liquid
Fixed: Pressure, kPa = 350
Property: Apparent molar volume, m3/mol (Liquid); method: Calculated with densities of this investigation
Temperature, K	Molality, mol/kg of L-serine	Apparent molar volume, m3/mol	uncertainty
278.15	0.01	5.63e-05	1.17e-05
278.15	0.015	5.7e-05	3.7e-06
278.15	0.02	6.01e-05	6e-06
278.15	0.0302	5.73e-05	1.96e-06
278.15	0.04	5.95e-05	2.8e-06
278.15	0.05	5.946e-05	1.5e-06
278.15	0.06	5.873e-05	1.89e-06
278.15	0.08	5.909e-05	1.03e-06
278.15	0.1249	5.924e-05	7.8e-07
278.15	0.2501	5.922e-05	5.9e-07
278.15	0.3717	5.932e-05	5.5e-07
278.15	0.7002	5.996e-05	5.2e-07
278.15	1.0007	6.032e-05	5.2e-07
278.15	0.08	5.865e-05	1.29e-06
283.15	0.01	5.88e-05	1.1e-05
283.15	0.015	5.865e-05	3.05e-06
283.15	0.02	6.16e-05	5.6e-06
283.15	0.0302	5.881e-05	1.58e-06
283.15	0.04	6.01e-05	2.4e-06
283.15	0.05	6.02e-05	1.3e-06
283.15	0.06	5.953e-05	1.71e-06
283.15	0.08	5.969e-05	9.1e-07
283.15	0.1249	5.982e-05	7.1e-07
283.15	0.2501	5.991e-05	5.9e-07
283.15	0.3717	5.999e-05	5.5e-07
283.15	0.7002	6.054e-05	5.2e-07
283.15	1.0007	6.089e-05	5e-07
283.15	0.08	5.968e-05	1.17e-06
288.15	0.01	6.02e-05	9.1e-06
288.15	0.015	5.982e-05	3.11e-06
288.15	0.02	6.19e-05	4.6e-06
288.15	0.0302	5.983e-05	1.6e-06
288.15	0.04	6.038e-05	2.1e-06
288.15	0.05	6.071e-05	1.24e-06
288.15	0.06	6.013e-05	1.45e-06
288.15	0.08	6.05e-05	8.7e-07
288.15	0.1249	6.044e-05	6.9e-07
288.15	0.2501	6.051e-05	5.9e-07
288.15	0.3717	6.061e-05	5.3e-07
288.15	0.7002	6.106e-05	5e-07
288.15	1.0007	6.137e-05	5e-07
288.15	0.08	6.031e-05	1.07e-06
298.15	0.01	6.17e-05	5.9e-06
298.15	0.015	6.089e-05	3.17e-06
298.15	0.02	6.21e-05	3e-06
298.15	0.0302	6.113e-05	1.62e-06
298.15	0.04	6.121e-05	1.55e-06
298.15	0.05	6.11e-05	1.08e-06
298.15	0.06	6.11e-05	1.1e-06
298.15	0.08	6.12e-05	7.8e-07
298.15	0.1249	6.124e-05	6.5e-07
298.15	0.2501	6.141e-05	5.5e-07
298.15	0.3717	6.143e-05	5.1e-07
298.15	0.7002	6.189e-05	5e-07
298.15	1.0007	6.217e-05	4.8e-07
298.15	0.08	6.122e-05	8.9e-07
308.15	0.01	6.29e-05	5.1e-06
308.15	0.015	6.19e-05	4.2e-06
308.15	0.02	6.216e-05	2.58e-06
308.15	0.0302	6.175e-05	2.12e-06
308.15	0.04	6.133e-05	1.29e-06
308.15	0.05	6.099e-05	1.25e-06
308.15	0.06	6.194e-05	9.4e-07
308.15	0.08	6.142e-05	8.8e-07
308.15	0.1249	6.175e-05	6.8e-07
308.15	0.2501	6.206e-05	5.5e-07
308.15	0.3717	6.206e-05	5.2e-07
308.15	0.7002	6.251e-05	4.8e-07
308.15	1.0007	6.276e-05	4.8e-07
308.15	0.08	6.198e-05	8.2e-07
318.15	0.01	6.46e-05	5.1e-06
318.15	0.015	6.28e-05	4.5e-06
318.15	0.02	6.287e-05	2.5e-06
318.15	0.0302	6.258e-05	2.27e-06
318.15	0.04	6.166e-05	1.42e-06
318.15	0.05	6.191e-05	1.28e-06
318.15	0.06	6.244e-05	1.04e-06
318.15	0.08	6.145e-05	8.9e-07
318.15	0.1249	6.218e-05	7e-07
318.15	0.2501	6.254e-05	5.7e-07
318.15	0.3717	6.258e-05	5.3e-07
318.15	0.7002	6.3e-05	5e-07
318.15	1.0007	6.323e-05	4.8e-07
318.15	0.08	6.26e-05	8.1e-07
328.15	0.01	6.48e-05	6.4e-06
328.15	0.015	6.6e-05	7.3e-06
328.15	0.02	6.31e-05	3.2e-06
328.15	0.0302	6.39e-05	3.7e-06
328.15	0.04	6.179e-05	1.48e-06
328.15	0.05	6.28e-05	1.8e-06
328.15	0.06	6.312e-05	1.07e-06
328.15	0.08	6.196e-05	1.2e-06
328.15	0.1249	6.267e-05	8.6e-07
328.15	0.2501	6.293e-05	5.5e-07
328.15	0.3717	6.291e-05	5.3e-07
328.15	0.7002	6.337e-05	5e-07
328.15	1.0007	6.358e-05	5e-07
328.15	0.08	6.297e-05	9e-07
338.15	0.01	6.61e-05	9e-06
338.15	0.015	6.71e-05	1.07e-05
338.15	0.02	6.36e-05	4.4e-06
338.15	0.0302	6.5e-05	5.4e-06
338.15	0.04	6.156e-05	2.06e-06
338.15	0.05	6.345e-05	2.49e-06
338.15	0.06	6.346e-05	1.44e-06
338.15	0.08	6.237e-05	1.62e-06
338.15	0.1249	6.304e-05	1.1e-06
338.15	0.2501	6.314e-05	5.7e-07
338.15	0.3717	6.32e-05	5.4e-07
338.15	0.7002	6.361e-05	5e-07
338.15	1.0007	6.382e-05	5e-07
338.15	0.08	6.328e-05	1.15e-06
348.15	0.01	6.64e-05	1.18e-05
348.15	0.015	6.65e-05	9.9e-06
348.15	0.02	6.37e-05	5.9e-06
348.15	0.0302	6.44e-05	4.8e-06
348.15	0.04	6.17e-05	2.5e-06
348.15	0.05	6.43e-05	2.6e-06
348.15	0.06	6.363e-05	1.74e-06
348.15	0.08	6.248e-05	1.7e-06
348.15	0.1249	6.338e-05	1.16e-06
348.15	0.2501	6.32e-05	5.5e-07
348.15	0.3717	6.334e-05	5.4e-07
348.15	0.7002	6.375e-05	5.2e-07
348.15	1.0007	6.398e-05	5e-07
348.15	0.08	6.35e-05	1.37e-06
358.15	0.01	6.56e-05	1.2e-05
358.15	0.015	6.72e-05	1.17e-05
358.15	0.02	6.39e-05	6e-06
358.15	0.0302	6.53e-05	5.8e-06
358.15	0.04	6.16e-05	2.6e-06
358.15	0.05	6.44e-05	2.9e-06
358.15	0.06	6.377e-05	1.75e-06
358.15	0.08	6.238e-05	1.87e-06
358.15	0.1249	6.349e-05	1.27e-06
358.15	0.2501	6.326e-05	5.9e-07
358.15	0.3717	6.335e-05	5.5e-07
358.15	0.7002	6.353e-05	5.2e-07
358.15	1.0007	6.406e-05	5e-07
358.15	0.08	6.352e-05	1.31e-06
368.15	0.01	6.39e-05	1.4e-05
368.15	0.015	6.77e-05	1.2e-05
368.15	0.02	6.36e-05	7e-06
368.15	0.0302	6.61e-05	6e-06
368.15	0.04	6.16e-05	3e-06
368.15	0.05	6.46e-05	2.8e-06
368.15	0.06	6.361e-05	2.08e-06
368.15	0.08	6.215e-05	1.83e-06
368.15	0.1249	6.383e-05	1.24e-06
368.15	0.2501	6.335e-05	5.9e-07
368.15	0.3717	6.337e-05	5.5e-07
368.15	0.7002	6.383e-05	5.2e-07
368.15	1.0007	6.407e-05	5e-07
368.15	0.08	6.384e-05	1.46e-06

System: (.+-.)-serine + water; phases: Liquid
Fixed: Pressure, kPa = 350
Property: Apparent molar heat capacity, J/K/mol (Liquid); method: Extra sensitive DSC
Molality, mol/kg of (.+-.)-serine	Temperature, K	Apparent molar heat capacity, J/K/mol	uncertainty
0.015	278.15	50	57
0.015	283.15	71	57
0.015	288.15	87	57
0.015	293.15	101	56
0.015	298.15	112	56
0.015	303.15	121	56
0.015	308.15	130	55
0.015	313.15	137	55
0.015	318.15	143	55
0.015	323.15	149	55
0.015	328.15	154	55
0.015	333.15	158	54
0.015	338.15	162	54
0.015	343.15	166	54
0.015	348.15	168	54
0.015	353.15	170	53
0.015	358.15	172	53
0.015	363.15	174	53
0.015	368.15	175	53
0.015	373.15	177	53
0.015	378.15	177	52
0.015	383.15	177	52
0.015	388.15	175	52
0.015	393.15	173	52
0.0308	278.15	53.4	28.2
0.0308	283.15	74.1	28
0.0308	288.15	90.3	27.8
0.0308	293.15	103.7	27.7
0.0308	298.15	114.5	27.5
0.0308	303.15	123.9	27.4
0.0308	308.15	132.2	27.2
0.0308	313.15	139.3	27.1
0.0308	318.15	145.2	27.1
0.0308	323.15	150.3	27
0.0308	328.15	155	26.9
0.0308	333.15	159.4	26.8
0.0308	338.15	163.3	26.7
0.0308	343.15	166.3	26.5
0.0308	348.15	169	26.5
0.0308	353.15	171.6	26.4
0.0308	358.15	173.7	26.3
0.0308	363.15	175.7	26.2
0.0308	368.15	177.9	26.2
0.0308	373.15	179.9	26.1
0.0308	378.15	180.9	25.9
0.0308	383.15	181.7	25.8
0.0308	388.15	182.6	25.7
0.0308	393.15	183.3	25.6
0.0509	278.15	56.4	17.2
0.0509	283.15	76.7	17.1
0.0509	288.15	92.6	17.1
0.0509	293.15	105.7	17
0.0509	298.15	116.5	16.9
0.0509	303.15	125.8	16.8
0.0509	308.15	133.9	16.7
0.0509	313.15	140.7	16.6
0.0509	318.15	146.5	16.5
0.0509	323.15	151.6	16.5
0.0509	328.15	156.2	16.4
0.0509	333.15	160.4	16.4
0.0509	338.15	164.2	16.3
0.0509	343.15	167.2	16.2
0.0509	348.15	170.1	16.3
0.0509	353.15	172.5	16.2
0.0509	358.15	174.6	16.2
0.0509	363.15	176.6	16.1
0.0509	368.15	178.6	16
0.0509	373.15	180.5	16
0.0509	378.15	181.3	15.9
0.0509	383.15	182.2	15.8
0.0509	388.15	183	15.8
0.0509	393.15	183.3	15.7
0.0807	278.15	56.6	11
0.0807	283.15	76.7	10.9
0.0807	288.15	92.6	10.8
0.0807	293.15	105.8	10.8
0.0807	298.15	116.5	10.7
0.0807	303.15	125.7	10.6
0.0807	308.15	133.6	10.6
0.0807	313.15	140.4	10.6
0.0807	318.15	146.2	10.5
0.0807	323.15	151.3	10.5
0.0807	328.15	155.8	10.4
0.0807	333.15	159.9	10.4
0.0807	338.15	163.6	10.3
0.0807	343.15	166.6	10.3
0.0807	348.15	169.5	10.3
0.0807	353.15	172.1	10.2
0.0807	358.15	174	10.1
0.0807	363.15	176.2	10.1
0.0807	368.15	178.4	10.2
0.0807	373.15	179.7	10.2
0.0807	378.15	180.7	10.1
0.0807	383.15	181.5	10.1
0.0807	388.15	182.2	10
0.0807	393.15	182.8	10
0.1251	278.15	57.8	7.3
0.1251	283.15	77.7	7.2
0.1251	288.15	93.2	7.1
0.1251	293.15	106.1	7.1
0.1251	298.15	116.7	7
0.1251	303.15	125.7	7
0.1251	308.15	133.4	7.1
0.1251	313.15	140.2	7
0.1251	318.15	145.8	7
0.1251	323.15	150.9	6.9
0.1251	328.15	155.3	6.9
0.1251	333.15	159.3	6.9
0.1251	338.15	162.9	6.9
0.1251	343.15	165.9	6.8
0.1251	348.15	168.8	6.8
0.1251	353.15	171.2	6.8
0.1251	358.15	173.1	6.7
0.1251	363.15	175.3	6.7
0.1251	368.15	177	6.7
0.1251	373.15	178.2	6.7
0.1251	378.15	179.3	6.7
0.1251	383.15	180.2	6.7
0.1251	388.15	180.9	6.7
0.1251	393.15	181.6	6.7
0.2505	278.15	68	3.8
0.2505	283.15	86.3	3.9
0.2505	288.15	101	3.9
0.2505	293.15	113.1	3.8
0.2505	298.15	123	3.8
0.2505	303.15	131.4	3.8
0.2505	308.15	138.6	3.7
0.2505	313.15	144.9	3.7
0.2505	318.15	150.2	3.7
0.2505	323.15	154.9	3.7
0.2505	328.15	158.9	3.7
0.2505	333.15	162.6	3.8
0.2505	338.15	165.92	3.71
0.2505	343.15	168.74	3.7
0.2505	348.15	171.27	3.7
0.2505	353.15	173.56	3.68
0.2505	358.15	175.45	3.67
0.2505	363.15	177.16	3.67
0.2505	368.15	178.66	3.67
0.2505	373.15	179.8	3.67
0.2505	378.15	180.67	3.65
0.2505	383.15	181.46	3.65
0.2505	388.15	181.91	3.65
0.2505	393.15	182.2	3.64

System: (.+-.)-serine + water; phases: Liquid
Fixed: Pressure, kPa = 350
Property: Apparent molar volume, m3/mol (Liquid); method: Calculated with densities of this investigation
Temperature, K	Molality, mol/kg of (.+-.)-serine	Apparent molar volume, m3/mol	uncertainty
278.15	0.015	5.6e-05	3.7e-06
278.15	0.0308	5.68e-05	1.9e-06
278.15	0.0509	5.87e-05	1.2e-06
278.15	0.0807	5.88e-05	7e-07
278.15	0.1251	5.906e-05	4.8e-07
278.15	0.2505	5.922e-05	2.4e-07
283.15	0.015	5.72e-05	3.8e-06
283.15	0.0308	5.8e-05	1.9e-06
283.15	0.0509	5.93e-05	1.2e-06
283.15	0.0807	5.96e-05	8e-07
283.15	0.1251	5.988e-05	4.9e-07
283.15	0.2505	5.994e-05	2.5e-07
288.15	0.015	5.78e-05	3.9e-06
288.15	0.0308	5.85e-05	1.9e-06
288.15	0.0509	5.97e-05	1.2e-06
288.15	0.0807	6.02e-05	8e-07
288.15	0.1251	6.044e-05	4.9e-07
288.15	0.2505	6.052e-05	2.5e-07
298.15	0.015	5.9e-05	4e-06
298.15	0.0308	5.97e-05	2e-06
298.15	0.0509	6.04e-05	1.2e-06
298.15	0.0807	6.09e-05	8e-07
298.15	0.1251	6.11e-05	5e-07
298.15	0.2505	6.129e-05	2.5e-07
308.15	0.015	5.91e-05	4e-06
308.15	0.0308	6.09e-05	2e-06
308.15	0.0509	6.124e-05	1.22e-06
308.15	0.0807	6.133e-05	7.7e-07
308.15	0.1251	6.15e-05	5e-07
308.15	0.2505	6.185e-05	2.6e-07
318.15	0.015	6e-05	4e-06
318.15	0.0308	6.17e-05	2e-06
318.15	0.0509	6.189e-05	1.23e-06
318.15	0.0807	6.131e-05	7.7e-07
318.15	0.1251	6.173e-05	5e-07
318.15	0.2505	6.217e-05	2.6e-07
328.15	0.015	5.88e-05	3.9e-06
328.15	0.0308	6.18e-05	2e-06
328.15	0.0509	6.19e-05	1.23e-06
328.15	0.0807	6.216e-05	7.8e-07
328.15	0.1251	6.231e-05	5.1e-07
328.15	0.2505	6.257e-05	2.6e-07
338.15	0.015	5.93e-05	4e-06
338.15	0.0308	6.34e-05	2.1e-06
338.15	0.0509	6.29e-05	1.3e-06
338.15	0.0807	6.277e-05	7.9e-07
338.15	0.1251	6.281e-05	5.1e-07
338.15	0.2505	6.287e-05	2.6e-07
348.15	0.015	5.93e-05	4e-06
348.15	0.0308	6.3e-05	2.1e-06
348.15	0.0509	6.302e-05	1.26e-06
348.15	0.0807	6.28e-05	7.9e-07
348.15	0.1251	6.285e-05	5.1e-07
348.15	0.2505	6.284e-05	2.6e-07
358.15	0.015	6.08e-05	4.1e-06
358.15	0.0308	6.351e-05	2.09e-06
358.15	0.0509	6.357e-05	1.27e-06
358.15	0.0807	6.287e-05	7.9e-07
358.15	0.1251	6.283e-05	5.1e-07
358.15	0.2505	6.282e-05	2.6e-07
368.15	0.015	6.02e-05	4e-06
368.15	0.0308	6.33e-05	2.1e-06
368.15	0.0509	6.37e-05	1.3e-06
368.15	0.0807	6.253e-05	7.9e-07
368.15	0.1251	6.269e-05	5.1e-07
368.15	0.2505	6.279e-05	2.6e-07

System: (R)-(-)-serine + water; phases: Liquid
Fixed: Pressure, kPa = 350
Property: Apparent molar heat capacity, J/K/mol (Liquid); method: Extra sensitive DSC
Molality, mol/kg of (R)-(-)-serine	Temperature, K	Apparent molar heat capacity, J/K/mol	uncertainty
0.0151	278.15	54.5	51.4
0.0151	283.15	75.2	51.5
0.0151	288.15	91.1	51.5
0.0151	293.15	104.3	51.5
0.0151	298.15	114.8	51.6
0.0151	303.15	123.8	51.6
0.0151	308.15	132.3	51.6
0.0151	313.15	139.7	51.6
0.0151	318.15	145.3	51.6
0.0151	323.15	150	52
0.0151	328.15	155	52
0.0151	333.15	159	52
0.0151	338.15	163	53
0.0151	343.15	166	54
0.0151	348.15	169	54
0.0151	353.15	171	55
0.0151	358.15	174	56
0.0151	363.15	176	57
0.0151	368.15	177	57
0.0151	373.15	178	58
0.0151	378.15	180	59
0.0151	383.15	181	61
0.0151	388.15	181	62
0.0151	393.15	182	62
0.0301	278.15	55.7	25.9
0.0301	283.15	76.1	25.9
0.0301	288.15	92.2	26
0.0301	293.15	105.4	26
0.0301	298.15	116.1	26
0.0301	303.15	125.6	26
0.0301	308.15	133.5	26.1
0.0301	313.15	140.5	26.1
0.0301	318.15	146.2	26.1
0.0301	323.15	151.2	26.1
0.0301	328.15	156	26.3
0.0301	333.15	160.2	26.6
0.0301	338.15	163.7	26.9
0.0301	343.15	167	27.3
0.0301	348.15	170.1	27.6
0.0301	353.15	172.2	28
0.0301	358.15	174.3	28.4
0.0301	363.15	176.2	28.7
0.0301	368.15	177.8	29.2
0.0301	373.15	179.3	29.7
0.0301	378.15	180.4	30.1
0.0301	383.15	181	31
0.0301	388.15	182	31
0.0301	393.15	182	31
0.0501	278.15	56.5	15.6
0.0501	283.15	76.8	15.6
0.0501	288.15	92.8	15.7
0.0501	293.15	106.1	15.7
0.0501	298.15	116.8	15.7
0.0501	303.15	126.3	15.8
0.0501	308.15	134.1	15.8
0.0501	313.15	141	15.8
0.0501	318.15	146.7	15.8
0.0501	323.15	151.8	15.9
0.0501	328.15	156.5	16.1
0.0501	333.15	160.7	16.2
0.0501	338.15	164.2	16.4
0.0501	343.15	167.4	16.6
0.0501	348.15	170.4	16.8
0.0501	353.15	172.6	17.2
0.0501	358.15	174.9	17.4
0.0501	363.15	176.7	17.6
0.0501	368.15	178.2	17.8
0.0501	373.15	179.6	18.2
0.0501	378.15	180.7	18.4
0.0501	383.15	181.4	18.7
0.0501	388.15	182.1	19.1
0.0501	393.15	182.5	19.3
0.08	278.15	58.3	9.8
0.08	283.15	78.4	9.9
0.08	288.15	94.4	9.9
0.08	293.15	107.6	9.9
0.08	298.15	118.3	10
0.08	303.15	127.5	10
0.08	308.15	135.4	10
0.08	313.15	142.1	10
0.08	318.15	147.9	10
0.08	323.15	153	10.2
0.08	328.15	157.5	10.3
0.08	333.15	161.7	10.4
0.08	338.15	165.2	10.6
0.08	343.15	168.3	10.7
0.08	348.15	171.1	10.8
0.08	353.15	173.6	11
0.08	358.15	175.8	11.1
0.08	363.15	177.7	11.2
0.08	368.15	179.2	11.5
0.08	373.15	180.5	11.6
0.08	378.15	181.6	11.8
0.08	383.15	182.4	12
0.08	388.15	183	12.2
0.08	393.15	183.5	12.4
0.1251	278.15	60.7	6.3
0.1251	283.15	80.6	6.4
0.1251	288.15	96.3	6.4
0.1251	293.15	109.2	6.5
0.1251	298.15	119.8	6.5
0.1251	303.15	128.8	6.5
0.1251	308.15	136.6	6.5
0.1251	313.15	143.3	6.6
0.1251	318.15	149	6.7
0.1251	323.15	154.1	6.7
0.1251	328.15	158.6	6.8
0.1251	333.15	162.6	6.9
0.1251	338.15	166.2	7
0.1251	343.15	169.2	7.1
0.1251	348.15	172	7.2
0.1251	353.15	174.4	7.3
0.1251	358.15	176.7	7.4
0.1251	363.15	178.5	7.5
0.1251	368.15	180.1	7.6
0.1251	373.15	181.4	7.7
0.1251	378.15	182.5	7.8
0.1251	383.15	183.3	8
0.1251	388.15	184	8.1
0.1251	393.15	184.4	8.2
0.2505	278.15	66.74	3.35
0.2505	283.15	85.06	3.4
0.2505	288.15	100.09	3.44
0.2505	293.15	112.47	3.47
0.2505	298.15	122.69	3.5
0.2505	303.15	131.45	3.53
0.2505	308.15	138.97	3.58
0.2505	313.15	145.58	3.63
0.2505	318.15	151.1	3.67
0.2505	323.15	156.06	3.72
0.2505	328.15	160.5	3.7
0.2505	333.15	164.4	3.9
0.2505	338.15	167.9	3.9
0.2505	343.15	170.9	4
0.2505	348.15	173.7	4
0.2505	353.15	176.1	4
0.2505	358.15	178.3	4.1
0.2505	363.15	180.2	4.1
0.2505	368.15	181.7	4.3
0.2505	373.15	183.1	4.3
0.2505	378.15	184.2	4.4
0.2505	383.15	185.2	4.4
0.2505	388.15	186	4.5
0.2505	393.15	186.5	4.5
0.35	278.15	71.19	2.58
0.35	283.15	89.13	2.63
0.35	288.15	103.68	2.66
0.35	293.15	115.73	2.68
0.35	298.15	125.65	2.71
0.35	303.15	134.16	2.73
0.35	308.15	141.5	2.77
0.35	313.15	147.86	2.8
0.35	318.15	153.28	2.85
0.35	323.15	158.13	2.89
0.35	328.15	162.4	2.93
0.35	333.15	166.3	2.97
0.35	338.15	169.76	3.01
0.35	343.15	172.7	3.1
0.35	348.15	175.4	3.1
0.35	353.15	177.8	3.1
0.35	358.15	180	3.3
0.35	363.15	181.8	3.3
0.35	368.15	183.4	3.3
0.35	373.15	184.7	3.4
0.35	378.15	185.8	3.4
0.35	383.15	186.8	3.4
0.35	388.15	187.4	3.6
0.35	393.15	187.9	3.6

System: (R)-(-)-serine + water; phases: Liquid
Fixed: Pressure, kPa = 350
Property: Apparent molar volume, m3/mol (Liquid); method: Calculated with densities of this investigation
Temperature, K	Molality, mol/kg of (R)-(-)-serine	Apparent molar volume, m3/mol	uncertainty
278.15	0.0151	5.7e-05	3.7e-06
278.15	0.0301	5.747e-05	1.83e-06
278.15	0.0501	5.864e-05	1.2e-06
278.15	0.08	5.873e-05	8.6e-07
278.15	0.1251	5.878e-05	7.4e-07
278.15	0.2505	5.923e-05	5.9e-07
278.15	0.35	5.932e-05	5.5e-07
283.15	0.0151	5.846e-05	3.02e-06
283.15	0.0301	5.841e-05	1.54e-06
283.15	0.0501	5.924e-05	1.02e-06
283.15	0.08	5.95e-05	8e-07
283.15	0.1251	5.953e-05	6.7e-07
283.15	0.2505	5.99e-05	6e-07
283.15	0.35	5.997e-05	5.5e-07
288.15	0.0151	6.002e-05	3.1e-06
288.15	0.0301	5.889e-05	1.6e-06
288.15	0.0501	5.988e-05	1.06e-06
288.15	0.08	6.012e-05	7.8e-07
288.15	0.1251	6.015e-05	6.4e-07
288.15	0.2505	6.042e-05	5.5e-07
288.15	0.35	6.051e-05	5.4e-07
298.15	0.0151	6.078e-05	3.14e-06
298.15	0.0301	5.957e-05	1.58e-06
298.15	0.0501	6.08e-05	1e-06
298.15	0.08	6.107e-05	7.7e-07
298.15	0.1251	6.098e-05	8.9e-07
298.15	0.2505	6.125e-05	6.3e-07
298.15	0.35	6.137e-05	5.7e-07
308.15	0.0151	6.06e-05	4.1e-06
308.15	0.0301	5.912e-05	2.13e-06
308.15	0.0501	6.117e-05	1.36e-06
308.15	0.08	6.176e-05	9.4e-07
308.15	0.1251	6.168e-05	7.5e-07
308.15	0.2505	6.2e-05	5.7e-07
308.15	0.35	6.213e-05	5.4e-07
318.15	0.0151	6.27e-05	4.5e-06
318.15	0.0301	6.137e-05	2.08e-06
318.15	0.0501	6.178e-05	1.32e-06
318.15	0.08	6.214e-05	9.1e-07
318.15	0.1251	6.21e-05	7.3e-07
318.15	0.2505	6.268e-05	5.7e-07
318.15	0.35	6.27e-05	5.4e-07
328.15	0.0151	6.63e-05	7.3e-06
328.15	0.0301	6.38e-05	3e-06
328.15	0.0501	6.232e-05	1.9e-06
328.15	0.08	6.289e-05	1.25e-06
328.15	0.1251	6.274e-05	1.03e-06
328.15	0.2505	6.308e-05	6.9e-07
328.15	0.35	6.318e-05	6e-07
338.15	0.0151	6.75e-05	1.07e-05
338.15	0.0301	6.45e-05	4.8e-06
338.15	0.0501	6.19e-05	2.94e-06
338.15	0.08	6.31e-05	1.91e-06
338.15	0.1251	6.29e-05	1.18e-06
338.15	0.2505	6.345e-05	7.4e-07
338.15	0.35	6.36e-05	6.3e-07
348.15	0.0151	6.7e-05	9.9e-06
348.15	0.0301	6.46e-05	4.1e-06
348.15	0.0501	6.22e-05	2.6e-06
348.15	0.08	6.331e-05	1.7e-06
348.15	0.1251	6.297e-05	1.06e-06
348.15	0.2505	6.36e-05	6.3e-07
348.15	0.35	6.376e-05	6.1e-07
358.15	0.0151	6.8e-05	1.15e-05
358.15	0.0301	6.51e-05	4.5e-06
358.15	0.0501	6.28e-05	2.8e-06
358.15	0.08	6.302e-05	1.74e-06
358.15	0.1251	6.339e-05	9.7e-07
358.15	0.2505	6.378e-05	6.7e-07
358.15	0.35	6.395e-05	6e-07
368.15	0.0151	7.04e-05	1.21e-05
368.15	0.0301	6.52e-05	5.2e-06
368.15	0.0501	6.24e-05	3.1e-06
368.15	0.08	6.308e-05	2.06e-06
368.15	0.1251	6.304e-05	1.2e-06
368.15	0.2505	6.374e-05	7.4e-07
368.15	0.35	6.392e-05	6.5e-07

System: L-serine + hydrogen chloride + water; phases: Liquid
Fixed: Pressure, kPa = 350
Property: Apparent molar heat capacity, J/K/mol (Liquid); method: Extra sensitive DSC
Molality, mol/kg of L-serine	Temperature, K	Solvent: Molality, mol/kg of hydrogen chloride	Apparent molar heat capacity, J/K/mol	uncertainty
0.0499	278.15	0.0499	12	28
0.0499	283.15	0.0499	34	28
0.0499	288.15	0.0499	51	28
0.0499	293.15	0.0499	64	26
0.0499	298.15	0.0499	67.4	24.4
0.0499	303.15	0.0499	83	23.2
0.0499	308.15	0.0499	89.3	22.4
0.0499	313.15	0.0499	94.8	21.8
0.0499	318.15	0.0499	98.9	21.1
0.0499	323.15	0.0499	102.4	20.6
0.0499	328.15	0.0499	98.2	19.9
0.0499	333.15	0.0499	106.8	19.5
0.0499	338.15	0.0499	108.3	19.1
0.0499	343.15	0.0499	109.3	19
0.0499	348.15	0.0499	110.9	18.8
0.0499	353.15	0.0499	111.4	18.4
0.0499	358.15	0.0499	111.6	18.1
0.0499	363.15	0.0499	111.8	17.9
0.0499	368.15	0.0499	112.5	17.8
0.0499	373.15	0.0499	119.9	17.7
0.0499	378.15	0.0499	113.8	17.5
0.0499	383.15	0.0499	115.4	17.3
0.0499	388.15	0.0499	117.9	17.4
0.0499	393.15	0.0499	126.2	18.2
0.0805	278.15	0.0805	26.9	15.6
0.0805	283.15	0.0805	48.3	15.1
0.0805	288.15	0.0805	64.6	14.8
0.0805	293.15	0.0805	77.4	14.3
0.0805	298.15	0.0805	84	14
0.0805	303.15	0.0805	95.5	13.7
0.0805	308.15	0.0805	101.9	13.5
0.0805	313.15	0.0805	107.5	13.2
0.0805	318.15	0.0805	111.6	13
0.0805	323.15	0.0805	115	12.8
0.0805	328.15	0.0805	114.3	12.5
0.0805	333.15	0.0805	119.8	12.3
0.0805	338.15	0.0805	121.7	12.1
0.0805	343.15	0.0805	122.8	11.9
0.0805	348.15	0.0805	123.8	11.7
0.0805	353.15	0.0805	124.4	11.4
0.0805	358.15	0.0805	124.8	11.2
0.0805	363.15	0.0805	124.9	11.1
0.0805	368.15	0.0805	125	11
0.0805	373.15	0.0805	128.2	10.9
0.0805	378.15	0.0805	124.2	10.8
0.0805	383.15	0.0805	124.1	10.8
0.0805	388.15	0.0805	123.6	10.9
0.0805	393.15	0.0805	123.1	11.1
0.1001	278.15	0.1001	40.8	12.5
0.1001	283.15	0.1001	61.7	12.2
0.1001	288.15	0.1001	77.7	11.9
0.1001	293.15	0.1001	90.3	11.6
0.1001	298.15	0.1001	98.2	11.4
0.1001	303.15	0.1001	107.8	11.1
0.1001	308.15	0.1001	114.1	11
0.1001	313.15	0.1001	119.4	10.7
0.1001	318.15	0.1001	123.2	10.6
0.1001	323.15	0.1001	126.5	10.3
0.1001	328.15	0.1001	127.4	10.1
0.1001	333.15	0.1001	131.1	10
0.1001	338.15	0.1001	132.9	9.9
0.1001	343.15	0.1001	134	9.6
0.1001	348.15	0.1001	134.8	9.5
0.1001	353.15	0.1001	135.4	9.2
0.1001	358.15	0.1001	135.9	9.1
0.1001	363.15	0.1001	136	9
0.1001	368.15	0.1001	136.3	8.9
0.1001	373.15	0.1001	138.2	8.8
0.1001	378.15	0.1001	136.4	8.7
0.1001	383.15	0.1001	136.9	8.8
0.1001	388.15	0.1001	137.2	8.9
0.1001	393.15	0.1001	137.4	9
0.1752	278.15	0.1752	56	8.3
0.1752	283.15	0.1752	75.7	8
0.1752	288.15	0.1752	91.3	7.8
0.1752	293.15	0.1752	103.6	7.7
0.1752	298.15	0.1752	112.2	7.5
0.1752	303.15	0.1752	120.8	7.4
0.1752	308.15	0.1752	126.9	7.2
0.1752	313.15	0.1752	131.9	7.1
0.1752	318.15	0.1752	135.7	7.1
0.1752	323.15	0.1752	138.8	6.9
0.1752	328.15	0.1752	140.3	6.8
0.1752	333.15	0.1752	143.1	6.8
0.1752	338.15	0.1752	144.8	6.6
0.1752	343.15	0.1752	145.8	6.6
0.1752	348.15	0.1752	146.5	6.5
0.1752	353.15	0.1752	147.2	6.5
0.1752	358.15	0.1752	147.5	6.3
0.1752	363.15	0.1752	147.6	6.3
0.1752	368.15	0.1752	147.6	6.2
0.1752	373.15	0.1752	148.4	6.2
0.1752	378.15	0.1752	147	6.2
0.1752	383.15	0.1752	146.7	6.2
0.1752	388.15	0.1752	146.1	6.2
0.1752	393.15	0.1752	145.2	6.3
0.2985	278.15	0.2985	72.9	4.7
0.2985	283.15	0.2985	91.7	4.8
0.2985	288.15	0.2985	106.6	4.6
0.2985	293.15	0.2985	118.4	4.5
0.2985	298.15	0.2985	127	4.3
0.2985	303.15	0.2985	134.9	4.2
0.2985	308.15	0.2985	140.8	4
0.2985	313.15	0.2985	145.6	3.9
0.2985	318.15	0.2985	149.2	3.7
0.2985	323.15	0.2985	152.2	3.7
0.2985	328.15	0.2985	154	3.6
0.2985	333.15	0.2985	156.3	3.6
0.2985	338.15	0.2985	157.9	3.5
0.2985	343.15	0.2985	158.9	3.5
0.2985	348.15	0.2985	159.6	3.4
0.2985	353.15	0.2985	160.23	3.34
0.2985	358.15	0.2985	160.61	3.29
0.2985	363.15	0.2985	160.65	3.26
0.2985	368.15	0.2985	160.67	3.22
0.2985	373.15	0.2985	161.01	3.17
0.2985	378.15	0.2985	160.05	3.12
0.2985	383.15	0.2985	159.81	3.06
0.2985	388.15	0.2985	159.25	3.04
0.2985	393.15	0.2985	158.54	3.04
0.4963	278.15	0.4963	91.6	3.2
0.4963	283.15	0.4963	109.2	3.3
0.4963	288.15	0.4963	122.8	3.1
0.4963	293.15	0.4963	133.8	3.1
0.4963	298.15	0.4963	142	3
0.4963	303.15	0.4963	149.2	2.8
0.4963	308.15	0.4963	154.7	2.8
0.4963	313.15	0.4963	159.2	2.8
0.4963	318.15	0.4963	162.5	2.7
0.4963	323.15	0.4963	165.2	2.7
0.4963	328.15	0.4963	167.12	2.61
0.4963	333.15	0.4963	169.08	2.57
0.4963	338.15	0.4963	170.55	2.54
0.4963	343.15	0.4963	171.39	2.5
0.4963	348.15	0.4963	172.04	2.47
0.4963	353.15	0.4963	172.58	2.45
0.4963	358.15	0.4963	172.93	2.42
0.4963	363.15	0.4963	172.99	2.41
0.4963	368.15	0.4963	173.05	2.38
0.4963	373.15	0.4963	173.27	2.36
0.4963	378.15	0.4963	172.76	2.34
0.4963	383.15	0.4963	172.76	2.32
0.4963	388.15	0.4963	172.52	2.32
0.4963	393.15	0.4963	172.12	2.32

System: L-serine + hydrogen chloride + water; phases: Liquid
Fixed: Pressure, kPa = 350
Property: Apparent molar volume, m3/mol (Liquid); method: Calculated with densities of this investigation
Temperature, K	Molality, mol/kg of L-serine	Solvent: Molality, mol/kg of hydrogen chloride	Apparent molar volume, m3/mol	uncertainty
278.15	0.01	0.01	7.57e-05	6.5e-06
278.15	0.015	0.015	8.31e-05	6.7e-06
278.15	0.03	0.03	8.048e-05	2.14e-06
278.15	0.0301	0.0301	8.301e-05	2.2e-06
278.15	0.05	0.05	8.048e-05	1.28e-06
278.15	0.0601	0.0601	8.33e-05	5.1e-06
278.15	0.0809	0.0809	8.23e-05	3.1e-06
278.15	0.1204	0.1204	8.27e-05	3.2e-06
278.15	0.2497	0.2497	8.356e-05	1.46e-06
278.15	0.4962	0.4962	8.46e-05	5.8e-07
283.15	0.01	0.01	7.51e-05	6.5e-06
283.15	0.015	0.015	8.29e-05	7.6e-06
283.15	0.03	0.03	8.132e-05	2.42e-06
283.15	0.0301	0.0301	8.325e-05	2.41e-06
283.15	0.05	0.05	8.181e-05	1.43e-06
283.15	0.0601	0.0601	8.35e-05	6.3e-06
283.15	0.0809	0.0809	8.34e-05	3.5e-06
283.15	0.1204	0.1204	8.355e-05	1.58e-06
283.15	0.2497	0.2497	8.436e-05	1.58e-06
283.15	0.4962	0.4962	8.539e-05	4.4e-07
288.15	0.01	0.01	7.77e-05	6.7e-06
288.15	0.015	0.015	8.29e-05	6e-06
288.15	0.03	0.03	8.23e-05	3.1e-06
288.15	0.0301	0.0301	8.35e-05	3e-06
288.15	0.05	0.05	8.282e-05	1.8e-06
288.15	0.0601	0.0601	8.41e-05	6.1e-06
288.15	0.0809	0.0809	8.39e-05	3.5e-06
288.15	0.1204	0.1204	8.43e-05	2.3e-06
288.15	0.2497	0.2497	8.513e-05	1.58e-06
288.15	0.4962	0.4962	8.615e-05	3.7e-07
298.15	0.01	0.01	8e-05	7e-06
298.15	0.015	0.015	8.3e-05	6e-06
298.15	0.03	0.03	8.4e-05	3e-06
298.15	0.0301	0.0301	8.36e-05	3e-06
298.15	0.05	0.05	8.4e-05	1.8e-06
298.15	0.0601	0.0601	8.48e-05	6.1e-06
298.15	0.0809	0.0809	8.51e-05	3.5e-06
298.15	0.1204	0.1204	8.555e-05	2.26e-06
298.15	0.2497	0.2497	8.631e-05	1.58e-06
298.15	0.4962	0.4962	8.726e-05	3.7e-07
308.15	0.01	0.01	8.12e-05	7.6e-06
308.15	0.015	0.015	8.25e-05	6.9e-06
308.15	0.03	0.03	8.394e-05	2.23e-06
308.15	0.0301	0.0301	8.428e-05	2.24e-06
308.15	0.05	0.05	8.487e-05	1.36e-06
308.15	0.0601	0.0601	8.54e-05	5.3e-06
308.15	0.0809	0.0809	8.6e-05	3.1e-06
308.15	0.1204	0.1204	8.643e-05	1.97e-06
308.15	0.2497	0.2497	8.713e-05	1.42e-06
308.15	0.4962	0.4962	8.799e-05	3.8e-07
318.15	0.01	0.01	8.19e-05	6.7e-06
318.15	0.015	0.015	8.14e-05	5.2e-06
318.15	0.03	0.03	8.487e-05	2.26e-06
318.15	0.0301	0.0301	8.464e-05	2.25e-06
318.15	0.05	0.05	8.546e-05	1.37e-06
318.15	0.0601	0.0601	8.55e-05	4.9e-06
318.15	0.0809	0.0809	8.67e-05	2.9e-06
318.15	0.1204	0.1204	8.696e-05	1.5e-06
318.15	0.2497	0.2497	8.764e-05	1.37e-06
318.15	0.4962	0.4962	8.851e-05	4.4e-07
328.15	0.01	0.01	8.09e-05	6.9e-06
328.15	0.015	0.015	8.02e-05	5.2e-06
328.15	0.03	0.03	8.492e-05	2.26e-06
328.15	0.0301	0.0301	8.451e-05	2.24e-06
328.15	0.05	0.05	8.599e-05	1.38e-06
328.15	0.0601	0.0601	8.59e-05	4.5e-06
328.15	0.0809	0.0809	8.71e-05	2.7e-06
328.15	0.1204	0.1204	8.732e-05	1.05e-06
328.15	0.2497	0.2497	8.809e-05	1.31e-06
328.15	0.4962	0.4962	8.894e-05	2.9e-07
338.15	0.01	0.01	8.13e-05	6.5e-06
338.15	0.015	0.015	7.87e-05	4.5e-06
338.15	0.03	0.03	8.463e-05	2.25e-06
338.15	0.0301	0.0301	8.348e-05	2.21e-06
338.15	0.05	0.05	8.628e-05	1.38e-06
338.15	0.0601	0.0601	8.6e-05	2.8e-06
338.15	0.0809	0.0809	8.739e-05	1.73e-06
338.15	0.1204	0.1204	8.757e-05	1.22e-06
338.15	0.2497	0.2497	8.83e-05	1.11e-06
338.15	0.4962	0.4962	8.92e-05	2.4e-07
348.15	0.01	0.01	8.31e-05	6.8e-06
348.15	0.015	0.015	7.74e-05	4.8e-06
348.15	0.03	0.03	8.519e-05	2.27e-06
348.15	0.0301	0.0301	8.298e-05	2.2e-06
348.15	0.05	0.05	8.66e-05	1.39e-06
348.15	0.0601	0.0601	8.59e-05	4.5e-06
348.15	0.0809	0.0809	8.75e-05	2.7e-06
348.15	0.1204	0.1204	8.767e-05	1.17e-06
348.15	0.2497	0.2497	8.84e-05	1.33e-06
348.15	0.4962	0.4962	8.933e-05	2.3e-07
358.15	0.01	0.01	8.35e-05	6.7e-06
358.15	0.015	0.015	7.51e-05	4.5e-06
358.15	0.03	0.03	8.525e-05	2.27e-06
358.15	0.0301	0.0301	8.222e-05	2.18e-06
358.15	0.05	0.05	8.698e-05	1.4e-06
358.15	0.0601	0.0601	8.55e-05	3.9e-06
358.15	0.0809	0.0809	8.75e-05	2.3e-06
358.15	0.1204	0.1204	8.758e-05	1.15e-06
358.15	0.2497	0.2497	8.843e-05	1.27e-06
358.15	0.4962	0.4962	8.944e-05	2e-07
368.15	0.01	0.01	8.32e-05	6.8e-06
368.15	0.015	0.015	7.35e-05	4.4e-06
368.15	0.03	0.03	8.42e-05	9e-06
368.15	0.0301	0.0301	8.05e-05	8.2e-06
368.15	0.05	0.05	8.65e-05	5.4e-06
368.15	0.0601	0.0601	8.51e-05	4.7e-06
368.15	0.0809	0.0809	8.73e-05	2.7e-06
368.15	0.1204	0.1204	8.748e-05	1.03e-06
368.15	0.2497	0.2497	8.827e-05	1.37e-06
368.15	0.4962	0.4962	8.936e-05	2.1e-07

System: L-serine + sodium hydroxide + water; phases: Liquid
Fixed: Pressure, kPa = 350
Property: Apparent molar heat capacity, J/K/mol (Liquid); method: Extra sensitive DSC
Molality, mol/kg of L-serine	Temperature, K	Solvent: Molality, mol/kg of sodium hydroxide	Apparent molar heat capacity, J/K/mol	uncertainty
0.0256	278.15	0.0256	-1	37
0.0256	283.15	0.0256	35	37
0.0256	288.15	0.0256	63	37
0.0256	293.15	0.0256	86	35
0.0256	298.15	0.0256	100.7	34.2
0.0256	303.15	0.0256	120.1	33.3
0.0256	308.15	0.0256	132.7	32.8
0.0256	313.15	0.0256	143.1	32.4
0.0256	318.15	0.0256	151.7	31.9
0.0256	323.15	0.0256	158.8	31.6
0.0256	328.15	0.0256	160.7	31.2
0.0256	333.15	0.0256	169.5	30.9
0.0256	338.15	0.0256	173.4	30.7
0.0256	343.15	0.0256	176.2	30.7
0.0256	348.15	0.0256	178.6	30.7
0.0256	353.15	0.0256	180.1	30.7
0.0256	358.15	0.0256	181.4	30.7
0.0256	363.15	0.0256	182	30.7
0.0256	368.15	0.0256	182.1	30.7
0.0256	373.15	0.0256	185.6	30.7
0.0256	378.15	0.0256	181	30.7
0.0256	383.15	0.0256	180	30.7
0.0256	388.15	0.0256	178.9	30.7
0.0256	393.15	0.0256	177.5	30.7
0.0513	278.15	0.0513	4.9	18.8
0.0513	283.15	0.0513	40.1	18.5
0.0513	288.15	0.0513	68.1	18.3
0.0513	293.15	0.0513	90.3	17.9
0.0513	298.15	0.0513	106.5	17.7
0.0513	303.15	0.0513	123.5	17.5
0.0513	308.15	0.0513	135.8	17.3
0.0513	313.15	0.0513	146	17.1
0.0513	318.15	0.0513	154.4	17
0.0513	323.15	0.0513	161.5	16.8
0.0513	328.15	0.0513	165.4	16.6
0.0513	333.15	0.0513	172.4	16.5
0.0513	338.15	0.0513	176.4	16.3
0.0513	343.15	0.0513	179.6	16.2
0.0513	348.15	0.0513	182.1	16
0.0513	353.15	0.0513	184.1	15.8
0.0513	358.15	0.0513	185.6	15.6
0.0513	363.15	0.0513	186.4	15.6
0.0513	368.15	0.0513	186.7	15.5
0.0513	373.15	0.0513	188.7	15.5
0.0513	378.15	0.0513	186.3	15.5
0.0513	383.15	0.0513	185.6	15.5
0.0513	388.15	0.0513	184.4	15.5
0.0513	393.15	0.0513	183.1	15.6
0.1025	278.15	0.1025	14	12.3
0.1025	283.15	0.1025	47.9	12
0.1025	288.15	0.1025	74.9	11.8
0.1025	293.15	0.1025	96.6	11.5
0.1025	298.15	0.1025	113.2	11.3
0.1025	303.15	0.1025	128.8	11
0.1025	308.15	0.1025	140.7	10.9
0.1025	313.15	0.1025	150.8	10.6
0.1025	318.15	0.1025	159	10.5
0.1025	323.15	0.1025	166.1	10.2
0.1025	328.15	0.1025	170.9	10.1
0.1025	333.15	0.1025	176.8	10
0.1025	338.15	0.1025	180.9	9.8
0.1025	343.15	0.1025	184.1	9.6
0.1025	348.15	0.1025	186.8	9.5
0.1025	353.15	0.1025	188.8	9.2
0.1025	358.15	0.1025	190.3	9.1
0.1025	363.15	0.1025	191.3	9
0.1025	368.15	0.1025	191.9	8.9
0.1025	373.15	0.1025	193	8.7
0.1025	378.15	0.1025	191.8	8.6
0.1025	383.15	0.1025	191.2	8.7
0.1025	388.15	0.1025	190.4	8.9
0.1025	393.15	0.1025	189.3	9
0.2047	278.15	0.2047	28.6	8
0.2047	283.15	0.2047	60.4	7.7
0.2047	288.15	0.2047	85.8	7.5
0.2047	293.15	0.2047	106.4	7.4
0.2047	298.15	0.2047	122.6	7.2
0.2047	303.15	0.2047	136.9	7.1
0.2047	308.15	0.2047	148.4	6.9
0.2047	313.15	0.2047	158.1	6.8
0.2047	318.15	0.2047	166.1	6.8
0.2047	323.15	0.2047	172.9	6.6
0.2047	328.15	0.2047	178	6.5
0.2047	333.15	0.2047	183.4	6.5
0.2047	338.15	0.2047	187.4	6.3
0.2047	343.15	0.2047	190.6	6.3
0.2047	348.15	0.2047	193.3	6.2
0.2047	353.15	0.2047	195.4	6.2
0.2047	358.15	0.2047	197	6
0.2047	363.15	0.2047	198.1	6
0.2047	368.15	0.2047	198.8	5.9
0.2047	373.15	0.2047	199.7	5.9
0.2047	378.15	0.2047	199.1	5.9
0.2047	383.15	0.2047	198.8	5.9
0.2047	388.15	0.2047	198.2	5.9
0.2047	393.15	0.2047	197.4	6
0.2047	278.15	0.2047	41.9	5.3
0.2047	288.15	0.2047	95.6	5.3
0.2047	298.15	0.2047	130.6	5.1
0.2047	308.15	0.2047	155.2	4.8
0.2047	318.15	0.2047	172.3	4.6
0.2047	328.15	0.2047	184	4.5
0.2047	338.15	0.2047	193	4.5
0.2047	348.15	0.2047	198.8	4.4
0.2047	358.15	0.2047	202.55	4.31
0.2047	368.15	0.2047	204.53	4.27
0.2047	378.15	0.2047	205	4.27
0.2047	388.15	0.2047	204.36	4.27
0.3066	283.15	0.3066	71.7	4.7
0.3066	293.15	0.3066	115.1	4.4
0.3066	303.15	0.3066	144.2	4.1
0.3066	313.15	0.3066	164.5	3.9
0.3066	323.15	0.3066	178.9	3.7
0.3066	333.15	0.3066	189.1	3.6
0.3066	343.15	0.3066	196.2	3.5
0.3066	353.15	0.3066	200.93	3.36
0.3066	363.15	0.3066	203.7	3.28
0.3066	373.15	0.3066	205.3	3.2
0.3066	383.15	0.3066	204.82	3.09
0.3066	393.15	0.3066	203.66	3.07
0.6698	278.15	0.6698	78.3	3.1
0.6698	283.15	0.6698	102.6	3.1
0.6698	288.15	0.6698	122.4	2.9
0.6698	293.15	0.6698	138.8	2.9
0.6698	298.15	0.6698	152.1	2.8
0.6698	303.15	0.6698	163.7	2.6
0.6698	308.15	0.6698	173.2	2.6
0.6698	313.15	0.6698	181.4	2.6
0.6698	318.15	0.6698	188.3	2.5
0.6698	323.15	0.6698	194.15	2.45
0.6698	328.15	0.6698	198.98	2.41
0.6698	333.15	0.6698	203.41	2.37
0.6698	338.15	0.6698	207.02	2.34
0.6698	343.15	0.6698	209.98	2.3
0.6698	348.15	0.6698	212.43	2.28
0.6698	353.15	0.6698	214.44	2.25
0.6698	358.15	0.6698	216.01	2.22
0.6698	363.15	0.6698	217.18	2.21
0.6698	368.15	0.6698	218.03	2.18
0.6698	373.15	0.6698	218.73	2.15
0.6698	378.15	0.6698	218.77	2.14
0.6698	383.15	0.6698	218.78	2.11
0.6698	388.15	0.6698	218.51	2.11
0.6698	393.15	0.6698	218.07	2.11

System: L-serine + sodium hydroxide + water; phases: Liquid
Fixed: Pressure, kPa = 350
Property: Apparent molar volume, m3/mol (Liquid); method: Calculated with densities of this investigation
Temperature, K	Molality, mol/kg of L-serine	Solvent: Molality, mol/kg of sodium hydroxide	Apparent molar volume, m3/mol	uncertainty
278.15	0.025	0.025	5.631e-05	1.75e-06
278.15	0.05	0.05	5.55e-05	3.5e-06
278.15	0.0999	0.0999	5.71e-05	2e-06
278.15	0.1996	0.1996	5.75e-05	2.2e-06
278.15	0.2989	0.2989	5.857e-05	1.01e-06
278.15	0.653	0.653	5.982e-05	4.1e-07
283.15	0.025	0.025	5.769e-05	1.8e-06
283.15	0.05	0.05	5.72e-05	4.3e-06
283.15	0.0999	0.0999	5.82e-05	2.4e-06
283.15	0.1996	0.1996	5.878e-05	1.08e-06
283.15	0.2989	0.2989	5.951e-05	1.11e-06
283.15	0.653	0.653	6.076e-05	3.1e-07
288.15	0.025	0.025	5.866e-05	1.93e-06
288.15	0.05	0.05	5.83e-05	4.3e-06
288.15	0.0999	0.0999	5.91e-05	2.4e-06
288.15	0.1996	0.1996	5.984e-05	1.63e-06
288.15	0.2989	0.2989	6.041e-05	1.11e-06
288.15	0.653	0.653	6.163e-05	2.5e-07
298.15	0.025	0.025	6.07e-05	6.2e-06
298.15	0.05	0.05	6.01e-05	4.1e-06
298.15	0.0999	0.0999	6.09e-05	2.4e-06
298.15	0.1996	0.1996	6.141e-05	1.34e-06
298.15	0.2989	0.2989	6.179e-05	1.07e-06
298.15	0.653	0.653	6.305e-05	2.3e-07
308.15	0.025	0.025	6.154e-05	1.93e-06
308.15	0.05	0.05	6.12e-05	3.9e-06
308.15	0.0999	0.0999	6.19e-05	2.2e-06
308.15	0.1996	0.1996	6.255e-05	1.38e-06
308.15	0.2989	0.2989	6.284e-05	1.03e-06
308.15	0.653	0.653	6.412e-05	2.7e-07
318.15	0.025	0.025	6.295e-05	1.97e-06
318.15	0.05	0.05	6.18e-05	3.5e-06
318.15	0.0999	0.0999	6.29e-05	2.1e-06
318.15	0.1996	0.1996	6.343e-05	1.05e-06
318.15	0.2989	0.2989	6.37e-05	9.9e-07
318.15	0.653	0.653	6.491e-05	3.1e-07
328.15	0.025	0.025	6.335e-05	1.99e-06
328.15	0.05	0.05	6.25e-05	3.3e-06
328.15	0.0999	0.0999	6.341e-05	1.88e-06
328.15	0.1996	0.1996	6.401e-05	7e-07
328.15	0.2989	0.2989	6.432e-05	9.5e-07
328.15	0.653	0.653	6.551e-05	2.1e-07
338.15	0.025	0.025	6.356e-05	1.99e-06
338.15	0.05	0.05	6.269e-05	2.14e-06
338.15	0.0999	0.0999	6.371e-05	1.21e-06
338.15	0.1996	0.1996	6.43e-05	8.5e-07
338.15	0.2989	0.2989	6.463e-05	8e-07
338.15	0.653	0.653	6.594e-05	1.6e-07
348.15	0.025	0.025	6.354e-05	1.99e-06
348.15	0.05	0.05	6.27e-05	3.3e-06
348.15	0.0999	0.0999	6.391e-05	1.94e-06
348.15	0.1996	0.1996	6.454e-05	8.1e-07
348.15	0.2989	0.2989	6.483e-05	9.7e-07
348.15	0.653	0.653	6.616e-05	1.6e-07
358.15	0.025	0.025	6.334e-05	1.99e-06
358.15	0.05	0.05	6.31e-05	2.9e-06
358.15	0.0999	0.0999	6.394e-05	1.72e-06
358.15	0.1996	0.1996	6.464e-05	7.8e-07
358.15	0.2989	0.2989	6.498e-05	9.3e-07
358.15	0.653	0.653	6.634e-05	1.4e-07
368.15	0.025	0.025	6.23e-05	4.2e-06
368.15	0.05	0.05	6.23e-05	3.5e-06
368.15	0.0999	0.0999	6.382e-05	1.96e-06
368.15	0.1996	0.1996	6.453e-05	6.8e-07
368.15	0.2989	0.2989	6.489e-05	9.9e-07
368.15	0.653	0.653	6.63e-05	1.4e-07
