Measured thermophysical data. The molar surface Gibbs energy of the aqueous solution of the ionic liquid [C6mim][OAc]
Source: J. Chem. Thermodyn., 2016, 10.1016/j.jct.2016.02.001
Compound 1: 3-hexyl-1-methylimidazolium acetate, C12H22N2O2, InChI=1S/C10H19N2.C2H4O2/c1-3-4-5-6-7-12-9-8-11(2)10-12;1-2(3)4/h8-10H,3-7H2,1-2H3;1H3,(H,3,4)/q+1;/p-1, purity 99%
Compound 2: water, H2O, InChI=1S/H2O/h1H2

System: water + 3-hexyl-1-methylimidazolium acetate; phases: Liquid, Air at 1 atmosphere
Property: Surface tension liquid-gas, N/m (Liquid); method: Maximal bubble pressure
Temperature, K	Molality, mol/kg of 3-hexyl-1-methylimidazolium acetate	Surface tension liquid-gas, N/m	uncertainty
288.15	0.0117	0.073	0.0006
288.15	0.0162	0.0729	0.0006
288.15	0.0285	0.0727	0.0007
288.15	0.044	0.0722	0.0007
288.15	0.1102	0.0704	0.0007
288.15	0.1674	0.0689	0.0006
288.15	0.2233	0.0676	0.0006
288.15	0.2797	0.0663	0.0006
288.15	0.3357	0.0651	0.0006
288.15	0.3914	0.0637	0.0006
288.15	0.4475	0.0624	0.0006
288.15	0.5029	0.0614	0.0006
293.15	0.0117	0.0723	0.0007
293.15	0.0162	0.0722	0.0007
293.15	0.0285	0.0719	0.0007
293.15	0.044	0.0713	0.0007
293.15	0.1102	0.0696	0.0007
293.15	0.1674	0.0682	0.0006
293.15	0.2233	0.067	0.0006
293.15	0.2797	0.0656	0.0006
293.15	0.3357	0.0644	0.0006
293.15	0.3914	0.063	0.0006
293.15	0.4475	0.0617	0.0006
293.15	0.5029	0.0607	0.0006
298.15	0.0117	0.0716	0.0007
298.15	0.0162	0.0714	0.0007
298.15	0.0285	0.0711	0.0007
298.15	0.044	0.0706	0.0007
298.15	0.1102	0.069	0.0006
298.15	0.1674	0.0675	0.0006
298.15	0.2233	0.0662	0.0006
298.15	0.2797	0.0648	0.0006
298.15	0.3357	0.0637	0.0006
298.15	0.3914	0.0624	0.0006
298.15	0.4475	0.0611	0.0006
298.15	0.5029	0.0602	0.0006
303.15	0.0117	0.0707	0.0007
303.15	0.0162	0.0706	0.0007
303.15	0.0285	0.0703	0.0007
303.15	0.044	0.0697	0.0007
303.15	0.1102	0.0681	0.0006
303.15	0.1674	0.0668	0.0006
303.15	0.2233	0.0656	0.0006
303.15	0.2797	0.0641	0.0006
303.15	0.3357	0.0629	0.0006
303.15	0.3914	0.0617	0.0006
303.15	0.4475	0.0605	0.0006
303.15	0.5029	0.0596	0.0006
308.15	0.0117	0.0698	0.0007
308.15	0.0162	0.0697	0.0007
308.15	0.0285	0.0694	0.0007
308.15	0.044	0.0689	0.0007
308.15	0.1102	0.0675	0.0006
308.15	0.1674	0.0659	0.0006
308.15	0.2233	0.0647	0.0006
308.15	0.2797	0.0634	0.0006
308.15	0.3357	0.0622	0.0006
308.15	0.3914	0.0611	0.0006
308.15	0.4475	0.0599	0.0006
308.15	0.5029	0.0589	0.0006
313.15	0.0117	0.069	0.0006
313.15	0.0162	0.0689	0.0006
313.15	0.0285	0.0687	0.0006
313.15	0.044	0.0682	0.0007
313.15	0.1102	0.0666	0.0006
313.15	0.1674	0.0653	0.0006
313.15	0.2233	0.0641	0.0006
313.15	0.2797	0.0628	0.0006
313.15	0.3357	0.0617	0.0006
313.15	0.3914	0.0605	0.0006
313.15	0.4475	0.0592	0.0006
313.15	0.5029	0.0582	0.0006
318.15	0.0117	0.0682	0.0006
318.15	0.0162	0.0681	0.0006
318.15	0.0285	0.0679	0.0006
318.15	0.044	0.0674	0.0007
318.15	0.1102	0.0658	0.0006
318.15	0.1674	0.0644	0.0006
318.15	0.2233	0.0633	0.0006
318.15	0.2797	0.0621	0.0006
318.15	0.3357	0.061	0.0006
318.15	0.3914	0.0597	0.0006
318.15	0.4475	0.0585	0.0006
318.15	0.5029	0.0577	0.0006

System: water + 3-hexyl-1-methylimidazolium acetate; phases: Liquid
Fixed: Pressure, kPa = 100
Property: Mass density, kg/m3 (Liquid); method: Vibrating tube method
Temperature, K	Molality, mol/kg of 3-hexyl-1-methylimidazolium acetate	Mass density, kg/m3	uncertainty
288.15	0.0117	1000.09	0.68
288.15	0.0162	1000.19	0.68
288.15	0.0285	1000.4	0.67
288.15	0.044	1000.58	0.66
288.15	0.1102	1001.44	0.67
288.15	0.1674	1002.13	0.67
288.15	0.2233	1002.92	0.67
288.15	0.2797	1003.61	0.67
288.15	0.3357	1004.39	0.67
288.15	0.3914	1005.11	0.67
288.15	0.4475	1005.8	0.67
288.15	0.5029	1006.52	0.67
293.15	0.0117	999.03	0.69
293.15	0.0162	999.15	0.7
293.15	0.0285	999.32	0.67
293.15	0.044	999.53	0.66
293.15	0.1102	1000.29	0.66
293.15	0.1674	1000.95	0.67
293.15	0.2233	1001.64	0.67
293.15	0.2797	1002.33	0.67
293.15	0.3357	1003	0.67
293.15	0.3914	1003.71	0.67
293.15	0.4475	1004.46	0.67
293.15	0.5029	1005.19	0.67
298.15	0.0117	997.74	0.68
298.15	0.0162	997.89	0.69
298.15	0.0285	998.01	0.67
298.15	0.044	998.25	0.66
298.15	0.1102	998.91	0.66
298.15	0.1674	999.59	0.67
298.15	0.2233	1000.3	0.67
298.15	0.2797	1001	0.67
298.15	0.3357	1001.66	0.67
298.15	0.3914	1002.34	0.67
298.15	0.4475	1003.01	0.67
298.15	0.5029	1003.64	0.66
303.15	0.0117	996.24	0.68
303.15	0.0162	996.35	0.68
303.15	0.0285	996.49	0.67
303.15	0.044	996.69	0.66
303.15	0.1102	997.44	0.66
303.15	0.1674	998.06	0.67
303.15	0.2233	998.79	0.67
303.15	0.2797	999.48	0.67
303.15	0.3357	1000.14	0.66
303.15	0.3914	1000.78	0.66
303.15	0.4475	1001.42	0.66
303.15	0.5029	1002.04	0.66
308.15	0.0117	994.58	0.68
308.15	0.0162	994.69	0.68
308.15	0.0285	994.81	0.66
308.15	0.044	994.99	0.66
308.15	0.1102	995.81	0.66
308.15	0.1674	996.43	0.66
308.15	0.2233	997.08	0.66
308.15	0.2797	997.72	0.66
308.15	0.3357	998.39	0.66
308.15	0.3914	999.02	0.66
308.15	0.4475	999.65	0.66
308.15	0.5029	1000.24	0.66
313.15	0.0117	992.75	0.67
313.15	0.0162	992.83	0.67
313.15	0.0285	992.94	0.66
313.15	0.044	993.11	0.66
313.15	0.1102	993.86	0.67
313.15	0.1674	994.56	0.67
313.15	0.2233	995.21	0.66
313.15	0.2797	995.84	0.66
313.15	0.3357	996.49	0.66
313.15	0.3914	997.12	0.66
313.15	0.4475	997.73	0.66
313.15	0.5029	998.32	0.66
318.15	0.0117	990.75	0.67
318.15	0.0162	990.81	0.66
318.15	0.0285	990.95	0.66
318.15	0.044	991.1	0.66
318.15	0.1102	991.84	0.66
318.15	0.1674	992.43	0.66
318.15	0.2233	993.11	0.67
318.15	0.2797	993.76	0.66
318.15	0.3357	994.39	0.66
318.15	0.3914	995	0.66
318.15	0.4475	995.59	0.66
318.15	0.5029	996.16	0.66
