Measured thermophysical data. Influence of anion on thermophysical properties of ionic liquids with polar solvent
Source: J. Chem. Thermodyn., 2013, 10.1016/j.jct.2012.11.014
Compound 1: dimethyl sulfoxide, C2H6OS, InChI=1S/C2H6OS/c1-4(2)3/h1-2H3, purity 99%
Compound 2: trimethylammonium acetate, C5H13NO2, InChI=1S/C3H9N.C2H4O2/c1-4(2)3;1-2(3)4/h1-3H3;1H3,(H,3,4)
Compound 3: trimethylammonium hydrogen sulfate, C3H11NO4S, InChI=1S/C3H9N.H2O4S/c1-4(2)3;1-5(2,3)4/h1-3H3;(H2,1,2,3,4)
Compound 4: trimethylammonium dihydrogen phosphate, C3H12NO4P, InChI=1S/C3H9N.H3O4P/c1-4(2)3;1-5(2,3)4/h1-3H3;(H3,1,2,3,4)

System: dimethyl sulfoxide; phases: Liquid
Fixed: Pressure, kPa = 101
Property: Mass density, kg/m3 (Liquid); method: Vibrating tube method
Temperature, K	Mass density, kg/m3	uncertainty
298.15	1095.37	1.04
303.15	1092.41	1.04
308.15	1086.06	1.04
313.15	1081.43	1.04

System: dimethyl sulfoxide; phases: Liquid
Fixed: Pressure, kPa = 101
Fixed: Frequency, MHz = 2
Property: Speed of sound, m/s (Liquid); method: Linear variable-path acoustic interferometer
Temperature, K	Speed of sound, m/s	uncertainty
298.15	1496	3
303.15	1472	3
308.15	1460	3
313.15	1442	3

System: dimethyl sulfoxide; phases: Liquid
Fixed: Pressure, kPa = 101
Property: Viscosity, Pa*s (Liquid); method: Oscillating disk viscometry
Temperature, K	Viscosity, Pa*s	uncertainty
298.15	0.00199	0.00013
303.15	0.0018	0.00011
308.15	0.00165	0.0001
313.15	0.00154	0.0001

System: trimethylammonium acetate; phases: Liquid
Fixed: Pressure, kPa = 101
Property: Mass density, kg/m3 (Liquid); method: Vibrating tube method
Temperature, K	Mass density, kg/m3	uncertainty
298.15	1053.85	1.03
303.15	1049.87	1.03
308.15	1045.81	1.03
313.15	1041.7	1.03

System: trimethylammonium acetate; phases: Liquid
Fixed: Pressure, kPa = 101
Fixed: Frequency, MHz = 2
Property: Speed of sound, m/s (Liquid); method: Linear variable-path acoustic interferometer
Temperature, K	Speed of sound, m/s	uncertainty
298.15	1544	3
303.15	1514	3
308.15	1508	3
313.15	1490	3

System: trimethylammonium acetate; phases: Liquid
Fixed: Pressure, kPa = 101
Property: Viscosity, Pa*s (Liquid); method: Oscillating disk viscometry
Temperature, K	Viscosity, Pa*s	uncertainty
298.15	0.00276	0.00018
303.15	0.00237	0.00016
308.15	0.00206	0.00014
313.15	0.00183	0.00012

System: trimethylammonium hydrogen sulfate; phases: Crystal, Liquid, Air at 1 atmosphere
Property: Normal melting temperature, K (Crystal); method: VISOBS
Normal melting temperature, K	uncertainty
402.15	1

System: trimethylammonium hydrogen sulfate; phases: Liquid
Fixed: Pressure, kPa = 101
Property: Mass density, kg/m3 (Liquid); method: Vibrating tube method
Temperature, K	Mass density, kg/m3	uncertainty
298.15	1467.58	1.16
303.15	1463.57	1.16
308.15	1463.5	1.2
313.15	1455.63	1.16

System: trimethylammonium hydrogen sulfate; phases: Liquid
Fixed: Pressure, kPa = 101
Fixed: Frequency, MHz = 2
Property: Speed of sound, m/s (Liquid); method: Linear variable-path acoustic interferometer
Temperature, K	Speed of sound, m/s	uncertainty
298.15	1564	3
303.15	1560	3
308.15	1556	3
313.15	1552	3

System: trimethylammonium hydrogen sulfate; phases: Liquid
Fixed: Pressure, kPa = 101
Property: Viscosity, Pa*s (Liquid); method: Oscillating disk viscometry
Temperature, K	Viscosity, Pa*s	uncertainty
298.15	0.0051	0.00033
303.15	0.00448	0.00029
308.15	0.00394	0.00027
313.15	0.00316	0.00025

System: trimethylammonium dihydrogen phosphate; phases: Crystal, Liquid, Air at 1 atmosphere
Property: Normal melting temperature, K (Crystal); method: VISOBS
Normal melting temperature, K	uncertainty
389.15	1

System: trimethylammonium dihydrogen phosphate; phases: Liquid
Fixed: Pressure, kPa = 101
Property: Mass density, kg/m3 (Liquid); method: Vibrating tube method
Temperature, K	Mass density, kg/m3	uncertainty
298.15	1353.61	1.11
303.15	1350.62	1.11
308.15	1347.59	1.11
313.15	1344.52	1.11

System: trimethylammonium dihydrogen phosphate; phases: Liquid
Fixed: Pressure, kPa = 101
Fixed: Frequency, MHz = 2
Property: Speed of sound, m/s (Liquid); method: Linear variable-path acoustic interferometer
Temperature, K	Speed of sound, m/s	uncertainty
298.15	1672	3
303.15	1660	3
308.15	1661	3
313.15	1664	3

System: trimethylammonium dihydrogen phosphate; phases: Liquid
Fixed: Pressure, kPa = 101
Property: Viscosity, Pa*s (Liquid); method: Oscillating disk viscometry
Temperature, K	Viscosity, Pa*s	uncertainty
298.15	0.00764	0.00052
303.15	0.00646	0.00044
308.15	0.00561	0.00037
313.15	0.00507	0.00032

System: dimethyl sulfoxide + trimethylammonium acetate; phases: Liquid
Fixed: Pressure, kPa = 101
Property: Mass density, kg/m3 (Liquid); method: Vibrating tube method
Temperature, K	Mole fraction of trimethylammonium acetate	Mass density, kg/m3	uncertainty
298.15	0	1095.37	1.04
298.15	0.0159	1094.86	1.04
298.15	0.0656	1093.33	1.04
298.15	0.1182	1091.46	1.04
298.15	0.1693	1089.27	1.04
298.15	0.2333	1086.77	1.04
298.15	0.2857	1084.45	1.04
298.15	0.3408	1081.92	1.04
298.15	0.3877	1079.63	1.04
298.15	0.4358	1077.39	1.04
298.15	0.5129	1073.63	1.03
298.15	0.5506	1071.66	1.03
298.15	0.5959	1069.68	1.03
298.15	0.6852	1065.62	1.03
298.15	0.7487	1062.84	1.03
298.15	0.8156	1060.15	1.03
298.15	0.8651	1058.27	1.03
298.15	0.9231	1056.26	1.03
298.15	0.961	1055.02	1.03
298.15	1	1053.85	1.03
303.15	0	1092.41	1.04
303.15	0.0159	1092.06	1.04
303.15	0.0656	1090.58	1.04
303.15	0.1182	1088.73	1.04
303.15	0.1693	1086.54	1.04
303.15	0.2333	1083.95	1.04
303.15	0.2857	1081.41	1.04
303.15	0.3408	1078.78	1.04
303.15	0.3877	1076.45	1.04
303.15	0.4358	1074.03	1.04
303.15	0.5129	1070.25	1.03
303.15	0.5506	1068.52	1.03
303.15	0.5959	1066.19	1.03
303.15	0.6852	1062.02	1.03
303.15	0.7487	1059.21	1.03
303.15	0.8156	1056.44	1.03
303.15	0.8651	1054.43	1.03
303.15	0.9231	1052.36	1.03
303.15	0.961	1051.09	1.03
303.15	1	1049.87	1.03
308.15	0	1086.06	1.04
308.15	0.0159	1085.87	1.04
308.15	0.0656	1084.72	1.04
308.15	0.1182	1083.28	1.04
308.15	0.1693	1081.2	1.04
308.15	0.2333	1078.93	1.04
308.15	0.2857	1076.51	1.04
308.15	0.3408	1073.96	1.04
308.15	0.3877	1071.75	1.03
308.15	0.4358	1069.43	1.03
308.15	0.5129	1065.68	1.03
308.15	0.5506	1063.92	1.03
308.15	0.5959	1061.71	1.03
308.15	0.6852	1057.63	1.03
308.15	0.7487	1054.92	1.03
308.15	0.8156	1052.23	1.03
308.15	0.8651	1050.25	1.03
308.15	0.9231	1048.26	1.03
308.15	0.961	1046.98	1.03
308.15	1	1045.81	1.03
313.15	0	1081.43	1.04
313.15	0.0159	1081.32	1.04
313.15	0.0656	1080.52	1.04
313.15	0.1182	1079.21	1.04
313.15	0.1693	1077.1	1.04
313.15	0.2333	1074.98	1.04
313.15	0.2857	1072.77	1.03
313.15	0.3408	1070.09	1.03
313.15	0.3877	1067.96	1.03
313.15	0.4358	1065.48	1.03
313.15	0.5129	1061.68	1.03
313.15	0.5506	1060.02	1.03
313.15	0.5959	1057.67	1.03
313.15	0.6852	1053.56	1.03
313.15	0.7487	1050.78	1.03
313.15	0.8156	1048.06	1.03
313.15	0.8651	1045.97	1.03
313.15	0.9231	1044.14	1.03
313.15	0.961	1042.88	1.03
313.15	1	1041.7	1.03

System: dimethyl sulfoxide + trimethylammonium acetate; phases: Liquid
Fixed: Pressure, kPa = 101
Fixed: Frequency, MHz = 2
Property: Speed of sound, m/s (Liquid); method: Linear variable-path acoustic interferometer
Temperature, K	Mole fraction of trimethylammonium acetate	Speed of sound, m/s	uncertainty
298.15	0	1496	3
298.15	0.0159	1497	3
298.15	0.0656	1501	3
298.15	0.1182	1505	3
298.15	0.1693	1509	3
298.15	0.2333	1513	3
298.15	0.2857	1517	3
298.15	0.3408	1521	3
298.15	0.3877	1524	3
298.15	0.4358	1527	3
298.15	0.5129	1532	3
298.15	0.5506	1534	3
298.15	0.5959	1536	3
298.15	0.6852	1540	3
298.15	0.7487	1542	3
298.15	0.8156	1543	3
298.15	0.8651	1544	3
298.15	0.9231	1544	3
298.15	0.961	1544	3
298.15	1	1544	3
303.15	0	1472	3
303.15	0.0159	1473	3
303.15	0.0656	1477	3
303.15	0.1182	1480	3
303.15	0.1693	1484	3
303.15	0.2333	1488	3
303.15	0.2857	1492	3
303.15	0.3408	1495	3
303.15	0.3877	1498	3
303.15	0.4358	1501	3
303.15	0.5129	1505	3
303.15	0.5506	1507	3
303.15	0.5959	1509	3
303.15	0.6852	1512	3
303.15	0.7487	1513	3
303.15	0.8156	1514	3
303.15	0.8651	1515	3
303.15	0.9231	1515	3
303.15	0.961	1515	3
303.15	1	1514	3
308.15	0	1460	3
308.15	0.0159	1461	3
308.15	0.0656	1465	3
308.15	0.1182	1469	3
308.15	0.1693	1473	3
308.15	0.2333	1479	3
308.15	0.2857	1483	3
308.15	0.3408	1487	3
308.15	0.3877	1491	3
308.15	0.4358	1494	3
308.15	0.5129	1499	3
308.15	0.5506	1501	3
308.15	0.5959	1504	3
308.15	0.6852	1507	3
308.15	0.7487	1509	3
308.15	0.8156	1511	3
308.15	0.8651	1511	3
308.15	0.9231	1511	3
308.15	0.961	1510	3
308.15	1	1508	3
313.15	0	1442	3
313.15	0.0159	1443	3
313.15	0.0656	1447	3
313.15	0.1182	1452	3
313.15	0.1693	1457	3
313.15	0.2333	1463	3
313.15	0.2857	1468	3
313.15	0.3408	1472	3
313.15	0.3877	1476	3
313.15	0.4358	1481	3
313.15	0.5129	1486	3
313.15	0.5506	1489	3
313.15	0.5959	1491	3
313.15	0.6852	1495	3
313.15	0.7487	1497	3
313.15	0.8156	1497	3
313.15	0.8651	1496	3
313.15	0.9231	1495	3
313.15	0.961	1493	3
313.15	1	1490	3

System: dimethyl sulfoxide + trimethylammonium acetate; phases: Liquid
Fixed: Pressure, kPa = 101
Property: Viscosity, Pa*s (Liquid); method: Oscillating disk viscometry
Temperature, K	Mole fraction of trimethylammonium acetate	Viscosity, Pa*s	uncertainty
298.15	0	0.00199	0.00013
298.15	0.0159	0.00203	0.00013
298.15	0.0656	0.00216	0.00013
298.15	0.1182	0.00229	0.00014
298.15	0.1693	0.00241	0.00015
298.15	0.2333	0.00255	0.00016
298.15	0.2857	0.00266	0.00016
298.15	0.3408	0.00277	0.00017
298.15	0.3877	0.00284	0.00018
298.15	0.4358	0.00291	0.00018
298.15	0.5129	0.003	0.00019
298.15	0.5506	0.00303	0.00019
298.15	0.5959	0.00305	0.00019
298.15	0.6852	0.00308	0.00019
298.15	0.7487	0.00306	0.00019
298.15	0.8156	0.00301	0.00019
298.15	0.8651	0.00297	0.00019
298.15	0.9231	0.00289	0.00019
298.15	0.961	0.00284	0.00018
298.15	1	0.00276	0.00018
303.15	0	0.0018	0.00011
303.15	0.0159	0.00185	0.00012
303.15	0.0656	0.00199	0.00012
303.15	0.1182	0.00212	0.00013
303.15	0.1693	0.00223	0.00014
303.15	0.2333	0.00237	0.00015
303.15	0.2857	0.00247	0.00015
303.15	0.3408	0.00256	0.00016
303.15	0.3877	0.00263	0.00016
303.15	0.4358	0.0027	0.00017
303.15	0.5129	0.00278	0.00017
303.15	0.5506	0.00281	0.00017
303.15	0.5959	0.00283	0.00018
303.15	0.6852	0.00282	0.00018
303.15	0.7487	0.0028	0.00018
303.15	0.8156	0.00275	0.00017
303.15	0.8651	0.00265	0.00017
303.15	0.9231	0.00255	0.00017
303.15	0.961	0.00248	0.00016
303.15	1	0.00237	0.00016
308.15	0	0.00165	0.0001
308.15	0.0159	0.00171	0.00011
308.15	0.0656	0.00184	0.00011
308.15	0.1182	0.00196	0.00012
308.15	0.1693	0.00207	0.00013
308.15	0.2333	0.0022	0.00014
308.15	0.2857	0.00229	0.00014
308.15	0.3408	0.00239	0.00015
308.15	0.3877	0.00245	0.00015
308.15	0.4358	0.00251	0.00015
308.15	0.5129	0.00257	0.00016
308.15	0.5506	0.00259	0.00016
308.15	0.5959	0.0026	0.00016
308.15	0.6852	0.00259	0.00016
308.15	0.7487	0.00255	0.00016
308.15	0.8156	0.00249	0.00016
308.15	0.8651	0.00239	0.00015
308.15	0.9231	0.00227	0.00015
308.15	0.961	0.00219	0.00014
308.15	1	0.00206	0.00014
313.15	0	0.00154	0.0001
313.15	0.0159	0.00161	0.0001
313.15	0.0656	0.00173	0.00011
313.15	0.1182	0.00185	0.00011
313.15	0.1693	0.00196	0.00012
313.15	0.2333	0.00208	0.00013
313.15	0.2857	0.00216	0.00013
313.15	0.3408	0.00226	0.00014
313.15	0.3877	0.00231	0.00014
313.15	0.4358	0.00236	0.00015
313.15	0.5129	0.00241	0.00015
313.15	0.5506	0.00243	0.00015
313.15	0.5959	0.00244	0.00015
313.15	0.6852	0.00241	0.00015
313.15	0.7487	0.00237	0.00015
313.15	0.8156	0.00229	0.00014
313.15	0.8651	0.00218	0.00014
313.15	0.9231	0.00206	0.00013
313.15	0.961	0.00197	0.00013
313.15	1	0.00183	0.00012

System: dimethyl sulfoxide + trimethylammonium hydrogen sulfate; phases: Liquid
Fixed: Pressure, kPa = 101
Property: Mass density, kg/m3 (Liquid); method: Vibrating tube method
Temperature, K	Mole fraction of trimethylammonium hydrogen sulfate	Mass density, kg/m3	uncertainty
298.15	0	1095.37	1.04
298.15	0.013	1102.89	1.04
298.15	0.0356	1115.76	1.04
298.15	0.0539	1125.92	1.05
298.15	0.0982	1149.81	1.05
298.15	0.1259	1164.24	1.06
298.15	0.1608	1181.78	1.06
298.15	0.1982	1199.92	1.07
298.15	0.2422	1220.26	1.07
298.15	0.2956	1243.91	1.08
298.15	0.3855	1281.02	1.1
298.15	0.4611	1309.82	1.11
298.15	0.545	1339.48	1.12
298.15	0.6387	1370.13	1.12
298.15	0.7076	1391.08	1.13
298.15	0.7823	1412.52	1.14
298.15	0.8444	1429.25	1.14
298.15	0.907	1445.39	1.15
298.15	0.9524	1456.38	1.15
298.15	1	1467.58	1.16
303.15	0	1092.41	1.04
303.15	0.013	1099.96	1.04
303.15	0.0356	1112.84	1.04
303.15	0.0539	1122.95	1.05
303.15	0.0982	1146.81	1.05
303.15	0.1259	1161.18	1.06
303.15	0.1608	1178.69	1.06
303.15	0.1982	1196.87	1.07
303.15	0.2422	1217.02	1.07
303.15	0.2956	1240.65	1.08
303.15	0.3855	1277.68	1.1
303.15	0.4611	1306.38	1.11
303.15	0.545	1336.01	1.12
303.15	0.6387	1366.49	1.12
303.15	0.7076	1387.36	1.13
303.15	0.7823	1408.73	1.13
303.15	0.8444	1425.42	1.14
303.15	0.907	1441.51	1.15
303.15	0.9524	1452.45	1.15
303.15	1	1463.57	1.16
308.15	0	1086.06	1.04
308.15	0.013	1093.72	1.04
308.15	0.0356	1106.81	1.04
308.15	0.0539	1116.99	1.05
308.15	0.0982	1141.18	1.05
308.15	0.1259	1155.67	1.06
308.15	0.1608	1173.53	1.06
308.15	0.1982	1191.94	1.07
308.15	0.2422	1212.56	1.07
308.15	0.2956	1236.49	1.08
308.15	0.3855	1274.01	1.1
308.15	0.4611	1303.22	1.11
308.15	0.545	1333.32	1.12
308.15	0.6387	1364.4	1.1
308.15	0.7076	1385.63	1.13
308.15	0.7823	1407.49	1.14
308.15	0.8444	1424.52	1.14
308.15	0.907	1440.98	1.15
308.15	0.9524	1452.15	1.15
308.15	1	1463.5	1.2
313.15	0	1081.43	1.04
313.15	0.013	1089.1	1
313.15	0.0356	1102.07	1.04
313.15	0.0539	1112.21	1.04
313.15	0.0982	1136.31	1.05
313.15	0.1259	1150.73	1.05
313.15	0.1608	1168.35	1.06
313.15	0.1982	1186.62	1.07
313.15	0.2422	1207.12	1.07
313.15	0.2956	1230.97	1.08
313.15	0.3855	1268.16	1.1
313.15	0.4611	1297.1	1.1
313.15	0.545	1326.92	1.12
313.15	0.6387	1357.69	1.12
313.15	0.7076	1378.66	1.13
313.15	0.7823	1400.24	1.13
313.15	0.8444	1417.09	1.14
313.15	0.907	1433.37	1.15
313.15	0.9524	1444.43	1.15
313.15	1	1455.63	1.16

System: dimethyl sulfoxide + trimethylammonium hydrogen sulfate; phases: Liquid
Fixed: Pressure, kPa = 101
Fixed: Frequency, MHz = 2
Property: Speed of sound, m/s (Liquid); method: Linear variable-path acoustic interferometer
Temperature, K	Mole fraction of trimethylammonium hydrogen sulfate	Speed of sound, m/s	uncertainty
298.15	0	1496	3
298.15	0.013	1498	3
298.15	0.0356	1499	3
298.15	0.0539	1501	3
298.15	0.0982	1504	3
298.15	0.1259	1507	3
298.15	0.1608	1511	3
298.15	0.1982	1514	3
298.15	0.2422	1519	3
298.15	0.2956	1522	3
298.15	0.3855	1528	3
298.15	0.4611	1533	3
298.15	0.545	1536	3
298.15	0.6387	1542	3
298.15	0.7076	1546	3
298.15	0.7823	1548	3
298.15	0.8444	1552	3
298.15	0.907	1556	3
298.15	0.9524	1559	3
298.15	1	1564	3
303.15	0	1472	3
303.15	0.013	1475	3
303.15	0.0356	1477	3
303.15	0.0539	1479	3
303.15	0.0982	1485	3
303.15	0.1259	1488	3
303.15	0.1608	1492	3
303.15	0.1982	1496	3
303.15	0.2422	1501	3
303.15	0.2956	1506	3
303.15	0.3855	1514	3
303.15	0.4611	1522	3
303.15	0.545	1528	3
303.15	0.6387	1532	3
303.15	0.7076	1538	3
303.15	0.7823	1540	3
303.15	0.8444	1545	3
303.15	0.907	1551	3
303.15	0.9524	1556	3
303.15	1	1560	3
308.15	0	1460	3
308.15	0.013	1462	3
308.15	0.0356	1466	3
308.15	0.0539	1469	3
308.15	0.0982	1476	3
308.15	0.1259	1478	3
308.15	0.1608	1484	3
308.15	0.1982	1490	3
308.15	0.2422	1494	3
308.15	0.2956	1500	3
308.15	0.3855	1510	3
308.15	0.4611	1516	3
308.15	0.545	1524	3
308.15	0.6387	1530	3
308.15	0.7076	1534	3
308.15	0.7823	1538	3
308.15	0.8444	1544	3
308.15	0.907	1547	3
308.15	0.9524	1552	3
308.15	1	1556	3
313.15	0	1442	3
313.15	0.013	1447	3
313.15	0.0356	1449	3
313.15	0.0539	1452	3
313.15	0.0982	1460	3
313.15	0.1259	1464	3
313.15	0.1608	1471	3
313.15	0.1982	1476	3
313.15	0.2422	1483	3
313.15	0.2956	1490	3
313.15	0.3855	1501	3
313.15	0.4611	1510	3
313.15	0.545	1516	3
313.15	0.6387	1525	3
313.15	0.7076	1530	3
313.15	0.7823	1536	3
313.15	0.8444	1540	3
313.15	0.907	1545	3
313.15	0.9524	1549	3
313.15	1	1552	3

System: dimethyl sulfoxide + trimethylammonium hydrogen sulfate; phases: Liquid
Fixed: Pressure, kPa = 101
Property: Viscosity, Pa*s (Liquid); method: Oscillating disk viscometry
Temperature, K	Mole fraction of trimethylammonium hydrogen sulfate	Viscosity, Pa*s	uncertainty
298.15	0	0.00199	0.00013
298.15	0.013	0.00207	0.00013
298.15	0.0356	0.00223	0.00014
298.15	0.0539	0.00236	0.00015
298.15	0.0982	0.00262	0.00016
298.15	0.1259	0.00275	0.00017
298.15	0.1608	0.00291	0.00018
298.15	0.1982	0.00309	0.00019
298.15	0.2422	0.0033	0.00021
298.15	0.2956	0.00352	0.00022
298.15	0.3855	0.00384	0.00024
298.15	0.4611	0.00407	0.00026
298.15	0.545	0.0043	0.00027
298.15	0.6387	0.00451	0.00029
298.15	0.7076	0.00464	0.0003
298.15	0.7823	0.00478	0.00031
298.15	0.8444	0.00486	0.00031
298.15	0.907	0.00495	0.00032
298.15	0.9524	0.00502	0.00032
298.15	1	0.0051	0.00033
303.15	0	0.0018	0.00011
303.15	0.013	0.00189	0.00012
303.15	0.0356	0.00203	0.00013
303.15	0.0539	0.00215	0.00013
303.15	0.0982	0.00239	0.00015
303.15	0.1259	0.00254	0.00016
303.15	0.1608	0.00269	0.00017
303.15	0.1982	0.00285	0.00018
303.15	0.2422	0.00302	0.00019
303.15	0.2956	0.00322	0.0002
303.15	0.3855	0.00351	0.00022
303.15	0.4611	0.00371	0.00023
303.15	0.545	0.00388	0.00025
303.15	0.6387	0.00405	0.00026
303.15	0.7076	0.00415	0.00027
303.15	0.7823	0.00426	0.00027
303.15	0.8444	0.00432	0.00028
303.15	0.907	0.00438	0.00028
303.15	0.9524	0.00443	0.00029
303.15	1	0.00448	0.00029
308.15	0	0.00165	0.0001
308.15	0.013	0.00175	0.00011
308.15	0.0356	0.00188	0.00012
308.15	0.0539	0.00199	0.00012
308.15	0.0982	0.00223	0.00014
308.15	0.1259	0.00235	0.00015
308.15	0.1608	0.00251	0.00016
308.15	0.1982	0.00267	0.00017
308.15	0.2422	0.00282	0.00018
308.15	0.2956	0.003	0.00019
308.15	0.3855	0.00324	0.00021
308.15	0.4611	0.00341	0.00022
308.15	0.545	0.00354	0.00023
308.15	0.6387	0.00368	0.00024
308.15	0.7076	0.00373	0.00025
308.15	0.7823	0.00381	0.00025
308.15	0.8444	0.00385	0.00026
308.15	0.907	0.00388	0.00026
308.15	0.9524	0.00392	0.00027
308.15	1	0.00394	0.00027
313.15	0	0.00154	0.0001
313.15	0.013	0.00164	0.0001
313.15	0.0356	0.00175	0.00011
313.15	0.0539	0.00185	0.00012
313.15	0.0982	0.00206	0.00013
313.15	0.1259	0.00217	0.00014
313.15	0.1608	0.00231	0.00015
313.15	0.1982	0.00245	0.00016
313.15	0.2422	0.00256	0.00016
313.15	0.2956	0.0027	0.00017
313.15	0.3855	0.00288	0.00019
313.15	0.4611	0.003	0.0002
313.15	0.545	0.00308	0.00021
313.15	0.6387	0.00314	0.00022
313.15	0.7076	0.00316	0.00022
313.15	0.7823	0.00318	0.00023
313.15	0.8444	0.00318	0.00023
313.15	0.907	0.00318	0.00024
313.15	0.9524	0.00317	0.00024
313.15	1	0.00316	0.00025

System: dimethyl sulfoxide + trimethylammonium dihydrogen phosphate; phases: Liquid
Fixed: Pressure, kPa = 101
Property: Mass density, kg/m3 (Liquid); method: Vibrating tube method
Temperature, K	Mole fraction of trimethylammonium dihydrogen phosphate	Mass density, kg/m3	uncertainty
298.15	0	1095.37	1.04
298.15	0.0264	1101.75	1.04
298.15	0.0397	1104.69	1.04
298.15	0.0708	1111.45	1.04
298.15	0.1172	1121.12	1.04
298.15	0.1673	1130.48	1.05
298.15	0.2284	1141.05	1.05
298.15	0.2934	1153.02	1.05
298.15	0.3413	1160.74	1.05
298.15	0.4012	1172.7	1.06
298.15	0.4659	1185.32	1.06
298.15	0.5306	1199.2	1.07
298.15	0.6022	1215.92	1.07
298.15	0.6728	1235.08	1.08
298.15	0.7504	1257.14	1.08
298.15	0.8137	1278.01	1.09
298.15	0.8805	1302.18	1.09
298.15	0.9643	1337.27	1.11
298.15	0.9858	1347.05	1.11
298.15	1	1353.61	1.11
303.15	0	1092.41	1.04
303.15	0.0264	1099.07	1.04
303.15	0.0397	1102.31	1.04
303.15	0.0708	1109.32	1.04
303.15	0.1172	1119.09	1.04
303.15	0.1673	1128.56	1.05
303.15	0.2284	1139.84	1.05
303.15	0.2934	1151.1	1.05
303.15	0.3413	1160.68	1.05
303.15	0.4012	1171.28	1.06
303.15	0.4659	1184.46	1.06
303.15	0.5306	1198.94	1.07
303.15	0.6022	1214.84	1.07
303.15	0.6728	1233.24	1.08
303.15	0.7504	1256.51	1.08
303.15	0.8137	1276.03	1.09
303.15	0.8805	1302.06	1.09
303.15	0.9643	1336.07	1.11
303.15	0.9858	1344.82	1.11
303.15	1	1350.62	1.11
308.15	0	1086.06	1.04
308.15	0.0264	1093.45	1.04
308.15	0.0397	1096.91	1.04
308.15	0.0708	1104.49	1.04
308.15	0.1172	1114.06	1.04
308.15	0.1673	1124.47	1.05
308.15	0.2284	1136.12	1.05
308.15	0.2934	1147.36	1.05
308.15	0.3413	1157.63	1.05
308.15	0.4012	1167.76	1.06
308.15	0.4659	1181.31	1.06
308.15	0.5306	1196.24	1.07
308.15	0.6022	1214.48	1.07
308.15	0.6728	1232.06	1.08
308.15	0.7504	1256.27	1.08
308.15	0.8137	1276.94	1.09
308.15	0.8805	1301.06	1.09
308.15	0.9643	1334.09	1.1
308.15	0.9858	1342.26	1.11
308.15	1	1347.59	1.11
313.15	0	1081.43	1.04
313.15	0.0264	1089.15	1.04
313.15	0.0397	1092.77	1.04
313.15	0.0708	1100.69	1.04
313.15	0.1172	1109.86	1.04
313.15	0.1673	1121.53	1.05
313.15	0.2284	1134.54	1.05
313.15	0.2934	1145.27	1.05
313.15	0.3413	1156.54	1.05
313.15	0.4012	1167.52	1.06
313.15	0.4659	1181.73	1.06
313.15	0.5306	1196.14	1.07
313.15	0.6022	1214.06	1.07
313.15	0.6728	1232.95	1.08
313.15	0.7504	1256.04	1.08
313.15	0.8137	1276.61	1.09
313.15	0.8805	1299.14	1.09
313.15	0.9643	1331.48	1.1
313.15	0.9858	1339.35	1.11
313.15	1	1344.52	1.11

System: dimethyl sulfoxide + trimethylammonium dihydrogen phosphate; phases: Liquid
Fixed: Pressure, kPa = 101
Fixed: Frequency, MHz = 2
Property: Speed of sound, m/s (Liquid); method: Linear variable-path acoustic interferometer
Temperature, K	Mole fraction of trimethylammonium dihydrogen phosphate	Speed of sound, m/s	uncertainty
298.15	0	1496	3
298.15	0.0264	1494	3
298.15	0.0397	1493	3
298.15	0.0708	1492	3
298.15	0.1172	1494	3
298.15	0.1673	1496	3
298.15	0.2284	1502	3
298.15	0.2934	1510	3
298.15	0.3413	1518	3
298.15	0.4012	1527	3
298.15	0.4659	1540	3
298.15	0.5306	1554	3
298.15	0.6022	1570	3
298.15	0.6728	1587	3
298.15	0.7504	1608	3
298.15	0.8137	1624	3
298.15	0.8805	1641	3
298.15	0.9643	1662	3
298.15	0.9858	1668	3
298.15	1	1672	3
303.15	0	1472	3
303.15	0.0264	1471	3
303.15	0.0397	1471	3
303.15	0.0708	1471	3
303.15	0.1172	1474	3
303.15	0.1673	1477	3
303.15	0.2284	1483	3
303.15	0.2934	1491	3
303.15	0.3413	1499	3
303.15	0.4012	1510	3
303.15	0.4659	1523	3
303.15	0.5306	1537	3
303.15	0.6022	1554	3
303.15	0.6728	1572	3
303.15	0.7504	1592	3
303.15	0.8137	1610	3
303.15	0.8805	1627	3
303.15	0.9643	1649	3
303.15	0.9858	1656	3
303.15	1	1660	3
308.15	0	1460	3
308.15	0.0264	1459	3
308.15	0.0397	1460	3
308.15	0.0708	1461	3
308.15	0.1172	1464	3
308.15	0.1673	1468	3
308.15	0.2284	1475	3
308.15	0.2934	1485	3
308.15	0.3413	1492	3
308.15	0.4012	1504	3
308.15	0.4659	1518	3
308.15	0.5306	1531	3
308.15	0.6022	1548	3
308.15	0.6728	1567	3
308.15	0.7504	1588	3
308.15	0.8137	1605	3
308.15	0.8805	1625	3
308.15	0.9643	1649	3
308.15	0.9858	1656	3
308.15	1	1661	3
313.15	0	1442	3
313.15	0.0264	1442	3
313.15	0.0397	1443	3
313.15	0.0708	1444	3
313.15	0.1172	1449	3
313.15	0.1673	1452	3
313.15	0.2284	1460	3
313.15	0.2934	1471	3
313.15	0.3413	1479	3
313.15	0.4012	1493	3
313.15	0.4659	1507	3
313.15	0.5306	1522	3
313.15	0.6022	1540	3
313.15	0.6728	1560	3
313.15	0.7504	1581	3
313.15	0.8137	1601	3
313.15	0.8805	1623	3
313.15	0.9643	1651.4	2.7
313.15	0.9858	1659	3
313.15	1	1664	3

System: dimethyl sulfoxide + trimethylammonium dihydrogen phosphate; phases: Liquid
Fixed: Pressure, kPa = 101
Property: Viscosity, Pa*s (Liquid); method: Oscillating disk viscometry
Temperature, K	Mole fraction of trimethylammonium dihydrogen phosphate	Viscosity, Pa*s	uncertainty
298.15	0	0.00199	0.00013
298.15	0.0264	0.00217	0.00014
298.15	0.0397	0.00225	0.00014
298.15	0.0708	0.00245	0.00016
298.15	0.1172	0.00274	0.00018
298.15	0.1673	0.00305	0.0002
298.15	0.2284	0.00341	0.00022
298.15	0.2934	0.00379	0.00025
298.15	0.3413	0.00407	0.00027
298.15	0.4012	0.00441	0.00029
298.15	0.4659	0.00477	0.00032
298.15	0.5306	0.00512	0.00034
298.15	0.6022	0.00551	0.00037
298.15	0.6728	0.00589	0.00039
298.15	0.7504	0.0063	0.00042
298.15	0.8137	0.00664	0.00045
298.15	0.8805	0.00699	0.00047
298.15	0.9643	0.00745	0.0005
298.15	0.9858	0.00756	0.00051
298.15	1	0.00764	0.00052
303.15	0	0.0018	0.00011
303.15	0.0264	0.00195	0.00012
303.15	0.0397	0.00202	0.00013
303.15	0.0708	0.00218	0.00014
303.15	0.1172	0.00243	0.00016
303.15	0.1673	0.00269	0.00017
303.15	0.2284	0.00299	0.00019
303.15	0.2934	0.00331	0.00022
303.15	0.3413	0.00353	0.00023
303.15	0.4012	0.00381	0.00025
303.15	0.4659	0.00411	0.00027
303.15	0.5306	0.0044	0.00029
303.15	0.6022	0.00472	0.00032
303.15	0.6728	0.00502	0.00034
303.15	0.7504	0.00536	0.00036
303.15	0.8137	0.00564	0.00038
303.15	0.8805	0.00593	0.0004
303.15	0.9643	0.0063	0.00043
303.15	0.9858	0.0064	0.00043
303.15	1	0.00646	0.00044
308.15	0	0.00165	0.0001
308.15	0.0264	0.00178	0.00011
308.15	0.0397	0.00183	0.00011
308.15	0.0708	0.00197	0.00012
308.15	0.1172	0.00218	0.00014
308.15	0.1673	0.00241	0.00015
308.15	0.2284	0.00267	0.00017
308.15	0.2934	0.00294	0.00019
308.15	0.3413	0.00313	0.0002
308.15	0.4012	0.00337	0.00022
308.15	0.4659	0.00362	0.00023
308.15	0.5306	0.00386	0.00025
308.15	0.6022	0.00413	0.00027
308.15	0.6728	0.00438	0.00028
308.15	0.7504	0.00467	0.0003
308.15	0.8137	0.00491	0.00032
308.15	0.8805	0.00516	0.00034
308.15	0.9643	0.00547	0.00036
308.15	0.9858	0.00556	0.00036
308.15	1	0.00561	0.00037
313.15	0	0.00154	0.0001
313.15	0.0264	0.00165	0.0001
313.15	0.0397	0.0017	0.00011
313.15	0.0708	0.00183	0.00011
313.15	0.1172	0.00202	0.00013
313.15	0.1673	0.00222	0.00014
313.15	0.2284	0.00245	0.00015
313.15	0.2934	0.00269	0.00017
313.15	0.3413	0.00286	0.00018
313.15	0.4012	0.00307	0.00019
313.15	0.4659	0.0033	0.00021
313.15	0.5306	0.00351	0.00022
313.15	0.6022	0.00375	0.00024
313.15	0.6728	0.00398	0.00025
313.15	0.7504	0.00424	0.00027
313.15	0.8137	0.00444	0.00028
313.15	0.8805	0.00467	0.0003
313.15	0.9643	0.00495	0.00032
313.15	0.9858	0.00502	0.00032
313.15	1	0.00507	0.00032
