Measured thermophysical data. Low temperature heat capacity Study of Fe(PO3)3 and Fe2P2O7
Source: J. Chem. Thermodyn., 2013, 10.1016/j.jct.2013.02.001
Compound 1: iron(III) metaphosphate, FeO9P3, InChI=1S/Fe.H3O9P3/c;1-10(2)7-11(3,4)9-12(5,6)8-10/h;(H,1,2)(H,3,4)(H,5,6)/q+3;/p-3, purity 99%
Compound 2: iron(II) pyrophosphate, Fe2O7P2, InChI=1S/2Fe.H4O7P2/c;;1-8(2,3)7-9(4,5)6/h;;(H2,1,2,3)(H2,4,5,6)/q2*+2;/p-4, purity 99%

System: iron(III) metaphosphate; phases: Crystal 2, Crystal 1, Gas
Property: Triple point temperature, K (Crystal 2); method: Quantum Design PPMS relaxation calorimeter
Triple point temperature, K	uncertainty
8.76	0.2

System: iron(III) metaphosphate; phases: Crystal 2, Crystal 1, Gas
Property: Molar enthalpy of transition or fusion, kJ/mol (Crystal 2); method: Quantum Design PPMS relaxation calorimeter
Molar enthalpy of transition or fusion, kJ/mol	uncertainty
0	1

System: iron(III) metaphosphate; phases: Crystal 2
Fixed: Pressure, kPa = 101.325
Property: Molar heat capacity at constant pressure, J/K/mol (Crystal 2); method: Quantum Design PPMS relaxation calorimeter
Temperature, K	Molar heat capacity at constant pressure, J/K/mol	uncertainty
1.9052	1.4048	0.1487
1.9735	1.5714	0.1628
2.0514	1.7172	0.1768
2.0864	1.8154	0.1867
2.2028	2.053	0.2077
2.2304	2.0966	0.212
2.424	2.5821	0.2622
2.4996	2.6965	0.2725
2.6198	2.9619	0.2991
2.7837	3.2903	0.3318
2.7902	3.359	0.3386
2.9688	3.7082	0.3729
3.0839	3.9302	0.3948
3.1448	4.0409	0.4064
3.325	4.4411	0.446
3.4246	4.6047	0.4621
3.5075	4.7981	0.4811
3.6962	5.0913	0.5116
3.8231	3.9033	2
3.8727	5.3995	0.8096
4.0738	5.5592	0.556
4.2507	5.2512	0.5265
4.3118	6.2612	0.633
4.49	6.5664	0.6575
4.6788	6.8726	0.6873
4.7112	6.8888	0.689
4.8625	7.1944	0.7202
5.0728	7.4791	0.7488
5.2438	7.8969	0.8684
5.2558	7.6801	0.8488
5.4146	8.1263	0.8131
5.6311	8.2361	0.824
5.8302	8.6904	0.8706
5.8345	8.8556	0.8871
6.0332	9.2801	0.9287
6.2086	9.502	1.3034
6.2347	8.3377	2
6.3811	9.8674	1.0044
6.4299	10.106	1.012
6.4943	10.173	1.018
6.5897	10.38	1.039
6.6358	10.523	1.053
6.7683	10.654	1.067
6.8374	11.153	1.116
7.0469	11.302	1.131
7.2173	11.961	1.197
7.2517	11.89	1.19
7.4351	12.553	1.257
7.6322	13.219	1.324
7.7179	13.57	1.357
7.8284	13.477	1.35
8.0213	14.56	1.461
8.0247	14.898	1.495
8.2192	15.932	1.597
8.4122	17.154	1.72
8.616	18.555	1.865
8.7034	20.022	2.029

System: iron(III) metaphosphate; phases: Crystal 1
Fixed: Pressure, kPa = 101.325
Property: Molar heat capacity at constant pressure, J/K/mol (Crystal 1); method: Quantum Design PPMS relaxation calorimeter
Temperature, K	Molar heat capacity at constant pressure, J/K/mol	uncertainty
8.8102	21.726	2.196
8.9017	19.03	1.924
9.0188	9.9773	1.0021
9.2143	7.8387	0.8073
9.4111	7.0057	0.7201
9.82	5.8826	0.6076
9.9521	5.6266	0.566
10.005	5.144	0.5176
10.082	5.4112	0.5425
10.201	5.242	0.5255
10.408	4.9719	0.4981
10.601	4.7328	0.4738
10.792	4.5544	0.4559
10.967	4.4089	0.4412
10.988	4.391	0.4394
11.182	4.2439	0.4247
11.21	4.2373	0.424
11.371	4.1188	0.4121
11.567	3.9962	0.3998
11.764	3.8887	0.389
11.961	3.7986	0.38
11.964	3.7873	0.3788
12.159	3.7158	0.3717
12.354	3.6444	0.3645
12.444	3.6208	0.3621
12.555	3.5743	0.3575
12.751	3.5145	0.3515
12.948	3.463	0.3463
12.955	3.4596	0.346
13.146	3.4254	0.3426
13.346	3.3934	0.3394
13.542	3.3685	0.3369
13.739	3.3461	0.3346
13.806	3.3499	0.335
13.939	3.3239	0.3324
13.953	3.3275	0.3328
14.134	3.3174	0.3317
14.333	3.3127	0.3313
14.532	3.3164	0.3316
14.729	3.3174	0.3317
14.93	3.3328	0.3333
14.954	3.3024	0.3303
15.316	3.3018	0.3302
17.01	3.6893	0.369
18.773	4.298	0.4299
20.934	5.1034	0.5104
23.267	6.5237	0.1311
25.814	8.1981	0.1645
28.649	10.221	0.205
31.823	12.552	0.252
35.355	15.535	0.311
39.263	19.034	0.381
43.598	23.021	0.461
48.414	27.28	0.546
53.77	32.485	0.65
59.678	38.545	0.771
66.249	44.671	0.894
73.559	51.844	1.037
81.683	60.095	1.202
90.706	69.268	1.385
100.71	78.823	1.577
110.87	87.846	1.757
120.86	97.277	1.946
130.98	105.8	2.12
141.02	114.06	2.28
151.17	121.94	2.44
161.25	129.55	2.59
171.3	136.91	2.74
181.43	143.81	2.88
191.55	150.47	3.01
201.67	157.16	3.14
211.77	163.36	3.27
221.89	169.5	3.39
232.02	175.9	3.52
242.09	180.79	3.62
252.14	186.58	3.73
262.22	191.93	3.84
272.38	198.19	3.96
282.45	204.75	4.1
292.48	208.17	4.16
302.59	213.23	4.26

System: iron(III) metaphosphate; phases: Crystal 2
Fixed: Pressure, kPa = 101.325
Property: Molar heat capacity at constant pressure, J/K/mol (Crystal 2); method: Quantum Design PPMS relaxation calorimeter
Temperature, K	Molar heat capacity at constant pressure, J/K/mol	uncertainty
1	0.426	0.04959
2	1.6213	0.1687
3	3.7447	0.384
4	5.5777	0.57
5	7.3027	0.7456
6	8.9551	0.9143
7	11.3	1.154
8	14.614	1.495
8.76	21.726	2.224

System: iron(III) metaphosphate; phases: Crystal 2
Fixed: Pressure, kPa = 101.325
Property: Molar entropy, J/K/mol (Crystal 2); method: Quantum Design PPMS relaxation calorimeter
Temperature, K	Molar entropy, J/K/mol	uncertainty
1	0.34052	0.05345
2	0.93749	0.14439
3	1.9987	0.3067
4	3.332	0.5105
5	4.7638	0.7294
6	6.2394	0.9551
7	7.789	1.1922
8	9.4852	1.4516

System: iron(III) metaphosphate; phases: Crystal 2
Fixed: Pressure, kPa = 101.325
Property: Molar enthalpy, kJ/mol (Crystal 2); method: Quantum Design PPMS relaxation calorimeter
Temperature, K	Molar enthalpy, kJ/mol	uncertainty
1	0.00018095	2.617e-05
2	0.0011085	0.0001187
3	0.0037989	0.0003944
4	0.0084774	0.0008718
5	0.014926	0.001529
6	0.023044	0.002358
7	0.033128	0.003387
8	0.045866	0.004685

System: iron(III) metaphosphate; phases: Crystal 1
Fixed: Pressure, kPa = 101.325
Property: Molar heat capacity at constant pressure, J/K/mol (Crystal 1); method: Quantum Design PPMS relaxation calorimeter
Temperature, K	Molar heat capacity at constant pressure, J/K/mol	uncertainty
8.76	21.726	2.232
9	13.042	1.339
10	5.4085	0.156
11	4.3822	0.1064
12	3.7774	0.0911
13	3.4516	0.083
14	3.3233	0.0798
15	3.3129	0.0795
16	3.3864	0.0814
17	3.6858	0.0887
18	4.0339	0.0971
19	4.3728	0.1052
20	4.7123	0.1133
25	7.6538	0.1842
30	11.283	0.271
35	15.304	0.368
40	19.583	0.47
45	24.084	0.578
50	28.77	0.691
55	33.605	0.807
60	38.553	0.925
65	43.577	1.046
70	48.641	1.07
75	53.71	1.182
80	58.745	1.293
85	63.713	1.402
90	68.575	1.509
95	73.64	1.62
100	78.597	1.729
110	87.959	1.935
120	96.719	2.128
130	105.03	2.31
140	113	2.49
150	120.71	2.66
160	128.2	2.82
170	135.49	2.98
180	142.58	3.14
190	149.47	3.29
200	156.13	3.43
210	162.56	3.58
220	168.75	3.71
230	174.69	3.84
240	180.38	3.97
250	185.81	4.09
260	190.98	4.2
270	195.91	4.31
273.15	197.41	4.34
280	200.59	4.41
290	205.03	4.51
298.15	208.48	4.59
300	209.25	4.6

System: iron(III) metaphosphate; phases: Crystal 1
Fixed: Pressure, kPa = 101.325
Property: Molar entropy, J/K/mol (Crystal 1); method: Quantum Design PPMS relaxation calorimeter
Temperature, K	Molar entropy, J/K/mol	uncertainty
9	11.531	1.771
10	12.282	0.459
11	12.748	0.466
12	13.101	0.476
13	13.389	0.485
14	13.64	0.493
15	13.868	0.501
16	14.083	0.509
17	14.297	0.517
18	14.517	0.525
19	14.744	0.533
20	14.977	0.541
25	16.319	0.591
30	18.026	0.653
35	20.063	0.728
40	22.384	0.812
45	24.948	0.904
50	27.727	1.005
55	30.694	1.112
60	33.83	1.225
65	37.114	1.343
70	40.528	1.345
75	44.057	1.461
80	47.684	1.58
85	51.395	1.703
90	55.175	1.827
95	59.017	1.954
100	62.922	2.082
110	70.857	2.344
120	78.89	2.608
130	86.962	2.874
140	95.039	3.14
150	103.1	3.41
160	111.13	3.67
170	119.12	3.93
180	127.07	4.2
190	134.96	4.46
200	142.8	4.71
210	150.57	4.97
220	158.28	5.23
230	165.91	5.48
240	173.47	5.73
250	180.94	5.97
260	188.33	6.22
270	195.63	6.46
273.15	197.91	6.53
280	202.84	6.7
290	209.96	6.93
298.15	215.69	7.12
300	216.98	7.16

System: iron(III) metaphosphate; phases: Crystal 1
Fixed: Pressure, kPa = 101.325
Property: Molar enthalpy, kJ/mol (Crystal 1); method: Quantum Design PPMS relaxation calorimeter
Temperature, K	Molar enthalpy, kJ/mol	uncertainty
9	0.06327	0.006455
10	0.070363	0.001693
11	0.075237	0.001808
12	0.079289	0.001904
13	0.08289	0.001991
14	0.086269	0.002072
15	0.089585	0.002151
16	0.092909	0.002231
17	0.096435	0.002316
18	0.10029	0.00241
19	0.1045	0.00251
20	0.10904	0.00262
25	0.13938	0.00335
30	0.18647	0.00448
35	0.25282	0.00608
40	0.33994	0.00817
45	0.44902	0.01079
50	0.58109	0.01396
55	0.73697	0.0177
60	0.91732	0.02203
65	1.1226	0.027
70	1.3532	0.0298
75	1.609	0.0354
80	1.8902	0.0416
85	2.1964	0.0483
90	2.5271	0.0556
95	2.8826	0.0634
100	3.2633	0.0718
110	4.0966	0.0901
120	5.0204	0.1105
130	6.0295	0.1327
140	7.1198	0.1567
150	8.2886	0.1824
160	9.5333	0.2097
170	10.852	0.239
180	12.242	0.269
190	13.703	0.301
200	15.231	0.335
210	16.825	0.37
220	18.482	0.407
230	20.199	0.444
240	21.975	0.483
250	23.806	0.524
260	25.69	0.56
270	27.624	0.608
273.15	28.244	0.621
280	29.607	0.651
290	31.635	0.696
298.15	33.321	0.733
300	33.707	0.742

System: iron(II) pyrophosphate; phases: Crystal 2, Crystal 1, Gas
Property: Triple point temperature, K (Crystal 2); method: Quantum Design PPMS relaxation calorimeter
Triple point temperature, K	uncertainty
18.96	0.2

System: iron(II) pyrophosphate; phases: Crystal 2, Crystal 1, Gas
Property: Molar enthalpy of transition or fusion, kJ/mol (Crystal 2); method: Quantum Design PPMS relaxation calorimeter
Molar enthalpy of transition or fusion, kJ/mol	uncertainty
0	1

System: iron(II) pyrophosphate; phases: Crystal 2
Fixed: Pressure, kPa = 101.325
Property: Molar heat capacity at constant pressure, J/K/mol (Crystal 2); method: Quantum Design PPMS relaxation calorimeter
Temperature, K	Molar heat capacity at constant pressure, J/K/mol	uncertainty
1.9128	0.1778	0.01799
2.064	0.19855	0.02002
2.2601	0.22248	0.02242
2.5309	0.2638	0.02656
2.8012	0.30592	0.03077
3.0995	0.35703	0.03589
3.4401	0.42304	0.04251
3.8217	0.5078	0.05102
4.2599	0.62593	0.06288
4.7495	0.78746	0.07911
5.271	1.0092	0.1014
5.8512	1.3089	0.1314
6.5162	1.7426	0.1749
7.2803	2.3433	0.235
8.038	3.1224	0.3131
8.9445	4.2463	0.4255
9.8473	5.6123	0.5621
10.076	5.9908	0.6
10.352	6.444	0.6453
10.863	7.3408	0.735
11.195	7.9581	0.7966
11.376	8.2723	0.828
11.884	9.1984	0.9206
12.398	10.132	1.014
12.408	10.27	1.028
12.911	11.036	1.104
13.419	11.974	1.198
13.814	12.777	1.278
13.925	12.96	1.296
14.154	13.364	1.337
14.438	13.969	1.397
14.669	14.409	1.442
14.951	15.043	1.505
15.19	15.571	1.558
15.315	15.935	1.594
15.456	16.161	1.617
15.7	16.681	1.669
15.963	17.319	1.733
16.211	17.941	1.795
16.461	18.55	1.856
16.729	19.265	1.927
16.97	19.884	1.989
17.028	20.068	2.007
17.215	20.477	2.048
17.467	21.148	2.115
17.719	21.752	2.176
17.97	22.35	2.235
18.223	22.898	2.29
18.448	23.456	2.346
18.704	23.764	2.376
18.862	23.901	2.39

System: iron(II) pyrophosphate; phases: Crystal 1
Fixed: Pressure, kPa = 101.325
Property: Molar heat capacity at constant pressure, J/K/mol (Crystal 1); method: Quantum Design PPMS relaxation calorimeter
Temperature, K	Molar heat capacity at constant pressure, J/K/mol	uncertainty
18.963	23.943	2.394
19.219	23.87	2.387
19.472	23.667	2.367
19.723	23.253	2.326
19.956	22.808	2.281
20.206	22.295	2.23
20.455	21.809	2.181
20.701	21.413	2.142
20.955	21.045	2.105
21.207	20.681	2.068
21.458	20.308	2.031
21.712	20.154	2.015
21.962	20.019	2.002
22.215	19.887	0.398
22.468	19.762	0.395
22.736	19.727	0.395
22.986	19.67	0.393
23.225	19.65	0.393
23.293	19.659	0.393
23.477	19.646	0.393
23.52	19.738	0.395
23.701	19.622	0.392
23.728	19.619	0.392
23.904	19.667	0.393
23.981	19.661	0.393
24.1	19.701	0.394
24.301	19.724	0.394
24.471	19.774	0.395
24.663	19.784	0.396
24.857	19.847	0.397
25.001	19.886	0.398
25.051	19.907	0.398
25.254	19.937	0.399
25.456	19.987	0.4
25.479	20.018	0.4
25.649	20.062	0.401
25.843	20.148	0.403
25.865	20.191	0.404
25.984	20.179	0.404
26.037	20.21	0.404
26.229	20.273	0.406
26.424	20.349	0.407
26.508	20.404	0.408
26.619	20.447	0.409
26.813	20.524	0.411
26.984	20.626	0.413
27.003	20.612	0.412
27.196	20.711	0.414
27.388	20.808	0.416
27.531	20.881	0.418
27.582	20.902	0.418
27.776	20.989	0.42
27.977	20.922	0.418
27.992	20.943	0.419
28.178	20.756	0.415
28.343	20.707	0.414
28.527	20.722	0.414
28.551	20.742	0.415
28.684	20.781	0.416
28.75	20.762	0.415
28.953	20.815	0.416
29.048	20.85	0.417
29.121	20.857	0.417
29.327	20.931	0.419
29.51	21.045	0.421
29.53	20.991	0.42
29.717	21.069	0.421
29.912	21.112	0.422
30.057	21.18	0.424
30.105	21.203	0.424
30.3	21.267	0.425
30.505	21.352	0.427
30.522	21.344	0.427
30.695	21.429	0.429
30.89	21.496	0.43
31.053	21.583	0.432
31.544	21.77	0.435
31.862	21.931	0.439
32.062	22.017	0.44
32.55	22.215	0.444
33.059	22.475	0.45
33.599	22.746	0.455
34.074	22.983	0.46
35.388	23.862	0.477
39.295	26.229	0.525
43.618	29.287	0.586
48.436	33.237	0.665
53.804	37.9	0.758
59.704	43.406	0.868
66.328	49.513	0.99
73.671	56.224	1.125
81.815	63.974	1.28
90.848	72.468	1.449
100.84	81.096	1.622
110.99	89.548	1.791
120.88	97.619	1.952
131.05	105.42	2.11
141.03	112.91	2.26
151.17	119.77	2.4
161.25	126.73	2.53
171.3	133.11	2.66
181.45	139.41	2.79
191.55	145.2	2.9
201.65	151.21	3.02
211.78	157.08	3.14
221.88	161.91	3.24
232.02	167.23	3.34
242.09	171.91	3.44
252.14	177.54	3.55
262.21	182.5	3.65
272.36	187.75	3.76
282.44	193.26	3.87
292.45	194.84	3.9
302.52	200.88	4.02

System: iron(II) pyrophosphate; phases: Crystal 2
Fixed: Pressure, kPa = 101.325
Property: Molar heat capacity at constant pressure, J/K/mol (Crystal 2); method: Quantum Design PPMS relaxation calorimeter
Temperature, K	Molar heat capacity at constant pressure, J/K/mol	uncertainty
1	0.08666	0.00908
2	0.19155	0.0197
3	0.33634	0.0345
4	0.55465	0.05685
5	0.89107	0.09128
6	1.4019	0.1435
7	2.1396	0.2189
8	3.1046	0.3174
9	4.3526	0.4448
10	5.8703	0.1446
11	7.59	0.1856
12	9.4031	0.2286
13	11.222	0.272
14	13.1	0.317
15	15.157	0.366
16	17.475	0.422
17	20.046	0.484
18	22.462	0.541
18.96	23.943	0.575

System: iron(II) pyrophosphate; phases: Crystal 2
Fixed: Pressure, kPa = 101.325
Property: Molar entropy, J/K/mol (Crystal 2); method: Quantum Design PPMS relaxation calorimeter
Temperature, K	Molar entropy, J/K/mol	uncertainty
1	0.08421	0.01301
2	0.17491	0.02683
3	0.27814	0.04262
4	0.40255	0.06165
5	0.55981	0.08573
6	0.76392	0.11698
7	1.0332	0.1582
8	1.3789	0.2111
9	1.8138	0.2777
10	2.3488	0.0854
11	2.9877	0.1084
12	3.7256	0.135
13	4.5501	0.1647
14	5.4497	0.1971
15	6.4223	0.2321
16	7.473	0.2699
17	8.6087	0.3108
18	9.8257	0.3546

System: iron(II) pyrophosphate; phases: Crystal 2
Fixed: Pressure, kPa = 101.325
Property: Molar enthalpy, kJ/mol (Crystal 2); method: Quantum Design PPMS relaxation calorimeter
Temperature, K	Molar enthalpy, kJ/mol	uncertainty
1	4.257e-05	5.13e-06
2	0.00017938	1.872e-05
3	0.00043881	4.53e-05
4	0.00087644	9.013e-05
5	0.0015874	0.000163
6	0.0027148	0.0002784
7	0.0044711	0.0004581
8	0.0070706	0.000724
9	0.010775	0.001103
10	0.015867	0.000399
11	0.022584	0.000563
12	0.031077	0.000769
13	0.04139	0.001018
14	0.053541	0.001312
15	0.06765	0.001652
16	0.083942	0.002045
17	0.10269	0.0025
18	0.12399	0.00301

System: iron(II) pyrophosphate; phases: Crystal 1
Fixed: Pressure, kPa = 101.325
Property: Molar heat capacity at constant pressure, J/K/mol (Crystal 1); method: Quantum Design PPMS relaxation calorimeter
Temperature, K	Molar heat capacity at constant pressure, J/K/mol	uncertainty
18.96	23.943	0.575
19	23.611	0.567
20	22.761	0.547
25	19.877	0.477
30	21.15	0.508
35	23.579	0.566
40	26.793	0.643
45	30.479	0.732
50	34.531	0.829
55	38.877	0.933
60	43.446	1.043
65	48.166	1.156
70	52.964	1.165
75	57.771	1.271
80	62.513	1.375
85	67.27	1.48
90	72.124	1.587
95	76.734	1.688
100	81.129	1.785
110	89.391	1.967
120	97.125	2.137
130	104.5	2.3
140	111.61	2.46
150	118.53	2.61
160	125.27	2.76
170	131.84	2.9
180	138.23	3.04
190	144.41	3.18
200	150.38	3.31
210	156.13	3.43
220	161.63	3.56
230	166.89	3.67
240	171.91	3.78
250	176.68	3.89
260	181.21	3.99
270	185.5	4.08
273.15	186.8	4.11
280	189.56	4.17
290	193.4	4.25
298.15	196.38	4.32
300	197.04	4.33

System: iron(II) pyrophosphate; phases: Crystal 1
Fixed: Pressure, kPa = 101.325
Property: Molar entropy, J/K/mol (Crystal 1); method: Quantum Design PPMS relaxation calorimeter
Temperature, K	Molar entropy, J/K/mol	uncertainty
19	11.08	0.4
20	12.276	0.443
25	16.824	0.606
30	20.578	0.741
35	24.004	0.864
40	27.357	0.985
45	30.721	1.106
50	34.14	1.229
55	37.632	1.355
60	41.21	1.484
65	44.873	1.615
70	48.618	1.604
75	52.436	1.73
80	56.316	1.858
85	60.247	1.988
90	64.23	2.12
95	68.254	2.252
100	72.303	2.386
110	80.428	2.654
120	88.541	2.922
130	96.608	3.188
140	104.61	3.45
150	112.55	3.71
160	120.42	3.97
170	128.21	4.23
180	135.93	4.49
190	143.57	4.74
200	151.13	4.99
210	158.6	5.23
220	165.99	5.48
230	173.3	5.72
240	180.51	5.96
250	187.62	6.19
260	194.64	6.42
270	201.56	6.65
273.15	203.72	6.72
280	208.38	6.88
290	215.1	7.1
298.15	220.5	7.28
300	221.72	7.32

System: iron(II) pyrophosphate; phases: Crystal 1
Fixed: Pressure, kPa = 101.325
Property: Molar enthalpy, kJ/mol (Crystal 1); method: Quantum Design PPMS relaxation calorimeter
Temperature, K	Molar enthalpy, kJ/mol	uncertainty
19	0.14719	0.00356
20	0.17052	0.00412
25	0.27217	0.00654
30	0.3752	0.00901
35	0.48648	0.01169
40	0.6122	0.0147
45	0.75522	0.01814
50	0.9176	0.02203
55	1.101	0.0264
60	1.3067	0.0314
65	1.5357	0.0369
70	1.7885	0.0394
75	2.0654	0.0455
80	2.3661	0.0521
85	2.6904	0.0592
90	3.039	0.0669
95	3.4112	0.0751
100	3.806	0.0837
110	4.6591	0.1025
120	5.592	0.123
130	6.6004	0.1452
140	7.6811	0.169
150	8.832	0.1943
160	10.051	0.221
170	11.337	0.249
180	12.687	0.279
190	14.101	0.31
200	15.575	0.343
210	17.108	0.376
220	18.697	0.411
230	20.339	0.447
240	22.034	0.485
250	23.777	0.523
260	25.566	0.562
270	27.4	0.6
273.15	27.986	0.616
280	29.275	0.644
290	31.191	0.686
298.15	32.779	0.721
300	33.143	0.729
