Measured thermophysical data. Diffusion of cadmium chloride in aqueous solutions at physiological temperature 310.15 K
Source: J. Chem. Thermodyn., 2013, 10.1016/j.jct.2012.09.011
Compound 1: cadmium chloride, CdCl2, InChI=1S/Cd.2ClH/h;2*1H/q+2;;/p-2, purity 97%
Compound 2: water, H2O, InChI=1S/H2O/h1H2

System: water + cadmium chloride; phases: Liquid
Fixed: Pressure, kPa = 101
Fixed: Temperature, K = 310.15
Property: Binary diffusion coefficient, m2/s (Liquid); method: Taylor dispersion method
Amount concentration (molarity), mol/dm3 of cadmium chloride	Binary diffusion coefficient, m2/s	uncertainty
0	1.386e-09	0.069
0.001	1.34e-09	0.099
0.003	1.32e-09	0.069
0.005	1.284e-09	0.114
0.008	1.279e-09	0.06
0.01	1.275e-09	0.054
0.05	1.198e-09	0.04
0.1	1.197e-09	0.051
0.4	1.263e-09	0.04
