Measured thermophysical data. Heat capacities, third-law entropies and thermodynamic functions of the negative thermal expansion material Zn2GeO4 from T=(0 to 400) K
Source: J. Chem. Thermodyn., 2004, 10.1016/j.jct.2003.12.010
Compound 1: Zn2GeO4, GeO4Zn2, InChI=1S/Ge.4O.2Zn/q+4;4*-2;2*+2

System: Zn2GeO4; phases: Crystal
Fixed: Pressure, kPa = 101.325
Property: Molar heat capacity at constant pressure, J/K/mol (Crystal); method: Vacuum adiabatic calorimetry
Temperature, K	Molar heat capacity at constant pressure, J/K/mol	uncertainty
28.73	7.706	0.041
30.07	8.614	0.059
32.59	10.41	0.063
35.39	12.553	0.067
38.36	14.868	0.071
41.41	17.284	0.076
42.91	18.509	0.079
44.5	19.843	0.081
46.01	21.124	0.084
49.18	23.805	0.089
52.4	26.461	0.094
54.92	28.502	0.098
57.33	30.463	0.102
59.99	32.759	0.107
62.9	35.17	0.112
66.04	37.675	0.116
69.44	40.24	0.121
72.45	42.665	0.127
72.85	43.052	0.128
77.22	46.255	0.133
82.05	49.667	0.14
86.91	52.897	0.146
91.81	56.201	0.257
96.74	59.317	0.26
101.7	62.332	0.263
106.69	65.196	0.265
111.69	68.038	0.268
116.71	70.739	0.271
121.75	73.338	0.274
126.79	75.889	0.276
131.86	78.356	0.279
136.16	80.333	0.281
136.93	80.766	0.281
140.98	82.536	0.283
142.01	83.051	0.283
146.07	84.803	0.285
147.1	85.367	0.285
151.17	87.042	0.287
152.19	87.582	0.288
156.27	89.243	0.289
161.37	91.338	0.291
166.49	93.443	0.294
171.61	95.479	0.296
176.73	97.457	0.298
181.85	99.353	0.299
186.98	101.24	0.3
192.12	103.06	0.3
194.58	103.87	0.3
197.25	104.8	0.3
199.1	105.59	0.31
202.39	106.51	0.31
204.84	107.27	0.31
207.54	108.14	0.31
209.99	108.92	0.31
212.44	109.68	0.31
215.13	110.51	0.31
217.31	111.19	0.31
220.28	112.14	0.31
222.26	112.76	0.31
225.43	113.73	0.31
227.2	114.19	0.31
230.58	115.22	0.32
232.15	115.6	0.32
235.73	116.65	0.32
237.1	117.03	0.32
240.88	118.11	0.32
242.05	118.46	0.32
246.04	119.49	0.32
247.01	119.72	0.32
251.2	120.81	0.32
251.97	120.96	0.32
256.36	122.21	0.32
256.92	122.29	0.32
261.52	123.6	0.32
261.88	123.65	0.32
266.68	124.95	0.33
266.84	124.94	0.33
271.8	126.03	0.33
271.85	126.1	0.33
276.76	127.07	0.33
277.01	127.21	0.33
281.72	128.25	0.33
282.18	128.4	0.33
286.68	129.32	0.33
287.35	129.55	0.33
291.64	130.54	0.33
292.52	130.67	0.33
296.61	131.6	0.33
297.68	131.75	0.33
301.57	132.6	0.33
302.85	132.91	0.33
305.4	133.19	0.33
306.55	133.59	0.33
308.03	133.87	0.33
310.58	134.21	0.33
313.2	134.82	0.33
315.75	135.23	0.34
320.93	136.21	0.34
326.1	137.24	0.34
331.28	138.09	0.34
336.46	139.02	0.34
341.63	139.87	0.34
346.82	140.67	0.34
352	141.48	0.34
354.35	141.91	0.34
357.18	142.29	0.34
359.52	142.79	0.34
362.35	143.03	0.34
364.71	143.51	0.34
369.89	144.4	0.34
375.07	145.21	0.35
380.25	145.67	0.35
385.42	146.44	0.35
390.61	147.03	0.35
395.79	147.77	0.35

System: Zn2GeO4; phases: Crystal
Fixed: Pressure, kPa = 101.325
Property: Molar heat capacity at constant pressure, J/K/mol (Crystal); method: Vacuum adiabatic calorimetry
Temperature, K	Molar heat capacity at constant pressure, J/K/mol	uncertainty
5	0.03907	0.01042
10	0.34429	0.0129
15	1.2112	0.0188
20	2.9003	0.0275
25	5.4243	0.0363
30	8.5906	0.059
35	12.241	0.067
40	16.153	0.074
45	20.239	0.082
50	24.417	0.0906
60	32.767	0.1064
70	40.771	0.1222
80	48.214	0.1372
90	55.046	0.2553
100	61.306	0.2619
110	67.072	0.2669
120	72.424	0.2727
130	77.431	0.2777
140	82.143	0.2827
150	86.596	0.283
160	90.819	0.291
170	94.835	0.291
180	98.643	0.299
190	102.26	0.299
200	105.69	0.308
210	108.96	0.308
220	112.06	0.316
230	115.01	0.316
240	117.84	0.316
250	120.54	0.324
260	123.13	0.324
270	125.59	0.324
273.15	126.35	0.324
280	127.94	0.324
290	130.15	0.333
298.15	131.86	0.333
300	132.23	0.333
310	134.2	0.333
320	136.07	0.333
330	137.84	0.341
340	139.55	0.341
350	141.21	0.341
360	142.81	0.341
370	144.32	0.341
380	145.71	0.349
390	147.02	0.349
400	148.28	0.349

System: Zn2GeO4; phases: Crystal
Fixed: Pressure, kPa = 101.325
Property: Molar enthalpy function {Hm(T)-Hm(0)}/T, J/K/mol (Crystal); method: Vacuum adiabatic calorimetry
Temperature, K	Molar enthalpy function {Hm(T)-Hm(0)}/T, J/K/mol	uncertainty
5	0.0096897	0.01009
10	0.083403	0.01067
15	0.29493	0.01204
20	0.71679	0.01418
25	1.3932	0.0165
30	2.3215	0.0448
35	3.4735	0.0472
40	4.8118	0.05
45	6.2977	0.053
50	7.9003	0.0562
60	11.351	0.063
70	14.988	0.071
80	18.683	0.077
90	22.349	0.2228
100	25.936	0.2262
110	29.418	0.2295
120	32.781	0.2328
130	36.025	0.2361
140	39.152	0.2395
150	42.168	0.242
160	45.078	0.2453
170	47.888	0.2478
180	50.603	0.2503
190	53.227	0.2536
200	55.765	0.2561
210	58.222	0.2586
220	60.599	0.2602
230	62.901	0.2627
240	65.132	0.2652
250	67.295	0.2677
260	69.393	0.2694
270	71.429	0.2711
273.15	72.058	0.2719
280	73.405	0.2735
290	75.324	0.2752
298.15	76.847	0.2769
300	77.187	0.2769
310	78.995	0.2794
320	80.75	0.281
330	82.453	0.2827
340	84.11	0.283
350	85.714	0.283
360	87.277	0.291
370	88.799	0.291
380	90.279	0.291
390	91.717	0.291
400	93.114	0.291

System: Zn2GeO4; phases: Crystal
Fixed: Pressure, kPa = 101.325
Property: Molar entropy, J/K/mol (Crystal); method: Vacuum adiabatic calorimetry
Temperature, K	Molar entropy, J/K/mol	uncertainty
5	0.01318	0.01518
10	0.11052	0.01631
15	0.39	0.01899
20	0.94869	0.0231
25	1.8528	0.0279
30	3.1136	0.0696
35	4.7073	0.0744
40	6.5949	0.0802
45	8.7319	0.0865
50	11.08	0.094
60	16.272	0.1098
70	21.931	0.1264
80	27.868	0.1438
90	33.947	0.3509
100	40.075	0.36
110	46.193	0.3692
120	52.261	0.3783
130	58.257	0.3875
140	64.17	0.3966
150	69.991	0.4049
160	75.715	0.4141
170	81.343	0.4224
180	86.87	0.432
190	92.299	0.441
200	97.637	0.449
210	102.88	0.457
220	108.01	0.466
230	113.06	0.466
240	118.02	0.474
250	122.88	0.482
260	127.66	0.491
270	132.35	0.499
273.15	133.81	0.499
280	136.96	0.507
290	141.5	0.515
298.15	145.12	0.515
300	145.94	0.515
310	150.31	0.524
320	154.6	0.532
330	158.82	0.54
340	162.96	0.54
350	167.02	0.549
360	171.02	0.557
370	174.95	0.565
380	178.83	0.565
390	182.63	0.574
400	186.37	0.582

System: Zn2GeO4; phases: Crystal
Fixed: Pressure, kPa = 101.325
Property: Molar heat capacity at constant pressure, J/K/mol (Crystal); method: OTHER
Temperature, K	Molar heat capacity at constant pressure, J/K/mol	uncertainty
0.573	0.0001694	3.388e-06
0.631	0.0001741	3.482e-06
0.697	0.0002137	4.274e-06
0.765	0.000261	5.22e-06
0.84	0.0003018	6.036e-06
0.925	0.0003676	7.352e-06
1.016	0.0004561	9.122e-06
1.117	0.0005752	1.15e-05
1.228	0.0006888	1.378e-05
1.35	0.0008506	1.701e-05
1.484	0.0010897	2.179e-05
1.632	0.0014345	2.869e-05
1.69	0.0015933	3.187e-05
1.731	0.001733	3.466e-05
1.772	0.0018214	3.643e-05
1.795	0.0018912	3.782e-05
1.815	0.0019876	3.975e-05
1.857	0.0020847	4.169e-05
1.904	0.0022832	4.566e-05
1.949	0.0023938	4.788e-05
1.975	0.0024805	4.961e-05
1.995	0.0025602	5.12e-05
2.046	0.0027377	5.475e-05
2.094	0.0029236	5.847e-05
2.145	0.003128	6.256e-05
2.2	0.0033582	6.716e-05
2.252	0.003589	7.178e-05
2.308	0.0038663	7.733e-05
2.362	0.0041401	8.28e-05
2.423	0.0044258	8.852e-05
2.478	0.0047306	9.461e-05
2.538	0.0050766	0.0001015
2.596	0.0054322	0.0001086
2.664	0.0058304	0.0001166
2.724	0.0062302	0.0001246
2.791	0.0066809	0.0001336
2.859	0.0071776	0.0001436
2.926	0.0076842	0.0001537
3	0.0082626	0.0001653
3.07	0.0088519	0.000177
3.145	0.0095184	0.0001904
3.223	0.010223	0.0002045
3.305	0.011002	0.00022
3.38	0.011806	0.0002361
3.465	0.01269	0.0002538
3.549	0.013696	0.0002739
3.719	0.01577	0.0003154
3.909	0.018309	0.0003662
4.089	0.021057	0.0004211
4.292	0.024343	0.0004869
4.499	0.028111	0.0005622
4.723	0.032662	0.0006532
4.95	0.037913	0.0007583
5.197	0.044072	0.0008814
5.444	0.050995	0.00102
5.718	0.059457	0.001189
5.989	0.068806	0.001376
6.292	0.080208	0.001604
6.591	0.092768	0.001855
6.921	0.10848	0.00217
7.252	0.12592	0.002518
7.617	0.14684	0.002937
7.977	0.17003	0.003401
8.383	0.19873	0.003975
8.761	0.22829	0.004566
8.78	0.23004	0.004601
9.206	0.26404	0.005281
9.219	0.26743	0.005349
9.654	0.30951	0.00619
9.66	0.30905	0.006181
10.13	0.3563	0.007126
10.136	0.35885	0.007177
10.609	0.41361	0.008272
10.627	0.41709	0.008342
11.143	0.47996	0.009599
11.672	0.55977	0.0111954
12.253	0.64525	0.012905
12.833	0.75034	0.0150068
13.471	0.86407	0.0172814
14.107	1.0051	0.010051
14.809	1.1588	0.011588
15.55	1.3583	0.013583
16.279	1.5538	0.015538
17.045	1.8003	0.018003
17.895	2.077	0.02077
18.703	2.3868	0.023868
19.704	2.7739	0.027739
20.066	2.9141	0.029141
20.593	3.1676	0.031676
21.192	3.4302	0.034302
21.604	3.6251	0.036251
22.271	3.9524	0.039524
22.621	4.1462	0.041462
23.449	4.5437	0.045437
23.703	4.6997	0.046997
24.625	5.1969	0.051969
24.849	5.3544	0.053544
25.656	5.7944	0.0231776
26.078	6.0601	0.0242404
26.871	6.554	0.026216
27.286	6.8156	0.0272624
28.211	7.4087	0.0296348
28.642	7.6781	0.0307124
29.548	8.3137	0.0332548
29.966	8.5662	0.0342648
31.016	9.3101	0.0372404
31.467	9.611	0.038444
32.485	10.386	0.041544
34.094	11.568	0.046272
35.739	12.825	0.0513
37.481	14.14	0.05656
39.271	15.56	0.06224
41.408	17.234	0.034468
43.39	18.883	0.037766
