Measured thermophysical data. Excess properties of the binary mixtures of methylcyclohexane + alkanes (C6 to C12) at T = 298.15 K to T = 308.15 K
Source: J. Chem. Thermodyn., 2006, 10.1016/j.jct.2005.03.024
Compound 1: methylcyclohexane, C7H14, InChI=1S/C7H14/c1-7-5-3-2-4-6-7/h7H,2-6H2,1H3
Compound 2: hexane, C6H14, InChI=1S/C6H14/c1-3-5-6-4-2/h3-6H2,1-2H3
Compound 3: heptane, C7H16, InChI=1S/C7H16/c1-3-5-7-6-4-2/h3-7H2,1-2H3
Compound 4: octane, C8H18, InChI=1S/C8H18/c1-3-5-7-8-6-4-2/h3-8H2,1-2H3
Compound 5: nonane, C9H20, InChI=1S/C9H20/c1-3-5-7-9-8-6-4-2/h3-9H2,1-2H3
Compound 6: decane, C10H22, InChI=1S/C10H22/c1-3-5-7-9-10-8-6-4-2/h3-10H2,1-2H3
Compound 7: dodecane, C12H26, InChI=1S/C12H26/c1-3-5-7-9-11-12-10-8-6-4-2/h3-12H2,1-2H3
Compound 8: 2,2,4-trimethylpentane, C8H18, InChI=1S/C8H18/c1-7(2)6-8(3,4)5/h7H,6H2,1-5H3

System: methylcyclohexane; phases: Liquid
Fixed: Pressure, kPa = 101.325
Property: Refractive index (Na D-line) (Liquid); method: ABBE:UFactor:2
Temperature, K	Refractive index (Na D-line)	uncertainty
298.15	1.4217	0.001
303.15	1.4192	0.001
308.15	1.4163	0.001

System: methylcyclohexane; phases: Liquid
Fixed: Pressure, kPa = 101
Property: Viscosity, Pa*s (Liquid); method: CAPTUB:UFactor:2
Temperature, K	Viscosity, Pa*s	uncertainty
298.15	0.000676	1.2e-05
303.15	0.000631	1.1e-05
308.15	0.00059	1.1e-05

System: methylcyclohexane; phases: Liquid
Property: Speed of sound, m/s (Liquid); method: LVPAI:UFactor:2
Pressure, kPa	Temperature, K	Speed of sound, m/s	uncertainty
101.3	298.15	1217	4

System: methylcyclohexane; phases: Liquid
Fixed: Pressure, kPa = 101
Property: Mass density, kg/m3 (Liquid); method: VIBTUB:UFactor:4
Temperature, K	Mass density, kg/m3	uncertainty
298.15	765	0.7
303.15	760.7	0.8
308.15	756.3	0.8

System: hexane; phases: Liquid
Fixed: Pressure, kPa = 101.325
Property: Refractive index (Na D-line) (Liquid); method: ABBE::UFactor:2
Temperature, K	Refractive index (Na D-line)	uncertainty
298.15	1.3736	0.001
303.15	1.3707	0.001
308.15	1.3676	0.001

System: hexane; phases: Liquid
Fixed: Pressure, kPa = 101
Property: Viscosity, Pa*s (Liquid); method: CAPTUB::UFactor:2
Temperature, K	Viscosity, Pa*s	uncertainty
298.15	0.000308	7e-06
303.15	0.000294	6e-06
308.15	0.000281	6e-06

System: hexane; phases: Liquid
Property: Speed of sound, m/s (Liquid); method: LVPAI:UFactor:2
Pressure, kPa	Temperature, K	Speed of sound, m/s	uncertainty
101.3	298.15	1080	3

System: hexane; phases: Liquid
Fixed: Pressure, kPa = 101
Property: Mass density, kg/m3 (Liquid); method: VIBTUB::UFactor:4
Temperature, K	Mass density, kg/m3	uncertainty
298.15	654.9	0.9
303.15	650.4	0.9
308.15	645.7	0.9

System: heptane; phases: Liquid
Fixed: Pressure, kPa = 101.325
Property: Refractive index (Na D-line) (Liquid); method: ABBE::UFactor:2
Temperature, K	Refractive index (Na D-line)	uncertainty
298.15	1.386	0.0009
303.15	1.3836	0.001
308.15	1.381	0.001

System: heptane; phases: Liquid
Fixed: Pressure, kPa = 101
Property: Viscosity, Pa*s (Liquid); method: CAPTUB::UFactor:2
Temperature, K	Viscosity, Pa*s	uncertainty
298.15	0.000396	8e-06
303.15	0.000375	7e-06
308.15	0.000356	7e-06

System: heptane; phases: Liquid
Property: Speed of sound, m/s (Liquid); method: LVPAI::UFactor:2
Pressure, kPa	Temperature, K	Speed of sound, m/s	uncertainty
101.3	298.15	1140	3

System: heptane; phases: Liquid
Fixed: Pressure, kPa = 101
Property: Mass density, kg/m3 (Liquid); method: VIBTUB::UFactor:4
Temperature, K	Mass density, kg/m3	uncertainty
298.15	679.7	0.8
303.15	675.4	0.8
308.15	671.1	0.8

System: octane; phases: Liquid
Fixed: Pressure, kPa = 101.325
Property: Refractive index (Na D-line) (Liquid); method: ABBE::UFactor:2
Temperature, K	Refractive index (Na D-line)	uncertainty
298.15	1.3947	0.001
303.15	1.3916	0.001
308.15	1.3888	0.001

System: octane; phases: Liquid
Fixed: Pressure, kPa = 101
Property: Viscosity, Pa*s (Liquid); method: CAPTUB::UFactor:2
Temperature, K	Viscosity, Pa*s	uncertainty
298.15	0.000514	9e-06
303.15	0.000482	9e-06
308.15	0.000456	8e-06

System: octane; phases: Liquid
Property: Speed of sound, m/s (Liquid); method: LVPAI::UFactor:2
Pressure, kPa	Temperature, K	Speed of sound, m/s	uncertainty
101.3	298.15	1172	3

System: octane; phases: Liquid
Fixed: Pressure, kPa = 101
Property: Mass density, kg/m3 (Liquid); method: VIBTUB::UFactor:4
Temperature, K	Mass density, kg/m3	uncertainty
298.15	698.6	0.8
303.15	694.6	0.8
308.15	690.5	0.8

System: nonane; phases: Liquid
Fixed: Pressure, kPa = 101.325
Property: Refractive index (Na D-line) (Liquid); method: ABBE::UFactor:2
Temperature, K	Refractive index (Na D-line)	uncertainty
298.15	1.4021	0.001
303.15	1.3998	0.001
308.15	1.3973	0.001

System: nonane; phases: Liquid
Fixed: Pressure, kPa = 101
Property: Viscosity, Pa*s (Liquid); method: CAPTUB::UFactor:2
Temperature, K	Viscosity, Pa*s	uncertainty
298.15	0.000668	1.3e-05
303.15	0.000623	1.2e-05
308.15	0.000588	1.2e-05

System: nonane; phases: Liquid
Property: Speed of sound, m/s (Liquid); method: LVPAI::UFactor:2
Pressure, kPa	Temperature, K	Speed of sound, m/s	uncertainty
101.3	298.15	1208	4

System: nonane; phases: Liquid
Fixed: Pressure, kPa = 101
Property: Mass density, kg/m3 (Liquid); method: VIBTUB::UFactor:4
Temperature, K	Mass density, kg/m3	uncertainty
298.15	714.8	1
303.15	710.9	1
308.15	707	1

System: decane; phases: Liquid
Fixed: Pressure, kPa = 101.325
Property: Refractive index (Na D-line) (Liquid); method: ABBE::UFactor:2
Temperature, K	Refractive index (Na D-line)	uncertainty
298.15	1.4108	0.0009
303.15	1.4085	0.0009
308.15	1.4062	0.0009

System: decane; phases: Liquid
Fixed: Pressure, kPa = 101
Property: Viscosity, Pa*s (Liquid); method: CAPTUB::UFactor:2
Temperature, K	Viscosity, Pa*s	uncertainty
298.15	0.000861	1.5e-05
303.15	0.000803	1.4e-05
308.15	0.000747	1.3e-05

System: decane; phases: Liquid
Property: Speed of sound, m/s (Liquid); method: LVPAI::UFactor:2
Pressure, kPa	Temperature, K	Speed of sound, m/s	uncertainty
101.3	298.15	1266	4

System: decane; phases: Liquid
Fixed: Pressure, kPa = 101
Property: Mass density, kg/m3 (Liquid); method: VIBTUB::UFactor:4
Temperature, K	Mass density, kg/m3	uncertainty
298.15	726.6	0.8
303.15	722.9	0.8
308.15	719.1	0.8

System: dodecane; phases: Liquid
Fixed: Pressure, kPa = 101.325
Property: Refractive index (Na D-line) (Liquid); method: ABBE::UFactor:2
Temperature, K	Refractive index (Na D-line)	uncertainty
298.15	1.4186	0.0009
303.15	1.4164	0.0009
308.15	1.414	0.001

System: dodecane; phases: Liquid
Fixed: Pressure, kPa = 101
Property: Viscosity, Pa*s (Liquid); method: CAPTUB::UFactor:2
Temperature, K	Viscosity, Pa*s	uncertainty
298.15	0.001378	2.3e-05
303.15	0.001252	2.1e-05
308.15	0.001155	1.9e-05

System: dodecane; phases: Liquid
Property: Speed of sound, m/s (Liquid); method: LVPAI::UFactor:2
Pressure, kPa	Temperature, K	Speed of sound, m/s	uncertainty
101.3	298.15	1284	4

System: dodecane; phases: Liquid
Fixed: Pressure, kPa = 101
Property: Mass density, kg/m3 (Liquid); method: VIBTUB::UFactor:4
Temperature, K	Mass density, kg/m3	uncertainty
298.15	746.3	0.8
303.15	742.7	0.8
308.15	739	0.8

System: 2,2,4-trimethylpentane; phases: Liquid
Fixed: Pressure, kPa = 101.325
Property: Refractive index (Na D-line) (Liquid); method: ABBE::UFactor:2
Temperature, K	Refractive index (Na D-line)	uncertainty
298.15	1.388	0.001
303.15	1.3852	0.001
308.15	1.3824	0.001

System: 2,2,4-trimethylpentane; phases: Liquid
Fixed: Pressure, kPa = 101
Property: Viscosity, Pa*s (Liquid); method: CAPTUB::UFactor:2
Temperature, K	Viscosity, Pa*s	uncertainty
298.15	0.00048	9e-06
303.15	0.000453	9e-06
308.15	0.000427	8e-06

System: 2,2,4-trimethylpentane; phases: Liquid
Property: Speed of sound, m/s (Liquid); method: LVPAI:UFactor:2
Pressure, kPa	Temperature, K	Speed of sound, m/s	uncertainty
101.3	298.15	1075	3

System: 2,2,4-trimethylpentane; phases: Liquid
Fixed: Pressure, kPa = 101
Property: Mass density, kg/m3 (Liquid); method: VIBTUB::UFactor:4
Temperature, K	Mass density, kg/m3	uncertainty
298.15	687.8	0.9
303.15	683.7	0.9
308.15	679.5	0.9

System: methylcyclohexane + hexane; phases: Liquid
Fixed: Pressure, kPa = 101
Fixed: Temperature, K = 298.15
Property: Speed of sound, m/s (Liquid); method: LVPAI:UFactor:2
Mole fraction of methylcyclohexane	Speed of sound, m/s	uncertainty
0	1080	3
0.1042	1094	3
0.2026	1107	3
0.301	1121	3
0.4018	1135	3
0.5026	1149	4
0.6024	1162	4
0.7021	1176	4
0.8016	1190	4
0.9011	1203	4
1	1217	4

System: methylcyclohexane + hexane; phases: Liquid
Fixed: Pressure, kPa = 101
Property: Viscosity, Pa*s (Liquid); method: CAPTUB:UFactor:2
Temperature, K	Mole fraction of methylcyclohexane	Viscosity, Pa*s	uncertainty
298.15	0	0.000308	7e-06
298.15	0.1042	0.000334	7e-06
298.15	0.2026	0.000359	7e-06
298.15	0.301	0.000373	8e-06
298.15	0.4018	0.000401	8e-06
298.15	0.5026	0.000433	8e-06
298.15	0.6024	0.000473	9e-06
298.15	0.7021	0.000517	1e-05
298.15	0.8016	0.000573	1e-05
298.15	0.9011	0.000624	1.1e-05
298.15	1	0.000676	1.2e-05
303.15	0	0.000294	6e-06
303.15	0.1042	0.000318	7e-06
303.15	0.2026	0.000341	7e-06
303.15	0.301	0.000354	7e-06
303.15	0.4018	0.000378	8e-06
303.15	0.5026	0.00041	8e-06
303.15	0.6024	0.000446	9e-06
303.15	0.7021	0.000487	9e-06
303.15	0.8016	0.000539	1e-05
303.15	0.9011	0.000585	1.1e-05
303.15	1	0.000631	1.1e-05
308.15	0	0.000281	6e-06
308.15	0.1042	0.000301	6e-06
308.15	0.2026	0.000323	7e-06
308.15	0.301	0.000335	7e-06
308.15	0.4018	0.000359	7e-06
308.15	0.5026	0.000387	8e-06
308.15	0.6024	0.00042	8e-06
308.15	0.7021	0.000457	9e-06
308.15	0.8016	0.000504	1e-05
308.15	0.9011	0.000545	1e-05
308.15	1	0.00059	1.1e-05

System: methylcyclohexane + hexane; phases: Liquid
Fixed: Pressure, kPa = 101
Property: Refractive index (Na D-line) (Liquid); method: ABBE:UFactor:2
Temperature, K	Mole fraction of methylcyclohexane	Refractive index (Na D-line)	uncertainty
298.15	0	1.3736	0.001
298.15	0.1042	1.3789	0.001
298.15	0.2026	1.3838	0.001
298.15	0.301	1.3887	0.001
298.15	0.4018	1.3936	0.001
298.15	0.5026	1.3984	0.001
298.15	0.6024	1.4032	0.001
298.15	0.7021	1.4079	0.001
298.15	0.8016	1.4126	0.001
298.15	0.9011	1.4172	0.001
298.15	1	1.4217	0.001
303.15	0	1.3707	0.001
303.15	0.1042	1.3761	0.001
303.15	0.2026	1.3811	0.001
303.15	0.301	1.386	0.001
303.15	0.4018	1.391	0.001
303.15	0.5026	1.3959	0.001
303.15	0.6024	1.4007	0.001
303.15	0.7021	1.4055	0.001
303.15	0.8016	1.4102	0.001
303.15	0.9011	1.4147	0.001
303.15	1	1.4192	0.001
308.15	0	1.3676	0.001
308.15	0.1042	1.3733	0.001
308.15	0.2026	1.3784	0.001
308.15	0.301	1.3833	0.001
308.15	0.4018	1.3884	0.001
308.15	0.5026	1.3933	0.001
308.15	0.6024	1.3982	0.001
308.15	0.7021	1.4029	0.001
308.15	0.8016	1.4077	0.001
308.15	0.9011	1.4122	0.001
308.15	1	1.4163	0.001

System: methylcyclohexane + hexane; phases: Liquid
Fixed: Pressure, kPa = 101
Property: Mass density, kg/m3 (Liquid); method: VIBTUB:UFactor:4
Temperature, K	Mole fraction of methylcyclohexane	Mass density, kg/m3	uncertainty
298.15	0	654.9	0.9
298.15	0.1042	666.5	0.9
298.15	0.2026	677.4	0.9
298.15	0.301	688.4	0.9
298.15	0.4018	699.5	0.8
298.15	0.5026	710.7	0.8
298.15	0.6024	721.6	0.8
298.15	0.7021	732.5	0.8
298.15	0.8016	743.3	0.8
298.15	0.9011	754.1	0.8
298.15	1	765	0.7
303.15	0	650.4	0.9
303.15	0.1042	662	0.9
303.15	0.2026	672.9	0.9
303.15	0.301	683.9	0.9
303.15	0.4018	695.1	0.9
303.15	0.5026	706.3	0.8
303.15	0.6024	717.2	0.8
303.15	0.7021	728.1	0.8
303.15	0.8016	739	0.8
303.15	0.9011	749.8	0.8
303.15	1	760.7	0.8
308.15	0	645.7	0.9
308.15	0.1042	657.4	0.9
308.15	0.2026	668.4	0.9
308.15	0.301	679.4	0.9
308.15	0.4018	690.6	0.9
308.15	0.5026	701.8	0.8
308.15	0.6024	712.8	0.8
308.15	0.7021	723.7	0.8
308.15	0.8016	734.6	0.8
308.15	0.9011	745.4	0.8
308.15	1	756.3	0.8

System: methylcyclohexane + heptane; phases: Liquid
Fixed: Pressure, kPa = 101
Fixed: Temperature, K = 298.15
Property: Speed of sound, m/s (Liquid); method: LVPAI:UFactor:2
Mole fraction of methylcyclohexane	Speed of sound, m/s	uncertainty
0	1140	3
0.1021	1148	3
0.2033	1155	3
0.3044	1163	3
0.4036	1171	3
0.5029	1179	4
0.6033	1186	4
0.7038	1194	4
0.8022	1202	4
0.9006	1210	4
1	1217	4

System: methylcyclohexane + heptane; phases: Liquid
Fixed: Pressure, kPa = 101
Property: Viscosity, Pa*s (Liquid); method: CAPTUB:UFactor:2
Temperature, K	Mole fraction of methylcyclohexane	Viscosity, Pa*s	uncertainty
298.15	0	0.000396	8e-06
298.15	0.1021	0.000411	8e-06
298.15	0.2033	0.000432	8e-06
298.15	0.3044	0.000451	9e-06
298.15	0.4036	0.000473	9e-06
298.15	0.5029	0.000497	9e-06
298.15	0.6033	0.000526	1e-05
298.15	0.7038	0.000556	1e-05
298.15	0.8022	0.000591	1.1e-05
298.15	0.9006	0.000625	1.1e-05
298.15	1	0.000676	1.2e-05
303.15	0	0.000375	7e-06
303.15	0.1021	0.000391	8e-06
303.15	0.2033	0.00041	8e-06
303.15	0.3044	0.000427	8e-06
303.15	0.4036	0.000449	8e-06
303.15	0.5029	0.00047	9e-06
303.15	0.6033	0.000496	9e-06
303.15	0.7038	0.000524	1e-05
303.15	0.8022	0.000557	1e-05
303.15	0.9006	0.000589	1.1e-05
303.15	1	0.000631	1.1e-05
308.15	0	0.000356	7e-06
308.15	0.1021	0.000371	7e-06
308.15	0.2033	0.000389	8e-06
308.15	0.3044	0.000403	8e-06
308.15	0.4036	0.000422	8e-06
308.15	0.5029	0.000443	8e-06
308.15	0.6033	0.000467	9e-06
308.15	0.7038	0.000492	9e-06
308.15	0.8022	0.000522	1e-05
308.15	0.9006	0.000553	1e-05
308.15	1	0.00059	1.1e-05

System: methylcyclohexane + heptane; phases: Liquid
Fixed: Pressure, kPa = 101
Property: Refractive index (Na D-line) (Liquid); method: ABBE:UFactor:2
Temperature, K	Mole fraction of methylcyclohexane	Refractive index (Na D-line)	uncertainty
298.15	0	1.386	0.0009
298.15	0.1021	1.3895	0.001
298.15	0.2033	1.3928	0.001
298.15	0.3044	1.3963	0.001
298.15	0.4036	1.3997	0.001
298.15	0.5029	1.4032	0.001
298.15	0.6033	1.4068	0.001
298.15	0.7038	1.4105	0.001
298.15	0.8022	1.4141	0.001
298.15	0.9006	1.4178	0.001
298.15	1	1.4217	0.001
303.15	0	1.3836	0.001
303.15	0.1021	1.3869	0.001
303.15	0.2033	1.3902	0.001
303.15	0.3044	1.3936	0.001
303.15	0.4036	1.397	0.001
303.15	0.5029	1.4005	0.001
303.15	0.6033	1.404	0.001
303.15	0.7038	1.4078	0.001
303.15	0.8022	1.4114	0.001
303.15	0.9006	1.4151	0.001
303.15	1	1.4192	0.001
308.15	0	1.381	0.001
308.15	0.1021	1.3843	0.001
308.15	0.2033	1.3876	0.001
308.15	0.3044	1.3909	0.001
308.15	0.4036	1.3943	0.001
308.15	0.5029	1.3978	0.001
308.15	0.6033	1.4013	0.001
308.15	0.7038	1.405	0.001
308.15	0.8022	1.4086	0.001
308.15	0.9006	1.4124	0.001
308.15	1	1.4163	0.001

System: methylcyclohexane + heptane; phases: Liquid
Fixed: Pressure, kPa = 101
Property: Mass density, kg/m3 (Liquid); method: VIBTUB:UFactor:4
Temperature, K	Mole fraction of methylcyclohexane	Mass density, kg/m3	uncertainty
298.15	0	679.7	0.8
298.15	0.1021	683.4	0.8
298.15	0.2033	695.2	0.8
298.15	0.3044	703.3	0.8
298.15	0.4036	713.4	0.8
298.15	0.5029	719.7	0.8
298.15	0.6033	728.3	0.8
298.15	0.7038	737.2	0.8
298.15	0.8022	746.2	0.8
298.15	0.9006	755.4	0.8
298.15	1	765	0.7
303.15	0	675.4	0.8
303.15	0.1021	683.2	0.8
303.15	0.2033	691.1	0.8
303.15	0.3044	699	0.8
303.15	0.4036	707.1	0.8
303.15	0.5029	715.4	0.8
303.15	0.6033	724.1	0.8
303.15	0.7038	732.9	0.8
303.15	0.8022	741.9	0.8
303.15	0.9006	751.1	0.8
303.15	1	760.7	0.8
308.15	0	671.1	0.8
308.15	0.1021	678.9	0.8
308.15	0.2033	686.7	0.8
308.15	0.3044	694.7	0.8
308.15	0.4036	702.8	0.8
308.15	0.5029	711.1	0.8
308.15	0.6033	719.8	0.8
308.15	0.7038	728.6	0.8
308.15	0.8022	737.6	0.8
308.15	0.9006	746.7	0.8
308.15	1	756.3	0.8

System: methylcyclohexane + octane; phases: Liquid
Fixed: Pressure, kPa = 101
Fixed: Temperature, K = 298.15
Property: Speed of sound, m/s (Liquid); method: LVPAI:UFactor:2
Mole fraction of methylcyclohexane	Speed of sound, m/s	uncertainty
0	1172	3
0.1044	1176	3
0.2066	1181	3
0.3045	1185	3
0.4068	1190	4
0.5043	1195	4
0.6015	1199	4
0.7015	1204	4
0.8023	1208	4
0.8984	1213	4
1	1217	4

System: methylcyclohexane + octane; phases: Liquid
Fixed: Pressure, kPa = 101
Property: Viscosity, Pa*s (Liquid); method: CAPTUB:UFactor:2
Temperature, K	Mole fraction of methylcyclohexane	Viscosity, Pa*s	uncertainty
298.15	0	0.000514	9e-06
298.15	0.1044	0.000524	9e-06
298.15	0.2066	0.000535	1e-05
298.15	0.3045	0.000543	1e-05
298.15	0.4068	0.000557	1e-05
298.15	0.5043	0.00057	1e-05
298.15	0.6015	0.000586	1e-05
298.15	0.7015	0.000603	1.1e-05
298.15	0.8023	0.000624	1.1e-05
298.15	0.8984	0.000646	1.2e-05
298.15	1	0.000676	1.2e-05
303.15	0	0.000482	9e-06
303.15	0.1044	0.000496	9e-06
303.15	0.2066	0.000504	9e-06
303.15	0.3045	0.000512	9e-06
303.15	0.4068	0.000525	1e-05
303.15	0.5043	0.000537	1e-05
303.15	0.6015	0.000552	1e-05
303.15	0.7015	0.000567	1e-05
303.15	0.8023	0.000587	1.1e-05
303.15	0.8984	0.000607	1.1e-05
303.15	1	0.000631	1.1e-05
308.15	0	0.000456	8e-06
308.15	0.1044	0.000468	9e-06
308.15	0.2066	0.000474	9e-06
308.15	0.3045	0.000481	9e-06
308.15	0.4068	0.000493	9e-06
308.15	0.5043	0.000504	9e-06
308.15	0.6015	0.000518	1e-05
308.15	0.7015	0.000532	1e-05
308.15	0.8023	0.00055	1e-05
308.15	0.8984	0.000568	1e-05
308.15	1	0.00059	1.1e-05

System: methylcyclohexane + octane; phases: Liquid
Fixed: Pressure, kPa = 101
Property: Refractive index (Na D-line) (Liquid); method: ABBE:UFactor:2
Temperature, K	Mole fraction of methylcyclohexane	Refractive index (Na D-line)	uncertainty
298.15	0	1.3947	0.001
298.15	0.1044	1.3961	0.001
298.15	0.2066	1.398	0.001
298.15	0.3045	1.4	0.001
298.15	0.4068	1.4022	0.001
298.15	0.5043	1.4045	0.001
298.15	0.6015	1.4069	0.001
298.15	0.7015	1.4098	0.001
298.15	0.8023	1.4127	0.001
298.15	0.8984	1.4159	0.0011
298.15	1	1.4217	0.001
303.15	0	1.3916	0.001
303.15	0.1044	1.3933	0.001
303.15	0.2066	1.3952	0.001
303.15	0.3045	1.3975	0.001
303.15	0.4068	1.3996	0.001
303.15	0.5043	1.4018	0.001
303.15	0.6015	1.4042	0.001
303.15	0.7015	1.4071	0.001
303.15	0.8023	1.4101	0.001
303.15	0.8984	1.4134	0.001
303.15	1	1.4192	0.001
308.15	0	1.3888	0.001
308.15	0.1044	1.3905	0.001
308.15	0.2066	1.3925	0.001
308.15	0.3045	1.3949	0.001
308.15	0.4068	1.3969	0.001
308.15	0.5043	1.3992	0.001
308.15	0.6015	1.4016	0.001
308.15	0.7015	1.4043	0.001
308.15	0.8023	1.4075	0.001
308.15	0.8984	1.4107	0.0009
308.15	1	1.4163	0.001

System: methylcyclohexane + octane; phases: Liquid
Fixed: Pressure, kPa = 101
Property: Mass density, kg/m3 (Liquid); method: VIBTUB:UFactor:4
Temperature, K	Mole fraction of methylcyclohexane	Mass density, kg/m3	uncertainty
298.15	0	698.6	0.8
298.15	0.1044	704.1	0.8
298.15	0.2066	709.7	0.8
298.15	0.3045	715.3	0.8
298.15	0.4068	721.5	0.8
298.15	0.5043	727.7	0.8
298.15	0.6015	734.3	0.7
298.15	0.7015	741.3	0.7
298.15	0.8023	748.8	0.7
298.15	0.8984	756.4	0.7
298.15	1	765	0.7
303.15	0	694.6	0.8
303.15	0.1044	700	0.8
303.15	0.2066	705.6	0.8
303.15	0.3045	711.2	0.8
303.15	0.4068	717.4	0.8
303.15	0.5043	723.6	0.8
303.15	0.6015	730	0.8
303.15	0.7015	737.1	0.8
303.15	0.8023	744.6	0.8
303.15	0.8984	752.1	0.8
303.15	1	760.7	0.8
308.15	0	690.5	0.8
308.15	0.1044	696	0.8
308.15	0.2066	701.5	0.8
308.15	0.3045	707.1	0.8
308.15	0.4068	713.3	0.8
308.15	0.5043	719.4	0.8
308.15	0.6015	725.9	0.8
308.15	0.7015	732.9	0.8
308.15	0.8023	740.3	0.8
308.15	0.8984	747.8	0.8
308.15	1	756.3	0.8

System: methylcyclohexane + nonane; phases: Liquid
Fixed: Pressure, kPa = 101
Fixed: Temperature, K = 298.15
Property: Speed of sound, m/s (Liquid); method: LVPAI:UFactor:2
Mole fraction of methylcyclohexane	Speed of sound, m/s	uncertainty
0	1208	4
0.1052	1209	4
0.198	1210	4
0.299	1211	4
0.4018	1212	4
0.4978	1213	4
0.5982	1214	4
0.6991	1215	4
0.7995	1216	4
0.9012	1217	4
1	1217	4

System: methylcyclohexane + nonane; phases: Liquid
Fixed: Pressure, kPa = 101
Property: Viscosity, Pa*s (Liquid); method: CAPTUB:UFactor:2
Temperature, K	Mole fraction of methylcyclohexane	Viscosity, Pa*s	uncertainty
298.15	0	0.000668	1.3e-05
298.15	0.1052	0.000664	1.3e-05
298.15	0.198	0.00066	1.3e-05
298.15	0.299	0.000658	1.3e-05
298.15	0.4018	0.000659	1.2e-05
298.15	0.4978	0.000659	1.2e-05
298.15	0.5982	0.000661	1.2e-05
298.15	0.6991	0.000662	1.2e-05
298.15	0.7995	0.000665	1.2e-05
298.15	0.9012	0.000671	1.2e-05
298.15	1	0.000676	1.2e-05
303.15	0	0.000623	1.2e-05
303.15	0.1052	0.000625	1.2e-05
303.15	0.198	0.000614	1.2e-05
303.15	0.299	0.000616	1.2e-05
303.15	0.4018	0.000616	1.2e-05
303.15	0.4978	0.000617	1.2e-05
303.15	0.5982	0.00062	1.2e-05
303.15	0.6991	0.000618	1.1e-05
303.15	0.7995	0.00062	1.1e-05
303.15	0.9012	0.000626	1.1e-05
303.15	1	0.000631	1.1e-05
308.15	0	0.000588	1.2e-05
308.15	0.1052	0.000585	1.2e-05
308.15	0.198	0.00058	1.1e-05
308.15	0.299	0.000578	1.1e-05
308.15	0.4018	0.000577	1.1e-05
308.15	0.4978	0.000577	1.1e-05
308.15	0.5982	0.000578	1.1e-05
308.15	0.6991	0.00058	1.1e-05
308.15	0.7995	0.000582	1.1e-05
308.15	0.9012	0.000587	1.1e-05
308.15	1	0.00059	1.1e-05

System: methylcyclohexane + nonane; phases: Liquid
Fixed: Pressure, kPa = 101
Property: Refractive index (Na D-line) (Liquid); method: ABBE:UFactor:2
Temperature, K	Mole fraction of methylcyclohexane	Refractive index (Na D-line)	uncertainty
298.15	0	1.4021	0.001
298.15	0.1052	1.4034	0.001
298.15	0.198	1.4044	0.001
298.15	0.299	1.4058	0.001
298.15	0.4018	1.4072	0.001
298.15	0.4978	1.4085	0.001
298.15	0.5982	1.4102	0.001
298.15	0.6991	1.4122	0.001
298.15	0.7995	1.4144	0.001
298.15	0.9012	1.4169	0.0011
298.15	1	1.4217	0.001
303.15	0	1.3998	0.001
303.15	0.1052	1.4011	0.001
303.15	0.198	1.402	0.001
303.15	0.299	1.4034	0.001
303.15	0.4018	1.4047	0.001
303.15	0.4978	1.4063	0.001
303.15	0.5982	1.4081	0.001
303.15	0.6991	1.4097	0.001
303.15	0.7995	1.4115	0.001
303.15	0.9012	1.4141	0.001
303.15	1	1.4192	0.001
308.15	0	1.3973	0.001
308.15	0.1052	1.3984	0.001
308.15	0.198	1.3996	0.001
308.15	0.299	1.4007	0.001
308.15	0.4018	1.4018	0.001
308.15	0.4978	1.4037	0.001
308.15	0.5982	1.4056	0.001
308.15	0.6991	1.4074	0.001
308.15	0.7995	1.4093	0.0009
308.15	0.9012	1.4115	0.0009
308.15	1	1.4163	0.001

System: methylcyclohexane + nonane; phases: Liquid
Fixed: Pressure, kPa = 101
Property: Mass density, kg/m3 (Liquid); method: VIBTUB:UFactor:4
Temperature, K	Mole fraction of methylcyclohexane	Mass density, kg/m3	uncertainty
298.15	0	714.8	1
298.15	0.1052	718.6	1
298.15	0.198	722.1	1
298.15	0.299	726.2	1
298.15	0.4018	730.7	0.9
298.15	0.4978	735.2	0.9
298.15	0.5982	740.2	0.9
298.15	0.6991	745.7	0.8
298.15	0.7995	751.6	0.8
298.15	0.9012	758.1	0.8
298.15	1	765	0.7
303.15	0	710.9	1
303.15	0.1052	714.7	1
303.15	0.198	718.1	1
303.15	0.299	722.2	1
303.15	0.4018	726.7	0.9
303.15	0.4978	731	0.9
303.15	0.5982	736.1	0.9
303.15	0.6991	741.6	0.8
303.15	0.7995	747.4	0.8
303.15	0.9012	753.9	0.8
303.15	1	760.7	0.8
308.15	0	707	1
308.15	0.1052	710.7	1
308.15	0.198	714.2	1
308.15	0.299	718.2	1
308.15	0.4018	722.6	0.9
308.15	0.4978	727.1	0.9
308.15	0.5982	732	0.9
308.15	0.6991	737.4	0.8
308.15	0.7995	743.2	0.8
308.15	0.9012	749.6	0.8
308.15	1	756.3	0.8

System: methylcyclohexane + decane; phases: Liquid
Fixed: Pressure, kPa = 101
Fixed: Temperature, K = 298.15
Property: Speed of sound, m/s (Liquid); method: LVPAI:UFactor:2
Mole fraction of methylcyclohexane	Speed of sound, m/s	uncertainty
0	1266	4
0.1014	1261	4
0.2034	1255	4
0.3035	1251	4
0.4055	1246	4
0.5004	1241	4
0.5998	1237	4
0.7041	1232	4
0.8039	1227	4
0.8993	1222	4
1	1217	4

System: methylcyclohexane + decane; phases: Liquid
Fixed: Pressure, kPa = 101
Property: Viscosity, Pa*s (Liquid); method: CAPTUB:UFactor:2
Temperature, K	Mole fraction of methylcyclohexane	Viscosity, Pa*s	uncertainty
298.15	0	0.000861	1.5e-05
298.15	0.1014	0.000843	1.5e-05
298.15	0.2034	0.000824	1.4e-05
298.15	0.3035	0.000806	1.4e-05
298.15	0.4055	0.000787	1.4e-05
298.15	0.5004	0.000769	1.3e-05
298.15	0.5998	0.000751	1.3e-05
298.15	0.7041	0.000731	1.3e-05
298.15	0.8039	0.000713	1.3e-05
298.15	0.8993	0.000695	1.2e-05
298.15	1	0.000676	1.2e-05
303.15	0	0.000803	1.4e-05
303.15	0.1014	0.000787	1.4e-05
303.15	0.2034	0.00077	1.3e-05
303.15	0.3035	0.000753	1.3e-05
303.15	0.4055	0.000735	1.3e-05
303.15	0.5004	0.000719	1.3e-05
303.15	0.5998	0.000702	1.2e-05
303.15	0.7041	0.000684	1.2e-05
303.15	0.8039	0.000667	1.2e-05
303.15	0.8993	0.000651	1.2e-05
303.15	1	0.000631	1.1e-05
308.15	0	0.000747	1.3e-05
308.15	0.1014	0.000731	1.3e-05
308.15	0.2034	0.000716	1.3e-05
308.15	0.3035	0.0007	1.2e-05
308.15	0.4055	0.000684	1.2e-05
308.15	0.5004	0.000669	1.2e-05
308.15	0.5998	0.000654	1.2e-05
308.15	0.7041	0.000637	1.2e-05
308.15	0.8039	0.000621	1.1e-05
308.15	0.8993	0.000606	1.1e-05
308.15	1	0.00059	1.1e-05

System: methylcyclohexane + decane; phases: Liquid
Fixed: Pressure, kPa = 101
Property: Refractive index (Na D-line) (Liquid); method: ABBE:UFactor:2
Temperature, K	Mole fraction of methylcyclohexane	Refractive index (Na D-line)	uncertainty
298.15	0	1.4108	0.0009
298.15	0.1014	1.4117	0.0009
298.15	0.2034	1.4123	0.0009
298.15	0.3035	1.413	0.001
298.15	0.4055	1.414	0.001
298.15	0.5004	1.4149	0.001
298.15	0.5998	1.416	0.001
298.15	0.7041	1.4167	0.001
298.15	0.8039	1.4175	0.001
298.15	0.8993	1.4195	0.001
298.15	1	1.4217	0.001
303.15	0	1.4085	0.0009
303.15	0.1014	1.4093	0.001
303.15	0.2034	1.41	0.001
303.15	0.3035	1.4106	0.001
303.15	0.4055	1.4115	0.001
303.15	0.5004	1.4122	0.001
303.15	0.5998	1.4132	0.001
303.15	0.7041	1.4142	0.001
303.15	0.8039	1.4154	0.0009
303.15	0.8993	1.4171	0.001
303.15	1	1.4192	0.001
308.15	0	1.4062	0.0009
308.15	0.1014	1.4069	0.001
308.15	0.2034	1.4075	0.001
308.15	0.3035	1.4083	0.001
308.15	0.4055	1.4089	0.001
308.15	0.5004	1.4095	0.001
308.15	0.5998	1.4105	0.001
308.15	0.7041	1.4117	0.001
308.15	0.8039	1.4133	0.0009
308.15	0.8993	1.4147	0.001
308.15	1	1.4163	0.001

System: methylcyclohexane + decane; phases: Liquid
Fixed: Pressure, kPa = 101
Property: Mass density, kg/m3 (Liquid); method: VIBTUB:UFactor:4
Temperature, K	Mole fraction of methylcyclohexane	Mass density, kg/m3	uncertainty
298.15	0	726.6	0.8
298.15	0.1014	729.1	0.8
298.15	0.2034	731.8	0.8
298.15	0.3035	734.7	0.8
298.15	0.4055	738	0.8
298.15	0.5004	741.3	0.8
298.15	0.5998	745.1	0.8
298.15	0.7041	749.4	0.8
298.15	0.8039	754.1	0.8
298.15	0.8993	759.1	0.8
298.15	1	765	0.7
303.15	0	722.9	0.8
303.15	0.1014	725.3	0.8
303.15	0.2034	728	0.8
303.15	0.3035	730.9	0.8
303.15	0.4055	734.1	0.8
303.15	0.5004	737.3	0.8
303.15	0.5998	741.1	0.8
303.15	0.7041	745.4	0.8
303.15	0.8039	749.9	0.8
303.15	0.8993	754.8	0.8
303.15	1	760.7	0.8
308.15	0	719.1	0.8
308.15	0.1014	721.5	0.8
308.15	0.2034	724.2	0.8
308.15	0.3035	727	0.8
308.15	0.4055	730.2	0.8
308.15	0.5004	733.4	0.8
308.15	0.5998	737	0.8
308.15	0.7041	741.3	0.8
308.15	0.8039	745.8	0.8
308.15	0.8993	750.6	0.8
308.15	1	756.3	0.8

System: methylcyclohexane + dodecane; phases: Liquid
Fixed: Pressure, kPa = 101
Fixed: Temperature, K = 298.15
Property: Speed of sound, m/s (Liquid); method: LVPAI:UFactor:2
Mole fraction of methylcyclohexane	Speed of sound, m/s	uncertainty
0	1284	4
0.1004	1277	4
0.2017	1270	4
0.2968	1264	4
0.406	1257	4
0.5059	1251	4
0.6011	1244	4
0.6993	1237	4
0.7989	1231	4
0.898	1224	4
1	1217	4

System: methylcyclohexane + dodecane; phases: Liquid
Fixed: Pressure, kPa = 101
Property: Viscosity, Pa*s (Liquid); method: CAPTUB:UFactor:2
Temperature, K	Mole fraction of methylcyclohexane	Viscosity, Pa*s	uncertainty
298.15	0	0.001378	2.3e-05
298.15	0.1004	0.001303	2.2e-05
298.15	0.2017	0.00123	2.1e-05
298.15	0.2968	0.001162	1.9e-05
298.15	0.406	0.001084	1.8e-05
298.15	0.5059	0.001014	1.7e-05
298.15	0.6011	0.000948	1.6e-05
298.15	0.6993	0.00088	1.5e-05
298.15	0.7989	0.000811	1.4e-05
298.15	0.898	0.000744	1.3e-05
298.15	1	0.000676	1.2e-05
303.15	0	0.001252	2.1e-05
303.15	0.1004	0.001186	2e-05
303.15	0.2017	0.001124	1.9e-05
303.15	0.2968	0.001067	1.8e-05
303.15	0.406	0.001004	1.7e-05
303.15	0.5059	0.00094	1.6e-05
303.15	0.6011	0.000889	1.5e-05
303.15	0.6993	0.000821	1.4e-05
303.15	0.7989	0.000756	1.3e-05
303.15	0.898	0.000694	1.2e-05
303.15	1	0.000631	1.1e-05
308.15	0	0.001155	1.9e-05
308.15	0.1004	0.001096	1.8e-05
308.15	0.2017	0.001037	1.8e-05
308.15	0.2968	0.000981	1.7e-05
308.15	0.406	0.000919	1.6e-05
308.15	0.5059	0.000862	1.5e-05
308.15	0.6011	0.000809	1.4e-05
308.15	0.6993	0.000755	1.3e-05
308.15	0.7989	0.000701	1.2e-05
308.15	0.898	0.000647	1.2e-05
308.15	1	0.00059	1.1e-05

System: methylcyclohexane + dodecane; phases: Liquid
Fixed: Pressure, kPa = 101
Property: Refractive index (Na D-line) (Liquid); method: ABBE:UFactor:2
Temperature, K	Mole fraction of methylcyclohexane	Refractive index (Na D-line)	uncertainty
298.15	0	1.4186	0.0009
298.15	0.1004	1.4188	0.0009
298.15	0.2017	1.4187	0.001
298.15	0.2968	1.4186	0.0009
298.15	0.406	1.4185	0.0009
298.15	0.5059	1.4185	0.001
298.15	0.6011	1.4186	0.001
298.15	0.6993	1.4186	0.001
298.15	0.7989	1.4188	0.001
298.15	0.898	1.4191	0.0011
298.15	1	1.4217	0.001
303.15	0	1.4164	0.0009
303.15	0.1004	1.4165	0.001
303.15	0.2017	1.4163	0.0009
303.15	0.2968	1.4163	0.0009
303.15	0.406	1.4162	0.0009
303.15	0.5059	1.4161	0.001
303.15	0.6011	1.4162	0.001
303.15	0.6993	1.4163	0.001
303.15	0.7989	1.4164	0.001
303.15	0.898	1.4165	0.001
303.15	1	1.4192	0.001
308.15	0	1.414	0.001
308.15	0.1004	1.4141	0.001
308.15	0.2017	1.4141	0.0009
308.15	0.2968	1.414	0.0009
308.15	0.406	1.4139	0.0009
308.15	0.5059	1.4138	0.0009
308.15	0.6011	1.4139	0.001
308.15	0.6993	1.4137	0.001
308.15	0.7989	1.4138	0.001
308.15	0.898	1.4139	0.0009
308.15	1	1.4163	0.001

System: methylcyclohexane + dodecane; phases: Liquid
Fixed: Pressure, kPa = 101
Property: Mass density, kg/m3 (Liquid); method: VIBTUB:UFactor:4
Temperature, K	Mole fraction of methylcyclohexane	Mass density, kg/m3	uncertainty
298.15	0	746.3	0.8
298.15	0.1004	747.2	0.8
298.15	0.2017	748.3	0.8
298.15	0.2968	749.5	0.8
298.15	0.406	750.9	0.8
298.15	0.5059	752.5	0.8
298.15	0.6011	754.2	0.8
298.15	0.6993	756.2	0.8
298.15	0.7989	758.7	0.8
298.15	0.898	761.5	0.8
298.15	1	765	0.7
303.15	0	742.7	0.8
303.15	0.1004	743.6	0.8
303.15	0.2017	744.6	0.8
303.15	0.2968	745.7	0.8
303.15	0.406	747.2	0.8
303.15	0.5059	748.7	0.8
303.15	0.6011	750.3	0.8
303.15	0.6993	752.3	0.8
303.15	0.7989	754.6	0.8
303.15	0.898	757.3	0.8
303.15	1	760.7	0.8
308.15	0	739	0.8
308.15	0.1004	739.9	0.8
308.15	0.2017	740.9	0.8
308.15	0.2968	742	0.8
308.15	0.406	743.4	0.8
308.15	0.5059	744.8	0.8
308.15	0.6011	746.4	0.8
308.15	0.6993	748.3	0.8
308.15	0.7989	750.5	0.8
308.15	0.898	753.1	0.8
308.15	1	756.3	0.8

System: methylcyclohexane + 2,2,4-trimethylpentane; phases: Liquid
Fixed: Pressure, kPa = 101
Fixed: Temperature, K = 298.15
Property: Speed of sound, m/s (Liquid); method: LVPAI:UFactor:2
Mole fraction of methylcyclohexane	Speed of sound, m/s	uncertainty
0	1075	3
0.105	1089	3
0.201	1103	3
0.3024	1118	3
0.4039	1132	3
0.4998	1145	4
0.6064	1160	4
0.6991	1175	4
0.8004	1189	4
0.9007	1203	4
1	1217	4

System: methylcyclohexane + 2,2,4-trimethylpentane; phases: Liquid
Fixed: Pressure, kPa = 101
Property: Viscosity, Pa*s (Liquid); method: CAPTUB:UFactor:2
Temperature, K	Mole fraction of methylcyclohexane	Viscosity, Pa*s	uncertainty
298.15	0	0.00048	9e-06
298.15	0.105	0.000493	9e-06
298.15	0.201	0.000506	9e-06
298.15	0.3024	0.000522	1e-05
298.15	0.4039	0.000539	1e-05
298.15	0.4998	0.000556	1e-05
298.15	0.6064	0.000577	1.1e-05
298.15	0.6991	0.000597	1.1e-05
298.15	0.8004	0.00062	1.1e-05
298.15	0.9007	0.000648	1.2e-05
298.15	1	0.000676	1.2e-05
303.15	0	0.000453	9e-06
303.15	0.105	0.000466	9e-06
303.15	0.201	0.000478	9e-06
303.15	0.3024	0.000492	9e-06
303.15	0.4039	0.000508	1e-05
303.15	0.4998	0.000523	1e-05
303.15	0.6064	0.000543	1e-05
303.15	0.6991	0.000562	1e-05
303.15	0.8004	0.000583	1.1e-05
303.15	0.9007	0.000608	1.1e-05
303.15	1	0.000631	1.1e-05
308.15	0	0.000427	8e-06
308.15	0.105	0.000438	8e-06
308.15	0.201	0.000449	9e-06
308.15	0.3024	0.000462	9e-06
308.15	0.4039	0.000476	9e-06
308.15	0.4998	0.000491	9e-06
308.15	0.6064	0.000509	1e-05
308.15	0.6991	0.000526	1e-05
308.15	0.8004	0.000546	1e-05
308.15	0.9007	0.000568	1e-05
308.15	1	0.00059	1.1e-05

System: methylcyclohexane + 2,2,4-trimethylpentane; phases: Liquid
Fixed: Pressure, kPa = 101
Property: Refractive index (Na D-line) (Liquid); method: ABBE:UFactor:2
Temperature, K	Mole fraction of methylcyclohexane	Refractive index (Na D-line)	uncertainty
298.15	0	1.388	0.001
298.15	0.105	1.3906	0.001
298.15	0.201	1.3931	0.001
298.15	0.3024	1.396	0.001
298.15	0.4039	1.3988	0.001
298.15	0.4998	1.4018	0.001
298.15	0.6064	1.4053	0.001
298.15	0.6991	1.4083	0.001
298.15	0.8004	1.4116	0.001
298.15	0.9007	1.4155	0.0011
298.15	1	1.4217	0.001
303.15	0	1.3852	0.001
303.15	0.105	1.3879	0.001
303.15	0.201	1.3904	0.001
303.15	0.3024	1.3934	0.001
303.15	0.4039	1.3962	0.001
303.15	0.4998	1.3992	0.001
303.15	0.6064	1.4027	0.001
303.15	0.6991	1.4058	0.001
303.15	0.8004	1.4091	0.001
303.15	0.9007	1.4129	0.001
303.15	1	1.4192	0.001
308.15	0	1.3824	0.001
308.15	0.105	1.3852	0.001
308.15	0.201	1.3877	0.001
308.15	0.3024	1.3907	0.001
308.15	0.4039	1.3935	0.001
308.15	0.4998	1.3966	0.001
308.15	0.6064	1.4	0.001
308.15	0.6991	1.4033	0.001
308.15	0.8004	1.4066	0.0009
308.15	0.9007	1.4104	0.0009
308.15	1	1.4163	0.001

System: methylcyclohexane + 2,2,4-trimethylpentane; phases: Liquid
Fixed: Pressure, kPa = 101
Property: Mass density, kg/m3 (Liquid); method: VIBTUB:UFactor:4
Temperature, K	Mole fraction of methylcyclohexane	Mass density, kg/m3	uncertainty
298.15	0	687.8	0.9
298.15	0.105	694.4	0.9
298.15	0.201	700.7	0.8
298.15	0.3024	707.7	0.8
298.15	0.4039	715	0.8
298.15	0.4998	722.1	0.8
298.15	0.6064	730.4	0.8
298.15	0.6991	738	0.8
298.15	0.8004	746.6	0.8
298.15	0.9007	755.6	0.8
298.15	1	765	0.7
303.15	0	683.7	0.9
303.15	0.105	690.3	0.9
303.15	0.201	696.6	0.9
303.15	0.3024	703.5	0.8
303.15	0.4039	710.8	0.8
303.15	0.4998	717.9	0.8
303.15	0.6064	726.2	0.8
303.15	0.6991	733.7	0.8
303.15	0.8004	742.4	0.8
303.15	0.9007	751.3	0.8
303.15	1	760.7	0.8
308.15	0	679.5	0.9
308.15	0.105	686.1	0.9
308.15	0.201	692.4	0.9
308.15	0.3024	699.3	0.8
308.15	0.4039	706.5	0.8
308.15	0.4998	713.7	0.8
308.15	0.6064	721.9	0.8
308.15	0.6991	729.5	0.8
308.15	0.8004	738.1	0.8
308.15	0.9007	747	0.8
308.15	1	756.3	0.8
