Measured thermophysical data. Thermodynamic properties of 1,2-dihydronaphthalene: Glassy crystals and missing entropy
Source: J. Chem. Thermodyn., 2008, 10.1016/j.jct.2008.01.009
Compound 1: carbon dioxide, CO2, InChI=1S/CO2/c2-1-3
Compound 2: water, H2O, InChI=1S/H2O/h1H2
Compound 3: oxygen, O2, InChI=1S/O2/c1-2
Compound 4: 1,2-dihydronaphthalene, C10H10, InChI=1S/C10H10/c1-2-6-10-8-4-3-7-9(10)5-1/h1-3,5-7H,4,8H2

System: 1,2-dihydronaphthalene; phases: Crystal 1, Liquid, Air at 1 atmosphere
Property: Molar enthalpy of transition or fusion, kJ/mol (Crystal 1); method: Adiabatic calorimetry
Molar enthalpy of transition or fusion, kJ/mol	uncertainty
10.543	0.01

System: 1,2-dihydronaphthalene; phases: Crystal 1, Liquid, Gas
Property: Triple point temperature, K (Crystal 1); method: Adiabatic calorimetry
Triple point temperature, K	uncertainty
264.38	0.05

System: 1,2-dihydronaphthalene; phases: Crystal 3
Fixed: Pressure, kPa = 101.325
Property: Molar heat capacity at constant pressure, J/K/mol (Crystal 3); method: Vacuum adiabatic calorimetry
Temperature, K	Molar heat capacity at constant pressure, J/K/mol	uncertainty
5	0.28	0.02
10	2.69	0.03
20	13.26	0.083
30	24.12	0.091
40	33.18	0.108
50	40.87	0.125
60	47.15	0.133
70	52.76	0.15
80	57.88	0.158
90	62.79	0.266
100	67.58	0.266
120	77.47	0.274
140	90.287	0.291
146	95.325	0.299

System: 1,2-dihydronaphthalene; phases: Crystal 2
Fixed: Pressure, kPa = 101.325
Property: Molar heat capacity at constant pressure, J/K/mol (Crystal 2); method: Vacuum adiabatic calorimetry
Temperature, K	Molar heat capacity at constant pressure, J/K/mol	uncertainty
146	95.591	0.299
160	104.39	0.308
180	115.29	0.316
194.4	124.59	0.324

System: 1,2-dihydronaphthalene; phases: Crystal 1
Fixed: Pressure, kPa = 101.325
Property: Molar heat capacity at constant pressure, J/K/mol (Crystal 1); method: Vacuum adiabatic calorimetry
Temperature, K	Molar heat capacity at constant pressure, J/K/mol	uncertainty
194.4	126.5	0.324
200	129.36	0.333
220	141.06	0.341
240	155.01	0.358
260	171.24	0.374
264.38	175.09	0.374

System: 1,2-dihydronaphthalene; phases: Liquid
Fixed: Pressure, kPa = 101.325
Property: Molar heat capacity at constant pressure, J/K/mol (Liquid); method: Vacuum adiabatic calorimetry
Temperature, K	Molar heat capacity at constant pressure, J/K/mol	uncertainty
250	191.22	0.391
260	195.03	0.399
264.38	196.72	0.399
280	202.59	0.399
298.15	209.64	0.407
300	210.37	0.407
320	218.52	0.416
340	226.88	0.424
360	235.35	0.432
380	243.89	0.441
400	252.39	0.449
420	260.86	0.457
440	269.35	0.466
460	277.87	0.474
480	286.36	0.491
500	294.85	0.499

System: 1,2-dihydronaphthalene; phases: Crystal 3, Gas
Property: Molar heat capacity at saturation pressure, J/K/mol (Crystal 3); method: Vacuum adiabatic calorimetry
Temperature, K	Molar heat capacity at saturation pressure, J/K/mol	uncertainty
5.476	0.37	0.02
6.388	0.64	0.02
7.291	0.989	0.02
8.25	1.48	0.02
9.249	2.12	0.03
10.3	2.94	0.03
11.467	3.91	0.04
12.768	5.18	0.05
14.208	6.67	0.06
15.806	8.431	0.07
17.591	10.49	0.07
19.572	12.77	0.083
21.762	15.28	0.091
24.187	18	0.1
26.87	20.93	0.1
29.828	23.95	0.091
33.116	27.11	0.1
36.817	30.48	0.1
40.934	33.95	0.108
45.509	37.56	0.116
50.623	41.31	0.125
55.367	44.29	0.133
56.32	44.86	0.133
60.822	47.66	0.133
66.991	51.14	0.141
73.791	54.73	0.15
81.31	58.53	0.158
89.625	62.62	0.166
92.505	64	0.266
98.633	66.92	0.266
101.725	68.45	0.266
108.127	71.57	0.274
111.446	73.19	0.274
116.484	75.72	0.274
121.197	78.05	0.274
122.504	78.89	0.283
127.59	81.65	0.283
129.07	82.45	0.283
132.84	84.882	0.283
138.136	89.048	0.291
143.359	92.964	0.291

System: 1,2-dihydronaphthalene; phases: Crystal 2, Gas
Property: Molar heat capacity at saturation pressure, J/K/mol (Crystal 2); method: VADIAC:UFactor:2
Temperature, K	Molar heat capacity at saturation pressure, J/K/mol	uncertainty
148.642	97.429	0.599
153.854	100.66	0.599
159.029	103.99	0.607
164.195	106.64	0.615
169.598	109.63	0.615
171.236	110.54	0.624
175.289	112.56	0.624
178.776	114.67	0.632
180.374	115.57	0.632
180.884	115.84	0.632
186.067	118.77	0.64
186.759	119.11	0.64
187.604	120.08	0.64
192.707	124.28	0.649
192.991	123.59	0.649

System: 1,2-dihydronaphthalene; phases: Crystal 1, Gas
Property: Molar heat capacity at saturation pressure, J/K/mol (Crystal 1); method: Small (less than 1 g) adiabatic calorimetry
Temperature, K	Molar heat capacity at saturation pressure, J/K/mol	uncertainty
197.839	128.42	0.715
199.443	129.23	0.715
202.956	130.85	0.723
206.228	132.6	0.732
208.769	134.08	0.74
213.604	137.01	0.748
215.962	138.43	0.757
219.365	140.75	0.765
230.973	148.65	0.798
238.265	153.96	0.815
243.924	158.36	0.8314
252.957	166.39	0.8647
255.1	168.26	0.873

System: 1,2-dihydronaphthalene; phases: Liquid, Gas
Property: Molar heat capacity at saturation pressure, J/K/mol (Liquid); method: Small (less than 1 g) adiabatic calorimetry
Temperature, K	Molar heat capacity at saturation pressure, J/K/mol	uncertainty
271.215	199.33	0.9977
272.178	199.68	0.9977
272.239	199.7	0.9977
280.333	202.71	1.0144
288.359	205.77	1.0227
291.65	207.11	1.031
303.091	211.59	1.0476
318.194	217.77	1.0726
333.271	224.04	1.0975
348.765	230.58	1.1225
364.66	237.34	1.1474
380.182	243.96	1.1723
395.445	250.46	1.2056
410.928	257.02	1.2305
426.177	263.43	1.2555
438.72	268.69	1.2721

System: 1,2-dihydronaphthalene; phases: Crystal 3
Fixed: Pressure, kPa = 101.325
Property: Molar enthalpy function {Hm(T)-Hm(0)}/T, J/K/mol (Crystal 3); method: Vacuum adiabatic calorimetry
Temperature, K	Molar enthalpy function {Hm(T)-Hm(0)}/T, J/K/mol	uncertainty
5	0.07	0.008
10	0.65	0.02
20	4.17	0.03
30	9.054	0.06
40	13.98	0.07
50	18.62	0.07
60	22.86	0.083
70	26.73	0.091
80	30.31	0.1
90	33.65	0.233
100	36.8	0.233
120	42.75	0.241
140	48.56	0.249
146	50.38	0.249

System: 1,2-dihydronaphthalene; phases: Crystal 2
Fixed: Pressure, kPa = 101.325
Property: Molar enthalpy function {Hm(T)-Hm(0)}/T, J/K/mol (Crystal 2); method: Vacuum adiabatic calorimetry
Temperature, K	Molar enthalpy function {Hm(T)-Hm(0)}/T, J/K/mol	uncertainty
146	50.38	0.249
160	54.73	0.258
180	60.85	0.258
194.4	65.22	0.266

System: 1,2-dihydronaphthalene; phases: Crystal 1
Fixed: Pressure, kPa = 101.325
Property: Molar enthalpy function {Hm(T)-Hm(0)}/T, J/K/mol (Crystal 1); method: Vacuum adiabatic calorimetry
Temperature, K	Molar enthalpy function {Hm(T)-Hm(0)}/T, J/K/mol	uncertainty
194.4	65.22	0.266
200	66.97	0.266
220	73.16	0.274
240	79.39	0.283
260	85.814	0.283
264.38	87.26	0.291

System: 1,2-dihydronaphthalene; phases: Liquid
Fixed: Pressure, kPa = 101.325
Property: Molar enthalpy function {Hm(T)-Hm(0)}/T, J/K/mol (Liquid); method: Vacuum adiabatic calorimetry
Temperature, K	Molar enthalpy function {Hm(T)-Hm(0)}/T, J/K/mol	uncertainty
250	123.29	0.324
260	125.97	0.324
264.38	127.14	0.324
280	131.18	0.333
298.15	135.74	0.333
300	136.2	0.333
320	141.09	0.341
340	145.89	0.349
360	150.63	0.349
380	155.31	0.358
400	159.95	0.358
420	164.55	0.366
440	169.12	0.366
460	173.66	0.374
480	178.18	0.374
500	182.68	0.382

System: 1,2-dihydronaphthalene; phases: Liquid, Gas
Property: Vapor or sublimation pressure, kPa (Liquid); method: Inclined piston gauge
Temperature, K	Vapor or sublimation pressure, kPa	uncertainty
289.999	0.0253	0.001
299.967	0.0534	0.0011
309.995	0.1078	0.0011
319.991	0.2047	0.0012
329.984	0.3717	0.0014
339.985	0.6472	0.0018
349.984	1.0864	0.0024
359.978	1.7602	0.0031
364.973	2.2144	0.0038
369.98	2.7663	0.0044

System: 1,2-dihydronaphthalene; phases: Liquid, Gas
Property: Vapor or sublimation pressure, kPa (Liquid); method: Twin ebulliometer
Temperature, K	Vapor or sublimation pressure, kPa	uncertainty
362.707	1.9975	0.0103
369.176	2.6708	0.0105
378.73	4.013	0.0107
385.762	5.3319	0.0112
396.368	7.9988	0.0119
404.335	10.667	0.013
410.785	13.334	0.014
417.488	16.669	0.015
423.056	19.935	0.017
430.389	25.019	0.019
437.796	31.182	0.022
445.236	38.56	0.025
452.744	47.373	0.029
460.298	57.807	0.033
467.912	70.104	0.038
475.588	84.527	0.044
483.318	101.33	0.05
491.098	120.79	0.06
498.938	143.26	0.07
506.84	169.03	0.07

System: 1,2-dihydronaphthalene; phases: Crystal 3
Fixed: Pressure, kPa = 101.325
Property: Molar entropy, J/K/mol (Crystal 3); method: Vacuum adiabatic calorimetry
Temperature, K	Molar entropy, J/K/mol	uncertainty
5	0.091	0.02
10	0.848	0.02
20	5.75	0.07
30	13.24	0.1
40	21.46	0.125
50	29.71	0.15
60	37.72	0.175
70	45.42	0.2
80	52.81	0.216
90	59.91	0.391
100	66.77	0.399
120	79.97	0.424
140	92.798	0.441
146	96.689	0.449

System: 1,2-dihydronaphthalene; phases: Crystal 2
Fixed: Pressure, kPa = 101.325
Property: Molar entropy, J/K/mol (Crystal 2); method: Vacuum adiabatic calorimetry
Temperature, K	Molar entropy, J/K/mol	uncertainty
146	96.689	0.449
160	105.85	0.457
180	118.78	0.482
194.4	127.98	0.491

System: 1,2-dihydronaphthalene; phases: Crystal 1
Fixed: Pressure, kPa = 101.325
Property: Molar entropy, J/K/mol (Crystal 1); method: Vacuum adiabatic calorimetry
Temperature, K	Molar entropy, J/K/mol	uncertainty
194.4	127.98	0.491
200	131.62	0.499
220	144.48	0.515
240	157.33	0.532
260	170.37	0.557
264.38	173.27	0.557

System: 1,2-dihydronaphthalene; phases: Liquid
Fixed: Pressure, kPa = 101.325
Property: Molar entropy, J/K/mol (Liquid); method: Vacuum adiabatic calorimetry
Temperature, K	Molar entropy, J/K/mol	uncertainty
250	202.29	0.607
260	209.87	0.615
264.38	213.14	0.624
280	224.6	0.64
298.15	237.54	0.657
300	238.84	0.657
320	252.68	0.682
340	266.17	0.698
360	279.38	0.723
380	292.34	0.74
400	305.06	0.757
420	317.58	0.773
440	329.91	0.798
460	342.07	0.815
480	354.08	0.8314
500	365.94	0.8481

System: 1,2-dihydronaphthalene; phases: Liquid, Gas
Property: Mass density, kg/m3 (Liquid); method: Vibrating tube method
Temperature, K	Mass density, kg/m3	uncertainty
323.15	971.8	0.2
348.15	951.1	0.2
373.15	930.3	0.2
398.149	909.7	0.2
423.152	889.1	0.2
448.149	867.8	0.2
473.147	846.1	0.2

Reaction: -1 1,2-dihydronaphthalene + 10 carbon dioxide + 5 water + -12.5 oxygen
Property: Specific internal energy of reaction at constant volume, J/g
-41706
