Measured thermophysical data. Solid-liquid equilibria for the systems of (CsCl + DyCl3 + H2O) and {CsCl + DyCl3 + HCl (~10.7%) + H2O} at T = 298.15 K and the thermodynamic properties of the new solid compounds
Source: J. Chem. Thermodyn., 2019, 10.1016/j.jct.2019.01.002
Compound 1: cesium chloride, ClCs, InChI=1S/ClH.Cs/h1H;/q;+1/p-1, purity 99.5%
Compound 2: dysprosium(III) chloride, Cl3Dy, InChI=1S/3ClH.Dy/h3*1H;/q;;;+3/p-3, purity 99.8%
Compound 3: hydrogen chloride, ClH, InChI=1S/ClH/h1H, purity 98%
Compound 4: water, H2O, InChI=1S/H2O/h1H2, purity 99.9%
Compound 5: cesium octachlorodysprosate(III) hexahydrate, Cl8Cs5DyH12O6, InChI=1S/8ClH.5Cs.Dy.6H2O/h8*1H;;;;;;;6*1H2/q;;;;;;;;5*+1;+3;;;;;;/p-8, purity 99.4%
Compound 6: cesium pentachlorodysprosate(III) hexahydrate, Cl5Cs2DyH12O6, InChI=1S/5ClH.2Cs.Dy.6H2O/h5*1H;;;;6*1H2/q;;;;;2*+1;+3;;;;;;/p-5, purity 99.6%
Compound 7: cesium hexachlorolanthanate(III) trihydrate, Cl6Cs3H6LaO3, InChI=1S/6ClH.3Cs.La.3H2O/h6*1H;;;;;3*1H2/q;;;;;;3*+1;+3;;;/p-6, purity 99.5%
Compound 8: cesium tetrachlorolanthanate tetrahydrate, Cl4CsH8LaO4, InChI=1S/4ClH.Cs.La.4H2O/h4*1H;;;4*1H2/q;;;;+1;+3;;;;/p-4, purity 99.7%
Compound 9: cesium tetrachlorocerate(III) tetrahydrate, CeCl4CsH8O4, InChI=1S/Ce.4ClH.Cs.4H2O/h;4*1H;;4*1H2/q+3;;;;;+1;;;;/p-4, purity 99.7%
Compound 10: cesium tetrachloropraseodymate(III) hexahydrate, Cl4CsH12O6Pr, InChI=1S/4ClH.Cs.6H2O.Pr/h4*1H;;6*1H2;/q;;;;+1;;;;;;;+3/p-4, purity 99.6%
Compound 11: cesium tetrachloroneodymate nonahydrate, Cl4CsH18NdO9, InChI=1S/4ClH.Cs.Nd.9H2O/h4*1H;;;9*1H2/q;;;;+1;+3;;;;;;;;;/p-4, purity 99.6%

System: cesium chloride + dysprosium(III) chloride + water; phases: Liquid, Crystal
Fixed: Pressure, kPa = 100
Fixed: Temperature, K = 298.15
Property: Mass fraction of cesium chloride (Liquid); method: Gravimetric method
Mass fraction of dysprosium(III) chloride	Mass fraction of cesium chloride	uncertainty
0	0.6636	0.0055
0.0748	0.5783	0.0058
0.1349	0.5216	0.0057
0.2005	0.4695	0.0056
0.2502	0.4347	0.0055
0.2681	0.4303	0.0054
0.2689	0.4336	0.0054

System: cesium chloride + dysprosium(III) chloride + water; phases: Liquid, Crystal of intercomponent compound 1
Fixed: Pressure, kPa = 100
Fixed: Temperature, K = 298.15
Property: Mass fraction of dysprosium(III) chloride (Liquid); method: Titration method
Mass fraction of cesium chloride	Mass fraction of dysprosium(III) chloride	uncertainty
0.4303	0.2681	0.0037
0.4336	0.2689	0.0034
0.3972	0.2872	0.0037
0.3786	0.298	0.0039
0.3596	0.3108	0.0037
0.3265	0.3287	0.004
0.3	0.3486	0.0036
0.2594	0.3657	0.0043
0.1964	0.4149	0.0047
0.203	0.4148	0.0051
0.1946	0.4154	0.0046
0.1931	0.4164	0.0046

System: cesium chloride + dysprosium(III) chloride + water; phases: Liquid, Crystal of intercomponent compound 2
Fixed: Pressure, kPa = 100
Fixed: Temperature, K = 298.15
Property: Mass fraction of dysprosium(III) chloride (Liquid); method: Titration method
Mass fraction of cesium chloride	Mass fraction of dysprosium(III) chloride	uncertainty
0.203	0.4148	0.0028
0.1946	0.4154	0.003
0.1931	0.4164	0.0029
0.1512	0.4317	0.0031
0.0785	0.4625	0.0031
0	0.4921	0.0023

System: hydrogen chloride + cesium chloride + water; phases: Liquid, Crystal
Property: Mass fraction of cesium chloride (Liquid); method: Gravimetric method
Mass fraction of hydrogen chloride	Pressure, kPa	Temperature, K	Mass fraction of cesium chloride	uncertainty
0.1073	100	298.15	0.4822	0.0074

System: hydrogen chloride + dysprosium(III) chloride + water; phases: Liquid, Crystal of intercomponent compound 1
Property: Mass fraction of dysprosium(III) chloride (Liquid); method: Titration method
Mass fraction of hydrogen chloride	Pressure, kPa	Temperature, K	Mass fraction of dysprosium(III) chloride	uncertainty
0.1016	100	298.15	0.3146	0.0021

System: cesium octachlorodysprosate(III) hexahydrate + water; phases: Liquid
Property: Molar enthalpy of solution, kJ/mol (Liquid); method: Power-compensation calorimetry
Mole fraction of cesium octachlorodysprosate(III) hexahydrate	Pressure, kPa	Temperature, K	Molar enthalpy of solution, kJ/mol	uncertainty
0	100	298.15	44.28	0.59

System: cesium pentachlorodysprosate(III) hexahydrate + water; phases: Liquid
Property: Molar enthalpy of solution, kJ/mol (Liquid); method: Power-compensation calorimetry
Mole fraction of cesium pentachlorodysprosate(III) hexahydrate	Pressure, kPa	Temperature, K	Molar enthalpy of solution, kJ/mol	uncertainty
0	100	298.15	5.32	0.27

System: cesium hexachlorolanthanate(III) trihydrate + water; phases: Liquid
Property: Molar enthalpy of solution, kJ/mol (Liquid); method: Power-compensation calorimetry
Mole fraction of cesium hexachlorolanthanate(III) trihydrate	Pressure, kPa	Temperature, K	Molar enthalpy of solution, kJ/mol	uncertainty
0	100	298.15	14.78	0.33

System: cesium tetrachlorolanthanate tetrahydrate + water; phases: Liquid
Property: Molar enthalpy of solution, kJ/mol (Liquid); method: Power-compensation calorimetry
Mole fraction of cesium tetrachlorolanthanate tetrahydrate	Pressure, kPa	Temperature, K	Molar enthalpy of solution, kJ/mol	uncertainty
0	100	298.15	-30.98	0.66

System: cesium tetrachlorocerate(III) tetrahydrate + water; phases: Liquid
Property: Molar enthalpy of solution, kJ/mol (Liquid); method: Power-compensation calorimetry
Mole fraction of cesium tetrachlorocerate(III) tetrahydrate	Pressure, kPa	Temperature, K	Molar enthalpy of solution, kJ/mol	uncertainty
0	100	298.15	-20.26	0.26

System: cesium tetrachloropraseodymate(III) hexahydrate + water; phases: Liquid
Property: Molar enthalpy of solution, kJ/mol (Liquid); method: Power-compensation calorimetry
Mole fraction of cesium tetrachloropraseodymate(III) hexahydrate	Pressure, kPa	Temperature, K	Molar enthalpy of solution, kJ/mol	uncertainty
0	100	298.15	-19.64	0.56

System: cesium tetrachloroneodymate nonahydrate + water; phases: Liquid
Property: Molar enthalpy of solution, kJ/mol (Liquid); method: Power-compensation calorimetry
Mole fraction of cesium tetrachloroneodymate nonahydrate	Pressure, kPa	Temperature, K	Molar enthalpy of solution, kJ/mol	uncertainty
0	100	298.15	-5.86	0.45

System: cesium chloride + water; phases: Liquid, Crystal
Property: Mass fraction of cesium chloride (Liquid); method: Gravimetric method
Pressure, kPa	Temperature, K	Mass fraction of cesium chloride	uncertainty
100	298.15	0.6636	0.0055

System: dysprosium(III) chloride + water; phases: Liquid, Crystal of intercomponent compound 1
Property: Mass fraction of dysprosium(III) chloride (Liquid); method: Titration method
Pressure, kPa	Temperature, K	Mass fraction of dysprosium(III) chloride	uncertainty
100	298.15	0.4921	0.0023
