Measured thermophysical data. Prediction of thermophysical properties of novel ionic liquids based on serine [Cnmim][Ser] (n = 3,4) using semiempirical methods
Source: J. Chem. Thermodyn., 2015, 10.1016/j.jct.2015.04.029
Compound 1: water, H2O, InChI=1S/H2O/h1H2
Compound 2: 1-methyl-3-propylimidazolium L-serinate, C10H19N3O3, InChI=1S/C7H13N2.C3H7NO3/c1-3-4-9-6-5-8(2)7-9;4-2(1-5)3(6)7/h5-7H,3-4H2,1-2H3;2,5H,1,4H2,(H,6,7)/q+1;/p-1/t;2-/m.0/s1
Compound 3: 1-butyl-3-methylimidazolium L-serinate, C11H21N3O3, InChI=1S/C8H15N2.C3H7NO3/c1-3-4-5-10-7-6-9(2)8-10;4-2(1-5)3(6)7/h6-8H,3-5H2,1-2H3;2,5H,1,4H2,(H,6,7)/q+1;/p-1/t;2-/m.0/s1

System: 1-methyl-3-propylimidazolium L-serinate; phases: Liquid
Fixed: Pressure, kPa = 101.325
Property: Mass density, kg/m3 (Liquid); method: Vibrating tube method
Temperature, K	Mass density, kg/m3	uncertainty
298.15	1181.51	1.06
303.15	1178.34	1.06
308.15	1175.19	1.06
313.15	1172.03	1.06
318.15	1168.88	1.06
323.15	1165.67	1.05
328.15	1162.6	1.05
333.15	1159.49	1.05
338.15	1156.42	1.05

System: 1-methyl-3-propylimidazolium L-serinate; phases: Liquid, Air at 1 atmosphere
Property: Surface tension liquid-gas, N/m (Liquid); method: Maximal bubble pressure
Temperature, K	Surface tension liquid-gas, N/m	uncertainty
298.15	0.0468	0.0005
303.15	0.0466	0.0004
308.15	0.0464	0.0004
313.15	0.0461	0.0004
318.15	0.0458	0.0004
323.15	0.0456	0.0004
328.15	0.0454	0.0004
333.15	0.0451	0.0004
338.15	0.0449	0.0004

System: 1-methyl-3-propylimidazolium L-serinate; phases: Liquid
Fixed: Pressure, kPa = 101.325
Property: Refractive index (Na D-line) (Liquid); method: Standard Abbe refractometry
Temperature, K	Refractive index (Na D-line)	uncertainty
298.15	1.5179	0.0005
303.15	1.5165	0.0005
308.15	1.5153	0.0005
313.15	1.5141	0.0005
318.15	1.5131	0.0005
323.15	1.5123	0.0005
328.15	1.5112	0.0005
333.15	1.51	0.0005
338.15	1.5086	0.0005

System: 1-methyl-3-propylimidazolium L-serinate; phases: Glass, Liquid, Air at 1 atmosphere
Property: Triple point temperature, K (Glass); method: DSC
Triple point temperature, K	uncertainty
218.6	1

System: 1-butyl-3-methylimidazolium L-serinate; phases: Liquid
Fixed: Pressure, kPa = 101.325
Property: Mass density, kg/m3 (Liquid); method: Vibrating tube method
Temperature, K	Mass density, kg/m3	uncertainty
298.15	1156.04	1.05
303.15	1152.82	1.05
308.15	1149.61	1.05
313.15	1146.45	1.05
318.15	1143.31	1.05
323.15	1140.08	1.05
328.15	1136.91	1.05
333.15	1133.81	1.05
338.15	1130.64	1.05

System: 1-butyl-3-methylimidazolium L-serinate; phases: Liquid, Air at 1 atmosphere
Property: Surface tension liquid-gas, N/m (Liquid); method: Maximal bubble pressure
Temperature, K	Surface tension liquid-gas, N/m	uncertainty
298.15	0.0454	0.0004
303.15	0.0452	0.0004
308.15	0.045	0.0004
313.15	0.0447	0.0004
318.15	0.0444	0.0004
323.15	0.0443	0.0004
328.15	0.044	0.0004
333.15	0.0438	0.0004
338.15	0.0435	0.0004

System: 1-butyl-3-methylimidazolium L-serinate; phases: Liquid
Fixed: Pressure, kPa = 101.325
Property: Refractive index (Na D-line) (Liquid); method: Standard Abbe refractometry
Temperature, K	Refractive index (Na D-line)	uncertainty
298.15	1.5143	0.0005
303.15	1.5135	0.0005
308.15	1.5126	0.0005
313.15	1.5114	0.0005
318.15	1.5106	0.0005
323.15	1.5096	0.0005
328.15	1.5091	0.0005
333.15	1.5077	0.0005
338.15	1.5069	0.0005

System: 1-butyl-3-methylimidazolium L-serinate; phases: Glass, Liquid, Air at 1 atmosphere
Property: Triple point temperature, K (Glass); method: DSC
Triple point temperature, K	uncertainty
225.95	1

System: water + 1-methyl-3-propylimidazolium L-serinate; phases: Liquid
Fixed: Pressure, kPa = 100
Property: Mass density, kg/m3 (Liquid); method: Vibrating tube method
Temperature, K	Mass fraction of water	Mass density, kg/m3	uncertainty
298.15	0.00636	1181.69	1.06
303.15	0.00636	1178.52	1.06
308.15	0.00636	1175.36	1.06
313.15	0.00636	1172.21	1.06
318.15	0.00636	1169.06	1.05
323.15	0.00636	1165.86	1.05
328.15	0.00636	1162.76	1.05
333.15	0.00636	1159.67	1.05
338.15	0.00636	1156.58	1.05
298.15	0.00785	1181.73	1.06
303.15	0.00785	1178.56	1.06
308.15	0.00785	1175.39	1.06
313.15	0.00785	1172.24	1.06
318.15	0.00785	1169.09	1.05
323.15	0.00785	1165.89	1.05
328.15	0.00785	1162.79	1.05
333.15	0.00785	1159.7	1.1
338.15	0.00785	1156.62	1.05
298.15	0.00939	1181.78	1.06
303.15	0.00939	1178.61	1.06
308.15	0.00939	1175.43	1.06
313.15	0.00939	1172.29	1.05
318.15	0.00939	1169.13	1.05
323.15	0.00939	1165.94	1.05
328.15	0.00939	1162.83	1.05
333.15	0.00939	1159.74	1.05
338.15	0.00939	1156.65	1.05
298.15	0.0109	1181.82	1.06
303.15	0.0109	1178.65	1.06
308.15	0.0109	1175.47	1.06
313.15	0.0109	1172.33	1.05
318.15	0.0109	1169.18	1.05
323.15	0.0109	1165.98	1.05
328.15	0.0109	1162.87	1.05
333.15	0.0109	1159.79	1.05
338.15	0.0109	1156.69	1.05
298.15	0.0124	1181.86	1.06
303.15	0.0124	1178.69	1.06
308.15	0.0124	1175.52	1.06
313.15	0.0124	1172.37	1.05
318.15	0.0124	1169.22	1.05
323.15	0.0124	1166.03	1.05
328.15	0.0124	1162.91	1.05
333.15	0.0124	1159.83	1.05
338.15	0.0124	1156.73	1.05

System: water + 1-methyl-3-propylimidazolium L-serinate; phases: Liquid, Air at 1 atmosphere
Property: Surface tension liquid-gas, N/m (Liquid); method: Maximal bubble pressure
Temperature, K	Mass fraction of water	Surface tension liquid-gas, N/m	uncertainty
298.15	0.00641	0.0502	0.0005
303.15	0.00641	0.0499	0.0005
308.15	0.00641	0.0496	0.0005
313.15	0.00641	0.0492	0.0005
318.15	0.00641	0.0488	0.0005
323.15	0.00641	0.0485	0.0005
328.15	0.00641	0.0482	0.0005
333.15	0.00641	0.0478	0.0005
338.15	0.00641	0.0475	0.0005
298.15	0.00791	0.0508	0.0005
303.15	0.00791	0.0505	0.0005
308.15	0.00791	0.0502	0.0005
313.15	0.00791	0.0499	0.0005
318.15	0.00791	0.0495	0.0005
323.15	0.00791	0.0492	0.0005
328.15	0.00791	0.0488	0.0005
333.15	0.00791	0.0485	0.0005
338.15	0.00791	0.0482	0.0005
298.15	0.00942	0.0517	0.0005
303.15	0.00942	0.0514	0.0005
308.15	0.00942	0.0509	0.0005
313.15	0.00942	0.0505	0.0005
318.15	0.00942	0.0501	0.0005
323.15	0.00942	0.0498	0.0005
328.15	0.00942	0.0495	0.0005
333.15	0.00942	0.0491	0.0005
338.15	0.00942	0.0487	0.0005
298.15	0.01091	0.0525	0.0005
303.15	0.01091	0.0521	0.0005
308.15	0.01091	0.0518	0.0005
313.15	0.01091	0.0514	0.0005
318.15	0.01091	0.0509	0.0005
323.15	0.01091	0.0506	0.0005
328.15	0.01091	0.0502	0.0005
333.15	0.01091	0.0497	0.0005
338.15	0.01091	0.0493	0.0005
298.15	0.01241	0.0532	0.0005
303.15	0.01241	0.0529	0.0005
308.15	0.01241	0.0525	0.0005
313.15	0.01241	0.052	0.0005
318.15	0.01241	0.0516	0.0005
323.15	0.01241	0.0512	0.0005
328.15	0.01241	0.0508	0.0005
333.15	0.01241	0.0504	0.0005
338.15	0.01241	0.05	0.0005

System: water + 1-methyl-3-propylimidazolium L-serinate; phases: Liquid
Fixed: Pressure, kPa = 100
Property: Refractive index (Na D-line) (Liquid); method: Standard Abbe refractometry
Temperature, K	Mass fraction of water	Refractive index (Na D-line)	uncertainty
298.15	0.00614	1.5158	0.0005
303.15	0.00614	1.5145	0.0005
308.15	0.00614	1.5131	0.0005
313.15	0.00614	1.5118	0.0005
318.15	0.00614	1.5106	0.0005
323.15	0.00614	1.5094	0.0005
328.15	0.00614	1.5081	0.0005
333.15	0.00614	1.5068	0.0005
338.15	0.00614	1.5054	0.0005
298.15	0.00766	1.5154	0.0005
303.15	0.00766	1.514	0.0005
308.15	0.00766	1.5126	0.0005
313.15	0.00766	1.5113	0.0005
318.15	0.00766	1.5099	0.0005
323.15	0.00766	1.5086	0.0005
328.15	0.00766	1.5072	0.0005
333.15	0.00766	1.5058	0.0005
338.15	0.00766	1.5044	0.0005
298.15	0.00917	1.5149	0.0005
303.15	0.00917	1.5135	0.0005
308.15	0.00917	1.5119	0.0005
313.15	0.00917	1.5106	0.0005
318.15	0.00917	1.5092	0.0005
323.15	0.00917	1.5078	0.0005
328.15	0.00917	1.5063	0.0005
333.15	0.00917	1.5049	0.0005
338.15	0.00917	1.5036	0.0005
298.15	0.01069	1.5144	0.0005
303.15	0.01069	1.5131	0.0005
308.15	0.01069	1.5115	0.0005
313.15	0.01069	1.5102	0.0005
318.15	0.01069	1.5087	0.0005
323.15	0.01069	1.5072	0.0005
328.15	0.01069	1.5056	0.0005
333.15	0.01069	1.5042	0.0005
338.15	0.01069	1.5028	0.0005
298.15	0.01217	1.514	0.0005
303.15	0.01217	1.5125	0.0005
308.15	0.01217	1.5109	0.0005
313.15	0.01217	1.5095	0.0005
318.15	0.01217	1.5081	0.0005
323.15	0.01217	1.5065	0.0005
328.15	0.01217	1.505	0.0005
333.15	0.01217	1.5035	0.0005
338.15	0.01217	1.5021	0.0005

System: water + 1-butyl-3-methylimidazolium L-serinate; phases: Liquid
Fixed: Pressure, kPa = 100
Property: Mass density, kg/m3 (Liquid); method: Vibrating tube method
Temperature, K	Mass fraction of water	Mass density, kg/m3	uncertainty
298.15	0.00489	1156.16	1.05
303.15	0.00489	1152.97	1.05
308.15	0.00489	1149.77	1.05
313.15	0.00489	1146.61	1.05
318.15	0.00489	1143.46	1.05
323.15	0.00489	1140.24	1.05
328.15	0.00489	1137.09	1.05
333.15	0.00489	1133.97	1.05
338.15	0.00489	1130.83	1.05
298.15	0.00632	1156.21	1.05
303.15	0.00632	1153.01	1.05
308.15	0.00632	1149.82	1.05
313.15	0.00632	1146.67	1.05
318.15	0.00632	1143.52	1.05
323.15	0.00632	1140.3	1
328.15	0.00632	1137.16	1.05
333.15	0.00632	1134.03	1.05
338.15	0.00632	1130.9	1
298.15	0.00783	1156.25	1.05
303.15	0.00783	1153.06	1.05
308.15	0.00783	1149.86	1.05
313.15	0.00783	1146.72	1.05
318.15	0.00783	1143.56	1.05
323.15	0.00783	1140.34	1.05
328.15	0.00783	1137.21	1.05
333.15	0.00783	1134.08	1.05
338.15	0.00783	1130.95	1.05
298.15	0.00933	1156.29	1.05
303.15	0.00933	1153.1	1.1
308.15	0.00933	1149.91	1.05
313.15	0.00933	1146.76	1.05
318.15	0.00933	1143.61	1.05
323.15	0.00933	1140.39	1.05
328.15	0.00933	1137.27	1.05
333.15	0.00933	1134.13	1.05
338.15	0.00933	1131.01	1.05
298.15	0.01094	1156.32	1.05
303.15	0.01094	1153.15	1.05
308.15	0.01094	1149.97	1.05
313.15	0.01094	1146.82	1.05
318.15	0.01094	1143.65	1.05
323.15	0.01094	1140.45	1.05
328.15	0.01094	1137.32	1.05
333.15	0.01094	1134.18	1.05
338.15	0.01094	1131.07	1.05

System: water + 1-butyl-3-methylimidazolium L-serinate; phases: Liquid, Air at 1 atmosphere
Property: Surface tension liquid-gas, N/m (Liquid); method: Maximal bubble pressure
Temperature, K	Mass fraction of water	Surface tension liquid-gas, N/m	uncertainty
298.15	0.00706	0.0464	0.0004
303.15	0.00706	0.0462	0.0004
308.15	0.00706	0.046	0.0004
313.15	0.00706	0.0457	0.0004
318.15	0.00706	0.0454	0.0004
323.15	0.00706	0.0452	0.0004
328.15	0.00706	0.0449	0.0004
333.15	0.00706	0.0447	0.0004
338.15	0.00706	0.0445	0.0004
298.15	0.00859	0.0467	0.0004
303.15	0.00859	0.0464	0.0004
308.15	0.00859	0.0462	0.0004
313.15	0.00859	0.0459	0.0004
318.15	0.00859	0.0456	0.0004
323.15	0.00859	0.0454	0.0004
328.15	0.00859	0.0451	0.0004
333.15	0.00859	0.0449	0.0004
338.15	0.00859	0.0447	0.0004
298.15	0.01019	0.0469	0.0005
303.15	0.01019	0.0467	0.0004
308.15	0.01019	0.0464	0.0004
313.15	0.01019	0.0461	0.0004
318.15	0.01019	0.0458	0.0004
323.15	0.01019	0.0456	0.0004
328.15	0.01019	0.0453	0.0004
333.15	0.01019	0.0451	0.0004
338.15	0.01019	0.0449	0.0004
298.15	0.01171	0.0471	0.0005
303.15	0.01171	0.0469	0.0005
308.15	0.01171	0.0466	0.0004
313.15	0.01171	0.0463	0.0004
318.15	0.01171	0.046	0.0004
323.15	0.01171	0.0458	0.0004
328.15	0.01171	0.0455	0.0004
333.15	0.01171	0.0453	0.0004
338.15	0.01171	0.0451	0.0004
298.15	0.01331	0.0473	0.0005
303.15	0.01331	0.0471	0.0005
308.15	0.01331	0.0469	0.0004
313.15	0.01331	0.0466	0.0004
318.15	0.01331	0.0463	0.0004
323.15	0.01331	0.046	0.0004
328.15	0.01331	0.0457	0.0004
333.15	0.01331	0.0455	0.0004
338.15	0.01331	0.0454	0.0004

System: water + 1-butyl-3-methylimidazolium L-serinate; phases: Liquid
Fixed: Pressure, kPa = 100
Property: Refractive index (Na D-line) (Liquid); method: Standard Abbe refractometry
Temperature, K	Mass fraction of water	Refractive index (Na D-line)	uncertainty
298.15	0.00594	1.5125	0.0005
303.15	0.00594	1.5117	0.0005
308.15	0.00594	1.5109	0.0005
313.15	0.00594	1.5099	0.0005
318.15	0.00594	1.5089	0.0005
323.15	0.00594	1.5078	0.0005
328.15	0.00594	1.5071	0.0005
333.15	0.00594	1.5059	0.0005
338.15	0.00594	1.5051	0.0005
298.15	0.00746	1.5122	0.0005
303.15	0.00746	1.5113	0.0005
308.15	0.00746	1.5104	0.0005
313.15	0.00746	1.5094	0.0005
318.15	0.00746	1.5084	0.0005
323.15	0.00746	1.5073	0.0005
328.15	0.00746	1.5065	0.0005
333.15	0.00746	1.5055	0.0005
338.15	0.00746	1.5045	0.0005
298.15	0.00898	1.5117	0.0005
303.15	0.00898	1.5109	0.0005
308.15	0.00898	1.5101	0.0005
313.15	0.00898	1.5091	0.0005
318.15	0.00898	1.5079	0.0005
323.15	0.00898	1.5068	0.0005
328.15	0.00898	1.5059	0.0005
333.15	0.00898	1.5049	0.0005
338.15	0.00898	1.5041	0.0005
298.15	0.0105	1.5112	0.0005
303.15	0.0105	1.5104	0.0005
308.15	0.0105	1.5096	0.0005
313.15	0.0105	1.5087	0.0005
318.15	0.0105	1.5075	0.0005
323.15	0.0105	1.5064	0.0005
328.15	0.0105	1.5055	0.0005
333.15	0.0105	1.5045	0.0005
338.15	0.0105	1.5036	0.0005
298.15	0.01211	1.5108	0.0005
303.15	0.01211	1.5099	0.0005
308.15	0.01211	1.5091	0.0005
313.15	0.01211	1.5083	0.0005
318.15	0.01211	1.5071	0.0005
323.15	0.01211	1.5059	0.0005
328.15	0.01211	1.5049	0.0005
333.15	0.01211	1.5041	0.0005
338.15	0.01211	1.5032	0.0005
