Measured thermophysical data. Cyclic alkylene carbonates. Experiment and first principle calculations for prediction of thermochemical properties
Source: J. Chem. Thermodyn., 2008, 10.1016/j.jct.2008.05.001
Compound 1: carbon dioxide, CO2, InChI=1S/CO2/c2-1-3
Compound 2: water, H2O, InChI=1S/H2O/h1H2
Compound 3: oxygen, O2, InChI=1S/O2/c1-2
Compound 4: ethylene carbonate, C3H4O3, InChI=1S/C3H4O3/c4-3-5-1-2-6-3/h1-2H2
Compound 5: 4-methyl-1,3-dioxolan-2-one, C4H6O3, InChI=1S/C4H6O3/c1-3-2-6-4(5)7-3/h3H,2H2,1H3
Compound 6: 1,2-butylene carbonate, C5H8O3, InChI=1S/C5H8O3/c1-2-4-3-7-5(6)8-4/h4H,2-3H2,1H3

System: ethylene carbonate; phases: Crystal
Property: Mass density, kg/m3 (Crystal); method: Pycnometric method
Temperature, K	Pressure, kPa	Mass density, kg/m3	uncertainty
293	101.325	1320	10

System: 1,2-butylene carbonate; phases: Liquid
Property: Mass density, kg/m3 (Liquid); method: Pycnometric method
Temperature, K	Pressure, kPa	Mass density, kg/m3	uncertainty
293	101.325	1140	10

Reaction: -1 ethylene carbonate + 3 carbon dioxide + 2 water + -2.5 oxygen
Property: Molar enthalpy of reaction, kJ/mol
-1167.4

Reaction: -1 4-methyl-1,3-dioxolan-2-one + 4 carbon dioxide + 3 water + -4 oxygen
Property: Molar enthalpy of reaction, kJ/mol
-1817.4

Reaction: -1 1,2-butylene carbonate + 5 carbon dioxide + 4 water + -5.5 oxygen
Property: Molar enthalpy of reaction, kJ/mol
-2470.8
