Measured thermophysical data. (Vapour + liquid) equilibria of the {trifluoromethane (HFC-23) + propane} and {trifluoromethane (HFC-23) + n-butane} systems
Source: J. Chem. Thermodyn., 2009, 10.1016/j.jct.2009.06.009
Compound 1: trifluoromethane, CHF3, InChI=1S/CHF3/c2-1(3)4/h1H
Compound 2: propane, C3H8, InChI=1S/C3H8/c1-3-2/h3H2,1-2H3
Compound 3: butane, C4H10, InChI=1S/C4H10/c1-3-4-2/h3-4H2,1-2H3

System: trifluoromethane; phases: Liquid, Gas
Property: Vapor or sublimation pressure, kPa (Liquid); method: Closed cell (Static) method
Temperature, K	Vapor or sublimation pressure, kPa	uncertainty
283.15	3246	9
283.15	3242	9
293.15	4158	10
293.15	4162	10

System: propane; phases: Liquid, Gas
Property: Vapor or sublimation pressure, kPa (Liquid); method: Closed cell (Static) method
Temperature, K	Vapor or sublimation pressure, kPa	uncertainty
283.15	638	3
293.15	840	3
303.15	1083	3
313.15	1375	4

System: butane; phases: Liquid, Gas
Property: Vapor or sublimation pressure, kPa (Liquid); method: Closed cell (Static) method
Temperature, K	Vapor or sublimation pressure, kPa	uncertainty
283.15	148	2
293.15	208	2
303.15	282	2
313.15	378	2

System: propane + trifluoromethane; phases: Gas, Liquid
Property: Vapor or sublimation pressure, kPa (Gas); method: Closed cell (Static) method
Temperature, K	Mole fraction of trifluoromethane	Vapor or sublimation pressure, kPa	uncertainty
283.15	0	638	3
283.15	0.0317	908	16
283.15	0.0657	1157	14
283.15	0.1142	1470	13
283.15	0.1545	1676	11
283.15	0.203	1896	10
283.15	0.319	2288	10
283.15	0.4203	2540	10
283.15	0.5494	2770	11
283.15	0.7001	3013	12
283.15	1	3246	13
293.15	0	840	4
293.15	0.0487	1283	17
293.15	0.111	1753	15
293.15	0.1711	2106	13
293.15	0.2366	2442	12
293.15	0.3251	2794	12
293.15	0.4409	3144	12
293.15	0.5662	3467	13
293.15	0.6814	3727	14
293.15	0.7873	3953	14
293.15	1	4158	15
303.15	0	1083	4
303.15	0.0427	1503	19
303.15	0.1061	2056	18
303.15	0.1543	2410	15
303.15	0.2301	2862	15
303.15	0.3056	3254	14
303.15	0.4332	3769	15
303.15	0.5318	4113	16
303.15	0.6962	4617	17
313.15	0	1375	5
313.15	0.0526	1961	20
313.15	0.1485	2806	19
313.15	0.2203	3316	17
313.15	0.3233	3914	17
313.15	0.4263	4408	18
313.15	0.4831	4671	19

System: propane + trifluoromethane; phases: Gas, Liquid
Property: Mole fraction of trifluoromethane (Gas); method: Chromatography
Temperature, K	Mole fraction of trifluoromethane	Mole fraction of trifluoromethane	uncertainty
283.15	0	0	
283.15	0.0317	0.261	0.0128
283.15	0.0657	0.4111	0.0074
283.15	0.1142	0.5186	0.0062
283.15	0.1545	0.5865	0.005
283.15	0.203	0.6343	0.0041
283.15	0.319	0.6928	0.0036
283.15	0.4203	0.726	0.0033
283.15	0.5494	0.7622	0.003
283.15	0.7001	0.8156	0.0029
283.15	1	1	
293.15	0	0	
293.15	0.0487	0.3084	0.0088
293.15	0.111	0.4784	0.0063
293.15	0.1711	0.5645	0.0049
293.15	0.2366	0.6148	0.0042
293.15	0.3251	0.6606	0.0038
293.15	0.4409	0.7082	0.0034
293.15	0.5662	0.7527	0.0031
293.15	0.6814	0.7921	0.0029
293.15	0.7873	0.8414	0.0028
293.15	1	1	
303.15	0	0	
303.15	0.0427	0.2397	0.0083
303.15	0.1061	0.4226	0.0064
303.15	0.1543	0.498	0.0054
303.15	0.2301	0.5674	0.0047
303.15	0.3056	0.611	0.0042
303.15	0.4332	0.6699	0.0037
303.15	0.5318	0.7007	0.0035
303.15	0.6962	0.7548	0.0031
313.15	0	0	
313.15	0.0526	0.2508	0.0065
313.15	0.1485	0.442	0.0055
313.15	0.2203	0.5143	0.005
313.15	0.3233	0.5759	0.0045
313.15	0.4263	0.6183	0.0041
313.15	0.4831	0.6274	0.004

System: trifluoromethane + butane; phases: Gas, Liquid
Property: Vapor or sublimation pressure, kPa (Gas); method: Closed cell (Static) method
Temperature, K	Mole fraction of trifluoromethane	Vapor or sublimation pressure, kPa	uncertainty
283.15	0	148	2
283.15	0.0309	447	18
283.15	0.072	796	16
283.15	0.1123	1099	14
283.15	0.1578	1386	12
283.15	0.2139	1673	11
283.15	0.2842	1955	9
283.15	0.3943	2254	9
283.15	0.5938	2554	10
283.15	0.7303	2727	10
283.15	0.8779	2959	12
283.15	1	3242	13
293.15	0	208	2
293.15	0.0376	608	20
293.15	0.0825	1035	18
293.15	0.1273	1397	15
293.15	0.1877	1799	13
293.15	0.2751	2254	12
293.15	0.3569	2571	11
293.15	0.5157	2976	12
293.15	0.6377	3203	12
293.15	0.8563	3682	15
293.15	1	4162	15
303.15	0	282	2
303.15	0.043	775	22
303.15	0.0825	1190	20
303.15	0.1374	1679	17
303.15	0.206	2205	15
303.15	0.3028	2774	14
303.15	0.3746	3083	13
303.15	0.4723	3421	13
303.15	0.6108	3801	14
303.15	0.7114	4072	15
313.15	0	378	2
313.15	0.0283	736	25
313.15	0.0597	1114	23
313.15	0.1032	1589	21
313.15	0.1443	1994	20
313.15	0.1979	2472	17
313.15	0.3196	3288	16
313.15	0.4195	3792	15
313.15	0.5472	4287	16
313.15	0.6942	4780	18

System: trifluoromethane + butane; phases: Gas, Liquid
Property: Mole fraction of trifluoromethane (Gas); method: Chromatography
Temperature, K	Mole fraction of trifluoromethane	Mole fraction of trifluoromethane	uncertainty
283.15	0	0	
283.15	0.0309	0.6251	0.0213
283.15	0.072	0.7812	0.0059
283.15	0.1123	0.8333	0.0032
283.15	0.1578	0.865	0.0026
283.15	0.2139	0.8849	0.0023
283.15	0.2842	0.9008	0.0022
283.15	0.3943	0.9112	0.0022
283.15	0.5938	0.9236	0.0021
283.15	0.7303	0.9326	0.0021
283.15	0.8779	0.9516	0.0021
283.15	1	1	
293.15	0	0	
293.15	0.0376	0.6164	0.018
293.15	0.0825	0.7566	0.0053
293.15	0.1273	0.8158	0.0032
293.15	0.1877	0.8536	0.0026
293.15	0.2751	0.879	0.0023
293.15	0.3569	0.8875	0.0023
293.15	0.5157	0.9004	0.0022
293.15	0.6377	0.9064	0.0022
293.15	0.8563	0.9385	0.0021
293.15	1	1	
303.15	0	0	
303.15	0.043	0.5799	0.017
303.15	0.0825	0.7146	0.0054
303.15	0.1374	0.7831	0.0034
303.15	0.206	0.8295	0.0027
303.15	0.3028	0.8563	0.0025
303.15	0.3746	0.8691	0.0024
303.15	0.4723	0.8773	0.0023
303.15	0.6108	0.8857	0.0023
303.15	0.7114	0.8967	0.0023
313.15	0	0	
313.15	0.0283	0.4349	0.0205
313.15	0.0597	0.6022	0.0083
313.15	0.1032	0.7088	0.005
313.15	0.1443	0.7598	0.0035
313.15	0.1979	0.7956	0.0029
313.15	0.3196	0.8331	0.0026
313.15	0.4195	0.847	0.0025
313.15	0.5472	0.8562	0.0024
313.15	0.6942	0.8586	0.0024
