Measured thermophysical data. Volumetric properties of ascorbic acid (vitamin C) and thiamine hydrochloride (vitamin B1) in dilute HCl and in aqueous NaCl solutions at (283.15, 293.15, 298.15, 303.15, 308.15, and 313.15) K
Source: J. Chem. Thermodyn., 2007, 10.1016/j.jct.2007.04.009
Compound 1: L-ascorbic acid, C6H8O6, InChI=1S/C6H8O6/c7-1-2(8)5-3(9)4(10)6(11)12-5/h2,5,7-10H,1H2/t2-,5+/m0/s1
Compound 2: hydrogen chloride, ClH, InChI=1S/ClH/h1H
Compound 3: water, H2O, InChI=1S/H2O/h1H2
Compound 4: thiamine hydrochloride, C12H18Cl2N4OS, InChI=1S/C12H17N4OS.2ClH/c1-8-11(3-4-17)18-7-16(8)6-10-5-14-9(2)15-12(10)13;;/h5,7,17H,3-4,6H2,1-2H3,(H2,13,14,15);2*1H/q+1;;/p-1

System: hydrogen chloride + water; phases: Liquid
Fixed: Pressure, kPa = 101
Property: Speed of sound, m/s (Liquid); method: Sing-around technique in a fixed-path interferometer
Temperature, K	Amount concentration (molarity), mol/dm3 of hydrogen chloride	Speed of sound, m/s	uncertainty
283.15	0.001	1447.86	0.99
283.15	0.01	1448.16	0.99
293.15	0.001	1482.59	1
293.15	0.01	1482.69	1
298.15	0.001	1496.81	0.99
298.15	0.01	1496.91	0.99
303.15	0.001	1509.26	0.99
303.15	0.01	1509.34	0.99
308.15	0.001	1520	0.99
308.15	0.01	1520.03	0.99
313.15	0.001	1529.09	0.99
313.15	0.01	1529.11	0.99

System: hydrogen chloride + water; phases: Liquid
Fixed: Pressure, kPa = 101
Property: Mass density, kg/m3 (Liquid); method: Vibrating tube method
Temperature, K	Amount concentration (molarity), mol/dm3 of hydrogen chloride	Mass density, kg/m3	uncertainty
283.15	0.001	999.726	0.047
283.15	0.01	999.891	0.047
293.15	0.001	998.23	0.058
293.15	0.01	998.393	0.044
298.15	0.001	997.067	0.053
298.15	0.01	997.231	0.046
303.15	0.001	995.67	0.054
303.15	0.01	995.834	0.049
308.15	0.001	994.057	0.06
308.15	0.01	994.318	0.05
313.15	0.001	992.244	0.052
313.15	0.01	992.405	0.053

System: L-ascorbic acid + hydrogen chloride + water; phases: Liquid
Fixed: Pressure, kPa = 101
Fixed: Amount concentration (molarity), mol/dm3 of hydrogen chloride = 0.01
Property: Speed of sound, m/s (Liquid); method: Sing-around technique in a fixed-path interferometer
Molality, mol/kg of L-ascorbic acid	Temperature, K	Speed of sound, m/s	uncertainty
0	283.15	1448.16	3.51
0	293.15	1482.69	3.51
0	298.15	1496.91	3.51
0	303.15	1509.34	3.51
0	308.15	1520.03	3.51
0	313.15	1529.11	3.51
0.0098	283.15	1448.82	3.51
0.0098	293.15	1483.14	3.51
0.0098	298.15	1497.31	3.51
0.0098	303.15	1509.74	3.51
0.0098	308.15	1520.41	3.51
0.0098	313.15	1529.45	3.51
0.0494	283.15	1450.79	3.51
0.0494	293.15	1484.94	3.51
0.0494	298.15	1499.05	3.51
0.0494	303.15	1511.27	3.51
0.0494	308.15	1521.78	3.51
0.0494	313.15	1530.72	3.51
0.1003	283.15	1453.52	3.51
0.1003	293.15	1487.21	3.51
0.1003	298.15	1501.06	3.51
0.1003	303.15	1513.14	3.51
0.1003	308.15	1523.51	3.51
0.1003	313.15	1532.29	3.51
0.1508	283.15	1456.45	3.51
0.1508	293.15	1489.61	3.51
0.1508	298.15	1503.25	3.51
0.1508	303.15	1515.18	3.51
0.1508	308.15	1525.4	3.51
0.1508	313.15	1534.05	3.51
0.1996	283.15	1458.82	3.51
0.1996	293.15	1491.72	3.51
0.1996	298.15	1505.2	3.51
0.1996	303.15	1516.96	3.51
0.1996	308.15	1527.03	3.51
0.1996	313.15	1535.53	3.51
0.2502	283.15	1461.46	3.51
0.2502	293.15	1493.97	3.51
0.2502	298.15	1507.27	3.51
0.2502	303.15	1518.85	3.51
0.2502	308.15	1528.76	3.51
0.2502	313.15	1537.13	3.51
0.2985	283.15	1463.96	3.51
0.2985	293.15	1496.01	3.51
0.2985	298.15	1509.13	3.51
0.2985	303.15	1520.55	3.51
0.2985	308.15	1530.32	3.51
0.2985	313.15	1538.57	3.51
0.3492	283.15	1466.56	3.51
0.3492	293.15	1498.27	3.51
0.3492	298.15	1511.22	3.51
0.3492	303.15	1522.49	3.51
0.3492	308.15	1532.19	3.51
0.3492	313.15	1540.27	3.51
0.3913	283.15	1468.71	3.51
0.3913	293.15	1500.09	3.51
0.3913	298.15	1512.88	3.51
0.3913	303.15	1524.01	3.51
0.3913	308.15	1533.57	3.51
0.3913	313.15	1541.54	3.51
0.4484	283.15	1470.8	3.51
0.4484	293.15	1502.04	3.51
0.4484	298.15	1514.68	3.51
0.4484	303.15	1525.69	3.51
0.4484	308.15	1535.06	3.51
0.4484	313.15	1542.92	3.51
0.4797	283.15	1473.22	3.51
0.4797	293.15	1503.91	3.51
0.4797	298.15	1516.48	3.51
0.4797	303.15	1527.33	3.51
0.4797	308.15	1536.56	3.51
0.4797	313.15	1544.3	3.51

System: L-ascorbic acid + hydrogen chloride + water; phases: Liquid
Fixed: Pressure, kPa = 101
Fixed: Amount concentration (molarity), mol/dm3 of hydrogen chloride = 0.01
Property: Mass density, kg/m3 (Liquid); method: Vibrating tube method
Molality, mol/kg of L-ascorbic acid	Temperature, K	Mass density, kg/m3	uncertainty
0	283.15	999.891	3.075
0	293.15	998.393	3.067
0	298.15	997.231	3.06
0	303.15	995.834	3.052
0	308.15	994.318	3.044
0	313.15	992.405	3.033
0.0098	283.15	1000.643	3.08
0.0098	293.15	999.129	3.07
0.0098	298.15	997.96	3.064
0.0098	303.15	996.558	3.056
0.0098	308.15	994.937	3.047
0.0098	313.15	993.12	3.037
0.0494	283.15	1003.48	3.098
0.0494	293.15	1001.899	3.088
0.0494	298.15	1000.705	3.08
0.0494	303.15	999.279	3.071
0.0494	308.15	997.641	3.062
0.0494	313.15	995.802	3.052
0.1003	283.15	1007.039	3.122
0.1003	293.15	1005.382	3.111
0.1003	298.15	1004.156	3.103
0.1003	303.15	1002.701	3.093
0.1003	308.15	1001.034	3.082
0.1003	313.15	999.17	3.071
0.1508	283.15	1010.808	3.147
0.1508	293.15	1009.073	3.135
0.1508	298.15	1007.812	3.127
0.1508	303.15	1006.326	3.117
0.1508	308.15	1004.633	3.106
0.1508	313.15	1002.745	3.093
0.1996	283.15	1014.234	3.169
0.1996	293.15	1012.42	3.157
0.1996	298.15	1011.3	3.15
0.1996	303.15	1009.615	3.139
0.1996	308.15	1007.894	3.127
0.1996	313.15	1005.984	3.115
0.2502	283.15	1017.695	3.192
0.2502	293.15	1015.807	3.18
0.2502	298.15	1014.485	3.171
0.2502	303.15	1012.944	3.161
0.2502	308.15	1011.199	3.149
0.2502	313.15	1009.265	3.136
0.2985	283.15	1020.632	3.212
0.2985	293.15	1018.688	3.199
0.2985	298.15	1017.342	3.19
0.2985	303.15	1015.777	3.18
0.2985	308.15	1014.01	3.168
0.2985	313.15	1012.06	3.155
0.3492	283.15	1024.206	3.236
0.3492	293.15	1022.18	3.222
0.3492	298.15	1020.801	3.213
0.3492	303.15	1019.212	3.203
0.3492	308.15	1017.425	3.191
0.3492	313.15	1015.45	3.177
0.3913	283.15	1026.793	3.253
0.3913	293.15	1024.717	3.239
0.3913	298.15	1023.317	3.23
0.3913	303.15	1021.703	3.219
0.3913	308.15	1019.897	3.207
0.3913	313.15	1017.902	3.194
0.4484	283.15	1029.832	3.274
0.4484	293.15	1027.69	3.259
0.4484	298.15	1026.263	3.25
0.4484	303.15	1024.624	3.239
0.4484	308.15	1022.793	3.227
0.4484	313.15	1020.78	3.213
0.4797	283.15	1032.634	3.294
0.4797	293.15	1030.448	3.279
0.4797	298.15	1028.997	3.269
0.4797	303.15	1027.338	3.258
0.4797	308.15	1025.487	3.245
0.4797	313.15	1023.458	3.232

System: thiamine hydrochloride + hydrogen chloride + water; phases: Liquid
Fixed: Pressure, kPa = 101
Fixed: Amount concentration (molarity), mol/dm3 of hydrogen chloride = 0.001
Property: Speed of sound, m/s (Liquid); method: Sing-around technique in a fixed-path interferometer
Molality, mol/kg of thiamine hydrochloride	Temperature, K	Speed of sound, m/s	uncertainty
0	283.15	1447.86	3.51
0	293.15	1482.59	3.51
0	298.15	1496.81	3.51
0	303.15	1509.26	3.51
0	308.15	1520	3.51
0	313.15	1529.09	3.51
0.0049	283.15	1449.04	3.51
0.0049	293.15	1483.51	3.51
0.0049	298.15	1497.69	3.51
0.0049	303.15	1510.15	3.51
0.0049	308.15	1520.82	3.51
0.0049	313.15	1529.89	3.51
0.0101	283.15	1449.97	3.51
0.0101	293.15	1484.37	3.51
0.0101	298.15	1498.52	3.51
0.0101	303.15	1510.89	3.51
0.0101	308.15	1521.54	3.51
0.0101	313.15	1530.58	3.51
0.0497	283.15	1457.8	3.51
0.0497	293.15	1491.43	3.51
0.0497	298.15	1505.25	3.51
0.0497	303.15	1517.36	3.51
0.0497	308.15	1527.74	3.51
0.0497	313.15	1536.54	3.51
0.0993	283.15	1466.99	3.51
0.0993	293.15	1499.79	3.51
0.0993	298.15	1513.33	3.51
0.0993	303.15	1525.06	3.51
0.0993	308.15	1535.13	3.51
0.0993	313.15	1543.64	3.51
0.1484	283.15	1476.24	3.51
0.1484	293.15	1508.19	3.51
0.1484	298.15	1521.27	3.51
0.1484	303.15	1532.68	3.51
0.1484	308.15	1542.44	3.51
0.1484	313.15	1550.73	3.51
0.1999	283.15	1485.52	3.51
0.1999	293.15	1516.6	3.51
0.1999	298.15	1529.3	3.51
0.1999	303.15	1540.4	3.51
0.1999	308.15	1549.87	3.51
0.1999	313.15	1557.83	3.51
0.2478	283.15	1493.97	3.51
0.2478	293.15	1524.25	3.51
0.2478	298.15	1536.62	3.51
0.2478	303.15	1547.38	3.51
0.2478	308.15	1556.56	3.51
0.2478	313.15	1564.31	3.51
0.2999	283.15	1503.06	3.51
0.2999	293.15	1532.49	3.51
0.2999	298.15	1544.48	3.51
0.2999	303.15	1554.92	3.51
0.2999	308.15	1563.8	3.51
0.2999	313.15	1571.22	3.51

System: thiamine hydrochloride + hydrogen chloride + water; phases: Liquid
Fixed: Pressure, kPa = 101
Fixed: Amount concentration (molarity), mol/dm3 of hydrogen chloride = 0.001
Property: Mass density, kg/m3 (Liquid); method: Vibrating tube method
Molality, mol/kg of thiamine hydrochloride	Temperature, K	Mass density, kg/m3	uncertainty
0	283.15	999.726	3.075
0	293.15	998.23	3.068
0	298.15	997.067	3.061
0	303.15	995.67	3.053
0	308.15	994.057	3.044
0	313.15	992.244	3.034
0.0049	283.15	1000.272	3.078
0.0049	293.15	998.765	3.069
0.0049	298.15	997.602	3.063
0.0049	303.15	996.204	3.055
0.0049	308.15	994.587	3.046
0.0049	313.15	992.773	3.036
0.0101	283.15	1000.759	3.081
0.0101	293.15	999.244	3.071
0.0101	298.15	998.076	3.065
0.0101	303.15	996.674	3.057
0.0101	308.15	995.055	3.048
0.0101	313.15	993.239	3.038
0.0497	283.15	1004.815	3.108
0.0497	293.15	1003.23	3.097
0.0497	298.15	1002.037	3.089
0.0497	303.15	1000.613	3.08
0.0497	308.15	998.978	3.07
0.0497	313.15	997.148	3.06
0.0993	283.15	1009.626	3.14
0.0993	293.15	1007.954	3.128
0.0993	298.15	1006.731	3.12
0.0993	303.15	1005.282	3.111
0.0993	308.15	1003.63	3.1
0.0993	313.15	1001.782	3.088
0.1484	283.15	1014.501	3.172
0.1484	293.15	1012.744	3.16
0.1484	298.15	1011.487	3.152
0.1484	303.15	1010.012	3.142
0.1484	308.15	1008.336	3.131
0.1484	313.15	1006.472	3.119
0.1999	283.15	1019.319	3.204
0.1999	293.15	1017.477	3.192
0.1999	298.15	1016.19	3.183
0.1999	303.15	1014.688	3.173
0.1999	308.15	1012.991	3.162
0.1999	313.15	1011.111	3.149
0.2478	283.15	1023.621	3.233
0.2478	293.15	1021.712	3.22
0.2478	298.15	1020.399	3.211
0.2478	303.15	1018.875	3.201
0.2478	308.15	1017.158	3.189
0.2478	313.15	1015.261	3.177
0.2999	283.15	1028.311	3.264
0.2999	293.15	1026.314	3.251
0.2999	298.15	1024.967	3.242
0.2999	303.15	1023.415	3.231
0.2999	308.15	1021.679	3.22
0.2999	313.15	1019.765	3.207
