Measured thermophysical data. Thermodynamic study of the sublimation of six halobenzoic acids
Source: J. Chem. Thermodyn., 2005, 10.1016/j.jct.2004.09.005
Compound 1: 4-bromobenzoic acid, C7H5BrO2, InChI=1S/C7H5BrO2/c8-6-3-1-5(2-4-6)7(9)10/h1-4H,(H,9,10)
Compound 2: 2-chlorobenzoic acid, C7H5ClO2, InChI=1S/C7H5ClO2/c8-6-4-2-1-3-5(6)7(9)10/h1-4H,(H,9,10), purity 99.9%
Compound 3: 3-chlorobenzoic acid, C7H5ClO2, InChI=1S/C7H5ClO2/c8-6-3-1-2-5(4-6)7(9)10/h1-4H,(H,9,10), purity 99%
Compound 4: 4-chlorobenzoic acid, C7H5ClO2, InChI=1S/C7H5ClO2/c8-6-3-1-5(2-4-6)7(9)10/h1-4H,(H,9,10), purity 99.9%
Compound 5: 2-bromobenzoic acid, C7H5BrO2, InChI=1S/C7H5BrO2/c8-6-4-2-1-3-5(6)7(9)10/h1-4H,(H,9,10), purity 99.4%
Compound 6: 3-bromobenzoic acid, C7H5BrO2, InChI=1S/C7H5BrO2/c8-6-3-1-2-5(4-6)7(9)10/h1-4H,(H,9,10), purity 99.9%

System: 4-bromobenzoic acid; phases: Crystal, Liquid, Air at 1 atmosphere
Property: Molar enthalpy of transition or fusion, kJ/mol (Crystal); method: DSC:FP
Molar enthalpy of transition or fusion, kJ/mol	uncertainty
30.87	0.68

System: 4-bromobenzoic acid; phases: Crystal, Liquid, Air at 1 atmosphere
Property: Normal melting temperature, K (Crystal); method: DTA:FP
Normal melting temperature, K	uncertainty
526.34	0.84

System: 4-bromobenzoic acid; phases: Crystal, Gas
Property: Vapor or sublimation pressure, kPa (Crystal); method: Calculated from knudsen effusion weight loss
Temperature, K	Vapor or sublimation pressure, kPa	uncertainty
348.67	0.000155	8e-06
348.67	0.000153	8e-06
348.67	0.000152	8e-06
350.14	0.000176	9e-06
350.14	0.00018	9e-06
350.14	0.000175	9e-06
351.67	0.000202	1e-05
351.67	0.000202	1e-05
351.67	0.000205	1e-05
353.14	0.00024	1.2e-05
353.14	0.000245	1.2e-05
353.14	0.00024	1.2e-05
354.65	0.000276	1.4e-05
354.65	0.000278	1.4e-05
354.65	0.000278	1.4e-05
356.17	0.000331	1.7e-05
356.17	0.000324	1.6e-05
356.17	0.000326	1.6e-05
357.67	0.000384	1.9e-05
357.67	0.000389	1.9e-05
357.67	0.000376	1.9e-05
359.24	0.000448	2.2e-05
359.24	0.000429	2.1e-05
359.24	0.000447	2.2e-05
360.65	0.000517	2.6e-05
360.65	0.000495	2.5e-05
360.65	0.000512	2.6e-05
362.22	0.000609	3e-05
362.22	0.000617	3.1e-05
362.22	0.000611	3.1e-05
363.63	0.000692	3.5e-05
363.63	0.000703	3.5e-05
363.63	0.000683	3.4e-05
365.23	0.00082	4.1e-05
365.23	0.00082	4.1e-05
365.23	0.000809	4e-05
366.65	0.000932	4.7e-05
366.65	0.000932	4.7e-05
366.65	0.000909	4.5e-05

System: 2-chlorobenzoic acid; phases: Crystal, Liquid, Air at 1 atmosphere
Property: Molar enthalpy of transition or fusion, kJ/mol (Crystal); method: DSC:FP
Molar enthalpy of transition or fusion, kJ/mol	uncertainty
25.25	0.57

System: 2-chlorobenzoic acid; phases: Crystal, Liquid, Air at 1 atmosphere
Property: Normal melting temperature, K (Crystal); method: DTA:FP
Normal melting temperature, K	uncertainty
413.95	0.39

System: 2-chlorobenzoic acid; phases: Crystal, Gas
Property: Vapor or sublimation pressure, kPa (Crystal); method: Calculated from knudsen effusion weight loss
Temperature, K	Vapor or sublimation pressure, kPa	uncertainty
320.16	0.000103	5e-06
320.16	0.000102	5e-06
320.16	0.0001	5e-06
322.16	0.000127	6e-06
322.16	0.000126	6e-06
322.16	0.000126	6e-06
324.14	0.000166	8e-06
324.14	0.000164	8e-06
324.14	0.000163	8e-06
326.14	0.000206	1e-05
326.14	0.000205	1e-05
326.14	0.000204	1e-05
329.15	0.0003	1.5e-05
329.15	0.000294	1.5e-05
329.15	0.000294	1.5e-05
332.13	0.000417	2.1e-05
332.13	0.000414	2.1e-05
332.13	0.00041	2.1e-05
335.18	0.000584	2.9e-05
335.18	0.000582	2.9e-05
335.18	0.000576	2.9e-05
337.14	0.000734	3.7e-05
337.14	0.000734	3.7e-05
337.14	0.000721	3.6e-05
339.15	0.000934	4.7e-05
339.15	0.000935	4.7e-05
339.15	0.00092	4.6e-05

System: 3-chlorobenzoic acid; phases: Crystal, Liquid, Air at 1 atmosphere
Property: Molar enthalpy of transition or fusion, kJ/mol (Crystal); method: DSC:FP
Molar enthalpy of transition or fusion, kJ/mol	uncertainty
23.67	0.56

System: 3-chlorobenzoic acid; phases: Crystal, Liquid, Air at 1 atmosphere
Property: Normal melting temperature, K (Crystal); method: DTA:FP
Normal melting temperature, K	uncertainty
427.87	0.55

System: 3-chlorobenzoic acid; phases: Crystal, Gas
Property: Vapor or sublimation pressure, kPa (Crystal); method: Calculated from knudsen effusion weight loss
Temperature, K	Vapor or sublimation pressure, kPa	uncertainty
320.13	0.000109	5e-06
320.13	0.000106	5e-06
320.13	0.000104	5e-06
321.18	0.000122	6e-06
321.18	0.00012	6e-06
321.18	0.000117	6e-06
324.17	0.000173	9e-06
324.17	0.000171	9e-06
324.17	0.00017	9e-06
327.14	0.000245	1.2e-05
327.14	0.000241	1.2e-05
327.14	0.000236	1.2e-05
330.15	0.000335	1.7e-05
330.15	0.000327	1.6e-05
330.15	0.000324	1.6e-05
333.17	0.000474	2.4e-05
333.17	0.000472	2.4e-05
333.17	0.00047	2.4e-05
336.13	0.000655	3.3e-05
336.13	0.000644	3.2e-05
336.13	0.000644	3.2e-05
339.01	0.000896	4.5e-05
339.01	0.000873	4.4e-05
339.01	0.000877	4.4e-05
340.13	0.001012	0.000101
340.13	0.000984	4.9e-05
340.13	0.00099	5e-05

System: 4-chlorobenzoic acid; phases: Crystal, Liquid, Air at 1 atmosphere
Property: Molar enthalpy of transition or fusion, kJ/mol (Crystal); method: DSC:FP
Molar enthalpy of transition or fusion, kJ/mol	uncertainty
30.91	0.92

System: 4-chlorobenzoic acid; phases: Crystal, Liquid, Air at 1 atmosphere
Property: Normal melting temperature, K (Crystal); method: DTA:FP
Normal melting temperature, K	uncertainty
512.5	0.58

System: 4-chlorobenzoic acid; phases: Crystal, Gas
Property: Vapor or sublimation pressure, kPa (Crystal); method: Calculated from knudsen effusion weight loss
Temperature, K	Vapor or sublimation pressure, kPa	uncertainty
333.15	8.1e-05	4e-06
333.15	8e-05	4e-06
333.15	8e-05	4e-06
334.65	9.5e-05	5e-06
334.65	9.6e-05	5e-06
334.65	9.4e-05	5e-06
337.15	0.000124	6e-06
337.15	0.000124	6e-06
337.15	0.000123	6e-06
339.66	0.000168	8e-06
339.66	0.000163	8e-06
339.66	0.000162	8e-06
342.15	0.000224	1.1e-05
342.15	0.000222	1.1e-05
342.15	0.000214	1.1e-05
344.63	0.000285	1.4e-05
344.63	0.000274	1.4e-05
347.13	0.000376	1.9e-05
347.13	0.000367	1.8e-05
347.13	0.000362	1.8e-05
349.62	0.000488	2.4e-05
349.62	0.00048	2.4e-05
349.62	0.00047	2.4e-05
352.14	0.000595	3e-05
352.14	0.000594	3e-05
354.65	0.000787	3.9e-05
354.65	0.00078	3.9e-05
354.65	0.000756	3.8e-05
356.14	0.000875	4.4e-05
356.14	0.000877	4.4e-05
356.14	0.000879	4.4e-05

System: 2-bromobenzoic acid; phases: Crystal, Liquid, Air at 1 atmosphere
Property: Molar enthalpy of transition or fusion, kJ/mol (Crystal); method: DSC:FP
Molar enthalpy of transition or fusion, kJ/mol	uncertainty
24.83	0.85

System: 2-bromobenzoic acid; phases: Crystal, Liquid, Air at 1 atmosphere
Property: Normal melting temperature, K (Crystal); method: DTA:FP
Normal melting temperature, K	uncertainty
421.6	0.56

System: 2-bromobenzoic acid; phases: Crystal, Gas
Property: Vapor or sublimation pressure, kPa (Crystal); method: Calculated from knudsen effusion weight loss
Temperature, K	Vapor or sublimation pressure, kPa	uncertainty
327.56	9.4e-05	5e-06
327.56	9.4e-05	5e-06
327.56	9.1e-05	5e-06
330.16	0.000127	6e-06
330.16	0.000126	6e-06
330.16	0.000125	6e-06
332.67	0.000169	8e-06
332.67	0.000174	9e-06
332.67	0.000167	8e-06
335.15	0.000224	1.1e-05
335.15	0.000227	1.1e-05
335.15	0.000223	1.1e-05
337.69	0.000297	1.5e-05
337.69	0.000299	1.5e-05
337.69	0.000296	1.5e-05
340.16	0.000402	2e-05
340.16	0.000394	2e-05
340.16	0.000392	2e-05
342.63	0.000533	2.7e-05
342.63	0.000524	2.6e-05
345.16	0.000665	3.3e-05
345.16	0.000698	3.5e-05
345.16	0.000678	3.4e-05
347.68	0.000908	4.5e-05
347.68	0.000897	4.5e-05
347.68	0.000878	4.4e-05

System: 3-bromobenzoic acid; phases: Crystal, Liquid, Air at 1 atmosphere
Property: Molar enthalpy of transition or fusion, kJ/mol (Crystal); method: DSC:FP
Molar enthalpy of transition or fusion, kJ/mol	uncertainty
24.91	0.56

System: 3-bromobenzoic acid; phases: Crystal, Liquid, Air at 1 atmosphere
Property: Normal melting temperature, K (Crystal); method: DTA:FP
Normal melting temperature, K	uncertainty
430.08	0.45

System: 3-bromobenzoic acid; phases: Crystal, Gas
Property: Vapor or sublimation pressure, kPa (Crystal); method: Calculated from knudsen effusion weight loss
Temperature, K	Vapor or sublimation pressure, kPa	uncertainty
327.67	0.000111	6e-06
327.67	0.000111	6e-06
327.67	0.000113	6e-06
330.66	0.00016	8e-06
330.66	0.000152	8e-06
332.64	0.0002	1e-05
332.64	0.0002	1e-05
332.64	0.000196	1e-05
335.16	0.000253	1.3e-05
335.16	0.000261	1.3e-05
335.16	0.00025	1.3e-05
337.71	0.000354	1.8e-05
337.71	0.000351	1.8e-05
337.71	0.00035	1.8e-05
340.14	0.000464	2.3e-05
340.14	0.000451	2.3e-05
340.14	0.00045	2.3e-05
342.65	0.000596	3e-05
342.65	0.00059	3e-05
342.65	0.000584	2.9e-05
345.15	0.000783	3.9e-05
345.15	0.00077	3.9e-05
345.15	0.000767	3.8e-05
347.6	0.000995	5e-05
347.6	0.001004	0.000101
347.6	0.000982	4.9e-05
