Measured thermophysical data. Experimental densities, refractive indices, and speeds of sound of 12 binary mixtures containing alkanes and aromatic compounds at T = 313.15 K
Source: J. Chem. Thermodyn., 2009, 10.1016/j.jct.2009.03.009
Compound 1: benzene, C6H6, InChI=1S/C6H6/c1-2-4-6-5-3-1/h1-6H, purity 99.8%
Compound 2: hexane, C6H14, InChI=1S/C6H14/c1-3-5-6-4-2/h3-6H2,1-2H3, purity 99%
Compound 3: toluene, C7H8, InChI=1S/C7H8/c1-7-5-3-2-4-6-7/h2-6H,1H3, purity 99.8%
Compound 4: ethylbenzene, C8H10, InChI=1S/C8H10/c1-2-8-6-4-3-5-7-8/h3-7H,2H2,1H3, purity 99.8%
Compound 5: heptane, C7H16, InChI=1S/C7H16/c1-3-5-7-6-4-2/h3-7H2,1-2H3, purity 99.5%
Compound 6: octane, C8H18, InChI=1S/C8H18/c1-3-5-7-8-6-4-2/h3-8H2,1-2H3, purity 99.5%
Compound 7: nonane, C9H20, InChI=1S/C9H20/c1-3-5-7-9-8-6-4-2/h3-9H2,1-2H3, purity 99%

System: benzene + hexane; phases: Liquid
Fixed: Temperature, K = 313.15
Fixed: Pressure, kPa = 101
Property: Refractive index (Na D-line) (Liquid); method: Standard Abbe refractometry
Mole fraction of hexane	Refractive index (Na D-line)	uncertainty
0	1.48752	0.00068
0.0378	1.48075	0.00068
0.1009	1.46941	0.00068
0.1986	1.45313	0.00068
0.2979	1.43818	0.00068
0.402	1.42416	0.00069
0.6024	1.40043	0.00069
0.7014	1.39011	0.00069
0.801	1.38019	0.0007
0.9083	1.37148	0.0007
0.9464	1.36837	0.0007
1	1.36411	0.0007

System: benzene + hexane; phases: Liquid
Fixed: Temperature, K = 313.15
Fixed: Pressure, kPa = 101
Property: Speed of sound, m/s (Liquid); method: Sing-around technique in a fixed-path interferometer
Mole fraction of hexane	Speed of sound, m/s	uncertainty
0	1230	2.2
0.0378	1214.8	2.2
0.1009	1191.1	2.2
0.1986	1158.5	2.2
0.2979	1129.8	2.2
0.402	1104.3	2.2
0.6024	1063.9	2.2
0.7014	1047.7	2.3
0.801	1033.2	2.3
0.9083	1020.2	2.3
0.9464	1015.9	2.3
1	1010.3	2.3

System: benzene + hexane; phases: Liquid
Fixed: Temperature, K = 313.15
Fixed: Pressure, kPa = 101
Property: Mass density, kg/m3 (Liquid); method: Vibrating tube method
Mole fraction of hexane	Mass density, kg/m3	uncertainty
0	857.4	0.2
0.0378	845.3	0.2
0.1009	825.8	0.2
0.1986	797.9	0.2
0.2979	772.2	0.3
0.402	747.7	0.3
0.6024	706.3	0.3
0.7014	688.2	0.3
0.801	671.4	0.3
0.9083	654.9	0.3
0.9464	649.2	0.3
1	641.4	0.3

System: toluene + hexane; phases: Liquid
Fixed: Temperature, K = 313.15
Fixed: Pressure, kPa = 101
Property: Refractive index (Na D-line) (Liquid); method: Standard Abbe refractometry
Mole fraction of hexane	Refractive index (Na D-line)	uncertainty
0	1.48464	0.00068
0.1032	1.47028	0.00068
0.198	1.4571	0.00068
0.2997	1.44367	0.00068
0.4027	1.43045	0.00069
0.5005	1.41844	0.00069
0.5998	1.40685	0.00069
0.6987	1.3956	0.00069
0.7984	1.38476	0.0007
0.9042	1.37387	0.0007
1	1.36411	0.0007

System: toluene + hexane; phases: Liquid
Fixed: Temperature, K = 313.15
Fixed: Pressure, kPa = 101
Property: Speed of sound, m/s (Liquid); method: Sing-around technique in a fixed-path interferometer
Mole fraction of hexane	Speed of sound, m/s	uncertainty
0	1240.7	2.2
0.1032	1208.5	2.2
0.198	1180.8	2.2
0.2997	1153.5	2.2
0.4027	1127.5	2.2
0.5005	1104.6	2.2
0.5998	1083.1	2.2
0.6987	1063.3	2.3
0.7984	1044.5	2.3
0.9042	1026.3	2.3
1	1010.3	2.3

System: toluene + hexane; phases: Liquid
Fixed: Temperature, K = 313.15
Fixed: Pressure, kPa = 101
Property: Mass density, kg/m3 (Liquid); method: Vibrating tube method
Mole fraction of hexane	Mass density, kg/m3	uncertainty
0	848	0.2
0.1032	822.9	0.2
0.198	800.5	0.2
0.2997	777.5	0.3
0.4027	755.1	0.3
0.5005	734.6	0.3
0.5998	714.7	0.3
0.6987	695.5	0.3
0.7984	677	0.3
0.9042	658.1	0.3
1	641.4	0.3

System: ethylbenzene + hexane; phases: Liquid
Fixed: Temperature, K = 313.15
Fixed: Pressure, kPa = 101
Property: Refractive index (Na D-line) (Liquid); method: Standard Abbe refractometry
Mole fraction of hexane	Refractive index (Na D-line)	uncertainty
0	1.48426	0.00068
0.0465	1.47929	0.00068
0.0771	1.47548	0.00068
0.201	1.46016	0.00068
0.3015	1.44756	0.00068
0.399	1.43582	0.00068
0.5092	1.42251	0.00069
0.601	1.41135	0.00069
0.7012	1.39924	0.00069
0.7999	1.38766	0.0007
0.8993	1.3759	0.0007
0.9534	1.36962	0.0007
1	1.36411	0.0007

System: ethylbenzene + hexane; phases: Liquid
Fixed: Temperature, K = 313.15
Fixed: Pressure, kPa = 101
Property: Speed of sound, m/s (Liquid); method: Sing-around technique in a fixed-path interferometer
Mole fraction of hexane	Speed of sound, m/s	uncertainty
0	1256.9	2.2
0.0465	1243.8	2.2
0.0771	1235	2.2
0.201	1200.8	2.2
0.3015	1173.9	2.2
0.399	1148.5	2.2
0.5092	1121.1	2.2
0.601	1098.9	2.2
0.7012	1075.7	2.3
0.7999	1054.1	2.3
0.8993	1031.8	2.3
0.9534	1020.3	2.3
1	1010.3	2.3

System: ethylbenzene + hexane; phases: Liquid
Fixed: Temperature, K = 313.15
Fixed: Pressure, kPa = 101
Property: Mass density, kg/m3 (Liquid); method: Vibrating tube method
Mole fraction of hexane	Mass density, kg/m3	uncertainty
0	849.2	0.2
0.0465	839.4	0.2
0.0771	832.8	0.2
0.201	806.5	0.2
0.3015	785.2	0.3
0.399	764.7	0.3
0.5092	741.7	0.3
0.601	722.6	0.3
0.7012	702	0.3
0.7999	681.9	0.3
0.8993	661.7	0.3
0.9534	650.8	0.3
1	641.4	0.3

System: benzene + heptane; phases: Liquid
Fixed: Temperature, K = 313.15
Fixed: Pressure, kPa = 101
Property: Refractive index (Na D-line) (Liquid); method: Standard Abbe refractometry
Mole fraction of heptane	Refractive index (Na D-line)	uncertainty
0	1.48752	0.00068
0.0511	1.47784	0.00068
0.1025	1.46808	0.00068
0.1998	1.45273	0.00068
0.2987	1.43808	0.00068
0.3972	1.42586	0.00068
0.5013	1.4148	0.00068
0.5998	1.40552	0.00068
0.698	1.39777	0.00068
0.8043	1.38985	0.00068
0.9013	1.38322	0.00068
0.9518	1.38025	0.00068
1	1.37737	0.00068

System: benzene + heptane; phases: Liquid
Fixed: Temperature, K = 313.15
Fixed: Pressure, kPa = 101
Property: Speed of sound, m/s (Liquid); method: Sing-around technique in a fixed-path interferometer
Mole fraction of heptane	Speed of sound, m/s	uncertainty
0	1230	2.2
0.0511	1210.9	2.2
0.1025	1193.3	2.2
0.1998	1165.5	2.2
0.2987	1142.8	2.2
0.3972	1124.4	2.2
0.5013	1108.9	2.2
0.5998	1096.8	2.2
0.698	1086.4	2.2
0.8043	1077.8	2.2
0.9013	1071.6	2.2
0.9518	1068.8	2.2
1	1066.5	2.2

System: benzene + heptane; phases: Liquid
Fixed: Temperature, K = 313.15
Fixed: Pressure, kPa = 101
Property: Mass density, kg/m3 (Liquid); method: Vibrating tube method
Mole fraction of heptane	Mass density, kg/m3	uncertainty
0	857.4	0.2
0.0511	840.8	0.2
0.1025	825.2	0.2
0.1998	798.6	0.3
0.2987	775	0.3
0.3972	754.3	0.3
0.5013	734.9	0.3
0.5998	718.5	0.3
0.698	703.7	0.3
0.8043	689.4	0.3
0.9013	677.7	0.3
0.9518	671.9	0.3
1	666.6	0.3

System: toluene + heptane; phases: Liquid
Fixed: Temperature, K = 313.15
Fixed: Pressure, kPa = 101
Property: Refractive index (Na D-line) (Liquid); method: Standard Abbe refractometry
Mole fraction of heptane	Refractive index (Na D-line)	uncertainty
0	1.48464	0.00068
0.0496	1.47712	0.00068
0.1037	1.46965	0.00068
0.204	1.45586	0.00068
0.406	1.43176	0.00068
0.5045	1.42117	0.00068
0.6016	1.41138	0.00068
0.7011	1.40201	0.00068
0.8029	1.39298	0.00068
0.9019	1.38489	0.00068
0.9517	1.38102	0.00068
1	1.37737	0.00068

System: toluene + heptane; phases: Liquid
Fixed: Temperature, K = 313.15
Fixed: Pressure, kPa = 101
Property: Speed of sound, m/s (Liquid); method: Sing-around technique in a fixed-path interferometer
Mole fraction of heptane	Speed of sound, m/s	uncertainty
0	1240.7	2.2
0.0496	1225.2	2.2
0.1037	1211.4	2.2
0.204	1185.7	2.2
0.406	1144.8	2.2
0.5045	1127.8	2.2
0.6016	1113.1	2.2
0.7011	1099.4	2.2
0.8029	1087	2.2
0.9019	1075.9	2.2
0.9517	1071.2	2.2
1	1066.5	2.2

System: toluene + heptane; phases: Liquid
Fixed: Temperature, K = 313.15
Fixed: Pressure, kPa = 101
Property: Mass density, kg/m3 (Liquid); method: Vibrating tube method
Mole fraction of heptane	Mass density, kg/m3	uncertainty
0	848	0.2
0.0496	835.7	0.2
0.1037	822.8	0.2
0.204	800.2	0.2
0.406	759.4	0.3
0.5045	741.5	0.3
0.6016	724.9	0.3
0.7011	709	0.3
0.8029	693.7	0.3
0.9019	679.7	0.3
0.9517	673	0.3
1	666.6	0.3

System: ethylbenzene + heptane; phases: Liquid
Fixed: Temperature, K = 313.15
Fixed: Pressure, kPa = 101
Property: Refractive index (Na D-line) (Liquid); method: Standard Abbe refractometry
Mole fraction of heptane	Refractive index (Na D-line)	uncertainty
0	1.48426	0.00068
0.0494	1.47846	0.00068
0.1039	1.47131	0.00068
0.2025	1.4594	0.00068
0.3022	1.44788	0.00068
0.4038	1.43628	0.00068
0.5006	1.42574	0.00068
0.6003	1.41536	0.00068
0.7014	1.40513	0.00068
0.8048	1.39516	0.00068
0.9028	1.38607	0.00068
1	1.37737	0.00068

System: ethylbenzene + heptane; phases: Liquid
Fixed: Temperature, K = 313.15
Fixed: Pressure, kPa = 101
Property: Speed of sound, m/s (Liquid); method: Sing-around technique in a fixed-path interferometer
Mole fraction of heptane	Speed of sound, m/s	uncertainty
0	1256.9	2.2
0.0494	1243.9	2.2
0.1039	1229.8	2.2
0.2025	1205.9	2.2
0.3022	1183.7	2.2
0.4038	1162.6	2.2
0.5006	1144.6	2.2
0.6003	1126.9	2.2
0.7014	1109.8	2.2
0.8048	1094.8	2.2
0.9028	1079.9	2.2
1	1066.5	2.2

System: ethylbenzene + heptane; phases: Liquid
Fixed: Temperature, K = 313.15
Fixed: Pressure, kPa = 101
Property: Mass density, kg/m3 (Liquid); method: Vibrating tube method
Mole fraction of heptane	Mass density, kg/m3	uncertainty
0	849.2	0.2
0.0494	838.5	0.2
0.1039	826.9	0.2
0.2025	806.7	0.2
0.3022	786.8	0.2
0.4038	767.2	0.3
0.5006	749.3	0.3
0.6003	731.6	0.3
0.7014	714.3	0.3
0.8048	697.3	0.3
0.9028	681.7	0.3
1	666.6	0.3

System: benzene + octane; phases: Liquid
Fixed: Temperature, K = 313.15
Fixed: Pressure, kPa = 101
Property: Refractive index (Na D-line) (Liquid); method: Standard Abbe refractometry
Mole fraction of octane	Refractive index (Na D-line)	uncertainty
0	1.48752	0.00068
0.0541	1.4762	0.00068
0.1014	1.46817	0.00068
0.202	1.45259	0.00068
0.3022	1.4384	0.00068
0.404	1.42757	0.00068
0.5023	1.41799	0.00068
0.6011	1.41072	0.00068
0.7087	1.4035	0.00068
0.8051	1.3977	0.00068
0.9015	1.39253	0.00068
0.9514	1.39004	0.00068
1	1.38769	0.00068

System: benzene + octane; phases: Liquid
Fixed: Temperature, K = 313.15
Fixed: Pressure, kPa = 101
Property: Speed of sound, m/s (Liquid); method: Sing-around technique in a fixed-path interferometer
Mole fraction of octane	Speed of sound, m/s	uncertainty
0	1230	2.2
0.0541	1210.5	2.2
0.1014	1196.3	2.2
0.202	1172.2	2.2
0.3022	1154.3	2.2
0.404	1140.9	2.2
0.5023	1131	2.2
0.6011	1123.7	2.2
0.7087	1118	2.2
0.8051	1114.4	2.2
0.9015	1112.1	2.2
0.9514	1111.2	2.2
1	1110.6	2.2

System: benzene + octane; phases: Liquid
Fixed: Temperature, K = 313.15
Fixed: Pressure, kPa = 101
Property: Mass density, kg/m3 (Liquid); method: Vibrating tube method
Mole fraction of octane	Mass density, kg/m3	uncertainty
0	857.4	0.2
0.0541	839.6	0.2
0.1014	825.5	0.2
0.202	799.3	0.2
0.3022	777.2	0.2
0.404	758.4	0.3
0.5023	742.2	0.3
0.6011	728.3	0.3
0.7087	714.9	0.3
0.8051	704.4	0.3
0.9015	695	0.3
0.9514	690.5	0.3
1	686.3	0.3

System: toluene + octane; phases: Liquid
Fixed: Temperature, K = 313.15
Fixed: Pressure, kPa = 101
Property: Refractive index (Na D-line) (Liquid); method: Standard Abbe refractometry
Mole fraction of octane	Refractive index (Na D-line)	uncertainty
0	1.48509	0.00068
0.0542	1.47708	0.00068
0.1022	1.46982	0.00068
0.2014	1.45667	0.00068
0.3037	1.44463	0.00068
0.3965	1.43362	0.00068
0.4983	1.42473	0.00068
0.5986	1.41567	0.00068
0.7016	1.4075	0.00068
0.8007	1.40046	0.00068
0.902	1.39376	0.00068
0.9493	1.39079	0.00068
1	1.38769	0.00068

System: toluene + octane; phases: Liquid
Fixed: Temperature, K = 313.15
Fixed: Pressure, kPa = 101
Property: Speed of sound, m/s (Liquid); method: Sing-around technique in a fixed-path interferometer
Mole fraction of octane	Speed of sound, m/s	uncertainty
0	1240.7	2.2
0.0542	1226.2	2.2
0.1022	1214.8	2.2
0.2014	1194.1	2.2
0.3037	1176.2	2.2
0.3965	1162.3	2.2
0.4983	1149.7	2.2
0.5986	1139.1	2.2
0.7016	1130	2.2
0.8007	1122.5	2.2
0.902	1116.1	2.2
0.9493	1113.1	2.2
1	1110.6	2.2

System: toluene + octane; phases: Liquid
Fixed: Temperature, K = 313.15
Fixed: Pressure, kPa = 101
Property: Mass density, kg/m3 (Liquid); method: Vibrating tube method
Mole fraction of octane	Mass density, kg/m3	uncertainty
0	848	0.2
0.0542	834.6	0.2
0.1022	823.4	0.2
0.2014	802	0.2
0.3037	782	0.2
0.3965	765.5	0.3
0.4983	749.1	0.3
0.5986	734.3	0.3
0.7016	720.5	0.3
0.8007	708.4	0.3
0.902	696.6	0.3
0.9493	691.6	0.3
1	686.3	0.3

System: ethylbenzene + octane; phases: Liquid
Fixed: Temperature, K = 313.15
Fixed: Pressure, kPa = 101
Property: Refractive index (Na D-line) (Liquid); method: Standard Abbe refractometry
Mole fraction of octane	Refractive index (Na D-line)	uncertainty
0	1.48426	0.00068
0.0536	1.47786	0.00068
0.1028	1.47159	0.00068
0.2037	1.45954	0.00068
0.3032	1.4483	0.00068
0.4015	1.43795	0.00068
0.5013	1.42817	0.00068
0.6039	1.41883	0.00068
0.701	1.41043	0.00068
0.7996	1.40254	0.00068
0.9012	1.39489	0.00068
0.9515	1.39112	0.00068
1	1.38769	0.00068

System: ethylbenzene + octane; phases: Liquid
Fixed: Temperature, K = 313.15
Fixed: Pressure, kPa = 101
Property: Speed of sound, m/s (Liquid); method: Sing-around technique in a fixed-path interferometer
Mole fraction of octane	Speed of sound, m/s	uncertainty
0	1256.9	2.2
0.0536	1244.1	2.2
0.1028	1232.9	2.2
0.2037	1212.1	2.2
0.3032	1193.8	2.2
0.4015	1177.7	2.2
0.5013	1163.3	2.2
0.6039	1150.1	2.2
0.701	1138.8	2.2
0.7996	1128.3	2.2
0.9012	1119.3	2.2
0.9515	1115	2.2
1	1110.6	2.2

System: ethylbenzene + octane; phases: Liquid
Fixed: Temperature, K = 313.15
Fixed: Pressure, kPa = 101
Property: Mass density, kg/m3 (Liquid); method: Vibrating tube method
Mole fraction of octane	Mass density, kg/m3	uncertainty
0	849.2	0.2
0.0536	837.6	0.2
0.1028	827.4	0.2
0.2037	807.4	0.2
0.3032	788.7	0.2
0.4015	771.4	0.3
0.5013	755	0.3
0.6039	739.2	0.3
0.701	725.1	0.3
0.7996	711.6	0.3
0.9012	698.6	0.3
0.9515	692.3	0.3
1	686.3	0.3

System: benzene + nonane; phases: Liquid
Fixed: Temperature, K = 313.15
Fixed: Pressure, kPa = 101
Property: Refractive index (Na D-line) (Liquid); method: Standard Abbe refractometry
Mole fraction of nonane	Refractive index (Na D-line)	uncertainty
0	1.48752	0.00068
0.0535	1.47693	0.00068
0.1025	1.46801	0.00068
0.2013	1.45327	0.00068
0.3006	1.44079	0.00068
0.3997	1.43104	0.00068
0.5	1.42229	0.00069
0.5992	1.41549	0.00069
0.7052	1.40945	0.00069
0.8034	1.40436	0.0007
0.9018	1.3999	0.0007
0.9499	1.39796	0.0007
1	1.39609	0.0007

System: benzene + nonane; phases: Liquid
Fixed: Temperature, K = 313.15
Fixed: Pressure, kPa = 101
Property: Speed of sound, m/s (Liquid); method: Sing-around technique in a fixed-path interferometer
Mole fraction of nonane	Speed of sound, m/s	uncertainty
0	1230	2.2
0.0535	1212.1	2.2
0.1025	1199	2.2
0.2013	1179.5	2.2
0.3006	1166.1	2.2
0.3997	1157.2	2.2
0.5	1151.4	2.2
0.5992	1147.7	2.2
0.7052	1145.9	2.3
0.8034	1145.2	2.3
0.9018	1145.6	2.3
0.9499	1145.9	2.3
1	1146.4	2.4

System: benzene + nonane; phases: Liquid
Fixed: Temperature, K = 313.15
Fixed: Pressure, kPa = 101
Property: Mass density, kg/m3 (Liquid); method: Vibrating tube method
Mole fraction of nonane	Mass density, kg/m3	uncertainty
0	857.4	0.2
0.0535	839.7	0.2
0.1025	825.4	0.2
0.2013	800.8	0.2
0.3006	780.6	0.3
0.3997	763.8	0.3
0.5	749.5	0.3
0.5992	737.3	0.3
0.7052	726.2	0.3
0.8034	717.2	0.3
0.9018	709.3	0.3
0.9499	705.7	0.3
1	702.2	0.3

System: toluene + nonane; phases: Liquid
Fixed: Temperature, K = 313.15
Fixed: Pressure, kPa = 101
Property: Refractive index (Na D-line) (Liquid); method: Standard Abbe refractometry
Mole fraction of nonane	Refractive index (Na D-line)	uncertainty
0	1.48464	0.00068
0.1045	1.4692	0.00068
0.2019	1.45691	0.00068
0.3002	1.44571	0.00068
0.4021	1.43571	0.00068
0.502	1.42674	0.00069
0.601	1.41934	0.00069
0.696	1.41289	0.00069
0.8032	1.40639	0.0007
0.9022	1.40097	0.0007
0.9501	1.3985	0.0007
1	1.39609	0.0007

System: toluene + nonane; phases: Liquid
Fixed: Temperature, K = 313.15
Fixed: Pressure, kPa = 101
Property: Speed of sound, m/s (Liquid); method: Sing-around technique in a fixed-path interferometer
Mole fraction of nonane	Speed of sound, m/s	uncertainty
0	1240.7	2.2
0.1045	1217.6	2.2
0.2019	1200.3	2.2
0.3002	1187	2.2
0.4021	1176	2.2
0.502	1167.7	2.2
0.601	1161.1	2.2
0.696	1156.2	2.3
0.8032	1151.8	2.3
0.9022	1148.9	2.3
0.9501	1147.7	2.3
1	1146.4	2.4

System: toluene + nonane; phases: Liquid
Fixed: Temperature, K = 313.15
Fixed: Pressure, kPa = 101
Property: Mass density, kg/m3 (Liquid); method: Vibrating tube method
Mole fraction of nonane	Mass density, kg/m3	uncertainty
0	848	0.2
0.1045	823.2	0.2
0.2019	802.9	0.2
0.3002	785	0.3
0.4021	768.7	0.3
0.502	754.5	0.3
0.601	741.9	0.3
0.696	731	0.3
0.8032	719.9	0.3
0.9022	710.6	0.3
0.9501	706.4	0.3
1	702.2	0.3

System: ethylbenzene + nonane; phases: Liquid
Fixed: Temperature, K = 313.15
Fixed: Pressure, kPa = 101
Property: Refractive index (Na D-line) (Liquid); method: Standard Abbe refractometry
Mole fraction of nonane	Refractive index (Na D-line)	uncertainty
0	1.48426	0.00068
0.0527	1.47759	0.00068
0.1043	1.47111	0.00068
0.2032	1.45968	0.00068
0.3009	1.44884	0.00068
0.4018	1.43899	0.00068
0.5009	1.43055	0.00069
0.6003	1.42241	0.00069
0.7012	1.41482	0.00069
0.8044	1.40792	0.0007
0.9026	1.40178	0.0007
0.9519	1.39883	0.0007
1	1.39609	0.0007

System: ethylbenzene + nonane; phases: Liquid
Fixed: Temperature, K = 313.15
Fixed: Pressure, kPa = 101
Property: Speed of sound, m/s (Liquid); method: Sing-around technique in a fixed-path interferometer
Mole fraction of nonane	Speed of sound, m/s	uncertainty
0	1256.9	2.2
0.0527	1245.4	2.2
0.1043	1234.9	2.2
0.2032	1217.6	2.2
0.3009	1203.2	2.2
0.4018	1190.7	2.2
0.5009	1180.1	2.2
0.6003	1171.2	2.2
0.7012	1163.5	2.3
0.8044	1156.7	2.3
0.9026	1151.1	2.3
0.9519	1148.8	2.3
1	1146.4	2.4

System: ethylbenzene + nonane; phases: Liquid
Fixed: Temperature, K = 313.15
Fixed: Pressure, kPa = 101
Property: Mass density, kg/m3 (Liquid); method: Vibrating tube method
Mole fraction of nonane	Mass density, kg/m3	uncertainty
0	849.2	0.2
0.0527	837.7	0.2
0.1043	827.1	0.2
0.2032	808.1	0.2
0.3009	791	0.3
0.4018	774.9	0.3
0.5009	760.3	0.3
0.6003	746.9	0.3
0.7012	734.4	0.3
0.8044	722.4	0.3
0.9026	712	0.3
0.9519	707	0.3
1	702.2	0.3
