Measured thermophysical data. Liquid-liquid equilibrium for ternary systems of water + 2,2,3,3-tetrafluoro-1-propanol + isopropyl ether/tert-butyl methyl ether at 298.2, 308.2 K
Source: J. Chem. Thermodyn., 2018, 10.1016/j.jct.2018.04.006
Compound 1: 2,2,3,3-tetrafluoro-1-propanol, C3H4F4O, InChI=1S/C3H4F4O/c4-2(5)3(6,7)1-8/h2,8H,1H2, purity 98%
Compound 2: diisopropyl ether, C6H14O, InChI=1S/C6H14O/c1-5(2)7-6(3)4/h5-6H,1-4H3, purity 99%
Compound 3: 2-methoxy-2-methylpropane, C5H12O, InChI=1S/C5H12O/c1-5(2,3)6-4/h1-4H3, purity 99%
Compound 4: water, H2O, InChI=1S/H2O/h1H2, purity 99.8%

System: water + 2,2,3,3-tetrafluoro-1-propanol + diisopropyl ether; phases: Liquid mixture 2, Liquid mixture 1
Fixed: Pressure, kPa = 101.3
Property: Mass fraction of water (Liquid mixture 2); method: Chromatography
Property: Mass fraction of water (Liquid mixture 1); method: Chromatography
Property: Mass fraction of 2,2,3,3-tetrafluoro-1-propanol (Liquid mixture 1); method: Chromatography
Temperature, K	Mass fraction of 2,2,3,3-tetrafluoro-1-propanol	Mass fraction of water	uncertainty	Mass fraction of water	uncertainty	Mass fraction of 2,2,3,3-tetrafluoro-1-propanol	uncertainty
298.2	0	0.992	0.0064	0.006	0.006	0	
298.2	0.035	0.9559	0.0093	0.0292	0.0064	0.2975	
298.2	0.0387	0.9533	0.0087	0.0344	0.0066	0.3187	
308.2	0	0.9928	0.0064	0.0058	0.0058	0	
308.2	0.0048	0.9855	0.0078	0.0084	0.0065	0.0472	
308.2	0.01	0.98	0.0098	0.0189	0.0065	0.0962	
308.2	0.0142	0.9768	0.009	0.0208	0.0064	0.1369	
308.2	0.0195	0.9702	0.0089	0.02	0.0064	0.1761	
308.2	0.0233	0.9671	0.0086	0.0233	0.0064	0.2079	
308.2	0.0284	0.9624	0.0084	0.0241	0.0065	0.243	
308.2	0.0329	0.9602	0.0084	0.0313	0.0064	0.2713	
298.2	0.0037	0.9848	0.0072	0.0087	0.0064	0.0361	
308.2	0.0377	0.9549	0.0084	0.031	0.0064	0.3023	
308.2	0.0423	0.9509	0.009	0.0334	0.0064	0.3246	
308.2	0.0471	0.9466	0.0085	0.0329	0.0064	0.3533	
298.2	0.0079	0.9813	0.0105	0.0145	0.0064	0.0796	
298.2	0.0118	0.9777	0.0092	0.0155	0.0064	0.1208	
298.2	0.0151	0.9723	0.009	0.02	0.0065	0.1524	
298.2	0.0187	0.9694	0.0085	0.0264	0.0065	0.1837	
298.2	0.0237	0.9656	0.008	0.0307	0.0064	0.2184	
298.2	0.0271	0.9643	0.0083	0.0312	0.0064	0.2484	
298.2	0.0307	0.9607	0.0083	0.0307	0.0064	0.2736	

System: water + 2,2,3,3-tetrafluoro-1-propanol + 2-methoxy-2-methylpropane; phases: Liquid mixture 2, Liquid mixture 1
Fixed: Pressure, kPa = 101.3
Property: Mass fraction of water (Liquid mixture 2); method: Chromatography
Property: Mass fraction of water (Liquid mixture 1); method: Chromatography
Property: Mass fraction of 2,2,3,3-tetrafluoro-1-propanol (Liquid mixture 1); method: Chromatography
Temperature, K	Mass fraction of 2,2,3,3-tetrafluoro-1-propanol	Mass fraction of water	uncertainty	Mass fraction of water	uncertainty	Mass fraction of 2,2,3,3-tetrafluoro-1-propanol	uncertainty
298.2	0	0.9595	0.0064	0.0141	0.0064	0	
308.2	0.0389	0.928	0.0078	0.055	0.0065	0.3359	
308.2	0.048	0.9202	0.0084	0.0541	0.0064	0.366	
298.2	0.0016	0.9525	0.0065	0.02	0.0065	0.0444	
298.2	0.0035	0.9508	0.0068	0.0272	0.0064	0.0852	
298.2	0.006	0.9491	0.0074	0.0292	0.0064	0.1315	
298.2	0.0081	0.9471	0.0077	0.0336	0.0064	0.1696	
298.2	0.0121	0.945	0.0079	0.0354	0.0064	0.2058	
298.2	0.0157	0.9432	0.0075	0.0371	0.0065	0.2351	
298.2	0.0179	0.9408	0.0075	0.0435	0.0065	0.2591	
298.2	0.0208	0.9382	0.0075	0.0435	0.0064	0.2875	
298.2	0.0308	0.9335	0.0071	0.043	0.0064	0.3429	
308.2	0	0.9633	0.0064	0.0178	0.0064	0	
308.2	0.002	0.963	0.0069	0.0246	0.0065	0.0489	
308.2	0.0046	0.9595	0.0092	0.0315	0.0065	0.0939	
308.2	0.0071	0.9554	0.0097	0.0353	0.0064	0.1373	
308.2	0.0107	0.9513	0.0101	0.0369	0.0064	0.1752	
308.2	0.0131	0.9473	0.01	0.0372	0.0064	0.2154	
308.2	0.0226	0.9378	0.0079	0.0443	0.0065	0.2871	

System: water + diisopropyl ether; phases: Liquid mixture 2, Liquid mixture 1
Fixed: Pressure, kPa = 101.3
Property: Mass fraction of water (Liquid mixture 2); method: Chromatography
Temperature, K	Mass fraction of water	uncertainty
298.2	0.992	0.0064
308.2	0.9928	0.0064

System: water + diisopropyl ether; phases: Liquid mixture 1, Liquid mixture 2
Fixed: Pressure, kPa = 101.3
Property: Mass fraction of water (Liquid mixture 1); method: Chromatography
Temperature, K	Mass fraction of water	uncertainty
298.2	0.006	0.006
308.2	0.0058	0.0058

System: water + 2-methoxy-2-methylpropane; phases: Liquid mixture 2, Liquid mixture 1
Fixed: Pressure, kPa = 101.3
Property: Mass fraction of water (Liquid mixture 2); method: Chromatography
Temperature, K	Mass fraction of water	uncertainty
298.2	0.9595	0.0064
308.2	0.9633	0.0064

System: water + 2-methoxy-2-methylpropane; phases: Liquid mixture 1, Liquid mixture 2
Fixed: Pressure, kPa = 101.3
Property: Mass fraction of water (Liquid mixture 1); method: Chromatography
Temperature, K	Mass fraction of water	uncertainty
298.2	0.0141	0.0064
308.2	0.0178	0.0064
