Measured thermophysical data. Excess molar volumes and deviations of the relative permittivity of the binary mixtures of 2-propoxyethanol with diethylene, triethylene, and tetraethylene glycols at various temperatures
Source: J. Chem. Thermodyn., 2008, 10.1016/j.jct.2007.09.004
Compound 1: 2-propoxyethanol, C5H12O2, InChI=1S/C5H12O2/c1-2-4-7-5-3-6/h6H,2-5H2,1H3, purity 99%
Compound 2: diethylene glycol, C4H10O3, InChI=1S/C4H10O3/c5-1-3-7-4-2-6/h5-6H,1-4H2, purity 99.5%
Compound 3: triethylene glycol, C6H14O4, InChI=1S/C6H14O4/c7-1-3-9-5-6-10-4-2-8/h7-8H,1-6H2, purity 99%
Compound 4: tetraethylene glycol, C8H18O5, InChI=1S/C8H18O5/c9-1-3-11-5-7-13-8-6-12-4-2-10/h9-10H,1-8H2, purity 99%

System: 2-propoxyethanol; phases: Liquid
Fixed: Pressure, kPa = 101
Property: Relative permittivity at zero frequency (Liquid); method: Parallel plate capacitor
Temperature, K	Relative permittivity at zero frequency	uncertainty
293.15	11.76	0.04
298.15	11.5	0.04
303.15	11.19	0.04

System: 2-propoxyethanol; phases: Liquid
Fixed: Pressure, kPa = 101
Property: Mass density, kg/m3 (Liquid); method: PYCNOM::UFactor:6
Temperature, K	Mass density, kg/m3	uncertainty
293.15	913.31	1.4
298.15	908.19	1.46
303.15	903.11	1.52

System: diethylene glycol; phases: Liquid
Fixed: Pressure, kPa = 101
Property: Relative permittivity at zero frequency (Liquid); method: Parallel plate capacitor
Temperature, K	Relative permittivity at zero frequency	uncertainty
293.15	31.81	0.04
298.15	30.95	0.04
303.15	30.03	0.04

System: diethylene glycol; phases: Liquid
Fixed: Pressure, kPa = 101
Property: Mass density, kg/m3 (Liquid); method: PYCNOM::UFactor:6
Temperature, K	Mass density, kg/m3	uncertainty
293.15	1116.38	1.67
298.15	1113.03	1.74
303.15	1109.47	1.8

System: triethylene glycol; phases: Liquid
Fixed: Pressure, kPa = 101
Property: Relative permittivity at zero frequency (Liquid); method: Parallel plate capacitor
Temperature, K	Relative permittivity at zero frequency	uncertainty
293.15	23.69	0.04
298.15	23.07	0.04
303.15	22.43	0.04

System: triethylene glycol; phases: Liquid
Fixed: Pressure, kPa = 101
Property: Mass density, kg/m3 (Liquid); method: PYCNOM::UFactor:6
Temperature, K	Mass density, kg/m3	uncertainty
293.15	1123.74	1.88
298.15	1119.66	1.94
303.15	1115.83	2

System: tetraethylene glycol; phases: Liquid
Fixed: Pressure, kPa = 101.3
Property: Relative permittivity at zero frequency (Liquid); method: Parallel plate capacitor
Temperature, K	Relative permittivity at zero frequency	uncertainty
293.15	20.44	0.04
298.15	19.91	0.04
303.15	19.35	0.04

System: tetraethylene glycol; phases: Liquid
Fixed: Pressure, kPa = 101
Property: Mass density, kg/m3 (Liquid); method: PYCNOM::UFactor:6
Temperature, K	Mass density, kg/m3	uncertainty
293.15	1123.43	1.88
298.15	1120.19	1.94
303.15	1116.94	2

System: diethylene glycol + 2-propoxyethanol; phases: Liquid
Fixed: Pressure, kPa = 101
Property: Relative permittivity at zero frequency (Liquid); method: Parallel plate capacitor
Temperature, K	Mole fraction of 2-propoxyethanol	Relative permittivity at zero frequency	uncertainty
293.15	0	31.81	0.04
293.15	0.0435	31.3	0.04
293.15	0.0998	30.58	0.04
293.15	0.197	29.18	0.04
293.15	0.2962	27.57	0.04
293.15	0.3996	25.72	0.04
293.15	0.4964	23.82	0.04
293.15	0.5955	21.73	0.04
293.15	0.6996	19.43	0.04
293.15	0.8001	17.06	0.04
293.15	0.8999	14.55	0.04
293.15	0.9499	13.2	0.04
293.15	1	11.76	0.04
298.15	0	30.95	0.04
298.15	0.0435	30.42	0.04
298.15	0.0998	29.69	0.04
298.15	0.197	28.31	0.04
298.15	0.2962	26.74	0.04
298.15	0.3996	24.95	0.04
298.15	0.4964	23.13	0.04
298.15	0.5955	21.13	0.04
298.15	0.6996	18.88	0.04
298.15	0.8001	16.58	0.04
298.15	0.8999	14.13	0.04
298.15	0.9499	12.83	0.04
298.15	1	11.5	0.04
303.15	0	30.03	0.04
303.15	0.0435	29.5	0.04
303.15	0.0998	28.76	0.04
303.15	0.197	27.4	0.04
303.15	0.2962	25.88	0.04
303.15	0.3996	24.14	0.04
303.15	0.4964	22.39	0.04
303.15	0.5955	20.46	0.04
303.15	0.6996	18.29	0.04
303.15	0.8001	16.06	0.04
303.15	0.8999	13.7	0.04
303.15	0.9499	12.46	0.04
303.15	1	11.19	0.04

System: diethylene glycol + 2-propoxyethanol; phases: Liquid
Fixed: Pressure, kPa = 101
Property: Mass density, kg/m3 (Liquid); method: PYCNOM:UFactor:6
Temperature, K	Mole fraction of 2-propoxyethanol	Mass density, kg/m3	uncertainty
293.15	0	1116.38	1.67
293.15	0.0436	1106.38	1.66
293.15	0.1	1093.5	1.64
293.15	0.2007	1071	1.61
293.15	0.2997	1049.58	1.58
293.15	0.3999	1028.62	1.55
293.15	0.4968	1008.87	1.53
293.15	0.6002	988.3	1.5
293.15	0.6985	969.23	1.47
293.15	0.7998	950.04	1.45
293.15	0.8992	931.65	1.42
293.15	0.9499	922.4	1.41
293.15	1	913.31	1.4
298.15	0	1113.03	1.74
298.15	0.0436	1102.72	1.72
298.15	0.1	1089.56	1.7
298.15	0.2007	1066.79	1.67
298.15	0.2997	1045.22	1.64
298.15	0.3999	1024.11	1.61
298.15	0.4968	1004.21	1.59
298.15	0.6002	983.48	1.56
298.15	0.6985	964.21	1.53
298.15	0.7998	944.82	1.51
298.15	0.8992	926.35	1.48
298.15	0.9499	917.14	1.47
298.15	1	908.19	1.46
303.15	0	1109.47	1.8
303.15	0.0436	1098.89	1.78
303.15	0.1	1085.52	1.77
303.15	0.2007	1062.47	1.73
303.15	0.2997	1040.76	1.7
303.15	0.3999	1019.56	1.67
303.15	0.4968	999.53	1.65
303.15	0.6002	978.63	1.62
303.15	0.6985	959.16	1.59
303.15	0.7998	939.65	1.57
303.15	0.8992	921.14	1.54
303.15	0.9499	911.97	1.53
303.15	1	903.11	1.52

System: triethylene glycol + 2-propoxyethanol; phases: Liquid
Fixed: Pressure, kPa = 101
Property: Relative permittivity at zero frequency (Liquid); method: Parallel plate capacitor
Temperature, K	Mole fraction of 2-propoxyethanol	Relative permittivity at zero frequency	uncertainty
293.15	0	23.69	0.04
293.15	0.0501	23.33	0.04
293.15	0.1003	22.93	0.04
293.15	0.2005	22.09	0.04
293.15	0.2999	21.25	0.04
293.15	0.4001	20.35	0.04
293.15	0.5	19.33	0.04
293.15	0.6002	18.11	0.04
293.15	0.7002	16.71	0.04
293.15	0.8	15.16	0.04
293.15	0.9	13.53	0.04
293.15	0.95	12.69	0.04
293.15	1	11.76	0.04
298.15	0	23.07	0.04
298.15	0.0501	22.71	0.04
298.15	0.1003	22.33	0.04
298.15	0.2005	21.51	0.04
298.15	0.2999	20.64	0.04
298.15	0.4001	19.66	0.04
298.15	0.5	18.59	0.04
298.15	0.6002	17.41	0.04
298.15	0.7002	16.13	0.04
298.15	0.8	14.73	0.04
298.15	0.9	13.18	0.04
298.15	0.95	12.36	0.04
298.15	1	11.5	0.04
303.15	0	22.43	0.04
303.15	0.0501	22.07	0.04
303.15	0.1003	21.68	0.04
303.15	0.2005	20.89	0.04
303.15	0.2999	20.02	0.04
303.15	0.4001	19.06	0.04
303.15	0.5	18.02	0.04
303.15	0.6002	16.88	0.04
303.15	0.7002	15.63	0.04
303.15	0.8	14.28	0.04
303.15	0.9	12.78	0.04
303.15	0.95	11.99	0.04
303.15	1	11.19	0.04

System: triethylene glycol + 2-propoxyethanol; phases: Liquid
Fixed: Pressure, kPa = 101
Property: Mass density, kg/m3 (Liquid); method: PYCNOM:UFactor:6
Temperature, K	Mole fraction of 2-propoxyethanol	Mass density, kg/m3	uncertainty
293.15	0	1123.74	1.88
293.15	0.0413	1116.67	1.86
293.15	0.1061	1105.37	1.83
293.15	0.1986	1088.75	1.8
293.15	0.2999	1069.72	1.75
293.15	0.3999	1050.01	1.71
293.15	0.5	1029.46	1.66
293.15	0.6	1008.1	1.61
293.15	0.7002	985.9	1.56
293.15	0.8	962.85	1.51
293.15	0.9	938.69	1.46
293.15	0.95	926.18	1.43
293.15	1	913.31	1.4
298.15	0	1119.66	1.94
298.15	0.0413	1112.44	1.92
298.15	0.1061	1100.97	1.89
298.15	0.1986	1084.08	1.86
298.15	0.2999	1064.9	1.81
298.15	0.3999	1045.15	1.77
298.15	0.5	1024.57	1.72
298.15	0.6	1003.16	1.67
298.15	0.7002	980.84	1.62
298.15	0.8	957.69	1.57
298.15	0.9	933.46	1.52
298.15	0.95	920.99	1.49
298.15	1	908.19	1.46
303.15	0	1115.83	2
303.15	0.0413	1108.49	1.98
303.15	0.1061	1096.78	1.95
303.15	0.1986	1079.65	1.91
303.15	0.2999	1060.23	1.87
303.15	0.3999	1040.34	1.83
303.15	0.5	1019.67	1.78
303.15	0.6	998.18	1.73
303.15	0.7002	975.77	1.68
303.15	0.8	952.55	1.63
303.15	0.9	928.29	1.57
303.15	0.95	915.81	1.55
303.15	1	903.11	1.52

System: tetraethylene glycol + 2-propoxyethanol; phases: Liquid
Fixed: Pressure, kPa = 101
Property: Relative permittivity at zero frequency (Liquid); method: Parallel plate capacitor
Temperature, K	Mole fraction of 2-propoxyethanol	Relative permittivity at zero frequency	uncertainty
293.15	0	20.44	0.04
293.15	0.05	20.13	0.04
293.15	0.1	19.82	0.04
293.15	0.2	19.18	0.04
293.15	0.3002	18.49	0.04
293.15	0.4001	17.73	0.04
293.15	0.5003	16.88	0.04
293.15	0.6	15.95	0.04
293.15	0.7002	14.99	0.04
293.15	0.7999	14.01	0.04
293.15	0.9	12.96	0.04
293.15	0.9501	12.38	0.04
293.15	1	11.76	0.04
298.15	0	19.91	0.04
298.15	0.05	19.58	0.04
298.15	0.1	19.26	0.04
298.15	0.2	18.62	0.04
298.15	0.3002	17.95	0.04
298.15	0.4001	17.21	0.04
298.15	0.5003	16.4	0.04
298.15	0.6	15.53	0.04
298.15	0.7002	14.61	0.04
298.15	0.7999	13.64	0.04
298.15	0.9	12.62	0.04
298.15	0.9501	12.07	0.04
298.15	1	11.5	0.04
303.15	0	19.35	0.04
303.15	0.05	19.01	0.04
303.15	0.1	18.68	0.04
303.15	0.2	18.05	0.04
303.15	0.3002	17.39	0.04
303.15	0.4001	16.69	0.04
303.15	0.5003	15.91	0.04
303.15	0.6	15.07	0.04
303.15	0.7002	14.18	0.04
303.15	0.7999	13.24	0.04
303.15	0.9	12.26	0.04
303.15	0.9501	11.73	0.04
303.15	1	11.19	0.04

System: tetraethylene glycol + 2-propoxyethanol; phases: Liquid
Fixed: Pressure, kPa = 101
Property: Mass density, kg/m3 (Liquid); method: PYCNOM:UFactor:6
Temperature, K	Mole fraction of 2-propoxyethanol	Mass density, kg/m3	uncertainty
293.15	0	1123.43	1.88
293.15	0.05	1116.81	1.86
293.15	0.0996	1109.94	1.84
293.15	0.1997	1095.15	1.81
293.15	0.3	1079.09	1.77
293.15	0.4012	1061.43	1.73
293.15	0.5	1042.6	1.69
293.15	0.6	1021.64	1.64
293.15	0.7	998.51	1.59
293.15	0.8	973.03	1.53
293.15	0.9	944.82	1.47
293.15	0.95	929.54	1.44
293.15	1	913.31	1.4
298.15	0	1120.19	1.94
298.15	0.05	1113.41	1.92
298.15	0.0996	1106.38	1.91
298.15	0.1997	1091.4	1.87
298.15	0.3	1075.16	1.83
298.15	0.4012	1057.31	1.79
298.15	0.5	1038.25	1.75
298.15	0.6	1017.06	1.7
298.15	0.7	993.75	1.65
298.15	0.8	968.09	1.59
298.15	0.9	939.77	1.53
298.15	0.95	924.43	1.5
298.15	1	908.19	1.46
303.15	0	1116.94	2
303.15	0.05	1110.02	1.98
303.15	0.0996	1102.89	1.97
303.15	0.1997	1087.69	1.93
303.15	0.3	1071.19	1.9
303.15	0.4012	1053.07	1.85
303.15	0.5	1033.77	1.81
303.15	0.6	1012.39	1.76
303.15	0.7	988.93	1.71
303.15	0.8	963.16	1.65
303.15	0.9	934.7	1.59
303.15	0.95	919.34	1.55
303.15	1	903.11	1.52
