Measured thermophysical data. Volumetric, viscometric, and refractive index behaviour of a-amino acids and their groups? contribution in aqueous D-glucose solution at different temperatures
Source: J. Chem. Thermodyn., 2006, 10.1016/j.jct.2005.04.011
Compound 1: 2-aminoacetic acid, C2H5NO2, InChI=1S/C2H5NO2/c3-1-2(4)5/h1,3H2,(H,4,5), purity 99.7%
Compound 2: DL-2-aminopropanoic acid, C3H7NO2, InChI=1S/C3H7NO2/c1-2(4)3(5)6/h2H,4H2,1H3,(H,5,6), purity 99%
Compound 3: L-serine, C3H7NO3, InChI=1S/C3H7NO3/c4-2(1-5)3(6)7/h2,5H,1,4H2,(H,6,7)/t2-/m0/s1, purity 98.5%
Compound 4: DL-2-amino-3-methylbutanoic acid, C5H11NO2, InChI=1S/C5H11NO2/c1-3(2)4(6)5(7)8/h3-4H,6H2,1-2H3,(H,7,8), purity 99%
Compound 5: D-glucose, C6H12O6, InChI=1S/C6H12O6/c7-1-3(9)5(11)6(12)4(10)2-8/h1,3-6,8-12H,2H2/t3-,4+,5+,6+/m0/s1, purity 99%
Compound 6: water, H2O, InChI=1S/H2O/h1H2

System: D-glucose + water; phases: Liquid
Fixed: Pressure, kPa = 101
Fixed: Amount concentration (molarity), mol/dm3 of D-glucose = 0.2
Property: Viscosity, Pa*s (Liquid); method: CAPTUB:UFactor:4
Temperature, K	Viscosity, Pa*s	uncertainty
298.15	0.00101	3e-05
303.15	0.00089	2e-05
308.15	0.0008	2e-05
313.15	0.0007	2e-05

System: D-glucose + water; phases: Liquid
Fixed: Pressure, kPa = 101
Fixed: Amount concentration (molarity), mol/dm3 of D-glucose = 0.2
Property: Refractive index (Na D-line) (Liquid); method: Standard Abbe refractometry
Temperature, K	Refractive index (Na D-line)	uncertainty
298.15	1.336	0.002
303.15	1.335	0.002
308.15	1.3349	0.002
313.15	1.334	0.002

System: D-glucose + water; phases: Liquid
Fixed: Pressure, kPa = 101
Fixed: Amount concentration (molarity), mol/dm3 of D-glucose = 0.2
Property: Mass density, kg/m3 (Liquid); method: Pycnometric method
Temperature, K	Mass density, kg/m3	uncertainty
298.15	1010.3	0.3
303.15	1008.7	0.4
308.15	1007.1	0.4
313.15	1005.3	0.4

System: D-glucose + 2-aminoacetic acid + water; phases: Liquid
Fixed: Pressure, kPa = 101
Fixed: Solvent: Amount concentration (molarity), mol/dm3 of D-glucose = 0.2
Property: Viscosity, Pa*s (Liquid); method: CAPTUB:UFactor:4
Amount concentration (molarity), mol/dm3 of 2-aminoacetic acid	Temperature, K	Viscosity, Pa*s	uncertainty
0	298.15	0.00101	3e-05
0	303.15	0.00089	2e-05
0	308.15	0.0008	2e-05
0	313.15	0.0007	2e-05
0.1	298.15	0.001	3e-05
0.1	303.15	0.00088	2e-05
0.1	308.15	0.00079	2e-05
0.1	313.15	0.00071	2e-05
0.2	298.15	0.00101	3e-05
0.2	303.15	0.0009	2e-05
0.2	308.15	0.00081	2e-05
0.2	313.15	0.00072	2e-05
0.3	298.15	0.00103	3e-05
0.3	303.15	0.00092	2e-05
0.3	308.15	0.00083	2e-05
0.3	313.15	0.00073	2e-05
0.4	298.15	0.00104	3e-05
0.4	303.15	0.00093	2e-05
0.4	308.15	0.00084	2e-05
0.4	313.15	0.00075	2e-05
0.5	298.15	0.00107	3e-05
0.5	303.15	0.00095	2e-05
0.5	308.15	0.00086	2e-05
0.5	313.15	0.00076	2e-05

System: D-glucose + 2-aminoacetic acid + water; phases: Liquid
Fixed: Pressure, kPa = 101
Fixed: Solvent: Amount concentration (molarity), mol/dm3 of D-glucose = 0.2
Property: Refractive index (Na D-line) (Liquid); method: Standard Abbe refractometry
Amount concentration (molarity), mol/dm3 of 2-aminoacetic acid	Temperature, K	Refractive index (Na D-line)	uncertainty
0	298.15	1.336	0.002
0	303.15	1.335	0.002
0	308.15	1.3349	0.002
0	313.15	1.334	0.002
0.1	298.15	1.3372	0.002
0.1	303.15	1.3368	0.002
0.1	308.15	1.3361	0.002
0.1	313.15	1.3357	0.002
0.2	298.15	1.3381	0.002
0.2	303.15	1.3378	0.002
0.2	308.15	1.3372	0.002
0.2	313.15	1.3365	0.002
0.3	298.15	1.3398	0.002
0.3	303.15	1.339	0.002
0.3	308.15	1.3387	0.002
0.3	313.15	1.3382	0.002
0.4	298.15	1.341	0.002
0.4	303.15	1.3402	0.002
0.4	308.15	1.3398	0.002
0.4	313.15	1.339	0.002
0.5	298.15	1.342	0.002
0.5	303.15	1.3418	0.002
0.5	308.15	1.3413	0.002
0.5	313.15	1.341	0.002

System: D-glucose + 2-aminoacetic acid + water; phases: Liquid
Fixed: Pressure, kPa = 101
Fixed: Solvent: Amount concentration (molarity), mol/dm3 of D-glucose = 0.2
Property: Mass density, kg/m3 (Liquid); method: Pycnometric method
Amount concentration (molarity), mol/dm3 of 2-aminoacetic acid	Temperature, K	Mass density, kg/m3	uncertainty
0	298.15	1010.3	0.3
0	303.15	1008.7	0.4
0	308.15	1007.1	0.4
0	313.15	1005.3	0.4
0.1	298.15	1013.6	0.4
0.1	303.15	1011.9	0.4
0.1	308.15	1010.3	0.4
0.1	313.15	1008.4	0.4
0.2	298.15	1016.7	0.4
0.2	303.15	1015	0.4
0.2	308.15	1013.3	0.4
0.2	313.15	1011.4	0.4
0.3	298.15	1019.8	0.4
0.3	303.15	1018.1	0.4
0.3	308.15	1016.3	0.4
0.3	313.15	1014.4	0.4
0.4	298.15	1022.8	0.4
0.4	303.15	1021.1	0.4
0.4	308.15	1019.3	0.4
0.4	313.15	1017.4	0.4
0.5	298.15	1025.8	0.4
0.5	303.15	1024.1	0.4
0.5	308.15	1022.3	0.4
0.5	313.15	1020.4	0.4

System: D-glucose + DL-2-aminopropanoic acid + water; phases: Liquid
Fixed: Pressure, kPa = 101
Fixed: Solvent: Amount concentration (molarity), mol/dm3 of D-glucose = 0.2
Property: Viscosity, Pa*s (Liquid); method: CAPTUB:UFactor:4
Amount concentration (molarity), mol/dm3 of DL-2-aminopropanoic acid	Temperature, K	Viscosity, Pa*s	uncertainty
0	298.15	0.00101	3e-05
0	303.15	0.00089	2e-05
0	308.15	0.0008	2e-05
0	313.15	0.0007	2e-05
0.1	298.15	0.00102	3e-05
0.1	303.15	0.0009	2e-05
0.1	308.15	0.00081	2e-05
0.1	313.15	0.00071	2e-05
0.2	298.15	0.00104	3e-05
0.2	303.15	0.00093	2e-05
0.2	308.15	0.00083	2e-05
0.2	313.15	0.00074	2e-05
0.3	298.15	0.00107	3e-05
0.3	303.15	0.00095	2e-05
0.3	308.15	0.00085	2e-05
0.3	313.15	0.00075	2e-05
0.4	298.15	0.0011	3e-05
0.4	303.15	0.00097	2e-05
0.4	308.15	0.00087	2e-05
0.4	313.15	0.00077	2e-05
0.5	298.15	0.00112	3e-05
0.5	303.15	0.00099	3e-05
0.5	308.15	0.00089	2e-05
0.5	313.15	0.00079	2e-05

System: D-glucose + DL-2-aminopropanoic acid + water; phases: Liquid
Fixed: Pressure, kPa = 101
Fixed: Solvent: Amount concentration (molarity), mol/dm3 of D-glucose = 0.2
Property: Refractive index (Na D-line) (Liquid); method: Standard Abbe refractometry
Amount concentration (molarity), mol/dm3 of DL-2-aminopropanoic acid	Temperature, K	Refractive index (Na D-line)	uncertainty
0	298.15	1.336	0.002
0	303.15	1.335	0.002
0	308.15	1.3349	0.002
0	313.15	1.334	0.002
0.1	298.15	1.3389	0.002
0.1	303.15	1.3379	0.002
0.1	308.15	1.3369	0.002
0.1	313.15	1.336	0.002
0.2	298.15	1.3395	0.002
0.2	303.15	1.3387	0.002
0.2	308.15	1.338	0.002
0.2	313.15	1.3372	0.002
0.3	298.15	1.341	0.002
0.3	303.15	1.34	0.002
0.3	308.15	1.3392	0.002
0.3	313.15	1.3385	0.002
0.4	298.15	1.3421	0.002
0.4	303.15	1.3413	0.002
0.4	308.15	1.3408	0.002
0.4	313.15	1.3399	0.002
0.5	298.15	1.3445	0.002
0.5	303.15	1.3425	0.002
0.5	308.15	1.3416	0.002
0.5	313.15	1.3411	0.002

System: D-glucose + DL-2-aminopropanoic acid + water; phases: Liquid
Fixed: Pressure, kPa = 101
Fixed: Solvent: Amount concentration (molarity), mol/dm3 of D-glucose = 0.2
Property: Mass density, kg/m3 (Liquid); method: Pycnometric method
Amount concentration (molarity), mol/dm3 of DL-2-aminopropanoic acid	Temperature, K	Mass density, kg/m3	uncertainty
0	298.15	1010.3	0.4
0	303.15	1008.7	0.4
0	308.15	1007.1	0.5
0	313.15	1005.3	0.5
0.1	298.15	1013.8	0.4
0.1	303.15	1012.1	0.4
0.1	308.15	1010.4	0.5
0.1	313.15	1008.5	0.5
0.2	298.15	1016.6	0.4
0.2	303.15	1014.8	0.4
0.2	308.15	1013	0.5
0.2	313.15	1011.1	0.5
0.3	298.15	1018.9	0.4
0.3	303.15	1017.1	0.4
0.3	308.15	1015.3	0.5
0.3	313.15	1013.3	0.5
0.4	298.15	1021	0.4
0.4	303.15	1019.2	0.4
0.4	308.15	1017.3	0.5
0.4	313.15	1015.3	0.5
0.5	298.15	1022.9	0.4
0.5	303.15	1021.1	0.4
0.5	308.15	1019.2	0.5
0.5	313.15	1017.1	0.5

System: D-glucose + L-serine + water; phases: Liquid
Fixed: Pressure, kPa = 101
Fixed: Solvent: Amount concentration (molarity), mol/dm3 of D-glucose = 0.2
Property: Viscosity, Pa*s (Liquid); method: CAPTUB:UFactor:4
Amount concentration (molarity), mol/dm3 of L-serine	Temperature, K	Viscosity, Pa*s	uncertainty
0	298.15	0.00101	3e-05
0	303.15	0.00089	2e-05
0	308.15	0.0008	2e-05
0	313.15	0.0007	2e-05
0.1	298.15	0.00105	3e-05
0.1	303.15	0.00092	2e-05
0.1	308.15	0.00081	2e-05
0.1	313.15	0.00071	2e-05
0.2	298.15	0.00108	3e-05
0.2	303.15	0.00094	2e-05
0.2	308.15	0.00084	2e-05
0.2	313.15	0.00073	2e-05
0.3	298.15	0.00112	3e-05
0.3	303.15	0.00097	3e-05
0.3	308.15	0.00086	2e-05
0.3	313.15	0.00075	2e-05
0.4	298.15	0.00115	3e-05
0.4	303.15	0.001	3e-05
0.4	308.15	0.00088	2e-05
0.4	313.15	0.00077	2e-05
0.5	298.15	0.00117	3e-05
0.5	303.15	0.00102	3e-05
0.5	308.15	0.0009	2e-05
0.5	313.15	0.00078	2e-05

System: D-glucose + L-serine + water; phases: Liquid
Fixed: Pressure, kPa = 101
Fixed: Solvent: Amount concentration (molarity), mol/dm3 of D-glucose = 0.2
Property: Refractive index (Na D-line) (Liquid); method: Standard Abbe refractometry
Amount concentration (molarity), mol/dm3 of L-serine	Temperature, K	Refractive index (Na D-line)	uncertainty
0	298.15	1.336	0.002
0	303.15	1.335	0.002
0	308.15	1.3349	0.002
0	313.15	1.334	0.002
0.1	298.15	1.3391	0.002
0.1	303.15	1.3383	0.002
0.1	308.15	1.3379	0.002
0.1	313.15	1.3372	0.002
0.2	298.15	1.3412	0.002
0.2	303.15	1.3406	0.002
0.2	308.15	1.34	0.002
0.2	313.15	1.3397	0.002
0.3	298.15	1.3426	0.002
0.3	303.15	1.342	0.002
0.3	308.15	1.3419	0.002
0.3	313.15	1.3413	0.002
0.4	298.15	1.3443	0.002
0.4	303.15	1.344	0.002
0.4	308.15	1.3435	0.002
0.4	313.15	1.3431	0.002
0.5	298.15	1.3465	0.002
0.5	303.15	1.3459	0.002
0.5	308.15	1.3459	0.002
0.5	313.15	1.3454	0.002

System: D-glucose + L-serine + water; phases: Liquid
Fixed: Pressure, kPa = 101
Fixed: Solvent: Amount concentration (molarity), mol/dm3 of D-glucose = 0.2
Property: Mass density, kg/m3 (Liquid); method: Pycnometric method
Amount concentration (molarity), mol/dm3 of L-serine	Temperature, K	Mass density, kg/m3	uncertainty
0	298.15	1010.3	0.5
0	303.15	1008.7	0.5
0	308.15	1007.1	0.5
0	313.15	1005.3	0.5
0.1	298.15	1015.1	0.5
0.1	303.15	1013.4	0.5
0.1	308.15	1011.7	0.5
0.1	313.15	1009.8	0.5
0.2	298.15	1019.6	0.5
0.2	303.15	1017.8	0.5
0.2	308.15	1016	0.5
0.2	313.15	1014	0.5
0.3	298.15	1023.9	0.5
0.3	303.15	1022.1	0.5
0.3	308.15	1020.2	0.5
0.3	313.15	1018.1	0.5
0.4	298.15	1028.1	0.5
0.4	303.15	1026.3	0.5
0.4	308.15	1024.3	0.5
0.4	313.15	1022.2	0.5
0.5	298.15	1032.3	0.5
0.5	303.15	1030.4	0.5
0.5	308.15	1028.4	0.5
0.5	313.15	1026.2	0.5

System: D-glucose + DL-2-amino-3-methylbutanoic acid + water; phases: Liquid
Fixed: Pressure, kPa = 101
Fixed: Solvent: Amount concentration (molarity), mol/dm3 of D-glucose = 0.2
Property: Viscosity, Pa*s (Liquid); method: CAPTUB:UFactor:4
Amount concentration (molarity), mol/dm3 of DL-2-amino-3-methylbutanoic acid	Temperature, K	Viscosity, Pa*s	uncertainty
0	298.15	0.00101	3e-05
0	303.15	0.00089	2e-05
0	308.15	0.0008	2e-05
0	313.15	0.0007	2e-05
0.1	298.15	0.00104	3e-05
0.1	303.15	0.00092	2e-05
0.1	308.15	0.00083	2e-05
0.1	313.15	0.00074	2e-05
0.2	298.15	0.00108	3e-05
0.2	303.15	0.00097	2e-05
0.2	308.15	0.00088	2e-05
0.2	313.15	0.00078	2e-05
0.3	298.15	0.00114	3e-05
0.3	303.15	0.00101	3e-05
0.3	308.15	0.00092	2e-05
0.3	313.15	0.00082	2e-05
0.4	298.15	0.00118	3e-05
0.4	303.15	0.00106	3e-05
0.4	308.15	0.00096	2e-05
0.4	313.15	0.00086	2e-05
0.5	298.15	0.00122	3e-05
0.5	303.15	0.00109	3e-05
0.5	308.15	0.001	3e-05
0.5	313.15	0.00089	2e-05

System: D-glucose + DL-2-amino-3-methylbutanoic acid + water; phases: Liquid
Fixed: Pressure, kPa = 101
Fixed: Solvent: Amount concentration (molarity), mol/dm3 of D-glucose = 0.2
Property: Refractive index (Na D-line) (Liquid); method: Standard Abbe refractometry
Amount concentration (molarity), mol/dm3 of DL-2-amino-3-methylbutanoic acid	Temperature, K	Refractive index (Na D-line)	uncertainty
0	298.15	1.336	0.002
0	303.15	1.335	0.002
0	308.15	1.3349	0.002
0	313.15	1.334	0.002
0.1	298.15	1.3397	0.002
0.1	303.15	1.3381	0.002
0.1	308.15	1.3375	0.002
0.1	313.15	1.3369	0.002
0.2	298.15	1.341	0.002
0.2	303.15	1.3401	0.002
0.2	308.15	1.3391	0.002
0.2	313.15	1.3385	0.002
0.3	298.15	1.343	0.002
0.3	303.15	1.3428	0.002
0.3	308.15	1.3411	0.002
0.3	313.15	1.3402	0.002
0.4	298.15	1.345	0.002
0.4	303.15	1.3442	0.002
0.4	308.15	1.3431	0.002
0.4	313.15	1.3428	0.002
0.5	298.15	1.348	0.002
0.5	303.15	1.346	0.002
0.5	308.15	1.3453	0.002
0.5	313.15	1.3445	0.002

System: D-glucose + DL-2-amino-3-methylbutanoic acid + water; phases: Liquid
Fixed: Pressure, kPa = 101
Fixed: Solvent: Amount concentration (molarity), mol/dm3 of D-glucose = 0.2
Property: Mass density, kg/m3 (Liquid); method: Pycnometric method
Amount concentration (molarity), mol/dm3 of DL-2-amino-3-methylbutanoic acid	Temperature, K	Mass density, kg/m3	uncertainty
0	298.15	1010.3	0.4
0	303.15	1008.7	0.4
0	308.15	1007.1	0.5
0	313.15	1005.3	0.5
0.1	298.15	1013	0.4
0.1	303.15	1011.3	0.4
0.1	308.15	1009.6	0.5
0.1	313.15	1007.8	0.5
0.2	298.15	1015.5	0.4
0.2	303.15	1013.8	0.4
0.2	308.15	1012	0.5
0.2	313.15	1010.1	0.5
0.3	298.15	1018	0.4
0.3	303.15	1016.2	0.4
0.3	308.15	1014.3	0.5
0.3	313.15	1012.4	0.5
0.4	298.15	1020.4	0.4
0.4	303.15	1018.6	0.4
0.4	308.15	1016.6	0.5
0.4	313.15	1014.7	0.5
0.5	298.15	1022.8	0.4
0.5	303.15	1021	0.4
0.5	308.15	1018.9	0.5
0.5	313.15	1017	0.5
