Measured thermophysical data. Experimental and predicted refractive index properties in ternary mixtures of associated liquids
Source: J. Chem. Thermodyn., 2011, 10.1016/j.jct.2011.05.034
Compound 1: water, H2O, InChI=1S/H2O/h1H2, purity 99.999%
Compound 2: ethanol, C2H6O, InChI=1S/C2H6O/c1-2-3/h3H,2H2,1H3, purity 99.5%
Compound 3: 1,2-ethanediol, C2H6O2, InChI=1S/C2H6O2/c3-1-2-4/h3-4H,1-2H2, purity 99.8%
Compound 4: diethylene glycol, C4H10O3, InChI=1S/C4H10O3/c5-1-3-7-4-2-6/h5-6H,1-4H2, purity 99%
Compound 5: triethylene glycol, C6H14O4, InChI=1S/C6H14O4/c7-1-3-9-5-6-10-4-2-8/h7-8H,1-6H2, purity 99%
Compound 6: 2-methylpropan-2-ol, C4H10O, InChI=1S/C4H10O/c1-4(2,3)5/h5H,1-3H3, purity 99.5%
Compound 7: dimethyl sulfoxide, C2H6OS, InChI=1S/C2H6OS/c1-4(2)3/h1-2H3, purity 99.9%

System: ethanol + 1,2-ethanediol + water; phases: Liquid
Fixed: Temperature, K = 298.15
Fixed: Pressure, kPa = 101.3
Property: Refractive index (other wavelength) (Liquid); method: Standard Abbe refractometry
Mass fraction of water	Mass fraction of ethanol	Wavelength, nm	Refractive index (other wavelength)	uncertainty
0	0	670	1.42866	0.00034
0	0.0996	670	1.42102	0.00034
0	0.1994	670	1.41345	0.00034
0	0.2999	670	1.40581	0.00034
0	0.4003	670	1.39838	0.00035
0	0.5002	670	1.3912	0.00035
0	0.5999	670	1.38433	0.00035
0	0.7006	670	1.37755	0.00035
0	0.8002	670	1.37083	0.00035
0	0.9	670	1.36453	0.00035
0	1	670	1.35841	0.00035
0.0985	0.8031	670	1.36668	0.00035
0.0992	0.0997	670	1.41275	0.00034
0.0995	0.6009	670	1.37892	0.00035
0.0995	0.7012	670	1.37271	0.00035
0.0998	0.3996	670	1.39195	0.00034
0.1	0.4995	670	1.38532	0.00035
0.1001	0.3002	670	1.3988	0.00034
0.1002	0	670	1.41965	0.00034
0.1008	0.8992	670	1.361	0.00035
0.1017	0.1995	670	1.40554	0.00034
0.1998	0.0996	670	1.40411	0.00034
0.1999	0	670	1.41041	0.00034
0.2	0.4	670	1.38515	0.00034
0.2002	0.3003	670	1.39135	0.00034
0.2003	0.6995	670	1.36727	0.00035
0.2006	0.2002	670	1.39766	0.00034
0.2006	0.5994	670	1.373	0.00035
0.2008	0.4994	670	1.37906	0.00035
0.2045	0.7955	670	1.36188	0.00035
0.2975	0.7025	670	1.36149	0.00035
0.2995	0	670	1.40074	0.00034
0.2996	0.4001	670	1.37804	0.00034
0.2998	0.5	670	1.37235	0.00034
0.2999	0.0998	670	1.39514	0.00034
0.3002	0.1999	670	1.38944	0.00034
0.3036	0.2984	670	1.3835	0.00034
0.3078	0.5933	670	1.36674	0.00035
0.3993	0.5011	670	1.36544	0.00034
0.3994	0.1999	670	1.38099	0.00034
0.3996	0	670	1.39077	0.00034
0.4001	0.1002	670	1.38585	0.00034
0.4006	0.3999	670	1.37052	0.00034
0.4018	0.2991	670	1.37564	0.00034
0.4032	0.5968	670	1.36028	0.00034
0.4974	0.5026	670	1.3584	0.00034
0.4992	0.1999	670	1.37226	0.00034
0.4996	0.3005	670	1.3678	0.00034
0.5001	0.1	670	1.37638	0.00034
0.5003	0	670	1.38055	0.00034
0.5004	0.4003	670	1.36294	0.00034
0.5994	0.3002	670	1.35937	0.00034
0.5998	0.1001	670	1.3668	0.00034
0.6001	0	670	1.37054	0.00034
0.6006	0.1996	670	1.36318	0.00034
0.6008	0.3992	670	1.3551	0.00034
0.6996	0	670	1.3603	0.00034
0.6999	0.2004	670	1.354	0.00034
0.7001	0.0997	670	1.35699	0.00034
0.7013	0.2987	670	1.35065	0.00034
0.7985	0.2015	670	1.34474	0.00034
0.7994	0.0999	670	1.34731	0.00034
0.7997	0	670	1.35028	0.00034
0.8946	0.1054	670	1.33803	0.00034
0.9001	0	670	1.34053	0.00034
1	0	670	1.33095	0.00034
0	0	925	1.424	0.00034
0	0.0996	925	1.41642	0.00034
0	0.1994	925	1.40888	0.00034
0	0.2999	925	1.40133	0.00034
0	0.4003	925	1.39401	0.00035
0	0.5002	925	1.38707	0.00035
0	0.5999	925	1.38027	0.00035
0	0.7006	925	1.37344	0.00035
0	0.8002	925	1.36698	0.00035
0	0.9	925	1.36056	0.00035
0	1	925	1.35453	0.00035
0.0985	0.8031	925	1.3626	0.00035
0.0992	0.0997	925	1.40814	0.00034
0.0995	0.6009	925	1.37473	0.00035
0.0995	0.7012	925	1.36865	0.00035
0.0998	0.3996	925	1.38759	0.00034
0.1	0.4995	925	1.38113	0.00035
0.1001	0.3002	925	1.39414	0.00034
0.1002	0	925	1.41503	0.00034
0.1008	0.8992	925	1.35713	0.00035
0.1017	0.1995	925	1.40099	0.00034
0.1998	0.0996	925	1.39943	0.00034
0.1999	0	925	1.4056	0.00034
0.2	0.4	925	1.38077	0.00034
0.2002	0.3003	925	1.38687	0.00034
0.2003	0.6995	925	1.36321	0.00035
0.2006	0.2002	925	1.39308	0.00034
0.2006	0.5994	925	1.3689	0.00035
0.2008	0.4994	925	1.37478	0.00035
0.2045	0.7955	925	1.35782	0.00035
0.2975	0.7025	925	1.35743	0.00035
0.2995	0	925	1.39596	0.00034
0.2996	0.4001	925	1.3737	0.00034
0.2998	0.5	925	1.36803	0.00034
0.2999	0.0998	925	1.3905	0.00034
0.3002	0.1999	925	1.38481	0.00034
0.3036	0.2984	925	1.37901	0.00034
0.3078	0.5933	925	1.3625	0.00035
0.3993	0.5011	925	1.36102	0.00034
0.3994	0.1999	925	1.37634	0.00034
0.3996	0	925	1.38606	0.00034
0.4001	0.1002	925	1.38129	0.00034
0.4006	0.3999	925	1.36612	0.00034
0.4018	0.2991	925	1.3711	0.00034
0.4032	0.5968	925	1.35606	0.00034
0.4974	0.5026	925	1.35396	0.00034
0.4992	0.1999	925	1.36752	0.00034
0.4996	0.3005	925	1.36312	0.00034
0.5001	0.1	925	1.37174	0.00034
0.5003	0	925	1.37579	0.00034
0.5004	0.4003	925	1.3585	0.00034
0.5994	0.3002	925	1.35477	0.00034
0.5998	0.1001	925	1.36207	0.00034
0.6001	0	925	1.36569	0.00034
0.6006	0.1996	925	1.35839	0.00034
0.6008	0.3992	925	1.3507	0.00034
0.6996	0	925	1.35548	0.00034
0.6999	0.2004	925	1.34944	0.00034
0.7001	0.0997	925	1.35231	0.00034
0.7013	0.2987	925	1.34614	0.00034
0.7985	0.2015	925	1.34002	0.00034
0.7994	0.0999	925	1.34258	0.00034
0.7997	0	925	1.34551	0.00034
0.8946	0.1054	925	1.33321	0.00034
0.9001	0	925	1.33568	0.00034
1	0	925	1.32637	0.00034

System: ethanol + diethylene glycol + water; phases: Liquid
Fixed: Temperature, K = 298.15
Fixed: Pressure, kPa = 101.3
Property: Refractive index (other wavelength) (Liquid); method: Standard Abbe refractometry
Mass fraction of water	Mass fraction of ethanol	Wavelength, nm	Refractive index (other wavelength)	uncertainty
0	0	670	1.44394	0.00039
0	0.0998	670	1.43396	0.00039
0	0.2022	670	1.42387	0.00038
0	0.3027	670	1.41436	0.00038
0	0.4001	670	1.40559	0.00038
0	0.4996	670	1.39711	0.00037
0	0.5997	670	1.38857	0.00037
0	0.7008	670	1.38064	0.00036
0	0.8001	670	1.3735	0.00036
0	0.9004	670	1.36546	0.00036
0	1	670	1.35841	0.00035
0.0994	0.4006	670	1.39873	0.00037
0.0995	0.2	670	1.41602	0.00037
0.0998	0.4997	670	1.3906	0.00036
0.0998	0.6003	670	1.38294	0.00036
0.1	0.2998	670	1.40729	0.00037
0.1001	0.7996	670	1.36806	0.00035
0.1002	0.6996	670	1.37509	0.00036
0.1003	0.0997	670	1.42531	0.00038
0.1008	0.8992	670	1.361	0.00035
0.1029	0	670	1.43417	0.00038
0.1946	0	670	1.42487	0.00037
0.1994	0.7012	670	1.36857	0.00035
0.1996	0.1993	670	1.40726	0.00037
0.1996	0.6001	670	1.37573	0.00035
0.1997	0.4002	670	1.391	0.00036
0.1999	0.1005	670	1.41571	0.00037
0.201	0.2997	670	1.39899	0.00036
0.2018	0.4997	670	1.38316	0.00036
0.2045	0.7955	670	1.36188	0.00035
0.2975	0.7025	670	1.36149	0.00035
0.2997	0.4003	670	1.38251	0.00035
0.2999	0.5999	670	1.36828	0.00035
0.3004	0.1996	670	1.39766	0.00036
0.3007	0.4997	670	1.37527	0.00035
0.3013	0.3003	670	1.38995	0.00036
0.3045	0.0984	670	1.40516	0.00036
0.3052	0	670	1.41264	0.00037
0.3958	0	670	1.4023	0.00036
0.3987	0.3026	670	1.38049	0.00035
0.3994	0.4001	670	1.37371	0.00035
0.3999	0.4999	670	1.36713	0.00035
0.4001	0.1998	670	1.38767	0.00035
0.4031	0.0995	670	1.39243	0.00036
0.4032	0.5968	670	1.36028	0.00035
0.4974	0.5026	670	1.3584	0.00035
0.4996	0.1996	670	1.37718	0.00035
0.4997	0.3001	670	1.37097	0.00035
0.5001	0.4005	670	1.36454	0.00035
0.5004	0	670	1.38968	0.00036
0.5005	0.0997	670	1.38332	0.00035
0.5993	0.1999	670	1.3665	0.00035
0.6002	0	670	1.37755	0.00035
0.6008	0.3992	670	1.3551	0.00034
0.6009	0.2993	670	1.36102	0.00034
0.6021	0.1002	670	1.37174	0.00035
0.6985	0.2006	670	1.35587	0.00034
0.6993	0.1001	670	1.36056	0.00034
0.7013	0	670	1.3652	0.00034
0.7013	0.2987	670	1.35065	0.00034
0.7985	0.2015	670	1.34474	0.00034
0.8005	0.1001	670	1.3489	0.00034
0.8013	0	670	1.35377	0.00034
0.8946	0.1054	670	1.33803	0.00034
0.8986	0	670	1.34223	0.00034
1	0	670	1.33095	0.00034
0	0	925	1.44394	0.00039
0	0.0998	925	1.43396	0.00039
0	0.2022	925	1.42387	0.00038
0	0.3027	925	1.41436	0.00038
0	0.4001	925	1.40559	0.00038
0	0.4996	925	1.39711	0.00037
0	0.5997	925	1.38857	0.00037
0	0.7008	925	1.38064	0.00036
0	0.8001	925	1.3735	0.00036
0	0.9004	925	1.36546	0.00036
0	1	925	1.35841	0.00035
0.0994	0.4006	925	1.39873	0.00037
0.0995	0.2	925	1.41602	0.00037
0.0998	0.4997	925	1.3906	0.00036
0.0998	0.6003	925	1.38294	0.00036
0.1	0.2998	925	1.40729	0.00037
0.1001	0.7996	925	1.36806	0.00035
0.1002	0.6996	925	1.37509	0.00036
0.1003	0.0997	925	1.42531	0.00038
0.1008	0.8992	925	1.361	0.00035
0.1029	0	925	1.43417	0.00038
0.1946	0	925	1.42487	0.00037
0.1994	0.7012	925	1.36857	0.00035
0.1996	0.1993	925	1.40726	0.00037
0.1996	0.6001	925	1.37573	0.00035
0.1997	0.4002	925	1.391	0.00036
0.1999	0.1005	925	1.41571	0.00037
0.201	0.2997	925	1.39899	0.00036
0.2018	0.4997	925	1.38316	0.00036
0.2045	0.7955	925	1.36188	0.00035
0.2975	0.7025	925	1.36149	0.00035
0.2997	0.4003	925	1.38251	0.00035
0.2999	0.5999	925	1.36828	0.00035
0.3004	0.1996	925	1.39766	0.00036
0.3007	0.4997	925	1.37527	0.00035
0.3013	0.3003	925	1.38995	0.00036
0.3045	0.0984	925	1.40516	0.00036
0.3052	0	925	1.41264	0.00037
0.3958	0	925	1.4023	0.00036
0.3987	0.3026	925	1.38049	0.00035
0.3994	0.4001	925	1.37371	0.00035
0.3999	0.4999	925	1.36713	0.00035
0.4001	0.1998	925	1.38767	0.00035
0.4031	0.0995	925	1.39243	0.00036
0.4032	0.5968	925	1.36028	0.00035
0.4974	0.5026	925	1.3584	0.00035
0.4996	0.1996	925	1.37718	0.00035
0.4997	0.3001	925	1.37097	0.00035
0.5001	0.4005	925	1.36454	0.00035
0.5004	0	925	1.38968	0.00036
0.5005	0.0997	925	1.38332	0.00035
0.5993	0.1999	925	1.3665	0.00035
0.6002	0	925	1.37755	0.00035
0.6008	0.3992	925	1.3551	0.00034
0.6009	0.2993	925	1.36102	0.00034
0.6021	0.1002	925	1.37174	0.00035
0.6985	0.2006	925	1.35587	0.00034
0.6993	0.1001	925	1.36056	0.00034
0.7013	0	925	1.3652	0.00034
0.7013	0.2987	925	1.35065	0.00034
0.7985	0.2015	925	1.34474	0.00034
0.8005	0.1001	925	1.3489	0.00034
0.8013	0	925	1.35377	0.00034
0.8946	0.1054	925	1.33803	0.00034
0.8986	0	925	1.34223	0.00034
1	0	925	1.33095	0.00034

System: ethanol + triethylene glycol + water; phases: Liquid
Fixed: Temperature, K = 298.15
Fixed: Pressure, kPa = 101.3
Property: Refractive index (other wavelength) (Liquid); method: Standard Abbe refractometry
Mass fraction of water	Mass fraction of ethanol	Wavelength, nm	Refractive index (other wavelength)	uncertainty
0	0	670	1.45291	0.00039
0	0.1264	670	1.43874	0.00039
0	0.1999	670	1.43071	0.00038
0	0.2998	670	1.42024	0.00038
0	0.4005	670	1.41	0.00038
0	0.5	670	1.40059	0.00037
0	0.5998	670	1.39142	0.00037
0	0.6985	670	1.38262	0.00036
0	0.7995	670	1.37408	0.00036
0	0.9001	670	1.36608	0.00036
0	1	670	1.35841	0.00035
0.1008	0.8992	670	1.361	0.00035
0.1993	0.1006	670	1.42169	0.00037
0.1996	0.1997	670	1.41212	0.00037
0.1996	0.7003	670	1.3693	0.00035
0.1998	0	670	1.43158	0.00037
0.2002	0.3999	670	1.39413	0.00036
0.2004	0.2997	670	1.40279	0.00036
0.2007	0.4995	670	1.3855	0.00036
0.2007	0.6001	670	1.37707	0.00035
0.2045	0.7955	670	1.36188	0.00035
0.2975	0.7025	670	1.36149	0.00035
0.3983	0.1028	670	1.39899	0.00036
0.3992	0.5006	670	1.3677	0.00035
0.3998	0.4001	670	1.37512	0.00035
0.4001	0.2002	670	1.39088	0.00036
0.4002	0.3	670	1.38297	0.00035
0.4003	0	670	1.4071	0.00036
0.4032	0.5968	670	1.36028	0.00035
0.4974	0.5026	670	1.3584	0.00035
0.5995	0.3004	670	1.3617	0.00035
0.5999	0.1006	670	1.3744	0.00035
0.6	0	670	1.38094	0.00035
0.6004	0.2001	670	1.36811	0.00035
0.6008	0.3992	670	1.3551	0.00034
0.7013	0.2987	670	1.35065	0.00034
0.7985	0.2015	670	1.34474	0.00034
0.8004	0	670	1.35523	0.00034
0.8004	0.0999	670	1.35	0.00034
0.8946	0.1054	670	1.33803	0.00034
1	0	670	1.33095	0.00034
0	0	925	1.44824	0.00039
0	0.1264	925	1.43414	0.00039
0	0.1999	925	1.42635	0.00038
0	0.2998	925	1.41589	0.00038
0	0.4005	925	1.40579	0.00038
0	0.5	925	1.39642	0.00037
0	0.5998	925	1.38741	0.00037
0	0.6985	925	1.37862	0.00036
0	0.7995	925	1.37019	0.00036
0	0.9001	925	1.36222	0.00036
0	1	925	1.35453	0.00035
0.1008	0.8992	925	1.35713	0.00035
0.1993	0.1006	925	1.41707	0.00037
0.1996	0.1997	925	1.40765	0.00037
0.1996	0.7003	925	1.36524	0.00035
0.1998	0	925	1.42695	0.00038
0.2002	0.3999	925	1.38985	0.00036
0.2004	0.2997	925	1.39831	0.00036
0.2007	0.4995	925	1.3814	0.00036
0.2007	0.6001	925	1.37299	0.00035
0.2045	0.7955	925	1.35782	0.00035
0.2975	0.7025	925	1.35743	0.00035
0.3983	0.1028	925	1.39428	0.00036
0.3992	0.5006	925	1.36336	0.00035
0.3998	0.4001	925	1.37076	0.00035
0.4001	0.2002	925	1.38638	0.00036
0.4002	0.3	925	1.37868	0.00035
0.4003	0	925	1.40229	0.00036
0.4032	0.5968	925	1.35606	0.00035
0.4974	0.5026	925	1.35396	0.00035
0.5995	0.3004	925	1.35721	0.00035
0.5999	0.1006	925	1.36978	0.00035
0.6	0	925	1.37621	0.00035
0.6004	0.2001	925	1.36341	0.00035
0.6008	0.3992	925	1.3507	0.00034
0.7013	0.2987	925	1.34614	0.00034
0.7985	0.2015	925	1.34002	0.00034
0.8004	0	925	1.35032	0.00034
0.8004	0.0999	925	1.34533	0.00034
0.8946	0.1054	925	1.33321	0.00034
1	0	925	1.32637	0.00034

System: dimethyl sulfoxide + 2-methylpropan-2-ol + water; phases: Liquid
Fixed: Temperature, K = 298.15
Fixed: Pressure, kPa = 101.3
Property: Refractive index (other wavelength) (Liquid); method: Standard Abbe refractometry
Mass fraction of water	Mass fraction of 2-methylpropan-2-ol	Wavelength, nm	Refractive index (other wavelength)	uncertainty
0.6495	0.1499	670	1.37446	0.00034
0.6497	0.0503	670	1.37945	0.00034
0.6497	0.2	670	1.37157	0.00034
0.65	0.3	670	1.3652	0.00034
0.6503	0.1002	670	1.37695	0.00034
0.6503	0.2501	670	1.3684	0.00034
0.6503	0.3497	670	1.36193	0.00034
0.6506	0	670	1.38131	0.00034
0.6974	0	670	1.37412	0.00034
0.6988	0.2497	670	1.3622	0.00034
0.6997	0.1998	670	1.36493	0.00034
0.7	0.1497	670	1.36752	0.00034
0.7001	0.0501	670	1.37172	0.00034
0.7006	0.0998	670	1.36968	0.00034
0.7006	0.2994	670	1.35873	0.00034
0.7478	0.1993	670	1.3585	0.00034
0.7497	0.0499	670	1.36437	0.00034
0.7499	0.1501	670	1.36057	0.00034
0.75	0.25	670	1.35543	0.00034
0.7501	0	670	1.36612	0.00034
0.7508	0.0995	670	1.36239	0.00034
0.7996	0.0493	670	1.35709	0.00034
0.7998	0.0999	670	1.35553	0.00034
0.8	0.1497	670	1.35364	0.00034
0.8001	0	670	1.35864	0.00034
0.8001	0.1999	670	1.35163	0.00034
0.8498	0.0996	670	1.3485	0.00034
0.8498	0.1502	670	1.34684	0.00034
0.8499	0	670	1.35261	0.00034
0.8505	0.0503	670	1.35	0.00034
0.8998	0.0503	670	1.34295	0.00034
0.9004	0.0996	670	1.34135	0.00034
0.9007	0	670	1.34451	0.00034
0.947	0	670	1.33807	0.00034
0.95	0.05	670	1.3361	0.00034
0.6495	0.1499	925	1.36962	0.00034
0.6497	0.0503	925	1.37438	0.00034
0.6497	0.2	925	1.36686	0.00034
0.65	0.3	925	1.36047	0.00034
0.6503	0.1002	925	1.37203	0.00034
0.6503	0.2501	925	1.36365	0.00034
0.6503	0.3497	925	1.35725	0.00034
0.6506	0	925	1.37628	0.00034
0.6974	0	925	1.36911	0.00034
0.6988	0.2497	925	1.35737	0.00034
0.6997	0.1998	925	1.36015	0.00034
0.7	0.1497	925	1.36266	0.00034
0.7001	0.0501	925	1.3667	0.00034
0.7006	0.0998	925	1.36474	0.00034
0.7006	0.2994	925	1.35407	0.00034
0.7478	0.1993	925	1.3537	0.00034
0.7497	0.0499	925	1.35936	0.00034
0.7499	0.1501	925	1.35578	0.00034
0.75	0.25	925	1.35083	0.00034
0.7501	0	925	1.36105	0.00034
0.7508	0.0995	925	1.35713	0.00034
0.7996	0.0493	925	1.35225	0.00034
0.7998	0.0999	925	1.3507	0.00034
0.8	0.1497	925	1.3489	0.00034
0.8001	0	925	1.35378	0.00034
0.8001	0.1999	925	1.34696	0.00034
0.8498	0.0996	925	1.34372	0.00034
0.8498	0.1502	925	1.34214	0.00034
0.8499	0	925	1.34675	0.00034
0.8505	0.0503	925	1.34511	0.00034
0.8998	0.0503	925	1.33814	0.00034
0.9004	0.0996	925	1.33672	0.00034
0.9007	0	925	1.33958	0.00034
0.947	0	925	1.33332	0.00034
0.95	0.05	925	1.33146	0.00034
