Measured thermophysical data. The dilution enthalpies of L-prolinol in N,N-dimethylformamide aqueous  solutions at T = 298.15 K
Source: J. Chem. Thermodyn., 2013, 10.1016/j.jct.2012.08.008
Compound 1: 2-pyrrolidinemethanol, C5H11NO, InChI=1S/C5H11NO/c7-4-5-2-1-3-6-5/h5-7H,1-4H2, purity 99%
Compound 2: dimethylformamide, C3H7NO, InChI=1S/C3H7NO/c1-4(2)3-5/h3H,1-2H3, purity 99%
Compound 3: water, H2O, InChI=1S/H2O/h1H2, purity 95%

System: dimethylformamide + 2-pyrrolidinemethanol + water; phases: Liquid
Fixed: Temperature, K = 298.15
Fixed: Pressure, kPa = 101.3
Property: Molar enthalpy of dilution, kJ/mol (Liquid); method: Flow calorimetry
Solvent: Mass fraction of dimethylformamide	Initial mole fraction of solute	Final mole fraction of solute	Molar enthalpy of dilution, kJ/mol	uncertainty
0	0.05	0.025	0.0713	0.0019
0	0.0796	0.0395	0.0471	0.0014
0	0.1	0.0493	0.0504	0.0015
0	0.1	0.0498	0.05	0.0015
0	0.1294	0.0643	0.0226	0.001
0	0.15	0.0747	0.0213	0.001
0	0.15	0.0738	0.0222	0.001
0	0.1991	0.0989	-0.0031	0.0008
0	0.2	0.098	-0.0029	0.0008
0	0.25	0.1237	-0.0266	0.0011
0	0.2798	0.1387	-0.0277	0.0011
0	0.2999	0.1474	-0.0513	0.0015
0	0.3	0.1484	-0.054	0.0016
0	0.32	0.1583	-0.0604	0.0017
0	0.3491	0.1719	-0.0711	0.0019
0	0.3696	0.1808	-0.0798	0.0021
0	0.4	0.1957	-0.0878	0.0022
0	0.42	0.2066	-0.0934	0.0023
0	0.4495	0.2206	0.1046	0.0026
0	0.48	0.2358	0.1183	0.0028
0	0.5003	0.2453	0.1258	0.003
0	0.5195	0.2542	0.1342	0.0032
0	0.55	0.2687	0.1492	0.0035
0	0.5756	0.281	0.1598	0.0037
0	0.6052	0.295	0.173	0.004
0.05	0.02	0.01	0.0737	0.0019
0.05	0.03	0.015	0.0649	0.0018
0.05	0.045	0.0225	0.0497	0.0015
0.05	0.0539	0.0269	0.0587	0.0016
0.05	0.0999	0.0497	0.0223	0.001
0.05	0.1499	0.0744	-0.0073	0.0009
0.05	0.2164	0.107	-0.0389	0.0013
0.05	0.25	0.1235	-0.0412	0.0013
0.05	0.278	0.1371	-0.0545	0.0016
0.05	0.2795	0.1384	-0.0637	0.0017
0.05	0.3	0.1478	-0.0688	0.0018
0.05	0.3002	0.1483	-0.0717	0.0019
0.05	0.3196	0.1572	-0.0834	0.0021
0.05	0.32	0.1578	-0.0789	0.002
0.05	0.3498	0.1718	-0.0952	0.0024
0.05	0.38	0.1864	-0.1075	0.0026
0.05	0.3998	0.1956	-0.1191	0.0029
0.05	0.42	0.2056	-0.1267	0.003
0.05	0.4493	0.2193	-0.139	0.0033
0.05	0.4798	0.2342	-0.1563	0.0036
0.05	0.4999	0.2434	-0.1629	0.0038
0.05	0.55	0.2668	-0.1844	0.0042
0.05	0.5799	0.282	-0.1994	0.0045
0.05	0.5998	0.2912	-0.2169	0.0049
0.05	0.6197	0.3005	-0.2197	0.0049
0.05	0.6478	0.3135	-0.2409	0.0054
0.1	0.045	0.0224	0.0175	0.0009
0.1	0.0601	0.0298	0.016	0.0009
0.1	0.085	0.0421	0.009	0.0009
0.1	0.1201	0.0594	-0.0057	0.0009
0.1	0.1502	0.0742	-0.0241	0.001
0.1	0.1801	0.0889	-0.0359	0.0012
0.1	0.2051	0.1018	-0.0462	0.0014
0.1	0.2202	0.1085	-0.0496	0.0015
0.1	0.25	0.1232	-0.0687	0.0018
0.1	0.2789	0.1372	-0.081	0.0021
0.1	0.2997	0.1474	-0.0995	0.0025
0.1	0.3191	0.1567	-0.108	0.0026
0.1	0.349	0.1712	-0.1231	0.0029
0.1	0.38	0.1859	-0.1341	0.0032
0.1	0.3998	0.195	-0.141	0.0033
0.1	0.4197	0.2049	-0.1553	0.0036
0.1	0.4501	0.2195	-0.1663	0.0038
0.1	0.4798	0.2349	-0.1771	0.0041
0.1	0.4994	0.2443	-0.1855	0.0042
0.1	0.52	0.254	-0.199	0.0045
0.1	0.5501	0.2683	-0.2086	0.0047
0.1	0.58	0.2836	-0.2255	0.0051
0.1	0.5998	0.2927	-0.2309	0.0052
0.1	0.62	0.302	-0.2473	0.0055
0.2	0.0608	0.0303	-0.0209	0.001
0.2	0.0651	0.0322	-0.0238	0.001
0.2	0.085	0.0421	-0.0276	0.0011
0.2	0.1201	0.0593	-0.0352	0.0012
0.2	0.15	0.0738	-0.0439	0.0014
0.2	0.1797	0.0883	-0.057	0.0016
0.2	0.2101	0.1031	-0.0674	0.0018
0.2	0.2368	0.1163	-0.0794	0.002
0.2	0.2697	0.1326	-0.095	0.0024
0.2	0.2796	0.138	-0.114	0.0027
0.2	0.3114	0.154	-0.1256	0.003
0.2	0.3493	0.1724	-0.1372	0.0032
0.2	0.3797	0.1871	-0.1571	0.0036
0.2	0.3995	0.1964	-0.1571	0.0036
0.2	0.4198	0.2064	-0.1686	0.0039
0.2	0.4499	0.221	-0.1765	0.004
0.2	0.48	0.2347	-0.1933	0.0044
0.2	0.4995	0.2441	-0.2035	0.0046
0.2	0.5196	0.2535	-0.2096	0.0047
0.2	0.5501	0.2678	-0.2254	0.0051
0.2	0.5797	0.2823	-0.2373	0.0053
0.2	0.6001	0.2915	-0.2428	0.0054
0.2	0.6177	0.2998	-0.2512	0.0056
0.3	0.075	0.0374	-0.036	0.0012
0.3	0.1201	0.0598	-0.0394	0.0013
0.3	0.1599	0.0794	-0.0565	0.0016
0.3	0.1999	0.098	-0.0685	0.0018
0.3	0.2399	0.1187	-0.0882	0.0022
0.3	0.2798	0.1383	-0.1058	0.0026
0.3	0.3001	0.1468	-0.1157	0.0028
0.3	0.321	0.1569	-0.1216	0.0029
0.3	0.3499	0.1734	-0.1296	0.0031
0.3	0.3799	0.1883	-0.1423	0.0033
0.3	0.4	0.198	-0.1485	0.0035
0.3	0.4198	0.2076	-0.154	0.0036
0.3	0.4498	0.2222	-0.1594	0.0037
0.3	0.48	0.2369	-0.1696	0.0039
0.3	0.4997	0.2464	-0.1751	0.004
0.3	0.5173	0.2551	-0.1801	0.0041
0.3	0.5499	0.2711	-0.1861	0.0042
0.3	0.5799	0.2853	-0.1943	0.0044
0.3	0.5996	0.295	-0.2029	0.0046
0.4	0.1199	0.059	-0.0454	0.0014
0.4	0.1546	0.076	-0.0519	0.0015
0.4	0.1799	0.0883	-0.0595	0.0017
0.4	0.215	0.1055	-0.0702	0.0019
0.4	0.2502	0.1226	-0.0787	0.002
0.4	0.2799	0.137	-0.0902	0.0023
0.4	0.2995	0.1462	-0.0957	0.0024
0.4	0.32	0.1587	-0.1071	0.0026
0.4	0.3477	0.1722	-0.1147	0.0028
0.4	0.38	0.1879	-0.1226	0.0029
0.4	0.4	0.198	-0.1286	0.003
0.4	0.42	0.208	-0.1295	0.0031
0.4	0.4495	0.2223	-0.1392	0.0033
0.4	0.4745	0.2344	-0.1394	0.0033
0.4	0.5001	0.2468	-0.1481	0.0035
0.4	0.525	0.2588	-0.1505	0.0035
0.4	0.55	0.2711	-0.159	0.0037
0.4	0.5749	0.2833	-0.1618	0.0037
0.4	0.6	0.2953	-0.1713	0.0039
0.4	0.6247	0.307	-0.1715	0.0039

System: 2-pyrrolidinemethanol + water; phases: Liquid
Fixed: Temperature, K = 298.15
Fixed: Pressure, kPa = 101.3
Property: Molar enthalpy of dilution, kJ/mol (Liquid); method: Flow calorimetry
Initial mole fraction of solute	Final mole fraction of solute	Molar enthalpy of dilution, kJ/mol	uncertainty
0.05	0.025	0.0713	0.0019
0.0796	0.0395	0.0471	0.0014
0.1	0.0493	0.0504	0.0015
0.1	0.0498	0.05	0.0015
0.1294	0.0643	0.0226	0.001
0.15	0.0747	0.0213	0.001
0.15	0.0738	0.0222	0.001
0.1991	0.0989	-0.0031	0.0009
0.2	0.098	-0.0029	0.0009
0.25	0.1237	-0.0266	0.0011
0.2798	0.1387	-0.0277	0.0011
0.2999	0.1474	-0.0513	0.0015
0.3	0.1484	-0.054	0.0016
0.32	0.1583	-0.0604	0.0017
0.3491	0.1719	-0.0711	0.0019
0.3696	0.1808	-0.0798	0.0021
0.4	0.1957	-0.0878	0.0022
0.42	0.2066	-0.0934	0.0023
0.4495	0.2206	0.1046	0.0026
0.48	0.2358	0.1183	0.0028
0.5003	0.2453	0.1258	0.003
0.5195	0.2542	0.1342	0.0032
0.55	0.2687	0.1492	0.0035
0.5756	0.281	0.1598	0.0037
0.6052	0.295	0.173	0.004
