Measured thermophysical data. Application of the ERAS model to volumetric properties of binary mixtures of banana oil with primary and secondary alcohols (C1- C4) at different  temperatures
Source: J. Chem. Thermodyn., 2011, 10.1016/j.jct.2010.12.009
Compound 1: 3-methylbutyl ethanoate, C7H14O2, InChI=1S/C7H14O2/c1-6(2)4-5-9-7(3)8/h6H,4-5H2,1-3H3, purity 99%
Compound 2: methanol, CH4O, InChI=1S/CH4O/c1-2/h2H,1H3, purity 99.8%
Compound 3: ethanol, C2H6O, InChI=1S/C2H6O/c1-2-3/h3H,2H2,1H3, purity 99.9%
Compound 4: propan-1-ol, C3H8O, InChI=1S/C3H8O/c1-2-3-4/h4H,2-3H2,1H3, purity 99.8%
Compound 5: propan-2-ol, C3H8O, InChI=1S/C3H8O/c1-3(2)4/h3-4H,1-2H3, purity 99.5%
Compound 6: butan-1-ol, C4H10O, InChI=1S/C4H10O/c1-2-3-4-5/h5H,2-4H2,1H3, purity 99.8%
Compound 7: butan-2-ol, C4H10O, InChI=1S/C4H10O/c1-3-4(2)5/h4-5H,3H2,1-2H3, purity 99%

System: 3-methylbutyl ethanoate; phases: Liquid
Property: Refractive index (Na D-line) (Liquid); method: Standard Abbe refractometry
Temperature, K	Pressure, kPa	Refractive index (Na D-line)	uncertainty
298.15	101.325	1.3975	0.0005

System: 3-methylbutyl ethanoate; phases: Liquid
Fixed: Pressure, kPa = 101.325
Property: Mass density, kg/m3 (Liquid); method: Vibrating tube method
Temperature, K	Mass density, kg/m3	uncertainty
293.15	872.91	0.24
298.15	868	0.24
303.15	863.13	0.24
313.15	853.29	0.24
323.15	843.37	0.24
333.15	833.37	0.24

System: methanol; phases: Liquid
Property: Refractive index (Na D-line) (Liquid); method: Standard Abbe refractometry
Temperature, K	Pressure, kPa	Refractive index (Na D-line)	uncertainty
298.15	101.325	1.3257	0.0005

System: methanol; phases: Liquid
Fixed: Pressure, kPa = 101.325
Property: Mass density, kg/m3 (Liquid); method: Vibrating tube method
Temperature, K	Mass density, kg/m3	uncertainty
293.15	791.38	0.15
303.15	781.95	0.15
313.15	772.43	0.15
323.15	762.77	0.16
333.15	752.94	0.16

System: ethanol; phases: Liquid
Property: Refractive index (Na D-line) (Liquid); method: Standard Abbe refractometry
Temperature, K	Pressure, kPa	Refractive index (Na D-line)	uncertainty
298.15	101.325	1.3583	0.0005

System: ethanol; phases: Liquid
Fixed: Pressure, kPa = 101.325
Property: Mass density, kg/m3 (Liquid); method: Vibrating tube method
Temperature, K	Mass density, kg/m3	uncertainty
293.15	789.5	0.15
303.15	780.89	0.15
313.15	772.16	0.15
323.15	763.25	0.15
333.15	754.1	0.16

System: propan-1-ol; phases: Liquid
Property: Refractive index (Na D-line) (Liquid); method: Standard Abbe refractometry
Temperature, K	Pressure, kPa	Refractive index (Na D-line)	uncertainty
298.15	101.325	1.3822	0.0005

System: propan-1-ol; phases: Liquid
Fixed: Pressure, kPa = 101.325
Property: Mass density, kg/m3 (Liquid); method: Vibrating tube method
Temperature, K	Mass density, kg/m3	uncertainty
293.15	803.61	0.15
303.15	795.58	0.15
313.15	787.4	0.15
323.15	779.04	0.15
333.15	770.42	0.15

System: propan-2-ol; phases: Liquid
Property: Refractive index (Na D-line) (Liquid); method: Standard Abbe refractometry
Temperature, K	Pressure, kPa	Refractive index (Na D-line)	uncertainty
298.15	101.325	1.3741	0.0005

System: propan-2-ol; phases: Liquid
Fixed: Pressure, kPa = 101.325
Property: Mass density, kg/m3 (Liquid); method: Vibrating tube method
Temperature, K	Mass density, kg/m3	uncertainty
293.15	785.16	0.17
303.15	776.69	0.17
313.15	767.9	0.17
323.15	758.73	0.17
333.15	749.1	0.18

System: butan-1-ol; phases: Liquid
Property: Refractive index (Na D-line) (Liquid); method: Standard Abbe refractometry
Temperature, K	Pressure, kPa	Refractive index (Na D-line)	uncertainty
298.15	101.325	1.3964	0.0005

System: butan-1-ol; phases: Liquid
Fixed: Pressure, kPa = 101.325
Property: Mass density, kg/m3 (Liquid); method: Vibrating tube method
Temperature, K	Mass density, kg/m3	uncertainty
293.15	809.89	0.14
303.15	802.24	0.15
313.15	794.45	0.15
323.15	786.49	0.15
333.15	778.31	0.15

System: butan-2-ol; phases: Liquid
Property: Refractive index (Na D-line) (Liquid); method: Standard Abbe refractometry
Temperature, K	Pressure, kPa	Refractive index (Na D-line)	uncertainty
298.15	101.325	1.3943	0.0005

System: butan-2-ol; phases: Liquid
Fixed: Pressure, kPa = 101.325
Property: Mass density, kg/m3 (Liquid); method: Vibrating tube method
Temperature, K	Mass density, kg/m3	uncertainty
293.15	806.76	0.24
303.15	798.43	0.24
313.15	789.75	0.24
323.15	780.65	0.24
333.15	771.1	0.24

System: methanol + 3-methylbutyl ethanoate; phases: Liquid
Fixed: Pressure, kPa = 101
Property: Mass density, kg/m3 (Liquid); method: Vibrating tube method
Temperature, K	Mole fraction of 3-methylbutyl ethanoate	Mass density, kg/m3	uncertainty
293.15	0.0758	810.14	0.15
293.15	0.1438	822.44	0.15
293.15	0.2227	833.26	0.15
293.15	0.2943	840.84	0.15
293.15	0.3847	848.4	0.15
293.15	0.4588	853.34	0.16
293.15	0.5324	857.42	0.17
293.15	0.616	861.33	0.17
293.15	0.6916	864.29	0.18
293.15	0.7662	866.86	0.19
293.15	0.858	869.47	0.21
293.15	0.9463	871.69	0.22
303.15	0.0758	800.5	0.15
303.15	0.1438	812.69	0.15
303.15	0.2227	823.44	0.15
303.15	0.2943	830.99	0.15
303.15	0.3847	838.51	0.16
303.15	0.4588	843.43	0.16
303.15	0.5324	847.5	0.17
303.15	0.616	851.41	0.18
303.15	0.6916	854.38	0.19
303.15	0.7662	856.97	0.2
303.15	0.858	859.61	0.21
303.15	0.9463	861.88	0.22
313.15	0.0758	790.75	0.15
313.15	0.1438	802.84	0.15
313.15	0.2227	813.5	0.15
313.15	0.2943	821	0.15
313.15	0.3847	828.5	0.16
313.15	0.4588	833.42	0.16
313.15	0.5324	837.47	0.17
313.15	0.616	841.38	0.18
313.15	0.6916	844.37	0.19
313.15	0.7662	846.99	0.2
313.15	0.858	849.66	0.21
313.15	0.9463	851.99	0.23
323.15	0.0758	780.87	0.16
323.15	0.1438	792.83	0.16
323.15	0.2227	803.42	0.16
323.15	0.2943	810.9	0.16
323.15	0.3847	818.33	0.16
323.15	0.4588	823.17	0.17
323.15	0.5324	827.31	0.17
323.15	0.616	831.23	0.18
323.15	0.6916	834.23	0.19
323.15	0.7662	836.89	0.2
323.15	0.858	839.62	0.21
323.15	0.9463	842.02	0.23
333.15	0.0758	770.81	0.16
333.15	0.1438	782.63	0.16
333.15	0.2227	793.14	0.16
333.15	0.2943	800.59	0.16
333.15	0.3847	807.99	0.16
333.15	0.4588	812.76	0.17
333.15	0.5324	816.98	0.17
333.15	0.616	820.76	0.18
333.15	0.6916	823.96	0.19
333.15	0.7662	826.66	0.2
333.15	0.858	829.47	0.21
333.15	0.9463	831.96	0.23

System: methanol + 3-methylbutyl ethanoate; phases: Liquid
Fixed: Pressure, kPa = 101
Property: Excess molar volume, m3/mol (Liquid); method: Calculated with densities of this investigation
Temperature, K	Mole fraction of 3-methylbutyl ethanoate	Excess molar volume, m3/mol	uncertainty
293.15	0.0758	9e-09	8e-09
293.15	0.1438	7e-09	8e-09
293.15	0.2227	-1e-09	8e-09
293.15	0.2943	-7e-09	8e-09
293.15	0.3847	-1.7e-08	8e-09
293.15	0.4588	-2.2e-08	8e-09
293.15	0.5324	-2.4e-08	8e-09
293.15	0.616	-2.8e-08	8e-09
293.15	0.6916	-2.5e-08	8e-09
293.15	0.7662	-2.7e-08	8e-09
293.15	0.858	-1e-08	8e-09
293.15	0.9463	-3e-09	8e-09
303.15	0.0758	1.7e-08	8e-09
303.15	0.1438	1.9e-08	8e-09
303.15	0.2227	1.4e-08	8e-09
303.15	0.2943	1e-08	8e-09
303.15	0.3847	3e-09	8e-09
303.15	0.4588	0	1e-08
303.15	0.5324	-1e-09	8e-09
303.15	0.616	-5e-09	8e-09
303.15	0.6916	-3e-09	8e-09
303.15	0.7662	-8e-09	8e-09
303.15	0.858	4e-09	8e-09
303.15	0.9463	3e-09	8e-09
313.15	0.0758	2.6e-08	8e-09
313.15	0.1438	3.3e-08	8e-09
313.15	0.2227	3.4e-08	8e-09
313.15	0.2943	3.4e-08	8e-09
313.15	0.3847	2.9e-08	8e-09
313.15	0.4588	2.6e-08	8e-09
313.15	0.5324	2.8e-08	8e-09
313.15	0.616	2.5e-08	8e-09
313.15	0.6916	2.5e-08	8e-09
313.15	0.7662	1.6e-08	8e-09
313.15	0.858	2.4e-08	8e-09
313.15	0.9463	1.2e-08	8e-09
323.15	0.0758	3.7e-08	8e-09
323.15	0.1438	5.1e-08	8e-09
323.15	0.2227	5.7e-08	8e-09
323.15	0.2943	6e-08	8e-09
323.15	0.3847	6.2e-08	8e-09
323.15	0.4588	7e-08	8e-09
323.15	0.5324	6.3e-08	8e-09
323.15	0.616	6e-08	8e-09
323.15	0.6916	6e-08	8e-09
323.15	0.7662	4.6e-08	8e-09
323.15	0.858	4.6e-08	8e-09
323.15	0.9463	2.2e-08	8e-09
333.15	0.0758	4.9e-08	8e-09
333.15	0.1438	7.4e-08	8e-09
333.15	0.2227	8.8e-08	8e-09
333.15	0.2943	9.5e-08	8e-09
333.15	0.3847	1.04e-07	8e-09
333.15	0.4588	1.22e-07	8e-09
333.15	0.5324	1.09e-07	8e-09
333.15	0.616	1.28e-07	8e-09
333.15	0.6916	1.03e-07	8e-09
333.15	0.7662	8.4e-08	8e-09
333.15	0.858	7.3e-08	8e-09
333.15	0.9463	3.3e-08	8e-09

System: ethanol + 3-methylbutyl ethanoate; phases: Liquid
Fixed: Pressure, kPa = 101
Property: Mass density, kg/m3 (Liquid); method: Vibrating tube method
Temperature, K	Mole fraction of 3-methylbutyl ethanoate	Mass density, kg/m3	uncertainty
293.15	0.0741	803.2	0.15
293.15	0.1483	814.43	0.15
293.15	0.2224	823.82	0.15
293.15	0.2976	831.78	0.15
293.15	0.3766	839.04	0.15
293.15	0.4562	845.29	0.16
293.15	0.524	849.98	0.16
293.15	0.6178	855.66	0.17
293.15	0.7017	860.12	0.18
293.15	0.7774	863.76	0.19
293.15	0.8732	867.92	0.21
293.15	0.9568	871.25	0.23
303.15	0.0741	794.28	0.15
303.15	0.1483	805.27	0.15
303.15	0.2224	814.48	0.15
303.15	0.2976	822.3	0.15
303.15	0.3766	829.45	0.15
303.15	0.4562	835.6	0.16
303.15	0.524	840.23	0.16
303.15	0.6178	845.86	0.17
303.15	0.7017	850.27	0.18
303.15	0.7774	853.91	0.19
303.15	0.8732	858.09	0.21
303.15	0.9568	861.45	0.23
313.15	0.0741	785.22	0.15
313.15	0.1483	795.97	0.15
313.15	0.2224	804.99	0.15
313.15	0.2976	812.67	0.15
313.15	0.3766	819.71	0.16
313.15	0.4562	825.78	0.16
313.15	0.524	830.36	0.17
313.15	0.6178	835.94	0.17
313.15	0.7017	840.36	0.18
313.15	0.7774	843.98	0.19
313.15	0.8732	848.19	0.21
313.15	0.9568	851.58	0.23
323.15	0.0741	775.98	0.15
323.15	0.1483	786.48	0.15
323.15	0.2224	795.33	0.15
323.15	0.2976	802.86	0.15
323.15	0.3766	809.8	0.16
323.15	0.4562	815.79	0.16
323.15	0.524	820.34	0.17
323.15	0.6178	825.88	0.18
323.15	0.7017	830.3	0.19
323.15	0.7774	833.94	0.2
323.15	0.8732	838.18	0.21
323.15	0.9568	841.64	0.23
333.15	0.0741	766.5	0.16
333.15	0.1483	776.77	0.16
333.15	0.2224	785.43	0.16
333.15	0.2976	792.85	0.16
333.15	0.3766	799.69	0.16
333.15	0.4562	805.62	0.16
333.15	0.524	810.13	0.17
333.15	0.6178	815.71	0.18
333.15	0.7017	820.1	0.19
333.15	0.7774	823.77	0.2
333.15	0.8732	828.07	0.21
333.15	0.9568	831.6	0.23

System: ethanol + 3-methylbutyl ethanoate; phases: Liquid
Fixed: Pressure, kPa = 101
Property: Excess molar volume, m3/mol (Liquid); method: Calculated with densities of this investigation
Temperature, K	Mole fraction of 3-methylbutyl ethanoate	Excess molar volume, m3/mol	uncertainty
293.15	0.0741	3.8e-08	8e-09
293.15	0.1483	6.7e-08	8e-09
293.15	0.2224	8.6e-08	8e-09
293.15	0.2976	1.11e-07	8e-09
293.15	0.3766	1.19e-07	8e-09
293.15	0.4562	1.29e-07	8e-09
293.15	0.524	1.32e-07	8e-09
293.15	0.6178	1.33e-07	8e-09
293.15	0.7017	1.27e-07	8e-09
293.15	0.7774	1.11e-07	8e-09
293.15	0.8732	8e-08	8e-09
293.15	0.9568	3.5e-08	8e-09
303.15	0.0741	4.8e-08	8e-09
303.15	0.1483	8.6e-08	8e-09
303.15	0.2224	1.12e-07	8e-09
303.15	0.2976	1.42e-07	8e-09
303.15	0.3766	1.53e-07	8e-09
303.15	0.4562	1.66e-07	8e-09
303.15	0.524	1.71e-07	8e-09
303.15	0.6178	1.71e-07	8e-09
303.15	0.7017	1.65e-07	8e-09
303.15	0.7774	1.43e-07	8e-09
303.15	0.8732	1.01e-07	8e-09
303.15	0.9568	4.3e-08	8e-09
313.15	0.0741	6.1e-08	8e-09
313.15	0.1483	1.09e-07	8e-09
313.15	0.2224	1.44e-07	8e-09
313.15	0.2976	1.81e-07	8e-09
313.15	0.3766	1.96e-07	8e-09
313.15	0.4562	2.12e-07	8e-09
313.15	0.524	2.17e-07	8e-09
313.15	0.6178	2.17e-07	8e-09
313.15	0.7017	2.03e-07	8e-09
313.15	0.7774	1.78e-07	8e-09
313.15	0.8732	1.23e-07	8e-09
313.15	0.9568	5.3e-08	8e-09
323.15	0.0741	7.7e-08	8e-09
323.15	0.1483	1.37e-07	8e-09
323.15	0.2224	1.81e-07	8e-09
323.15	0.2976	2.26e-07	8e-09
323.15	0.3766	2.47e-07	8e-09
323.15	0.4562	2.67e-07	8e-09
323.15	0.524	2.71e-07	8e-09
323.15	0.6178	2.7e-07	8e-09
323.15	0.7017	2.51e-07	8e-09
323.15	0.7774	2.18e-07	8e-09
323.15	0.8732	1.5e-07	8e-09
323.15	0.9568	6.1e-08	8e-09
333.15	0.0741	9.5e-08	8e-09
333.15	0.1483	1.7e-07	8e-09
333.15	0.2224	2.26e-07	8e-09
333.15	0.2976	2.79e-07	8e-09
333.15	0.3766	3.07e-07	8e-09
333.15	0.4562	3.3e-07	9e-09
333.15	0.524	3.37e-07	9e-09
333.15	0.6178	3.26e-07	9e-09
333.15	0.7017	3.07e-07	8e-09
333.15	0.7774	2.65e-07	8e-09
333.15	0.8732	1.81e-07	8e-09
333.15	0.9568	7.2e-08	8e-09

System: propan-1-ol + 3-methylbutyl ethanoate; phases: Liquid
Fixed: Pressure, kPa = 101
Property: Mass density, kg/m3 (Liquid); method: Vibrating tube method
Temperature, K	Mole fraction of 3-methylbutyl ethanoate	Mass density, kg/m3	uncertainty
293.15	0.0908	814.61	0.15
293.15	0.1594	821.9	0.15
293.15	0.24	829.45	0.15
293.15	0.3203	836.11	0.15
293.15	0.4002	842.05	0.16
293.15	0.4786	847.29	0.16
293.15	0.5535	851.85	0.17
293.15	0.6377	856.52	0.18
293.15	0.7256	860.95	0.19
293.15	0.7979	864.33	0.2
293.15	0.8403	866.24	0.21
293.15	0.9483	870.82	0.22
303.15	0.0908	806.17	0.15
303.15	0.1594	813.22	0.15
303.15	0.24	820.52	0.15
303.15	0.3203	826.99	0.15
303.15	0.4002	832.76	0.16
303.15	0.4786	837.88	0.16
303.15	0.5535	842.33	0.17
303.15	0.6377	846.91	0.18
303.15	0.7256	851.26	0.19
303.15	0.7979	854.6	0.2
303.15	0.8403	856.49	0.21
303.15	0.9483	861.04	0.23
313.15	0.0908	797.59	0.15
313.15	0.1594	804.39	0.15
313.15	0.24	811.46	0.15
313.15	0.3203	817.74	0.16
313.15	0.4002	823.34	0.16
313.15	0.4786	828.34	0.17
313.15	0.5535	832.69	0.17
313.15	0.6377	837.19	0.18
313.15	0.7256	841.47	0.19
313.15	0.7979	844.78	0.2
313.15	0.8403	846.65	0.21
313.15	0.9483	851.2	0.23
323.15	0.0908	788.83	0.15
323.15	0.1594	795.39	0.15
323.15	0.24	802.22	0.16
323.15	0.3203	808.31	0.16
323.15	0.4002	813.78	0.16
323.15	0.4786	818.65	0.17
323.15	0.5535	822.92	0.17
323.15	0.6377	827.34	0.18
323.15	0.7256	831.57	0.19
323.15	0.7979	834.87	0.2
323.15	0.8403	836.73	0.21
323.15	0.9483	841.27	0.23
333.15	0.0908	779.84	0.15
333.15	0.1594	786.17	0.16
333.15	0.24	792.78	0.16
333.15	0.3203	798.7	0.16
333.15	0.4002	804.04	0.17
333.15	0.4786	808.78	0.17
333.15	0.5535	812.99	0.18
333.15	0.6377	817.35	0.19
333.15	0.7256	821.54	0.2
333.15	0.7979	824.82	0.2
333.15	0.8403	826.69	0.21
333.15	0.9483	831.25	0.23

System: propan-1-ol + 3-methylbutyl ethanoate; phases: Liquid
Fixed: Pressure, kPa = 101
Property: Excess molar volume, m3/mol (Liquid); method: Calculated with densities of this investigation
Temperature, K	Mole fraction of 3-methylbutyl ethanoate	Excess molar volume, m3/mol	uncertainty
293.15	0.0908	5.1e-08	8e-09
293.15	0.1594	7.7e-08	8e-09
293.15	0.24	1.05e-07	8e-09
293.15	0.3203	1.27e-07	8e-09
293.15	0.4002	1.4e-07	8e-09
293.15	0.4786	1.48e-07	8e-09
293.15	0.5535	1.5e-07	8e-09
293.15	0.6377	1.46e-07	8e-09
293.15	0.7256	1.37e-07	8e-09
293.15	0.7979	1.2e-07	8e-09
293.15	0.8403	1.02e-07	8e-09
293.15	0.9483	4.1e-08	8e-09
303.15	0.0908	6.5e-08	8e-09
303.15	0.1594	9.8e-08	8e-09
303.15	0.24	1.35e-07	8e-09
303.15	0.3203	1.61e-07	8e-09
303.15	0.4002	1.79e-07	8e-09
303.15	0.4786	1.87e-07	8e-09
303.15	0.5535	1.9e-07	8e-09
303.15	0.6377	1.83e-07	8e-09
303.15	0.7256	1.7e-07	8e-09
303.15	0.7979	1.47e-07	8e-09
303.15	0.8403	1.25e-07	8e-09
303.15	0.9483	5e-08	8e-09
313.15	0.0908	8.1e-08	8e-09
313.15	0.1594	1.23e-07	8e-09
313.15	0.24	1.68e-07	8e-09
313.15	0.3203	2e-07	8e-09
313.15	0.4002	2.23e-07	8e-09
313.15	0.4786	2.33e-07	8e-09
313.15	0.5535	2.36e-07	8e-09
313.15	0.6377	2.27e-07	8e-09
313.15	0.7256	2.09e-07	8e-09
313.15	0.7979	1.79e-07	8e-09
313.15	0.8403	1.52e-07	8e-09
313.15	0.9483	5.9e-08	8e-09
323.15	0.0908	9.9e-08	8e-09
323.15	0.1594	1.51e-07	8e-09
323.15	0.24	2.06e-07	8e-09
323.15	0.3203	2.46e-07	8e-09
323.15	0.4002	2.71e-07	8e-09
323.15	0.4786	2.85e-07	8e-09
323.15	0.5535	2.87e-07	8e-09
323.15	0.6377	2.76e-07	8e-09
323.15	0.7256	2.52e-07	8e-09
323.15	0.7979	2.11e-07	8e-09
323.15	0.8403	1.8e-07	8e-09
323.15	0.9483	7e-08	8e-09
333.15	0.0908	1.17e-07	8e-09
333.15	0.1594	1.81e-07	8e-09
333.15	0.24	2.48e-07	8e-09
333.15	0.3203	2.95e-07	8e-09
333.15	0.4002	3.24e-07	9e-09
333.15	0.4786	3.44e-07	9e-09
333.15	0.5535	3.44e-07	9e-09
333.15	0.6377	3.3e-07	9e-09
333.15	0.7256	3e-07	8e-09
333.15	0.7979	2.52e-07	8e-09
333.15	0.8403	2.13e-07	8e-09
333.15	0.9483	8.3e-08	8e-09

System: propan-2-ol + 3-methylbutyl ethanoate; phases: Liquid
Fixed: Pressure, kPa = 101
Property: Mass density, kg/m3 (Liquid); method: Vibrating tube method
Temperature, K	Mole fraction of 3-methylbutyl ethanoate	Mass density, kg/m3	uncertainty
293.15	0.0803	796.71	0.17
293.15	0.1602	806.95	0.17
293.15	0.2414	816.24	0.17
293.15	0.3152	823.84	0.18
293.15	0.4006	831.81	0.18
293.15	0.4934	839.65	0.19
293.15	0.5668	845.36	0.19
293.15	0.6524	851.53	0.2
293.15	0.7273	856.58	0.21
293.15	0.7771	859.71	0.21
293.15	0.8718	865.49	0.22
293.15	0.9413	869.53	0.23
303.15	0.0803	787.87	0.17
303.15	0.1602	797.82	0.17
303.15	0.2414	806.9	0.2
303.15	0.3152	814.34	0.18
303.15	0.4006	822.18	0.18
303.15	0.4934	829.92	0.19
303.15	0.5668	835.58	0.19
303.15	0.6524	841.7	0.2
303.15	0.7273	846.74	0.21
303.15	0.7771	849.86	0.21
303.15	0.8718	855.68	0.22
303.15	0.9413	859.73	0.23
313.15	0.0803	778.75	0.17
313.15	0.1602	788.43	0.18
313.15	0.2414	797.34	0.18
313.15	0.3152	804.63	0.18
313.15	0.4006	812.37	0.19
313.15	0.4934	820.06	0.19
313.15	0.5668	825.66	0.2
313.15	0.6524	831.76	0.2
313.15	0.7273	836.8	0.21
313.15	0.7771	839.93	0.21
313.15	0.8718	845.77	0.22
313.15	0.9413	849.86	0.23
323.15	0.0803	769.3	0.18
323.15	0.1602	778.76	0.18
323.15	0.2414	787.51	0.18
323.15	0.3152	794.7	0.18
323.15	0.4006	802.35	0.19
323.15	0.4934	810	0.19
323.15	0.5668	815.57	0.2
323.15	0.6524	821.68	0.2
323.15	0.7273	826.74	0.21
323.15	0.7771	829.88	0.21
323.15	0.8718	835.77	0.22
323.15	0.9413	839.91	0.23
333.15	0.0803	759.45	0.18
333.15	0.1602	768.74	0.18
333.15	0.2414	777.37	0.18
333.15	0.3152	784.5	0.2
333.15	0.4006	792.1	0.2
333.15	0.4934	799.73	0.19
333.15	0.5668	805.31	0.2
333.15	0.6524	811.43	0.2
333.15	0.7273	816.52	0.21
333.15	0.7771	819.71	0.21
333.15	0.8718	825.67	0.22
333.15	0.9413	829.86	0.23

System: propan-2-ol + 3-methylbutyl ethanoate; phases: Liquid
Fixed: Pressure, kPa = 101
Property: Excess molar volume, m3/mol (Liquid); method: Calculated with densities of this investigation
Temperature, K	Mole fraction of 3-methylbutyl ethanoate	Excess molar volume, m3/mol	uncertainty
293.15	0.0803	1.25e-07	8e-09
293.15	0.1602	2.17e-07	8e-09
293.15	0.2414	2.89e-07	8e-09
293.15	0.3152	3.39e-07	9e-09
293.15	0.4006	3.79e-07	9e-09
293.15	0.4934	3.99e-07	9e-09
293.15	0.5668	3.94e-07	9e-09
293.15	0.6524	3.69e-07	9e-09
293.15	0.7273	3.28e-07	9e-09
293.15	0.7771	3e-07	8e-09
293.15	0.8718	2.04e-07	8e-09
293.15	0.9413	1.1e-07	8e-09
303.15	0.0803	1.47e-07	8e-09
303.15	0.1602	2.57e-07	8e-09
303.15	0.2414	3.4e-07	9e-09
303.15	0.3152	3.99e-07	9e-09
303.15	0.4006	4.43e-07	9e-09
303.15	0.4934	4.64e-07	9e-09
303.15	0.5668	4.56e-07	9e-09
303.15	0.6524	4.28e-07	9e-09
303.15	0.7273	3.78e-07	9e-09
303.15	0.7771	3.45e-07	9e-09
303.15	0.8718	2.29e-07	8e-09
303.15	0.9413	1.23e-07	8e-09
313.15	0.0803	1.7e-07	8e-09
313.15	0.1602	2.99e-07	8e-09
313.15	0.2414	3.92e-07	9e-09
313.15	0.3152	4.62e-07	9e-09
313.15	0.4006	5.11e-07	1e-08
313.15	0.4934	5.29e-07	1e-08
313.15	0.5668	5.22e-07	1e-08
313.15	0.6524	4.88e-07	9e-09
313.15	0.7273	4.29e-07	9e-09
313.15	0.7771	3.9e-07	9e-09
313.15	0.8718	2.59e-07	8e-09
313.15	0.9413	1.37e-07	8e-09
323.15	0.0803	1.93e-07	8e-09
323.15	0.1602	3.41e-07	9e-09
323.15	0.2414	4.47e-07	9e-09
323.15	0.3152	5.25e-07	1e-08
323.15	0.4006	5.8e-07	1e-08
323.15	0.4934	5.98e-07	1e-08
323.15	0.5668	5.91e-07	1e-08
323.15	0.6524	5.49e-07	1e-08
323.15	0.7273	4.81e-07	9e-09
323.15	0.7771	4.36e-07	9e-09
323.15	0.8718	2.88e-07	8e-09
323.15	0.9413	1.49e-07	8e-09
333.15	0.0803	2.15e-07	8e-09
333.15	0.1602	3.83e-07	9e-09
333.15	0.2414	5.03e-07	1e-08
333.15	0.3152	5.88e-07	1e-08
333.15	0.4006	6.5e-07	1.1e-08
333.15	0.4934	6.69e-07	1.1e-08
333.15	0.5668	6.59e-07	1.1e-08
333.15	0.6524	6.14e-07	1e-08
333.15	0.7273	5.38e-07	1e-08
333.15	0.7771	4.83e-07	9e-09
333.15	0.8718	3.16e-07	9e-09
333.15	0.9413	1.64e-07	8e-09

System: butan-1-ol + 3-methylbutyl ethanoate; phases: Liquid
Fixed: Pressure, kPa = 101
Property: Mass density, kg/m3 (Liquid); method: Vibrating tube method
Temperature, K	Mole fraction of 3-methylbutyl ethanoate	Mass density, kg/m3	uncertainty
293.15	0.0823	817.47	0.14
293.15	0.1611	824.17	0.15
293.15	0.2419	830.51	0.15
293.15	0.3238	836.43	0.15
293.15	0.4016	841.66	0.16
293.15	0.4814	846.68	0.16
293.15	0.5591	851.26	0.17
293.15	0.6394	855.68	0.18
293.15	0.7185	859.8	0.19
293.15	0.8017	863.91	0.2
293.15	0.873	867.22	0.21
293.15	0.9444	870.46	0.22
303.15	0.0823	809.47	0.15
303.15	0.1611	815.89	0.15
303.15	0.2419	821.98	0.15
303.15	0.3238	827.67	0.15
303.15	0.4016	832.71	0.16
303.15	0.4814	837.56	0.16
303.15	0.5591	841.99	0.17
303.15	0.6394	846.28	0.18
303.15	0.7185	850.29	0.19
303.15	0.8017	854.29	0.2
303.15	0.873	857.53	0.21
303.15	0.9444	860.72	0.22
313.15	0.0823	801.35	0.15
313.15	0.1611	807.49	0.15
313.15	0.2419	813.32	0.15
313.15	0.3238	818.8	0.16
313.15	0.4016	823.65	0.16
313.15	0.4814	828.34	0.17
313.15	0.5591	832.62	0.17
313.15	0.6394	836.78	0.18
313.15	0.7185	840.68	0.19
313.15	0.8017	844.59	0.2
313.15	0.873	847.77	0.21
313.15	0.9444	850.91	0.23
323.15	0.0823	793.05	0.15
323.15	0.1611	798.93	0.15
323.15	0.2419	804.51	0.15
323.15	0.3238	809.79	0.16
323.15	0.4016	814.45	0.16
323.15	0.4814	818.99	0.17
323.15	0.5591	823.13	0.18
323.15	0.6394	827.18	0.18
323.15	0.7185	830.97	0.19
323.15	0.8017	834.8	0.2
323.15	0.873	837.92	0.21
323.15	0.9444	841.02	0.23
333.15	0.0823	784.57	0.15
333.15	0.1611	790.18	0.15
333.15	0.2419	795.53	0.16
333.15	0.3238	800.6	0.16
333.15	0.4016	805.1	0.17
333.15	0.4814	809.48	0.17
333.15	0.5591	813.5	0.18
333.15	0.6394	817.44	0.19
333.15	0.7185	821.15	0.19
333.15	0.8017	824.9	0.2
333.15	0.873	827.98	0.22
333.15	0.9444	831.04	0.23

System: butan-1-ol + 3-methylbutyl ethanoate; phases: Liquid
Fixed: Pressure, kPa = 101
Property: Excess molar volume, m3/mol (Liquid); method: Calculated with densities of this investigation
Temperature, K	Mole fraction of 3-methylbutyl ethanoate	Excess molar volume, m3/mol	uncertainty
293.15	0.0823	5.4e-08	8e-09
293.15	0.1611	9.1e-08	8e-09
293.15	0.2419	1.19e-07	8e-09
293.15	0.3238	1.43e-07	8e-09
293.15	0.4016	1.57e-07	8e-09
293.15	0.4814	1.62e-07	8e-09
293.15	0.5591	1.6e-07	8e-09
293.15	0.6394	1.54e-07	8e-09
293.15	0.7185	1.38e-07	8e-09
293.15	0.8017	1.11e-07	8e-09
293.15	0.873	8.6e-08	8e-09
293.15	0.9444	4.2e-08	8e-09
303.15	0.0823	6.6e-08	8e-09
303.15	0.1611	1.1e-07	8e-09
303.15	0.2419	1.44e-07	8e-09
303.15	0.3238	1.73e-07	8e-09
303.15	0.4016	1.9e-07	8e-09
303.15	0.4814	1.96e-07	8e-09
303.15	0.5591	1.94e-07	8e-09
303.15	0.6394	1.86e-07	8e-09
303.15	0.7185	1.67e-07	8e-09
303.15	0.8017	1.35e-07	8e-09
303.15	0.873	1.03e-07	8e-09
303.15	0.9444	5e-08	8e-09
313.15	0.0823	7.7e-08	8e-09
313.15	0.1611	1.3e-07	8e-09
313.15	0.2419	1.73e-07	8e-09
313.15	0.3238	2.05e-07	8e-09
313.15	0.4016	2.26e-07	8e-09
313.15	0.4814	2.33e-07	8e-09
313.15	0.5591	2.32e-07	8e-09
313.15	0.6394	2.23e-07	8e-09
313.15	0.7185	2e-07	8e-09
313.15	0.8017	1.62e-07	8e-09
313.15	0.873	1.22e-07	8e-09
313.15	0.9444	5.9e-08	8e-09
323.15	0.0823	9.1e-08	8e-09
323.15	0.1611	1.52e-07	8e-09
323.15	0.2419	2.03e-07	8e-09
323.15	0.3238	2.39e-07	8e-09
323.15	0.4016	2.65e-07	8e-09
323.15	0.4814	2.73e-07	8e-09
323.15	0.5591	2.73e-07	8e-09
323.15	0.6394	2.6e-07	8e-09
323.15	0.7185	2.35e-07	8e-09
323.15	0.8017	1.89e-07	8e-09
323.15	0.873	1.42e-07	8e-09
323.15	0.9444	6.8e-08	8e-09
333.15	0.0823	1.02e-07	8e-09
333.15	0.1611	1.75e-07	8e-09
333.15	0.2419	2.35e-07	8e-09
333.15	0.3238	2.77e-07	8e-09
333.15	0.4016	3.07e-07	8e-09
333.15	0.4814	3.18e-07	9e-09
333.15	0.5591	3.17e-07	9e-09
333.15	0.6394	3.03e-07	8e-09
333.15	0.7185	2.72e-07	8e-09
333.15	0.8017	2.19e-07	8e-09
333.15	0.873	1.62e-07	8e-09
333.15	0.9444	7.8e-08	8e-09

System: butan-2-ol + 3-methylbutyl ethanoate; phases: Liquid
Fixed: Pressure, kPa = 101
Property: Mass density, kg/m3 (Liquid); method: Vibrating tube method
Temperature, K	Mole fraction of 3-methylbutyl ethanoate	Mass density, kg/m3	uncertainty
293.15	0.0813	813.53	0.24
293.15	0.1632	820.11	0.24
293.15	0.2417	826.16	0.24
293.15	0.3225	832.03	0.24
293.15	0.4056	837.81	0.24
293.15	0.4761	842.48	0.24
293.15	0.5625	847.96	0.24
293.15	0.6387	852.62	0.24
293.15	0.7166	857.18	0.24
293.15	0.8087	862.4	0.24
293.15	0.8788	866.28	0.23
293.15	0.9456	869.92	0.23
303.15	0.0813	804.93	0.24
303.15	0.1632	811.26	0.24
303.15	0.2417	817.1	0.2
303.15	0.3225	822.81	0.24
303.15	0.4056	828.44	0.24
303.15	0.4761	833.01	0.24
303.15	0.5625	838.4	0.24
303.15	0.6387	842.98	0.24
303.15	0.7166	847.49	0.24
303.15	0.8087	852.66	0.24
303.15	0.8788	856.53	0.24
303.15	0.9456	860.16	0.24
313.15	0.0813	796.02	0.24
313.15	0.1632	802.14	0.24
313.15	0.2417	807.82	0.24
313.15	0.3225	813.38	0.24
313.15	0.4056	818.91	0.24
313.15	0.4761	823.39	0.24
313.15	0.5625	828.71	0.24
313.15	0.6387	833.23	0.24
313.15	0.7166	837.72	0.24
313.15	0.8087	842.84	0.24
313.15	0.8788	846.7	0.24
313.15	0.9456	850.32	0.24
323.15	0.0813	786.76	0.24
323.15	0.1632	792.72	0.24
323.15	0.2417	798.27	0.24
323.15	0.3225	803.74	0.24
323.15	0.4056	809.17	0.24
323.15	0.4761	813.6	0.24
323.15	0.5625	818.85	0.24
323.15	0.6387	823.34	0.24
323.15	0.7166	827.8	0.24
323.15	0.8087	832.92	0.24
323.15	0.8788	836.78	0.24
323.15	0.9456	840.4	0.24
333.15	0.0813	777.1	0.24
333.15	0.1632	782.99	0.24
333.15	0.2417	788.45	0.24
333.15	0.3225	793.85	0.24
333.15	0.4056	799.22	0.24
333.15	0.4761	803.61	0.24
333.15	0.5625	808.82	0.24
333.15	0.6387	813.3	0.24
333.15	0.7166	817.76	0.24
333.15	0.8087	822.89	0.24
333.15	0.8788	826.76	0.24
333.15	0.9456	830.39	0.24

System: butan-2-ol + 3-methylbutyl ethanoate; phases: Liquid
Fixed: Pressure, kPa = 101
Property: Excess molar volume, m3/mol (Liquid); method: Calculated with densities of this investigation
Temperature, K	Mole fraction of 3-methylbutyl ethanoate	Excess molar volume, m3/mol	uncertainty
293.15	0.0813	1.83e-07	8e-09
293.15	0.1632	3.16e-07	9e-09
293.15	0.2417	4.04e-07	9e-09
293.15	0.3225	4.73e-07	9e-09
293.15	0.4056	5.1e-07	1e-08
293.15	0.4761	5.24e-07	1e-08
293.15	0.5625	5.15e-07	1e-08
293.15	0.6387	4.81e-07	9e-09
293.15	0.7166	4.3e-07	9e-09
293.15	0.8087	3.36e-07	9e-09
293.15	0.8788	2.38e-07	8e-09
293.15	0.9456	1.22e-07	8e-09
303.15	0.0813	1.98e-07	8e-09
303.15	0.1632	3.45e-07	9e-09
303.15	0.2417	4.45e-07	9e-09
303.15	0.3225	5.2e-07	1e-08
303.15	0.4056	5.63e-07	1e-08
303.15	0.4761	5.78e-07	1e-08
303.15	0.5625	5.66e-07	1e-08
303.15	0.6387	5.3e-07	1e-08
303.15	0.7166	4.72e-07	9e-09
303.15	0.8087	3.68e-07	9e-09
303.15	0.8788	2.58e-07	8e-09
303.15	0.9456	1.3e-07	8e-09
313.15	0.0813	2.13e-07	8e-09
313.15	0.1632	3.75e-07	9e-09
313.15	0.2417	4.84e-07	9e-09
313.15	0.3225	5.67e-07	1e-08
313.15	0.4056	6.11e-07	1e-08
313.15	0.4761	6.29e-07	1.1e-08
313.15	0.5625	6.15e-07	1e-08
313.15	0.6387	5.76e-07	1e-08
313.15	0.7166	5.09e-07	1e-08
313.15	0.8087	3.99e-07	9e-09
313.15	0.8788	2.78e-07	8e-09
313.15	0.9456	1.4e-07	8e-09
323.15	0.0813	2.26e-07	8e-09
323.15	0.1632	4e-07	9e-09
323.15	0.2417	5.19e-07	1e-08
323.15	0.3225	6.07e-07	1e-08
323.15	0.4056	6.57e-07	1.1e-08
323.15	0.4761	6.75e-07	1.1e-08
323.15	0.5625	6.62e-07	1.1e-08
323.15	0.6387	6.2e-07	1e-08
323.15	0.7166	5.48e-07	1e-08
323.15	0.8087	4.26e-07	9e-09
323.15	0.8788	2.96e-07	8e-09
323.15	0.9456	1.49e-07	8e-09
333.15	0.0813	2.38e-07	8e-09
333.15	0.1632	4.19e-07	9e-09
333.15	0.2417	5.47e-07	1e-08
333.15	0.3225	6.42e-07	1.1e-08
333.15	0.4056	6.97e-07	1.1e-08
333.15	0.4761	7.17e-07	1.1e-08
333.15	0.5625	7.06e-07	1.1e-08
333.15	0.6387	6.6e-07	1.1e-08
333.15	0.7166	5.82e-07	1e-08
333.15	0.8087	4.52e-07	9e-09
333.15	0.8788	3.13e-07	9e-09
333.15	0.9456	1.57e-07	8e-09
