Measured thermophysical data. Volumetric and ultrasonic behaviour of binary mixtures of 1-nonanol with o-cresol, m-cresol, p-cresol and anisole at T = (293.15 and 313.15) K
Source: J. Chem. Thermodyn., 2011, 10.1016/j.jct.2010.10.025
Compound 1: nonan-1-ol, C9H20O, InChI=1S/C9H20O/c1-2-3-4-5-6-7-8-9-10/h10H,2-9H2,1H3, purity 99.5%
Compound 2: 2-methylphenol, C7H8O, InChI=1S/C7H8O/c1-6-4-2-3-5-7(6)8/h2-5,8H,1H3, purity 99.7%
Compound 3: 3-methylphenol, C7H8O, InChI=1S/C7H8O/c1-6-3-2-4-7(8)5-6/h2-5,8H,1H3, purity 99.7%
Compound 4: 4-methylphenol, C7H8O, InChI=1S/C7H8O/c1-6-2-4-7(8)5-3-6/h2-5,8H,1H3, purity 99%
Compound 5: anisole, C7H8O, InChI=1S/C7H8O/c1-8-7-5-3-2-4-6-7/h2-6H,1H3, purity 99.5%

System: 2-methylphenol + nonan-1-ol; phases: Liquid
Fixed: Pressure, kPa = 101
Property: Speed of sound, m/s (Liquid); method: Sing-around technique in a fixed-path interferometer
Temperature, K	Mole fraction of 2-methylphenol	Speed of sound, m/s	uncertainty
293.15	0	1380.69	2.16
293.15	0.0747	1388.02	2.16
293.15	0.1411	1393.42	2.15
293.15	0.2087	1398.86	2.15
293.15	0.2614	1403.26	2.15
293.15	0.326	1408.87	2.15
293.15	0.4013	1416.12	2.15
293.15	0.4562	1421.99	2.14
293.15	0.5303	1430.54	2.14
293.15	0.5829	1437.31	2.14
293.15	0.645	1446.19	2.14
293.15	0.7171	1457.83	2.14
293.15	0.784	1469.99	2.14
293.15	0.8566	1485.26	2.14
293.15	0.9397	1505.24	2.14
293.15	1	1521.83	2.14
313.15	0	1313.98	2.15
313.15	0.0747	1320.01	2.15
313.15	0.1411	1325.44	2.15
313.15	0.2087	1330.87	2.15
313.15	0.2614	1335.49	2.14
313.15	0.326	1341.38	2.14
313.15	0.4013	1348.77	2.14
313.15	0.4562	1354.71	2.14
313.15	0.5303	1363.26	2.14
313.15	0.5829	1370.01	2.13
313.15	0.645	1378.71	2.13
313.15	0.7171	1389.81	2.13
313.15	0.784	1401.68	2.13
313.15	0.8566	1416.65	2.13
313.15	0.9397	1436.49	2.13
313.15	1	1453.35	2.13

System: 2-methylphenol + nonan-1-ol; phases: Liquid
Fixed: Pressure, kPa = 101
Property: Mass density, kg/m3 (Liquid); method: Vibrating tube method
Temperature, K	Mole fraction of 2-methylphenol	Mass density, kg/m3	uncertainty
293.15	0	827.704	0.135
293.15	0.0747	838.281	0.133
293.15	0.1411	848.105	0.129
293.15	0.2087	858.578	0.124
293.15	0.2614	867.121	0.121
293.15	0.326	878.085	0.117
293.15	0.4013	891.616	0.111
293.15	0.4562	902.048	0.108
293.15	0.5303	916.987	0.104
293.15	0.5829	928.291	0.102
293.15	0.645	942.416	0.099
293.15	0.7171	960.1	0.096
293.15	0.784	977.81	0.095
293.15	0.8566	998.699	0.094
293.15	0.9397	1024.878	0.101
293.15	1	1045.688	0.082
313.15	0	813.877	0.139
313.15	0.0747	824.298	0.137
313.15	0.1411	833.982	0.133
313.15	0.2087	844.312	0.128
313.15	0.2614	852.733	0.125
313.15	0.326	863.535	0.121
313.15	0.4013	876.862	0.115
313.15	0.4562	887.133	0.112
313.15	0.5303	901.834	0.107
313.15	0.5829	912.952	0.105
313.15	0.645	926.834	0.102
313.15	0.7171	944.211	0.099
313.15	0.784	961.595	0.096
313.15	0.8566	982.094	0.095
313.15	0.9397	1007.764	0.096
313.15	1	1028.145	0.077

System: 3-methylphenol + nonan-1-ol; phases: Liquid
Fixed: Pressure, kPa = 101
Property: Speed of sound, m/s (Liquid); method: Sing-around technique in a fixed-path interferometer
Temperature, K	Mole fraction of 3-methylphenol	Speed of sound, m/s	uncertainty
293.15	0	1380.69	2.16
293.15	0.0696	1386.67	2.16
293.15	0.1336	1390.76	2.15
293.15	0.2038	1395.58	2.15
293.15	0.2679	1400.36	2.15
293.15	0.3231	1404.87	2.15
293.15	0.3971	1411.26	2.15
293.15	0.4653	1417.48	2.14
293.15	0.5405	1425.28	2.14
293.15	0.6082	1432.88	2.14
293.15	0.6786	1441.79	2.14
293.15	0.7459	1451.09	2.14
293.15	0.8167	1461.22	2.14
293.15	0.8892	1474.26	2.14
293.15	0.9459	1485.03	2.14
293.15	1	1496.76	2.13
313.15	0	1313.98	2.15
313.15	0.0696	1319.17	2.15
313.15	0.1336	1323.63	2.15
313.15	0.2038	1328.75	2.15
313.15	0.2679	1333.85	2.14
313.15	0.3231	1338.4	2.14
313.15	0.3971	1345.01	2.14
313.15	0.4653	1351.57	2.14
313.15	0.5405	1359.57	2.14
313.15	0.6082	1367.09	2.13
313.15	0.6786	1376.32	2.13
313.15	0.7459	1386.21	2.13
313.15	0.8167	1397.65	2.13
313.15	0.8892	1410.73	2.13
313.15	0.9459	1422.08	2.13
313.15	1	1434.2	2.13

System: 3-methylphenol + nonan-1-ol; phases: Liquid
Fixed: Pressure, kPa = 101
Property: Mass density, kg/m3 (Liquid); method: Vibrating tube method
Temperature, K	Mole fraction of 3-methylphenol	Mass density, kg/m3	uncertainty
293.15	0	827.704	0.135
293.15	0.0696	837.032	0.133
293.15	0.1336	845.992	0.129
293.15	0.2038	856.282	0.125
293.15	0.2679	866.185	0.12
293.15	0.3231	875.133	0.117
293.15	0.3971	887.768	0.112
293.15	0.4653	900.156	0.108
293.15	0.5405	914.757	0.104
293.15	0.6082	928.851	0.101
293.15	0.6786	944.571	0.098
293.15	0.7459	960.755	0.095
293.15	0.8167	979.083	0.093
293.15	0.8892	999.352	0.091
293.15	0.9459	1016.498	0.096
293.15	1	1033.994	0.077
313.15	0	813.877	0.139
313.15	0.0696	823.074	0.137
313.15	0.1336	831.904	0.133
313.15	0.2038	842.048	0.129
313.15	0.2679	851.815	0.125
313.15	0.3231	860.644	0.121
313.15	0.3971	873.113	0.116
313.15	0.4653	885.348	0.112
313.15	0.5405	899.778	0.107
313.15	0.6082	913.714	0.104
313.15	0.6786	929.281	0.1
313.15	0.7459	945.321	0.097
313.15	0.8167	963.512	0.095
313.15	0.8892	983.643	0.092
313.15	0.9459	1000.699	0.092
313.15	1	1018.064	0.072

System: 4-methylphenol + nonan-1-ol; phases: Liquid
Fixed: Pressure, kPa = 101
Property: Speed of sound, m/s (Liquid); method: Sing-around technique in a fixed-path interferometer
Temperature, K	Mole fraction of 4-methylphenol	Speed of sound, m/s	uncertainty
293.15	0	1380.69	2.16
293.15	0.0723	1387.31	2.17
293.15	0.1353	1392.69	2.18
293.15	0.2032	1398.16	2.19
293.15	0.2637	1403.19	2.2
293.15	0.3492	1410.32	2.21
293.15	0.4122	1415.49	2.22
293.15	0.4898	1422.69	2.23
293.15	0.5492	1428.71	2.24
293.15	0.6143	1435.97	2.26
293.15	0.6735	1443.39	2.27
293.15	0.7455	1453.25	2.28
293.15	0.8163	1464.49	2.3
293.15	0.8789	1475.99	2.31
293.15	0.9362	1487.46	2.32
293.15	1	1502.19	2.34
313.15	0	1313.98	2.15
313.15	0.0723	1319.79	2.16
313.15	0.1353	1324.91	2.17
313.15	0.2032	1330.47	2.18
313.15	0.2637	1335.68	2.19
313.15	0.3492	1343.04	2.2
313.15	0.4122	1348.61	2.21
313.15	0.4898	1356.12	2.23
313.15	0.5492	1362.23	2.24
313.15	0.6143	1369.83	2.25
313.15	0.6735	1377.42	2.26
313.15	0.7455	1388.28	2.28
313.15	0.8163	1400.03	2.29
313.15	0.8789	1412.34	2.3
313.15	0.9362	1424.42	2.32
313.15	1	1439.56	2.33

System: 4-methylphenol + nonan-1-ol; phases: Liquid
Fixed: Pressure, kPa = 101
Property: Mass density, kg/m3 (Liquid); method: Vibrating tube method
Temperature, K	Mole fraction of 4-methylphenol	Mass density, kg/m3	uncertainty
293.15	0	827.704	0.135
293.15	0.0723	837.798	0.14
293.15	0.1353	846.887	0.142
293.15	0.2032	856.995	0.145
293.15	0.2637	866.395	0.149
293.15	0.3492	880.334	0.154
293.15	0.4122	891.234	0.158
293.15	0.4898	905.461	0.165
293.15	0.5492	917.111	0.17
293.15	0.6143	930.635	0.177
293.15	0.6735	943.741	0.185
293.15	0.7455	960.902	0.194
293.15	0.8163	979.164	0.205
293.15	0.8789	996.577	0.216
293.15	0.9362	1013.655	0.237
293.15	1	1033.994	0.257
313.15	0	813.877	0.139
313.15	0.0723	823.756	0.144
313.15	0.1353	832.662	0.146
313.15	0.2032	842.572	0.149
313.15	0.2637	851.785	0.152
313.15	0.3492	865.479	0.157
313.15	0.4122	876.214	0.161
313.15	0.4898	890.246	0.167
313.15	0.5492	901.771	0.173
313.15	0.6143	915.184	0.179
313.15	0.6735	928.201	0.186
313.15	0.7455	945.287	0.195
313.15	0.8163	963.518	0.206
313.15	0.8789	980.938	0.216
313.15	0.9362	998.054	0.227
313.15	1	1018.47	0.245

System: anisole + nonan-1-ol; phases: Liquid
Fixed: Pressure, kPa = 101
Property: Speed of sound, m/s (Liquid); method: Sing-around technique in a fixed-path interferometer
Temperature, K	Mole fraction of anisole	Speed of sound, m/s	uncertainty
293.15	0	1380.69	2.16
293.15	0.0691	1379.77	2.16
293.15	0.1265	1379.13	2.16
293.15	0.2023	1378.54	2.16
293.15	0.2701	1378.41	2.16
293.15	0.335	1378.51	2.16
293.15	0.405	1378.99	2.16
293.15	0.4753	1380.15	2.16
293.15	0.5348	1381.61	2.16
293.15	0.6025	1384.21	2.16
293.15	0.6657	1387.46	2.16
293.15	0.7399	1392.66	2.16
293.15	0.8198	1400.39	2.16
293.15	0.8791	1407.41	2.16
293.15	0.9468	1417.51	2.17
293.15	1	1427.35	2.17
313.15	0	1313.98	2.15
313.15	0.0691	1312.01	2.15
313.15	0.1265	1310.87	2.15
313.15	0.2023	1309.77	2.15
313.15	0.2701	1308.99	2.15
313.15	0.335	1308.54	2.15
313.15	0.405	1308.29	2.15
313.15	0.4753	1308.58	2.15
313.15	0.5348	1309.25	2.15
313.15	0.6025	1311.11	2.15
313.15	0.6657	1313.38	2.15
313.15	0.7399	1317.45	2.15
313.15	0.8198	1323.43	2.16
313.15	0.8791	1329.05	2.16
313.15	0.9468	1337.55	2.16
313.15	1	1346.69	2.16

System: anisole + nonan-1-ol; phases: Liquid
Fixed: Pressure, kPa = 101
Property: Mass density, kg/m3 (Liquid); method: Vibrating tube method
Temperature, K	Mole fraction of anisole	Mass density, kg/m3	uncertainty
293.15	0	827.704	0.135
293.15	0.0691	834.714	0.134
293.15	0.1265	840.852	0.133
293.15	0.2023	849.439	0.131
293.15	0.2701	857.605	0.129
293.15	0.335	865.942	0.127
293.15	0.405	875.488	0.125
293.15	0.4753	885.766	0.122
293.15	0.5348	895.034	0.12
293.15	0.6025	906.314	0.118
293.15	0.6657	917.614	0.116
293.15	0.7399	931.942	0.114
293.15	0.8198	948.831	0.111
293.15	0.8791	962.443	0.11
293.15	0.9468	979.271	0.109
293.15	1	993.845	0.093
313.15	0	813.877	0.139
313.15	0.0691	820.629	0.138
313.15	0.1265	826.539	0.137
313.15	0.2023	834.809	0.135
313.15	0.2701	842.665	0.133
313.15	0.335	850.682	0.131
313.15	0.405	859.873	0.129
313.15	0.4753	869.775	0.126
313.15	0.5348	878.714	0.125
313.15	0.6025	889.609	0.122
313.15	0.6657	900.551	0.12
313.15	0.7399	914.464	0.118
313.15	0.8198	930.915	0.115
313.15	0.8791	944.199	0.113
313.15	0.9468	960.651	0.112
313.15	1	974.966	0.097
