Measured thermophysical data. (Liquid + liquid) equilibrium of (water + 2-propanol + 1-butanol + salt) systems at T = 313.15 K and T = 353.15 K: Experimental data and correlation
Source: J. Chem. Thermodyn., 2006, 10.1016/j.jct.2005.07.022
Compound 1: water, H2O, InChI=1S/H2O/h1H2
Compound 2: propan-2-ol, C3H8O, InChI=1S/C3H8O/c1-3(2)4/h3-4H,1-2H3
Compound 3: butan-1-ol, C4H10O, InChI=1S/C4H10O/c1-2-3-4-5/h5H,2-4H2,1H3

System: propan-2-ol + butan-1-ol + water; phases: Liquid mixture 1, Liquid mixture 2
Fixed: Pressure, kPa = 101
Property: Mass fraction of propan-2-ol (Liquid mixture 1); method: Chromatography
Property: Mass fraction of propan-2-ol (Liquid mixture 2); method: Chromatography
Property: Mass fraction of water (Liquid mixture 2); method: Chromatography
Temperature, K	Mass fraction of water	Mass fraction of propan-2-ol	uncertainty	Mass fraction of propan-2-ol	uncertainty	Mass fraction of water	uncertainty
353.15	0.3	0.042	0.007	0.011	0.006	0.925	
353.15	0.317	0.061	0.007	0.015	0.006	0.92	
353.15	0.333	0.079	0.006	0.018	0.006	0.916	
353.15	0.373	0.103	0.006	0.032	0.006	0.896	
353.15	0.413	0.127	0.006	0.046	0.006	0.876	
353.15	0.445	0.135	0.006	0.052	0.006	0.865	
353.15	0.477	0.143	0.006	0.059	0.006	0.855	
313.15	0.233	0.08	0.007	0.024	0.006	0.901	
313.15	0.255	0.103	0.007	0.04	0.006	0.881	
313.15	0.267	0.117	0.007	0.048	0.006	0.871	
313.15	0.277	0.123	0.007	0.053	0.006	0.865	
313.15	0.289	0.136	0.007	0.06	0.006	0.856	
313.15	0.299	0.142	0.006	0.065	0.006	0.851	
313.15	0.318	0.157	0.006	0.073	0.006	0.84	
