Measured thermophysical data. Experimental thermochemical study of 5-bromoindole and 5-bromoindoline
Source: J. Chem. Thermodyn., 2009, 10.1016/j.jct.2008.07.016
Compound 1: hydrogen bromide, BrH, InChI=1S/BrH/h1H
Compound 2: carbon dioxide, CO2, InChI=1S/CO2/c2-1-3
Compound 3: nitrogen, N2, InChI=1S/N2/c1-2
Compound 4: water, H2O, InChI=1S/H2O/h1H2
Compound 5: oxygen, O2, InChI=1S/O2/c1-2
Compound 6: 1H-indole, 5-bromo-, C8H6BrN, InChI=1S/C8H6BrN/c9-7-1-2-8-6(5-7)3-4-10-8/h1-5,10H, purity 99.3%
Compound 7: 5-Bromoindoline, C8H8BrN, InChI=1S/C8H8BrN/c9-7-1-2-8-6(5-7)3-4-10-8/h1-2,5,10H,3-4H2, purity 99.7%

System: 1H-indole, 5-bromo-; phases: Crystal, Gas
Property: Molar enthalpy of vaporization or sublimation, kJ/mol (Crystal); method: microcalorimetry
Temperature, K	Molar enthalpy of vaporization or sublimation, kJ/mol	uncertainty
298.15	92.3	4.6

System: 1H-indole, 5-bromo-; phases: Gas
Property: Molar enthalpy, kJ/mol (Gas); method: microcalorimetry
Temperature, K	Pressure, kPa	Molar enthalpy, kJ/mol	uncertainty
360	100	100.55	0.94

System: 5-Bromoindoline; phases: Crystal, Gas
Property: Molar enthalpy of vaporization or sublimation, kJ/mol (Crystal); method: microcalorimetry
Temperature, K	Molar enthalpy of vaporization or sublimation, kJ/mol	uncertainty
298.15	88	3.8

System: 5-Bromoindoline; phases: Gas
Property: Molar enthalpy, kJ/mol (Gas); method: microcalorimetry
Temperature, K	Pressure, kPa	Molar enthalpy, kJ/mol	uncertainty
339.4	100	93.7	1.14

Reaction: 1 hydrogen bromide + -1 1H-indole, 5-bromo- + 8 carbon dioxide + .5 nitrogen + 2.5 water + -9.25 oxygen
Property: Specific internal energy of reaction at constant volume, J/g
-20801.3

Reaction: 1 hydrogen bromide + -1 5-Bromoindoline + 8 carbon dioxide + .5 nitrogen + 3.5 water + -9.75 oxygen
Property: Specific internal energy of reaction at constant volume, J/g
-21804.4
