Measured thermophysical data. Thermodynamic properties of tert-butylbenzene and 1,4-di-tert-butylbenzene
Source: J. Chem. Thermodyn., 2009, 10.1016/j.jct.2008.10.008
Compound 1: (1,1-dimethylethyl)benzene, C10H14, InChI=1S/C10H14/c1-10(2,3)9-7-5-4-6-8-9/h4-8H,1-3H3
Compound 2: 1,4-bis(1,1-dimethylethyl)benzene, C14H22, InChI=1S/C14H22/c1-13(2,3)11-7-9-12(10-8-11)14(4,5)6/h7-10H,1-6H3

System: (1,1-dimethylethyl)benzene; phases: Crystal, Liquid, Gas
Property: Molar enthalpy of transition or fusion, kJ/mol (Crystal); method: ADIACA:UFactor:0.5
Molar enthalpy of transition or fusion, kJ/mol	uncertainty
8.394	0.006

System: (1,1-dimethylethyl)benzene; phases: Crystal, Liquid, Gas
Property: Triple point temperature, K (Crystal); method: Adiabatic calorimetry
Triple point temperature, K	uncertainty
215.313	0.04

System: (1,1-dimethylethyl)benzene; phases: Crystal, Gas
Property: Molar heat capacity at saturation pressure, J/K/mol (Crystal); method: VADIAC:UFactor:0.5
Temperature, K	Molar heat capacity at saturation pressure, J/K/mol	uncertainty
5.009	0.72	0.02
5.752	1.09	0.02
6.678	1.68	0.02
7.653	2.44	0.02
8.667	3.35	0.02
9.709	4.46	0.03
10.838	5.76	0.03
12.092	7.28	0.04
13.471	9.104	0.05
14.964	11.15	0.05
16.6	13.48	0.06
18.411	16.04	0.06
20.413	18.84	0.07
22.634	21.93	0.07
25.101	25.19	0.07
27.857	28.67	0.07
30.928	32.24	0.06
34.35	35.9	0.06
38.17	39.64	0.07
42.443	43.41	0.07
47.196	47.28	0.07
52.431	51.23	0.07
53.445	51.95	0.07
58.214	55.36	0.07
58.432	55.52	0.07
64.039	59.39	0.083
70.317	63.81	0.083
77.317	68.59	0.091
84.984	73.93	0.091
87.08	75.43	0.1
93.337	79.79	0.141
93.367	79.85	0.141
101.271	85.431	0.141
102.402	86.213	0.141
110.408	91.892	0.15
111.865	92.923	0.15
120.013	98.718	0.15
129.797	105.69	0.15
139.622	112.79	0.158
149.524	119.99	0.158
160.533	128.13	0.166
162.388	129.37	0.166
172.817	137.16	0.166
173.477	137.69	0.166
185.834	147.07	0.175
186.214	147.43	0.175
197.137	156.12	0.183
203.203	162.61	0.183
206.784	167.05	0.183

System: (1,1-dimethylethyl)benzene; phases: Liquid, Gas
Property: Molar heat capacity at saturation pressure, J/K/mol (Liquid); method: VADIAC:UFactor:0.5
Temperature, K	Molar heat capacity at saturation pressure, J/K/mol	uncertainty
223.094	210.65	0.208
223.248	210.68	0.208
232.464	213.79	0.208
232.577	213.79	0.208
240.864	216.97	0.208
253.04	221.76	0.208
265.373	226.92	0.216
277.791	232.27	0.216
291.324	238.42	0.216
294.636	239.95	0.216
305.805	245.17	0.224
311.469	247.82	0.224
329.165	256.4	0.224
347.607	265.47	0.233
365.978	274.65	0.241
384.209	283.78	0.241
402.169	292.78	0.249
419.776	301.62	0.249
435.18	309.12	0.258

System: (1,1-dimethylethyl)benzene; phases: Crystal, Gas
Property: Molar heat capacity at saturation pressure, J/K/mol (Crystal); method: VADIAC:UFactor:0.5
Temperature, K	Molar heat capacity at saturation pressure, J/K/mol	uncertainty
5	0.72	0.02
10	4.79	0.03
20	18.27	0.06
30	31.19	0.06
40	41.3	0.07
50	49.43	0.07
60	56.6	0.07
70	63.57	0.083
80	70.45	0.091
90	77.44	0.141
100	84.508	0.141
120	98.684	0.15
140	113.02	0.158
160	127.65	0.166
180	142.42	0.175
200	157.51	0.183
215.31	169.1	0.183

System: (1,1-dimethylethyl)benzene; phases: Liquid, Gas
Property: Molar heat capacity at saturation pressure, J/K/mol (Liquid); method: VADIAC:UFactor:0.5
Temperature, K	Molar heat capacity at saturation pressure, J/K/mol	uncertainty
215.31	208.01	0.208
220	209.58	0.208
240	216.6	0.208
260	224.65	0.216
280	233.26	0.216
298.15	241.59	0.224
300	242.45	0.224
320	251.92	0.224
330	256.8	0.233
340	261.71	0.233
360	271.66	0.233
380	281.68	0.241
400	291.7	0.249
420	301.72	0.249
440	311.52	0.258

System: (1,1-dimethylethyl)benzene; phases: Crystal
Fixed: Pressure, kPa = 101.325
Property: Molar enthalpy function {Hm(T)-Hm(0)}/T, J/K/mol (Crystal); method: VADIAC:UFactor:0.5
Temperature, K	Molar enthalpy function {Hm(T)-Hm(0)}/T, J/K/mol	uncertainty
5	0.18	0.008
10	1.31	0.02
20	6.31	0.02
30	12.53	0.03
40	18.51	0.04
50	23.9	0.04
60	28.76	0.05
70	33.23	0.06
80	37.46	0.06
90	41.51	0.125
100	45.46	0.125
120	53.15	0.125
140	60.67	0.133
160	68.13	0.133
180	75.56	0.141
200	83	0.141
215.31	88.707	0.141

System: (1,1-dimethylethyl)benzene; phases: Liquid
Fixed: Pressure, kPa = 101.325
Property: Molar enthalpy function {Hm(T)-Hm(0)}/T, J/K/mol (Liquid); method: VADIAC:UFactor:0.5
Temperature, K	Molar enthalpy function {Hm(T)-Hm(0)}/T, J/K/mol	uncertainty
215.31	127.69	0.166
220	129.42	0.166
240	136.38	0.166
260	142.86	0.175
280	149.01	0.175
298.15	154.39	0.175
300	154.93	0.175
320	160.69	0.183
330	163.53	0.183
340	166.35	0.183
360	171.92	0.183
380	177.43	0.191
400	182.89	0.191
420	188.31	0.191
440	193.69	0.2

System: (1,1-dimethylethyl)benzene; phases: Crystal
Fixed: Pressure, kPa = 101.325
Property: Molar entropy, J/K/mol (Crystal); method: VADIAC:UFactor:0.5
Temperature, K	Molar entropy, J/K/mol	uncertainty
5	0.24	0.008
10	1.78	0.02
20	9.079	0.05
30	19.02	0.06
40	29.43	0.07
50	39.55	0.091
60	49.21	0.108
70	58.45	0.116
80	67.39	0.133
90	76.09	0.208
100	84.616	0.216
120	101.28	0.224
140	117.56	0.241
160	133.61	0.249
180	149.49	0.266
200	165.28	0.274
215.31	177.31	0.283

System: (1,1-dimethylethyl)benzene; phases: Liquid
Fixed: Pressure, kPa = 101.325
Property: Molar entropy, J/K/mol (Liquid); method: VADIAC:UFactor:0.5
Temperature, K	Molar entropy, J/K/mol	uncertainty
215.31	216.3	0.316
220	220.8	0.316
240	239.32	0.333
260	256.98	0.341
280	273.94	0.358
298.15	288.84	0.366
300	290.34	0.366
320	306.29	0.382
330	314.12	0.382
340	321.85	0.391
360	337.09	0.399
380	352.05	0.416
400	366.75	0.424
420	381.23	0.432
440	395.49	0.449

System: 1,4-bis(1,1-dimethylethyl)benzene; phases: Crystal 1, Liquid, Gas
Property: Molar enthalpy of transition or fusion, kJ/mol (Crystal 1); method: ADIACA:UFactor:0.5
Molar enthalpy of transition or fusion, kJ/mol	uncertainty
8.212	0.005

System: 1,4-bis(1,1-dimethylethyl)benzene; phases: Crystal 2, Crystal 1, Gas
Property: Molar enthalpy of transition or fusion, kJ/mol (Crystal 2); method: ADIACA:UFactor:0.5
Molar enthalpy of transition or fusion, kJ/mol	uncertainty
14.36	0.01

System: 1,4-bis(1,1-dimethylethyl)benzene; phases: Crystal, Liquid, Gas
Property: Triple point temperature, K (Crystal); method: Adiabatic calorimetry
Triple point temperature, K	uncertainty
350.78	0.04

System: 1,4-bis(1,1-dimethylethyl)benzene; phases: Crystal 2, Crystal 1, Gas
Property: Triple point temperature, K (Crystal 2)
Triple point temperature, K	uncertainty
350.73	0.01

System: 1,4-bis(1,1-dimethylethyl)benzene; phases: Crystal 2, Gas
Property: Molar heat capacity at saturation pressure, J/K/mol (Crystal 2); method: VADIAC:UFactor:0.5
Temperature, K	Molar heat capacity at saturation pressure, J/K/mol	uncertainty
5.533	0.3	0.008
6.588	0.58	0.008
7.503	0.948	0.02
8.461	1.45	0.02
9.448	2.15	0.02
10.469	3.13	0.02
11.597	4.28	0.03
12.858	5.92	0.04
14.254	7.97	0.04
15.786	10.43	0.05
17.496	13.43	0.06
19.421	16.89	0.07
21.58	20.82	0.07
23.999	25.18	0.07
26.706	29.9	0.07
29.703	34.78	0.07
33.025	39.81	0.07
36.722	44.96	0.07
40.808	50.11	0.07
45.313	55.45	0.083
50.285	61.18	0.083
53.352	64.41	0.083
55.804	67	0.091
58.236	69.81	0.091
63.849	75.62	0.1
70.159	82.56	0.108
77.05	90.037	0.116
84.596	98.294	0.116
87.328	101.34	0.125
92.813	107.36	0.158
95.363	110.2	0.158
101.837	117.33	0.158
104.423	120.11	0.158
113.87	130.45	0.166
124.545	141.81	0.175
136.287	154.01	0.175
148.144	166.03	0.183
160.183	178.15	0.191
172.272	190.18	0.2
184.351	202.24	0.2
196.469	214.21	0.208
208.621	226.43	0.216
220.765	238.82	0.224
232.867	251.39	0.224
246.433	265.79	0.233
261.46	282.02	0.241
276.428	298.62	0.249
284.656	307.57	0.258
291.279	315.23	0.258
293.842	318.28	0.258
302.669	328.3	0.266
304.12	330	0.266
305.985	332.26	0.266
315.018	342.89	0.274
327.227	357.27	0.283
339.269	372.29	0.291
340.543	373.89	0.291

System: 1,4-bis(1,1-dimethylethyl)benzene; phases: Liquid, Gas
Property: Molar heat capacity at saturation pressure, J/K/mol (Liquid); method: VADIAC:UFactor:0.5
Temperature, K	Molar heat capacity at saturation pressure, J/K/mol	uncertainty
354.931	393.57	0.299
356.828	395.01	0.299
358.462	396.37	0.299
358.495	396.23	0.299
358.502	396.2	0.299
363.703	400.3	0.299
366.517	402.21	0.299
374.01	407.95	0.308
380.157	412.53	0.308
395.484	423.8	0.316
398.199	425.82	0.316
416.83	439.37	0.316
417.395	439.74	0.324
433.852	451.62	0.324
435.244	452.59	0.324

System: 1,4-bis(1,1-dimethylethyl)benzene; phases: Crystal 2, Gas
Property: Molar heat capacity at saturation pressure, J/K/mol (Crystal 2); method: VADIAC:UFactor:0.5
Temperature, K	Molar heat capacity at saturation pressure, J/K/mol	uncertainty
5	0.22	0.008
10	2.66	0.03
20	17.93	0.07
30	35.25	0.07
40	49.12	0.07
50	60.83	0.083
60	71.59	0.091
70	82.39	0.108
80	93.263	0.116
90	104.26	0.15
100	115.33	0.158
120	137.01	0.166
140	157.79	0.183
160	177.95	0.191
180	197.9	0.2
200	217.74	0.208
220	238.04	0.216
240	258.93	0.233
260	280.44	0.241
280	302.57	0.249
298.15	323.15	0.266
300	325.26	0.266
320	348.63	0.274
340	373.15	0.291
350.73	386.83	0.291

System: 1,4-bis(1,1-dimethylethyl)benzene; phases: Crystal 1, Gas
Property: Molar heat capacity at saturation pressure, J/K/mol (Crystal 1); method: VADIAC:UFactor:0.5
Temperature, K	Molar heat capacity at saturation pressure, J/K/mol	uncertainty
350.73	375.72	0.291
350.78	375.79	0.291

System: 1,4-bis(1,1-dimethylethyl)benzene; phases: Liquid, Gas
Property: Molar heat capacity at saturation pressure, J/K/mol (Liquid); method: VADIAC:UFactor:0.5
Temperature, K	Molar heat capacity at saturation pressure, J/K/mol	uncertainty
298.15	347.84	0.274
300	349.41	0.274
310	357.8	0.283
320	366	0.283
330	374.03	0.291
340	381.92	0.291
350	389.72	0.299
350.78	390.31	0.299
360	397.37	0.299
380	412.36	0.308
400	427.09	0.316
420	441.61	0.324
440	456.08	0.324

System: 1,4-bis(1,1-dimethylethyl)benzene; phases: Crystal 2
Fixed: Pressure, kPa = 101.325
Property: Molar enthalpy function {Hm(T)-Hm(0)}/T, J/K/mol (Crystal 2); method: VADIAC:UFactor:0.5
Temperature, K	Molar enthalpy function {Hm(T)-Hm(0)}/T, J/K/mol	uncertainty
5	0.06	0.008
10	0.58	0.008
20	5.06	0.02
30	12.31	0.03
40	19.86	0.04
50	26.9	0.05
60	33.45	0.06
70	39.67	0.06
80	45.69	0.07
90	51.58	0.125
100	57.4	0.133
120	68.87	0.133
140	80.1	0.141
160	91.077	0.15
180	101.84	0.15
200	112.44	0.158
220	122.93	0.158
240	133.38	0.166
260	143.87	0.175
280	154.41	0.175
298.15	164.05	0.183
300	165.03	0.183
320	175.78	0.191
340	186.66	0.191
350.73	192.57	0.2

System: 1,4-bis(1,1-dimethylethyl)benzene; phases: Crystal 1
Fixed: Pressure, kPa = 101.325
Property: Molar enthalpy function {Hm(T)-Hm(0)}/T, J/K/mol (Crystal 1); method: VADIAC:UFactor:0.5
Temperature, K	Molar enthalpy function {Hm(T)-Hm(0)}/T, J/K/mol	uncertainty
350.73	233.5	0.216
350.78	233.52	0.216

System: 1,4-bis(1,1-dimethylethyl)benzene; phases: Liquid
Fixed: Pressure, kPa = 101.325
Property: Molar enthalpy function {Hm(T)-Hm(0)}/T, J/K/mol (Liquid); method: VADIAC:UFactor:0.5
Temperature, K	Molar enthalpy function {Hm(T)-Hm(0)}/T, J/K/mol	uncertainty
298.15	237.08	0.216
300	237.76	0.216
310	241.5	0.224
320	245.27	0.224
330	249.04	0.224
340	252.83	0.224
350	256.63	0.224
350.78	256.93	0.224
360	260.44	0.233
380	268.04	0.233
400	275.62	0.241
420	283.19	0.241
440	290.72	0.249

System: 1,4-bis(1,1-dimethylethyl)benzene; phases: Crystal 2, Gas
Property: Vapor or sublimation pressure, kPa (Crystal 2); method: Inclined piston gauge
Temperature, K	Vapor or sublimation pressure, kPa	uncertainty
319.989	0.0214	0.001
329.989	0.0543	0.0011
339.983	0.1315	0.0012
349.982	0.2996	0.0013

System: 1,4-bis(1,1-dimethylethyl)benzene; phases: Liquid, Gas
Property: Vapor or sublimation pressure, kPa (Liquid); method: Inclined piston gauge
Temperature, K	Vapor or sublimation pressure, kPa	uncertainty
354.981	0.4031	0.0015
359.977	0.5294	0.0017
369.976	0.8897	0.0021
379.974	1.445	0.0028
387.021	1.9964	0.0034
389.974	2.2759	0.0039
394.968	2.825	0.0044

System: 1,4-bis(1,1-dimethylethyl)benzene; phases: Crystal 2
Fixed: Pressure, kPa = 101.325
Property: Molar entropy, J/K/mol (Crystal 2); method: VADIAC:UFactor:0.5
Temperature, K	Molar entropy, J/K/mol	uncertainty
5	0.07	0.008
10	0.75	0.02
20	6.75	0.04
30	17.39	0.06
40	29.52	0.07
50	41.76	0.1
60	53.8	0.116
70	65.64	0.133
80	77.36	0.15
90	88.973	0.216
100	100.53	0.224
120	123.48	0.241
140	146.17	0.258
160	168.56	0.274
180	190.68	0.291
200	212.55	0.308
220	234.25	0.324
240	255.85	0.341
260	277.42	0.358
280	299.01	0.374
298.15	318.65	0.391
300	320.66	0.391
320	342.39	0.407
340	364.26	0.424
350.73	376.06	0.432

System: 1,4-bis(1,1-dimethylethyl)benzene; phases: Crystal 1
Fixed: Pressure, kPa = 101.325
Property: Molar entropy, J/K/mol (Crystal 1); method: VADIAC:UFactor:0.5
Temperature, K	Molar entropy, J/K/mol	uncertainty
350.73	416.99	0.466
350.78	417.05	0.466

System: 1,4-bis(1,1-dimethylethyl)benzene; phases: Liquid
Fixed: Pressure, kPa = 101.325
Property: Molar entropy, J/K/mol (Liquid); method: VADIAC:UFactor:0.5
Temperature, K	Molar entropy, J/K/mol	uncertainty
298.15	380.5	0.432
300	382.65	0.441
310	394.25	0.449
320	405.73	0.457
330	417.12	0.466
340	428.4	0.474
350	439.59	0.482
350.78	440.45	0.482
360	450.67	0.491
380	472.56	0.507
400	494.09	0.524
420	515.27	0.54
440	536.15	0.549
