Measured thermophysical data. Experimental solubility for betulin and estrone in various solvents within the temperature range T = (293.2 to 328.2) K
Source: J. Chem. Thermodyn., 2016, 10.1016/j.jct.2016.02.006
Compound 1: nonan-1-ol, C9H20O, InChI=1S/C9H20O/c1-2-3-4-5-6-7-8-9-10/h10H,2-9H2,1H3, purity 99%
Compound 2: pentan-1-ol, C5H12O, InChI=1S/C5H12O/c1-2-3-4-5-6/h6H,2-5H2,1H3, purity 99%
Compound 3: acetonitrile, C2H3N, InChI=1S/C2H3N/c1-2-3/h1H3, purity 99.9%
Compound 4: 2-aminoethan-1-ol, C2H7NO, InChI=1S/C2H7NO/c3-1-2-4/h4H,1-3H2, purity 99%
Compound 5: dodecane, C12H26, InChI=1S/C12H26/c1-3-5-7-9-11-12-10-8-6-4-2/h3-12H2,1-2H3, purity 99%
Compound 6: butan-2-ol, C4H10O, InChI=1S/C4H10O/c1-3-4(2)5/h4-5H,3H2,1-2H3, purity 99%
Compound 7: dimethylformamide, C3H7NO, InChI=1S/C3H7NO/c1-4(2)3-5/h3H,1-2H3, purity 99.9%
Compound 8: octane, C8H18, InChI=1S/C8H18/c1-3-5-7-8-6-4-2/h3-8H2,1-2H3, purity 99%
Compound 9: octan-1-ol, C8H18O, InChI=1S/C8H18O/c1-2-3-4-5-6-7-8-9/h9H,2-8H2,1H3, purity 99.5%
Compound 10: N-formylmorpholine, C5H9NO2, InChI=1S/C5H9NO2/c7-5-6-1-3-8-4-2-6/h5H,1-4H2, purity 99%
Compound 11: hexadecane, C16H34, InChI=1S/C16H34/c1-3-5-7-9-11-13-15-16-14-12-10-8-6-4-2/h3-16H2,1-2H3, purity 99%
Compound 12: N-methylpyrrolidone, C5H9NO, InChI=1S/C5H9NO/c1-6-4-2-3-5(6)7/h2-4H2,1H3, purity 99.5%
Compound 13: water, H2O, InChI=1S/H2O/h1H2, purity 99.8%
Compound 14: betulin, C30H50O2, InChI=1S/C30H50O2/c1-19(2)20-10-15-30(18-31)17-16-28(6)21(25(20)30)8-9-23-27(5)13-12-24(32)26(3,4)22(27)11-14-29(23,28)7/h20-25,31-32H,1,8-18H2,2-7H3/t20-,21+,22-,23+,24-,25+,27-,28+,29+,30+/m0/s1, purity 99%
Compound 15: 3-hydroxy-1,3,5(10)-estratrien-17-one, C18H22O2, InChI=1S/C18H22O2/c1-18-9-8-14-13-5-3-12(19)10-11(13)2-4-15(14)16(18)6-7-17(18)20/h3,5,10,14-16,19H,2,4,6-9H2,1H3/t14-,15-,16+,18+/m1/s1, purity 99%
Compound 16: Diosgenin, C27H42O3, InChI=1S/C27H42O3/c1-16-7-12-27(29-15-16)17(2)24-23(30-27)14-22-20-6-5-18-13-19(28)8-10-25(18,3)21(20)9-11-26(22,24)4/h5,16-17,19-24,28H,6-15H2,1-4H3/t16-,17+,19+,20-,21+,22+,23+,24+,25+,26+,27-/m1/s1, purity 93%

System: nonan-1-ol; phases: Liquid
Property: Refractive index (Na D-line) (Liquid); method: Standard Abbe refractometry
Temperature, K	Pressure, kPa	Refractive index (Na D-line)	uncertainty
293.15	101.325	1.4334	0.0004

System: pentan-1-ol; phases: Liquid
Property: Refractive index (Na D-line) (Liquid); method: Standard Abbe refractometry
Temperature, K	Pressure, kPa	Refractive index (Na D-line)	uncertainty
293.15	101.325	1.4098	0.0004

System: acetonitrile; phases: Liquid
Property: Refractive index (Na D-line) (Liquid); method: Standard Abbe refractometry
Temperature, K	Pressure, kPa	Refractive index (Na D-line)	uncertainty
293.15	101.325	1.3439	0.0004

System: 2-aminoethan-1-ol; phases: Liquid
Property: Refractive index (Na D-line) (Liquid); method: Standard Abbe refractometry
Temperature, K	Pressure, kPa	Refractive index (Na D-line)	uncertainty
293.15	101.325	1.4542	0.0004

System: dodecane; phases: Liquid
Property: Refractive index (Na D-line) (Liquid); method: Standard Abbe refractometry
Temperature, K	Pressure, kPa	Refractive index (Na D-line)	uncertainty
293.15	101.325	1.4218	0.0004

System: butan-2-ol; phases: Liquid
Property: Refractive index (Na D-line) (Liquid); method: Standard Abbe refractometry
Temperature, K	Pressure, kPa	Refractive index (Na D-line)	uncertainty
293.15	101.325	1.3983	0.0004

System: dimethylformamide; phases: Liquid
Property: Refractive index (Na D-line) (Liquid); method: Standard Abbe refractometry
Temperature, K	Pressure, kPa	Refractive index (Na D-line)	uncertainty
293.15	101.325	1.4304	0.0004

System: octane; phases: Liquid
Property: Refractive index (Na D-line) (Liquid); method: Standard Abbe refractometry
Temperature, K	Pressure, kPa	Refractive index (Na D-line)	uncertainty
293.15	101.325	1.3978	0.0004

System: octan-1-ol; phases: Liquid
Property: Refractive index (Na D-line) (Liquid); method: Standard Abbe refractometry
Temperature, K	Pressure, kPa	Refractive index (Na D-line)	uncertainty
293.15	101.325	1.4291	0.0004

System: N-formylmorpholine; phases: Liquid
Property: Refractive index (Na D-line) (Liquid); method: Standard Abbe refractometry
Temperature, K	Pressure, kPa	Refractive index (Na D-line)	uncertainty
293.15	101.325	1.4849	0.0004

System: hexadecane; phases: Liquid
Property: Refractive index (Na D-line) (Liquid); method: Standard Abbe refractometry
Temperature, K	Pressure, kPa	Refractive index (Na D-line)	uncertainty
293.15	101.325	1.4346	0.0004

System: N-methylpyrrolidone; phases: Liquid
Property: Refractive index (Na D-line) (Liquid); method: Standard Abbe refractometry
Temperature, K	Pressure, kPa	Refractive index (Na D-line)	uncertainty
293.15	101.325	1.469	0.0004

System: water; phases: Liquid
Property: Refractive index (Na D-line) (Liquid); method: Standard Abbe refractometry
Temperature, K	Pressure, kPa	Refractive index (Na D-line)	uncertainty
293.15	101.325	1.3329	0.0004

System: betulin; phases: Crystal, Liquid, Air at 1 atmosphere
Property: Molar enthalpy of transition or fusion, kJ/mol (Crystal); method: DSC
Molar enthalpy of transition or fusion, kJ/mol	uncertainty
55.169	1.521

System: betulin; phases: Crystal, Liquid, Air at 1 atmosphere
Property: Normal melting temperature, K (Crystal); method: DTA
Normal melting temperature, K	uncertainty
528.1	0.4

System: 3-hydroxy-1,3,5(10)-estratrien-17-one; phases: Crystal, Liquid, Air at 1 atmosphere
Property: Molar enthalpy of transition or fusion, kJ/mol (Crystal); method: DSC
Molar enthalpy of transition or fusion, kJ/mol	uncertainty
45.107	1.253

System: 3-hydroxy-1,3,5(10)-estratrien-17-one; phases: Crystal, Liquid, Air at 1 atmosphere
Property: Normal melting temperature, K (Crystal); method: DTA
Normal melting temperature, K	uncertainty
527.6	0.4

System: nonan-1-ol + betulin; phases: Liquid, Crystal
Fixed: Pressure, kPa = 101
Property: Mole fraction of betulin (Liquid); method: Gravimetric
Temperature, K	Mole fraction of betulin	uncertainty
328.2	0.0051	0.00041
323.2	0.00431	0.00035
318.2	0.00371	0.0003
313.2	0.00324	0.00026
308.2	0.00292	0.00023
303.2	0.00254	0.0002
298.2	0.00234	0.00019
293.2	0.00217	0.00017

System: pentan-1-ol + betulin; phases: Liquid, Crystal
Fixed: Pressure, kPa = 101
Property: Mole fraction of betulin (Liquid); method: Gravimetric
Temperature, K	Mole fraction of betulin	uncertainty
328.2	0.00198	0.00016
323.2	0.00175	0.00014
318.2	0.00149	0.00012
313.2	0.00132	0.00011
308.2	0.0012	0.0001
303.2	0.00108	9e-05
298.2	0.00096	7.7e-05
293.2	0.000894	7.2e-05

System: acetonitrile + betulin; phases: Liquid, Crystal
Fixed: Pressure, kPa = 101
Property: Mole fraction of betulin (Liquid); method: Gravimetric
Temperature, K	Mole fraction of betulin	uncertainty
328.2	0.00341	0.00028
323.2	0.00244	0.0002
318.2	0.00193	0.00016
313.2	0.00137	0.00011
308.2	0.00104	8e-05
303.2	0.000697	5.7e-05
298.2	0.000473	3.9e-05
293.2	0.000269	2.3e-05

System: dodecane + betulin; phases: Liquid, Crystal
Fixed: Pressure, kPa = 101
Property: Mole fraction of betulin (Liquid); method: Gravimetric
Temperature, K	Mole fraction of betulin	uncertainty
328.2	4.5e-05	1.8e-05
323.2	3.5e-05	1.4e-05
318.2	3e-05	1.2e-05
313.2	2.5e-05	1e-05
308.2	2.3e-05	9e-06
303.2	1.9e-05	8e-06
298.2	1.6e-05	6e-06
293.2	1.5e-05	6e-06

System: butan-2-ol + betulin; phases: Liquid, Crystal
Fixed: Pressure, kPa = 101
Property: Mole fraction of betulin (Liquid); method: Gravimetric
Temperature, K	Mole fraction of betulin	uncertainty
328.2	0.00148	0.00012
323.2	0.0012	0.0001
318.2	0.00108	9e-05
313.2	0.000941	7.5e-05
308.2	0.000845	6.8e-05
303.2	0.000813	6.5e-05
298.2	0.000728	5.8e-05
293.2	0.000701	5.6e-05

System: dimethylformamide + betulin; phases: Liquid, Crystal
Fixed: Pressure, kPa = 101
Property: Mole fraction of betulin (Liquid); method: Gravimetric
Temperature, K	Mole fraction of betulin	uncertainty
328.2	0.00518	0.00042
323.2	0.00461	0.00037
318.2	0.00426	0.00034
313.2	0.00368	0.0003
308.2	0.00334	0.00027
303.2	0.00294	0.00024
298.2	0.00244	0.0002
293.2	0.00208	0.00017

System: octan-1-ol + betulin; phases: Liquid, Crystal
Fixed: Pressure, kPa = 101
Property: Mole fraction of betulin (Liquid); method: Gravimetric
Temperature, K	Mole fraction of betulin	uncertainty
328.2	0.00341	0.00027
323.2	0.00269	0.00022
318.2	0.00229	0.00018
313.2	0.00209	0.00017
308.2	0.00186	0.00015
303.2	0.00179	0.00014
298.2	0.00162	0.00013
293.2	0.0016	0.00013

System: betulin + hexadecane; phases: Liquid, Crystal
Fixed: Pressure, kPa = 101
Property: Mole fraction of betulin (Liquid); method: Gravimetric
Temperature, K	Mole fraction of betulin	uncertainty
328.2	0.000117	9e-06
323.2	9.8e-05	8e-06
318.2	8.3e-05	7e-06
313.2	7.6e-05	6e-06
308.2	6.5e-05	7e-06
303.2	5.7e-05	6e-06
298.2	5.3e-05	5e-06
293.2	4.6e-05	5e-06

System: betulin + N-methylpyrrolidone; phases: Liquid, Crystal
Fixed: Pressure, kPa = 101
Property: Mole fraction of betulin (Liquid); method: Gravimetric
Temperature, K	Mole fraction of betulin	uncertainty
328.2	0.00697	0.00056
323.2	0.00676	0.00054
318.2	0.00653	0.00052
313.2	0.00635	0.00051
308.2	0.00615	0.00049
303.2	0.0059	0.00047
298.2	0.00569	0.00046
293.2	0.00549	0.00044

System: betulin + water; phases: Liquid, Crystal
Fixed: Pressure, kPa = 101
Property: Mole fraction of betulin (Liquid); method: Gravimetric
Temperature, K	Mole fraction of betulin	uncertainty
328.2	3.3e-05	1.3e-05
323.2	2.5e-05	1e-05
318.2	1.8e-05	7e-06
313.2	1.4e-05	6e-06
308.2	9e-06	9e-06
303.2	6e-06	6e-06
298.2	5e-06	5e-06
293.2	4e-06	4e-06

System: 3-hydroxy-1,3,5(10)-estratrien-17-one + nonan-1-ol; phases: Liquid, Crystal
Fixed: Pressure, kPa = 101
Property: Mole fraction of 3-hydroxy-1,3,5(10)-estratrien-17-one (Liquid); method: Gravimetric
Temperature, K	Mole fraction of 3-hydroxy-1,3,5(10)-estratrien-17-one	uncertainty
328.2	0.00617	0.0005
323.2	0.00508	0.00041
318.2	0.00445	0.00036
313.2	0.00396	0.00032
308.2	0.00347	0.00028
303.2	0.00306	0.00025
298.2	0.00243	0.0002
293.2	0.00213	0.00017

System: 3-hydroxy-1,3,5(10)-estratrien-17-one + pentan-1-ol; phases: Liquid, Crystal
Fixed: Pressure, kPa = 101
Property: Mole fraction of 3-hydroxy-1,3,5(10)-estratrien-17-one (Liquid); method: Gravimetric
Temperature, K	Mole fraction of 3-hydroxy-1,3,5(10)-estratrien-17-one	uncertainty
328.2	0.00322	0.00026
323.2	0.00242	0.0002
318.2	0.00204	0.00016
313.2	0.0018	0.00014
308.2	0.0016	0.00013
303.2	0.00126	0.0001
298.2	0.00104	8e-05
293.2	0.000823	6.6e-05

System: 3-hydroxy-1,3,5(10)-estratrien-17-one + 2-aminoethan-1-ol; phases: Liquid, Crystal
Fixed: Pressure, kPa = 101
Property: Mole fraction of 3-hydroxy-1,3,5(10)-estratrien-17-one (Liquid); method: Gravimetric
Temperature, K	Mole fraction of 3-hydroxy-1,3,5(10)-estratrien-17-one	uncertainty
328.2	0.00793	0.00064
323.2	0.00511	0.00042
318.2	0.00308	0.00026
313.2	0.00184	0.00015
308.2	0.00139	0.00011
303.2	0.000897	7.3e-05
298.2	0.000634	5.2e-05
293.2	0.000419	3.5e-05

System: 3-hydroxy-1,3,5(10)-estratrien-17-one + acetonitrile; phases: Liquid, Crystal
Fixed: Pressure, kPa = 101
Property: Mole fraction of 3-hydroxy-1,3,5(10)-estratrien-17-one (Liquid); method: Gravimetric
Temperature, K	Mole fraction of 3-hydroxy-1,3,5(10)-estratrien-17-one	uncertainty
328.2	0.0185	0.0015
323.2	0.00998	0.00083
318.2	0.0068	0.00056
313.2	0.00345	0.00029
308.2	0.00217	0.00018
303.2	0.0012	0.0001
298.2	0.000755	6.2e-05
293.2	0.000423	3.6e-05

System: 3-hydroxy-1,3,5(10)-estratrien-17-one + dodecane; phases: Liquid, Crystal
Fixed: Pressure, kPa = 101
Property: Mole fraction of 3-hydroxy-1,3,5(10)-estratrien-17-one (Liquid); method: Gravimetric
Temperature, K	Mole fraction of 3-hydroxy-1,3,5(10)-estratrien-17-one	uncertainty
328.2	0.001243	0.0001
323.2	0.000975	7.9e-05
318.2	0.000663	5.4e-05
313.2	0.000459	3.7e-05
308.2	0.000368	3e-05
303.2	0.000275	2.2e-05
298.2	0.000236	1.9e-05
293.2	0.000184	1.5e-05

System: 3-hydroxy-1,3,5(10)-estratrien-17-one + butan-2-ol; phases: Liquid, Crystal
Fixed: Pressure, kPa = 101
Property: Mole fraction of 3-hydroxy-1,3,5(10)-estratrien-17-one (Liquid); method: Gravimetric
Temperature, K	Mole fraction of 3-hydroxy-1,3,5(10)-estratrien-17-one	uncertainty
328.2	0.00257	0.00021
323.2	0.00213	0.00017
318.2	0.00188	0.00015
313.2	0.00162	0.00013
308.2	0.00134	0.00011
303.2	0.00111	9e-05
298.2	0.000893	7.2e-05
293.2	0.000712	5.7e-05

System: 3-hydroxy-1,3,5(10)-estratrien-17-one + dimethylformamide; phases: Liquid, Crystal
Fixed: Pressure, kPa = 101
Property: Mole fraction of 3-hydroxy-1,3,5(10)-estratrien-17-one (Liquid); method: Gravimetric
Temperature, K	Mole fraction of 3-hydroxy-1,3,5(10)-estratrien-17-one	uncertainty
328.2	0.0195	0.0016
323.2	0.014	0.0011
318.2	0.0101	0.0008
313.2	0.00632	0.00052
308.2	0.0043	0.00035
303.2	0.0028	0.00023
298.2	0.00184	0.00015
293.2	0.00112	9e-05

System: 3-hydroxy-1,3,5(10)-estratrien-17-one + octane; phases: Liquid, Crystal
Fixed: Pressure, kPa = 101
Property: Mole fraction of 3-hydroxy-1,3,5(10)-estratrien-17-one (Liquid); method: Gravimetric
Temperature, K	Mole fraction of 3-hydroxy-1,3,5(10)-estratrien-17-one	uncertainty
328.2	0.000626	5e-05
323.2	0.000483	3.9e-05
318.2	0.000377	3e-05
313.2	0.000277	2.2e-05
308.2	0.000235	1.9e-05
303.2	0.000189	1.5e-05
298.2	0.00016	1.3e-05
293.2	0.000137	1.1e-05

System: 3-hydroxy-1,3,5(10)-estratrien-17-one + water; phases: Liquid, Crystal
Fixed: Pressure, kPa = 101
Property: Mole fraction of 3-hydroxy-1,3,5(10)-estratrien-17-one (Liquid); method: Gravimetric
Temperature, K	Mole fraction of 3-hydroxy-1,3,5(10)-estratrien-17-one	uncertainty
328.2	0.00103	8e-05
323.2	0.000797	6.5e-05
318.2	0.000431	3.6e-05
313.2	0.000247	2.1e-05
308.2	0.000117	1e-05
303.2	5.5e-05	5e-06
298.2	2.2e-05	6e-06
293.2	1.2e-05	3e-06

System: 3-hydroxy-1,3,5(10)-estratrien-17-one + octan-1-ol; phases: Liquid, Crystal
Fixed: Pressure, kPa = 101
Property: Mole fraction of 3-hydroxy-1,3,5(10)-estratrien-17-one (Liquid); method: Gravimetric
Temperature, K	Mole fraction of 3-hydroxy-1,3,5(10)-estratrien-17-one	uncertainty
328.2	0.00489	0.00039
323.2	0.00369	0.0003
318.2	0.00311	0.00025
313.2	0.00268	0.00022
308.2	0.00219	0.00018
303.2	0.00177	0.00014
298.2	0.00149	0.00012
293.2	0.00117	9e-05

System: 3-hydroxy-1,3,5(10)-estratrien-17-one + N-formylmorpholine; phases: Liquid, Crystal
Fixed: Pressure, kPa = 101
Property: Mole fraction of 3-hydroxy-1,3,5(10)-estratrien-17-one (Liquid); method: Gravimetric
Temperature, K	Mole fraction of 3-hydroxy-1,3,5(10)-estratrien-17-one	uncertainty
328.2	0.0709	0.0057
323.2	0.057	0.0046
318.2	0.0459	0.0037
313.2	0.0374	0.003
308.2	0.0317	0.0025
303.2	0.0291	0.0023
298.2	0.0242	0.0019
293.2	0.0203	0.0016

System: 3-hydroxy-1,3,5(10)-estratrien-17-one + hexadecane; phases: Liquid, Crystal
Fixed: Pressure, kPa = 101
Property: Mole fraction of 3-hydroxy-1,3,5(10)-estratrien-17-one (Liquid); method: Gravimetric
Temperature, K	Mole fraction of 3-hydroxy-1,3,5(10)-estratrien-17-one	uncertainty
328.2	0.00952	0.00077
323.2	0.00659	0.00054
318.2	0.00464	0.00038
313.2	0.00303	0.00025
308.2	0.00209	0.00017
303.2	0.00129	0.00011
298.2	0.00096	7.8e-05
293.2	0.000717	5.8e-05

System: 3-hydroxy-1,3,5(10)-estratrien-17-one + N-methylpyrrolidone; phases: Liquid, Crystal
Fixed: Pressure, kPa = 101
Property: Mole fraction of 3-hydroxy-1,3,5(10)-estratrien-17-one (Liquid); method: Gravimetric
Temperature, K	Mole fraction of 3-hydroxy-1,3,5(10)-estratrien-17-one	uncertainty
328.2	0.0115	0.0009
323.2	0.00998	0.0008
318.2	0.0074	0.0006
313.2	0.00539	0.00044
308.2	0.00438	0.00035
303.2	0.00351	0.00028
298.2	0.00289	0.00023
293.2	0.00216	0.00018

System: pentan-1-ol + Diosgenin; phases: Liquid, Crystal
Fixed: Pressure, kPa = 101
Property: Mole fraction of Diosgenin (Liquid); method: Gravimetric
Temperature, K	Mole fraction of Diosgenin	uncertainty
328.2	0.0148	0.0012
323.2	0.0122	0.001
318.2	0.0102	0.0008
313.2	0.00866	0.0007
308.2	0.0075	0.0006
303.2	0.00621	0.0005
298.2	0.0051	0.00041
293.2	0.00462	0.00037
