Measured thermophysical data. The low-temperature heat capacity of some lanthanide zirconates
Source: J. Chem. Thermodyn., 2004, 10.1016/j.jct.2004.03.017
Compound 1: gadolinium zirconate, Gd2O7Zr2, InChI=1S/2Gd.7O.2Zr/q2*+3;;6*-1;;
Compound 2: europium zirconate, Eu2O7Zr2, InChI=1S/2Eu.7O.2Zr/q2*+3;;6*-1;;

System: gadolinium zirconate; phases: Crystal
Fixed: Pressure, kPa = 101.325
Property: Molar heat capacity at constant pressure, J/K/mol (Crystal); method: VADIAC:UFactor:4
Temperature, K	Molar heat capacity at constant pressure, J/K/mol	uncertainty
5.02	4.762	1.011
5.15	4.003	1.008
5.39	4.085	1.008
5.39	5.557	1.014
5.75	4.144	1.009
6.39	3.337	1.006
6.57	4.653	1.01
6.66	3.576	1.007
6.69	3.439	1.006
6.88	3.124	1.005
7.09	1.869	1.003
7.27	3.201	1.005
7.78	3.179	1.005
8.15	4.021	1.007
8.61	2.534	1.004
8.75	2.305	1.003
9.23	2.338	1.003
9.34	2.281	1.003
10.62	1.859	1.002
11.57	2.026	1.003
11.78	1.875	1.002
11.91	1.932	1.002
12.38	1.905	1.002
13.18	2.063	1.002
13.82	2.004	1.002
14.41	2.054	1.002
15.47	2.281	1.003
15.56	2.548	1.003
16.1	2.529	1.003
16.65	2.604	1.003
16.94	3.015	1.003
17.67	3.056	1.003
18.37	3.309	1.004
19	3.599	1.004
19.81	3.798	1.004
21.15	4.222	1.004
21.25	4.715	1.005
21.67	5.071	1.005
22.44	5.562	1.006
22.65	5.561	1.006
23.02	5.773	1.006
23.86	6.517	1.007
24.06	6.716	1.007
24.36	6.997	1.007
25.48	7.856	1.008
25.61	7.937	1.008
25.75	8.184	1.008
27.16	9.13	1.009
27.34	8.888	1.008
27.35	9.282	1.009
28.59	10.17	1.01
28.6	10.54	1.01
29.15	10.86	1.01
30.28	11.7	1.02
30.99	12.58	1.02
31.85	13.2	1.02
32.83	14.42	1.02
33.42	14.96	1.02
34.71	16.3	1.02
35.03	16.67	1.02
36.63	18.41	1.02
36.66	18.43	1.02
38.33	19.78	1.03
38.6	20.08	1.03
40.03	21.65	1.03
40.62	22.35	1.03
41.73	23.57	1.03
42.65	24.76	1.03
43.44	25.54	1.03
44.69	27.04	1.04
45.16	27.54	1.04
46.77	29.41	1.04
46.9	29.5	1.04
48.65	31.63	1.04
48.88	31.86	1.04
50.41	33.67	1.05
51.01	34.3	1.05
52.19	35.74	1.05
53.16	36.84	1.05
53.98	37.79	1.05
55.33	39.42	1.06
55.79	39.92	1.06
57.53	41.95	1.06
57.6	42.08	1.06
59.42	44.18	1.06
59.74	44.49	1.06
61.25	46.31	1.07
61.98	47.15	1.07
63.1	48.49	1.07
64.23	49.75	1.08
64.95	50.64	1.08
66.5	52.35	1.08
66.81	52.75	1.08
68.68	54.94	1.09
70.55	57.09	1.09
72.43	59.27	1.1
74.32	61.44	1.1
76.21	63.6	1.11
78.11	65.77	1.11
80.01	67.99	1.12
84.26	73.08	1.13
86.68	75.97	1.14
89.04	78.05	1.14
91.4	80.73	1.28
93.76	83.52	1.28
96.13	85.94	1.29
98.51	88.81	1.29
99.99	90.29	1.29
100.9	91.06	1.3
101.94	92.84	1.3
103.28	93.88	1.3
104.84	95.74	1.3
105.68	96.49	1.31
107.71	99.12	1.31
108.08	99.44	1.31
110.48	101.8	1.3
110.58	102	1.3
112.89	104.4	1.3
113.46	105	1.3
115.3	106.7	1.3
116.33	107.8	1.3
117.72	109.3	1.3
119.22	110.5	1.3
120.14	110.9	1.3
122.1	113.4	1.3
122.56	113.9	1.3
124.99	116.5	1.3
125	116.6	1.3
127.42	118.9	1.3
127.89	119.4	1.3
129.86	121.3	1.4
130.78	122.3	1.4
132.29	123.7	1.4
133.69	125	1.4
134.72	125.9	1.4
136.59	127.7	1.4
137.16	128.2	1.4
139.5	130.4	1.4
139.59	130.2	1.4
142.03	132.8	1.4
142.42	133.1	1.4
144.47	134.8	1.4
145.33	135.8	1.4
146.91	136.9	1.4
148.25	138.4	1.4
149.35	139.3	1.4
151.18	140.9	1.4
151.8	141.2	1.4
154.11	143.4	1.4
154.25	143.3	1.4
156.7	145.3	1.4
157.03	145.8	1.4
159.15	147.6	1.4
159.96	148.3	1.4
161.6	149.4	1.4
162.89	150.6	1.4
164.06	151.7	1.4
165.82	153	1.4
166.52	153.4	1.4
168.76	155.4	1.4
168.97	155.4	1.4
171.42	157.6	1.4
171.69	157.6	1.4
173.88	159.3	1.4
174.64	159.9	1.4
176.34	161.2	1.4
177.58	162.1	1.4
178.8	163	1.4
180.52	164.3	1.4
181.26	164.8	1.4
183.47	166.4	1.4
183.72	166.4	1.4
186.18	168.2	1.4
186.41	168.5	1.4
188.64	169.8	1.4
189.36	170.6	1.4
191.1	171.8	1.5
192.31	172.7	1.5
193.56	173.3	1.5
195.26	174.7	1.5
196.03	175.1	1.5
198.21	176.7	1.5
198.49	176.5	1.5
200.95	178.5	1.5
201.17	178.5	1.5
203.42	179.6	1.5
204.12	180.4	1.5
205.89	181.7	1.5
207.08	182.2	1.5
208.35	183.1	1.5
210.04	183.8	1.5
210.82	184.4	1.5
213	185.4	1.5
213.29	185.7	1.5
215.96	187	1.5
218.92	188.5	1.5
221.88	190.2	1.5
224.84	191.8	1.5
227.8	193.4	1.5
230.77	194.9	1.5
233.73	196.4	1.5
236.7	197.9	1.5
239.67	199.4	1.5
242.63	200.8	1.5
245.6	202.1	1.5
248.57	203.6	1.5
255.64	206.1	1.5
258.62	207.6	1.5
261.6	208.9	1.5
264.56	210.1	1.5
267.53	211.4	1.5
270.5	212.6	1.5
273.47	213.8	1.5
276.45	215	1.5
279.42	216.1	1.5
282.4	217.2	1.5
285.38	218.3	1.6
288.36	219.3	1.6
291.34	220.2	1.6
294.32	220.8	1.6
298.71	220.9	1.6
299.59	221.9	1.6
300.49	221.6	1.6
302.61	222.9	1.6
303.49	222.4	1.6
305.58	223.9	1.6
306.48	223.5	1.6
308.56	225.1	1.6
309.46	224.6	1.6
311.54	226.1	1.6
312.44	225.6	1.6
314.52	227.1	1.6
315.42	226.6	1.6
317.51	228.1	1.6
318.4	227.6	1.6
320.49	229	1.6
321.38	228.6	1.6
323.48	229.9	1.6
324.36	229.6	1.6
326.46	230.9	1.6
327.34	230.5	1.6
329.45	231.7	1.6
330.32	231.4	1.6
332.43	232.7	1.6
333.3	232.3	1.6
335.41	233.6	1.6
336.29	233.1	1.6
338.38	234.4	1.6
339.27	234	1.6
341.37	235.3	1.6
342.25	234.8	1.6
344.35	236.2	1.6
345.23	235.7	1.6
347.33	237	1.6
348.22	236.6	1.6
350.32	237.8	1.6
351.21	237.4	1.6
353.3	238.6	1.6
354.19	238.1	1.6
356.29	239.4	1.6
357.18	239	1.6
359.28	240.1	1.6
360.17	239.7	1.6
362.27	240.8	1.6
363.16	240.5	1.6
365.26	241.7	1.6
366.15	241.2	1.6
368.26	242.3	1.6
369.14	242	1.6
371.25	243.1	1.6
372.13	242.6	1.6
374.24	243.9	1.6
375.12	243.5	1.6
377.24	244.6	1.6
378.12	244.1	1.6
380.24	245.3	1.6
381.12	244.8	1.6
383.24	246	1.6
384.12	245.4	1.6
386.24	246.6	1.6
387.12	246.2	1.6
389.24	247.3	1.6
390.13	246.7	1.6
392.24	247.8	1.6
393.14	247.2	1.6
395.35	248.4	1.6
396.14	247.8	1.6
398.26	249.1	1.6
399.15	248.5	1.6
401.27	249.9	1.6
402.16	249	1.6
404.28	250.4	1.6
405.18	249.7	1.6

System: gadolinium zirconate; phases: Crystal
Fixed: Pressure, kPa = 101.325
Property: Molar heat capacity at constant pressure, J/K/mol (Crystal); method: VADIAC:UFactor:4
Temperature, K	Molar heat capacity at constant pressure, J/K/mol	uncertainty
20	3.962	1.004
25	7.5	1.008
30	11.48	1.02
35	16.64	1.02
40	21.62	1.03
45	27.37	1.04
50	33.19	1.04
55	39.02	1.05
60	44.79	1.07
65	50.69	1.08
70	56.46	1.09
75	62.2	1.1
80	67.98	1.12
85	73.77	1.13
90	79.3	1.27
95	84.79	1.28
100	90.19	1.29
110	101.3	1.3
120	110.8	1.3
130	121.5	1.4
140	130.5	1.4
150	139.9	1.4
160	148.3	1.4
170	156.3	1.4
180	163.9	1.4
190	171.1	1.5
200	177.8	1.5
210	183.8	1.5
220	189.1	1.5
230	194.3	1.5
240	199.4	1.5
250	203.6	1.5
260	208.2	1.5
270	212.4	1.5
280	215.8	1.5
290	219.2	1.6
298.15	221.8	1.6
300	222.4	1.6
310	225.4	1.6
320	228.1	1.6
330	231.3	1.6
340	234.2	1.6
350	237	1.6
360	239.7	1.6
370	242.2	1.6
380	244.6	1.6
390	246.7	1.6

System: gadolinium zirconate; phases: Crystal
Fixed: Pressure, kPa = 101.325
Property: Molar enthalpy, kJ/mol (Crystal); method: VADIAC:UFactor:4
Temperature, K	Molar enthalpy, kJ/mol	uncertainty
20	0.08872	0.00279
25	0.1165	0.0031
30	0.1656	0.0061
35	0.2355	0.0075
40	0.3311	0.0091
45	0.4538	0.0108
50	0.6049	0.0129
55	0.7861	0.0151
60	0.9958	0.0176
65	1.234	0.02
70	1.502	0.023
75	1.799	0.026
80	1.617	0.6
85	2.477	0.034
90	2.859	0.083
95	3.271	0.089
100	3.708	0.095
110	4.662	0.107
120	5.731	0.119
130	6.894	0.132
140	8.149	0.145
150	9.51	0.158
160	10.958	0.172
170	12.457	0.186
180	14.081	0.2
190	15.754	0.215
200	17.471	0.23
210	19.311	0.245
220	21.166	0.261
230	23.064	0.276
240	25.059	0.292
250	27.064	0.308
260	29.12	0.325
270	31.223	0.341
280	33.367	0.357
290	35.548	0.374
298.15	37.346	0.388
300	37.755	0.391
310	39.985	0.408
320	42.25	0.425
330	44.548	0.442
340	46.875	0.46
350	49.231	0.477
360	51.615	0.494
370	54.024	0.512
380	56.458	0.53
390	58.915	0.548

System: gadolinium zirconate; phases: Crystal
Fixed: Pressure, kPa = 101.325
Property: Molar entropy, J/K/mol (Crystal); method: VADIAC:UFactor:4
Temperature, K	Molar entropy, J/K/mol	uncertainty
20	36.75	1.29
25	37.97	1.09
30	39.67	0.72
35	41.82	0.74
40	44.37	0.77
45	47.25	0.81
50	50.43	0.85
55	53.87	0.89
60	57.51	0.93
65	61.33	0.98
70	65.3	1.02
75	69.39	1.07
80	73.59	1.12
85	77.88	1.17
90	82.25	1.69
95	86.68	1.72
100	91.17	1.75
110	100.3	1.8
120	109.6	1.9
130	118.9	1.9
140	128.2	2
150	137.5	2
160	146.8	2.1
170	156.1	2.1
180	165.2	2.2
190	174.3	2.2
200	183.2	2.3
210	192	2.4
220	200.7	2.4
230	209.2	2.5
240	217.6	2.5
250	225.8	2.6
260	233.9	2.6
270	241.8	2.7
280	249.6	2.7
290	257.3	2.7
298.15	263.4	2.8
300	264.8	2.8
310	272.1	2.8
320	279.3	2.9
330	286.4	2.9
340	293.3	3
350	300.1	3
360	306.9	3
370	313.5	3.1
380	320	3.1
390	326.3	3.2

System: europium zirconate; phases: Crystal
Fixed: Pressure, kPa = 101.325
Property: Molar heat capacity at constant pressure, J/K/mol (Crystal); method: VADIAC:UFactor:4
Temperature, K	Molar heat capacity at constant pressure, J/K/mol	uncertainty
5.72	0.213	1.001
6.21	0.125	1
7.23	0.151	1.001
9.16	0.249	1.001
9.55	0.275	1.001
11.31	0.422	1.001
11.76	0.597	1.001
12.64	0.611	1.001
13.58	1.03	1
13.66	0.927	1.001
14.77	1.21	1
15.08	1.43	1
15.9	1.34	1
16.59	2.01	1
17.07	2.01	1
18.23	2.65	1
18.3	2.78	1
19.51	3.5	1
19.9	3.67	1
20.77	4.2	1
21.59	4.63	1
22.11	5.03	1.01
23.34	5.89	1.01
23.45	6.06	1.01
24.79	7.18	1.01
25.15	7.66	1.01
26.16	8.72	1.01
27.57	9.32	1.01
28.09	10.36	1.01
28.93	10.85	1.01
29.66	11.71	1.01
31.42	13.49	1.02
33.19	15.44	1.02
34.98	17.42	1.02
36.84	19.72	1.03
38.76	21.63	1.03
40.73	24.05	1.03
42.72	26.66	1.03
44.74	29.19	1.04
46.78	31.88	1.04
48.86	34.7	1.05
50.97	37.42	1.05
53.1	40.28	1.06
55.25	43.15	1.06
57.43	46.15	1.07
59.63	49.18	1.07
61.85	52.17	1.08
64.09	55.21	1.09
66.34	58.22	1.09
68.62	61.34	1.1
70.9	64.43	1.11
73.2	67.49	1.12
75.51	70.56	1.12
77.84	73.59	1.13
80.17	76.66	1.14
82.51	79.73	1.15
84.86	82.78	1.16
87.22	85.79	1.17
89.59	88.77	1.17
91.96	91.74	1.3
94.34	94.65	1.3
96.73	97.58	1.31
98.55	99.47	1.31
99.12	100.5	1.3
99.88	101.4	1.3
102.32	104.7	1.3
104.73	107.3	1.3
107.13	110.5	1.3
109.54	113.3	1.3
111.95	115.8	1.3
114.37	118.4	1.3
116.79	121	1.4
119.21	123.4	1.4
121.64	125.7	1.4
124.07	128.9	1.4
126.5	131.3	1.4
128.94	133.9	1.4
131.38	136.4	1.4
133.82	138.8	1.4
136.26	141.1	1.4
138.71	143.5	1.4
141.16	145.8	1.4
143.61	148	1.4
146.06	150.3	1.4
148.51	152.6	1.4
150.96	154.7	1.4
153.42	156.9	1.4
155.88	159	1.4
158.33	161.1	1.4
160.79	163.1	1.4
163.26	165.1	1.4
165.71	167.2	1.4
168.17	169.2	1.4
170.63	171.1	1.5
173.09	172.9	1.5
175.55	174.8	1.5
178.01	176.7	1.5
180.47	178.5	1.5
182.93	180.3	1.5
185.4	182.1	1.5
187.86	183.9	1.5
190.32	185.6	1.5
192.79	187.4	1.5
195.26	189	1.5
197.47	190.2	1.5
197.72	190.6	1.5
199.92	191.7	1.5
202.41	193.3	1.5
204.87	194.9	1.5
209.81	197.4	1.5
212.29	198.8	1.5
214.76	200.2	1.5
217.24	201.5	1.5
219.71	202.8	1.5
222.19	204	1.5
224.67	205.3	1.5
227.15	206.5	1.5
229.62	207.8	1.5
232.1	209	1.5
234.58	210.2	1.5
237.06	211.5	1.5
242.02	213.7	1.5
244.5	214.9	1.5
246.98	216	1.5
249.46	217	1.5
251.94	218.3	1.6
254.43	218.6	1.6
256.91	219.7	1.6
259.4	220.8	1.6
261.88	221.9	1.6
264.37	222.9	1.6
266.86	224	1.6
269.34	224.9	1.6
274.32	226.9	1.6
276.8	227.7	1.6
279.29	228.6	1.6
281.78	229.5	1.6
284.28	230.5	1.6
286.77	231.3	1.6
289.26	231.5	1.6
291.76	233.1	1.6
294.25	234	1.6
296.75	234.9	1.6
296.77	234.2	1.6
298.86	235.4	1.6
299.12	235.8	1.6
299.25	235.6	1.6
301.64	236.7	1.6
301.75	236.3	1.6
301.85	236.2	1.6
304.12	237.3	1.6
304.83	237.1	1.6
306.61	238.1	1.6
306.74	238.2	1.6
307.81	238.1	1.6
309.1	239	1.6
309.23	239	1.6
310.79	239	1.6
311.58	239.5	1.6
311.73	239.6	1.6
313.77	239.7	1.6
314.06	240.4	1.6
314.23	240.4	1.6
316.54	240.9	1.6
316.73	241.1	1.6
316.75	240.5	1.6
319.02	241.6	1.6
319.23	241.8	1.6
319.73	241.4	1.6
321.5	242.6	1.6
322.71	242.5	1.6
323.97	243.4	1.6
325.68	243.3	1.6
326.45	244.1	1.6
328.66	244.2	1.6
328.93	244.8	1.6
331.41	245.6	1.6
331.64	244.8	1.6
333.89	246.3	1.6
334.62	245.7	1.6
336.37	247	1.6
337.6	246.6	1.6
338.85	247.7	1.6
340.58	247.4	1.6
341.33	248.3	1.6
343.56	248	1.6
343.81	249	1.6
346.29	249.8	1.6
346.54	249	1.6
348.77	250.4	1.6
349.52	249.8	1.6
351.25	251	1.6
352.51	250.5	1.6
353.73	251.7	1.6
355.49	251.3	1.6
356.21	252.3	1.6
358.48	252.2	1.6
358.7	253	1.6
361.18	253.7	1.6
361.47	252.8	1.6
363.66	254.2	1.6
364.46	253.4	1.6
366.15	254.9	1.6
367.45	254.3	1.6
368.64	255.5	1.6
370.44	255	1.6
371.13	256.1	1.6
373.44	255.7	1.6
373.62	256.7	1.6
376.11	257.3	1.6
376.44	256.4	1.6
378.61	257.9	1.6
379.44	257.1	1.6
381.1	258.6	1.6
382.44	257.9	1.6
383.59	259.2	1.6
385.45	258.5	1.6
386.09	259.7	1.6
388.45	259.3	1.6
388.59	260.3	1.6
391.09	260.5	1.6
391.46	259.8	1.6
393.59	261.2	1.6
394.47	260.4	1.6
396.09	262.5	1.6
397.48	260.9	1.6
398.6	263	1.6
400.5	261.5	1.6
401.11	262.9	1.6

System: europium zirconate; phases: Crystal
Fixed: Pressure, kPa = 101.325
Property: Molar heat capacity at constant pressure, J/K/mol (Crystal); method: VADIAC:UFactor:4
Temperature, K	Molar heat capacity at constant pressure, J/K/mol	uncertainty
20	3.697	1.004
25	7.462	1.008
30	12.05	1.02
35	17.44	1.02
40	23.12	1.03
45	29.53	1.04
50	36.16	1.05
55	42.81	1.06
60	49.68	1.08
65	56.43	1.09
70	63.22	1.11
75	69.88	1.12
80	76.44	1.14
85	82.96	1.16
90	89.28	1.29
95	95.46	1.3
100	101.5	1.3
110	113.8	1.3
120	124.1	1.4
130	135	1.4
140	144.7	1.4
150	153.9	1.4
160	162.4	1.4
170	170.7	1.5
180	178.2	1.5
190	185.4	1.5
200	191.8	1.5
210	197.5	1.5
220	202.9	1.5
230	208	1.5
240	212.8	1.5
250	217.3	1.5
260	221.1	1.6
270	225.2	1.6
280	228.9	1.6
290	231.9	1.6
298.15	235.4	1.6
300	235.7	1.6
310	239	1.6
320	242.1	1.6
330	245.2	1.6
340	248	1.6
350	250.7	1.6
360	253.4	1.6
370	255.8	1.6
380	258.3	1.6
390	260.4	1.6

System: europium zirconate; phases: Crystal
Fixed: Pressure, kPa = 101.325
Property: Molar enthalpy, kJ/mol (Crystal); method: VADIAC:UFactor:4
Temperature, K	Molar enthalpy, kJ/mol	uncertainty
20	0.01598	0.00116
25	0.04281	0.00178
30	0.09205	0.00554
35	0.1652	0.0069
40	0.267	0.0085
45	0.3987	0.0104
50	0.563	0.0125
55	0.7605	0.0149
60	0.992	0.018
65	1.257	0.02
70	1.556	0.024
75	1.889	0.027
80	2.255	0.031
85	2.653	0.035
90	3.084	0.084
95	3.546	0.09
100	4.041	0.096
110	5.118	0.108
120	6.309	0.121
130	7.605	0.134
140	9.004	0.148
150	10.497	0.162
160	12.079	0.176
170	13.745	0.191
180	15.489	0.206
190	17.307	0.221
200	19.194	0.237
210	21.142	0.253
220	23.145	0.269
230	25.199	0.285
240	27.303	0.301
250	29.454	0.318
260	31.645	0.335
270	33.877	0.352
280	36.147	0.369
290	38.453	0.386
298.15	40.359	0.4
300	40.794	0.403
310	43.168	0.421
320	45.576	0.438
330	48.013	0.456
340	50.479	0.474
350	52.973	0.492
360	55.493	0.51
370	58.038	0.528
380	60.609	0.546
390	63.203	0.565

System: europium zirconate; phases: Crystal
Fixed: Pressure, kPa = 101.325
Property: Molar entropy, J/K/mol (Crystal); method: VADIAC:UFactor:4
Temperature, K	Molar entropy, J/K/mol	uncertainty
20	1.055	0.096
25	2.05	0.115
30	3.813	0.286
35	6.068	0.313
40	8.773	0.345
45	11.87	0.38
50	15.32	0.42
55	19.08	0.47
60	23.1	0.52
65	27.34	0.57
70	31.77	0.62
75	36.36	0.68
80	41.08	0.73
85	45.91	0.79
90	50.83	1.51
95	55.83	1.54
100	60.88	1.57
110	71.14	1.63
120	81.49	1.69
130	91.86	1.75
140	102.2	1.8
150	112.5	1.9
160	122.7	1.9
170	132.8	2
180	142.8	2.1
190	152.6	2.1
200	162.3	2.2
210	171.8	2.2
220	181.1	2.3
230	190.3	2.3
240	199.2	2.4
250	208	2.4
260	216.6	2.5
270	225	2.6
280	233.3	2.6
290	241.4	2.6
298.15	247.8	2.7
300	249.3	2.7
310	257.1	2.7
320	264.7	2.8
330	272.2	2.8
340	279.6	2.9
350	286.8	2.9
360	293.9	3
370	300.9	3
380	307.7	3
390	314.5	3.1
