Measured thermophysical data. The (p,q,T,x) properties for {xNH3 + (1 x)H2O} at T = (450 and 500) K over the pressure range from (10 to 200) MPa
Source: J. Chem. Thermodyn., 2008, 10.1016/j.jct.2008.06.009
Compound 1: ammonia, H3N, InChI=1S/H3N/h1H3
Compound 2: water, H2O, InChI=1S/H2O/h1H2

System: ammonia; phases: Liquid
Property: Mass density, kg/m3 (Liquid); method: Bellows volumetry
Temperature, K	Pressure, kPa	Mass density, kg/m3	uncertainty
450	30000	355.3	1.7
450	40000	403.7	1.9
450	50000	433.4	2.1
450	60000	455.2	2.2
450	70000	472.6	2.3
450	80000	487.4	2.3
450	90000	500.2	2.4
450	100000	511.7	2.5
450	120000	531.4	2.6
450	140000	548.2	2.6
450	160000	563.1	2.7
450	180000	576.3	2.8
450	200000	588.2	2.8
500	50000	350.9	1.7
500	60000	384.9	1.8
500	70000	410.1	2
500	80000	430.2	2.1
500	90000	446.9	2.1
500	100000	461.5	2.2
500	120000	485.8	2.3
500	140000	505.9	2.4
500	160000	523.1	2.5
500	180000	538.3	2.6
500	200000	551.9	2.6

System: ammonia + water; phases: Liquid
Property: Mass density, kg/m3 (Liquid); method: Bellows volumetry
Mole fraction of ammonia	Temperature, K	Pressure, kPa	Mass density, kg/m3	uncertainty
0.1048	450	10000	843.9	4.1
0.1048	450	20000	850.4	4.1
0.1048	450	30000	856.6	4.1
0.1048	450	40000	862.7	4.2
0.1048	450	50000	868.5	4.2
0.1048	450	60000	873.9	4.2
0.1048	450	70000	879.1	4.2
0.1048	450	80000	884.2	4.3
0.1048	450	90000	889.2	4.3
0.1048	450	100000	893.9	4.3
0.1048	450	120000	902.7	4.3
0.1048	450	140000	911.3	4.4
0.1048	450	160000	919.5	4.4
0.1048	450	180000	927	4.5
0.1048	450	200000	934.3	4.5
0.1048	500	10000	782.5	3.8
0.1048	500	20000	792.5	3.8
0.1048	500	30000	801.3	3.9
0.1048	500	40000	809.6	3.9
0.1048	500	50000	817.3	3.9
0.1048	500	60000	824.3	4
0.1048	500	70000	831.3	4
0.1048	500	80000	837.7	4
0.1048	500	90000	843.7	4.1
0.1048	500	100000	849.7	4.1
0.1048	500	120000	860.7	4.1
0.1048	500	140000	870.8	4.2
0.1048	500	160000	880.6	4.2
0.1048	500	180000	889.4	4.3
0.1048	500	200000	897.9	4.3
0.2046	450	10000	796.9	3.8
0.2046	450	20000	804.3	3.9
0.2046	450	30000	811	3.9
0.2046	450	40000	817.8	3.9
0.2046	450	50000	823.8	4
0.2046	450	60000	829.6	4
0.2046	450	70000	835.4	4
0.2046	450	80000	840.9	4.1
0.2046	450	90000	845.9	4.1
0.2046	450	100000	850.6	4.1
0.2046	450	120000	860.3	4.1
0.2046	450	140000	868.9	4.2
0.2046	450	160000	877.1	4.2
0.2046	450	180000	885.1	4.3
0.2046	450	200000	892.2	4.3
0.2046	500	10000	728.2	3.5
0.2046	500	20000	740.4	3.6
0.2046	500	30000	751.1	3.6
0.2046	500	40000	760.6	3.7
0.2046	500	50000	769.5	3.7
0.2046	500	60000	777.5	3.8
0.2046	500	70000	785.1	3.8
0.2046	500	80000	792.1	3.8
0.2046	500	90000	798.6	3.9
0.2046	500	100000	805	3.9
0.2046	500	120000	816.7	3.9
0.2046	500	140000	827.5	4
0.2046	500	160000	837.4	4
0.2046	500	180000	846.7	4.1
0.2046	500	200000	855.4	4.1
0.3807	450	10000	708.1	3.4
0.3807	450	20000	718.8	3.5
0.3807	450	30000	728.1	3.5
0.3807	450	40000	736.8	3.6
0.3807	450	50000	744.9	3.6
0.3807	450	60000	751.5	3.6
0.3807	450	70000	758.3	3.7
0.3807	450	80000	765.1	3.7
0.3807	450	90000	771.1	3.7
0.3807	450	100000	777.1	3.7
0.3807	450	120000	788.1	3.8
0.3807	450	140000	798.6	3.8
0.3807	450	160000	807.9	3.9
0.3807	450	180000	817.2	3.9
0.3807	450	200000	825.3	4
0.3807	500	20000	641.7	3.1
0.3807	500	30000	658.5	3.2
0.3807	500	40000	672.4	3.3
0.3807	500	50000	684.3	3.3
0.3807	500	60000	695.3	3.4
0.3807	500	70000	704.8	3.4
0.3807	500	80000	713.9	3.4
0.3807	500	90000	721.8	3.5
0.3807	500	100000	729.7	3.5
0.3807	500	120000	743.7	3.6
0.3807	500	140000	756.6	3.6
0.3807	500	160000	768.3	3.7
0.3807	500	180000	779.3	3.8
0.3807	500	200000	789.2	3.8
0.5565	450	10000	608.5	3
0.5565	450	20000	625.9	3
0.5565	450	30000	639.8	3.1
0.5565	450	40000	651.6	3.2
0.5565	450	50000	662.2	3.2
0.5565	450	60000	671.3	3.2
0.5565	450	70000	680.1	3.3
0.5565	450	80000	687.8	3.3
0.5565	450	90000	695.3	3.4
0.5565	450	100000	702.2	3.4
0.5565	450	120000	714.8	3.4
0.5565	450	140000	726.2	3.5
0.5565	450	160000	736.6	3.6
0.5565	450	180000	746.2	3.6
0.5565	450	200000	755.2	3.6
0.5565	500	20000	517	2.5
0.5565	500	30000	551.1	2.7
0.5565	500	40000	574	2.8
0.5565	500	50000	591.7	2.9
0.5565	500	60000	606.4	2.9
0.5565	500	70000	619	3
0.5565	500	80000	630.1	3
0.5565	500	90000	640.2	3.1
0.5565	500	100000	649.4	3.1
0.5565	500	120000	665.7	3.2
0.5565	500	140000	679.9	3.3
0.5565	500	160000	692.9	3.3
0.5565	500	180000	704.5	3.4
0.5565	500	200000	715	3.4
0.7008	450	20000	534.7	2.6
0.7008	450	30000	557.7	2.7
0.7008	450	40000	575.2	2.8
0.7008	450	50000	589.4	2.9
0.7008	450	60000	601.8	2.9
0.7008	450	70000	612.5	3
0.7008	450	80000	622.2	3
0.7008	450	90000	631.2	3.1
0.7008	450	100000	639.2	3.1
0.7008	450	120000	654	3.2
0.7008	450	140000	666.9	3.2
0.7008	450	160000	678.7	3.3
0.7008	450	180000	689.4	3.3
0.7008	450	200000	699.3	3.4
0.7008	500	30000	447.5	2.2
0.7008	500	40000	487.8	2.4
0.7008	500	50000	514.1	2.5
0.7008	500	60000	534.1	2.6
0.7008	500	70000	550.6	2.7
0.7008	500	80000	564.5	2.7
0.7008	500	90000	576.7	2.8
0.7008	500	100000	587.6	2.8
0.7008	500	120000	606.7	2.9
0.7008	500	140000	623.1	3
0.7008	500	160000	637.4	3.1
0.7008	500	180000	650.4	3.1
0.7008	500	200000	662.1	3.2
0.801	450	20000	458.5	2.2
0.801	450	30000	495.6	2.4
0.801	450	40000	519.2	2.5
0.801	450	50000	537.4	2.6
0.801	450	60000	552.2	2.7
0.801	450	70000	564.9	2.7
0.801	450	80000	576	2.8
0.801	450	90000	586.2	2.8
0.801	450	100000	595.2	2.9
0.801	450	120000	611.5	3
0.801	450	140000	625.9	3
0.801	450	160000	638.7	3.1
0.801	450	180000	650.1	3.1
0.801	450	200000	660.9	3.2
0.801	500	40000	422	2.1
0.801	500	50000	456.2	2.2
0.801	500	60000	480.7	2.3
0.801	500	70000	499.8	2.4
0.801	500	80000	515.8	2.5
0.801	500	90000	529.6	2.6
0.801	500	100000	541.6	2.6
0.801	500	120000	562.5	2.7
0.801	500	140000	580.1	2.8
0.801	500	160000	595.3	2.9
0.801	500	180000	608.9	2.9
0.801	500	200000	621.2	3
0.9102	450	30000	422	2.1
0.9102	450	40000	457.5	2.2
0.9102	450	50000	481.3	2.3
0.9102	450	60000	499.7	2.4
0.9102	450	70000	514.8	2.5
0.9102	450	80000	527.7	2.6
0.9102	450	90000	539.1	2.6
0.9102	450	100000	549.2	2.7
0.9102	450	120000	566.9	2.7
0.9102	450	140000	582.2	2.8
0.9102	450	160000	595.6	2.9
0.9102	450	180000	607.8	2.9
0.9102	450	200000	618.7	3
0.9102	500	60000	426.9	2.1
0.9102	500	70000	450	2.2
0.9102	500	80000	468.5	2.3
0.9102	500	90000	484.1	2.3
0.9102	500	100000	497.6	2.4
0.9102	500	120000	520.1	2.5
0.9102	500	140000	538.9	2.6
0.9102	500	160000	555	2.7
0.9102	500	180000	569.2	2.7
0.9102	500	200000	581.9	2.8
1	450	30000	355.3	1.7
1	450	40000	403.7	1.9
1	450	50000	433.4	2.1
1	450	60000	455.2	2.2
1	450	70000	472.6	2.3
1	450	80000	487.4	2.3
1	450	90000	500.2	2.4
1	450	100000	511.7	2.5
1	450	120000	531.4	2.6
1	450	140000	548.2	2.6
1	450	160000	563.1	2.7
1	450	180000	576.3	2.8
1	450	200000	588.2	2.8
1	500	50000	350.9	1.7
1	500	60000	384.9	1.8
1	500	70000	410.1	2
1	500	80000	430.2	2.1
1	500	90000	446.9	2.1
1	500	100000	461.5	2.2
1	500	120000	485.8	2.3
1	500	140000	505.9	2.4
1	500	160000	523.1	2.5
1	500	180000	538.3	2.6
1	500	200000	551.9	2.6
