Measured thermophysical data. Experimental and computational study of the thermodynamic properties of 2-nitrofluorene and 2-aminofluorene
Source: J. Chem. Thermodyn., 2014, 10.1016/j.jct.2014.03.005
Compound 1: carbon dioxide, CO2, InChI=1S/CO2/c2-1-3
Compound 2: nitrogen, N2, InChI=1S/N2/c1-2
Compound 3: water, H2O, InChI=1S/H2O/h1H2
Compound 4: oxygen, O2, InChI=1S/O2/c1-2
Compound 5: 2-aminofluorene, C13H11N, InChI=1S/C13H11N/c14-11-5-6-13-10(8-11)7-9-3-1-2-4-12(9)13/h1-6,8H,7,14H2, purity 99.5%
Compound 6: 2-nitro-9H-fluorene, C13H9NO2, InChI=1S/C13H9NO2/c15-14(16)11-5-6-13-10(8-11)7-9-3-1-2-4-12(9)13/h1-6,8H,7H2, purity 97.9%

System: 2-aminofluorene; phases: Crystal, Liquid, Air at 1 atmosphere
Property: Normal melting temperature, K (Crystal); method: DTA
Normal melting temperature, K	uncertainty
400.94	0.39

System: 2-aminofluorene; phases: Crystal, Liquid, Air at 1 atmosphere
Property: Molar enthalpy of transition or fusion, kJ/mol (Crystal); method: DSC
Molar enthalpy of transition or fusion, kJ/mol	uncertainty
23.81	0.54

System: 2-aminofluorene; phases: Crystal, Gas
Property: Molar enthalpy of vaporization or sublimation, kJ/mol (Crystal); method: Static calorimetry
Temperature, K	Molar enthalpy of vaporization or sublimation, kJ/mol	uncertainty
298.15	110.4	1.8

System: 2-aminofluorene; phases: Crystal, Gas
Property: Vapor or sublimation pressure, kPa (Crystal); method: Calculated from knudsen effusion weight loss
Temperature, K	Vapor or sublimation pressure, kPa	uncertainty
345.16	0.000121	1.3e-05
347.13	0.000154	1.6e-05
349.17	0.00019	2e-05
351.15	0.000238	2.5e-05
353.1	0.000291	3.1e-05
355.17	0.000362	3.8e-05
357.13	0.000432	4.6e-05
359.16	0.000551	5.8e-05
361.13	0.000664	7e-05
363.1	0.000805	8.5e-05
365.09	0.000994	0.000105
345.16	0.00012	1.3e-05
347.13	0.000155	1.6e-05
349.17	0.000189	2e-05
351.15	0.000238	2.5e-05
353.1	0.000286	3e-05
355.17	0.00035	3.7e-05
357.13	0.000447	4.7e-05
359.16	0.000546	5.8e-05
361.13	0.000675	7.2e-05
363.1	0.000811	8.6e-05
365.09	0.000997	0.000106
345.16	0.000118	1.3e-05
347.13	0.000148	1.6e-05
349.17	0.000182	1.9e-05
351.15	0.000226	2.4e-05
353.1	0.000283	3e-05
355.17	0.000348	3.7e-05
357.13	0.000436	4.6e-05
359.16	0.000522	5.5e-05
361.13	0.000647	6.9e-05
363.1	0.000789	8.4e-05
365.09	0.000981	0.000104

System: 2-nitro-9H-fluorene; phases: Crystal, Liquid, Air at 1 atmosphere
Property: Normal melting temperature, K (Crystal); method: DTA
Normal melting temperature, K	uncertainty
429.89	0.71

System: 2-nitro-9H-fluorene; phases: Crystal, Liquid, Air at 1 atmosphere
Property: Molar enthalpy of transition or fusion, kJ/mol (Crystal); method: DSC
Molar enthalpy of transition or fusion, kJ/mol	uncertainty
24.75	0.56

System: 2-nitro-9H-fluorene; phases: Crystal, Gas
Property: Molar enthalpy of vaporization or sublimation, kJ/mol (Crystal); method: Static calorimetry
Temperature, K	Molar enthalpy of vaporization or sublimation, kJ/mol	uncertainty
298.15	114.2	2.5

System: 2-nitro-9H-fluorene; phases: Crystal, Gas
Property: Vapor or sublimation pressure, kPa (Crystal); method: Calculated from knudsen effusion weight loss
Temperature, K	Vapor or sublimation pressure, kPa	uncertainty
357.16	9e-05	1e-05
359.13	0.000114	1.2e-05
361.11	0.00014	1.5e-05
363.16	0.000172	1.8e-05
365.14	0.000213	2.3e-05
367.11	0.000258	2.7e-05
369.16	0.000322	3.4e-05
371.13	0.000392	4.2e-05
373.1	0.000474	5e-05
375.15	0.000578	6.1e-05
377.14	0.000696	7.4e-05
379.12	0.000839	8.9e-05
357.16	9.2e-05	1e-05
359.13	0.000115	1.2e-05
361.11	0.000141	1.5e-05
363.16	0.000172	1.8e-05
365.14	0.000217	2.3e-05
367.11	0.000261	2.8e-05
369.16	0.000315	3.3e-05
371.13	0.000398	4.2e-05
373.1	0.000478	5.1e-05
375.15	0.000565	6e-05
377.14	0.000707	7.5e-05
379.12	0.000844	9e-05
357.16	9e-05	1e-05
359.13	0.000111	1.2e-05
361.11	0.000139	1.5e-05
363.16	0.00017	1.8e-05
365.14	0.000209	2.2e-05
367.11	0.000258	2.7e-05
369.16	0.000315	3.3e-05
371.13	0.000377	4e-05
373.1	0.000472	5e-05
375.15	0.000561	6e-05
377.14	0.000678	7.2e-05
379.12	0.000829	8.8e-05

Reaction: -1 2-aminofluorene + 13 carbon dioxide + .5 nitrogen + 5.5 water + -15.75 oxygen
Property: Specific internal energy of reaction at constant volume, J/g
-37318.5

Reaction: -1 2-nitro-9H-fluorene + 13 carbon dioxide + .5 nitrogen + 4.5 water + -14.25 oxygen
Property: Specific internal energy of reaction at constant volume, J/g
-30528.8
