Measured thermophysical data. Molecular energetics of pyrrolecarbonitriles and derivatives: A combined calorimetric and computational study
Source: J. Chem. Thermodyn., 2012, 10.1016/j.jct.2011.12.019
Compound 1: carbon dioxide, CO2, InChI=1S/CO2/c2-1-3
Compound 2: nitrogen, N2, InChI=1S/N2/c1-2
Compound 3: water, H2O, InChI=1S/H2O/h1H2
Compound 4: oxygen, O2, InChI=1S/O2/c1-2
Compound 5: hydrogen, H2, InChI=1S/H2/h1H
Compound 6: graphite, C
Compound 7: 2-cyanopyrrole;, C5H4N2, InChI=1S/C5H4N2/c6-4-5-2-1-3-7-5/h1-3,7H, purity 99%
Compound 8: 1,5-dimethyl-2-pyrrolecarbonitrile, C7H8N2, InChI=1S/C7H8N2/c1-6-3-4-7(5-8)9(6)2/h3-4H,1-2H3, purity 99%

System: 2-cyanopyrrole;; phases: Liquid, Gas
Property: Molar enthalpy of vaporization or sublimation, kJ/mol (Liquid); method: drop calorimetry
Temperature, K	Molar enthalpy of vaporization or sublimation, kJ/mol	uncertainty
298.15	65.3	2.8

System: 2-cyanopyrrole;; phases: Liquid, Gas
Property: Molar enthalpy, kJ/mol (Liquid); method: Drop calorimetry
Temperature, K	Molar enthalpy, kJ/mol	uncertainty
339.6	69.5	1.6

System: 1,5-dimethyl-2-pyrrolecarbonitrile; phases: Crystal, Gas
Property: Molar enthalpy of vaporization or sublimation, kJ/mol (Crystal); method: drop calorimetry
Temperature, K	Molar enthalpy of vaporization or sublimation, kJ/mol	uncertainty
298.15	78.3	3.2

System: 1,5-dimethyl-2-pyrrolecarbonitrile; phases: Crystal, Gas
Property: Molar enthalpy, kJ/mol (Crystal); method: Drop calorimetry
Temperature, K	Molar enthalpy, kJ/mol	uncertainty
350.2	86.3	2.1

Reaction: -1 2-cyanopyrrole; + 5 carbon dioxide + 1 nitrogen + 2 water + -6 oxygen
Property: Specific internal energy of reaction at constant volume, J/g
-29445

Reaction: -1 1,5-dimethyl-2-pyrrolecarbonitrile + 7 carbon dioxide + 1 nitrogen + 4 water + -9 oxygen
Property: Specific internal energy of reaction at constant volume, J/g
-33337.5

Reaction: 1 2-cyanopyrrole; + -2 hydrogen + -1 nitrogen + -5 graphite
Property: Molar enthalpy of reaction, kJ/mol
172.6

Reaction: 1 1,5-dimethyl-2-pyrrolecarbonitrile + -4 hydrogen + -1 nitrogen + -7 graphite
Property: Molar enthalpy of reaction, kJ/mol
110.2
