Measured thermophysical data. Phase equilibria study of {N-butylquinolinium bis{(trifluoromethyl)sulfonyl}imide + aromatic hydrocarbons, or an alcohol} binary systems
Source: J. Chem. Thermodyn., 2010, 10.1016/j.jct.2010.04.020
Compound 1: 1-butylquinolinium bis((trifluoromethyl)sulfonyl)amide, C15H16F6N2O4S2, InChI=1S/C13H16N.C2F6NO4S2/c1-2-3-10-14-11-6-8-12-7-4-5-9-13(12)14;3-1(4,5)14(10,11)9-15(12,13)2(6,7)8/h4-9,11H,2-3,10H2,1H3;/q+1;-1
Compound 2: benzene, C6H6, InChI=1S/C6H6/c1-2-4-6-5-3-1/h1-6H, purity 99.7%
Compound 3: toluene, C7H8, InChI=1S/C7H8/c1-7-5-3-2-4-6-7/h2-6H,1H3, purity 99.7%
Compound 4: ethylbenzene, C8H10, InChI=1S/C8H10/c1-2-8-6-4-3-5-7-8/h3-7H,2H2,1H3, purity 99%
Compound 5: propylbenzene, C9H12, InChI=1S/C9H12/c1-2-6-9-7-4-3-5-8-9/h3-5,7-8H,2,6H2,1H3
Compound 6: thiophene, C4H4S, InChI=1S/C4H4S/c1-2-4-5-3-1/h1-4H, purity 99.8%
Compound 7: ethanol, C2H6O, InChI=1S/C2H6O/c1-2-3/h3H,2H2,1H3
Compound 8: butan-1-ol, C4H10O, InChI=1S/C4H10O/c1-2-3-4-5/h5H,2-4H2,1H3
Compound 9: hexan-1-ol, C6H14O, InChI=1S/C6H14O/c1-2-3-4-5-6-7/h7H,2-6H2,1H3
Compound 10: octan-1-ol, C8H18O, InChI=1S/C8H18O/c1-2-3-4-5-6-7-8-9/h9H,2-8H2,1H3
Compound 11: dodecan-1-ol, C12H26O, InChI=1S/C12H26O/c1-2-3-4-5-6-7-8-9-10-11-12-13/h13H,2-12H2,1H3

System: 1-butylquinolinium bis((trifluoromethyl)sulfonyl)amide; phases: Crystal, Liquid, Air at 1 atmosphere
Property: Triple point temperature, K (Crystal); method: VISOBS
Triple point temperature, K	uncertainty
329.62	1.06

System: 1-butylquinolinium bis((trifluoromethyl)sulfonyl)amide; phases: Crystal, Liquid, Air at 1 atmosphere
Property: Triple point temperature, K (Crystal); method: DTA
Triple point temperature, K	uncertainty
329.12	0.5

System: 1-butylquinolinium bis((trifluoromethyl)sulfonyl)amide; phases: Crystal, Liquid, Air at 1 atmosphere
Property: Molar enthalpy of transition or fusion, kJ/mol (Crystal); method: DSC
Molar enthalpy of transition or fusion, kJ/mol	uncertainty
44.14	1.22

System: 1-butylquinolinium bis((trifluoromethyl)sulfonyl)amide; phases: Liquid
Fixed: Pressure, kPa = 101.325
Property: Mass density, kg/m3 (Liquid); method: Vibrating tube method
Temperature, K	Mass density, kg/m3	uncertainty
333.15	1416.26	6.94
343.15	1407.38	6.85
353.15	1398.52	6.77
363.15	1389.69	6.68

System: benzene + 1-butylquinolinium bis((trifluoromethyl)sulfonyl)amide; phases: Crystal, Liquid mixture 1, Liquid mixture 2, Air at 1 atmosphere
Property: Quadruple (quintuple) point temperature, K (Crystal); method: visual
Quadruple (quintuple) point temperature, K	uncertainty
278.55	1.06

System: benzene + 1-butylquinolinium bis((trifluoromethyl)sulfonyl)amide; phases: Liquid, Crystal
Fixed: Pressure, kPa = 101
Property: Solid-liquid equilibrium temperature, K (Liquid); method: VISOBS
Mole fraction of 1-butylquinolinium bis((trifluoromethyl)sulfonyl)amide	Solid-liquid equilibrium temperature, K	uncertainty
1	329.62	1.01
0.9568	328.53	1.01
0.9184	327.42	1.01
0.8662	325.03	1.01
0.8024	322.93	1.01
0.757	320.29	1.01
0.692	317.16	1.01
0.6213	313.42	1.01
0.5676	307.89	1.01
0.5186	303.73	1.01
0.4954	302.24	1.01
0.4598	299	1.02
0.4279	294.99	1.02
0.4099	292.19	1.02
0.4018	291.96	1.01
0.369	287.24	1.02
0.3509	283.77	1.03
0.3447	282.91	1.03
0.3307	280.11	1.03
0.3231	278.88	1.03
0.2969	273.59	1.03
0.2757	268.96	1.03

System: benzene + 1-butylquinolinium bis((trifluoromethyl)sulfonyl)amide; phases: Liquid, Crystal
Fixed: Pressure, kPa = 101
Property: Solid-liquid equilibrium temperature, K (Liquid); method: VISOBS
Mole fraction of 1-butylquinolinium bis((trifluoromethyl)sulfonyl)amide	Solid-liquid equilibrium temperature, K	uncertainty
0.2542	264.7	1.04
0.2377	268.54	1.03
0.2228	270.47	1.02
0.2036	273.24	1.02
0.1873	275.49	1.03
0.1859	275.74	1.03
0.1773	276.77	1.02
0.1693	277.56	1.01
0.1633	278.04	1.01
0	278.61	1.01

System: toluene + 1-butylquinolinium bis((trifluoromethyl)sulfonyl)amide; phases: Crystal, Liquid mixture 1, Liquid mixture 2, Air at 1 atmosphere
Property: Quadruple (quintuple) point temperature, K (Crystal); method: visual
Quadruple (quintuple) point temperature, K	uncertainty
261.61	1.06

System: toluene + 1-butylquinolinium bis((trifluoromethyl)sulfonyl)amide; phases: Liquid, Crystal
Fixed: Pressure, kPa = 101
Property: Solid-liquid equilibrium temperature, K (Liquid); method: VISOBS
Mole fraction of 1-butylquinolinium bis((trifluoromethyl)sulfonyl)amide	Solid-liquid equilibrium temperature, K	uncertainty
1	329.62	1.01
0.9232	326.36	1.01
0.8909	325.05	1.01
0.8511	323.52	1.01
0.7771	319.75	1.01
0.7292	318.13	1.01
0.6915	316.09	1.01
0.6369	312.85	1.01
0.5835	309.31	1.01
0.5365	305.39	1.01
0.5025	302.29	1.01
0.4664	299.15	1.01
0.4309	295.4	1.01
0.3914	291.65	1.02
0.3556	287.02	1.02
0.3249	282.05	1.02
0.2998	277.85	1.02
0.2762	273.54	1.03
0.2586	269.71	1.03
0.2351	264.85	1.03

System: ethylbenzene + 1-butylquinolinium bis((trifluoromethyl)sulfonyl)amide; phases: Crystal, Liquid mixture 1, Liquid mixture 2, Air at 1 atmosphere
Property: Quadruple (quintuple) point temperature, K (Crystal); method: visual
Quadruple (quintuple) point temperature, K	uncertainty
285.26	1.06

System: ethylbenzene + 1-butylquinolinium bis((trifluoromethyl)sulfonyl)amide; phases: Liquid, Crystal
Fixed: Pressure, kPa = 101
Property: Solid-liquid equilibrium temperature, K (Liquid); method: VISOBS
Mole fraction of 1-butylquinolinium bis((trifluoromethyl)sulfonyl)amide	Solid-liquid equilibrium temperature, K	uncertainty
1	329.62	1.01
0.9807	329.24	1.01
0.9605	328.22	1.01
0.9313	327.1	1.01
0.9097	326.63	1.01
0.879	325.39	1.01
0.8451	324.33	1.01
0.8267	323.68	1.01
0.7953	322.11	1.01
0.7674	320.43	1.01
0.7445	318.63	1.01
0.7186	317.71	1.01
0.6941	316.84	1.01
0.6574	314.91	1.01
0.6261	312.85	1.01
0.602	311.26	1.01
0.5757	309.5	1.01
0.5455	307.55	1.01
0.5162	305.1	1.01
0.4868	303.22	1.01
0.463	301.6	1.01
0.4367	299.53	1.01
0.411	297.44	1.01
0.3821	294.51	1.01
0.3544	291.88	1.01
0.3256	289.37	1.01
0.311	288.3	1.01
0.2991	287.11	1.08
0.2972	286.38	1.02
0.2934	286.06	1.01
0.2903	285.91	1.01
0.2846	285.49	1.01

System: propylbenzene + 1-butylquinolinium bis((trifluoromethyl)sulfonyl)amide; phases: Crystal, Liquid mixture 1, Liquid mixture 2, Air at 1 atmosphere
Property: Quadruple (quintuple) point temperature, K (Crystal); method: visual
Quadruple (quintuple) point temperature, K	uncertainty
300.41	1.06

System: propylbenzene + 1-butylquinolinium bis((trifluoromethyl)sulfonyl)amide; phases: Liquid, Crystal
Fixed: Pressure, kPa = 101
Property: Solid-liquid equilibrium temperature, K (Liquid); method: VISOBS
Mole fraction of 1-butylquinolinium bis((trifluoromethyl)sulfonyl)amide	Solid-liquid equilibrium temperature, K	uncertainty
1	329.62	1.01
0.9827	328.94	1.01
0.9378	327.6	1.01
0.904	326.59	1.01
0.8552	325.36	1.01
0.8036	322.91	1.01
0.7708	321.41	1.01
0.725	319	1.01
0.6856	317.16	1.01
0.6687	316.48	1.01
0.6286	314.97	1.01
0.5989	313.16	1.01
0.5834	311.7	1.01
0.5554	310.38	1.01
0.5118	308.1	1.01
0.4953	306.6	1.01
0.4733	306.06	1.01
0.4326	303.25	1.01
0.4087	302.11	1.01
0.392	301.34	1.01

System: thiophene + 1-butylquinolinium bis((trifluoromethyl)sulfonyl)amide; phases: Crystal, Liquid mixture 1, Liquid mixture 2, Air at 1 atmosphere
Property: Quadruple (quintuple) point temperature, K (Crystal); method: visual
Quadruple (quintuple) point temperature, K	uncertainty
253.95	1.06

System: thiophene + 1-butylquinolinium bis((trifluoromethyl)sulfonyl)amide; phases: Liquid, Crystal
Fixed: Pressure, kPa = 101
Property: Solid-liquid equilibrium temperature, K (Liquid); method: VISOBS
Mole fraction of 1-butylquinolinium bis((trifluoromethyl)sulfonyl)amide	Solid-liquid equilibrium temperature, K	uncertainty
1	329.62	1.01
0.9607	328.27	1.01
0.9286	327.35	1.01
0.9034	326.62	1.01
0.8735	325.56	1.01
0.4745	300.24	1.01
0.449	297.41	1.02
0.4222	294.01	1.02
0.398	290.72	1.02
0.3638	285.94	1.02
0.8201	323.07	1.01
0.7698	321	1.01
0.7487	320.22	1.01
0.7092	317.4	1.01
0.6651	314.83	1.01
0.6167	311.6	1.01
0.5681	308.11	1.01
0.526	304.71	1.01
0.333	280.62	1.03
0.3097	276	1.03
0.2924	272.05	1.12
0.2633	264.59	1.04
0.2881	269.92	1.04
0.2735	267	1.03
0.246	259.81	1.05

System: ethanol + 1-butylquinolinium bis((trifluoromethyl)sulfonyl)amide; phases: Liquid, Crystal
Fixed: Pressure, kPa = 101
Property: Solid-liquid equilibrium temperature, K (Liquid); method: VISOBS
Mole fraction of 1-butylquinolinium bis((trifluoromethyl)sulfonyl)amide	Solid-liquid equilibrium temperature, K	uncertainty
1	329.62	1.01
0.9377	326.36	1.01
0.8531	323.4	1.01
0.8179	322.15	1.01
0.7543	320.15	1.01
0.6963	317.94	1.01
0.6296	315.15	1.01
0.5795	312.95	1.01
0.5255	310.78	1.01
0.4656	308.62	1.01
0.4233	306.8	1.01
0.3838	305.34	1.01
0.3391	303.45	1.01
0.2852	301.45	1.01
0.2368	299.55	1.01
0.1855	298.29	1.01
0.1528	297.15	1.01
0.1106	295.5	1.01
0.0909	294.45	1.01
0.0722	293.28	1.01
0.054	291.98	1.01
0.0412	290.26	1.02
0.0315	288.57	1.03
0.0244	286.65	1.05

System: butan-1-ol + 1-butylquinolinium bis((trifluoromethyl)sulfonyl)amide; phases: Liquid, Crystal
Fixed: Pressure, kPa = 101
Property: Solid-liquid equilibrium temperature, K (Liquid); method: VISOBS
Mole fraction of 1-butylquinolinium bis((trifluoromethyl)sulfonyl)amide	Solid-liquid equilibrium temperature, K	uncertainty
1	329.62	1.01
0.8844	325.15	1.01
0.7927	322.73	1.01
0.7054	319.97	1.01
0.626	317.05	1.01
0.5616	314.7	1.01
0.5134	312.78	1.01
0.4439	310.65	1.01
0.3732	309.2	1.01
0.3184	308.79	1.01
0.2527	307.64	1.01
0.1909	307.28	1.01
0.1511	307.1	1.01
0.0797	306.75	1.01
0.0468	306.05	1.01
0.0165	304.9	1.01

System: hexan-1-ol + 1-butylquinolinium bis((trifluoromethyl)sulfonyl)amide; phases: Crystal, Liquid mixture 1, Liquid mixture 2, Air at 1 atmosphere
Property: Quadruple (quintuple) point temperature, K (Crystal); method: visual
Quadruple (quintuple) point temperature, K	uncertainty
314.99	1.06

System: hexan-1-ol + 1-butylquinolinium bis((trifluoromethyl)sulfonyl)amide; phases: Liquid, Crystal
Fixed: Pressure, kPa = 101
Property: Solid-liquid equilibrium temperature, K (Liquid); method: VISOBS
Mole fraction of 1-butylquinolinium bis((trifluoromethyl)sulfonyl)amide	Solid-liquid equilibrium temperature, K	uncertainty
1	329.62	1.01
0.9319	326.49	1.01
0.8535	323.65	1.01
0.7967	321.68	1.01
0.7164	318.75	1.01
0.6684	317.42	1.01
0.6039	315.9	1.01

System: hexan-1-ol + 1-butylquinolinium bis((trifluoromethyl)sulfonyl)amide; phases: Liquid mixture 1, Liquid mixture 2
Fixed: Pressure, kPa = 101
Property: Liquid-liquid equilibrium temperature, K (Liquid mixture 1); method: VISOBS
Mole fraction of 1-butylquinolinium bis((trifluoromethyl)sulfonyl)amide	Liquid-liquid equilibrium temperature, K	uncertainty
0.4842	315.95	1.02
0.4415	320.95	1.02
0.413	323.57	1.01
0.3724	326.15	1.01
0.334	329.99	1.01
0.3071	331.65	1.01
0.2819	333.25	1.01
0.2482	334.78	1.01
0.2137	335.66	1.01
0.1783	336.28	1.01
0.1351	336.95	1.01
0.0966	336.75	1.01
0.0583	335.24	1.01
0.0354	331.2	1.05
0.0226	325.15	1.12

System: octan-1-ol + 1-butylquinolinium bis((trifluoromethyl)sulfonyl)amide; phases: Crystal, Liquid mixture 1, Liquid mixture 2, Air at 1 atmosphere
Property: Quadruple (quintuple) point temperature, K (Crystal); method: visual
Quadruple (quintuple) point temperature, K	uncertainty
321.77	1.06

System: octan-1-ol + 1-butylquinolinium bis((trifluoromethyl)sulfonyl)amide; phases: Liquid, Crystal
Fixed: Pressure, kPa = 101
Property: Solid-liquid equilibrium temperature, K (Liquid); method: VISOBS
Mole fraction of 1-butylquinolinium bis((trifluoromethyl)sulfonyl)amide	Solid-liquid equilibrium temperature, K	uncertainty
1	329.62	1.01
0.9511	326.25	1.01
0.9137	326.05	1.01
0.8412	324.87	1.01
0.7865	323.2	1.01

System: octan-1-ol + 1-butylquinolinium bis((trifluoromethyl)sulfonyl)amide; phases: Liquid mixture 1, Liquid mixture 2
Fixed: Pressure, kPa = 101
Property: Liquid-liquid equilibrium temperature, K (Liquid mixture 1); method: VISOBS
Mole fraction of 1-butylquinolinium bis((trifluoromethyl)sulfonyl)amide	Liquid-liquid equilibrium temperature, K	uncertainty
0.6344	332.25	1.02
0.5988	336.73	1.02
0.5718	340.45	1.02
0.5499	343.02	1.02
0.5295	345.35	1.02
0.5073	348.01	1.02
0.4801	350.89	1.02
0.4518	353.91	1.01
0.4108	357.75	1.01
0.3776	360.15	1.01
0.3459	362.55	1.01
0.3081	365.15	1.01
0.2653	367.15	1.01
0.2215	368.75	1.01
0.1661	369.69	1.01
0.1192	369.45	1.01
0.0805	368.49	1.01
0.0458	365.45	1.02
0.0272	359.75	1.06
0.6772	326.7	1.02

System: dodecan-1-ol + 1-butylquinolinium bis((trifluoromethyl)sulfonyl)amide; phases: Crystal, Liquid mixture 1, Liquid mixture 2, Air at 1 atmosphere
Property: Quadruple (quintuple) point temperature, K (Crystal); method: visual
Quadruple (quintuple) point temperature, K	uncertainty
325.69	1.06

System: dodecan-1-ol + 1-butylquinolinium bis((trifluoromethyl)sulfonyl)amide; phases: Liquid, Crystal
Fixed: Pressure, kPa = 101
Property: Solid-liquid equilibrium temperature, K (Liquid); method: VISOBS
Mole fraction of 1-butylquinolinium bis((trifluoromethyl)sulfonyl)amide	Solid-liquid equilibrium temperature, K	uncertainty
1	329.62	1.01
0.94	326.15	1.01

System: dodecan-1-ol + 1-butylquinolinium bis((trifluoromethyl)sulfonyl)amide; phases: Liquid mixture 1, Liquid mixture 2
Fixed: Pressure, kPa = 101
Property: Liquid-liquid equilibrium temperature, K (Liquid mixture 1); method: VISOBS
Mole fraction of 1-butylquinolinium bis((trifluoromethyl)sulfonyl)amide	Liquid-liquid equilibrium temperature, K	uncertainty
0.8488	337.37	1.07
0.8013	353.73	1.05
0.7424	367.27	1.04
0.7102	377.03	1.04
0.6828	382.38	1.03
0.6517	389.15	1.03
0.6211	394.47	1.02
0.5853	400.14	1.02
0.5348	408.95	1.02
0.5006	414.35	1.02
0.0146	405.45	1.01
