Measured thermophysical data. Crystalline anhydrous alpha,alpha-trehalose (polymorph beta) and crystalline dihydrate alpha,alpha-trehalose: A calorimetric study
Source: J. Chem. Thermodyn., 2006, 10.1016/j.jct.2005.11.005
Compound 1: carbon dioxide, CO2, InChI=1S/CO2/c2-1-3
Compound 2: water, H2O, InChI=1S/H2O/h1H2
Compound 3: oxygen, O2, InChI=1S/O2/c1-2
Compound 4: .alpha.-trehalose, C12H22O11, InChI=1S/C12H22O11/c13-1-3-5(15)7(17)9(19)11(21-3)23-12-10(20)8(18)6(16)4(2-14)22-12/h3-20H,1-2H2/t3-,4-,5-,6-,7+,8+,9-,10-,11-,12-/m1/s1, purity 99%
Compound 5: D-(+)-trehalose dihydrate, C12H26O13, InChI=1S/C12H22O11.2H2O/c13-1-3-5(15)7(17)9(19)11(21-3)23-12-10(20)8(18)6(16)4(2-14)22-12;;/h3-20H,1-2H2;2*1H2/t3-,4-,5-,6-,7+,8+,9-,10-,11-,12-;;/m1../s1, purity 99%

System: .alpha.-trehalose; phases: Crystal, Liquid, Air at 1 atmosphere
Property: Molar enthalpy of transition or fusion, kJ/mol (Crystal); method: DSC
Molar enthalpy of transition or fusion, kJ/mol	uncertainty
53.4	2.8

System: .alpha.-trehalose; phases: Glass, Liquid, Air at 1 atmosphere
Property: Triple point temperature, K (Glass); method: DTA
Triple point temperature, K	uncertainty
393.1	2

System: .alpha.-trehalose; phases: Crystal, Liquid, Air at 1 atmosphere
Property: Normal melting temperature, K (Crystal); method: DTA
Normal melting temperature, K	uncertainty
482.5	0.5

System: D-(+)-trehalose dihydrate; phases: Crystal, Liquid, Air at 1 atmosphere
Property: Molar enthalpy of transition or fusion, kJ/mol (Crystal); method: DSC
Molar enthalpy of transition or fusion, kJ/mol	uncertainty
109.7	2.8

System: D-(+)-trehalose dihydrate; phases: Crystal, Liquid, Air at 1 atmosphere
Property: Normal melting temperature, K (Crystal); method: DTA
Normal melting temperature, K	uncertainty
372.25	0.5

Reaction: -1 D-(+)-trehalose dihydrate + 12 carbon dioxide + 13 water + -12 oxygen
Property: Specific internal energy of reaction at constant volume, J/g
-14816.05

Reaction: -1 .alpha.-trehalose + 12 carbon dioxide + 11 water + -12 oxygen
Property: Specific internal energy of reaction at constant volume, J/g
-16434.05
