Measured thermophysical data. Thermodynamic properties of xanthone: Heat capacities, phase-transition properties, and thermodynamic-consistency analyses using computational results
Source: J. Chem. Thermodyn., 2015, 10.1016/j.jct.2015.02.009
Compound 1: 9H-xanthen-9-one, C13H8O2, InChI=1S/C13H8O2/c14-13-9-5-1-3-7-11(9)15-12-8-4-2-6-10(12)13/h1-8H

System: 9H-xanthen-9-one; phases: Crystal 1, Liquid, Gas
Property: Triple point temperature, K (Crystal 1); method: Adiabatic calorimetry
Triple point temperature, K	uncertainty
448.795	0.041

System: 9H-xanthen-9-one; phases: Crystal 2, Crystal 1, Gas
Property: Triple point temperature, K (Crystal 2); method: Adiabatic calorimetry
Triple point temperature, K	uncertainty
304.5	0.05

System: 9H-xanthen-9-one; phases: Crystal 2, Crystal 1, Gas
Property: Molar enthalpy of transition or fusion, kJ/mol (Crystal 2); method: Adiabatic calorimetry
Molar enthalpy of transition or fusion, kJ/mol	uncertainty
0	0.001

System: 9H-xanthen-9-one; phases: Crystal 1, Liquid, Gas
Property: Molar enthalpy of transition or fusion, kJ/mol (Crystal 1); method: Adiabatic calorimetry
Molar enthalpy of transition or fusion, kJ/mol	uncertainty
27.475	0.034

System: 9H-xanthen-9-one; phases: Liquid, Gas
Property: Mass density, kg/m3 (Liquid); method: Pycnometric method
Temperature, K	Mass density, kg/m3	uncertainty
473	1090	20

System: 9H-xanthen-9-one; phases: Crystal 2, Gas
Property: Molar heat capacity at saturation pressure, J/K/mol (Crystal 2); method: Vacuum adiabatic calorimetry
Temperature, K	Molar heat capacity at saturation pressure, J/K/mol	uncertainty
4.948	0.415723105	0.0166289242
5.884	0.7316726648	0.0249433863
6.774	1.1307668456	0.0415723105
7.756	1.6795213442	0.0582012347
8.886	2.49433863	0.083144621
10.012	3.492074082	0.0332578484
11.155	4.6062120034	0.0415723105
12.42	5.8949536289	0.0498867726
13.824	7.5744749731	0.0665156968
15.408	9.4202855593	0.0748301589
17.209	11.6236180158	0.083144621
19.141	14.0264975627	0.0997735452
21.272	16.6206097379	0.1080880073
23.691	19.6138160939	0.1247169315
26.445	22.9312864718	0.1413458557
29.516	26.4815617885	0.1496603178
32.987	30.3394722029	0.083144621
36.761	34.2971561625	0.083144621
40.808	38.1800099632	0.0914590831
45.21	42.2956687027	0.0997735452
49.987	46.3863840559	0.1080880073
55.295	50.6267597269	0.1164024694
61.275	55.124883723	0.1247169315
67.424	59.5481775602	0.1247169315
74.047	64.0546160184	0.1330313936
81.422	68.9934065058	0.1413458557
89.275	74.0236560763	0.1496603178
97.771	79.4280564413	0.2161760146
107.097	85.2814377597	0.2244904767
116.862	91.4091963274	0.2244904767
126.79	97.6866152129	0.2328049388
136.843	104.1136944162	0.2411194009
146.729	110.5407736195	0.249433863
156.734	117.1258276027	0.249433863
166.814	123.9021142142	0.2577483251
176.933	130.7698599088	0.2660627872
187.026	137.7789514591	0.2743772493
197.157	144.9460177893	0.2826917114
207.332	152.2294865889	0.2910061735
217.492	159.5961000095	0.2993206356
227.644	167.1040592858	0.3076350977
237.794	174.5870751758	0.3159495598
247	181.4963931809	0.3242640219
257.215	189.320302017	0.332578484
267.433	197.2356699362	0.3408929461
271.494	200.4450523068	0.3492074082
277.658	205.3422704837	0.3492074082
281.579	208.6763697858	0.3575218703
285.783	211.9439533911	0.3575218703
287.891	213.6234747353	0.3658363324
287.931	213.8147073636	0.3658363324
290.919	216.2757881452	0.3658363324
293.888	218.6952966163	0.3658363324
296.837	221.3559244883	0.3741507945
299.768	224.2160994507	0.3741507945
302.679	226.9099851711	0.3741507945

System: 9H-xanthen-9-one; phases: Crystal 1, Gas
Property: Molar heat capacity at saturation pressure, J/K/mol (Crystal 1); method: Vacuum adiabatic calorimetry
Temperature, K	Molar heat capacity at saturation pressure, J/K/mol	uncertainty
308.544	220.5161638162	0.3741507945
314.516	224.739910563	0.3741507945
319.049	228.2153557208	0.3824652566
329.404	234.883554325	0.3907797187
339.755	241.9591615721	0.3990941808
350.053	248.9100518877	0.4074086429
360.249	255.7362252718	0.415723105
370.496	262.7037445116	0.415723105
380.935	269.6130625167	0.4240375671
391.393	276.3893491282	0.4323520292
401.806	283.1240634292	0.4406664913
403.537	284.2548302748	0.4489809534
411.031	289.0023881339	0.4489809534
412.187	289.7257463366	0.4489809534
416.688	292.5776068369	0.4572954155
419.613	294.4400463473	0.4572954155
422.488	296.3191147819	0.4572954155
426.255	298.7718811014	0.4656098776
426.893	299.0462583507	0.4656098776
428.37	300.0606227269	0.4656098776
432.603	302.7794518336	0.4656098776
434.538	304.2427971632	0.4656098776
436.392	305.6063689476	0.4739243397
436.865	305.889060659	0.4739243397
437.001	305.6562557202	0.4739243397
438.344	306.6623056343	0.4739243397
441.529	308.5912608415	0.4739243397
444.475	310.7613354496	0.4739243397

System: 9H-xanthen-9-one; phases: Liquid, Gas
Property: Molar heat capacity at saturation pressure, J/K/mol (Liquid); method: Vacuum adiabatic calorimetry
Temperature, K	Molar heat capacity at saturation pressure, J/K/mol	uncertainty
456.708	355.9504369631	0.5321255744
456.822	356.0668394325	0.5321255744
456.898	356.0751538946	0.5321255744
465.069	359.5755424387	0.5321255744
465.905	359.8083473775	0.5321255744
476.597	364.339729222	0.5404400365
488.563	369.245261861	0.5487544986
497.53	372.9535119576	0.5487544986
500.955	374.4667440598	0.5487544986
512.381	379.1893585326	0.5570689607
521.082	382.6814326146	0.5653834228

System: 9H-xanthen-9-one; phases: Crystal 2, Gas
Property: Molar heat capacity at saturation pressure, J/K/mol (Crystal 2); method: Vacuum adiabatic calorimetry
Temperature, K	Molar heat capacity at saturation pressure, J/K/mol	uncertainty
5	0.4489809534	0.0249433863
10	3.4754451578	0.0415723105
20	15.0741197873	0.0997735452
30	27.0303162871	0.0748301589
40	37.4317083742	0.0914590831
50	46.4030129801	0.1080880073
60	54.1853495057	0.1164024694
70	61.3191579875	0.1330313936
80	68.0538722885	0.1413458557
90	74.497580416	0.2161760146
100	80.8332005362	0.2161760146
120	93.3880383072	0.2244904767
140	106.1590520928	0.2411194009
160	119.312531135	0.2577483251
180	132.8900477443	0.2743772493
200	146.9747465417	0.2826917114
220	161.4502250578	0.2993206356
240	176.2333386716	0.3159495598
260	191.4654332388	0.3408929461
280	207.279540153	0.3575218703
298.15	222.5947793412	0.3741507945
300	224.324187458	0.3741507945
304.5	228.8223114541	0.3824652566

System: 9H-xanthen-9-one; phases: Crystal 2
Fixed: Pressure, kPa = 101.325
Property: Molar entropy, J/K/mol (Crystal 2); method: Vacuum adiabatic calorimetry
Temperature, K	Molar entropy, J/K/mol	uncertainty
5	0.1496603178	0.0166289242
10	1.1889680803	0.0249433863
20	7.0090915503	0.0748301589
30	15.4150127334	0.083144621
40	24.6690090507	0.1080880073
50	34.006149989	0.1247169315
60	43.1686872232	0.1496603178
70	52.0651616702	0.1746037041
80	60.69557333	0.1912326283
90	69.0848655889	0.3159495598
100	77.2579818332	0.3242640219
120	93.1053465958	0.3408929461
140	108.4621580945	0.3658363324
160	123.4863911092	0.3907797187
180	138.3193914956	0.415723105
200	153.0443038747	0.4406664913
220	167.7276439433	0.4656098776
240	182.4109840119	0.4905532639
260	197.1192674668	0.5154966502
280	211.8774376943	0.5404400365
298.15	225.3634952205	0.5653834228
300	226.7436959291	0.5653834228
304.5	230.1193675417	0.5736978849

System: 9H-xanthen-9-one; phases: Crystal 2
Fixed: Pressure, kPa = 101.325
Property: Molar enthalpy function {Hm(T)-Hm(0)}/T, J/K/mol (Crystal 2); method: Vacuum adiabatic calorimetry
Temperature, K	Molar enthalpy function {Hm(T)-Hm(0)}/T, J/K/mol	uncertainty
5	0.1164024694	0.0083144621
10	0.8896474447	0.0166289242
20	4.9720483358	0.0415723105
30	10.3681342387	0.0498867726
40	15.8723081489	0.0582012347
50	21.1104192719	0.0665156968
60	25.9826940625	0.0748301589
70	30.5307048312	0.0748301589
80	34.8043383506	0.083144621
90	38.8534813933	0.1829181662
100	42.736335194	0.1912326283
120	50.1278920009	0.1912326283
140	57.2201281722	0.1995470904
160	64.1543895636	0.2078615525
180	71.0304497203	0.2078615525
200	77.9231388012	0.2161760146
220	84.8490857305	0.2244904767
240	91.8498628187	0.2244904767
260	98.9254700658	0.2328049388
280	106.092536396	0.2411194009
298.15	112.7108482276	0.249433863
300	113.3926341198	0.249433863
304.5	115.0638410019	0.249433863

System: 9H-xanthen-9-one; phases: Crystal 1, Gas
Property: Molar heat capacity at saturation pressure, J/K/mol (Crystal 1); method: Vacuum adiabatic calorimetry
Temperature, K	Molar heat capacity at saturation pressure, J/K/mol	uncertainty
304.5	217.423183915	0.3658363324
320	228.7807391436	0.3824652566
340	242.1254508141	0.3990941808
360	255.586564954	0.4074086429
380	269.0061067834	0.4240375671
400	281.9600387352	0.4406664913
420	294.6728512861	0.4572954155
440	307.8097014041	0.4739243397
448.795	313.3471331627	0.4822388018

System: 9H-xanthen-9-one; phases: Crystal 1
Fixed: Pressure, kPa = 101.325
Property: Molar entropy, J/K/mol (Crystal 1); method: Vacuum adiabatic calorimetry
Temperature, K	Molar entropy, J/K/mol	uncertainty
304.5	230.1193675417	0.5736978849
320	241.1942310589	0.5903268091
340	255.4701624846	0.6152701954
360	269.6878926756	0.6402135817
380	283.8723650182	0.665156968
400	297.9986361261	0.6901003543
420	312.0583915372	0.7150437406
440	326.0765746378	0.7399871269
448.795	332.2209621297	0.7566160511

System: 9H-xanthen-9-one; phases: Crystal 1
Fixed: Pressure, kPa = 101.325
Property: Molar enthalpy function {Hm(T)-Hm(0)}/T, J/K/mol (Crystal 1); method: Vacuum adiabatic calorimetry
Temperature, K	Molar enthalpy function {Hm(T)-Hm(0)}/T, J/K/mol	uncertainty
304.5	115.0638410019	0.249433863
320	120.3019521249	0.2577483251
340	127.0782387364	0.2660627872
360	133.8378964237	0.2743772493
380	140.6058685731	0.2826917114
400	147.3488973362	0.2826917114
420	154.0586682509	0.2910061735
440	160.7518102414	0.2993206356
448.795	163.6868153627	0.3076350977

System: 9H-xanthen-9-one; phases: Liquid, Gas
Property: Molar heat capacity at saturation pressure, J/K/mol (Liquid); method: Vacuum adiabatic calorimetry
Temperature, K	Molar heat capacity at saturation pressure, J/K/mol	uncertainty
448.795	352.7161112062	0.5238111123
460	357.3306376717	0.5321255744
480	365.7365588548	0.5404400365
500	374.067649879	0.5487544986
520	382.2573950475	0.5653834228

System: 9H-xanthen-9-one; phases: Liquid
Fixed: Pressure, kPa = 101.325
Property: Molar entropy, J/K/mol (Liquid); method: Vacuum adiabatic calorimetry
Temperature, K	Molar entropy, J/K/mol	uncertainty
448.795	393.440346572	0.8647040584
460	402.1954751633	0.8813329826
480	417.5772300483	0.9062763689
500	432.6762932219	0.9312197552
520	447.5092936083	0.9644776036

System: 9H-xanthen-9-one; phases: Liquid
Fixed: Pressure, kPa = 101.325
Property: Molar enthalpy function {Hm(T)-Hm(0)}/T, J/K/mol (Liquid); method: Vacuum adiabatic calorimetry
Temperature, K	Molar enthalpy function {Hm(T)-Hm(0)}/T, J/K/mol	uncertainty
448.795	224.906199805	0.3741507945
460	228.0740098651	0.3824652566
480	233.63638501	0.3824652566
500	239.0906721476	0.3907797187
520	244.4368712779	0.3990941808
