Measured thermophysical data. Ternary (liquid + liquid) equilibria for the extraction of ethanol, or 2-propanol from aqueous solutions with 1,1'-oxybis(butane) at different temperatures
Source: J. Chem. Thermodyn., 2016, 10.1016/j.jct.2015.11.006
Compound 1: dibutyl ether, C8H18O, InChI=1S/C8H18O/c1-3-5-7-9-8-6-4-2/h3-8H2,1-2H3, purity 99%
Compound 2: water, H2O, InChI=1S/H2O/h1H2
Compound 3: ethanol, C2H6O, InChI=1S/C2H6O/c1-2-3/h3H,2H2,1H3, purity 99.7%
Compound 4: propan-2-ol, C3H8O, InChI=1S/C3H8O/c1-3(2)4/h3-4H,1-2H3, purity 99.7%

System: dibutyl ether; phases: Liquid
Property: Refractive index (Na D-line) (Liquid); method: Standard Abbe refractometry
Temperature, K	Pressure, kPa	Refractive index (Na D-line)	uncertainty
298.15	101.325	1.3963	0.0005

System: water; phases: Liquid
Property: Refractive index (Na D-line) (Liquid); method: Standard Abbe refractometry
Temperature, K	Pressure, kPa	Refractive index (Na D-line)	uncertainty
298.15	101.325	1.3326	0.0005

System: ethanol; phases: Liquid
Property: Refractive index (Na D-line) (Liquid); method: Standard Abbe refractometry
Temperature, K	Pressure, kPa	Refractive index (Na D-line)	uncertainty
298.15	101.325	1.3591	0.0005

System: propan-2-ol; phases: Liquid
Property: Refractive index (Na D-line) (Liquid); method: Standard Abbe refractometry
Temperature, K	Pressure, kPa	Refractive index (Na D-line)	uncertainty
298.15	101.325	1.3756	0.0005

System: dibutyl ether + water; phases: Liquid mixture 1, Liquid mixture 2
Fixed: Pressure, kPa = 100
Property: Mole fraction of water (Liquid mixture 1); method: Chromatography
Temperature, K	Mole fraction of water	uncertainty
293.15	0.9999	0.0001
298.15	0.9999	0.0001
303.15	0.9998	0.0002
308.15	0.9997	0.0003

System: dibutyl ether + water; phases: Liquid mixture 2, Liquid mixture 1
Fixed: Pressure, kPa = 100
Property: Mole fraction of water (Liquid mixture 2); method: Chromatography
Temperature, K	Mole fraction of water	uncertainty
293.15	0.0063	0.0063
298.15	0.0072	0.0072
303.15	0.0099	0.0099
308.15	0.0122	0.01

System: ethanol + dibutyl ether + water; phases: Liquid mixture 2, Liquid mixture 1
Fixed: Pressure, kPa = 100
Property: Mole fraction of water (Liquid mixture 2); method: Chromatography
Property: Mole fraction of water (Liquid mixture 1); method: Chromatography
Property: Mole fraction of ethanol (Liquid mixture 1); method: Chromatography
Temperature, K	Mole fraction of ethanol	Mole fraction of water	uncertainty	Mole fraction of water	uncertainty	Mole fraction of ethanol	uncertainty
298.15	0	0.0072	0.0072	0.9999	0.0001	0	
303.15	0	0.0099	0.0099	0.9998	0.0002	0	
308.15	0	0.0122	0.01	0.9997	0.0003	0	
293.15	0	0.0063	0.0063	0.9999	0.0001	0	
293.15	0.0064	0		0.9822	0.0141	0.0178	
293.15	0.0259	0.0101	0.0101	0.9351	0.0141	0.0649	
293.15	0.054	0.0163	0.0102	0.8917	0.0142	0.1083	
293.15	0.1023	0.025	0.0102	0.8364	0.0142	0.1636	
293.15	0.1522	0.0348	0.0104	0.7814	0.0144	0.2178	
293.15	0.1962	0.052	0.0106	0.7342	0.0147	0.2627	
293.15	0.2364	0.0641	0.0106	0.6982	0.015	0.2959	
293.15	0.2728	0.0796	0.0109	0.6506	0.0151	0.339	
298.15	0.0074	0		0.9827	0.0141	0.0173	
298.15	0.029	0.0122	0.0105	0.9303	0.0142	0.0697	
298.15	0.0599	0.0171	0.0101	0.8911	0.0142	0.1089	
298.15	0.1106	0.0258	0.0102	0.8366	0.0142	0.1634	
298.15	0.1568	0.0385	0.0104	0.7945	0.0144	0.205	
298.15	0.1959	0.0502	0.0105	0.748	0.0146	0.2492	
298.15	0.2386	0.0633	0.0106	0.7087	0.0147	0.2872	
298.15	0.2743	0.0779	0.011	0.6698	0.0152	0.323	
303.15	0.0086	0.0106	0.0106	0.9822	0.0141	0.0178	
303.15	0.0374	0.0161	0.0101	0.9283	0.0142	0.0717	
303.15	0.0743	0.0207	0.0102	0.8794	0.0142	0.1206	
303.15	0.1111	0.0294	0.0102	0.843	0.0142	0.157	
303.15	0.1467	0.037	0.0104	0.8138	0.0142	0.1862	
303.15	0.1744	0.0476	0.0106	0.7772	0.0145	0.2228	
303.15	0.2008	0.0548	0.0104	0.7523	0.0149	0.2456	
303.15	0.2329	0.0639	0.0106	0.7163	0.0148	0.2787	
303.15	0.2615	0.0763	0.0108	0.6783	0.0148	0.3142	
308.15	0.0079	0		0.9824	0.0141	0.0176	
308.15	0.0347	0.0103	0.0103	0.9358	0.0141	0.0642	
308.15	0.0661	0.0171	0.0103	0.8916	0.0142	0.1084	
308.15	0.1186	0.0299	0.0103	0.8424	0.0142	0.1576	
308.15	0.1653	0.0414	0.0105	0.7933	0.0145	0.2067	
308.15	0.2139	0.0608	0.0107	0.743	0.0147	0.2538	
308.15	0.2542	0.0754	0.0107	0.6933	0.0147	0.3003	
308.15	0.2938	0.0906	0.0107	0.6607	0.0146	0.3317	

System: propan-2-ol + dibutyl ether + water; phases: Liquid mixture 1, Liquid mixture 2
Fixed: Pressure, kPa = 100
Property: Mole fraction of propan-2-ol (Liquid mixture 1); method: Chromatography
Property: Mole fraction of propan-2-ol (Liquid mixture 2); method: Chromatography
Property: Mole fraction of water (Liquid mixture 2); method: Chromatography
Temperature, K	Mole fraction of water	Mole fraction of propan-2-ol	uncertainty	Mole fraction of propan-2-ol	uncertainty	Mole fraction of water	uncertainty
298.15	0.9999	0		0		0.0072	
303.15	0.9998	0		0		0.0099	
308.15	0.9997	0		0		0.0122	
293.15	0.9999	0		0		0.0063	
293.15	0.9862	0.0138	0.0138	0.0118	0.01	0	
293.15	0.9585	0.0415	0.0141	0.0533	0.0433	0.0191	
293.15	0.9342	0.0658	0.0141	0.1394	0.0214	0.0394	
293.15	0.9191	0.0809	0.0142	0.2587	0.0162	0.1193	
293.15	0.9005	0.0995	0.0141	0.345	0.0116	0.203	
293.15	0.8872	0.1123	0.0137	0.368	0.0105	0.3139	
293.15	0.8657	0.1318	0.0131	0.3798	0.0104	0.4026	
293.15	0.8385	0.1536	0.0129	0.3514	0.0107	0.5011	
298.15	0.9885	0.0115	0.0115	0.0128	0.01	0	
298.15	0.9647	0.0353	0.0141	0.0605	0.0333	0.0176	
298.15	0.942	0.058	0.0141	0.1471	0.0209	0.0507	
298.15	0.9161	0.0839	0.0142	0.2668	0.0152	0.1237	
298.15	0.8931	0.1069	0.0136	0.3411	0.0115	0.22	
298.15	0.886	0.114	0.0136	0.3741	0.0104	0.3241	
298.15	0.8633	0.1319	0.0129	0.3681	0.0105	0.4226	
298.15	0.8413	0.1501	0.0132	0.3439	0.0106	0.5139	
303.15	0.9888	0.0112	0.0112	0.0147	0.0147	0.0103	
303.15	0.9641	0.0359	0.0141	0.0681	0.0295	0.0231	
303.15	0.9433	0.0567	0.0141	0.161	0.0194	0.0587	
303.15	0.9222	0.0778	0.0142	0.2761	0.0149	0.1402	
303.15	0.9067	0.0933	0.0142	0.351	0.0115	0.2304	
303.15	0.8859	0.1141	0.0134	0.3786	0.0104	0.3322	
303.15	0.8648	0.1305	0.013	0.3684	0.0105	0.4206	
303.15	0.8356	0.1557	0.0133	0.3471	0.0106	0.513	
308.15	0.9893	0.0107	0.0107	0.0181	0.0181	0.014	
308.15	0.965	0.035	0.0141	0.0786	0.0323	0.0237	
308.15	0.9453	0.0547	0.0141	0.1752	0.0191	0.0648	
308.15	0.9246	0.0754	0.0142	0.285	0.0145	0.1473	
308.15	0.9046	0.0954	0.0142	0.3488	0.0113	0.2331	
308.15	0.8842	0.1158	0.0135	0.3736	0.0104	0.332	
308.15	0.8582	0.1375	0.0131	0.3729	0.0104	0.4243	
308.15	0.8362	0.1558	0.0131	0.3466	0.0107	0.5204	
