Measured thermophysical data. Measurement and correlation of (vapor + liquid) equilibria for the {2-propoxyethanol (C3E1) + n-hexane} and the {2-propoxyethanol (C3E1) + n-heptane} systems
Source: J. Chem. Thermodyn., 2009, 10.1016/j.jct.2008.07.024
Compound 1: 2-propoxyethanol, C5H12O2, InChI=1S/C5H12O2/c1-2-4-7-5-3-6/h6H,2-5H2,1H3
Compound 2: hexane, C6H14, InChI=1S/C6H14/c1-3-5-6-4-2/h3-6H2,1-2H3
Compound 3: heptane, C7H16, InChI=1S/C7H16/c1-3-5-7-6-4-2/h3-7H2,1-2H3

System: 2-propoxyethanol; phases: Liquid, Gas
Property: Vapor or sublimation pressure, kPa (Liquid); method: Closed cell (Static) method
Temperature, K	Vapor or sublimation pressure, kPa	uncertainty
303.15	0.45	0.02
313.15	0.87	0.02
313.15	0.89	0.02
323.15	1.59	0.02
323.15	1.61	0.02

System: hexane; phases: Liquid, Gas
Property: Vapor or sublimation pressure, kPa (Liquid); method: Closed cell (Static) method
Temperature, K	Vapor or sublimation pressure, kPa	uncertainty
303.15	25.16	0.05
313.15	37.42	0.07
323.15	54.11	0.1

System: heptane; phases: Liquid, Gas
Property: Vapor or sublimation pressure, kPa (Liquid); method: Closed cell (Static) method
Temperature, K	Vapor or sublimation pressure, kPa	uncertainty
303.15	7.92	0.03
313.15	12.24	0.03
323.15	18.91	0.04

System: hexane + 2-propoxyethanol; phases: Liquid, Gas
Property: Vapor or sublimation pressure, kPa (Liquid); method: Closed cell (Static) method
Temperature, K	Mole fraction of 2-propoxyethanol	Vapor or sublimation pressure, kPa	uncertainty
303.15	0.099	24.94	0.1
303.15	0.141	24.9	0.1
303.15	0.199	24.32	0.1
303.15	0.324	23.51	0.09
303.15	0.398	22.87	0.09
303.15	0.511	22.01	0.09
303.15	0.569	21.27	0.09
303.15	0.684	19.6	0.08
303.15	0.824	14.89	0.06
303.15	0.887	11	0.05
313.15	0.099	36.04	0.13
313.15	0.141	35.95	0.13
313.15	0.199	35.53	0.13
313.15	0.324	34.3	0.13
313.15	0.398	33.65	0.13
313.15	0.511	31.8	0.12
313.15	0.569	30.55	0.12
313.15	0.684	28.3	0.11
313.15	0.824	21.9	0.09
313.15	0.887	16.28	0.07
323.15	0.099	51.62	0.18
323.15	0.141	50.88	0.18
323.15	0.199	49.96	0.18
323.15	0.324	48.99	0.18
323.15	0.398	47.12	0.17
323.15	0.511	44.54	0.16
323.15	0.569	43.56	0.16
323.15	0.684	39.95	0.15
323.15	0.824	30.52	0.12
323.15	0.887	22.61	0.09

System: heptane + 2-propoxyethanol; phases: Liquid, Gas
Property: Vapor or sublimation pressure, kPa (Liquid); method: Closed cell (Static) method
Temperature, K	Mole fraction of 2-propoxyethanol	Vapor or sublimation pressure, kPa	uncertainty
303.15	0.125	7.82	0.04
303.15	0.222	7.61	0.04
303.15	0.37	7.34	0.04
303.15	0.528	7.1	0.04
303.15	0.61	6.85	0.04
303.15	0.684	6.51	0.04
303.15	0.823	5.2	0.04
303.15	0.914	3.51	0.03
303.15	1	0.45	0.02
313.15	0.125	12.13	0.06
313.15	0.222	11.87	0.05
313.15	0.37	11.56	0.05
313.15	0.528	11.06	0.05
313.15	0.61	10.59	0.05
313.15	0.684	10.04	0.05
313.15	0.823	8.04	0.04
313.15	0.914	5.74	0.04
313.15	1	0.89	0.03
323.15	0.125	18.34	0.08
323.15	0.222	17.96	0.07
323.15	0.37	17.43	0.07
323.15	0.528	16.76	0.07
323.15	0.61	16.21	0.07
323.15	0.69	15.28	0.07
323.15	0.825	12.05	0.06
323.15	0.915	8.11	0.04
323.15	1	1.61	0.03
