Measured thermophysical data. Densities and derived thermodynamic properties of (2-methoxyethanol + 1-propanol, or 2-propanol, or 1,2-propandiol) at temperatures from T = (293.15 to 343.15) K
Source: J. Chem. Thermodyn., 2007, 10.1016/j.jct.2006.06.001
Compound 1: 2-methoxyethan-1-ol, C3H8O2, InChI=1S/C3H8O2/c1-5-3-2-4/h4H,2-3H2,1H3, purity 99.5%
Compound 2: propan-1-ol, C3H8O, InChI=1S/C3H8O/c1-2-3-4/h4H,2-3H2,1H3, purity 99.8%
Compound 3: propan-2-ol, C3H8O, InChI=1S/C3H8O/c1-3(2)4/h3-4H,1-2H3, purity 99.5%
Compound 4: 1,2-propanediol, C3H8O2, InChI=1S/C3H8O2/c1-3(5)2-4/h3-5H,2H2,1H3, purity 99.5%

System: 2-methoxyethan-1-ol; phases: Liquid
Fixed: Pressure, kPa = 81.5
Property: Mass density, kg/m3 (Liquid); method: VIBTUB:UFactor:4
Temperature, K	Mass density, kg/m3	uncertainty
293.15	964.86	0.23
303.15	955.68	0.24
313.15	946.38	0.25
323.15	936.95	0.27
333.15	927.38	0.28
343.15	917.64	0.29

System: propan-1-ol; phases: Liquid
Fixed: Pressure, kPa = 81.5
Property: Mass density, kg/m3 (Liquid); method: VIBTUB:UFactor:2
Temperature, K	Mass density, kg/m3	uncertainty
293.15	803.61	0.23
303.15	795.57	0.23
313.15	787.39	0.24
323.15	779.02	0.24
333.15	770.42	0.25
343.15	761.51	0.25

System: propan-2-ol; phases: Liquid
Fixed: Pressure, kPa = 81.5
Property: Mass density, kg/m3 (Liquid); method: VIBTUB:UFactor:4
Temperature, K	Mass density, kg/m3	uncertainty
293.15	785.1	0.49
303.15	776.63	0.5
313.15	767.85	0.52
323.15	758.68	0.53
333.15	749.06	0.54
343.15	738.91	0.56

System: 1,2-propanediol; phases: Liquid
Fixed: Pressure, kPa = 81.5
Property: Mass density, kg/m3 (Liquid); method: VIBTUB:UFactor:4
Temperature, K	Mass density, kg/m3	uncertainty
293.15	1036.3	0.24
303.15	1028.89	0.23
313.15	1021.35	0.22
323.15	1013.68	0.21
333.15	1005.86	0.2
343.15	997.86	0.19

System: propan-1-ol + 2-methoxyethan-1-ol; phases: Liquid
Fixed: Pressure, kPa = 81.5
Property: Mass density, kg/m3 (Liquid); method: VIBTUB:UFactor:4
Temperature, K	Mole fraction of 2-methoxyethan-1-ol	Mass density, kg/m3	uncertainty
293.15	0.0845	817.73	0.42
293.15	0.1559	829.58	0.4
293.15	0.2391	843.36	0.38
293.15	0.3146	855.77	0.36
293.15	0.4015	869.91	0.34
293.15	0.479	882.45	0.33
293.15	0.5597	895.42	0.31
293.15	0.6365	907.69	0.29
293.15	0.7183	920.73	0.28
293.15	0.7939	932.73	0.26
293.15	0.8775	945.88	0.25
293.15	0.9553	957.99	0.24
303.15	0.0845	809.55	0.43
303.15	0.1559	821.29	0.41
303.15	0.2391	834.94	0.39
303.15	0.3146	847.26	0.38
303.15	0.4015	861.29	0.36
303.15	0.479	873.74	0.34
303.15	0.5597	886.62	0.32
303.15	0.6365	898.82	0.31
303.15	0.7183	911.78	0.29
303.15	0.7939	923.71	0.28
303.15	0.8775	936.8	0.26
303.15	0.9553	948.84	0.25
313.15	0.0845	801.23	0.44
313.15	0.1559	812.86	0.42
313.15	0.2391	826.39	0.41
313.15	0.3146	838.61	0.39
313.15	0.4015	852.53	0.37
313.15	0.479	864.89	0.35
313.15	0.5597	877.69	0.34
313.15	0.6365	889.81	0.32
313.15	0.7183	902.7	0.3
313.15	0.7939	914.56	0.29
313.15	0.8775	927.59	0.27
313.15	0.9553	939.57	0.26
323.15	0.0845	792.73	0.45
323.15	0.1559	804.25	0.44
323.15	0.2391	817.66	0.42
323.15	0.3146	829.78	0.4
323.15	0.4015	843.61	0.38
323.15	0.479	855.88	0.37
323.15	0.5597	868.6	0.4
323.15	0.6365	880.65	0.33
323.15	0.7183	893.47	0.32
323.15	0.7939	905.28	0.3
323.15	0.8775	918.24	0.29
323.15	0.9553	930.18	0.27
333.15	0.0845	783.99	0.47
333.15	0.1559	795.42	0.45
333.15	0.2391	808.72	0.43
333.15	0.3146	820.75	0.42
333.15	0.4015	834.47	0.4
333.15	0.479	846.68	0.38
333.15	0.5597	859.32	0.36
333.15	0.6365	871.31	0.35
333.15	0.7183	884.08	0.33
333.15	0.7939	895.83	0.32
333.15	0.8775	908.74	0.3
333.15	0.9553	920.63	0.29
343.15	0.0845	774.97	0.48
343.15	0.1559	786.31	0.47
343.15	0.2391	799.51	0.45
343.15	0.3146	811.47	0.43
343.15	0.4015	825.11	0.41
343.15	0.479	837.25	0.4
343.15	0.5597	849.83	0.38
343.15	0.6365	861.76	0.36
343.15	0.7183	874.48	0.35
343.15	0.7939	886.17	0.33
343.15	0.8775	899.05	0.32
343.15	0.9553	910.9	0.3

System: propan-2-ol + 2-methoxyethan-1-ol; phases: Liquid
Fixed: Pressure, kPa = 81.5
Property: Mass density, kg/m3 (Liquid); method: VIBTUB:UFactor:4
Temperature, K	Mole fraction of 2-methoxyethan-1-ol	Mass density, kg/m3	uncertainty
293.15	0.0823	800.06	0.47
293.15	0.1565	813.56	0.45
293.15	0.2367	828.13	0.43
293.15	0.3166	842.63	0.4
293.15	0.4015	858.01	0.38
293.15	0.4766	871.62	0.36
293.15	0.5605	886.76	0.34
293.15	0.6403	901.1	0.32
293.15	0.7179	914.98	0.3
293.15	0.7925	928.26	0.28
293.15	0.8593	940.12	0.26
293.15	0.9585	957.65	0.24
303.15	0.0823	791.49	0.48
303.15	0.1565	804.91	0.46
303.15	0.2367	819.4	0.44
303.15	0.3166	833.83	0.42
303.15	0.4015	849.14	0.4
303.15	0.4766	862.69	0.38
303.15	0.5605	877.79	0.35
303.15	0.6403	892.08	0.33
303.15	0.7179	905.92	0.31
303.15	0.7925	919.16	0.29
303.15	0.8593	931	0.27
303.15	0.9585	948.49	0.25
313.15	0.0823	782.64	0.49
313.15	0.1565	796	0.47
313.15	0.2367	810.43	0.45
313.15	0.3166	824.81	0.43
313.15	0.4015	840.08	0.41
313.15	0.4766	853.59	0.39
313.15	0.5605	868.64	0.37
313.15	0.6403	882.9	0.35
313.15	0.7179	896.72	0.33
313.15	0.7925	909.94	0.31
313.15	0.8593	921.74	0.29
313.15	0.9585	939.2	0.26
323.15	0.0823	773.45	0.51
323.15	0.1565	786.79	0.49
323.15	0.2367	801.18	0.47
323.15	0.3166	815.54	0.45
323.15	0.4015	830.78	0.42
323.15	0.4766	844.26	0.4
323.15	0.5605	859.3	0.38
323.15	0.6403	873.54	0.36
323.15	0.7179	887.34	0.34
323.15	0.7925	900.55	0.32
323.15	0.8593	912.34	0.3
323.15	0.9585	929.78	0.28
333.15	0.0823	763.86	0.52
333.15	0.1565	777.21	0.5
333.15	0.2367	791.6	0.48
333.15	0.3166	805.96	0.46
333.15	0.4015	821.21	0.44
333.15	0.4766	834.69	0.42
333.15	0.5605	849.72	0.39
333.15	0.6403	863.96	0.37
333.15	0.7179	877.76	0.35
333.15	0.7925	890.96	0.33
333.15	0.8593	902.77	0.32
333.15	0.9585	920.21	0.29
343.15	0.0823	753.79	0.54
343.15	0.1565	767.2	0.52
343.15	0.2367	781.64	0.5
343.15	0.3166	796.02	0.47
343.15	0.4015	811.31	0.45
343.15	0.4766	824.82	0.43
343.15	0.5605	839.87	0.41
343.15	0.6403	854.14	0.39
343.15	0.7179	867.96	0.37
343.15	0.7925	881.18	0.35
343.15	0.8593	892.99	0.33
343.15	0.9585	910.45	0.31

System: 1,2-propanediol + 2-methoxyethan-1-ol; phases: Liquid
Fixed: Pressure, kPa = 81.5
Property: Mass density, kg/m3 (Liquid); method: VIBTUB:UFactor:4
Temperature, K	Mole fraction of 2-methoxyethan-1-ol	Mass density, kg/m3	uncertainty
293.15	0.0745	1030.87	0.23
293.15	0.1669	1024.12	0.22
293.15	0.2365	1019.06	0.21
293.15	0.3194	1013.05	0.2
293.15	0.3946	1007.6	0.2
293.15	0.4791	1001.49	0.19
293.15	0.5625	995.51	0.19
293.15	0.6331	990.47	0.2
293.15	0.7266	983.82	0.21
293.15	0.8081	978.11	0.21
293.15	0.8752	973.43	0.22
293.15	0.9658	967.23	0.23
303.15	0.0745	1023.34	0.22
303.15	0.1669	1016.42	0.21
303.15	0.2365	1011.22	0.2
303.15	0.3194	1005.07	0.19
303.15	0.3946	999.48	0.19
303.15	0.4791	993.22	0.2
303.15	0.5625	987.1	0.2
303.15	0.6331	981.94	0.21
303.15	0.7266	975.12	0.22
303.15	0.8081	969.27	0.22
303.15	0.8752	964.47	0.23
303.15	0.9658	958.12	0.24
313.15	0.0745	1015.67	0.21
313.15	0.1669	1008.59	0.2
313.15	0.2365	1003.26	0.19
313.15	0.3194	996.96	0.19
313.15	0.3946	991.25	0.2
313.15	0.4791	984.85	0.2
313.15	0.5625	978.58	0.21
313.15	0.6331	973.3	0.22
313.15	0.7266	966.32	0.23
313.15	0.8081	960.32	0.23
313.15	0.8752	955.4	0.24
313.15	0.9658	948.88	0.25
323.15	0.0745	1007.87	0.2
323.15	0.1669	1000.6	0.19
323.15	0.2365	995.17	0.19
323.15	0.3194	988.73	0.2
323.15	0.3946	982.88	0.21
323.15	0.4791	976.34	0.21
323.15	0.5625	969.93	0.22
323.15	0.6331	964.53	0.23
323.15	0.7266	957.38	0.24
323.15	0.8081	951.24	0.25
323.15	0.8752	946.21	0.25
323.15	0.9658	939.52	0.26
333.15	0.0745	999.89	0.19
333.15	0.1669	992.48	0.2
333.15	0.2365	986.94	0.2
333.15	0.3194	980.35	0.21
333.15	0.3946	974.38	0.22
333.15	0.4791	967.7	0.23
333.15	0.5625	961.14	0.23
333.15	0.6331	955.63	0.24
333.15	0.7266	948.31	0.25
333.15	0.8081	942.02	0.26
333.15	0.8752	936.87	0.27
333.15	0.9658	930.01	0.28
343.15	0.0745	991.75	0.2
343.15	0.1669	984.19	0.21
343.15	0.2365	978.54	0.21
343.15	0.3194	971.81	0.22
343.15	0.3946	965.73	0.23
343.15	0.4791	958.9	0.24
343.15	0.5625	952.2	0.24
343.15	0.6331	946.55	0.25
343.15	0.7266	939.08	0.26
343.15	0.8081	932.64	0.27
343.15	0.8752	927.36	0.28
343.15	0.9658	920.33	0.29
