Measured thermophysical data. A calorimetric and thermodynamic investigation of zinc and cadmium hydrous selenites
Source: J. Chem. Thermodyn., 2017, 10.1016/j.jct.2017.07.020
Compound 1: zinc, Zn, InChI=1S/Zn
Compound 2: selenium, Se, InChI=1S/Se
Compound 3: hydrogen, H2, InChI=1S/H2/h1H
Compound 4: oxygen, O2, InChI=1S/O2/c1-2
Compound 5: cadmium, Cd, InChI=1S/Cd
Compound 6: zinc selenite dihydrate, H4O5SeZn, InChI=1S/H2O3Se.2H2O.Zn/c1-4(2)3;;;/h(H2,1,2,3);2*1H2;/q;;;+2/p-2, purity 96%
Compound 7: zinc selenite monohydrate, H2O4SeZn, InChI=1S/H2O3Se.H2O.Zn/c1-4(2)3;;/h(H2,1,2,3);1H2;/q;;+2/p-2, purity 96%
Compound 8: cadmium selenite monohydrate, CdH2O4Se, InChI=1S/Cd.H2O3Se.H2O/c;1-4(2)3;/h;(H2,1,2,3);1H2/q+2;;/p-2, purity 96%

System: zinc selenite dihydrate; phases: Crystal
Property: Mass density, kg/m3 (Crystal); method: X-ray diffraction
Temperature, K	Pressure, kPa	Mass density, kg/m3	uncertainty
298	101.325	3505	43

System: zinc selenite dihydrate; phases: Crystal
Fixed: Pressure, kPa = 101.325
Property: Molar heat capacity at constant pressure, J/K/mol (Crystal); method: Small (less than 1 g) adiabatic calorimetry
Temperature, K	Molar heat capacity at constant pressure, J/K/mol	uncertainty
20	3.56	0.09
40	18.65	0.19
60	38.05	0.25
80	57.81	0.31
100	74.17	0.39
120	88.13	0.43
140	100.6	0.5
160	111.9	0.5
180	122.4	0.6
200	132	0.6
220	141	0.6
240	149.3	0.6
260	157.2	0.7
273.15	162.1	0.7
280	164.7	0.7
298.15	171.2	0.7
300	171.9	0.7
320	178.9	0.7

System: zinc selenite dihydrate; phases: Crystal
Fixed: Pressure, kPa = 101.325
Property: Molar enthalpy, kJ/mol (Crystal); method: Small (less than 1 g) adiabatic calorimetry
Temperature, K	Molar enthalpy, kJ/mol	uncertainty
20	0.0178	0.0011
40	0.226	0.004
60	0.791	0.009
80	1.755	0.014
100	3.08	0.026
120	4.706	0.034
140	6.595	0.043
160	8.722	0.053
180	11.07	0.06
200	13.61	0.07
220	16.34	0.09
240	19.25	0.1
260	22.31	0.11
273.15	24.41	0.12
280	25.53	0.13
298.15	28.58	0.14
300	28.9	0.14
320	32.4	0.16

System: zinc selenite dihydrate; phases: Crystal
Fixed: Pressure, kPa = 101.325
Property: Molar entropy, J/K/mol (Crystal); method: Small (less than 1 g) adiabatic calorimetry
Temperature, K	Molar entropy, J/K/mol	uncertainty
20	1.197	0.052
40	7.821	0.168
60	19	0.24
80	32.73	0.31
100	47.44	0.46
120	62.23	0.53
140	76.76	0.6
160	90.95	0.67
180	104.7	0.7
200	118.1	0.8
220	131.1	0.9
240	143.8	1
260	156	1
273.15	163.9	1.1
280	168	1.1
298.15	178.5	1.1
300	179.6	1.1
320	190.9	1.2

System: zinc selenite dihydrate; phases: Crystal
Fixed: Pressure, kPa = 100
Property: Molar heat capacity at constant pressure, J/K/mol (Crystal); method: Small (less than 1 g) adiabatic calorimetry
Temperature, K	Molar heat capacity at constant pressure, J/K/mol	uncertainty
5.1	0.068	0.017
5.5	0.081	0.017
5.7	0.09	0.017
5.9	0.101	0.017
6.1	0.11	0.017
6.3	0.119	0.018
6.5	0.126	0.018
6.7	0.134	0.018
6.9	0.141	0.018
7.1	0.151	0.018
7.3	0.162	0.018
7.5	0.173	0.019
7.7	0.185	0.019
7.9	0.197	0.02
8	0.209	0.02
8.2	0.224	0.02
8.5	0.242	0.021
8.6	0.258	0.021
8.8	0.279	0.022
9	0.302	0.022
9.2	0.33	0.023
9.5	0.358	0.024
9.7	0.383	0.025
9.9	0.409	0.025
10.1	0.441	0.026
10.4	0.489	0.028
10.7	0.553	0.03
11.1	0.623	0.032
11.5	0.714	0.033
11.9	0.797	0.035
12.3	0.881	0.036
12.7	0.96	0.037
13.1	1.047	0.039
13.5	1.115	0.04
13.9	1.207	0.042
14.3	1.293	0.045
14.7	1.384	0.048
15.1	1.504	0.042
15.5	1.627	0.044
15.9	1.762	0.048
16.4	1.922	0.051
16.8	2.08	0.054
17.2	2.234	0.058
17.6	2.397	0.059
18	2.584	0.06
18.4	2.778	0.062
18.8	2.962	0.064
19.3	3.168	0.066
19.7	3.377	0.07
20.1	3.596	0.073
20.8	3.987	0.074
21.9	4.542	0.078
22.9	5.14	0.083
24	5.764	0.088
25	6.426	0.095
26.1	7.166	0.101
27.2	7.976	0.106
28.3	8.771	0.11
29.4	9.614	0.116
30.5	10.51	0.15
31.7	11.51	0.15
32.8	12.46	0.16
33.7	13.26	0.16
34.9	14.27	0.16
36	15.19	0.17
37.2	16.13	0.17
38.3	17.15	0.18
39.5	18.22	0.18
40.7	19.23	0.18
41.8	20.32	0.18
43	21.41	0.18
44.2	22.46	0.19
45.4	23.78	0.2
46.6	24.94	0.2
47.8	26.15	0.2
49	27.34	0.21
50.2	28.47	0.21
51.4	29.41	0.21
52.6	30.63	0.22
53.8	31.93	0.23
55	33.11	0.23
56.2	34.19	0.23
57.4	35.43	0.24
58.8	36.9	0.24
60	38.02	0.25
61.2	39.29	0.25
62.4	40.55	0.26
63.6	41.78	0.26
64.8	43.06	0.26
66.1	44.28	0.27
67.3	45.48	0.27
68.5	46.59	0.27
69.7	47.76	0.28
71.4	49.65	0.29
73.4	51.62	0.3
75.4	53.79	0.3
77.4	55.73	0.31
78.7	57.02	0.31
80.9	58.83	0.32
82.9	60.51	0.32
84.9	62.2	0.33
86.9	63.8	0.33
88.9	65.41	0.34
90.9	66.99	0.37
92.9	68.62	0.38
94.9	70.22	0.38
96.9	71.68	0.38
98.9	73.22	0.39
100.9	74.73	0.39
103.3	76.65	0.4
106.3	78.71	0.4
109.3	80.83	0.41
112.3	82.89	0.42
115.3	84.97	0.42
118.3	86.96	0.43
121.3	88.97	0.44
124.4	90.94	0.44
127.4	92.86	0.45
130.4	94.79	0.46
133.4	96.67	0.46
136.4	98.51	0.47
139.4	100.3	0.5
142.5	102.1	0.5
145.5	103.9	0.5
148.5	105.6	0.5
151.6	107.3	0.5
154.6	109	0.5
157.6	110.7	0.5
160.7	112.3	0.5
163.7	114	0.5
166.8	115.6	0.5
169.8	117.2	0.5
172.9	118.7	0.5
175.9	120.2	0.5
178.9	121.8	0.5
182	123.4	0.6
185	124.9	0.6
188.1	126.3	0.6
191.1	127.8	0.6
194.2	129.2	0.6
197.2	130.7	0.6
200.3	132	0.6
203.3	133.5	0.6
206.9	135.2	0.6
210.9	136.9	0.6
215.1	138.8	0.6
219.1	140.4	0.6
223.2	142.2	0.6
227.2	144	0.6
231.3	145.8	0.6
235.4	147.3	0.6
239.4	149.1	0.6
243.5	150.8	0.6
247.5	152.3	0.7
251.6	154	0.7
255.6	155.7	0.7
259.7	157.2	0.7
263.8	158.7	0.7
267.8	160.2	0.7
271.9	161.8	0.7
275.9	163.2	0.7
280	164.9	0.7
284	166.1	0.7
288	167.5	0.7
292.1	168.9	0.7
296.1	170.3	0.7
300.1	171.6	0.7
304.8	173.7	0.7
310.7	175.5	0.7
317.4	177.8	0.7
323.9	180.7	0.7

System: zinc selenite monohydrate; phases: Crystal
Property: Mass density, kg/m3 (Crystal); method: X-ray diffraction
Temperature, K	Pressure, kPa	Mass density, kg/m3	uncertainty
298	101.325	3883	52

System: zinc selenite monohydrate; phases: Crystal
Fixed: Pressure, kPa = 101.325
Property: Molar heat capacity at constant pressure, J/K/mol (Crystal); method: Small (less than 1 g) adiabatic calorimetry
Temperature, K	Molar heat capacity at constant pressure, J/K/mol	uncertainty
20	3.521	0.081
40	16.52	0.17
60	32.96	0.22
80	49.03	0.28
100	62.64	0.35
120	74.29	0.39
140	84.49	0.42
160	93.54	0.45
180	101.6	0.5
200	108.9	0.5
220	115.5	0.5
240	121.5	0.5
260	127.1	0.6
273.15	130.5	0.6
280	132.2	0.6
298.15	136.7	0.6
300	137.1	0.6
320	141.8	0.6

System: zinc selenite monohydrate; phases: Crystal
Fixed: Pressure, kPa = 101.325
Property: Molar enthalpy, kJ/mol (Crystal); method: Small (less than 1 g) adiabatic calorimetry
Temperature, K	Molar enthalpy, kJ/mol	uncertainty
20	0.0194	0.0011
40	0.217	0.004
60	0.71	0.008
80	1.534	0.015
100	2.655	0.027
120	4.027	0.037
140	5.617	0.048
160	7.399	0.06
180	9.352	0.074
200	11.46	0.09
220	13.7	0.1
240	16.07	0.12
260	18.56	0.14
273.15	20.25	0.15
280	21.15	0.15
298.15	23.59	0.17
300	23.85	0.17
320	26.64	0.19

System: zinc selenite monohydrate; phases: Crystal
Fixed: Pressure, kPa = 101.325
Property: Molar entropy, J/K/mol (Crystal); method: Small (less than 1 g) adiabatic calorimetry
Temperature, K	Molar entropy, J/K/mol	uncertainty
20	1.42	0.053
40	7.744	0.166
60	17.52	0.25
80	29.26	0.36
100	41.7	0.52
120	54.18	0.63
140	66.41	0.74
160	78.3	0.85
180	89.79	0.95
200	100.9	1.1
220	111.6	1.2
240	121.9	1.2
260	131.8	1.3
273.15	138.2	1.4
280	141.4	1.4
298.15	149.9	1.5
300	150.7	1.5
320	159.7	1.6

System: zinc selenite monohydrate; phases: Crystal
Fixed: Pressure, kPa = 100
Property: Molar heat capacity at constant pressure, J/K/mol (Crystal); method: Small (less than 1 g) adiabatic calorimetry
Temperature, K	Molar heat capacity at constant pressure, J/K/mol	uncertainty
5.3	0.19	0.019
5.6	0.21	0.02
5.8	0.225	0.02
6	0.238	0.02
6.2	0.251	0.02
6.4	0.267	0.02
6.6	0.281	0.021
6.8	0.295	0.021
7	0.309	0.021
7.2	0.324	0.021
7.4	0.337	0.022
7.6	0.355	0.022
7.8	0.372	0.022
8	0.395	0.023
8.2	0.411	0.023
8.4	0.434	0.023
8.6	0.454	0.024
8.8	0.468	0.024
9	0.491	0.024
9.2	0.506	0.025
9.4	0.534	0.026
9.6	0.555	0.027
9.8	0.576	0.027
10	0.602	0.028
10.3	0.647	0.029
10.6	0.71	0.03
11	0.773	0.032
11.4	0.832	0.033
11.8	0.878	0.033
12.2	0.945	0.035
12.6	1.014	0.037
13	1.08	0.038
13.4	1.156	0.04
13.8	1.257	0.043
14.2	1.336	0.046
14.6	1.431	0.048
15	1.55	0.041
15.4	1.667	0.043
15.9	1.797	0.047
16.3	1.922	0.049
16.7	2.059	0.052
17.1	2.216	0.055
17.5	2.385	0.058
17.9	2.533	0.06
18.3	2.75	0.061
18.7	2.941	0.063
19.2	3.131	0.064
19.6	3.323	0.068
20	3.515	0.072
20.7	3.937	0.072
21.8	4.434	0.076
22.8	5.05	0.085
25	6.402	0.097
26.3	7.534	0.108
27.4	8.25	0.102
28.5	8.954	0.105
29.6	9.693	0.107
30.8	10.44	0.14
31.9	11.16	0.14
33	11.89	0.14
34.2	12.57	0.15
35.3	13.37	0.15
36.5	14.14	0.15
37.6	14.86	0.16
38.8	15.69	0.17
39.9	16.57	0.17
41.1	17.42	0.16
42.3	18.21	0.16
43.5	19.15	0.17
44.7	20.19	0.18
45.8	21.22	0.18
47	22.33	0.19
48.2	23.3	0.19
49.4	24.29	0.19
50.6	25.25	0.19
51.8	26.19	0.19
53	27.06	0.2
54.1	28.07	0.21
55.6	29.3	0.21
56.8	30.18	0.21
58	31.01	0.21
59.2	32.06	0.22
60.4	33.02	0.22
61.6	34.14	0.23
62.9	35.32	0.23
64.1	36.49	0.24
65.3	37.5	0.24
66.5	38.57	0.24
67.8	39.59	0.24
69	40.59	0.25
70.2	41.61	0.25
71.8	42.83	0.26
73.8	44.39	0.26
75.9	46.06	0.27
77.8	47.59	0.27
79	48.4	0.27
81.4	50.21	0.28
83.4	51.65	0.29
85.4	53.01	0.29
87.4	54.32	0.29
89.4	55.54	0.3
91.4	56.93	0.34
93.4	58.25	0.34
95.4	59.58	0.35
97.4	60.77	0.35
99.4	61.96	0.35
101.8	63.84	0.36
104.8	65.67	0.36
107.8	67.43	0.37
110.8	69.21	0.37
113.8	70.93	0.38
116.8	72.26	0.38
119.8	74.01	0.39
122.8	75.62	0.39
125.8	77.25	0.4
128.9	78.9	0.4
131.9	80.47	0.41
134.9	81.98	0.41
137.9	83.54	0.42
141	84.98	0.42
144	86.43	0.43
147	87.9	0.43
150.1	89.27	0.43
153.1	90.66	0.44
156.2	92.06	0.44
159.2	93.31	0.45
162.3	94.65	0.45
165.4	96.11	0.46
168.4	97.14	0.46
171.5	98.5	0.47
174.6	99.6	0.47
177.6	100.8	0.5
180.7	102	0.5
183.8	103.1	0.5
186.8	104.2	0.5
189.9	105.3	0.5
193	106.3	0.5
196	107.5	0.5
199.1	108.5	0.5
202.2	109.5	0.5
205.2	110.4	0.5
208.8	111.7	0.5
212.9	112.9	0.5
217.1	114.5	0.5
221.2	115.7	0.5
225.3	117.1	0.5
229.4	118.6	0.5
233.4	119.7	0.5
237.5	120.9	0.5
241.6	122	0.5
245.7	123.1	0.6
249.8	124.2	0.6
253.9	125.4	0.6
258	126.5	0.6
262.1	127.7	0.6
266.2	128.7	0.6
270.3	129.8	0.6
274.4	130.9	0.6
278.5	131.7	0.6
282.6	133.2	0.6
286.7	133.7	0.6
290.8	134.8	0.6
294.8	135.8	0.6
298.9	136.8	0.6
303.7	138.3	0.6
309.7	139.7	0.6
316.4	141	0.6
323.1	142.2	0.6

System: cadmium selenite monohydrate; phases: Crystal
Property: Mass density, kg/m3 (Crystal); method: X-ray diffraction
Temperature, K	Pressure, kPa	Mass density, kg/m3	uncertainty
298	101.325	4329	64

System: cadmium selenite monohydrate; phases: Crystal
Fixed: Pressure, kPa = 101.325
Property: Molar heat capacity at constant pressure, J/K/mol (Crystal); method: Small (less than 1 g) adiabatic calorimetry
Temperature, K	Molar heat capacity at constant pressure, J/K/mol	uncertainty
20	7.091	0.124
40	25.85	0.2
60	43.13	0.32
80	57.97	0.41
100	70.36	0.49
120	81.13	0.55
140	90.69	0.61
160	99.3	0.65
180	107.2	0.7
200	114.4	0.7
220	121.1	0.8
240	127.3	0.8
260	133	0.8
273.15	136.5	0.9
280	138.2	0.9
298.15	142.5	0.9
300	142.9	0.9
320	147	0.9

System: cadmium selenite monohydrate; phases: Crystal
Fixed: Pressure, kPa = 101.325
Property: Molar enthalpy, kJ/mol (Crystal); method: Small (less than 1 g) adiabatic calorimetry
Temperature, K	Molar enthalpy, kJ/mol	uncertainty
20	0.0404	0.0018
40	0.366	0.005
60	1.056	0.011
80	2.073	0.018
100	3.359	0.031
120	4.876	0.042
140	6.596	0.054
160	8.497	0.067
180	10.56	0.08
200	12.78	0.1
220	15.14	0.11
240	17.62	0.13
260	20.22	0.15
273.15	22	0.16
280	22.94	0.16
298.15	25.48	0.18
300	25.75	0.18
320	28.65	0.2

System: cadmium selenite monohydrate; phases: Crystal
Fixed: Pressure, kPa = 101.325
Property: Molar entropy, J/K/mol (Crystal); method: Small (less than 1 g) adiabatic calorimetry
Temperature, K	Molar entropy, J/K/mol	uncertainty
20	2.884	0.083
40	13.43	0.2
60	27.17	0.34
80	41.69	0.48
100	55.99	0.65
120	69.8	0.77
140	83.03	0.89
160	95.71	1
180	107.9	1.1
200	119.5	1.2
220	130.8	1.3
240	141.6	1.4
260	152	1.5
273.15	158.6	1.6
280	162	1.6
298.15	170.8	1.7
300	171.7	1.7
320	181.1	1.8

System: cadmium selenite monohydrate; phases: Crystal
Fixed: Pressure, kPa = 100
Property: Molar heat capacity at constant pressure, J/K/mol (Crystal); method: Small (less than 1 g) adiabatic calorimetry
Temperature, K	Molar heat capacity at constant pressure, J/K/mol	uncertainty
5.8	0.371	0.027
6.2	0.443	0.028
6.4	0.47	0.028
6.6	0.503	0.029
6.8	0.54	0.029
7	0.574	0.03
7.2	0.616	0.031
7.4	0.652	0.031
7.6	0.685	0.032
7.8	0.723	0.033
8	0.757	0.034
8.2	0.807	0.035
8.4	0.834	0.036
8.6	0.879	0.037
8.8	0.934	0.039
9	0.977	0.041
9.2	1.021	0.042
9.4	1.071	0.043
9.6	1.132	0.045
9.8	1.201	0.046
10	1.255	0.049
10.3	1.345	0.053
10.7	1.452	0.055
11	1.604	0.059
11.4	1.76	0.062
11.8	1.901	0.067
12.2	2.088	0.07
12.6	2.236	0.073
13	2.439	0.077
13.4	2.622	0.08
13.8	2.788	0.083
14.2	2.974	0.086
14.7	3.149	0.093
15.1	3.349	0.076
15.5	3.604	0.085
15.9	3.861	0.086
16.3	4.143	0.09
16.7	4.452	0.093
17.1	4.71	0.098
17.5	4.987	0.099
18	5.426	0.105
18.4	5.709	0.11
18.8	6.077	0.112
19.2	6.375	0.113
19.6	6.739	0.118
20	7.097	0.119
20.8	7.8	0.124
21.8	8.681	0.124
22.9	9.512	0.131
23.9	10.48	0.14
25	11.43	0.14
26.1	12.38	0.15
27.1	13.44	0.16
28.2	14.5	0.16
29.3	15.59	0.16
30.5	16.65	0.18
31.6	17.7	0.19
32.7	18.81	0.19
33.8	19.82	0.2
35.5	21.49	0.21
37	22.99	0.22
38.1	24.32	0.22
39.3	25.4	0.22
40.4	26.21	0.2
41.6	27.34	0.2
42.8	28.24	0.2
44	29.22	0.21
45.2	30.35	0.22
46.3	31.39	0.22
47.5	32.5	0.22
49.1	33.69	0.22
50.6	35.08	0.23
51.8	35.94	0.23
53	36.92	0.24
54.2	38.03	0.24
55.4	38.94	0.25
56.6	40.22	0.25
57.8	41.13	0.25
59	42.28	0.26
60.2	43.23	0.26
61.5	44.19	0.26
62.7	45.27	0.27
63.9	46.13	0.27
65.1	47.04	0.27
66.3	48.23	0.28
67.6	49.25	0.28
68.4	49.87	0.28
69.7	50.94	0.28
71.3	51.97	0.29
73.3	53.24	0.29
75.3	54.94	0.3
77.3	56.33	0.3
78.8	57.44	0.31
79.4	57.82	0.31
81.3	59.07	0.31
83.3	60.26	0.32
85.3	61.39	0.32
87.3	62.53	0.33
89.3	63.93	0.33
91.3	65.05	0.36
93.3	66.33	0.37
95.3	67.41	0.37
97.3	68.47	0.37
99.3	69.63	0.38
101.8	71.47	0.38
104.7	73.12	0.39
107.7	74.77	0.39
110.7	76.34	0.4
113.7	77.97	0.4
116.7	79.68	0.41
119.7	81.09	0.41
122.7	82.07	0.41
125.8	83.77	0.42
128.8	85.26	0.42
131.8	86.83	0.43
134.8	88.28	0.43
137.9	89.73	0.44
140.9	91.07	0.44
143.9	92.45	0.45
147	93.86	0.45
150	95.27	0.46
153.1	96.56	0.46
156.1	97.82	0.46
159.1	99.11	0.47
162.2	100.3	0.5
165.3	101.7	0.5
168.3	102.7	0.5
171.4	104.1	0.5
174.5	105.3	0.5
177.5	106.3	0.5
180.6	107.3	0.5
183.7	108.5	0.5
186.7	109.8	0.5
189.8	110.8	0.5
192.9	112	0.5
195.9	113	0.5
199	113.8	0.5
202.1	114.7	0.5
205.2	116	0.5
208.7	117.2	0.5
212.8	118.4	0.5
217	120	0.5
221.1	121.1	0.5
225.2	122.5	0.5
229.3	123.9	0.6
233.4	125.3	0.6
237.5	126.9	0.6
241.6	128	0.6
245.6	129	0.6
249.7	130.3	0.6
253.8	131.4	0.6
257.9	132.6	0.6
262	133.6	0.6
266.1	134.7	0.6
270.2	135.9	0.6
274.3	137	0.6
278.3	137.5	0.6
282.5	138.9	0.6
286.5	139.5	0.6
290.6	140.3	0.6
294.6	141.7	0.6
298.7	142.6	0.6
303.4	143.6	0.6
309.4	145	0.6
316.1	146.3	0.6
322.7	147.5	0.6

Reaction: 1 zinc selenite dihydrate + -1 zinc + -1 selenium + -2 hydrogen + -2.5 oxygen
Property: Molar enthalpy of reaction, kJ/mol
-1238

Reaction: 1 zinc selenite monohydrate + -1 zinc + -1 selenium + -1 hydrogen + -2 oxygen
Property: Molar enthalpy of reaction, kJ/mol
-931

Reaction: 1 cadmium selenite monohydrate + -1 cadmium + -1 selenium + -1 hydrogen + -2 oxygen
Property: Molar enthalpy of reaction, kJ/mol
-906
