Measured thermophysical data. High pressure liquid densities and excess volumes of the (di-isopropyl ether + 1-hexanol) system
Source: J. Chem. Thermodyn., 2017, 10.1016/j.jct.2017.06.013
Compound 1: diisopropyl ether, C6H14O, InChI=1S/C6H14O/c1-5(2)7-6(3)4/h5-6H,1-4H3, purity 99.5%
Compound 2: hexan-1-ol, C6H14O, InChI=1S/C6H14O/c1-2-3-4-5-6-7/h7H,2-6H2,1H3, purity 99.5%

System: diisopropyl ether + hexan-1-ol; phases: Liquid
Property: Mass density, kg/m3 (Liquid); method: Vibrating tube method
Mole fraction of diisopropyl ether	Temperature, K	Pressure, kPa	Mass density, kg/m3	uncertainty
0.1524	293.15	100	806.7	0.7
0.1524	293.15	500	806.9	0.7
0.1524	293.15	1000	807.2	0.7
0.1524	293.15	2000	807.9	0.7
0.1524	293.15	5000	810	0.7
0.1524	293.15	10000	813.4	0.7
0.1524	293.15	15000	816.6	0.7
0.1524	293.15	20000	819.7	0.7
0.1524	293.15	30000	825.7	0.8
0.1524	293.15	40000	831.2	0.8
0.1524	293.15	50000	836.3	0.8
0.1524	293.15	60000	841.3	0.8
0.1524	293.15	70000	846.1	0.9
0.1524	293.15	80000	850.4	0.9
0.1524	293.15	90000	854.7	0.9
0.1524	293.15	100000	858.8	0.9
0.1524	293.15	110000	862.7	1
0.1524	293.15	120000	866.5	1
0.1524	293.15	130000	870.3	1
0.1524	293.15	140000	873.7	1
0.1524	313.15	100	791.5	0.7
0.1524	313.15	500	791.8	0.7
0.1524	313.15	1000	792.2	0.7
0.1524	313.15	2000	793	0.7
0.1524	313.15	5000	795.3	0.7
0.1524	313.15	10000	799	0.7
0.1524	313.15	15000	802.6	0.7
0.1524	313.15	20000	806	0.8
0.1524	313.15	30000	812.4	0.8
0.1524	313.15	40000	818.5	0.8
0.1524	313.15	50000	823.9	0.8
0.1524	313.15	60000	829.3	0.9
0.1524	313.15	70000	834.3	0.9
0.1524	313.15	80000	839	0.9
0.1524	313.15	90000	843.4	0.9
0.1524	313.15	100000	847.8	1
0.1524	313.15	110000	852	1
0.1524	313.15	120000	855.9	1
0.1524	313.15	130000	859.9	1
0.1524	313.15	140000	863.6	1.1
0.1524	333.15	100	775.6	0.7
0.1524	333.15	500	776	0.7
0.1524	333.15	1000	776.5	0.7
0.1524	333.15	2000	777.4	0.7
0.1524	333.15	5000	780	0.7
0.1524	333.15	10000	784.2	0.7
0.1524	333.15	15000	788.1	0.7
0.1524	333.15	20000	791.8	0.8
0.1524	333.15	30000	798.8	0.8
0.1524	333.15	40000	805.4	0.8
0.1524	333.15	50000	811.3	0.8
0.1524	333.15	60000	817	0.9
0.1524	333.15	70000	822.4	0.9
0.1524	333.15	80000	827.3	0.9
0.1524	333.15	90000	832.2	1
0.1524	333.15	100000	836.8	1
0.1524	333.15	110000	841.1	1
0.1524	333.15	120000	845.5	1
0.1524	333.15	130000	849.4	1.1
0.1524	333.15	140000	853.4	1.1
0.1524	353.15	100	759.2	0.7
0.1524	353.15	500	759.5	0.7
0.1524	353.15	1000	760	0.7
0.1524	353.15	2000	761	0.7
0.1524	353.15	5000	764	0.7
0.1524	353.15	10000	768.7	0.7
0.1524	353.15	15000	773.1	0.8
0.1524	353.15	20000	777.3	0.8
0.1524	353.15	30000	785	0.8
0.1524	353.15	40000	792	0.8
0.1524	353.15	50000	798.5	0.9
0.1524	353.15	60000	804.6	0.9
0.1524	353.15	70000	810.3	0.9
0.1524	353.15	80000	815.7	1
0.1524	353.15	90000	820.8	1
0.1524	353.15	100000	825.7	1
0.1524	353.15	110000	830.4	1.1
0.1524	353.15	120000	834.9	1.1
0.1524	353.15	130000	839.1	1.1
0.1524	353.15	140000	843.2	1.1
0.1524	373.15	100	741.8	5.4
0.1524	373.15	500	742	0.7
0.1524	373.15	1000	742.6	0.7
0.1524	373.15	2000	743.8	0.7
0.1524	373.15	5000	747.1	0.7
0.1524	373.15	10000	752.4	0.7
0.1524	373.15	15000	757.3	0.8
0.1524	373.15	20000	761.9	0.8
0.1524	373.15	30000	770.5	0.8
0.1524	373.15	40000	778.2	0.8
0.1524	373.15	50000	785.2	0.9
0.1524	373.15	60000	791.8	0.9
0.1524	373.15	70000	797.9	0.9
0.1524	373.15	80000	803.8	1
0.1524	373.15	90000	809.2	1
0.1524	373.15	100000	814.3	1.1
0.1524	373.15	110000	819.4	1.1
0.1524	373.15	120000	824.2	1.1
0.1524	373.15	130000	828.6	1.2
0.1524	373.15	140000	833	1.2
0.1524	393.15	500	724.7	0.7
0.1524	393.15	1000	725.4	0.7
0.1524	393.15	2000	726.7	0.7
0.1524	393.15	5000	730.5	0.7
0.1524	393.15	10000	736.6	0.7
0.1524	393.15	15000	742.1	0.8
0.1524	393.15	20000	747.3	0.8
0.1524	393.15	30000	756.7	0.8
0.1524	393.15	40000	765.3	0.9
0.1524	393.15	50000	772.8	0.9
0.1524	393.15	60000	779.9	0.9
0.1524	393.15	70000	786.7	1
0.1524	393.15	80000	792.8	1
0.1524	393.15	90000	798.6	1
0.1524	393.15	100000	804.1	1.1
0.1524	393.15	110000	809.4	1.1
0.1524	393.15	120000	814.4	1.2
0.1524	393.15	130000	819.1	1.2
0.1524	393.15	140000	823.7	1.2
0.3196	293.15	100	792.1	0.7
0.3196	293.15	500	792.3	0.7
0.3196	293.15	1000	792.7	0.7
0.3196	293.15	2000	793.5	0.7
0.3196	293.15	5000	795.7	0.7
0.3196	293.15	10000	799.5	0.7
0.3196	293.15	15000	803	0.7
0.3196	293.15	20000	806.4	0.8
0.3196	293.15	30000	812.8	0.8
0.3196	293.15	40000	818.6	0.8
0.3196	293.15	50000	824.1	0.8
0.3196	293.15	60000	829.4	0.9
0.3196	293.15	70000	834.5	0.9
0.3196	293.15	80000	839.1	0.9
0.3196	293.15	90000	843.6	0.9
0.3196	293.15	100000	848	1
0.3196	293.15	110000	852	1
0.3196	293.15	120000	856	1
0.3196	293.15	130000	859.9	1
0.3196	293.15	140000	863.5	1.1
0.3196	313.15	100	776	0.7
0.3196	313.15	500	776.3	0.7
0.3196	313.15	1000	776.7	0.7
0.3196	313.15	2000	777.6	0.7
0.3196	313.15	5000	780.2	0.7
0.3196	313.15	10000	784.3	0.7
0.3196	313.15	15000	788.2	0.7
0.3196	313.15	20000	791.9	0.8
0.3196	313.15	30000	798.9	0.8
0.3196	313.15	40000	805.4	0.8
0.3196	313.15	50000	811.2	0.8
0.3196	313.15	60000	817	0.9
0.3196	313.15	70000	822.3	0.9
0.3196	313.15	80000	827.3	0.9
0.3196	313.15	90000	832	1
0.3196	313.15	100000	836.6	1
0.3196	313.15	110000	841	1
0.3196	313.15	120000	845.2	1
0.3196	313.15	130000	849.2	1.1
0.3196	313.15	140000	853.2	1.1
0.3196	333.15	100	759.2	0.7
0.3196	333.15	500	759.6	0.7
0.3196	333.15	1000	760.1	0.7
0.3196	333.15	2000	761.1	0.7
0.3196	333.15	5000	764	0.7
0.3196	333.15	10000	768.7	0.7
0.3196	333.15	15000	773	0.8
0.3196	333.15	20000	777.1	0.8
0.3196	333.15	30000	784.8	0.8
0.3196	333.15	40000	791.9	0.8
0.3196	333.15	50000	798.3	0.9
0.3196	333.15	60000	804.4	0.9
0.3196	333.15	70000	810.1	0.9
0.3196	333.15	80000	815.4	1
0.3196	333.15	90000	820.4	1
0.3196	333.15	100000	825.3	1
0.3196	333.15	110000	829.8	1.1
0.3196	333.15	120000	834.4	1.1
0.3196	333.15	130000	838.6	1.1
0.3196	333.15	140000	842.8	1.1
0.3196	353.15	100	741.7	0.7
0.3196	353.15	500	742.1	0.7
0.3196	353.15	1000	742.7	0.7
0.3196	353.15	2000	743.8	0.7
0.3196	353.15	5000	747.1	0.7
0.3196	353.15	10000	752.4	0.7
0.3196	353.15	15000	757.3	0.8
0.3196	353.15	20000	761.9	0.8
0.3196	353.15	30000	770.4	0.8
0.3196	353.15	40000	778	0.8
0.3196	353.15	50000	785	0.9
0.3196	353.15	60000	791.6	0.9
0.3196	353.15	70000	797.7	0.9
0.3196	353.15	80000	803.3	1
0.3196	353.15	90000	808.9	1
0.3196	353.15	100000	814	1.1
0.3196	353.15	110000	818.9	1.1
0.3196	353.15	120000	823.6	1.1
0.3196	353.15	130000	828	1.2
0.3196	353.15	140000	832.4	1.2
0.3196	373.15	100	723.3	5.4
0.3196	373.15	500	723.5	0.7
0.3196	373.15	1000	724.1	0.7
0.3196	373.15	2000	725.5	0.7
0.3196	373.15	5000	729.2	0.7
0.3196	373.15	10000	735.3	0.7
0.3196	373.15	15000	740.8	0.8
0.3196	373.15	20000	745.9	0.8
0.3196	373.15	30000	755.4	0.8
0.3196	373.15	40000	763.8	0.9
0.3196	373.15	50000	771.3	0.9
0.3196	373.15	60000	778.4	0.9
0.3196	373.15	70000	784.9	1
0.3196	373.15	80000	791.2	1
0.3196	373.15	90000	796.9	1
0.3196	373.15	100000	802.4	1.1
0.3196	373.15	110000	807.6	1.1
0.3196	373.15	120000	812.6	1.2
0.3196	373.15	130000	817.3	1.2
0.3196	373.15	140000	821.8	1.2
0.3196	393.15	500	705	0.7
0.3196	393.15	1000	705.7	0.7
0.3196	393.15	2000	707.3	0.7
0.3196	393.15	5000	711.7	0.7
0.3196	393.15	10000	718.7	0.8
0.3196	393.15	15000	724.9	0.8
0.3196	393.15	20000	730.7	0.8
0.3196	393.15	30000	741.1	0.8
0.3196	393.15	40000	750.4	0.9
0.3196	393.15	50000	758.6	0.9
0.3196	393.15	60000	766.4	0.9
0.3196	393.15	70000	773.5	1
0.3196	393.15	80000	779.9	1
0.3196	393.15	90000	786.1	1.1
0.3196	393.15	100000	791.8	1.1
0.3196	393.15	110000	797.5	1.2
0.3196	393.15	120000	802.7	1.2
0.3196	393.15	130000	807.6	1.2
0.3196	393.15	140000	812.4	1.3
0.4906	293.15	100	776.3	0.7
0.4906	293.15	500	776.7	0.7
0.4906	293.15	1000	777.1	0.7
0.4906	293.15	2000	777.9	0.7
0.4906	293.15	5000	780.4	0.7
0.4906	293.15	10000	784.5	0.7
0.4906	293.15	15000	788.3	0.7
0.4906	293.15	20000	792	0.8
0.4906	293.15	30000	799	0.8
0.4906	293.15	40000	805.3	0.8
0.4906	293.15	50000	811.2	0.8
0.4906	293.15	60000	816.8	0.9
0.4906	293.15	70000	822.1	0.9
0.4906	293.15	80000	827.1	0.9
0.4906	293.15	90000	831.8	1
0.4906	293.15	100000	836.3	1
0.4906	293.15	110000	840.6	1
0.4906	293.15	120000	844.8	1
0.4906	293.15	130000	848.9	1.1
0.4906	293.15	140000	852.6	1.1
0.4906	313.15	100	759.1	0.7
0.4906	313.15	500	759.5	0.7
0.4906	313.15	1000	760	0.7
0.4906	313.15	2000	761	0.7
0.4906	313.15	5000	763.9	0.7
0.4906	313.15	10000	768.4	0.7
0.4906	313.15	15000	772.7	0.8
0.4906	313.15	20000	776.8	0.8
0.4906	313.15	30000	784.3	0.8
0.4906	313.15	40000	791.4	0.8
0.4906	313.15	50000	797.7	0.9
0.4906	313.15	60000	803.8	0.9
0.4906	313.15	70000	809.5	0.9
0.4906	313.15	80000	814.7	1
0.4906	313.15	90000	819.7	1
0.4906	313.15	100000	824.6	1
0.4906	313.15	110000	829.2	1.1
0.4906	313.15	120000	833.6	1.1
0.4906	313.15	130000	837.8	1.1
0.4906	313.15	140000	841.9	1.1
0.4906	333.15	100	741.1	0.7
0.4906	333.15	500	741.6	0.7
0.4906	333.15	1000	742.2	0.7
0.4906	333.15	2000	743.3	0.7
0.4906	333.15	5000	746.7	0.7
0.4906	333.15	10000	751.8	0.7
0.4906	333.15	15000	756.7	0.8
0.4906	333.15	20000	761.2	0.8
0.4906	333.15	30000	769.6	0.8
0.4906	333.15	40000	777.3	0.8
0.4906	333.15	50000	784.2	0.9
0.4906	333.15	60000	790.7	0.9
0.4906	333.15	70000	796.8	0.9
0.4906	333.15	80000	802.4	1
0.4906	333.15	90000	807.8	1
0.4906	333.15	100000	813	1.1
0.4906	333.15	110000	817.8	1.1
0.4906	333.15	120000	822.6	1.1
0.4906	333.15	130000	827	1.2
0.4906	333.15	140000	831.4	1.2
0.4906	353.15	100	722.5	0.7
0.4906	353.15	500	723	0.7
0.4906	353.15	1000	723.6	0.7
0.4906	353.15	2000	724.9	0.7
0.4906	353.15	5000	728.8	0.7
0.4906	353.15	10000	734.8	0.7
0.4906	353.15	15000	740.2	0.8
0.4906	353.15	20000	745.3	0.8
0.4906	353.15	30000	754.6	0.8
0.4906	353.15	40000	762.9	0.9
0.4906	353.15	50000	770.5	0.9
0.4906	353.15	60000	777.6	0.9
0.4906	353.15	70000	784.2	1
0.4906	353.15	80000	790.1	1
0.4906	353.15	90000	796.1	1.1
0.4906	353.15	100000	801.5	1.1
0.4906	353.15	110000	806.7	1.1
0.4906	353.15	120000	811.6	1.2
0.4906	353.15	130000	816.3	1.2
0.4906	353.15	140000	820.8	1.2
0.4906	373.15	100	702.7	5.4
0.4906	373.15	500	703.1	0.7
0.4906	373.15	1000	703.9	0.7
0.4906	373.15	2000	705.4	0.7
0.4906	373.15	5000	709.9	0.7
0.4906	373.15	10000	716.7	0.8
0.4906	373.15	15000	723	0.8
0.4906	373.15	20000	728.8	0.8
0.4906	373.15	30000	739.1	0.8
0.4906	373.15	40000	748.4	0.9
0.4906	373.15	50000	756.6	0.9
0.4906	373.15	60000	764.2	1
0.4906	373.15	70000	771.3	1
0.4906	373.15	80000	778	1
0.4906	373.15	90000	784	1.1
0.4906	373.15	100000	789.8	1.1
0.4906	373.15	110000	795.3	1.2
0.4906	373.15	120000	800.6	1.2
0.4906	373.15	130000	805.5	1.2
0.4906	373.15	140000	810.2	1.3
0.4906	393.15	500	683.5	0.7
0.4906	393.15	1000	684.4	0.7
0.4906	393.15	2000	686.3	0.7
0.4906	393.15	5000	691.5	0.7
0.4906	393.15	10000	699.5	0.8
0.4906	393.15	15000	706.6	0.8
0.4906	393.15	20000	713.2	0.8
0.4906	393.15	30000	724.7	0.8
0.4906	393.15	40000	735	0.9
0.4906	393.15	50000	743.9	0.9
0.4906	393.15	60000	752.2	1
0.4906	393.15	70000	759.9	1
0.4906	393.15	80000	766.8	1.1
0.4906	393.15	90000	773.4	1.1
0.4906	393.15	100000	779.5	1.2
0.4906	393.15	110000	785.4	1.2
0.4906	393.15	120000	790.8	1.2
0.4906	393.15	130000	796	1.3
0.4906	393.15	140000	801	1.3
0.6974	293.15	100	756.4	0.7
0.6974	293.15	500	756.8	0.7
0.6974	293.15	1000	757.3	0.7
0.6974	293.15	2000	758.3	0.7
0.6974	293.15	5000	761.1	0.7
0.6974	293.15	10000	765.7	0.7
0.6974	293.15	15000	770	0.8
0.6974	293.15	20000	774.1	0.8
0.6974	293.15	30000	781.7	0.8
0.6974	293.15	40000	788.6	0.8
0.6974	293.15	50000	795	0.9
0.6974	293.15	60000	801	0.9
0.6974	293.15	70000	806.7	0.9
0.6974	293.15	80000	812	1
0.6974	293.15	90000	817.1	1
0.6974	293.15	100000	822	1
0.6974	293.15	110000	826.6	1.1
0.6974	293.15	120000	830.9	1.1
0.6974	293.15	130000	835.2	1.1
0.6974	293.15	140000	839.2	1.2
0.6974	313.15	100	737.8	0.7
0.6974	313.15	500	738.2	0.7
0.6974	313.15	1000	738.8	0.7
0.6974	313.15	2000	739.9	0.7
0.6974	313.15	5000	743.3	0.7
0.6974	313.15	10000	748.4	0.7
0.6974	313.15	15000	753.3	0.8
0.6974	313.15	20000	757.8	0.8
0.6974	313.15	30000	766.2	0.8
0.6974	313.15	40000	773.9	0.8
0.6974	313.15	50000	780.9	0.9
0.6974	313.15	60000	787.5	0.9
0.6974	313.15	70000	793.6	1
0.6974	313.15	80000	799.3	1
0.6974	313.15	90000	804.6	1
0.6974	313.15	100000	809.8	1.1
0.6974	313.15	110000	814.6	1.1
0.6974	313.15	120000	819.3	1.1
0.6974	313.15	130000	823.9	1.2
0.6974	313.15	140000	828.2	1.2
0.6974	333.15	100	718.3	0.7
0.6974	333.15	500	718.8	0.7
0.6974	333.15	1000	719.5	0.7
0.6974	333.15	2000	720.8	0.7
0.6974	333.15	5000	724.7	0.7
0.6974	333.15	10000	730.6	0.8
0.6974	333.15	15000	736.1	0.8
0.6974	333.15	20000	741.3	0.8
0.6974	333.15	30000	750.7	0.8
0.6974	333.15	40000	759.3	0.9
0.6974	333.15	50000	766.8	0.9
0.6974	333.15	60000	773.8	0.9
0.6974	333.15	70000	780.5	1
0.6974	333.15	80000	786.6	1
0.6974	333.15	90000	792.4	1.1
0.6974	333.15	100000	797.9	1.1
0.6974	333.15	110000	803	1.1
0.6974	333.15	120000	808.1	1.2
0.6974	333.15	130000	812.8	1.2
0.6974	333.15	140000	817.4	1.2
0.6974	353.15	100	698	0.7
0.6974	353.15	500	698.5	0.7
0.6974	353.15	1000	699.3	0.7
0.6974	353.15	2000	700.8	0.7
0.6974	353.15	5000	705.4	0.7
0.6974	353.15	10000	712.3	0.8
0.6974	353.15	15000	718.7	0.8
0.6974	353.15	20000	724.5	0.8
0.6974	353.15	30000	735	0.8
0.6974	353.15	40000	744.3	0.9
0.6974	353.15	50000	752.6	0.9
0.6974	353.15	60000	760.6	1
0.6974	353.15	70000	767.6	1
0.6974	353.15	80000	774.1	1
0.6974	353.15	90000	780.4	1.1
0.6974	353.15	100000	786.2	1.1
0.6974	353.15	110000	791.7	1.2
0.6974	353.15	120000	796.9	1.2
0.6974	353.15	130000	801.9	1.3
0.6974	353.15	140000	806.6	1.3
0.6974	373.15	100	676.5	5.4
0.6974	373.15	500	677	0.7
0.6974	373.15	1000	678	0.7
0.6974	373.15	2000	679.9	0.7
0.6974	373.15	5000	685.2	0.7
0.6974	373.15	10000	693.4	0.8
0.6974	373.15	15000	700.7	0.8
0.6974	373.15	20000	707.3	0.8
0.6974	373.15	30000	719.1	0.8
0.6974	373.15	40000	729.4	0.9
0.6974	373.15	50000	738.5	0.9
0.6974	373.15	60000	746.9	1
0.6974	373.15	70000	754.5	1
0.6974	373.15	80000	761.8	1.1
0.6974	373.15	90000	768.3	1.1
0.6974	373.15	100000	774.4	1.2
0.6974	373.15	110000	780.3	1.2
0.6974	373.15	120000	785.9	1.3
0.6974	373.15	130000	791.1	1.3
0.6974	373.15	140000	796.1	1.3
0.6974	393.15	500	655.7	0.7
0.6974	393.15	1000	656.8	0.7
0.6974	393.15	2000	659.1	0.7
0.6974	393.15	5000	665.6	0.7
0.6974	393.15	10000	675.3	0.8
0.6974	393.15	15000	683.6	0.8
0.6974	393.15	20000	691.2	0.8
0.6974	393.15	30000	704.4	0.9
0.6974	393.15	40000	715.8	0.9
0.6974	393.15	50000	725.7	1
0.6974	393.15	60000	734.8	1
0.6974	393.15	70000	743.1	1.1
0.6974	393.15	80000	750.5	1.1
0.6974	393.15	90000	757.6	1.2
0.6974	393.15	100000	764.1	1.2
0.6974	393.15	110000	770.3	1.2
0.6974	393.15	120000	776.1	1.3
0.6974	393.15	130000	781.5	1.3
0.6974	393.15	140000	786.8	1.4
0.8457	293.15	100	741.2	0.7
0.8457	293.15	500	741.7	0.7
0.8457	293.15	1000	742.2	0.7
0.8457	293.15	2000	743.3	0.7
0.8457	293.15	5000	746.4	0.7
0.8457	293.15	10000	751.4	0.7
0.8457	293.15	15000	756.1	0.8
0.8457	293.15	20000	760.5	0.8
0.8457	293.15	30000	768.7	0.8
0.8457	293.15	40000	776	0.8
0.8457	293.15	50000	782.9	0.9
0.8457	293.15	60000	789.3	0.9
0.8457	293.15	70000	795.3	1
0.8457	293.15	80000	800.8	1
0.8457	293.15	90000	806.1	1
0.8457	293.15	100000	811.2	1.1
0.8457	293.15	110000	816	1.1
0.8457	293.15	120000	820.5	1.1
0.8457	293.15	130000	825	1.2
0.8457	293.15	140000	829	1.2
0.8457	313.15	100	721.4	0.7
0.8457	313.15	500	721.9	0.7
0.8457	313.15	1000	722.5	0.7
0.8457	313.15	2000	723.8	0.7
0.8457	313.15	5000	727.5	0.7
0.8457	313.15	10000	733.2	0.7
0.8457	313.15	15000	738.5	0.8
0.8457	313.15	20000	743.4	0.8
0.8457	313.15	30000	752.5	0.8
0.8457	313.15	40000	760.8	0.9
0.8457	313.15	50000	768.2	0.9
0.8457	313.15	60000	775.1	0.9
0.8457	313.15	70000	781.7	1
0.8457	313.15	80000	787.7	1
0.8457	313.15	90000	793.2	1.1
0.8457	313.15	100000	798.7	1.1
0.8457	313.15	110000	803.8	1.1
0.8457	313.15	120000	808.7	1.2
0.8457	313.15	130000	813.4	1.2
0.8457	313.15	140000	817.9	1.2
0.8457	333.15	100	700.6	0.7
0.8457	333.15	500	701.3	0.7
0.8457	333.15	1000	702.1	0.7
0.8457	333.15	2000	703.6	0.7
0.8457	333.15	5000	707.9	0.7
0.8457	333.15	10000	714.5	0.8
0.8457	333.15	15000	720.6	0.8
0.8457	333.15	20000	726.2	0.8
0.8457	333.15	30000	736.4	0.8
0.8457	333.15	40000	745.6	0.9
0.8457	333.15	50000	753.8	0.9
0.8457	333.15	60000	761.2	1
0.8457	333.15	70000	768.3	1
0.8457	333.15	80000	774.7	1
0.8457	333.15	90000	780.8	1.1
0.8457	333.15	100000	786.7	1.1
0.8457	333.15	110000	792	1.2
0.8457	333.15	120000	797.4	1.2
0.8457	333.15	130000	802.2	1.3
0.8457	333.15	140000	807	1.3
0.8457	353.15	100	679.1	0.7
0.8457	353.15	500	679.8	0.7
0.8457	353.15	1000	680.7	0.7
0.8457	353.15	2000	682.5	0.7
0.8457	353.15	5000	687.6	0.7
0.8457	353.15	10000	695.5	0.8
0.8457	353.15	15000	702.5	0.8
0.8457	353.15	20000	708.9	0.8
0.8457	353.15	30000	720.4	0.8
0.8457	353.15	40000	730.4	0.9
0.8457	353.15	50000	739.4	0.9
0.8457	353.15	60000	747.7	1
0.8457	353.15	70000	755.2	1
0.8457	353.15	80000	762.1	1.1
0.8457	353.15	90000	768.7	1.1
0.8457	353.15	100000	774.8	1.2
0.8457	353.15	110000	780.5	1.2
0.8457	353.15	120000	786	1.3
0.8457	353.15	130000	791.1	1.3
0.8457	353.15	140000	796	1.3
0.8457	373.15	100	656.3	5.4
0.8457	373.15	500	657	0.7
0.8457	373.15	1000	658.1	0.7
0.8457	373.15	2000	660.3	0.7
0.8457	373.15	5000	666.5	0.7
0.8457	373.15	10000	675.7	0.8
0.8457	373.15	15000	683.8	0.8
0.8457	373.15	20000	691.2	0.8
0.8457	373.15	30000	704.1	0.9
0.8457	373.15	40000	715.3	0.9
0.8457	373.15	50000	725	1
0.8457	373.15	60000	733.9	1
0.8457	373.15	70000	742	1.1
0.8457	373.15	80000	749.5	1.1
0.8457	373.15	90000	756.4	1.2
0.8457	373.15	100000	762.8	1.2
0.8457	373.15	110000	769	1.3
0.8457	373.15	120000	774.7	1.3
0.8457	373.15	130000	780.2	1.3
0.8457	373.15	140000	785.3	1.4
0.8457	393.15	500	634.2	0.7
0.8457	393.15	1000	635.6	0.7
0.8457	393.15	2000	638.4	0.7
0.8457	393.15	5000	645.9	0.8
0.8457	393.15	10000	657	0.8
0.8457	393.15	15000	666.4	0.8
0.8457	393.15	20000	674.9	0.8
0.8457	393.15	30000	689.3	0.9
0.8457	393.15	40000	701.7	0.9
0.8457	393.15	50000	712.2	1
0.8457	393.15	60000	721.9	1
0.8457	393.15	70000	730.7	1.1
0.8457	393.15	80000	738.5	1.1
0.8457	393.15	90000	745.9	1.2
0.8457	393.15	100000	752.7	1.2
0.8457	393.15	110000	759.2	1.3
0.8457	393.15	120000	765.1	1.3
0.8457	393.15	130000	770.8	1.4
0.8457	393.15	140000	776.3	1.4
