Measured thermophysical data. Excess molar enthalpies of R-fenchone + propan-1-ol or +propan-2-ol. Modeling with COSMO-RS and UNIFAC
Source: J. Chem. Thermodyn., 2015, 10.1016/j.jct.2015.04.034
Compound 1: (-)-fenchone, C10H16O, InChI=1S/C10H16O/c1-9(2)7-4-5-10(3,6-7)8(9)11/h7H,4-6H2,1-3H3/t7-,10+/m0/s1, purity 99.5%
Compound 2: propan-1-ol, C3H8O, InChI=1S/C3H8O/c1-2-3-4/h4H,2-3H2,1H3
Compound 3: propan-2-ol, C3H8O, InChI=1S/C3H8O/c1-3(2)4/h3-4H,1-2H3, purity 99.9%

System: (-)-fenchone; phases: Liquid
Property: Mass density, kg/m3 (Liquid); method: Vibrating tube method
Temperature, K	Pressure, kPa	Mass density, kg/m3	uncertainty
298.15	101.325	940.67	0.14

System: propan-1-ol; phases: Liquid
Property: Mass density, kg/m3 (Liquid); method: Vibrating tube method
Temperature, K	Pressure, kPa	Mass density, kg/m3	uncertainty
298.15	101.325	799.56	0.14

System: propan-2-ol; phases: Liquid
Property: Mass density, kg/m3 (Liquid); method: Vibrating tube method
Temperature, K	Pressure, kPa	Mass density, kg/m3	uncertainty
298.15	101.325	781.2	0.15

System: propan-1-ol + (-)-fenchone; phases: Liquid
Fixed: Pressure, kPa = 101
Property: Excess molar enthalpy (molar enthalpy of mixing), kJ/mol (Liquid); method: Flow calorimetry
Temperature, K	Mole fraction of (-)-fenchone	Excess molar enthalpy (molar enthalpy of mixing), kJ/mol	uncertainty
283.15	0.049	0.192	0.007
283.15	0.098	0.366	0.012
283.15	0.193	0.646	0.02
283.15	0.292	0.837	0.026
283.15	0.397	0.971	0.03
283.15	0.493	1.016	0.031
283.15	0.592	1.002	0.031
283.15	0.691	0.912	0.028
283.15	0.805	0.699	0.022
283.15	0.897	0.408	0.013
283.15	0.951	0.209	0.008
298.15	0.049	0.22	0.008
298.15	0.098	0.419	0.014
298.15	0.193	0.732	0.023
298.15	0.292	0.955	0.03
298.15	0.397	1.116	0.035
298.15	0.493	1.171	0.036
298.15	0.592	1.159	0.036
298.15	0.691	1.052	0.033
298.15	0.805	0.796	0.025
298.15	0.897	0.477	0.015
298.15	0.951	0.24	0.009
313.15	0.049	0.242	0.009
313.15	0.098	0.461	0.015
313.15	0.193	0.799	0.025
313.15	0.292	1.051	0.033
313.15	0.397	1.228	0.038
313.15	0.493	1.292	0.04
313.15	0.592	1.275	0.039
313.15	0.691	1.152	0.036
313.15	0.805	0.861	0.027
313.15	0.897	0.522	0.017
313.15	0.951	0.262	0.01
328.15	0.049	0.256	0.009
328.15	0.098	0.49	0.016
328.15	0.193	0.854	0.027
328.15	0.292	1.127	0.035
328.15	0.397	1.32	0.041
328.15	0.493	1.386	0.043
328.15	0.592	1.365	0.042
328.15	0.691	1.228	0.038
328.15	0.805	0.907	0.028
328.15	0.897	0.548	0.018
328.15	0.951	0.275	0.01

System: propan-2-ol + (-)-fenchone; phases: Liquid
Fixed: Pressure, kPa = 101
Property: Excess molar enthalpy (molar enthalpy of mixing), kJ/mol (Liquid); method: Flow calorimetry
Temperature, K	Mole fraction of (-)-fenchone	Excess molar enthalpy (molar enthalpy of mixing), kJ/mol	uncertainty
283.15	0.049	0.259	0.01
283.15	0.097	0.49	0.016
283.15	0.192	0.853	0.027
283.15	0.292	1.087	0.034
283.15	0.392	1.223	0.038
283.15	0.499	1.265	0.039
283.15	0.598	1.229	0.038
283.15	0.697	1.102	0.034
283.15	0.792	0.888	0.028
283.15	0.899	0.485	0.016
283.15	0.947	0.276	0.01
298.15	0.049	0.285	0.01
298.15	0.097	0.542	0.017
298.15	0.192	0.93	0.029
298.15	0.292	1.201	0.037
298.15	0.392	1.362	0.042
298.15	0.499	1.413	0.044
298.15	0.598	1.374	0.043
298.15	0.697	1.229	0.038
298.15	0.792	0.98	0.031
298.15	0.899	0.546	0.018
298.15	0.947	0.311	0.011
313.15	0.049	0.304	0.011
313.15	0.097	0.578	0.019
313.15	0.192	0.984	0.031
313.15	0.292	1.281	0.04
313.15	0.392	1.462	0.045
313.15	0.499	1.524	0.047
313.15	0.598	1.483	0.046
313.15	0.697	1.323	0.041
313.15	0.792	1.049	0.033
313.15	0.899	0.588	0.019
313.15	0.947	0.333	0.012
328.15	0.049	0.309	0.011
328.15	0.097	0.586	0.019
328.15	0.192	1.008	0.031
328.15	0.292	1.321	0.041
328.15	0.392	1.513	0.047
328.15	0.499	1.58	0.049
328.15	0.598	1.536	0.048
328.15	0.697	1.364	0.042
328.15	0.792	1.077	0.034
328.15	0.899	0.601	0.019
328.15	0.947	0.342	0.012
