Measured thermophysical data. Volumetric and viscometric properties of binary and ternary mixtures of monoethanolamine, 2-(diethylamino) ethanol and water from (293.15 to 333.15) K
Source: J. Chem. Thermodyn., 2019, 10.1016/j.jct.2019.06.032
Compound 1: 2-aminoethan-1-ol, C2H7NO, InChI=1S/C2H7NO/c3-1-2-4/h4H,1-3H2, purity 99%
Compound 2: (diethylamino)ethanol, C6H15NO, InChI=1S/C6H15NO/c1-3-7(4-2)5-6-8/h8H,3-6H2,1-2H3, purity 99%
Compound 3: water, H2O, InChI=1S/H2O/h1H2, purity 99.8%

System: 2-aminoethan-1-ol; phases: Liquid
Fixed: Pressure, kPa = 101
Property: Mass density, kg/m3 (Liquid); method: Vibrating tube method
Temperature, K	Mass density, kg/m3	uncertainty
293.15	1016.9	10
303.15	1009.5	10
313.15	1001.1	10
323.15	992.7	10
333.15	984.3	10

System: 2-aminoethan-1-ol; phases: Liquid
Fixed: Pressure, kPa = 101
Property: Viscosity, Pa*s (Liquid); method: Capillary tube (Ostwald; Ubbelohde) method
Temperature, K	Viscosity, Pa*s	uncertainty
293.15	0.023789	0.004761
303.15	0.014831	0.002969
313.15	0.00989	0.001979
323.15	0.006872	0.001375
333.15	0.00499	0.000999

System: (diethylamino)ethanol; phases: Liquid
Fixed: Pressure, kPa = 101
Property: Mass density, kg/m3 (Liquid); method: Vibrating tube method
Temperature, K	Mass density, kg/m3	uncertainty
293.15	891.2	10
303.15	874.4	10
313.15	865.4	10
323.15	856.4	10
333.15	845.6	10

System: (diethylamino)ethanol; phases: Liquid
Fixed: Pressure, kPa = 101
Property: Viscosity, Pa*s (Liquid); method: Capillary tube (Ostwald; Ubbelohde) method
Temperature, K	Viscosity, Pa*s	uncertainty
293.15	0.004848	0.00097
303.15	0.00341	0.000683
313.15	0.002466	0.000494
323.15	0.001855	0.000371
333.15	0.001431	0.000286

System: 2-aminoethan-1-ol + water; phases: Liquid
Fixed: Pressure, kPa = 101
Property: Mass density, kg/m3 (Liquid); method: Vibrating tube method
Temperature, K	Mole fraction of 2-aminoethan-1-ol	Mass density, kg/m3	uncertainty
293.15	0	998.2	10
293.15	0.1	1010.9	10
293.15	0.1999	1021.1	10
293.15	0.2998	1027.1	10
293.15	0.4	1029.4	10
293.15	0.4998	1029.3	10
293.15	0.5995	1028.1	10
293.15	0.6982	1026.3	10
293.15	0.7974	1023.8	10
293.15	0.8995	1021.2	10
293.15	1	1016.9	10
303.15	0	995.7	10
303.15	0.1	1007	10
303.15	0.1999	1016	10
303.15	0.2998	1021	10
303.15	0.4	1022.6	10
303.15	0.4998	1022	10
303.15	0.5995	1020.3	10
303.15	0.6982	1018	10
303.15	0.7974	1015.1	10
303.15	0.8995	1013	10
303.15	1	1009.5	10
313.15	0	992.3	10
313.15	0.1	1002.5	10
313.15	0.1999	1010.6	10
313.15	0.2998	1014.3	10
313.15	0.4	1015.5	10
313.15	0.4998	1014.6	10
313.15	0.5995	1012.7	10
313.15	0.6982	1010.4	10
313.15	0.7974	1007.1	10
313.15	0.8995	1005.1	10
313.15	1	1001.1	10
323.15	0	988.1	10
323.15	0.1	997.4	10
323.15	0.1999	1004.4	10
323.15	0.2998	1007.5	10
323.15	0.4	1008.3	10
323.15	0.4998	1007	10
323.15	0.5995	1004.9	10
323.15	0.6982	1002.8	10
323.15	0.7974	999.4	10
323.15	0.8995	997.2	10
323.15	1	992.7	10
333.15	0	983.3	10
333.15	0.1	991.7	10
333.15	0.1999	998	10
333.15	0.2998	1000.5	10
333.15	0.4	1000.8	10
333.15	0.4998	999.4	10
333.15	0.5995	997	10
333.15	0.6982	994.9	10
333.15	0.7974	991.5	10
333.15	0.8995	988.1	10
333.15	1	984.3	10

System: 2-aminoethan-1-ol + water; phases: Liquid
Fixed: Pressure, kPa = 101
Property: Viscosity, Pa*s (Liquid); method: Capillary tube (Ostwald; Ubbelohde) method
Temperature, K	Mole fraction of 2-aminoethan-1-ol	Viscosity, Pa*s	uncertainty
293.15	0	0.001004	0.000201
293.15	0.1	0.002669	0.000543
293.15	0.1999	0.005763	0.001163
293.15	0.2998	0.010282	0.002066
293.15	0.4	0.015216	0.00305
293.15	0.4998	0.01975	0.003955
293.15	0.5995	0.022832	0.00457
293.15	0.6982	0.024372	0.004877
293.15	0.7974	0.025192	0.005041
293.15	0.8995	0.024619	0.004927
293.15	1	0.023789	0.004761
303.15	0	0.000813	0.000163
303.15	0.1	0.001953	0.000396
303.15	0.1999	0.003976	0.0008
303.15	0.2998	0.006221	0.00125
303.15	0.4	0.009814	0.001968
303.15	0.4998	0.012402	0.002483
303.15	0.5995	0.014173	0.002837
303.15	0.6982	0.015255	0.003053
303.15	0.7974	0.015617	0.003126
303.15	0.8995	0.015174	0.003037
303.15	1	0.014831	0.002969
313.15	0	0.000662	0.000132
313.15	0.1	0.001495	0.000301
313.15	0.1999	0.002388	0.000481
313.15	0.2998	0.004011	0.000807
313.15	0.4	0.006589	0.001321
313.15	0.4998	0.008077	0.001617
313.15	0.5995	0.009474	0.001896
313.15	0.6982	0.010048	0.002011
313.15	0.7974	0.010086	0.002019
313.15	0.8995	0.010083	0.002018
313.15	1	0.00989	0.001979
323.15	0	0.00057	0.000114
323.15	0.1	0.001147	0.000231
323.15	0.1999	0.001819	0.000366
323.15	0.2998	0.003	0.000603
323.15	0.4	0.004621	0.000926
323.15	0.4998	0.005671	0.001135
323.15	0.5995	0.006412	0.001283
323.15	0.6982	0.007035	0.001408
323.15	0.7974	0.007169	0.001435
323.15	0.8995	0.00712	0.001425
323.15	1	0.006872	0.001375
333.15	0	0.000483	9.7e-05
333.15	0.1	0.000903	0.000182
333.15	0.1999	0.001429	0.000287
333.15	0.2998	0.002268	0.000456
333.15	0.4	0.003387	0.000679
333.15	0.4998	0.004071	0.000815
333.15	0.5995	0.004784	0.000958
333.15	0.6982	0.004978	0.000996
333.15	0.7974	0.005014	0.001004
333.15	0.8995	0.005001	0.001001
333.15	1	0.00499	0.000999

System: (diethylamino)ethanol + water; phases: Liquid
Fixed: Pressure, kPa = 101
Property: Mass density, kg/m3 (Liquid); method: Vibrating tube method
Temperature, K	Mole fraction of (diethylamino)ethanol	Mass density, kg/m3	uncertainty
293.15	0	998.2	10
293.15	0.1001	982	10
293.15	0.2005	962.4	10
293.15	0.2997	946.6	10
293.15	0.3978	933.4	10
293.15	0.4997	922.2	10
293.15	0.5992	914.4	10
293.15	0.6897	906.3	10
293.15	0.7997	899.6	10
293.15	0.8997	895.5	10
293.15	1	891.2	10
303.15	0	995.7	10
303.15	0.1001	974.2	10
303.15	0.2005	953	10
303.15	0.2997	936.8	10
303.15	0.3978	923.2	10
303.15	0.4997	912	10
303.15	0.5992	903.2	10
303.15	0.6897	894.8	10
303.15	0.7997	887.4	10
303.15	0.8997	880.8	10
303.15	1	874.4	10
313.15	0	992.3	10
313.15	0.1001	966.6	10
313.15	0.2005	944.3	10
313.15	0.2997	926.9	10
313.15	0.3978	913.9	10
313.15	0.4997	901.8	10
313.15	0.5992	892.8	10
313.15	0.6897	884.2	10
313.15	0.7997	876.9	10
313.15	0.8997	870.7	10
313.15	1	865.4	10
323.15	0	988.1	10
323.15	0.1001	958.5	10.1
323.15	0.2005	935	10
323.15	0.2997	917.5	10
323.15	0.3978	903.7	10
323.15	0.4997	892	10
323.15	0.5992	882.3	10
323.15	0.6897	873.9	10
323.15	0.7997	867.4	10
323.15	0.8997	861.4	10
323.15	1	856.4	10
333.15	0	983.3	10
333.15	0.1001	950.1	10.1
333.15	0.2005	925.6	10
333.15	0.2997	907.6	10
333.15	0.3978	893.9	10
333.15	0.4997	882.4	10
333.15	0.5992	872.5	10
333.15	0.6897	864.7	10
333.15	0.7997	857.3	10
333.15	0.8997	851.9	10
333.15	1	845.6	10

System: (diethylamino)ethanol + water; phases: Liquid
Fixed: Pressure, kPa = 101
Property: Viscosity, Pa*s (Liquid); method: Capillary tube (Ostwald; Ubbelohde) method
Temperature, K	Mole fraction of (diethylamino)ethanol	Viscosity, Pa*s	uncertainty
293.15	0	0.001004	0.000201
293.15	0.1001	0.007938	0.00162
293.15	0.2005	0.017024	0.003415
293.15	0.2997	0.020497	0.004102
293.15	0.3978	0.020322	0.004067
293.15	0.4997	0.017725	0.003549
293.15	0.5992	0.014799	0.002964
293.15	0.6897	0.01242	0.002488
293.15	0.7997	0.009723	0.001948
293.15	0.8997	0.007341	0.001472
293.15	1	0.004848	0.00097
303.15	0	0.000813	0.000163
303.15	0.1001	0.005548	0.001125
303.15	0.2005	0.010009	0.002006
303.15	0.2997	0.011011	0.002204
303.15	0.3978	0.009991	0.002
303.15	0.4997	0.009074	0.001817
303.15	0.5992	0.008421	0.001686
303.15	0.6897	0.007125	0.001427
303.15	0.7997	0.006002	0.001202
303.15	0.8997	0.004868	0.000976
303.15	1	0.00341	0.000683
313.15	0	0.000662	0.000132
313.15	0.1001	0.003741	0.000757
313.15	0.2005	0.006284	0.001259
313.15	0.2997	0.007194	0.00144
313.15	0.3978	0.006145	0.00123
313.15	0.4997	0.005477	0.001096
313.15	0.5992	0.005078	0.001017
313.15	0.6897	0.004663	0.000934
313.15	0.7997	0.003878	0.000777
313.15	0.8997	0.003402	0.000682
313.15	1	0.002466	0.000494
323.15	0	0.00057	0.000114
323.15	0.1001	0.002623	0.00053
323.15	0.2005	0.004233	0.000848
323.15	0.2997	0.004584	0.000917
323.15	0.3978	0.004058	0.000812
323.15	0.4997	0.003605	0.000722
323.15	0.5992	0.00305	0.000611
323.15	0.6897	0.002692	0.000539
323.15	0.7997	0.002212	0.000443
323.15	0.8997	0.002141	0.000429
323.15	1	0.001855	0.000371
333.15	0	0.000483	9.7e-05
333.15	0.1001	0.00194	0.000391
333.15	0.2005	0.002937	0.000588
333.15	0.2997	0.00315	0.00063
333.15	0.3978	0.002963	0.000593
333.15	0.4997	0.002593	0.000519
333.15	0.5992	0.0024	0.00048
333.15	0.6897	0.002102	0.000421
333.15	0.7997	0.001794	0.000359
333.15	0.8997	0.001619	0.000324
333.15	1	0.001431	0.000286

System: 2-aminoethan-1-ol + (diethylamino)ethanol; phases: Liquid
Fixed: Pressure, kPa = 101
Property: Mass density, kg/m3 (Liquid); method: Vibrating tube method
Temperature, K	Mole fraction of 2-aminoethan-1-ol	Mass density, kg/m3	uncertainty
293.15	0	891.2	10
293.15	0.1003	897.2	10
293.15	0.2004	906.9	10
293.15	0.2993	920.7	10
293.15	0.4003	931.6	10
293.15	0.5001	941	10
293.15	0.6001	952.2	10
293.15	0.7007	965.8	10
293.15	0.8001	981.8	10
293.15	0.9	999.8	10
293.15	1	1016.9	10
303.15	0	874.4	10
303.15	0.1003	881.4	10
303.15	0.2004	892.2	10
303.15	0.2993	906.2	10
303.15	0.4003	918	10
303.15	0.5001	929.9	10
303.15	0.6001	942.1	10
303.15	0.7007	954.2	10
303.15	0.8001	971.6	10
303.15	0.9	991.5	10
303.15	1	1009.5	10
313.15	0	865.4	10
313.15	0.1003	869.8	10
313.15	0.2004	881.6	10
313.15	0.2993	897.8	10
313.15	0.4003	910.5	10
313.15	0.5001	920.1	10
313.15	0.6001	935	10
313.15	0.7007	944.6	10
313.15	0.8001	963	10
313.15	0.9	982.7	10
313.15	1	1001.1	10
323.15	0	856.4	10
323.15	0.1003	859.4	10
323.15	0.2004	871.1	10
323.15	0.2993	887.6	10
323.15	0.4003	901.2	10
323.15	0.5001	910.2	10
323.15	0.6001	926.9	10
323.15	0.7007	935.9	10
323.15	0.8001	954.3	10
323.15	0.9	974.3	10
323.15	1	992.7	10
333.15	0	845.6	10
333.15	0.1003	849.2	10
333.15	0.2004	861	10
333.15	0.2993	879.7	10
333.15	0.4003	891.8	10
333.15	0.5001	902.3	10
333.15	0.6001	915.8	10
333.15	0.7007	927.9	10
333.15	0.8001	946.2	10
333.15	0.9	965.5	10
333.15	1	984.3	10

System: 2-aminoethan-1-ol + (diethylamino)ethanol; phases: Liquid
Fixed: Pressure, kPa = 101
Property: Viscosity, Pa*s (Liquid); method: Capillary tube (Ostwald; Ubbelohde) method
Temperature, K	Mole fraction of 2-aminoethan-1-ol	Viscosity, Pa*s	uncertainty
293.15	0	0.004848	0.00097
293.15	0.1003	0.00652	0.001307
293.15	0.2004	0.008275	0.001658
293.15	0.2993	0.010415	0.002086
293.15	0.4003	0.012318	0.002467
293.15	0.5001	0.013762	0.002756
293.15	0.6001	0.015976	0.003199
293.15	0.7007	0.017268	0.003457
293.15	0.8001	0.01977	0.003959
293.15	0.9	0.022754	0.004555
293.15	1	0.023789	0.004761
303.15	0	0.00341	0.000683
303.15	0.1003	0.003543	0.000709
303.15	0.2004	0.003892	0.00078
303.15	0.2993	0.004495	0.000901
303.15	0.4003	0.005526	0.001107
303.15	0.5001	0.006483	0.001299
303.15	0.6001	0.007382	0.001479
303.15	0.7007	0.008567	0.001717
303.15	0.8001	0.010575	0.002119
303.15	0.9	0.013443	0.002692
303.15	1	0.014831	0.002969
313.15	0	0.002466	0.000494
313.15	0.1003	0.002619	0.000524
313.15	0.2004	0.002982	0.000597
313.15	0.2993	0.003501	0.000701
313.15	0.4003	0.00404	0.000809
313.15	0.5001	0.004629	0.000927
313.15	0.6001	0.005072	0.001015
313.15	0.7007	0.005754	0.001153
313.15	0.8001	0.00721	0.001444
313.15	0.9	0.008826	0.001767
313.15	1	0.00989	0.001979
323.15	0	0.001855	0.000371
323.15	0.1003	0.001952	0.000391
323.15	0.2004	0.002149	0.00043
323.15	0.2993	0.002658	0.000532
323.15	0.4003	0.002925	0.000586
323.15	0.5001	0.003314	0.000663
323.15	0.6001	0.003651	0.000731
323.15	0.7007	0.004046	0.00081
323.15	0.8001	0.004954	0.000992
323.15	0.9	0.006018	0.001205
323.15	1	0.006872	0.001375
333.15	0	0.001431	0.000286
333.15	0.1003	0.001568	0.000314
333.15	0.2004	0.001746	0.00035
333.15	0.2993	0.002107	0.000422
333.15	0.4003	0.002426	0.000486
333.15	0.5001	0.002767	0.000554
333.15	0.6001	0.003007	0.000602
333.15	0.7007	0.003273	0.000655
333.15	0.8001	0.003651	0.000731
333.15	0.9	0.004413	0.000884
333.15	1	0.00499	0.000999

System: 2-aminoethan-1-ol + (diethylamino)ethanol + water; phases: Liquid
Fixed: Pressure, kPa = 101
Property: Mass density, kg/m3 (Liquid); method: Vibrating tube method
Mole fraction of (diethylamino)ethanol	Temperature, K	Mole fraction of 2-aminoethan-1-ol	Mass density, kg/m3	uncertainty
0.0902	293.15	0.1	996.8	10.1
0.08	293.15	0.2	1002.5	10
0.0701	293.15	0.2998	1008	10
0.06	293.15	0.4001	1012.1	10.1
0.05	293.15	0.4996	1014.5	10.1
0.04	293.15	0.6	1016.3	10.1
0.0299	293.15	0.6996	1018	10
0.02	293.15	0.7993	1018.8	10
0.01	293.15	0.9001	1019.3	10
0.0902	303.15	0.1	989.2	10.1
0.08	303.15	0.2	994.6	10.1
0.0701	303.15	0.2998	1000.1	10.1
0.06	303.15	0.4001	1004.4	10.1
0.05	303.15	0.4996	1007.5	10.1
0.04	303.15	0.6	1008.7	10.1
0.0299	303.15	0.6996	1009.8	10.1
0.02	303.15	0.7993	1009.9	10
0.01	303.15	0.9001	1010.4	10.1
0.0902	313.15	0.1	981.5	10.1
0.08	313.15	0.2	987	10.1
0.0701	313.15	0.2998	992.6	10.1
0.06	313.15	0.4001	996.9	10.1
0.05	313.15	0.4996	999.4	10.1
0.04	313.15	0.6	1000.3	10.1
0.0299	313.15	0.6996	1001.2	10.1
0.02	313.15	0.7993	1002.5	10
0.01	313.15	0.9001	1003.3	10.1
0.0902	323.15	0.1	973.7	10.1
0.08	323.15	0.2	978.8	10.1
0.0701	323.15	0.2998	984.6	10.1
0.06	323.15	0.4001	987.9	10.1
0.05	323.15	0.4996	991	10.1
0.04	323.15	0.6	991.8	10.1
0.0299	323.15	0.6996	993.3	10.1
0.02	323.15	0.7993	994.5	10
0.01	323.15	0.9001	995.2	10.1
0.0902	333.15	0.1	965.6	10.1
0.08	333.15	0.2	970.6	10.1
0.0701	333.15	0.2998	976.4	10.1
0.06	333.15	0.4001	979.7	10.1
0.05	333.15	0.4996	982.4	10.1
0.04	333.15	0.6	984.4	10.1
0.0299	333.15	0.6996	985.7	10.1
0.02	333.15	0.7993	986.5	10
0.01	333.15	0.9001	987	10
0.18	293.15	0.0999	974.1	10
0.1598	293.15	0.1998	982.9	10
0.14	293.15	0.3	990.8	10
0.12	293.15	0.3999	996.6	10
0.1001	293.15	0.5	1000.7	10
0.0801	293.15	0.6	1004.9	10
0.06	293.15	0.6997	1010.4	10
0.04	293.15	0.8001	1015.3	10
0.0201	293.15	0.8996	1017.3	10
0.18	303.15	0.0999	964.8	10
0.1598	303.15	0.1998	974.2	10
0.14	303.15	0.3	982	10.1
0.12	303.15	0.3999	988.3	10.1
0.1001	303.15	0.5	991.8	10
0.0801	303.15	0.6	996.1	10
0.06	303.15	0.6997	1001.6	10
0.04	303.15	0.8001	1006.6	10
0.0201	303.15	0.8996	1008.5	10
0.18	313.15	0.0999	955.8	10
0.1598	313.15	0.1998	965.6	10
0.14	313.15	0.3	973.6	10.1
0.12	313.15	0.3999	979.9	10.1
0.1001	313.15	0.5	983.6	10
0.0801	313.15	0.6	988.3	10
0.06	313.15	0.6997	993.4	10
0.04	313.15	0.8001	998.4	10
0.0201	313.15	0.8996	1000	10.1
0.18	323.15	0.0999	947	10
0.1598	323.15	0.1998	956.7	10.1
0.14	323.15	0.3	965.6	10.1
0.12	323.15	0.3999	971.8	10.1
0.1001	323.15	0.5	975.7	10
0.0801	323.15	0.6	981.1	10
0.06	323.15	0.6997	985.4	10
0.04	323.15	0.8001	990.3	10
0.0201	323.15	0.8996	992.3	10
0.18	333.15	0.0999	937.8	10.1
0.1598	333.15	0.1998	947.9	10.1
0.14	333.15	0.3	957	10.1
0.12	333.15	0.3999	963.5	10.1
0.1001	333.15	0.5	967.3	10.1
0.0801	333.15	0.6	972.9	10.1
0.06	333.15	0.6997	977.3	10
0.04	333.15	0.8001	982	10
0.0201	333.15	0.8996	985.2	10
0.269	293.15	0.0996	958.6	10
0.2399	293.15	0.1999	967.3	10
0.2098	293.15	0.2997	974.6	10
0.1798	293.15	0.3994	983.4	10
0.1484	293.15	0.4949	992.8	10
0.12	293.15	0.6001	998.5	10
0.09	293.15	0.6997	1004.4	10
0.0599	293.15	0.7996	1009.8	10
0.0301	293.15	0.9	1015.5	10
0.269	303.15	0.0996	949	10
0.2399	303.15	0.1999	957.6	10
0.2098	303.15	0.2997	965.6	10
0.1798	303.15	0.3994	973.9	10
0.1484	303.15	0.4949	983.5	10
0.12	303.15	0.6001	989.4	10
0.09	303.15	0.6997	995.8	10
0.0599	303.15	0.7996	1000.9	10
0.0301	303.15	0.9	1006.7	10
0.269	313.15	0.0996	939.1	10
0.2399	313.15	0.1999	947.6	10
0.2098	313.15	0.2997	956.6	10
0.1798	313.15	0.3994	965.1	10
0.1484	313.15	0.4949	975	10
0.12	313.15	0.6001	981.4	10
0.09	313.15	0.6997	987.3	10
0.0599	313.15	0.7996	992.7	10
0.0301	313.15	0.9	998.3	10
0.269	323.15	0.0996	930.1	10
0.2399	323.15	0.1999	938.7	10
0.2098	323.15	0.2997	949.5	10
0.1798	323.15	0.3994	957.7	10
0.1484	323.15	0.4949	967.3	10
0.12	323.15	0.6001	973.1	10
0.09	323.15	0.6997	979.7	10
0.0599	323.15	0.7996	984.9	10
0.0301	323.15	0.9	990.7	10
0.269	333.15	0.0996	919.9	10
0.2399	333.15	0.1999	929.4	10
0.2098	333.15	0.2997	938.4	10
0.1798	333.15	0.3994	947.6	10
0.1484	333.15	0.4949	957.6	10
0.12	333.15	0.6001	964.6	10
0.09	333.15	0.6997	971.2	10.1
0.0599	333.15	0.7996	976.8	10
0.0301	333.15	0.9	982.6	10
0.3598	293.15	0.1	945.3	10
0.3201	293.15	0.2	955.1	10
0.2801	293.15	0.3	963.7	10
0.2399	293.15	0.3998	972.8	10
0.2	293.15	0.5	981.4	10
0.1598	293.15	0.5994	989.6	10
0.12	293.15	0.6999	996.8	10.1
0.0801	293.15	0.8001	1006.5	10.1
0.0399	293.15	0.8991	1014.6	10
0.3598	303.15	0.1	934.7	10
0.3201	303.15	0.2	945.3	10
0.2801	303.15	0.3	953.6	10
0.2399	303.15	0.3998	963.1	10
0.2	303.15	0.5	971.6	10
0.1598	303.15	0.5994	980.6	10
0.12	303.15	0.6999	987.7	10.1
0.0801	303.15	0.8001	997.8	10
0.0399	303.15	0.8991	1005.2	10
0.3598	313.15	0.1	925.2	10
0.3201	313.15	0.2	936.1	10
0.2801	313.15	0.3	944.3	10
0.2399	313.15	0.3998	954.1	10
0.2	313.15	0.5	963	10.1
0.1598	313.15	0.5994	971.8	10
0.12	313.15	0.6999	979.1	10.1
0.0801	313.15	0.8001	989.5	10.1
0.0399	313.15	0.8991	997.2	10
0.3598	323.15	0.1	915.5	10
0.3201	323.15	0.2	926.7	10
0.2801	323.15	0.3	935.2	10
0.2399	323.15	0.3998	945.1	10
0.2	323.15	0.5	954.1	10.1
0.1598	323.15	0.5994	963.3	10.1
0.12	323.15	0.6999	971.2	10.1
0.0801	323.15	0.8001	980.9	10.1
0.0399	323.15	0.8991	989.1	10.1
0.3598	333.15	0.1	905.7	10
0.3201	333.15	0.2	916.6	10
0.2801	333.15	0.3	926	10
0.2399	333.15	0.3998	936.3	10
0.2	333.15	0.5	945.9	10.1
0.1598	333.15	0.5994	954.8	10.1
0.12	333.15	0.6999	962.5	10
0.0801	333.15	0.8001	973.8	10.1
0.0399	333.15	0.8991	980.7	10.1
0.45	293.15	0.1	935.3	10
0.4002	293.15	0.2001	942.5	10
0.3499	293.15	0.2999	949.7	10
0.3	293.15	0.4001	960.1	10
0.2498	293.15	0.4996	967.8	10
0.2	293.15	0.5998	979.8	10
0.1512	293.15	0.6992	988.3	10
0.1001	293.15	0.7998	998.7	10
0.05	293.15	0.9002	1011	10.1
0.45	303.15	0.1	924.7	10
0.4002	303.15	0.2001	931.2	10
0.3499	303.15	0.2999	938.8	10
0.3	303.15	0.4001	950.1	10
0.2498	303.15	0.4996	958.8	10
0.2	303.15	0.5998	970.6	10.1
0.1512	303.15	0.6992	979.7	10
0.1001	303.15	0.7998	991.3	10.1
0.05	303.15	0.9002	1002.1	10
0.45	313.15	0.1	915.4	10
0.4002	313.15	0.2001	921.6	10
0.3499	313.15	0.2999	929.2	10
0.3	313.15	0.4001	940.1	10
0.2498	313.15	0.4996	949	10
0.2	313.15	0.5998	961.6	10
0.1512	313.15	0.6992	971.7	10
0.1001	313.15	0.7998	982.3	10.1
0.05	313.15	0.9002	993.6	10.1
0.45	323.15	0.1	904.6	10
0.4002	323.15	0.2001	911.9	10
0.3499	323.15	0.2999	920.4	10
0.3	323.15	0.4001	930.2	10
0.2498	323.15	0.4996	940.1	10
0.2	323.15	0.5998	952.7	10
0.1512	323.15	0.6992	963.3	10
0.1001	323.15	0.7998	973.8	10.1
0.05	323.15	0.9002	985.7	10.1
0.45	333.15	0.1	895.2	10
0.4002	333.15	0.2001	902.2	10
0.3499	333.15	0.2999	910.6	10
0.3	333.15	0.4001	923.1	10
0.2498	333.15	0.4996	932.1	10
0.2	333.15	0.5998	944.6	10
0.1512	333.15	0.6992	960.2	10
0.1001	333.15	0.7998	966.1	10.1
0.05	333.15	0.9002	977.3	10.1
0.54	293.15	0.1	926.3	10
0.4799	293.15	0.1999	935.2	10
0.42	293.15	0.3	943.5	10
0.3604	293.15	0.3998	951.3	10
0.2999	293.15	0.4998	961.4	10
0.2399	293.15	0.5997	970.2	10
0.1803	293.15	0.7002	983.4	10
0.12	293.15	0.8002	997.6	10
0.0599	293.15	0.8992	1009.4	10
0.54	303.15	0.1	913.6	10
0.4799	303.15	0.1999	923.8	10
0.42	303.15	0.3	932.3	10
0.3604	303.15	0.3998	941.4	10
0.2999	303.15	0.4998	951.4	10
0.2399	303.15	0.5997	961	10
0.1803	303.15	0.7002	974.4	10
0.12	303.15	0.8002	988.5	10.1
0.0599	303.15	0.8992	1000.6	10
0.54	313.15	0.1	903	10
0.4799	313.15	0.1999	914.1	10
0.42	313.15	0.3	922.3	10
0.3604	313.15	0.3998	931.6	10
0.2999	313.15	0.4998	942.8	10
0.2399	313.15	0.5997	953.4	10
0.1803	313.15	0.7002	967.5	10.1
0.12	313.15	0.8002	980.1	10.1
0.0599	313.15	0.8992	992.1	10
0.54	323.15	0.1	893.8	10
0.4799	323.15	0.1999	904.5	10
0.42	323.15	0.3	912.8	10
0.3604	323.15	0.3998	922.7	10
0.2999	323.15	0.4998	933.7	10
0.2399	323.15	0.5997	945.1	10
0.1803	323.15	0.7002	959.5	10.1
0.12	323.15	0.8002	971.5	10.1
0.0599	323.15	0.8992	983.8	10
0.54	333.15	0.1	884.3	10
0.4799	333.15	0.1999	894.7	10
0.42	333.15	0.3	903.3	10
0.3604	333.15	0.3998	913.6	10
0.2999	333.15	0.4998	924.4	10
0.2399	333.15	0.5997	936.6	10
0.1803	333.15	0.7002	950.8	10.1
0.12	333.15	0.8002	963.4	10.1
0.0599	333.15	0.8992	975.7	10
0.6299	293.15	0.1001	921.1	10
0.5595	293.15	0.1998	928.3	10
0.4899	293.15	0.2999	936.5	10
0.4201	293.15	0.3999	943	10
0.3476	293.15	0.4967	952.9	10
0.2797	293.15	0.5995	964.2	10
0.2101	293.15	0.7003	975.9	10
0.1401	293.15	0.8002	990.1	10.1
0.07	293.15	0.8999	1006.9	10.1
0.6299	303.15	0.1001	907.9	10
0.5595	303.15	0.1998	915.2	10
0.4899	303.15	0.2999	924.8	10
0.4201	303.15	0.3999	931.2	10
0.3476	303.15	0.4967	943.1	10
0.2797	303.15	0.5995	954.1	10
0.2101	303.15	0.7003	965.8	10
0.1401	303.15	0.8002	980.5	10.1
0.07	303.15	0.8999	998.6	10.1
0.6299	313.15	0.1001	897.7	10
0.5595	313.15	0.1998	905.2	10
0.4899	313.15	0.2999	915.2	10
0.4201	313.15	0.3999	921.1	10
0.3476	313.15	0.4967	931.9	10
0.2797	313.15	0.5995	944	10
0.2101	313.15	0.7003	957.2	10
0.1401	313.15	0.8002	971.9	10.1
0.07	313.15	0.8999	989.7	10.1
0.6299	323.15	0.1001	888.9	10
0.5595	323.15	0.1998	895.7	10
0.4899	323.15	0.2999	904.4	10
0.4201	323.15	0.3999	912.2	10
0.3476	323.15	0.4967	923.3	10
0.2797	323.15	0.5995	935.3	10
0.2101	323.15	0.7003	947.5	10
0.1401	323.15	0.8002	963.5	10.1
0.07	323.15	0.8999	981.5	10.1
0.6299	333.15	0.1001	879.2	10
0.5595	333.15	0.1998	886.5	10
0.4899	333.15	0.2999	896.7	10
0.4201	333.15	0.3999	902.8	10
0.3476	333.15	0.4967	914	10
0.2797	333.15	0.5995	926.9	10
0.2101	333.15	0.7003	939.2	10
0.1401	333.15	0.8002	955.9	10.1
0.07	333.15	0.8999	973.4	10.1
0.7197	293.15	0.1	909.8	10
0.6401	293.15	0.1999	922.2	10
0.5603	293.15	0.3001	933.3	10
0.4799	293.15	0.3998	940.8	10
0.3999	293.15	0.5	950.5	10
0.3199	293.15	0.5997	964.5	10
0.24	293.15	0.6999	976.2	10
0.16	293.15	0.8001	987.3	10
0.0801	293.15	0.8999	1004.1	10
0.7197	303.15	0.1	897.4	10
0.6401	303.15	0.1999	909.4	10
0.5603	303.15	0.3001	920.5	10
0.4799	303.15	0.3998	928.8	10
0.3999	303.15	0.5	940.6	10
0.3199	303.15	0.5997	953.7	10
0.24	303.15	0.6999	965.8	10
0.16	303.15	0.8001	976.1	10
0.0801	303.15	0.8999	994.9	10
0.7197	313.15	0.1	887	10
0.6401	313.15	0.1999	898.9	10
0.5603	313.15	0.3001	910.4	10
0.4799	313.15	0.3998	919.5	10
0.3999	313.15	0.5	930.3	10
0.3199	313.15	0.5997	944.9	10
0.24	313.15	0.6999	956.7	10
0.16	313.15	0.8001	967.8	10
0.0801	313.15	0.8999	986.3	10
0.7197	323.15	0.1	877.3	10
0.6401	323.15	0.1999	890.1	10
0.5603	323.15	0.3001	902	10
0.4799	323.15	0.3998	909.7	10
0.3999	323.15	0.5	920.9	10
0.3199	323.15	0.5997	936	10
0.24	323.15	0.6999	948.6	10
0.16	323.15	0.8001	959.6	10
0.0801	323.15	0.8999	978	10
0.7197	333.15	0.1	867.1	10
0.6401	333.15	0.1999	880.3	10
0.5603	333.15	0.3001	892.1	10
0.4799	333.15	0.3998	900.5	10
0.3999	333.15	0.5	910.7	10
0.3199	333.15	0.5997	927	10
0.24	333.15	0.6999	939.5	10
0.16	333.15	0.8001	950.6	10
0.0801	333.15	0.8999	969.5	10
0.8096	293.15	0.1005	909.8	10
0.7193	293.15	0.1999	912.7	10
0.63	293.15	0.3	921.7	10
0.5399	293.15	0.3999	935.4	10
0.45	293.15	0.5	946.4	10
0.3596	293.15	0.5992	958.4	10
0.27	293.15	0.6996	975.5	10
0.18	293.15	0.8001	989.3	10
0.09	293.15	0.8998	1004.5	10
0.8096	303.15	0.1005	898.2	10
0.7193	303.15	0.1999	901.7	10
0.63	303.15	0.3	909.6	10
0.5399	303.15	0.3999	923.6	10
0.45	303.15	0.5	936	10
0.3596	303.15	0.5992	950.4	10
0.27	303.15	0.6996	966.2	10
0.18	303.15	0.8001	979.3	10
0.09	303.15	0.8998	995.4	10
0.8096	313.15	0.1005	888.2	10
0.7193	313.15	0.1999	889.6	10
0.63	313.15	0.3	897.7	10
0.5399	313.15	0.3999	910.7	10
0.45	313.15	0.5	925.8	10
0.3596	313.15	0.5992	938.5	10
0.27	313.15	0.6996	956.9	10
0.18	313.15	0.8001	970.5	10
0.09	313.15	0.8998	987.1	10
0.8096	323.15	0.1005	879.1	10
0.7193	323.15	0.1999	880.3	10
0.63	323.15	0.3	888.5	10
0.5399	323.15	0.3999	904.1	10
0.45	323.15	0.5	917.1	10
0.3596	323.15	0.5992	930.1	10
0.27	323.15	0.6996	949.8	10
0.18	323.15	0.8001	963.2	10
0.09	323.15	0.8998	978.9	10
0.8096	333.15	0.1005	868.4	10
0.7193	333.15	0.1999	870.8	10
0.63	333.15	0.3	879.2	10
0.5399	333.15	0.3999	890.9	10
0.45	333.15	0.5	907.7	10
0.3596	333.15	0.5992	920.9	10
0.27	333.15	0.6996	940.7	10
0.18	333.15	0.8001	955.1	10
0.09	333.15	0.8998	970.4	10

System: 2-aminoethan-1-ol + (diethylamino)ethanol + water; phases: Liquid
Fixed: Pressure, kPa = 101
Property: Viscosity, Pa*s (Liquid); method: Capillary tube (Ostwald; Ubbelohde) method
Mole fraction of (diethylamino)ethanol	Temperature, K	Mole fraction of 2-aminoethan-1-ol	Viscosity, Pa*s	uncertainty
0.0902	293.15	0.1	0.010167	0.002086
0.08	293.15	0.2	0.015225	0.003072
0.0701	293.15	0.2998	0.018783	0.003772
0.06	293.15	0.4001	0.021907	0.00439
0.05	293.15	0.4996	0.023944	0.004794
0.04	293.15	0.6	0.024843	0.004972
0.0299	293.15	0.6996	0.025335	0.00507
0.02	293.15	0.7993	0.025016	0.005006
0.01	293.15	0.9001	0.024735	0.004951
0.0902	303.15	0.1	0.006934	0.001407
0.08	303.15	0.2	0.009552	0.001921
0.0701	303.15	0.2998	0.011617	0.00233
0.06	303.15	0.4001	0.013317	0.002667
0.05	303.15	0.4996	0.01472	0.002946
0.04	303.15	0.6	0.015283	0.00306
0.0299	303.15	0.6996	0.015509	0.003107
0.02	303.15	0.7993	0.01538	0.00309
0.01	303.15	0.9001	0.015245	0.0031
0.0902	313.15	0.1	0.004662	0.000941
0.08	313.15	0.2	0.006301	0.001266
0.0701	313.15	0.2998	0.007072	0.001419
0.06	313.15	0.4001	0.007876	0.001578
0.05	313.15	0.4996	0.009048	0.001811
0.04	313.15	0.6	0.009795	0.001961
0.0299	313.15	0.6996	0.010139	0.00203
0.02	313.15	0.7993	0.00997	0.002005
0.01	313.15	0.9001	0.009606	0.001958
0.0902	323.15	0.1	0.003308	0.000667
0.08	323.15	0.2	0.004465	0.000897
0.0701	323.15	0.2998	0.004954	0.000994
0.06	323.15	0.4001	0.005534	0.001109
0.05	323.15	0.4996	0.006148	0.001231
0.04	323.15	0.6	0.006577	0.001316
0.0299	323.15	0.6996	0.00705	0.001411
0.02	323.15	0.7993	0.007096	0.001421
0.01	323.15	0.9001	0.007122	0.001427
0.0902	333.15	0.1	0.002413	0.000486
0.08	333.15	0.2	0.003193	0.000641
0.0701	333.15	0.2998	0.003672	0.000736
0.06	333.15	0.4001	0.004182	0.000837
0.05	333.15	0.4996	0.004683	0.000937
0.04	333.15	0.6	0.004792	0.000959
0.0299	333.15	0.6996	0.004886	0.000978
0.02	333.15	0.7993	0.004944	0.00099
0.01	333.15	0.9001	0.004978	0.000997
0.18	293.15	0.0999	0.018969	0.003812
0.1598	293.15	0.1998	0.021463	0.004303
0.14	293.15	0.3	0.023507	0.004706
0.12	293.15	0.3999	0.024648	0.004934
0.1001	293.15	0.5	0.025244	0.005052
0.0801	293.15	0.6	0.025302	0.005063
0.06	293.15	0.6997	0.025391	0.005081
0.04	293.15	0.8001	0.025278	0.005059
0.0201	293.15	0.8996	0.024943	0.004992
0.18	303.15	0.0999	0.011794	0.002366
0.1598	303.15	0.1998	0.013143	0.002633
0.14	303.15	0.3	0.014384	0.002879
0.12	303.15	0.3999	0.014946	0.002991
0.1001	303.15	0.5	0.01525	0.003052
0.0801	303.15	0.6	0.015139	0.00303
0.06	303.15	0.6997	0.015262	0.003055
0.04	303.15	0.8001	0.015216	0.003046
0.0201	303.15	0.8996	0.015151	0.003034
0.18	313.15	0.0999	0.007302	0.001464
0.1598	313.15	0.1998	0.008466	0.001695
0.14	313.15	0.3	0.009158	0.001833
0.12	313.15	0.3999	0.009413	0.001884
0.1001	313.15	0.5	0.009851	0.001971
0.0801	313.15	0.6	0.009867	0.001975
0.06	313.15	0.6997	0.009999	0.002001
0.04	313.15	0.8001	0.009845	0.00197
0.0201	313.15	0.8996	0.009729	0.001948
0.18	323.15	0.0999	0.004902	0.000983
0.1598	323.15	0.1998	0.005814	0.001164
0.14	323.15	0.3	0.006257	0.001252
0.12	323.15	0.3999	0.006496	0.0013
0.1001	323.15	0.5	0.006791	0.001359
0.0801	323.15	0.6	0.006878	0.001376
0.06	323.15	0.6997	0.006971	0.001395
0.04	323.15	0.8001	0.007072	0.001415
0.0201	323.15	0.8996	0.007079	0.001417
0.18	333.15	0.0999	0.003387	0.000679
0.1598	333.15	0.1998	0.003857	0.000773
0.14	333.15	0.3	0.004207	0.000842
0.12	333.15	0.3999	0.004436	0.000888
0.1001	333.15	0.5	0.004623	0.000925
0.0801	333.15	0.6	0.004657	0.000932
0.06	333.15	0.6997	0.004772	0.000955
0.04	333.15	0.8001	0.004858	0.000973
0.0201	333.15	0.8996	0.004931	0.000987
0.269	293.15	0.0996	0.022272	0.004458
0.2399	293.15	0.1999	0.023631	0.004729
0.2098	293.15	0.2997	0.024407	0.004884
0.1798	293.15	0.3994	0.025095	0.005022
0.1484	293.15	0.4949	0.025294	0.005062
0.12	293.15	0.6001	0.025465	0.005096
0.09	293.15	0.6997	0.025334	0.00507
0.0599	293.15	0.7996	0.025188	0.005041
0.0301	293.15	0.9	0.024922	0.004988
0.269	303.15	0.0996	0.012882	0.002578
0.2399	303.15	0.1999	0.013278	0.002658
0.2098	303.15	0.2997	0.013626	0.002728
0.1798	303.15	0.3994	0.014098	0.002824
0.1484	303.15	0.4949	0.014421	0.002889
0.12	303.15	0.6001	0.014735	0.002951
0.09	303.15	0.6997	0.014851	0.002973
0.0599	303.15	0.7996	0.014908	0.002984
0.0301	303.15	0.9	0.014857	0.002974
0.269	313.15	0.0996	0.0078	0.001561
0.2399	313.15	0.1999	0.008435	0.001688
0.2098	313.15	0.2997	0.008719	0.001745
0.1798	313.15	0.3994	0.00911	0.001824
0.1484	313.15	0.4949	0.009247	0.001852
0.12	313.15	0.6001	0.009615	0.001925
0.09	313.15	0.6997	0.009729	0.001948
0.0599	313.15	0.7996	0.009814	0.001964
0.0301	313.15	0.9	0.009768	0.001957
0.269	323.15	0.0996	0.004975	0.000996
0.2399	323.15	0.1999	0.005708	0.001143
0.2098	323.15	0.2997	0.005993	0.0012
0.1798	323.15	0.3994	0.006305	0.001262
0.1484	323.15	0.4949	0.006599	0.001321
0.12	323.15	0.6001	0.006684	0.001338
0.09	323.15	0.6997	0.006752	0.001352
0.0599	323.15	0.7996	0.00689	0.001379
0.0301	323.15	0.9	0.006956	0.001392
0.269	333.15	0.0996	0.00363	0.000727
0.2399	333.15	0.1999	0.003768	0.000754
0.2098	333.15	0.2997	0.004025	0.000806
0.1798	333.15	0.3994	0.004241	0.000849
0.1484	333.15	0.4949	0.004425	0.000886
0.12	333.15	0.6001	0.004571	0.000915
0.09	333.15	0.6997	0.004688	0.000939
0.0599	333.15	0.7996	0.00475	0.000951
0.0301	333.15	0.9	0.004861	0.000973
0.3598	293.15	0.1	0.02195	0.004393
0.3201	293.15	0.2	0.023054	0.004615
0.2801	293.15	0.3	0.02365	0.004734
0.2399	293.15	0.3998	0.024009	0.004807
0.2	293.15	0.5	0.024419	0.004889
0.1598	293.15	0.5994	0.024528	0.004911
0.12	293.15	0.6999	0.024596	0.004925
0.0801	293.15	0.8001	0.024773	0.004961
0.0399	293.15	0.8991	0.024948	0.004994
0.3598	303.15	0.1	0.011693	0.002342
0.3201	303.15	0.2	0.011909	0.002385
0.2801	303.15	0.3	0.01201	0.002406
0.2399	303.15	0.3998	0.012473	0.002499
0.2	303.15	0.5	0.012882	0.002581
0.1598	303.15	0.5994	0.013552	0.002714
0.12	303.15	0.6999	0.014353	0.002875
0.0801	303.15	0.8001	0.014825	0.00297
0.0399	303.15	0.8991	0.014994	0.003001
0.3598	313.15	0.1	0.007067	0.001415
0.3201	313.15	0.2	0.007544	0.00151
0.2801	313.15	0.3	0.00766	0.001533
0.2399	313.15	0.3998	0.007915	0.001585
0.2	313.15	0.5	0.008448	0.001691
0.1598	313.15	0.5994	0.008877	0.001777
0.12	313.15	0.6999	0.009407	0.001884
0.0801	313.15	0.8001	0.009534	0.00191
0.0399	313.15	0.8991	0.010088	0.002019
0.3598	323.15	0.1	0.004459	0.000893
0.3201	323.15	0.2	0.004655	0.000932
0.2801	323.15	0.3	0.00517	0.001035
0.2399	323.15	0.3998	0.005426	0.001086
0.2	323.15	0.5	0.005923	0.001186
0.1598	323.15	0.5994	0.006199	0.001241
0.12	323.15	0.6999	0.006592	0.00132
0.0801	323.15	0.8001	0.006815	0.001365
0.0399	323.15	0.8991	0.007077	0.001419
0.3598	333.15	0.1	0.003113	0.000623
0.3201	333.15	0.2	0.003382	0.000677
0.2801	333.15	0.3	0.003705	0.000742
0.2399	333.15	0.3998	0.003853	0.000771
0.2	333.15	0.5	0.004004	0.000802
0.1598	333.15	0.5994	0.004223	0.000846
0.12	333.15	0.6999	0.004503	0.000902
0.0801	333.15	0.8001	0.004694	0.00094
0.0399	333.15	0.8991	0.005033	0.001007
0.45	293.15	0.1	0.019524	0.003912
0.4002	293.15	0.2001	0.019824	0.003974
0.3499	293.15	0.2999	0.020124	0.004037
0.3	293.15	0.4001	0.021199	0.004254
0.2498	293.15	0.4996	0.021602	0.004336
0.2	293.15	0.5998	0.022588	0.004534
0.1512	293.15	0.6992	0.022967	0.004607
0.1001	293.15	0.7998	0.02375	0.004762
0.05	293.15	0.9002	0.024311	0.004877
0.45	303.15	0.1	0.010476	0.002099
0.4002	303.15	0.2001	0.011022	0.002209
0.3499	303.15	0.2999	0.011705	0.002346
0.3	303.15	0.4001	0.011983	0.002402
0.2498	303.15	0.4996	0.01244	0.002491
0.2	303.15	0.5998	0.012753	0.002556
0.1512	303.15	0.6992	0.013291	0.002665
0.1001	303.15	0.7998	0.013982	0.0028
0.05	303.15	0.9002	0.014769	0.002957
0.45	313.15	0.1	0.006656	0.001333
0.4002	313.15	0.2001	0.007133	0.001428
0.3499	313.15	0.2999	0.007357	0.001473
0.3	313.15	0.4001	0.007774	0.001557
0.2498	313.15	0.4996	0.007977	0.001598
0.2	313.15	0.5998	0.008446	0.001692
0.1512	313.15	0.6992	0.008824	0.001768
0.1001	313.15	0.7998	0.009267	0.001855
0.05	313.15	0.9002	0.009674	0.001938
0.45	323.15	0.1	0.004473	0.000895
0.4002	323.15	0.2001	0.004674	0.000936
0.3499	323.15	0.2999	0.004842	0.00097
0.3	323.15	0.4001	0.005283	0.001058
0.2498	323.15	0.4996	0.005561	0.001114
0.2	323.15	0.5998	0.005956	0.001193
0.1512	323.15	0.6992	0.006217	0.001246
0.1001	323.15	0.7998	0.00654	0.001309
0.05	323.15	0.9002	0.006562	0.001314
0.45	333.15	0.1	0.003095	0.000619
0.4002	333.15	0.2001	0.003279	0.000656
0.3499	333.15	0.2999	0.003426	0.000686
0.3	333.15	0.4001	0.003745	0.00075
0.2498	333.15	0.4996	0.00393	0.000787
0.2	333.15	0.5998	0.004104	0.000822
0.1512	333.15	0.6992	0.004311	0.000863
0.1001	333.15	0.7998	0.004548	0.000911
0.05	333.15	0.9002	0.004866	0.000976
0.54	293.15	0.1	0.014355	0.002883
0.4799	293.15	0.1999	0.01481	0.002975
0.42	293.15	0.3	0.015046	0.003021
0.3604	293.15	0.3998	0.015655	0.003144
0.2999	293.15	0.4998	0.016371	0.003288
0.2399	293.15	0.5997	0.017779	0.00357
0.1803	293.15	0.7002	0.020044	0.004023
0.12	293.15	0.8002	0.021586	0.004334
0.0599	293.15	0.8992	0.023241	0.004666
0.54	303.15	0.1	0.008578	0.001721
0.4799	303.15	0.1999	0.009081	0.001821
0.42	303.15	0.3	0.00935	0.001875
0.3604	303.15	0.3998	0.009624	0.001929
0.2999	303.15	0.4998	0.010478	0.0021
0.2399	303.15	0.5997	0.011153	0.002235
0.1803	303.15	0.7002	0.012422	0.002489
0.12	303.15	0.8002	0.013394	0.002684
0.0599	303.15	0.8992	0.014597	0.002926
0.54	313.15	0.1	0.005137	0.001031
0.4799	313.15	0.1999	0.005817	0.001167
0.42	313.15	0.3	0.006323	0.001267
0.3604	313.15	0.3998	0.006571	0.001317
0.2999	313.15	0.4998	0.006794	0.001361
0.2399	313.15	0.5997	0.007533	0.001509
0.1803	313.15	0.7002	0.008282	0.001659
0.12	313.15	0.8002	0.008767	0.001756
0.0599	313.15	0.8992	0.009673	0.001939
0.54	323.15	0.1	0.004009	0.000803
0.4799	323.15	0.1999	0.00418	0.000838
0.42	323.15	0.3	0.004262	0.000854
0.3604	323.15	0.3998	0.004536	0.000909
0.2999	323.15	0.4998	0.00464	0.00093
0.2399	323.15	0.5997	0.005042	0.001011
0.1803	323.15	0.7002	0.005588	0.00112
0.12	323.15	0.8002	0.006176	0.001237
0.0599	323.15	0.8992	0.006816	0.001366
0.54	333.15	0.1	0.002835	0.000568
0.4799	333.15	0.1999	0.003021	0.000605
0.42	333.15	0.3	0.00307	0.000615
0.3604	333.15	0.3998	0.003251	0.000651
0.2999	333.15	0.4998	0.003369	0.000675
0.2399	333.15	0.5997	0.00368	0.000737
0.1803	333.15	0.7002	0.004026	0.000806
0.12	333.15	0.8002	0.004368	0.000875
0.0599	333.15	0.8992	0.004722	0.000946
0.6299	293.15	0.1001	0.010393	0.002086
0.5595	293.15	0.1998	0.010686	0.002145
0.4899	293.15	0.2999	0.011811	0.002368
0.4201	293.15	0.3999	0.014001	0.002805
0.3476	293.15	0.4967	0.015546	0.003113
0.2797	293.15	0.5995	0.016918	0.003388
0.2101	293.15	0.7003	0.018596	0.003727
0.1401	293.15	0.8002	0.020422	0.004094
0.07	293.15	0.8999	0.022515	0.004513
0.6299	303.15	0.1001	0.006562	0.001316
0.5595	303.15	0.1998	0.006835	0.001371
0.4899	303.15	0.2999	0.007797	0.001563
0.4201	303.15	0.3999	0.00899	0.001801
0.3476	303.15	0.4967	0.010065	0.002016
0.2797	303.15	0.5995	0.010713	0.002146
0.2101	303.15	0.7003	0.011743	0.002351
0.1401	303.15	0.8002	0.012757	0.002554
0.07	303.15	0.8999	0.013983	0.002804
0.6299	313.15	0.1001	0.003823	0.000766
0.5595	313.15	0.1998	0.004375	0.000877
0.4899	313.15	0.2999	0.005094	0.001021
0.4201	313.15	0.3999	0.005953	0.001193
0.3476	313.15	0.4967	0.006581	0.001318
0.2797	313.15	0.5995	0.00721	0.001444
0.2101	313.15	0.7003	0.007757	0.001553
0.1401	313.15	0.8002	0.008539	0.00171
0.07	313.15	0.8999	0.009129	0.001833
0.6299	323.15	0.1001	0.002749	0.000551
0.5595	323.15	0.1998	0.003175	0.000636
0.4899	323.15	0.2999	0.003597	0.00072
0.4201	323.15	0.3999	0.004163	0.000834
0.3476	323.15	0.4967	0.004586	0.000918
0.2797	323.15	0.5995	0.004931	0.000987
0.2101	323.15	0.7003	0.005501	0.001102
0.1401	323.15	0.8002	0.005967	0.001196
0.07	323.15	0.8999	0.006207	0.00125
0.6299	333.15	0.1001	0.002078	0.000416
0.5595	333.15	0.1998	0.002353	0.000471
0.4899	333.15	0.2999	0.002723	0.000545
0.4201	333.15	0.3999	0.00314	0.000629
0.3476	333.15	0.4967	0.003391	0.000679
0.2797	333.15	0.5995	0.003571	0.000715
0.2101	333.15	0.7003	0.003889	0.000779
0.1401	333.15	0.8002	0.004193	0.00084
0.07	333.15	0.8999	0.004677	0.000937
0.7197	293.15	0.1	0.007895	0.001582
0.6401	293.15	0.1999	0.00846	0.001695
0.5603	293.15	0.3001	0.010401	0.002083
0.4799	293.15	0.3998	0.011751	0.002354
0.3999	293.15	0.5	0.013479	0.0027
0.3199	293.15	0.5997	0.015476	0.0031
0.24	293.15	0.6999	0.017908	0.003586
0.16	293.15	0.8001	0.019556	0.003919
0.0801	293.15	0.8999	0.022117	0.004431
0.7197	303.15	0.1	0.005188	0.00104
0.6401	303.15	0.1999	0.005801	0.001162
0.5603	303.15	0.3001	0.006543	0.001311
0.4799	303.15	0.3998	0.007472	0.001497
0.3999	303.15	0.5	0.008762	0.001755
0.3199	303.15	0.5997	0.009771	0.001957
0.24	303.15	0.6999	0.011478	0.002299
0.16	303.15	0.8001	0.012684	0.002541
0.0801	303.15	0.8999	0.013765	0.002757
0.7197	313.15	0.1	0.003643	0.000729
0.6401	313.15	0.1999	0.003862	0.000773
0.5603	313.15	0.3001	0.004606	0.000922
0.4799	313.15	0.3998	0.005003	0.001002
0.3999	313.15	0.5	0.005954	0.001193
0.3199	313.15	0.5997	0.006553	0.001312
0.24	313.15	0.6999	0.007643	0.001531
0.16	313.15	0.8001	0.008254	0.001653
0.0801	313.15	0.8999	0.008952	0.001794
0.7197	323.15	0.1	0.002608	0.000522
0.6401	323.15	0.1999	0.002806	0.000562
0.5603	323.15	0.3001	0.003407	0.000682
0.4799	323.15	0.3998	0.003723	0.000745
0.3999	323.15	0.5	0.004155	0.000832
0.3199	323.15	0.5997	0.004655	0.000932
0.24	323.15	0.6999	0.005057	0.001013
0.16	323.15	0.8001	0.005627	0.001127
0.0801	323.15	0.8999	0.006104	0.001223
0.7197	333.15	0.1	0.001992	0.000399
0.6401	333.15	0.1999	0.002174	0.000435
0.5603	333.15	0.3001	0.002473	0.000495
0.4799	333.15	0.3998	0.002743	0.000549
0.3999	333.15	0.5	0.003043	0.000609
0.3199	333.15	0.5997	0.003383	0.000677
0.24	333.15	0.6999	0.003805	0.000762
0.16	333.15	0.8001	0.004161	0.000833
0.0801	333.15	0.8999	0.004542	0.00091
0.8096	293.15	0.1005	0.006608	0.001324
0.7193	293.15	0.1999	0.007774	0.001556
0.63	293.15	0.3	0.009013	0.001806
0.5399	293.15	0.3999	0.010764	0.002155
0.45	293.15	0.5	0.012577	0.002518
0.3596	293.15	0.5992	0.014285	0.002862
0.27	293.15	0.6996	0.016597	0.003326
0.18	293.15	0.8001	0.018843	0.003774
0.09	293.15	0.8998	0.021701	0.004348
0.8096	303.15	0.1005	0.004367	0.000874
0.7193	303.15	0.1999	0.005348	0.001071
0.63	303.15	0.3	0.005989	0.001199
0.5399	303.15	0.3999	0.007229	0.001448
0.45	303.15	0.5	0.008064	0.001614
0.3596	303.15	0.5992	0.009209	0.001843
0.27	303.15	0.6996	0.010501	0.002102
0.18	303.15	0.8001	0.011794	0.002361
0.09	303.15	0.8998	0.013486	0.002722
0.8096	313.15	0.1005	0.003105	0.000622
0.7193	313.15	0.1999	0.00356	0.000713
0.63	313.15	0.3	0.004205	0.000842
0.5399	313.15	0.3999	0.004861	0.000973
0.45	313.15	0.5	0.005379	0.001077
0.3596	313.15	0.5992	0.006274	0.001256
0.27	313.15	0.6996	0.00692	0.001385
0.18	313.15	0.8001	0.008022	0.001606
0.09	313.15	0.8998	0.008718	0.001754
0.8096	323.15	0.1005	0.002424	0.000485
0.7193	323.15	0.1999	0.002681	0.000537
0.63	323.15	0.3	0.003032	0.000607
0.5399	323.15	0.3999	0.003476	0.000696
0.45	323.15	0.5	0.003998	0.0008
0.3596	323.15	0.5992	0.004374	0.000875
0.27	323.15	0.6996	0.004963	0.000994
0.18	323.15	0.8001	0.00556	0.001114
0.09	323.15	0.8998	0.005954	0.001198
0.8096	333.15	0.1005	0.001826	0.000366
0.7193	333.15	0.1999	0.002021	0.000405
0.63	333.15	0.3	0.002333	0.000467
0.5399	333.15	0.3999	0.002684	0.000537
0.45	333.15	0.5	0.002941	0.000589
0.3596	333.15	0.5992	0.003215	0.000644
0.27	333.15	0.6996	0.003615	0.000724
0.18	333.15	0.8001	0.003983	0.000798
0.09	333.15	0.8998	0.004497	0.0009
