Measured thermophysical data. Experimental standard molar enthalpies of formation of some 4-alkoxybenzoic acids
Source: J. Chem. Thermodyn., 2010, 10.1016/j.jct.2009.08.007
Compound 1: carbon dioxide, CO2, InChI=1S/CO2/c2-1-3
Compound 2: water, H2O, InChI=1S/H2O/h1H2
Compound 3: oxygen, O2, InChI=1S/O2/c1-2
Compound 4: 4-ethoxybenzoic acid, C9H10O3, InChI=1S/C9H10O3/c1-2-12-8-5-3-7(4-6-8)9(10)11/h3-6H,2H2,1H3,(H,10,11), purity 98%
Compound 5: 4-butoxybenzoic acid, C11H14O3, InChI=1S/C11H14O3/c1-2-3-8-14-10-6-4-9(5-7-10)11(12)13/h4-7H,2-3,8H2,1H3,(H,12,13), purity 98%
Compound 6: 4-n-octyloxybenzoic acid, C15H22O3, InChI=1S/C15H22O3/c1-2-3-4-5-6-7-12-18-14-10-8-13(9-11-14)15(16)17/h8-11H,2-7,12H2,1H3,(H,16,17), purity 98%

Reaction: -1 4-ethoxybenzoic acid + 9 carbon dioxide + 5 water + -10 oxygen
Property: Specific internal energy of reaction at constant volume, J/g
-26253.77

Reaction: -1 4-butoxybenzoic acid + 11 carbon dioxide + 7 water + -13 oxygen
Property: Specific internal energy of reaction at constant volume, J/g
-29230.08

Reaction: -1 4-n-octyloxybenzoic acid + 15 carbon dioxide + 11 water + -19 oxygen
Property: Specific internal energy of reaction at constant volume, J/g
-33031.77
