Measured thermophysical data. Solubility of high-value compounds in environmentally friendly solvents liquid poly(ethylene glycol) and ionic liquids: Experimental study and thermodynamic analysis
Source: J. Chem. Thermodyn., 2014, 10.1016/j.jct.2013.10.036
Compound 1: 1-butyl-3-methylimidazolium bis(trifluoromethylsulfonyl)imide, C10H15F6N3O4S2, InChI=1S/C8H15N2.C2F6NO4S2/c1-3-4-5-10-7-6-9(2)8-10;3-1(4,5)14(10,11)9-15(12,13)2(6,7)8/h6-8H,3-5H2,1-2H3;/q+1;-1, purity 99%
Compound 2: 1-butyl-3-methylimidazolium trifluoromethanesulfonate, C9H15F3N2O3S, InChI=1S/C8H15N2.CHF3O3S/c1-3-4-5-10-7-6-9(2)8-10;2-1(3,4)8(5,6)7/h6-8H,3-5H2,1-2H3;(H,5,6,7)/q+1;/p-1, purity 99%
Compound 3: 3-methyl-6-isopropylphenol, C10H14O, InChI=1S/C10H14O/c1-7(2)9-5-4-8(3)6-10(9)11/h4-7,11H,1-3H3, purity 99.5%
Compound 4: 4-hydroxy-3-methoxycinnamic acid, C10H10O4, InChI=1S/C10H10O4/c1-14-9-6-7(2-4-8(9)11)3-5-10(12)13/h2-6,11H,1H3,(H,12,13), purity 99%
Compound 5: 4-hydroxy-3-methoxybenzoic acid, C8H8O4, InChI=1S/C8H8O4/c1-12-7-4-5(8(10)11)2-3-6(7)9/h2-4,9H,1H3,(H,10,11), purity 97%
Compound 6: caffeic acid, C9H8O4, InChI=1S/C9H8O4/c10-7-3-1-6(5-8(7)11)2-4-9(12)13/h1-5,10-11H,(H,12,13), purity 98%
Compound 7: caffeine, C8H10N4O2, InChI=1S/C8H10N4O2/c1-10-4-9-6-5(10)7(13)12(3)8(14)11(6)2/h4H,1-3H3, purity 99%

System: 3-methyl-6-isopropylphenol + 1-butyl-3-methylimidazolium trifluoromethanesulfonate; phases: Liquid, Crystal
Fixed: Pressure, kPa = 100
Property: Solid-liquid equilibrium temperature, K (Liquid); method: VISOBS
Mole fraction of 3-methyl-6-isopropylphenol	Solid-liquid equilibrium temperature, K	uncertainty
0.7642	301.4	0.8
0.7907	307.2	0.8
0.8183	312	0.8
0.8369	314.8	0.8
0.8689	318	0.8

System: 3-methyl-6-isopropylphenol + 1-butyl-3-methylimidazolium bis(trifluoromethylsulfonyl)imide; phases: Liquid, Crystal
Fixed: Pressure, kPa = 100
Property: Solid-liquid equilibrium temperature, K (Liquid); method: VISOBS
Mole fraction of 3-methyl-6-isopropylphenol	Solid-liquid equilibrium temperature, K	uncertainty
0.5812	301.7	0.8
0.6682	309.1	0.8
0.7383	314.3	0.8
0.8126	319.4	0.8
0.7815	317.1	0.8
0.8456	321.4	0.8

System: 4-hydroxy-3-methoxycinnamic acid + 1-butyl-3-methylimidazolium trifluoromethanesulfonate; phases: Liquid, Crystal
Fixed: Pressure, kPa = 100
Property: Solid-liquid equilibrium temperature, K (Liquid); method: VISOBS
Mole fraction of 4-hydroxy-3-methoxycinnamic acid	Solid-liquid equilibrium temperature, K	uncertainty
0.0985	300.1	1.3
0.1126	308.1	1.2
0.1499	322.5	1.2
0.1974	339	1.2
0.2565	356.6	1.2
0.306	368.3	1.2
0.3807	382.9	1.2
0.41	387.2	1.2

System: 4-hydroxy-3-methoxycinnamic acid + 1-butyl-3-methylimidazolium bis(trifluoromethylsulfonyl)imide; phases: Liquid, Crystal
Fixed: Pressure, kPa = 100
Property: Solid-liquid equilibrium temperature, K (Liquid); method: VISOBS
Mole fraction of 4-hydroxy-3-methoxycinnamic acid	Solid-liquid equilibrium temperature, K	uncertainty
0.0299	351.8	1.3
0.0523	367.9	1.3
0.0785	379.4	1.2
0.1055	389.4	1.2
0.1642	403.4	1.2

System: 4-hydroxy-3-methoxybenzoic acid + 1-butyl-3-methylimidazolium trifluoromethanesulfonate; phases: Liquid, Crystal
Fixed: Pressure, kPa = 100
Property: Solid-liquid equilibrium temperature, K (Liquid); method: VISOBS
Mole fraction of 4-hydroxy-3-methoxybenzoic acid	Solid-liquid equilibrium temperature, K	uncertainty
0.0694	300.2	1.1
0.1106	325.8	1.1
0.1407	339.3	1.1
0.1761	355.1	1
0.2494	375.6	1
0.3005	390.1	1
0.3923	410.5	1

System: 4-hydroxy-3-methoxybenzoic acid + 1-butyl-3-methylimidazolium bis(trifluoromethylsulfonyl)imide; phases: Liquid, Crystal
Fixed: Pressure, kPa = 100
Property: Solid-liquid equilibrium temperature, K (Liquid); method: VISOBS
Mole fraction of 4-hydroxy-3-methoxybenzoic acid	Solid-liquid equilibrium temperature, K	uncertainty
0.026	364.6	1.2
0.0431	380.1	1.2
0.0524	388.3	1.1
0.0762	400.6	1.1
0.1155	415.7	1.1

System: caffeic acid + 1-butyl-3-methylimidazolium trifluoromethanesulfonate; phases: Liquid, Crystal
Fixed: Pressure, kPa = 100
Property: Solid-liquid equilibrium temperature, K (Liquid); method: VISOBS
Mole fraction of caffeic acid	Solid-liquid equilibrium temperature, K	uncertainty
0.0455	307.1	1.2
0.0781	330.7	1.1
0.1105	346.1	1.1
0.1911	374.8	1
0.2525	387.9	1
0.2999	397.9	1

System: caffeic acid + 1-butyl-3-methylimidazolium bis(trifluoromethylsulfonyl)imide; phases: Liquid, Crystal
Fixed: Pressure, kPa = 100
Property: Solid-liquid equilibrium temperature, K (Liquid); method: VISOBS
Mole fraction of caffeic acid	Solid-liquid equilibrium temperature, K	uncertainty
0.0401	416.1	1.7
0.0306	400.2	1.8
0.021	380.7	2
0.0128	360.8	2.2

System: caffeine + 1-butyl-3-methylimidazolium trifluoromethanesulfonate; phases: Liquid, Crystal
Fixed: Pressure, kPa = 100
Property: Solid-liquid equilibrium temperature, K (Liquid); method: VISOBS
Mole fraction of caffeine	Solid-liquid equilibrium temperature, K	uncertainty
0.0304	329.4	1.1
0.0516	353.2	1.1
0.0932	378.3	1
0.1431	397.8	1

System: caffeine + 1-butyl-3-methylimidazolium bis(trifluoromethylsulfonyl)imide; phases: Liquid, Crystal
Fixed: Pressure, kPa = 100
Property: Solid-liquid equilibrium temperature, K (Liquid); method: VISOBS
Mole fraction of caffeine	Solid-liquid equilibrium temperature, K	uncertainty
0.051	348.8	1
0.091	370.8	1
0.1509	394.1	1
0.2147	410.4	1
0.2274	412.5	1
