Measured thermophysical data. Activity coefficients at infinite dilution measurements for organic solutes in the ionic liquid 1-butyl-3-methyl-imidazolium 2-(2-methoxyethoxy) ethyl sulfate using g.l.c. at T = (298.15, 303.15, and 308.15) K
Source: J. Chem. Thermodyn., 2005, 10.1016/j.jct.2005.01.015
Compound 1: pentane, C5H12, InChI=1S/C5H12/c1-3-5-4-2/h3-5H2,1-2H3
Compound 2: 1-butyl-3-methylimidazolium 2-(2-methoxyethoxy)ethyl sulfate, C13H26N2O6S, InChI=1S/C8H15N2.C5H12O6S/c1-3-4-5-10-7-6-9(2)8-10;1-9-2-3-10-4-5-11-12(6,7)8/h6-8H,3-5H2,1-2H3;2-5H2,1H3,(H,6,7,8)/q+1;/p-1, purity 98%
Compound 3: hexane, C6H14, InChI=1S/C6H14/c1-3-5-6-4-2/h3-6H2,1-2H3
Compound 4: heptane, C7H16, InChI=1S/C7H16/c1-3-5-7-6-4-2/h3-7H2,1-2H3
Compound 5: octane, C8H18, InChI=1S/C8H18/c1-3-5-7-8-6-4-2/h3-8H2,1-2H3
Compound 6: hex-1-ene, C6H12, InChI=1S/C6H12/c1-3-5-6-4-2/h3H,1,4-6H2,2H3
Compound 7: oct-1-ene, C8H16, InChI=1S/C8H16/c1-3-5-7-8-6-4-2/h3H,1,4-8H2,2H3
Compound 8: 1-hexyne, C6H10, InChI=1S/C6H10/c1-3-5-6-4-2/h1H,4-6H2,2H3
Compound 9: 1-heptyne, C7H12, InChI=1S/C7H12/c1-3-5-7-6-4-2/h1H,4-7H2,2H3
Compound 10: 1-octyne, C8H14, InChI=1S/C8H14/c1-3-5-7-8-6-4-2/h1H,4-8H2,2H3
Compound 11: cyclopentane, C5H10, InChI=1S/C5H10/c1-2-4-5-3-1/h1-5H2
Compound 12: cyclohexane, C6H12, InChI=1S/C6H12/c1-2-4-6-5-3-1/h1-6H2
Compound 13: cycloheptane, C7H14, InChI=1S/C7H14/c1-2-4-6-7-5-3-1/h1-7H2
Compound 14: benzene, C6H6, InChI=1S/C6H6/c1-2-4-6-5-3-1/h1-6H
Compound 15: toluene, C7H8, InChI=1S/C7H8/c1-7-5-3-2-4-6-7/h2-6H,1H3
Compound 16: tetrachloromethane, CCl4, InChI=1S/CCl4/c2-1(3,4)5
Compound 17: methanol, CH4O, InChI=1S/CH4O/c1-2/h2H,1H3

System: pentane + 1-butyl-3-methylimidazolium 2-(2-methoxyethoxy)ethyl sulfate; phases: Liquid
Fixed: Pressure, kPa = 101
Fixed: Mole fraction of pentane = 0
Property: Activity coefficient of pentane (Liquid); method: Chromatography
Temperature, K	Activity coefficient of pentane	uncertainty
298.15	61.7	2.9
303.15	57.1	2.7
308.15	54.9	2.6

System: hexane + 1-butyl-3-methylimidazolium 2-(2-methoxyethoxy)ethyl sulfate; phases: Liquid
Fixed: Pressure, kPa = 101
Fixed: Mole fraction of hexane = 0
Property: Activity coefficient of hexane (Liquid); method: Chromatography
Temperature, K	Activity coefficient of hexane	uncertainty
298.15	80.9	3.8
303.15	74.1	3.5
308.15	71.1	3.3

System: heptane + 1-butyl-3-methylimidazolium 2-(2-methoxyethoxy)ethyl sulfate; phases: Liquid
Fixed: Pressure, kPa = 101
Fixed: Mole fraction of heptane = 0
Property: Activity coefficient of heptane (Liquid); method: Chromatography
Temperature, K	Activity coefficient of heptane	uncertainty
298.15	111	5.2
303.15	99.99	4.69
308.15	94.5	4.4

System: octane + 1-butyl-3-methylimidazolium 2-(2-methoxyethoxy)ethyl sulfate; phases: Liquid
Fixed: Pressure, kPa = 101
Fixed: Mole fraction of octane = 0
Property: Activity coefficient of octane (Liquid); method: Chromatography
Temperature, K	Activity coefficient of octane	uncertainty
298.15	155.5	7.3
303.15	140.3	6.6
308.15	129.5	6.1

System: hex-1-ene + 1-butyl-3-methylimidazolium 2-(2-methoxyethoxy)ethyl sulfate; phases: Liquid
Fixed: Pressure, kPa = 101
Fixed: Mole fraction of hex-1-ene = 0
Property: Activity coefficient of hex-1-ene (Liquid); method: Chromatography
Temperature, K	Activity coefficient of hex-1-ene	uncertainty
298.15	35.1	1.6
303.15	32.9	1.5
308.15	31.4	1.5

System: oct-1-ene + 1-butyl-3-methylimidazolium 2-(2-methoxyethoxy)ethyl sulfate; phases: Liquid
Fixed: Pressure, kPa = 101
Fixed: Mole fraction of oct-1-ene = 0
Property: Activity coefficient of oct-1-ene (Liquid); method: Chromatography
Temperature, K	Activity coefficient of oct-1-ene	uncertainty
298.15	74.9	3.5
303.15	69.9	3.3
308.15	67.1	3.1

System: 1-hexyne + 1-butyl-3-methylimidazolium 2-(2-methoxyethoxy)ethyl sulfate; phases: Liquid
Fixed: Pressure, kPa = 101
Fixed: Mole fraction of 1-hexyne = 0
Property: Activity coefficient of 1-hexyne (Liquid); method: Chromatography
Temperature, K	Activity coefficient of 1-hexyne	uncertainty
298.15	4.83	0.22
303.15	4.74	0.22
308.15	4.91	0.22

System: 1-heptyne + 1-butyl-3-methylimidazolium 2-(2-methoxyethoxy)ethyl sulfate; phases: Liquid
Fixed: Pressure, kPa = 101
Fixed: Mole fraction of 1-heptyne = 0
Property: Activity coefficient of 1-heptyne (Liquid); method: Chromatography
Temperature, K	Activity coefficient of 1-heptyne	uncertainty
298.15	7.37	0.34
303.15	7.22	0.33
308.15	7.42	0.34

System: 1-octyne + 1-butyl-3-methylimidazolium 2-(2-methoxyethoxy)ethyl sulfate; phases: Liquid
Fixed: Pressure, kPa = 101
Fixed: Mole fraction of 1-octyne = 0
Property: Activity coefficient of 1-octyne (Liquid); method: Chromatography
Temperature, K	Activity coefficient of 1-octyne	uncertainty
298.15	11.7	0.5
303.15	11.4	0.5
308.15	11.6	0.5

System: cyclopentane + 1-butyl-3-methylimidazolium 2-(2-methoxyethoxy)ethyl sulfate; phases: Liquid
Fixed: Pressure, kPa = 101
Fixed: Mole fraction of cyclopentane = 0
Property: Activity coefficient of cyclopentane (Liquid); method: Chromatography
Temperature, K	Activity coefficient of cyclopentane	uncertainty
298.15	22.7	1.1
303.15	20.9	1
308.15	20.5	0.9

System: cyclohexane + 1-butyl-3-methylimidazolium 2-(2-methoxyethoxy)ethyl sulfate; phases: Liquid
Fixed: Pressure, kPa = 101
Fixed: Mole fraction of cyclohexane = 0
Property: Activity coefficient of cyclohexane (Liquid); method: Chromatography
Temperature, K	Activity coefficient of cyclohexane	uncertainty
298.15	34.4	1.6
303.15	31.5	1.5
308.15	30.3	1.4

System: cycloheptane + 1-butyl-3-methylimidazolium 2-(2-methoxyethoxy)ethyl sulfate; phases: Liquid
Fixed: Pressure, kPa = 101
Fixed: Mole fraction of cycloheptane = 0
Property: Activity coefficient of cycloheptane (Liquid); method: Chromatography
Temperature, K	Activity coefficient of cycloheptane	uncertainty
298.15	41.8	1.9
303.15	38.2	1.8
308.15	36.4	1.7

System: benzene + 1-butyl-3-methylimidazolium 2-(2-methoxyethoxy)ethyl sulfate; phases: Liquid
Fixed: Pressure, kPa = 101
Fixed: Mole fraction of benzene = 0
Property: Activity coefficient of benzene (Liquid); method: Chromatography
Temperature, K	Activity coefficient of benzene	uncertainty
298.15	2.04	0.09
303.15	2.02	0.09
308.15	2.03	0.09

System: toluene + 1-butyl-3-methylimidazolium 2-(2-methoxyethoxy)ethyl sulfate; phases: Liquid
Fixed: Pressure, kPa = 101
Fixed: Mole fraction of toluene = 0
Property: Activity coefficient of toluene (Liquid); method: Chromatography
Temperature, K	Activity coefficient of toluene	uncertainty
298.15	3.72	0.17
303.15	3.69	0.17
308.15	3.66	0.17

System: tetrachloromethane + 1-butyl-3-methylimidazolium 2-(2-methoxyethoxy)ethyl sulfate; phases: Liquid
Fixed: Pressure, kPa = 101
Fixed: Mole fraction of tetrachloromethane = 0
Property: Activity coefficient of tetrachloromethane (Liquid); method: Chromatography
Temperature, K	Activity coefficient of tetrachloromethane	uncertainty
298.15	2.81	0.13
303.15	2.85	0.13
308.15	2.91	0.13

System: methanol + 1-butyl-3-methylimidazolium 2-(2-methoxyethoxy)ethyl sulfate; phases: Liquid
Fixed: Pressure, kPa = 101
Fixed: Mole fraction of methanol = 0
Property: Activity coefficient of methanol (Liquid); method: Chromatography
Temperature, K	Activity coefficient of methanol	uncertainty
298.15	0.345	0.035
303.15	0.342	0.035
308.15	0.337	0.035
