Measured thermophysical data. Choline derivative ionic liquids-based aqueous two-phase systems: Phase diagrams and partition of purine alkaloids
Source: J. Chem. Thermodyn., 2018, 10.1016/j.jct.2017.10.017
Compound 1: N,N-bis(2-hydroxyethyl)-N-methylbutan-1-aminium bromide, C9H22BrNO2, InChI=1S/C9H22NO2.BrH/c1-3-4-5-10(2,6-8-11)7-9-12;/h11-12H,3-9H2,1-2H3;1H/q+1;/p-1, purity 99%
Compound 2: N,N-bis(2-hydroxyethyl)-N-methylhexan-1-aminium bromide, C11H26BrNO2, InChI=1S/C11H26NO2.BrH/c1-3-4-5-6-7-12(2,8-10-13)9-11-14;/h13-14H,3-11H2,1-2H3;1H/q+1;/p-1, purity 98%
Compound 3: N,N-bis(2-hydroxyethyl)-N-methyloctan-1-aminium bromide, C13H30BrNO2, InChI=1S/C13H30NO2.BrH/c1-3-4-5-6-7-8-9-14(2,10-12-15)11-13-16;/h15-16H,3-13H2,1-2H3;1H/q+1;/p-1, purity 98%
Compound 4: N,N-bis(2-hydroxyethyl)-N-methyldecan-1-aminium bromide, C15H34BrNO2, InChI=1S/C15H34NO2.BrH/c1-3-4-5-6-7-8-9-10-11-16(2,12-14-17)13-15-18;/h17-18H,3-15H2,1-2H3;1H/q+1;/p-1, purity 98%
Compound 5: N-butyl-N,N-bis(2-hydroxyethyl)butan-1-aminium bromide, C12H28BrNO2, InChI=1S/C12H28NO2.BrH/c1-3-5-7-13(9-11-14,10-12-15)8-6-4-2;/h14-15H,3-12H2,1-2H3;1H/q+1;/p-1, purity 97%
Compound 6: water, H2O, InChI=1S/H2O/h1H2
Compound 7: tripotassium phosphate, K3O4P, InChI=1S/3K.H3O4P/c;;;1-5(2,3)4/h;;;(H3,1,2,3,4)/q3*+1;/p-3, purity 99%
Compound 8: potassium carbonate, CK2O3, InChI=1S/CH2O3.2K/c2-1(3)4;;/h(H2,2,3,4);;/q;2*+1/p-2, purity 99%
Compound 9: potassium citrate, C6H5K3O7, InChI=1S/C6H8O7.3K/c7-3(8)1-6(13,5(11)12)2-4(9)10;;;/h13H,1-2H2,(H,7,8)(H,9,10)(H,11,12);;;/q;3*+1/p-3, purity 99%

System: N,N-bis(2-hydroxyethyl)-N-methylbutan-1-aminium bromide; phases: Glass, Liquid, Air at 1 atmosphere
Property: Triple point temperature, K (Glass); method: DSC
Triple point temperature, K	uncertainty
224	6

System: N,N-bis(2-hydroxyethyl)-N-methylhexan-1-aminium bromide; phases: Glass, Liquid, Air at 1 atmosphere
Property: Triple point temperature, K (Glass); method: DSC
Triple point temperature, K	uncertainty
226	6

System: N,N-bis(2-hydroxyethyl)-N-methyloctan-1-aminium bromide; phases: Crystal, Liquid, Air at 1 atmosphere
Property: Normal melting temperature, K (Crystal); method: DTA
Normal melting temperature, K	uncertainty
300	6

System: N,N-bis(2-hydroxyethyl)-N-methyldecan-1-aminium bromide; phases: Crystal, Liquid, Air at 1 atmosphere
Property: Normal melting temperature, K (Crystal); method: DTA
Normal melting temperature, K	uncertainty
320	6

System: N-butyl-N,N-bis(2-hydroxyethyl)butan-1-aminium bromide; phases: Glass, Liquid, Air at 1 atmosphere
Property: Triple point temperature, K (Glass); method: DSC
Triple point temperature, K	uncertainty
223	6

System: water + potassium carbonate + N,N-bis(2-hydroxyethyl)-N-methylbutan-1-aminium bromide; phases: Liquid mixture 1, Liquid mixture 2
Fixed: Temperature, K = 298.2
Fixed: Pressure, kPa = 100
Property: Mass fraction of potassium carbonate (Liquid mixture 1); method: Titration method
Mass fraction of N,N-bis(2-hydroxyethyl)-N-methylbutan-1-aminium bromide	Mass fraction of potassium carbonate	uncertainty
0.3257	0.1747	0.0066
0.2303	0.2183	0.0076
0.1727	0.2542	0.0086
0.1378	0.2751	0.0091
0.1121	0.2937	0.0096
0.0942	0.3056	0.01
0.0765	0.3207	0.0106
0.0635	0.3334	0.0111
0.054	0.3434	0.0115
0.0473	0.3515	0.012
0.0419	0.3583	0.0121
0.0375	0.3633	0.0125
0.0333	0.3699	0.013
0.0301	0.3749	0.0132
0.0276	0.3786	0.0132
0.0253	0.3822	0.0134
0.0237	0.3841	0.0132
0.022	0.3872	0.0135
0.0203	0.3903	0.0137

System: water + potassium carbonate + N,N-bis(2-hydroxyethyl)-N-methylhexan-1-aminium bromide; phases: Liquid mixture 1, Liquid mixture 2
Fixed: Temperature, K = 298.2
Fixed: Pressure, kPa = 100
Property: Mass fraction of potassium carbonate (Liquid mixture 1); method: Titration method
Mass fraction of N,N-bis(2-hydroxyethyl)-N-methylhexan-1-aminium bromide	Mass fraction of potassium carbonate	uncertainty
0.2381	0.1963	0.0071
0.1788	0.2267	0.0079
0.142	0.2488	0.0085
0.1082	0.2731	0.0092
0.0884	0.288	0.0097
0.0725	0.3027	0.0102
0.0625	0.3126	0.0106
0.0545	0.3218	0.011
0.0477	0.3301	0.0115
0.0404	0.3402	0.012
0.0352	0.348	0.0126
0.0301	0.3569	0.0132
0.026	0.3644	0.014
0.0231	0.3708	0.0145
0.021	0.3757	0.0154
0.0184	0.3829	0.0157
0.0161	0.3894	0.0165

System: water + potassium carbonate + N,N-bis(2-hydroxyethyl)-N-methyloctan-1-aminium bromide; phases: Liquid mixture 1, Liquid mixture 2
Fixed: Temperature, K = 298.2
Fixed: Pressure, kPa = 100
Property: Mass fraction of potassium carbonate (Liquid mixture 1); method: Titration method
Mass fraction of N,N-bis(2-hydroxyethyl)-N-methyloctan-1-aminium bromide	Mass fraction of potassium carbonate	uncertainty
0.2879	0.1839	0.0068
0.2226	0.2134	0.0075
0.178	0.2364	0.0081
0.1491	0.2516	0.0085
0.1259	0.2653	0.0088
0.1103	0.2754	0.0092
0.0981	0.2841	0.0095
0.0859	0.294	0.0098
0.0754	0.3026	0.0101
0.0669	0.3106	0.0103
0.0614	0.3156	0.0106
0.056	0.3216	0.011
0.0515	0.327	0.0112
0.0476	0.3309	0.0113
0.0432	0.3368	0.0117
0.0397	0.3408	0.0118
0.0365	0.3454	0.012
0.0335	0.3498	0.0125
0.0308	0.3539	0.0125
0.0284	0.3583	0.0129

System: water + potassium carbonate + N,N-bis(2-hydroxyethyl)-N-methyldecan-1-aminium bromide; phases: Liquid mixture 1, Liquid mixture 2
Fixed: Temperature, K = 298.2
Fixed: Pressure, kPa = 100
Property: Mass fraction of potassium carbonate (Liquid mixture 1); method: Titration method
Mass fraction of N,N-bis(2-hydroxyethyl)-N-methyldecan-1-aminium bromide	Mass fraction of potassium carbonate	uncertainty
0.1718	0.2144	0.0076
0.1411	0.2324	0.008
0.121	0.2441	0.0083
0.1038	0.255	0.0087
0.0904	0.2654	0.009
0.0801	0.2728	0.0092
0.0717	0.2793	0.0095
0.0645	0.2866	0.0098
0.0584	0.2922	0.01
0.0533	0.2977	0.0104
0.0489	0.3029	0.0105
0.0449	0.3073	0.0107
0.0417	0.3111	0.0109
0.0387	0.315	0.0111
0.0359	0.3191	0.0114
0.0334	0.3228	0.0117
0.031	0.3264	0.0117
0.0285	0.3304	0.012

System: water + potassium carbonate + N-butyl-N,N-bis(2-hydroxyethyl)butan-1-aminium bromide; phases: Liquid mixture 1, Liquid mixture 2
Fixed: Temperature, K = 298.2
Fixed: Pressure, kPa = 100
Property: Mass fraction of potassium carbonate (Liquid mixture 1); method: Titration method
Mass fraction of N-butyl-N,N-bis(2-hydroxyethyl)butan-1-aminium bromide	Mass fraction of potassium carbonate	uncertainty
0.485	0.0751	0.0046
0.3646	0.1024	0.005
0.2881	0.1255	0.0055
0.2354	0.1459	0.0059
0.1971	0.1603	0.0062
0.1688	0.1716	0.0065
0.1488	0.1801	0.0067
0.1313	0.1894	0.007
0.1179	0.1951	0.0071
0.1056	0.2023	0.0073
0.0936	0.2083	0.0074
0.0845	0.2128	0.0075
0.0766	0.2173	0.0078
0.0697	0.2226	0.008
0.0634	0.2272	0.008
0.058	0.2302	0.0082
0.053	0.2353	0.0084
0.0483	0.2382	0.0088
0.0441	0.2444	0.0092
0.04	0.2478	0.0087

System: water + tripotassium phosphate + N,N-bis(2-hydroxyethyl)-N-methylhexan-1-aminium bromide; phases: Liquid mixture 1, Liquid mixture 2
Fixed: Temperature, K = 298.2
Fixed: Pressure, kPa = 100
Property: Mass fraction of tripotassium phosphate (Liquid mixture 1); method: Titration method
Mass fraction of N,N-bis(2-hydroxyethyl)-N-methylhexan-1-aminium bromide	Mass fraction of tripotassium phosphate	uncertainty
0.5267	0.0866	0.0049
0.4161	0.1222	0.0055
0.3243	0.16	0.0064
0.2494	0.2051	0.0074
0.1905	0.2351	0.008
0.1525	0.2562	0.0086
0.1277	0.2701	0.0089
0.11	0.2791	0.0092
0.0952	0.2897	0.0095
0.0841	0.2965	0.0097
0.0749	0.3037	0.0099
0.0677	0.3085	0.0101
0.0609	0.3148	0.0103
0.0561	0.3176	0.0103
0.0515	0.3216	0.0107
0.0474	0.326	0.0108
0.0439	0.3293	0.011
0.0412	0.3316	0.0111
0.0383	0.3353	0.0113
0.036	0.3378	0.0115
0.0338	0.3403	0.0114

System: water + potassium citrate + N,N-bis(2-hydroxyethyl)-N-methylhexan-1-aminium bromide; phases: Liquid mixture 1, Liquid mixture 2
Fixed: Temperature, K = 298.2
Fixed: Pressure, kPa = 100
Property: Mass fraction of potassium citrate (Liquid mixture 1); method: Titration method
Mass fraction of N,N-bis(2-hydroxyethyl)-N-methylhexan-1-aminium bromide	Mass fraction of potassium citrate	uncertainty
0.4876	0.1264	0.0057
0.3773	0.1825	0.0069
0.309	0.2269	0.008
0.2715	0.2532	0.0087
0.237	0.2763	0.0093
0.2096	0.2987	0.0099
0.1846	0.3189	0.0105
0.1622	0.3391	0.0111
0.1425	0.3582	0.0119
0.124	0.3791	0.0126
0.1063	0.4004	0.0133
