Measured thermophysical data. Phase equilibrium properties of binary aqueous solutions containing ethanediamine, 1,2-diaminopropane, 1,3-diaminopropane, or 1,4-diaminobutane at several temperatures
Source: J. Chem. Thermodyn., 2011, 10.1016/j.jct.2010.12.010
Compound 1: water, H2O, InChI=1S/H2O/h1H2, purity 99.9%
Compound 2: 1,4-butanediamine, C4H12N2, InChI=1S/C4H12N2/c5-3-1-2-4-6/h1-6H2, purity 99%
Compound 3: ethane-1,2-diamine, C2H8N2, InChI=1S/C2H8N2/c3-1-2-4/h1-4H2, purity 99%
Compound 4: 1,3-propanediamine, C3H10N2, InChI=1S/C3H10N2/c4-2-1-3-5/h1-5H2, purity 99%
Compound 5: 1,2-propanediamine, C3H10N2, InChI=1S/C3H10N2/c1-3(5)2-4/h3H,2,4-5H2,1H3, purity 99%

System: water; phases: Liquid, Gas
Property: Vapor or sublimation pressure, kPa (Liquid); method: Manometric method
Temperature, K	Vapor or sublimation pressure, kPa	uncertainty
285.15	1.3623	0.0808
295.14	2.5624	0.0839
315.19	8.0196	0.0971
325.11	13.5028	0.1123
325.11	13.5264	0.1123
325.13	13.4988	0.1123
325.13	13.5159	0.1123
325.13	13.5198	0.1123
325.13	13.5264	0.1123
335.12	21.768	0.1344
345.05	33.8377	0.1669
345.07	33.8509	0.1669
345.07	33.843	0.1669
355.03	51.1521	0.2132
355.03	51.1495	0.2132
364.97	75.1327	0.27
364.97	75.119	0.2699
364.97	75.1489	0.2701
364.97	75.145	0.27
364.97	75.1462	0.27

System: water; phases: Liquid, Gas
Property: Vapor or sublimation pressure, kPa (Liquid); method: Manometric method
Temperature, K	Vapor or sublimation pressure, kPa	uncertainty
293.15	2.2767	0.0828
303.15	4.1655	0.0873
313.15	7.2843	0.0947
323.15	12.2349	0.1067
323.15	12.2348	0.1067
333.15	19.8211	0.125
343.15	31.0855	0.1523
343.15	31.0854	0.1523
353.15	47.3438	0.1918
363.15	70.2182	0.2453
363.15	70.2181	0.2453

System: 1,4-butanediamine; phases: Liquid, Gas
Property: Vapor or sublimation pressure, kPa (Liquid); method: Manometric method
Temperature, K	Vapor or sublimation pressure, kPa	uncertainty
284.92	0.1292	0.0778
284.92	0.1296	0.0778
284.92	0.1292	0.0778
312.83	0.54	0.0787
332.86	1.2757	0.0804
342.85	1.7026	0.0815
352.87	2.6909	0.0839
352.87	2.6917	0.0839
362.86	3.8132	0.0865
362.86	3.7943	0.0865
362.86	3.7973	0.0865
362.88	3.7999	0.0865
362.9	3.8073	0.0865

System: 1,4-butanediamine; phases: Liquid, Gas
Property: Vapor or sublimation pressure, kPa (Liquid); method: Manometric method
Temperature, K	Vapor or sublimation pressure, kPa	uncertainty
293.15	0.2012	0.0779
303.15	0.3324	0.0782
313.15	0.5322	0.0787
323.15	0.8282	0.0794
333.15	1.2556	0.0804
343.15	1.8588	0.0819
353.15	2.6924	0.0839
363.15	3.8223	0.0867

System: ethane-1,2-diamine; phases: Liquid, Gas
Property: Vapor or sublimation pressure, kPa (Liquid); method: Manometric method
Temperature, K	Vapor or sublimation pressure, kPa	uncertainty
285.5	0.659	0.0791
305.44	2.559	0.0836
315.43	4.4836	0.0886
315.48	4.4851	0.0886
326.2	7.8271	0.0972
335.88	12.4078	0.1098
345.7	19.7212	0.1297
345.7	19.7304	0.1298
345.7	19.737	0.1298
345.7	19.7409	0.1298
345.7	19.7422	0.1298
345.7	19.7343	0.1298
355.67	29.8489	0.1575
355.67	29.8451	0.1574
355.67	29.8325	0.1574
355.67	29.8492	0.1575
355.69	29.8417	0.1574
365.6	43.8173	0.193
365.6	43.8055	0.1929
365.6	43.8278	0.193
365.6	43.8584	0.1931
365.63	43.8226	0.193
365.63	43.8272	0.193
365.63	43.815	0.1929

System: ethane-1,2-diamine; phases: Liquid, Gas
Property: Vapor or sublimation pressure, kPa (Liquid); method: Manometric method
Temperature, K	Vapor or sublimation pressure, kPa	uncertainty
293.15	1.1388	0.0802
303.15	2.179	0.0827
313.15	3.9372	0.0871
323.15	6.7673	0.0944
333.15	11.1324	0.1063
343.15	17.6164	0.1245
353.15	26.9342	0.1517
363.15	39.9362	0.1899

System: 1,3-propanediamine; phases: Liquid, Gas
Property: Vapor or sublimation pressure, kPa (Liquid); method: Manometric method
Temperature, K	Vapor or sublimation pressure, kPa	uncertainty
284.84	0.3186	0.0782
284.84	0.3177	0.0782
294.82	0.5842	0.0788
314.79	1.8295	0.0818
324.9	3.1452	0.0851
334.87	5.175	0.0902
344.87	8.2629	0.0982
354.83	12.6747	0.11
364.78	19.4717	0.1272

System: 1,3-propanediamine; phases: Liquid, Gas
Property: Vapor or sublimation pressure, kPa (Liquid); method: Manometric method
Temperature, K	Vapor or sublimation pressure, kPa	uncertainty
293.15	0.5332	0.0787
303.15	0.9648	0.0797
313.15	1.6879	0.0815
323.15	2.863	0.0844
333.15	4.72	0.0891
343.15	7.5803	0.0965
353.15	11.883	0.1083
363.15	18.2156	0.1258

System: 1,2-propanediamine; phases: Liquid, Gas
Property: Vapor or sublimation pressure, kPa (Liquid); method: Manometric method
Temperature, K	Vapor or sublimation pressure, kPa	uncertainty
284.01	0.5922	0.0789
293.98	1.1465	0.0802
293.98	1.147	0.0802
293.98	1.1454	0.0802
303.91	2.1005	0.0825
303.91	2.1002	0.0825
303.91	2.0976	0.0825
313.84	3.6667	0.0865
313.84	3.669	0.0865
313.84	3.6588	0.0864
324.02	6.2381	0.093
334	10.1128	0.1062
363.91	36.3052	0.1695
363.91	36.3292	0.1696

System: 1,2-propanediamine; phases: Liquid, Gas
Property: Vapor or sublimation pressure, kPa (Liquid); method: Manometric method
Temperature, K	Vapor or sublimation pressure, kPa	uncertainty
293.15	1.0849	0.08
303.15	2.0042	0.0823
313.15	3.5354	0.0861
323.15	5.9848	0.0924
333.15	9.7645	0.1025
343.15	15.4123	0.1182
353.15	23.6109	0.1419
363.15	35.2064	0.1757

System: ethane-1,2-diamine + water; phases: Liquid, Gas
Property: Vapor or sublimation pressure, kPa (Liquid); method: Manometric method
Temperature, K	Mole fraction of ethane-1,2-diamine	Vapor or sublimation pressure, kPa	uncertainty
293.15	0	2.2767	0.0828
293.15	0.1003	1.8804	0.0819
293.15	0.1998	1.2871	0.0805
293.15	0.2968	0.8368	0.0794
293.15	0.3996	0.668	0.079
293.15	0.4992	0.6856	0.0791
293.15	0.6	0.8089	0.0794
293.15	0.6999	0.8846	0.0795
293.15	0.7987	1.015	0.0799
293.15	0.8995	1.0692	0.08
293.15	1	1.1388	0.0802
303.15	0	4.1655	0.0873
303.15	0.1003	3.4397	0.0856
303.15	0.1998	2.3959	0.0832
303.15	0.2968	1.6136	0.0813
303.15	0.3996	1.3272	0.0806
303.15	0.4992	1.346	0.0806
303.15	0.6	1.5462	0.0811
303.15	0.6999	1.6703	0.0814
303.15	0.7987	1.8842	0.0819
303.15	0.8995	2.0544	0.0824
303.15	1	2.179	0.0827
313.15	0	7.2843	0.0947
313.15	0.1003	6.0227	0.0919
313.15	0.1998	4.2613	0.0877
313.15	0.2968	2.9792	0.0846
313.15	0.3996	2.5129	0.0834
313.15	0.4992	2.5178	0.0834
313.15	0.6	2.8275	0.0842
313.15	0.6999	3.0227	0.0847
313.15	0.7987	3.3566	0.0855
313.15	0.8995	3.6521	0.0863
313.15	1	3.9372	0.0871
323.15	0	12.2349	0.1067
323.15	0.1003	10.1403	0.1021
323.15	0.1998	7.277	0.0953
323.15	0.2968	5.2884	0.0902
323.15	0.3996	4.5569	0.0883
323.15	0.4992	4.5101	0.0882
323.15	0.6	4.9683	0.0894
323.15	0.6999	5.2643	0.0902
323.15	0.7987	5.7612	0.0916
323.15	0.8995	6.2645	0.093
323.15	1	6.7673	0.0944
333.15	0	19.8211	0.125
333.15	0.1003	16.4825	0.1181
333.15	0.1998	11.9814	0.1072
333.15	0.2968	9.059	0.0995
333.15	0.3996	7.948	0.0966
333.15	0.4992	7.7699	0.0963
333.15	0.6	8.4212	0.098
333.15	0.6999	8.8549	0.0993
333.15	0.7987	9.5603	0.1014
333.15	0.8995	10.3644	0.1038
333.15	1	11.1324	0.1063
343.15	0	31.0855	0.1523
343.15	0.1003	25.9544	0.1421
343.15	0.1998	19.0887	0.1255
343.15	0.2968	15.0228	0.1145
343.15	0.3996	13.3824	0.1102
343.15	0.4992	12.9231	0.1092
343.15	0.6	13.8146	0.1118
343.15	0.6999	14.4312	0.1139
343.15	0.7987	15.3855	0.117
343.15	0.8995	16.5975	0.121
343.15	1	17.6164	0.1245
353.15	0	47.3438	0.1918
353.15	0.1003	39.7119	0.1772
353.15	0.1998	29.5207	0.1525
353.15	0.2968	24.1868	0.1376
353.15	0.3996	21.8231	0.1316
353.15	0.4992	20.8192	0.1294
353.15	0.6	21.998	0.1332
353.15	0.6999	22.8516	0.1364
353.15	0.7987	24.0773	0.1409
353.15	0.8995	25.8056	0.1471
353.15	1	26.9342	0.1517
363.15	0	70.2182	0.2453
363.15	0.1003	59.197	0.2252
363.15	0.1998	44.4385	0.1908
363.15	0.2968	37.9012	0.1716
363.15	0.3996	34.5656	0.1634
363.15	0.4992	32.5819	0.1594
363.15	0.6	34.091	0.1645
363.15	0.6999	35.2449	0.1694
363.15	0.7987	36.7284	0.1756
363.15	0.8995	39.0594	0.1845
363.15	1	39.9362	0.1899

System: 1,2-propanediamine + water; phases: Liquid, Gas
Property: Vapor or sublimation pressure, kPa (Liquid); method: Manometric method
Temperature, K	Mole fraction of 1,2-propanediamine	Vapor or sublimation pressure, kPa	uncertainty
293.15	0	2.2767	0.0828
293.15	0.1248	1.7212	0.0815
293.15	0.2484	1.12	0.0801
293.15	0.3585	0.8674	0.0795
293.15	0.4982	0.822	0.0794
293.15	0.6076	0.8691	0.0795
293.15	0.7442	0.98	0.0798
293.15	0.869	1.067	0.08
293.15	1	1.0849	0.08
303.15	0	4.1655	0.0873
303.15	0.1248	3.1593	0.085
303.15	0.2484	2.1437	0.0825
303.15	0.3585	1.6895	0.0814
303.15	0.4982	1.5972	0.0812
303.15	0.6076	1.6576	0.0814
303.15	0.7442	1.8495	0.0818
303.15	0.869	1.9839	0.0822
303.15	1	2.0042	0.0823
313.15	0	7.2843	0.0947
313.15	0.1248	5.5726	0.0908
313.15	0.2484	3.9217	0.0868
313.15	0.3585	3.1471	0.0849
313.15	0.4982	2.9655	0.0845
313.15	0.6076	3.024	0.0847
313.15	0.7442	3.33	0.0854
313.15	0.869	3.5205	0.086
313.15	1	3.5354	0.0861
323.15	0	12.2348	0.1067
323.15	0.1248	9.4817	0.1004
323.15	0.2484	6.8886	0.0941
323.15	0.3585	5.6306	0.0909
323.15	0.4982	5.2851	0.0901
323.15	0.6076	5.301	0.0902
323.15	0.7442	5.7485	0.0915
323.15	0.869	5.9924	0.0922
323.15	1	5.9848	0.0924
333.15	0	19.8211	0.125
333.15	0.1248	15.6139	0.1157
333.15	0.2484	11.6642	0.106
333.15	0.3585	9.7129	0.101
333.15	0.4982	9.0767	0.0995
333.15	0.6076	8.9629	0.0994
333.15	0.7442	9.5563	0.1012
333.15	0.869	9.8272	0.1022
333.15	1	9.7645	0.1025
343.15	0	31.0854	0.1523
343.15	0.1248	24.958	0.1392
343.15	0.2484	19.1055	0.1248
343.15	0.3585	16.208	0.1173
343.15	0.4982	15.0735	0.1147
343.15	0.6076	14.6668	0.114
343.15	0.7442	15.3564	0.1165
343.15	0.869	15.5854	0.1178
343.15	1	15.4123	0.1182
353.15	0	47.3438	0.1918
353.15	0.1248	38.8243	0.174
353.15	0.2484	30.3641	0.1534
353.15	0.3585	26.2411	0.1428
353.15	0.4982	24.2792	0.1385
353.15	0.6076	23.2969	0.1367
353.15	0.7442	23.9322	0.1397
353.15	0.869	23.9828	0.1412
353.15	1	23.6109	0.1419
363.15	0	70.2181	0.2453
363.15	0.1248	58.9104	0.2226
363.15	0.2484	46.9492	0.1949
363.15	0.3585	41.3267	0.1805
363.15	0.4982	38.032	0.1735
363.15	0.6076	36.0143	0.1699
363.15	0.7442	36.2758	0.1728
363.15	0.869	35.9105	0.1745
363.15	1	35.2064	0.1757

System: 1,3-propanediamine + water; phases: Liquid, Gas
Property: Vapor or sublimation pressure, kPa (Liquid); method: Manometric method
Temperature, K	Mole fraction of 1,3-propanediamine	Vapor or sublimation pressure, kPa	uncertainty
293.15	0	2.2767	0.0828
293.15	0.125	1.7581	0.0816
293.15	0.2495	1.1372	0.0801
293.15	0.375	0.9296	0.0796
293.15	0.4992	0.8182	0.0794
293.15	0.6248	0.8408	0.0794
293.15	0.7442	0.7942	0.0793
293.15	0.8736	0.7184	0.0791
293.15	1	0.5332	0.0787
303.15	0	4.1655	0.0873
303.15	0.125	3.1984	0.0851
303.15	0.2495	2.1071	0.0824
303.15	0.375	1.6942	0.0814
303.15	0.4992	1.4505	0.0809
303.15	0.6248	1.4081	0.0808
303.15	0.7442	1.3341	0.0806
303.15	0.8736	1.2216	0.0803
303.15	1	0.9648	0.0797
313.15	0	7.2843	0.0947
313.15	0.125	5.5892	0.0909
313.15	0.2495	3.7358	0.0864
313.15	0.375	2.9758	0.0845
313.15	0.4992	2.4969	0.0834
313.15	0.6248	2.3329	0.083
313.15	0.7442	2.2037	0.0827
313.15	0.8736	2.0367	0.0823
313.15	1	1.6879	0.0815
323.15	0	12.2348	0.1067
323.15	0.125	9.4184	0.1003
323.15	0.2495	6.3661	0.0929
323.15	0.375	5.0538	0.0895
323.15	0.4992	4.1826	0.0874
323.15	0.6248	3.8247	0.0866
323.15	0.7442	3.5823	0.086
323.15	0.8736	3.3332	0.0855
323.15	1	2.863	0.0844
333.15	0	19.8211	0.125
333.15	0.125	15.3575	0.1153
333.15	0.2495	10.4688	0.1031
333.15	0.375	8.3229	0.0976
333.15	0.4992	6.8319	0.0939
333.15	0.6248	6.2068	0.0925
333.15	0.7442	5.7352	0.0914
333.15	0.8736	5.3597	0.0906
333.15	1	4.72	0.0891
343.15	0	31.0854	0.1523
343.15	0.125	24.3044	0.1381
343.15	0.2495	16.6706	0.119
343.15	0.375	13.3266	0.1102
343.15	0.4992	10.901	0.1041
343.15	0.6248	9.9737	0.102
343.15	0.7442	9.0493	0.0998
343.15	0.8736	8.4756	0.0986
343.15	1	7.5803	0.0965
353.15	0	47.3438	0.1918
353.15	0.125	37.4306	0.1718
353.15	0.2495	25.7837	0.1427
353.15	0.375	20.7944	0.1292
353.15	0.4992	17.0184	0.1197
353.15	0.6248	15.8743	0.1173
353.15	0.7442	14.0817	0.1131
353.15	0.8736	13.1927	0.1113
353.15	1	11.883	0.1083
363.15	0	70.2181	0.2453
363.15	0.125	56.2297	0.2183
363.15	0.2495	38.8362	0.1772
363.15	0.375	31.6854	0.1566
363.15	0.4992	26.0352	0.1429
363.15	0.6248	25.0323	0.1408
363.15	0.7442	21.6239	0.1332
363.15	0.8736	20.2288	0.1304
363.15	1	18.2156	0.1258

System: 1,4-butanediamine + water; phases: Liquid, Gas
Property: Vapor or sublimation pressure, kPa (Liquid); method: Manometric method
Temperature, K	Mole fraction of 1,4-butanediamine	Vapor or sublimation pressure, kPa	uncertainty
293.15	0	2.2767	0.0828
293.15	0.129	1.7659	0.0816
293.15	0.2505	1.0596	0.08
293.15	0.3766	0.6866	0.0791
293.15	0.4985	0.4931	0.0786
293.15	0.6248	0.4141	0.0784
293.15	0.7432	0.2754	0.0781
293.15	0.8997	0.2681	0.0781
293.15	1	0.2012	0.0779
303.15	0	4.1655	0.0873
303.15	0.129	3.2136	0.0851
303.15	0.2505	1.9305	0.082
303.15	0.3766	1.3105	0.0805
303.15	0.4985	0.9721	0.0797
303.15	0.6248	0.7663	0.0793
303.15	0.7432	0.5777	0.0788
303.15	0.8997	0.4796	0.0786
303.15	1	0.3324	0.0782
313.15	0	7.2843	0.0947
313.15	0.129	5.3393	0.0903
313.15	0.2505	3.5158	0.0859
313.15	0.3766	2.3985	0.0832
313.15	0.4985	1.8292	0.0818
313.15	0.6248	1.3814	0.0807
313.15	0.7432	1.1315	0.0801
313.15	0.8997	0.843	0.0794
313.15	1	0.5322	0.0787
323.15	0	12.2348	0.1067
323.15	0.129	9.4538	0.1005
323.15	0.2505	5.8654	0.0918
323.15	0.3766	4.233	0.0876
323.15	0.4985	3.3009	0.0853
323.15	0.6248	2.4298	0.0832
323.15	0.7432	2.0879	0.0824
323.15	0.8997	1.4574	0.0809
323.15	1	0.8282	0.0794
333.15	0	19.8211	0.125
333.15	0.129	15.3985	0.1155
333.15	0.2505	9.8225	0.1019
333.15	0.3766	7.216	0.095
333.15	0.4985	5.7352	0.0914
333.15	0.6248	4.1764	0.0875
333.15	0.7432	3.6577	0.0863
333.15	0.8997	2.4794	0.0835
333.15	1	1.2556	0.0804
343.15	0	31.0854	0.1523
343.15	0.129	24.3358	0.1383
343.15	0.2505	16.0562	0.118
343.15	0.3766	11.9237	0.1069
343.15	0.4985	9.6283	0.1012
343.15	0.6248	7.0247	0.0947
343.15	0.7432	6.122	0.0925
343.15	0.8997	4.1542	0.0878
343.15	1	1.8588	0.0819
353.15	0	47.3438	0.1918
353.15	0.129	37.4186	0.1717
353.15	0.2505	25.6616	0.1433
353.15	0.3766	19.1494	0.1255
353.15	0.4985	15.6672	0.1168
353.15	0.6248	11.5771	0.1066
353.15	0.7432	9.8421	0.1021
353.15	0.8997	6.6591	0.0946
353.15	1	2.6924	0.0839
363.15	0	70.2181	0.2453
363.15	0.129	56.1106	0.2176
363.15	0.2505	40.1605	0.1809
363.15	0.3766	29.9603	0.1535
363.15	0.4985	24.7777	0.1401
363.15	0.6248	18.7164	0.1254
363.15	0.7432	15.2673	0.1164
363.15	0.8997	11.1673	0.1069
363.15	1	3.8223	0.0867
