Measured thermophysical data. When theory and experiment hold hands: The thermochemistry of gamma-pyrone derivatives
Source: J. Chem. Thermodyn., 2011, 10.1016/j.jct.2011.02.021
Compound 1: carbon dioxide, CO2, InChI=1S/CO2/c2-1-3
Compound 2: water, H2O, InChI=1S/H2O/h1H2
Compound 3: oxygen, O2, InChI=1S/O2/c1-2
Compound 4: hydrogen, H2, InChI=1S/H2/h1H
Compound 5: graphite, C
Compound 6: 2,6-dimethyl-.gamma.-pyrone, C7H8O2, InChI=1S/C7H8O2/c1-5-3-7(8)4-6(2)9-5/h3-4H,1-2H3, purity 99%
Compound 7: 2-ethyl-3-hydroxy-4H-pyran-4-one, C7H8O3, InChI=1S/C7H8O3/c1-2-6-7(9)5(8)3-4-10-6/h3-4,9H,2H2,1H3, purity 99%

System: 2,6-dimethyl-.gamma.-pyrone; phases: Crystal, Gas
Property: Molar enthalpy of vaporization or sublimation, kJ/mol (Crystal); method: drop microcalorimetry
Temperature, K	Molar enthalpy of vaporization or sublimation, kJ/mol	uncertainty
298.15	86.8	3

System: 2-ethyl-3-hydroxy-4H-pyran-4-one; phases: Crystal, Gas
Property: Molar enthalpy of vaporization or sublimation, kJ/mol (Crystal); method: drop microcalorimetry
Temperature, K	Molar enthalpy of vaporization or sublimation, kJ/mol	uncertainty
298.15	91.4	4

Reaction: -1 2,6-dimethyl-.gamma.-pyrone + 7 carbon dioxide + 4 water + -8 oxygen
Property: Specific internal energy of reaction at constant volume, J/g
-28573.7

Reaction: -1 2-ethyl-3-hydroxy-4H-pyran-4-one + 7 carbon dioxide + 4 water + -7.5 oxygen
Property: Specific internal energy of reaction at constant volume, J/g
-24150.8

Reaction: 1 2,6-dimethyl-.gamma.-pyrone + -4 hydrogen + -7 graphite + -1 oxygen
Property: Molar enthalpy of reaction, kJ/mol
-348.3

Reaction: 1 2,6-dimethyl-.gamma.-pyrone + -4 hydrogen + -7 graphite + -1 oxygen
Property: Molar enthalpy of reaction, kJ/mol
-261.5

Reaction: 1 2-ethyl-3-hydroxy-4H-pyran-4-one + -4 hydrogen + -7 graphite + -1.5 oxygen
Property: Molar enthalpy of reaction, kJ/mol
-512.3

Reaction: 1 2-ethyl-3-hydroxy-4H-pyran-4-one + -4 hydrogen + -7 graphite + -1.5 oxygen
Property: Molar enthalpy of reaction, kJ/mol
-420.9
