Measured thermophysical data. Standard molar enthalpies of formation of 2-chloroquinoline, 4-chloroquinoline, 6-chloroquinoline and 4,7-dichloroquinoline by rotating-bomb calorimetry
Source: J. Chem. Thermodyn., 2006, 10.1016/j.jct.2005.03.011
Compound 1: hydrogen chloride, ClH, InChI=1S/ClH/h1H
Compound 2: carbon dioxide, CO2, InChI=1S/CO2/c2-1-3
Compound 3: nitrogen, N2, InChI=1S/N2/c1-2
Compound 4: water, H2O, InChI=1S/H2O/h1H2
Compound 5: oxygen, O2, InChI=1S/O2/c1-2
Compound 6: 2-chloroquinoline, C9H6ClN, InChI=1S/C9H6ClN/c10-9-6-5-7-3-1-2-4-8(7)11-9/h1-6H, purity 99%
Compound 7: 4-chloroquinoline, C9H6ClN, InChI=1S/C9H6ClN/c10-8-5-6-11-9-4-2-1-3-7(8)9/h1-6H, purity 99%
Compound 8: 6-chloroquinoline, C9H6ClN, InChI=1S/C9H6ClN/c10-8-3-4-9-7(6-8)2-1-5-11-9/h1-6H, purity 99%
Compound 9: 4,7-dichloroquinoline, C9H5Cl2N, InChI=1S/C9H5Cl2N/c10-6-1-2-7-8(11)3-4-12-9(7)5-6/h1-5H, purity 99%

System: 2-chloroquinoline; phases: Crystal, Liquid, Air at 1 atmosphere
Property: Normal melting temperature, K (Crystal); method: DTA:FP
Normal melting temperature, K	uncertainty
311.5	0.5

System: 2-chloroquinoline; phases: Crystal
Property: Mass density, kg/m3 (Crystal); method: Pycnometric method
Temperature, K	Pressure, kPa	Mass density, kg/m3	uncertainty
298	101.325	1246	2

System: 2-chloroquinoline; phases: Gas
Property: Molar enthalpy, kJ/mol (Gas); method: Calvet microcalorimetry
Temperature, K	Pressure, kPa	Molar enthalpy, kJ/mol	uncertainty
377	100	97.6	3.4

System: 4-chloroquinoline; phases: Crystal, Liquid, Air at 1 atmosphere
Property: Normal melting temperature, K (Crystal); method: DTA:FP
Normal melting temperature, K	uncertainty
308	0.5

System: 4-chloroquinoline; phases: Crystal
Property: Mass density, kg/m3 (Crystal); method: Pycnometric method
Temperature, K	Pressure, kPa	Mass density, kg/m3	uncertainty
298	101.325	1251	2

System: 4-chloroquinoline; phases: Gas
Property: Molar enthalpy, kJ/mol (Gas); method: Calvet microcalorimetry
Temperature, K	Pressure, kPa	Molar enthalpy, kJ/mol	uncertainty
377	100	91.9	3.8

System: 6-chloroquinoline; phases: Crystal, Liquid, Air at 1 atmosphere
Property: Normal melting temperature, K (Crystal); method: DTA:FP
Normal melting temperature, K	uncertainty
319	0.5

System: 6-chloroquinoline; phases: Gas
Property: Molar enthalpy, kJ/mol (Gas); method: Calvet microcalorimetry
Temperature, K	Pressure, kPa	Molar enthalpy, kJ/mol	uncertainty
377	100	94.1	4.6

System: 4,7-dichloroquinoline; phases: Crystal, Liquid, Air at 1 atmosphere
Property: Normal melting temperature, K (Crystal); method: DTA:FP
Normal melting temperature, K	uncertainty
365.5	0.5

System: 4,7-dichloroquinoline; phases: Gas
Property: Molar enthalpy, kJ/mol (Gas); method: Calvet microcalorimetry
Temperature, K	Pressure, kPa	Molar enthalpy, kJ/mol	uncertainty
372	100	103.1	4.6

Reaction: -1 4-chloroquinoline + 1 hydrogen chloride + 9 carbon dioxide + .5 nitrogen + 2.5 water + -10.25 oxygen
Property: Specific internal energy of reaction at constant volume, J/g
-27544.8

Reaction: -1 6-chloroquinoline + 1 hydrogen chloride + 9 carbon dioxide + .5 nitrogen + 2.5 water + -10.25 oxygen
Property: Specific internal energy of reaction at constant volume, J/g
-27543.3

Reaction: -1 2-chloroquinoline + 1 hydrogen chloride + 9 carbon dioxide + .5 nitrogen + 2.5 water + -10.25 oxygen
Property: Specific internal energy of reaction at constant volume, J/g
-27447.6

Reaction: -1 4,7-dichloroquinoline + 2 hydrogen chloride + 9 carbon dioxide + .5 nitrogen + 1.5 water + -9.75 oxygen
Property: Specific internal energy of reaction at constant volume, J/g
-21977.6
