Measured thermophysical data. Predicting the high concentration co-solvent influence on the reaction equilibria of the ADH-catalyzed reduction of acetophenone
Source: J. Chem. Thermodyn., 2019, 10.1016/j.jct.2018.08.021
Compound 1: water, H2O, InChI=1S/H2O/h1H2, purity 99.8%
Compound 2: disodium NADH, C21H27N7Na2O14P2, InChI=1S/C21H29N7O14P2.2Na/c22-17-12-19(25-7-24-17)28(8-26-12)21-16(32)14(30)11(41-21)6-39-44(36,37)42-43(34,35)38-5-10-13(29)15(31)20(40-10)27-3-1-2-9(4-27)18(23)33;;/h1,3-4,7-8,10-11,13-16,20-21,29-32H,2,5-6H2,(H2,23,33)(H,34,35)(H,36,37)(H2,22,24,25);;/q;2*+1/p-2/t10-,11-,13-,14-,15-,16-,20-,21-;;/m1../s1, purity 97%
Compound 3: .beta.-nicotinamide adenine dinucleotide, C21H27N7O14P2, InChI=1S/C21H27N7O14P2/c22-17-12-19(25-7-24-17)28(8-26-12)21-16(32)14(30)11(41-21)6-39-44(36,37)42-43(34,35)38-5-10-13(29)15(31)20(40-10)27-3-1-2-9(4-27)18(23)33/h1-4,7-8,10-11,13-16,20-21,29-32H,5-6H2,(H5-,22,23,24,25,33,34,35,36,37)/t10-,11-,13-,14-,15-,16-,20-,21-/m1/s1, purity 98%

System: disodium NADH + water; phases: Liquid
Fixed: Pressure, kPa = 101.3
Fixed: Temperature, K = 303.15
Property: Osmotic coefficient (Liquid); method: Vapor-pressure osmometry (Knauer K-7000)
Molality, mol/kg of disodium NADH	Osmotic coefficient	uncertainty
0.0474	0.886	0.012
0.0569	0.875	0.012
0.0667	0.869	0.011
0.0762	0.868	0.011

System: disodium NADH + water; phases: Liquid
Fixed: Pressure, kPa = 101.3
Fixed: Temperature, K = 298.15
Property: Mass density, kg/m3 (Liquid); method: Vibrating tube method
Molality, mol/kg of disodium NADH	Mass density, kg/m3	uncertainty
0.0942	1025.82	2.5
0.0764	1020.13	1.97
0.0561	1014.2	1.52
0.038	1008.32	1.16
0.0192	1002.53	0.8

System: .beta.-nicotinamide adenine dinucleotide + water; phases: Liquid
Fixed: Pressure, kPa = 101.3
Fixed: Temperature, K = 303.15
Property: Osmotic coefficient (Liquid); method: Vapor-pressure osmometry (Knauer K-7000)
Molality, mol/kg of .beta.-nicotinamide adenine dinucleotide	Osmotic coefficient	uncertainty
0.0476	0.809	0.064
0.0572	0.804	0.065
0.0765	0.771	0.066
0.0951	0.73	0.067
