Measured thermophysical data. Study of activity coefficients for sodium iodide in (methanol + benzene) system by (vapour + liquid) equilibrium measurements
Source: J. Chem. Thermodyn., 2007, 10.1016/j.jct.2006.06.002
Compound 1: methanol, CH4O, InChI=1S/CH4O/c1-2/h2H,1H3
Compound 2: benzene, C6H6, InChI=1S/C6H6/c1-2-4-6-5-3-1/h1-6H
Compound 3: sodium iodide, INa, InChI=1S/HI.Na/h1H;/q;+1/p-1, purity 99%

System: methanol; phases: Liquid
Property: Refractive index (Na D-line) (Liquid); method: Standard Abbe refractometry
Temperature, K	Pressure, kPa	Refractive index (Na D-line)	uncertainty
293.15	101.325	1.3288	0.0009

System: benzene; phases: Liquid
Property: Refractive index (Na D-line) (Liquid); method: Standard Abbe refractometry
Temperature, K	Pressure, kPa	Refractive index (Na D-line)	uncertainty
303.15	101.325	1.4954	0.0009

System: methanol + benzene; phases: Liquid, Gas
Property: Boiling temperature at pressure P, K (Liquid); method: Ebulliometric method (Recirculating still)
Mole fraction of methanol	Pressure, kPa	Boiling temperature at pressure P, K	uncertainty
0.8341	100.2	331.83	0.5
0.8798	100.4	332.57	0.47
0.8942	100.2	332.72	0.26
0.923	100.5	333.63	0.25
0.9513	99.9	334.67	0.5
0.9738	99.5	336.09	0.34

System: methanol + benzene; phases: Gas, Liquid
Property: Mole fraction of methanol (Gas); method: Index of refraction calibration data
Temperature, K	Mole fraction of methanol	Mole fraction of methanol	uncertainty
331.83	0.8341	0.6905	0.0067
332.57	0.8798	0.7354	0.009
332.72	0.8942	0.7524	0.009
333.63	0.923	0.7959	0.0069
334.67	0.9513	0.8612	0.0087
336.09	0.9738	0.9342	0.0064

System: methanol + benzene + sodium iodide; phases: Liquid, Gas
Property: Boiling temperature at pressure P, K (Liquid); method: Ebulliometric method (Recirculating still)
Solvent: Mole fraction of methanol	Pressure, kPa	Molality, mol/kg of sodium iodide	Boiling temperature at pressure P, K	uncertainty
0.8341	100.2	0	331.83	0.5
0.8341	100.2	1.386	331.88	0.21
0.8341	100.3	0.126	331.72	0.22
0.8341	100.3	1.512	332.02	0.5
0.8341	100.3	1.638	332.05	0.28
0.8341	100.4	0.252	331.68	0.22
0.8341	100.4	0.63	331.67	0.23
0.8341	100.4	0.756	331.52	0.27
0.8341	100.4	0.882	331.51	0.26
0.8341	100.4	1.008	331.51	0.5
0.8341	100.5	1.134	331.75	0.5
0.8341	100.5	1.26	331.85	0.23
0.8341	100.6	0.504	331.65	0.22
0.8341	100.7	0.378	331.67	0.22
0.8798	99.6	1.4641	332.23	0.3
0.8798	99.6	1.5972	332.23	0.41
0.8798	99.7	1.331	332.27	0.28
0.8798	99.8	1.7303	332.38	0.42
0.8798	99.9	1.0648	332.24	0.27
0.8798	100.1	0.5324	332.21	0.26
0.8798	100.1	0.6655	332.15	0.25
0.8798	100.1	0.9317	332.25	0.3
0.8798	100.1	2.1296	332.67	0.44
0.8798	100.2	0.2662	332.33	0.24
0.8798	100.2	0.3993	332.25	0.25
0.8798	100.2	0.7986	332.12	0.3
0.8798	100.2	1.9965	332.69	0.39
0.8798	100.3	0.1331	332.43	0.49
0.8798	100.3	1.8634	332.6	0.25
0.8798	100.4	0	332.57	0.47
0.8942	100.1	0.2708	332.53	0.47
0.8942	100.1	0.4062	332.48	0.32
0.8942	100.2	0	332.72	0.26
0.8942	100.2	0.1354	332.67	0.48
0.8942	100.2	0.5416	332.53	0.28
0.8942	100.4	1.6248	332.4	0.42
0.8942	100.4	1.7602	332.39	0.32
0.8942	100.4	1.8956	332.42	0.5
0.8942	100.5	1.4894	332.43	0.5
0.8942	100.6	0.677	332.59	0.33
0.8942	100.6	0.9478	332.27	0.21
0.8942	100.6	1.354	332.27	0.5
0.8942	100.7	0.8124	332.48	0.26
0.8942	100.8	1.0832	332.34	0.46
0.923	99.3	1.967	333.38	0.37
0.923	99.3	2.1075	333.45	0.5
0.923	99.4	1.8265	333.37	0.27
0.923	99.5	1.686	333.33	0.36
0.923	99.6	1.405	333.27	0.38
0.923	99.6	1.5455	333.33	0.28
0.923	99.7	1.2645	333.27	0.5
0.923	99.9	0.9835	333.35	0.43
0.923	99.9	1.124	333.35	0.31
0.923	100.1	0.562	333.31	0.28
0.923	100.1	0.7025	333.29	0.29
0.923	100.1	0.843	333.51	0.5
0.923	100.2	0.4215	333.35	0.44
0.923	100.4	0.1405	333.53	0.5
0.923	100.4	0.281	333.43	0.26
0.923	100.5	0	333.63	0.25
0.9513	99.6	0.8754	334.95	0.48
0.9513	99.7	0.7295	334.83	0.39
0.9513	99.7	1.0213	335.05	0.5
0.9513	99.7	1.1672	335.14	0.48
0.9513	99.9	0	334.67	0.5
0.9513	99.9	0.1459	334.75	0.5
0.9513	99.9	0.5836	334.82	0.46
0.9513	100	0.2918	334.75	0.48
0.9513	100	0.4377	334.8	0.4
0.9513	100	1.6049	335.49	0.5
0.9513	100	1.7508	335.23	0.5
0.9513	100	2.0426	335.49	0.5
0.9513	100	2.1885	335.65	0.5
0.9513	100.1	1.459	335.47	0.5
0.9738	99.3	0.1504	336.16	0.21
0.9738	99.3	0.3008	336.2	0.42
0.9738	99.3	0.4512	336.25	0.5
0.9738	99.4	0.6016	336.28	0.48
0.9738	99.4	0.752	336.42	0.5
0.9738	99.5	0	336.09	0.34
0.9738	99.5	0.9024	336.57	0.49
0.9738	100.1	1.3536	337.09	0.5
0.9738	100.1	1.9552	337.71	0.5
0.9738	100.1	2.1056	337.95	0.5
0.9738	100.1	2.256	338.05	0.5
0.9738	100.2	1.0528	336.87	0.42
0.9738	100.2	1.2032	337.05	0.5
0.9738	100.3	1.8048	337.67	0.5
0.9738	100.4	1.504	337.33	0.46
0.9738	100.4	1.6544	337.46	0.5

System: methanol + benzene + sodium iodide; phases: Gas, Liquid
Property: Mole fraction of methanol (Gas); method: Index of refraction calibration data
Solvent: Mole fraction of methanol	Pressure, kPa	Molality, mol/kg of sodium iodide	Mole fraction of methanol	uncertainty
0.8341	100.2	0	0.6905	0.0091
0.8341	100.2	1.386	0.5923	0.0115
0.8341	100.3	0.126	0.6767	0.0092
0.8341	100.3	1.512	0.5842	0.0115
0.8341	100.3	1.638	0.576	0.011
0.8341	100.4	0.252	0.6666	0.0094
0.8341	100.4	0.63	0.6442	0.0101
0.8341	100.4	0.756	0.6342	0.0097
0.8341	100.4	0.882	0.6259	0.0095
0.8341	100.4	1.008	0.6175	0.0103
0.8341	100.5	1.134	0.6096	0.01
0.8341	100.5	1.26	0.5998	0.0113
0.8341	100.6	0.504	0.6523	0.0101
0.8341	100.7	0.378	0.6592	0.0102
0.8798	99.6	1.4641	0.6476	0.0151
0.8798	99.6	1.5972	0.6418	0.015
0.8798	99.7	1.331	0.6569	0.0143
0.8798	99.8	1.7303	0.6359	0.0166
0.8798	99.9	1.0648	0.6744	0.0142
0.8798	100.1	0.5324	0.7013	0.0123
0.8798	100.1	0.6655	0.6943	0.012
0.8798	100.1	0.9317	0.6828	0.0134
0.8798	100.1	2.1296	0.6065	0.0188
0.8798	100.2	0.2662	0.7146	0.0117
0.8798	100.2	0.3993	0.7056	0.0123
0.8798	100.2	0.7986	0.6844	0.0139
0.8798	100.2	1.9965	0.6226	0.017
0.8798	100.3	0.1331	0.7235	0.0091
0.8798	100.3	1.8634	0.6265	0.0107
0.8798	100.4	0	0.7354	0.011
0.8942	100.1	0.2708	0.7359	0.0119
0.8942	100.1	0.4062	0.7292	0.0126
0.8942	100.2	0	0.7524	0.009
0.8942	100.2	0.1354	0.7464	0.0115
0.8942	100.2	0.5416	0.7204	0.0124
0.8942	100.4	1.6248	0.6694	0.0168
0.8942	100.4	1.7602	0.662	0.0168
0.8942	100.4	1.8956	0.654	0.0206
0.8942	100.5	1.4894	0.6795	0.0163
0.8942	100.6	0.677	0.7157	0.0099
0.8942	100.6	0.9478	0.6992	0.0104
0.8942	100.6	1.354	0.6811	0.0112
0.8942	100.7	0.8124	0.7104	0.0098
0.8942	100.8	1.0832	0.6992	0.0101
0.923	99.3	1.967	0.7323	0.0158
0.923	99.3	2.1075	0.7292	0.0156
0.923	99.4	1.8265	0.7369	0.0154
0.923	99.5	1.686	0.741	0.0149
0.923	99.6	1.405	0.7474	0.015
0.923	99.6	1.5455	0.7404	0.0149
0.923	99.7	1.2645	0.7509	0.0155
0.923	99.9	0.9835	0.7646	0.0139
0.923	99.9	1.124	0.7612	0.0139
0.923	100.1	0.562	0.7737	0.0122
0.923	100.1	0.7025	0.7646	0.0124
0.923	100.1	0.843	0.7699	0.0141
0.923	100.2	0.4215	0.7798	0.0135
0.923	100.4	0.1405	0.7909	0.0106
0.923	100.4	0.281	0.7854	0.0114
0.923	100.5	0	0.7959	0.0106
0.9513	99.6	0.8754	0.8447	0.0235
0.9513	99.7	0.7295	0.8495	0.0154
0.9513	99.7	1.0213	0.8439	0.0203
0.9513	99.7	1.1672	0.8443	0.0208
0.9513	99.9	0	0.8612	0.0131
0.9513	99.9	0.1459	0.8608	0.0133
0.9513	99.9	0.5836	0.8514	0.0143
0.9513	100	0.2918	0.855	0.0136
0.9513	100	0.4377	0.853	0.0176
0.9513	100	1.6049	0.8365	0.015
0.9513	100	1.7508	0.8163	0.0154
0.9513	100	2.0426	0.8049	0.02
0.9513	100	2.1885	0.804	0.0191
0.9513	100.1	1.459	0.8374	0.0149
0.9738	99.3	0.1504	0.9336	0.0061
0.9738	99.3	0.3008	0.9324	0.0213
0.9738	99.3	0.4512	0.9316	0.0176
0.9738	99.4	0.6016	0.9295	0.0176
0.9738	99.4	0.752	0.9286	0.0238
0.9738	99.5	0	0.9342	0.0158
0.9738	99.5	0.9024	0.928	0.023
0.9738	100.1	1.3536	0.9242	0.0238
0.9738	100.1	1.9552	0.9205	0.0314
0.9738	100.1	2.1056	0.9233	0.035
0.9738	100.1	2.256	0.9223	0.0356
0.9738	100.2	1.0528	0.9266	0.0196
0.9738	100.2	1.2032	0.9257	0.0193
0.9738	100.3	1.8048	0.9208	0.0204
0.9738	100.4	1.504	0.9233	0.02
0.9738	100.4	1.6544	0.9223	0.02
