Measured thermophysical data. Separation of aliphatic from aromatic hydrocarbons and sulphur compounds from fuel based on measurements of activity coefficients at infinite dilution for organic solutes and water in the ionic liquid N,N-diethyl-N-methyl-N-(2-methoxy-ethyl)ammonium bis(trifluoromethylsulfonyl)imide
Source: J. Chem. Thermodyn., 2016, 10.1016/j.jct.2016.07.017
Compound 1: N,N-diethyl-2-methoxy-N-methylethan-1-aminium bis((trifluoromethyl)sulfonyl)amide, C10H20F6N2O5S2, InChI=1S/C8H20NO.C2F6NO4S2/c1-5-9(3,6-2)7-8-10-4;3-1(4,5)14(10,11)9-15(12,13)2(6,7)8/h5-8H2,1-4H3;/q+1;-1, purity 99%
Compound 2: hexane, C6H14, InChI=1S/C6H14/c1-3-5-6-4-2/h3-6H2,1-2H3, purity 99%
Compound 3: 3-methylpentane, C6H14, InChI=1S/C6H14/c1-4-6(3)5-2/h6H,4-5H2,1-3H3, purity 99%
Compound 4: 2,2-dimethylbutane, C6H14, InChI=1S/C6H14/c1-5-6(2,3)4/h5H2,1-4H3, purity 99%
Compound 5: heptane, C7H16, InChI=1S/C7H16/c1-3-5-7-6-4-2/h3-7H2,1-2H3, purity 99.5%
Compound 6: octane, C8H18, InChI=1S/C8H18/c1-3-5-7-8-6-4-2/h3-8H2,1-2H3, purity 99%
Compound 7: 2,2,4-trimethylpentane, C8H18, InChI=1S/C8H18/c1-7(2)6-8(3,4)5/h7H,6H2,1-5H3, purity 99%
Compound 8: nonane, C9H20, InChI=1S/C9H20/c1-3-5-7-9-8-6-4-2/h3-9H2,1-2H3, purity 99%
Compound 9: decane, C10H22, InChI=1S/C10H22/c1-3-5-7-9-10-8-6-4-2/h3-10H2,1-2H3, purity 99%
Compound 10: cyclopentane, C5H10, InChI=1S/C5H10/c1-2-4-5-3-1/h1-5H2, purity 99%
Compound 11: cyclohexane, C6H12, InChI=1S/C6H12/c1-2-4-6-5-3-1/h1-6H2, purity 99%
Compound 12: methylcyclohexane, C7H14, InChI=1S/C7H14/c1-7-5-3-2-4-6-7/h7H,2-6H2,1H3, purity 99%
Compound 13: cycloheptane, C7H14, InChI=1S/C7H14/c1-2-4-6-7-5-3-1/h1-7H2, purity 98%
Compound 14: cyclooctane, C8H16, InChI=1S/C8H16/c1-2-4-6-8-7-5-3-1/h1-8H2, purity 99%
Compound 15: hex-1-ene, C6H12, InChI=1S/C6H12/c1-3-5-6-4-2/h3H,1,4-6H2,2H3, purity 99%
Compound 16: cyclohexene, C6H10, InChI=1S/C6H10/c1-2-4-6-5-3-1/h1-2H,3-6H2, purity 99%
Compound 17: 1-heptene, C7H14, InChI=1S/C7H14/c1-3-5-7-6-4-2/h3H,1,4-7H2,2H3, purity 99%
Compound 18: oct-1-ene, C8H16, InChI=1S/C8H16/c1-3-5-7-8-6-4-2/h3H,1,4-8H2,2H3, purity 98%
Compound 19: 1-decene, C10H20, InChI=1S/C10H20/c1-3-5-7-9-10-8-6-4-2/h3H,1,4-10H2,2H3, purity 97%
Compound 20: 1-pentyne, C5H8, InChI=1S/C5H8/c1-3-5-4-2/h1H,4-5H2,2H3, purity 97%
Compound 21: 1-hexyne, C6H10, InChI=1S/C6H10/c1-3-5-6-4-2/h1H,4-6H2,2H3, purity 97%
Compound 22: 1-heptyne, C7H12, InChI=1S/C7H12/c1-3-5-7-6-4-2/h1H,4-7H2,2H3, purity 98%
Compound 23: 1-octyne, C8H14, InChI=1S/C8H14/c1-3-5-7-8-6-4-2/h1H,4-8H2,2H3, purity 97%
Compound 24: benzene, C6H6, InChI=1S/C6H6/c1-2-4-6-5-3-1/h1-6H, purity 99.8%
Compound 25: toluene, C7H8, InChI=1S/C7H8/c1-7-5-3-2-4-6-7/h2-6H,1H3, purity 99.8%
Compound 26: ethylbenzene, C8H10, InChI=1S/C8H10/c1-2-8-6-4-3-5-7-8/h3-7H,2H2,1H3, purity 99.8%
Compound 27: 1,2-dimethylbenzene, C8H10, InChI=1S/C8H10/c1-7-5-3-4-6-8(7)2/h3-6H,1-2H3, purity 99%
Compound 28: 1,3-dimethylbenzene, C8H10, InChI=1S/C8H10/c1-7-4-3-5-8(2)6-7/h3-6H,1-2H3, purity 99%
Compound 29: 1,4-dimethylbenzene, C8H10, InChI=1S/C8H10/c1-7-3-5-8(2)6-4-7/h3-6H,1-2H3, purity 99%
Compound 30: styrene, C8H8, InChI=1S/C8H8/c1-2-8-6-4-3-5-7-8/h2-7H,1H2, purity 99.9%
Compound 31: methanol, CH4O, InChI=1S/CH4O/c1-2/h2H,1H3, purity 99.9%
Compound 32: ethanol, C2H6O, InChI=1S/C2H6O/c1-2-3/h3H,2H2,1H3, purity 99.8%
Compound 33: propan-1-ol, C3H8O, InChI=1S/C3H8O/c1-2-3-4/h4H,2-3H2,1H3, purity 99.9%
Compound 34: propan-2-ol, C3H8O, InChI=1S/C3H8O/c1-3(2)4/h3-4H,1-2H3, purity 99.9%
Compound 35: butan-1-ol, C4H10O, InChI=1S/C4H10O/c1-2-3-4-5/h5H,2-4H2,1H3, purity 99.8%
Compound 36: water, H2O, InChI=1S/H2O/h1H2
Compound 37: thiophene, C4H4S, InChI=1S/C4H4S/c1-2-4-5-3-1/h1-4H, purity 99%
Compound 38: tetrahydrofuran, C4H8O, InChI=1S/C4H8O/c1-2-4-5-3-1/h1-4H2, purity 99.9%
Compound 39: 1,4-dioxane, C4H8O2, InChI=1S/C4H8O2/c1-2-6-4-3-5-1/h1-4H2, purity 99.8%
Compound 40: 2-methoxy-2-methylpropane, C5H12O, InChI=1S/C5H12O/c1-5(2,3)6-4/h1-4H3, purity 99.8%
Compound 41: 2-methoxy-2-methylbutane, C6H14O, InChI=1S/C6H14O/c1-5-6(2,3)7-4/h5H2,1-4H3, purity 99%
Compound 42: 2-ethoxy-2-methylpropane, C6H14O, InChI=1S/C6H14O/c1-5-7-6(2,3)4/h5H2,1-4H3, purity 99%
Compound 43: diethyl ether, C4H10O, InChI=1S/C4H10O/c1-3-5-4-2/h3-4H2,1-2H3, purity 99.9%
Compound 44: dipropyl ether, C6H14O, InChI=1S/C6H14O/c1-3-5-7-6-4-2/h3-6H2,1-2H3, purity 99%
Compound 45: diisopropyl ether, C6H14O, InChI=1S/C6H14O/c1-5(2)7-6(3)4/h5-6H,1-4H3, purity 99%
Compound 46: dibutyl ether, C8H18O, InChI=1S/C8H18O/c1-3-5-7-9-8-6-4-2/h3-8H2,1-2H3, purity 99.3%
Compound 47: acetone, C3H6O, InChI=1S/C3H6O/c1-3(2)4/h1-2H3, purity 99.9%
Compound 48: pentan-2-one, C5H10O, InChI=1S/C5H10O/c1-3-4-5(2)6/h3-4H2,1-2H3, purity 99%
Compound 49: pentan-3-one, C5H10O, InChI=1S/C5H10O/c1-3-5(6)4-2/h3-4H2,1-2H3, purity 99%
Compound 50: 2-hexanone, C6H12O, InChI=1S/C6H12O/c1-3-4-5-6(2)7/h3-5H2,1-2H3, purity 99%
Compound 51: 3-hexanone, C6H12O, InChI=1S/C6H12O/c1-3-5-6(7)4-2/h3-5H2,1-2H3, purity 99%
Compound 52: acetonitrile, C2H3N, InChI=1S/C2H3N/c1-2-3/h1H3, purity 99.9%
Compound 53: pyridine, C5H5N, InChI=1S/C5H5N/c1-2-4-6-5-3-1/h1-5H, purity 99.8%
Compound 54: 1-nitropropane, C3H7NO2, InChI=1S/C3H7NO2/c1-2-3-4(5)6/h2-3H2,1H3, purity 98.5%

System: N,N-diethyl-2-methoxy-N-methylethan-1-aminium bis((trifluoromethyl)sulfonyl)amide; phases: Glass, Liquid, Air at 1 atmosphere
Property: Triple point temperature, K (Glass); method: DSC
Triple point temperature, K	uncertainty
179.4	0.8

System: N,N-diethyl-2-methoxy-N-methylethan-1-aminium bis((trifluoromethyl)sulfonyl)amide; phases: Liquid
Fixed: Pressure, kPa = 101.325
Property: Mass density, kg/m3 (Liquid); method: Vibrating tube method
Temperature, K	Mass density, kg/m3	uncertainty
288.15	1416.6	1.14
298.15	1407.33	1.13
308.15	1398.12	1.13
318.15	1389	1.13
328.15	1379.94	1.12
338.15	1370.78	1.12
348.15	1361.55	1.12
358.15	1352.39	1.11
368.15	1343.38	1.11

System: N,N-diethyl-2-methoxy-N-methylethan-1-aminium bis((trifluoromethyl)sulfonyl)amide; phases: Liquid
Fixed: Pressure, kPa = 101.325
Property: Viscosity, Pa*s (Liquid); method: Falling or rolling sphere viscometry
Temperature, K	Viscosity, Pa*s	uncertainty
288.15	0.1206	0.0041
298.15	0.07096	0.00169
308.15	0.04536	0.00101
318.15	0.03096	0.00068
328.15	0.02223	0.00049
338.15	0.01658	0.00036
348.15	0.01279	0.00028
358.15	0.01018	0.00022
368.15	0.00819	0.00018

System: N,N-diethyl-2-methoxy-N-methylethan-1-aminium bis((trifluoromethyl)sulfonyl)amide; phases: Liquid, Air at 1 atmosphere
Property: Surface tension liquid-gas, N/m (Liquid); method: Ring tensiometer
Temperature, K	Surface tension liquid-gas, N/m	uncertainty
298.15	0.0336	0.0008
308.15	0.0326	0.0008
318.15	0.0321	0.0007
328.15	0.0316	0.0007
338.15	0.0313	0.0007

System: hexane + N,N-diethyl-2-methoxy-N-methylethan-1-aminium bis((trifluoromethyl)sulfonyl)amide; phases: Liquid
Fixed: Mole fraction of hexane = 0
Fixed: Pressure, kPa = 101.325
Property: Activity coefficient of hexane (Liquid); method: Chromatography
Temperature, K	Activity coefficient of hexane	uncertainty
318.15	18.2	1.6
328.15	16.9	1.5
338.15	15.8	1.4
348.15	14.9	1.3
358.15	14	1.2

System: 3-methylpentane + N,N-diethyl-2-methoxy-N-methylethan-1-aminium bis((trifluoromethyl)sulfonyl)amide; phases: Liquid
Fixed: Mole fraction of 3-methylpentane = 0
Fixed: Pressure, kPa = 101.325
Property: Activity coefficient of 3-methylpentane (Liquid); method: Chromatography
Temperature, K	Activity coefficient of 3-methylpentane	uncertainty
318.15	16.1	1.4
328.15	14.9	1.3
338.15	14	1.2
348.15	13.1	1.1
358.15	12.5	1.1

System: 2,2-dimethylbutane + N,N-diethyl-2-methoxy-N-methylethan-1-aminium bis((trifluoromethyl)sulfonyl)amide; phases: Liquid
Fixed: Mole fraction of 2,2-dimethylbutane = 0
Fixed: Pressure, kPa = 101.325
Property: Activity coefficient of 2,2-dimethylbutane (Liquid); method: Chromatography
Temperature, K	Activity coefficient of 2,2-dimethylbutane	uncertainty
318.15	15.1	1.3
328.15	14	1.2
338.15	13.3	1.2
348.15	12.5	1.1
358.15	11.9	1

System: heptane + N,N-diethyl-2-methoxy-N-methylethan-1-aminium bis((trifluoromethyl)sulfonyl)amide; phases: Liquid
Fixed: Mole fraction of heptane = 0
Fixed: Pressure, kPa = 101.325
Property: Activity coefficient of heptane (Liquid); method: Chromatography
Temperature, K	Activity coefficient of heptane	uncertainty
318.15	26.4	2.3
328.15	24.4	2.1
338.15	22.3	1.9
348.15	21	1.8
358.15	19.3	1.7

System: octane + N,N-diethyl-2-methoxy-N-methylethan-1-aminium bis((trifluoromethyl)sulfonyl)amide; phases: Liquid
Fixed: Mole fraction of octane = 0
Fixed: Pressure, kPa = 101.325
Property: Activity coefficient of octane (Liquid); method: Chromatography
Temperature, K	Activity coefficient of octane	uncertainty
318.15	38.3	3.3
328.15	34.8	3
338.15	31.9	2.8
348.15	29.5	2.6
358.15	27	2.3

System: 2,2,4-trimethylpentane + N,N-diethyl-2-methoxy-N-methylethan-1-aminium bis((trifluoromethyl)sulfonyl)amide; phases: Liquid
Fixed: Mole fraction of 2,2,4-trimethylpentane = 0
Fixed: Pressure, kPa = 101.325
Property: Activity coefficient of 2,2,4-trimethylpentane (Liquid); method: Chromatography
Temperature, K	Activity coefficient of 2,2,4-trimethylpentane	uncertainty
318.15	25.7	2.2
328.15	23.8	2.1
338.15	21.7	1.9
348.15	21	1.8
358.15	20	1.7

System: nonane + N,N-diethyl-2-methoxy-N-methylethan-1-aminium bis((trifluoromethyl)sulfonyl)amide; phases: Liquid
Fixed: Mole fraction of nonane = 0
Fixed: Pressure, kPa = 101.325
Property: Activity coefficient of nonane (Liquid); method: Chromatography
Temperature, K	Activity coefficient of nonane	uncertainty
318.15	55.7	4.8
328.15	50	4.3
338.15	45.3	3.9
348.15	41	3.5
358.15	37.7	3.3

System: decane + N,N-diethyl-2-methoxy-N-methylethan-1-aminium bis((trifluoromethyl)sulfonyl)amide; phases: Liquid
Fixed: Mole fraction of decane = 0
Fixed: Pressure, kPa = 101.325
Property: Activity coefficient of decane (Liquid); method: Chromatography
Temperature, K	Activity coefficient of decane	uncertainty
318.15	82	7.1
328.15	72.7	6.3
338.15	65.4	5.7
348.15	58.1	5
358.15	52.6	4.6

System: cyclopentane + N,N-diethyl-2-methoxy-N-methylethan-1-aminium bis((trifluoromethyl)sulfonyl)amide; phases: Liquid
Fixed: Mole fraction of cyclopentane = 0
Fixed: Pressure, kPa = 101.325
Property: Activity coefficient of cyclopentane (Liquid); method: Chromatography
Temperature, K	Activity coefficient of cyclopentane	uncertainty
318.15	7.28	0.63
328.15	6.85	0.59
338.15	6.47	0.56
348.15	6.12	0.53
358.15	5.79	0.5

System: cyclohexane + N,N-diethyl-2-methoxy-N-methylethan-1-aminium bis((trifluoromethyl)sulfonyl)amide; phases: Liquid
Fixed: Mole fraction of cyclohexane = 0
Fixed: Pressure, kPa = 101.325
Property: Activity coefficient of cyclohexane (Liquid); method: Chromatography
Temperature, K	Activity coefficient of cyclohexane	uncertainty
318.15	10.8	0.9
328.15	10	0.9
338.15	9.39	0.81
348.15	8.74	0.75
358.15	8.3	0.72

System: methylcyclohexane + N,N-diethyl-2-methoxy-N-methylethan-1-aminium bis((trifluoromethyl)sulfonyl)amide; phases: Liquid
Fixed: Mole fraction of methylcyclohexane = 0
Fixed: Pressure, kPa = 101.325
Property: Activity coefficient of methylcyclohexane (Liquid); method: Chromatography
Temperature, K	Activity coefficient of methylcyclohexane	uncertainty
318.15	14.9	1.3
328.15	13.8	1.2
338.15	12.9	1.1
348.15	12	1
358.15	11.2	1

System: cycloheptane + N,N-diethyl-2-methoxy-N-methylethan-1-aminium bis((trifluoromethyl)sulfonyl)amide; phases: Liquid
Fixed: Mole fraction of cycloheptane = 0
Fixed: Pressure, kPa = 101.325
Property: Activity coefficient of cycloheptane (Liquid); method: Chromatography
Temperature, K	Activity coefficient of cycloheptane	uncertainty
318.15	14.9	1.3
328.15	13.7	1.2
338.15	12.7	1.1
348.15	11.8	1
358.15	11	1

System: cyclooctane + N,N-diethyl-2-methoxy-N-methylethan-1-aminium bis((trifluoromethyl)sulfonyl)amide; phases: Liquid
Fixed: Mole fraction of cyclooctane = 0
Fixed: Pressure, kPa = 101.325
Property: Activity coefficient of cyclooctane (Liquid); method: Chromatography
Temperature, K	Activity coefficient of cyclooctane	uncertainty
318.15	20.4	1.8
328.15	18.6	1.6
338.15	17	1.5
348.15	15.7	1.4
358.15	14.5	1.3

System: hex-1-ene + N,N-diethyl-2-methoxy-N-methylethan-1-aminium bis((trifluoromethyl)sulfonyl)amide; phases: Liquid
Fixed: Mole fraction of hex-1-ene = 0
Fixed: Pressure, kPa = 101.325
Property: Activity coefficient of hex-1-ene (Liquid); method: Chromatography
Temperature, K	Activity coefficient of hex-1-ene	uncertainty
318.15	9.21	0.8
328.15	8.78	0.76
338.15	8.33	0.72
348.15	8.07	0.7
358.15	7.64	0.66

System: cyclohexene + N,N-diethyl-2-methoxy-N-methylethan-1-aminium bis((trifluoromethyl)sulfonyl)amide; phases: Liquid
Fixed: Mole fraction of cyclohexene = 0
Fixed: Pressure, kPa = 101.325
Property: Activity coefficient of cyclohexene (Liquid); method: Chromatography
Temperature, K	Activity coefficient of cyclohexene	uncertainty
318.15	5.83	0.5
328.15	5.56	0.48
338.15	5.33	0.46
348.15	5.16	0.45
358.15	4.93	0.43

System: 1-heptene + N,N-diethyl-2-methoxy-N-methylethan-1-aminium bis((trifluoromethyl)sulfonyl)amide; phases: Liquid
Fixed: Mole fraction of 1-heptene = 0
Fixed: Pressure, kPa = 101.325
Property: Activity coefficient of 1-heptene (Liquid); method: Chromatography
Temperature, K	Activity coefficient of 1-heptene	uncertainty
318.15	13.3	1.2
328.15	12.6	1.1
338.15	11.9	1
348.15	11.4	1
358.15	10.9	0.9

System: oct-1-ene + N,N-diethyl-2-methoxy-N-methylethan-1-aminium bis((trifluoromethyl)sulfonyl)amide; phases: Liquid
Fixed: Mole fraction of oct-1-ene = 0
Fixed: Pressure, kPa = 101.325
Property: Activity coefficient of oct-1-ene (Liquid); method: Chromatography
Temperature, K	Activity coefficient of oct-1-ene	uncertainty
318.15	19.6	1.7
328.15	18.3	1.6
338.15	17.1	1.5
348.15	16.2	1.4
358.15	15.2	1.3

System: 1-decene + N,N-diethyl-2-methoxy-N-methylethan-1-aminium bis((trifluoromethyl)sulfonyl)amide; phases: Liquid
Fixed: Mole fraction of 1-decene = 0
Fixed: Pressure, kPa = 101.325
Property: Activity coefficient of 1-decene (Liquid); method: Chromatography
Temperature, K	Activity coefficient of 1-decene	uncertainty
318.15	40.4	3.5
328.15	37.4	3.2
338.15	34.4	3
348.15	32.2	2.8
358.15	29.8	2.6

System: 1-pentyne + N,N-diethyl-2-methoxy-N-methylethan-1-aminium bis((trifluoromethyl)sulfonyl)amide; phases: Liquid
Fixed: Mole fraction of 1-pentyne = 0
Fixed: Pressure, kPa = 101.325
Property: Activity coefficient of 1-pentyne (Liquid); method: Chromatography
Temperature, K	Activity coefficient of 1-pentyne	uncertainty
318.15	2.15	0.19
328.15	2.17	0.19
338.15	2.18	0.19
348.15	2.19	0.19
358.15	2.21	0.19

System: 1-hexyne + N,N-diethyl-2-methoxy-N-methylethan-1-aminium bis((trifluoromethyl)sulfonyl)amide; phases: Liquid
Fixed: Mole fraction of 1-hexyne = 0
Fixed: Pressure, kPa = 101.325
Property: Activity coefficient of 1-hexyne (Liquid); method: Chromatography
Temperature, K	Activity coefficient of 1-hexyne	uncertainty
318.15	3.11	0.27
328.15	3.11	0.27
338.15	3.1	0.27
348.15	3.1	0.27
358.15	3.08	0.27

System: 1-heptyne + N,N-diethyl-2-methoxy-N-methylethan-1-aminium bis((trifluoromethyl)sulfonyl)amide; phases: Liquid
Fixed: Mole fraction of 1-heptyne = 0
Fixed: Pressure, kPa = 101.325
Property: Activity coefficient of 1-heptyne (Liquid); method: Chromatography
Temperature, K	Activity coefficient of 1-heptyne	uncertainty
318.15	4.47	0.39
328.15	4.43	0.38
338.15	4.39	0.38
348.15	4.35	0.38
358.15	4.29	0.37

System: 1-octyne + N,N-diethyl-2-methoxy-N-methylethan-1-aminium bis((trifluoromethyl)sulfonyl)amide; phases: Liquid
Fixed: Mole fraction of 1-octyne = 0
Fixed: Pressure, kPa = 101.325
Property: Activity coefficient of 1-octyne (Liquid); method: Chromatography
Temperature, K	Activity coefficient of 1-octyne	uncertainty
318.15	6.47	0.56
328.15	6.36	0.55
338.15	6.21	0.54
348.15	6.11	0.53
358.15	5.97	0.52

System: benzene + N,N-diethyl-2-methoxy-N-methylethan-1-aminium bis((trifluoromethyl)sulfonyl)amide; phases: Liquid
Fixed: Mole fraction of benzene = 0
Fixed: Pressure, kPa = 101.325
Property: Activity coefficient of benzene (Liquid); method: Chromatography
Temperature, K	Activity coefficient of benzene	uncertainty
318.15	1.03	0.08
328.15	1.04	0.09
338.15	1.05	0.09
348.15	1.07	0.09
358.15	1.07	0.09

System: toluene + N,N-diethyl-2-methoxy-N-methylethan-1-aminium bis((trifluoromethyl)sulfonyl)amide; phases: Liquid
Fixed: Mole fraction of toluene = 0
Fixed: Pressure, kPa = 101.325
Property: Activity coefficient of toluene (Liquid); method: Chromatography
Temperature, K	Activity coefficient of toluene	uncertainty
318.15	1.47	0.12
328.15	1.48	0.13
338.15	1.5	0.13
348.15	1.52	0.13
358.15	1.53	0.13

System: ethylbenzene + N,N-diethyl-2-methoxy-N-methylethan-1-aminium bis((trifluoromethyl)sulfonyl)amide; phases: Liquid
Fixed: Mole fraction of ethylbenzene = 0
Fixed: Pressure, kPa = 101.325
Property: Activity coefficient of ethylbenzene (Liquid); method: Chromatography
Temperature, K	Activity coefficient of ethylbenzene	uncertainty
318.15	2.24	0.19
328.15	2.25	0.19
338.15	2.26	0.19
348.15	2.28	0.2
358.15	2.29	0.2

System: 1,2-dimethylbenzene + N,N-diethyl-2-methoxy-N-methylethan-1-aminium bis((trifluoromethyl)sulfonyl)amide; phases: Liquid
Fixed: Mole fraction of 1,2-dimethylbenzene = 0
Fixed: Pressure, kPa = 101.325
Property: Activity coefficient of 1,2-dimethylbenzene (Liquid); method: Chromatography
Temperature, K	Activity coefficient of 1,2-dimethylbenzene	uncertainty
318.15	1.93	0.17
328.15	1.94	0.17
338.15	1.95	0.17
348.15	1.96	0.17
358.15	1.97	0.17

System: 1,3-dimethylbenzene + N,N-diethyl-2-methoxy-N-methylethan-1-aminium bis((trifluoromethyl)sulfonyl)amide; phases: Liquid
Fixed: Mole fraction of 1,3-dimethylbenzene = 0
Fixed: Pressure, kPa = 101.325
Property: Activity coefficient of 1,3-dimethylbenzene (Liquid); method: Chromatography
Temperature, K	Activity coefficient of 1,3-dimethylbenzene	uncertainty
318.15	2.12	0.18
328.15	2.14	0.18
338.15	2.14	0.18
348.15	2.17	0.19
358.15	2.18	0.19

System: 1,4-dimethylbenzene + N,N-diethyl-2-methoxy-N-methylethan-1-aminium bis((trifluoromethyl)sulfonyl)amide; phases: Liquid
Fixed: Mole fraction of 1,4-dimethylbenzene = 0
Fixed: Pressure, kPa = 101.325
Property: Activity coefficient of 1,4-dimethylbenzene (Liquid); method: Chromatography
Temperature, K	Activity coefficient of 1,4-dimethylbenzene	uncertainty
318.15	2.12	0.18
328.15	2.15	0.19
338.15	2.15	0.19
348.15	2.17	0.19
358.15	2.18	0.19

System: styrene + N,N-diethyl-2-methoxy-N-methylethan-1-aminium bis((trifluoromethyl)sulfonyl)amide; phases: Liquid
Fixed: Mole fraction of styrene = 0
Fixed: Pressure, kPa = 101.325
Property: Activity coefficient of styrene (Liquid); method: Chromatography
Temperature, K	Activity coefficient of styrene	uncertainty
318.15	1.3	0.11
328.15	1.3	0.11
338.15	1.31	0.11
348.15	1.34	0.11
358.15	1.36	0.11

System: methanol + N,N-diethyl-2-methoxy-N-methylethan-1-aminium bis((trifluoromethyl)sulfonyl)amide; phases: Liquid
Fixed: Mole fraction of methanol = 0
Fixed: Pressure, kPa = 101.325
Property: Activity coefficient of methanol (Liquid); method: Chromatography
Temperature, K	Activity coefficient of methanol	uncertainty
318.15	1.33	0.11
328.15	1.26	0.11
338.15	1.15	0.1
348.15	1.09	0.09
358.15	1.01	0.08

System: ethanol + N,N-diethyl-2-methoxy-N-methylethan-1-aminium bis((trifluoromethyl)sulfonyl)amide; phases: Liquid
Fixed: Mole fraction of ethanol = 0
Fixed: Pressure, kPa = 101.325
Property: Activity coefficient of ethanol (Liquid); method: Chromatography
Temperature, K	Activity coefficient of ethanol	uncertainty
318.15	1.77	0.15
328.15	1.62	0.14
338.15	1.5	0.13
348.15	1.38	0.12
358.15	1.28	0.11

System: propan-1-ol + N,N-diethyl-2-methoxy-N-methylethan-1-aminium bis((trifluoromethyl)sulfonyl)amide; phases: Liquid
Fixed: Mole fraction of propan-1-ol = 0
Fixed: Pressure, kPa = 101.325
Property: Activity coefficient of propan-1-ol (Liquid); method: Chromatography
Temperature, K	Activity coefficient of propan-1-ol	uncertainty
318.15	2.26	0.19
328.15	2.04	0.18
338.15	1.87	0.16
348.15	1.72	0.15
358.15	1.59	0.13

System: propan-2-ol + N,N-diethyl-2-methoxy-N-methylethan-1-aminium bis((trifluoromethyl)sulfonyl)amide; phases: Liquid
Fixed: Mole fraction of propan-2-ol = 0
Fixed: Pressure, kPa = 101.325
Property: Activity coefficient of propan-2-ol (Liquid); method: Chromatography
Temperature, K	Activity coefficient of propan-2-ol	uncertainty
318.15	2.04	0.18
328.15	1.84	0.16
338.15	1.7	0.14
348.15	1.56	0.13
358.15	1.44	0.12

System: butan-1-ol + N,N-diethyl-2-methoxy-N-methylethan-1-aminium bis((trifluoromethyl)sulfonyl)amide; phases: Liquid
Fixed: Mole fraction of butan-1-ol = 0
Fixed: Pressure, kPa = 101.325
Property: Activity coefficient of butan-1-ol (Liquid); method: Chromatography
Temperature, K	Activity coefficient of butan-1-ol	uncertainty
318.15	2.96	0.26
328.15	2.63	0.23
338.15	2.39	0.21
348.15	2.18	0.19
358.15	2	0.17

System: water + N,N-diethyl-2-methoxy-N-methylethan-1-aminium bis((trifluoromethyl)sulfonyl)amide; phases: Liquid
Fixed: Mole fraction of water = 0
Fixed: Pressure, kPa = 101.325
Property: Activity coefficient of water (Liquid); method: Chromatography
Temperature, K	Activity coefficient of water	uncertainty
318.15	1.9	0.16
328.15	1.73	0.15
338.15	1.6	0.14
348.15	1.46	0.12
358.15	1.32	0.11

System: thiophene + N,N-diethyl-2-methoxy-N-methylethan-1-aminium bis((trifluoromethyl)sulfonyl)amide; phases: Liquid
Fixed: Mole fraction of thiophene = 0
Fixed: Pressure, kPa = 101.325
Property: Activity coefficient of thiophene (Liquid); method: Chromatography
Temperature, K	Activity coefficient of thiophene	uncertainty
318.15	0.906	0.075
328.15	0.912	0.075
338.15	0.925	0.076
348.15	0.937	0.077
358.15	0.94	0.077

System: tetrahydrofuran + N,N-diethyl-2-methoxy-N-methylethan-1-aminium bis((trifluoromethyl)sulfonyl)amide; phases: Liquid
Fixed: Mole fraction of tetrahydrofuran = 0
Fixed: Pressure, kPa = 101.325
Property: Activity coefficient of tetrahydrofuran (Liquid); method: Chromatography
Temperature, K	Activity coefficient of tetrahydrofuran	uncertainty
318.15	0.817	0.068
328.15	0.83	0.069
338.15	0.845	0.07
348.15	0.862	0.072
358.15	0.867	0.072

System: 1,4-dioxane + N,N-diethyl-2-methoxy-N-methylethan-1-aminium bis((trifluoromethyl)sulfonyl)amide; phases: Liquid
Fixed: Mole fraction of 1,4-dioxane = 0
Fixed: Pressure, kPa = 101.325
Property: Activity coefficient of 1,4-dioxane (Liquid); method: Chromatography
Temperature, K	Activity coefficient of 1,4-dioxane	uncertainty
318.15	0.66	0.057
328.15	0.679	0.058
338.15	0.704	0.06
348.15	0.723	0.061
358.15	0.734	0.062

System: 2-methoxy-2-methylpropane + N,N-diethyl-2-methoxy-N-methylethan-1-aminium bis((trifluoromethyl)sulfonyl)amide; phases: Liquid
Fixed: Mole fraction of 2-methoxy-2-methylpropane = 0
Fixed: Pressure, kPa = 101.325
Property: Activity coefficient of 2-methoxy-2-methylpropane (Liquid); method: Chromatography
Temperature, K	Activity coefficient of 2-methoxy-2-methylpropane	uncertainty
318.15	2.62	0.23
328.15	2.63	0.23
338.15	2.65	0.23
348.15	2.67	0.23
358.15	2.67	0.23

System: 2-methoxy-2-methylbutane + N,N-diethyl-2-methoxy-N-methylethan-1-aminium bis((trifluoromethyl)sulfonyl)amide; phases: Liquid
Fixed: Mole fraction of 2-methoxy-2-methylbutane = 0
Fixed: Pressure, kPa = 101.325
Property: Activity coefficient of 2-methoxy-2-methylbutane (Liquid); method: Chromatography
Temperature, K	Activity coefficient of 2-methoxy-2-methylbutane	uncertainty
318.15	3.87	0.33
328.15	3.86	0.33
338.15	3.83	0.33
348.15	3.8	0.33
358.15	3.76	0.32

System: 2-ethoxy-2-methylpropane + N,N-diethyl-2-methoxy-N-methylethan-1-aminium bis((trifluoromethyl)sulfonyl)amide; phases: Liquid
Fixed: Mole fraction of 2-ethoxy-2-methylpropane = 0
Fixed: Pressure, kPa = 101.325
Property: Activity coefficient of 2-ethoxy-2-methylpropane (Liquid); method: Chromatography
Temperature, K	Activity coefficient of 2-ethoxy-2-methylpropane	uncertainty
318.15	6.09	0.53
328.15	5.94	0.51
338.15	5.86	0.51
348.15	5.71	0.49
358.15	5.59	0.48

System: diethyl ether + N,N-diethyl-2-methoxy-N-methylethan-1-aminium bis((trifluoromethyl)sulfonyl)amide; phases: Liquid
Fixed: Mole fraction of diethyl ether = 0
Fixed: Pressure, kPa = 101.325
Property: Activity coefficient of diethyl ether (Liquid); method: Chromatography
Temperature, K	Activity coefficient of diethyl ether	uncertainty
318.15	2.62	0.23
328.15	2.6	0.22
338.15	2.6	0.22
348.15	2.59	0.22
358.15	2.57	0.22

System: dipropyl ether + N,N-diethyl-2-methoxy-N-methylethan-1-aminium bis((trifluoromethyl)sulfonyl)amide; phases: Liquid
Fixed: Mole fraction of dipropyl ether = 0
Fixed: Pressure, kPa = 101.325
Property: Activity coefficient of dipropyl ether (Liquid); method: Chromatography
Temperature, K	Activity coefficient of dipropyl ether	uncertainty
318.15	6.84	0.59
328.15	6.58	0.57
338.15	6.41	0.55
348.15	6.25	0.54
358.15	6.07	0.52

System: diisopropyl ether + N,N-diethyl-2-methoxy-N-methylethan-1-aminium bis((trifluoromethyl)sulfonyl)amide; phases: Liquid
Fixed: Mole fraction of diisopropyl ether = 0
Fixed: Pressure, kPa = 101.325
Property: Activity coefficient of diisopropyl ether (Liquid); method: Chromatography
Temperature, K	Activity coefficient of diisopropyl ether	uncertainty
318.15	6.4	0.55
328.15	6.28	0.54
338.15	6.16	0.53
348.15	6.03	0.52
358.15	5.88	0.51

System: dibutyl ether + N,N-diethyl-2-methoxy-N-methylethan-1-aminium bis((trifluoromethyl)sulfonyl)amide; phases: Liquid
Fixed: Mole fraction of dibutyl ether = 0
Fixed: Pressure, kPa = 101.325
Property: Activity coefficient of dibutyl ether (Liquid); method: Chromatography
Temperature, K	Activity coefficient of dibutyl ether	uncertainty
318.15	15.1	1.3
328.15	14.2	1.2
338.15	13.4	1.2
348.15	12.6	1.1
358.15	12	1

System: acetone + N,N-diethyl-2-methoxy-N-methylethan-1-aminium bis((trifluoromethyl)sulfonyl)amide; phases: Liquid
Fixed: Mole fraction of acetone = 0
Fixed: Pressure, kPa = 101.325
Property: Activity coefficient of acetone (Liquid); method: Chromatography
Temperature, K	Activity coefficient of acetone	uncertainty
318.15	0.484	0.045
328.15	0.491	0.046
338.15	0.499	0.046
348.15	0.509	0.047
358.15	0.518	0.047

System: pentan-2-one + N,N-diethyl-2-methoxy-N-methylethan-1-aminium bis((trifluoromethyl)sulfonyl)amide; phases: Liquid
Fixed: Mole fraction of pentan-2-one = 0
Fixed: Pressure, kPa = 101.325
Property: Activity coefficient of pentan-2-one (Liquid); method: Chromatography
Temperature, K	Activity coefficient of pentan-2-one	uncertainty
318.15	0.853	0.071
328.15	0.862	0.072
338.15	0.87	0.072
348.15	0.884	0.073
358.15	0.896	0.074

System: pentan-3-one + N,N-diethyl-2-methoxy-N-methylethan-1-aminium bis((trifluoromethyl)sulfonyl)amide; phases: Liquid
Fixed: Mole fraction of pentan-3-one = 0
Fixed: Pressure, kPa = 101.325
Property: Activity coefficient of pentan-3-one (Liquid); method: Chromatography
Temperature, K	Activity coefficient of pentan-3-one	uncertainty
318.15	0.852	0.071
328.15	0.873	0.072
338.15	0.889	0.074
348.15	0.906	0.075
358.15	0.916	0.076

System: 2-hexanone + N,N-diethyl-2-methoxy-N-methylethan-1-aminium bis((trifluoromethyl)sulfonyl)amide; phases: Liquid
Fixed: Mole fraction of 2-hexanone = 0
Fixed: Pressure, kPa = 101.325
Property: Activity coefficient of 2-hexanone (Liquid); method: Chromatography
Temperature, K	Activity coefficient of 2-hexanone	uncertainty
318.15	1.14	0.09
328.15	1.15	0.1
338.15	1.16	0.1
348.15	1.18	0.1
358.15	1.19	0.1

System: 3-hexanone + N,N-diethyl-2-methoxy-N-methylethan-1-aminium bis((trifluoromethyl)sulfonyl)amide; phases: Liquid
Fixed: Mole fraction of 3-hexanone = 0
Fixed: Pressure, kPa = 101.325
Property: Activity coefficient of 3-hexanone (Liquid); method: Chromatography
Temperature, K	Activity coefficient of 3-hexanone	uncertainty
318.15	1.21	0.1
328.15	1.22	0.1
338.15	1.23	0.1
348.15	1.24	0.1
358.15	1.25	0.1

System: acetonitrile + N,N-diethyl-2-methoxy-N-methylethan-1-aminium bis((trifluoromethyl)sulfonyl)amide; phases: Liquid
Fixed: Mole fraction of acetonitrile = 0
Fixed: Pressure, kPa = 101.325
Property: Activity coefficient of acetonitrile (Liquid); method: Chromatography
Temperature, K	Activity coefficient of acetonitrile	uncertainty
318.15	0.488	0.045
328.15	0.488	0.045
338.15	0.488	0.045
348.15	0.49	0.045
358.15	0.49	0.045

System: pyridine + N,N-diethyl-2-methoxy-N-methylethan-1-aminium bis((trifluoromethyl)sulfonyl)amide; phases: Liquid
Fixed: Mole fraction of pyridine = 0
Fixed: Pressure, kPa = 101.325
Property: Activity coefficient of pyridine (Liquid); method: Chromatography
Temperature, K	Activity coefficient of pyridine	uncertainty
318.15	0.6	0.053
328.15	0.604	0.053
338.15	0.607	0.053
348.15	0.615	0.054
358.15	0.619	0.054

System: 1-nitropropane + N,N-diethyl-2-methoxy-N-methylethan-1-aminium bis((trifluoromethyl)sulfonyl)amide; phases: Liquid
Fixed: Mole fraction of 1-nitropropane = 0
Fixed: Pressure, kPa = 101.325
Property: Activity coefficient of 1-nitropropane (Liquid); method: Chromatography
Temperature, K	Activity coefficient of 1-nitropropane	uncertainty
318.15	0.78	0.066
328.15	0.778	0.065
338.15	0.775	0.065
348.15	0.772	0.065
358.15	0.77	0.065
