Measured thermophysical data. Sound speed and density measurements for tetra-n-butylammonium bromide in benzene and carbon tetrachloride solutions at T = 298.15 K
Source: J. Chem. Thermodyn., 2006, 10.1016/j.jct.2005.08.018
Compound 1: tetrabutylammonium bromide, C16H36BrN, InChI=1S/C16H36N.BrH/c1-5-9-13-17(14-10-6-2,15-11-7-3)16-12-8-4;/h5-16H2,1-4H3;1H/q+1;/p-1
Compound 2: benzene, C6H6, InChI=1S/C6H6/c1-2-4-6-5-3-1/h1-6H
Compound 3: tetrachloromethane, CCl4, InChI=1S/CCl4/c2-1(3,4)5

System: benzene; phases: Liquid
Property: Speed of sound, m/s (Liquid); method: FPINT:UFactor:4
Pressure, kPa	Temperature, K	Speed of sound, m/s	uncertainty
101	298.15	1298.2	2.8

System: benzene; phases: Liquid
Property: Mass density, kg/m3 (Liquid); method: VIBTUB:UFactor:8
Temperature, K	Pressure, kPa	Mass density, kg/m3	uncertainty
298.15	101	873.71	0.78

System: tetrachloromethane; phases: Liquid
Property: Speed of sound, m/s (Liquid); method: FPINT::UFactor:4
Pressure, kPa	Temperature, K	Speed of sound, m/s	uncertainty
101	298.15	921.7	2.4

System: tetrachloromethane; phases: Liquid
Property: Mass density, kg/m3 (Liquid); method: VIBTUB::UFactor:8
Temperature, K	Pressure, kPa	Mass density, kg/m3	uncertainty
298.15	101	1584.35	2.24

System: benzene + tetrabutylammonium bromide; phases: Liquid
Fixed: Pressure, kPa = 101
Fixed: Temperature, K = 298.15
Property: Speed of sound, m/s (Liquid); method: FPINT:UFactor:4
Molality, mol/kg of tetrabutylammonium bromide	Speed of sound, m/s	uncertainty
0	1298.2	2.8
0.0154	1298.6	2.8
0.0485	1299.4	2.8
0.0662	1300.6	2.8
0.0827	1300.8	2.8
0.1724	1301.4	2.8
0.3622	1310.1	2.8
0.5773	1316.4	2.8
0.8062	1324.6	2.9

System: benzene + tetrabutylammonium bromide; phases: Liquid
Fixed: Temperature, K = 298.15
Fixed: Pressure, kPa = 101
Property: Mass density, kg/m3 (Liquid); method: VIBTUB:UFactor:8
Molality, mol/kg of tetrabutylammonium bromide	Mass density, kg/m3	uncertainty
0	873.71	0.78
0.0154	874.64	0.78
0.0485	876.48	0.78
0.0662	877.4	0.77
0.0827	878.36	0.77
0.1724	883.19	0.76
0.3622	893.1	0.74
0.5773	903.19	0.72
0.8062	913.08	0.7

System: tetrachloromethane + tetrabutylammonium bromide; phases: Liquid
Fixed: Pressure, kPa = 101
Fixed: Temperature, K = 298.15
Property: Speed of sound, m/s (Liquid); method: FPINT:UFactor:4
Molality, mol/kg of tetrabutylammonium bromide	Speed of sound, m/s	uncertainty
0	921.7	2.4
0.0289	926.4	2.4
0.0459	929.4	2.4
0.0609	931.7	2.4
0.0759	933.7	2.4
0.1041	939.5	2.4
0.3475	982	2.4
0.5626	1017.5	2.5
0.8165	1057.6	2.5

System: tetrachloromethane + tetrabutylammonium bromide; phases: Liquid
Fixed: Temperature, K = 298.15
Fixed: Pressure, kPa = 101
Property: Mass density, kg/m3 (Liquid); method: VIBTUB:UFactor:8
Molality, mol/kg of tetrabutylammonium bromide	Mass density, kg/m3	uncertainty
0	1584.35	2.24
0.0289	1578.53	2.22
0.0459	1575.17	2.21
0.0609	1572.21	2.2
0.0759	1569.3	2.19
0.1041	1563.88	2.17
0.3475	1520.79	2.04
0.5626	1488.36	1.93
0.8165	1456.84	1.84
