Measured thermophysical data. Properties of n-butylpyridinium nitrate ionic liquid and its binary mixtures with water
Source: J. Chem. Thermodyn., 2012, 10.1016/j.jct.2011.09.003
Compound 1: 1-butylpyridinium nitrate, C9H14N2O3, InChI=1S/C9H14N.NO3/c1-2-3-7-10-8-5-4-6-9-10;2-1(3)4/h4-6,8-9H,2-3,7H2,1H3;/q+1;-1, purity 99%
Compound 2: water, H2O, InChI=1S/H2O/h1H2, purity 99.8%

System: 1-butylpyridinium nitrate; phases: Liquid, Gas
Property: Surface tension liquid-gas, N/m (Liquid); method: digital tensiometer
Temperature, K	Surface tension liquid-gas, N/m	uncertainty
293.15	0.05232	0.0004
298.15	0.05153	0.0004
303.15	0.05121	0.00039
308.15	0.05097	0.00039
313.15	0.05053	0.00039
318.15	0.04999	0.00039
323.15	0.04953	0.00039
328.15	0.0493	0.0004
333.15	0.04896	0.00039
338.15	0.04864	0.00039

System: 1-butylpyridinium nitrate; phases: Liquid
Fixed: Pressure, kPa = 101.325
Property: Mass density, kg/m3 (Liquid); method: Vibrating tube method
Temperature, K	Mass density, kg/m3	uncertainty
293.15	1192.7	0.4
298.15	1188.5	0.4
303.15	1185.4	0.4
308.15	1181.2	0.4
313.15	1176.5	0.4
318.15	1173.5	0.4
323.15	1169.2	0.4
328.15	1165.6	0.4
333.15	1163.2	0.4
338.15	1159.4	0.4

System: water + 1-butylpyridinium nitrate; phases: Liquid, Gas
Fixed: Temperature, K = 298.15
Property: Surface tension liquid-gas, N/m (Liquid); method: digital tensiometer
Mole fraction of 1-butylpyridinium nitrate	Surface tension liquid-gas, N/m	uncertainty
0	0.07203	0.00031
0.0097	0.04371	0.00225
0.015	0.04011	0.00036
0.0359	0.03759	0.00031
0.0498	0.0375	0.0003
0.0593	0.0376	0.0003
0.0816	0.03802	0.00031
0.1136	0.04003	0.00031
0.2067	0.04169	0.00031
0.3247	0.04401	0.00032
0.447	0.04605	0.00033
0.633	0.04801	0.00034
0.7604	0.04925	0.00036
0.8226	0.04956	0.00037
0.9023	0.05078	0.00038
1	0.05153	0.0004

System: water + 1-butylpyridinium nitrate; phases: Liquid
Fixed: Pressure, kPa = 101
Fixed: Temperature, K = 298.15
Property: Mass density, kg/m3 (Liquid); method: Vibrating tube method
Mole fraction of 1-butylpyridinium nitrate	Mass density, kg/m3	uncertainty
0	1000	0.1
0.0097	1016.3	1.6
0.015	1024.4	1.3
0.0359	1051.1	1.2
0.0498	1067	1.1
0.0593	1076.1	0.8
0.0816	1092.6	0.7
0.1136	1113.6	0.4
0.2067	1144.7	0.3
0.3247	1165.5	0.2
0.447	1176.9	0.2
0.633	1182.2	0.3
0.7604	1185.3	0.3
0.8226	1186.6	0.3
0.9023	1188	0.4
1	1188.5	0.4

System: water + 1-butylpyridinium nitrate; phases: Liquid
Fixed: Pressure, kPa = 101
Fixed: Temperature, K = 298.15
Property: Excess molar volume, m3/mol (Liquid); method: Calculated with densities of this investigation
Mole fraction of 1-butylpyridinium nitrate	Excess molar volume, m3/mol	uncertainty
0	0	1e-08
0.0097	-1.19e-08	7.9e-09
0.015	-2.18e-08	8e-09
0.0359	-6.15e-08	8.4e-09
0.0498	-1.288e-07	9.2e-09
0.0593	-1.651e-07	8.5e-09
0.0816	-2.073e-07	9e-09
0.1136	-3.542e-07	8.8e-09
0.2067	-4.87e-07	9.6e-09
0.3247	-6.583e-07	1.08e-08
0.447	-7.622e-07	1.16e-08
0.633	-4.561e-07	9.3e-09
0.7604	-3.322e-07	8.6e-09
0.8226	-2.828e-07	8.4e-09
0.9023	-2.151e-07	8.4e-09
1	0	1e-08
