Measured thermophysical data. Low-temperature heat capacity and thermodynamic functions of natural chalcanthite
Source: J. Chem. Thermodyn., 2017, 10.1016/j.jct.2017.03.026
Compound 1: copper(II) sulfate pentahydrate, CuH10O9S, InChI=1S/Cu.H2O4S.5H2O/c;1-5(2,3)4;;;;;/h;(H2,1,2,3,4);5*1H2/q+2;;;;;;/p-2, purity 98%

System: copper(II) sulfate pentahydrate; phases: Crystal
Fixed: Pressure, kPa = 101.325
Property: Molar heat capacity at constant pressure, J/K/mol (Crystal); method: Small (less than 1 g) adiabatic calorimetry
Temperature, K	Molar heat capacity at constant pressure, J/K/mol	uncertainty
4.3109	0.504615406	0.024219542
4.5393	0.517349392	0.024219542
4.8226	0.492880164	0.023220798
5.1041	0.49437828	0.023220798
5.3778	0.492880164	0.022971112
5.6506	0.49687514	0.022721426
5.9253	0.501619174	0.022721426
6.3028	0.518597822	0.022721426
6.7744	0.566537534	0.023470484
7.249	0.613478502	0.024219542
7.7131	0.700119544	0.025467972
8.1817	0.78526247	0.026966088
8.6323	0.901116774	0.02871389
9.0901	1.042688736	0.030711378
9.5553	1.149054972	0.03245918
10.016	1.296869084	0.034456668
10.703	1.568777138	0.03870133
11.618	1.98999742	0.044444108
12.542	2.453414636	0.050436572
13.466	3.010214416	0.057677466
14.393	3.629685382	0.065168046
15.326	4.330054612	0.073407684
16.265	5.102083724	0.081647322
17.211	5.919555688	0.090386332
18.161	6.787963596	0.098875656
19.116	7.73776914	0.107864352
20.074	8.711294854	0.116353676
21.516	10.37070801	0.130336092
23.438	12.670815442	0.147065054
4.3049	0.548310456	0.025218286
4.5235	0.519596566	0.024219542
4.7982	0.498373256	0.023470484
5.0688	0.496375768	0.023220798
5.3424	0.494627966	0.022971112
5.6207	0.49687514	0.022721426
5.9002	0.511107242	0.022971112
6.2909	0.524839972	0.022971112
6.7781	0.558547582	0.023470484
7.2541	0.6117307	0.024219542
7.7228	0.693877394	0.025467972
8.1891	0.786011528	0.026966088
8.6534	0.893376508	0.028464204
9.1163	1.028206948	0.030461692
9.583	1.165284562	0.032708866
10.05	1.31459679	0.034706354
10.765	1.599987888	0.038951016
11.695	2.014216962	0.044693794
12.621	2.500105918	0.05118563
13.55	3.048416374	0.058176838
14.482	3.676126978	0.065667418
4.2613	0.51560159	0.024469228
4.3954	0.5368249	0.024718914
4.5826	0.524090914	0.024219542
4.7773	0.49687514	0.023470484
4.9778	0.502867604	0.023470484
5.177	0.489634246	0.022971112
5.3719	0.488885188	0.022721426
5.56	0.493878908	0.022721426
5.7486	0.49063299	0.02247174
5.9374	0.498872628	0.022721426
6.1721	0.50186886	0.02247174
6.4477	0.535826156	0.022971112
6.7263	0.555301664	0.023220798
7.0015	0.58551367	0.02372017
7.2732	0.628209976	0.024469228
7.5473	0.663415702	0.0249686
7.8235	0.71659882	0.025717658
8.0957	0.778770634	0.026716402
8.371	0.847434284	0.027964832
8.6502	0.90136646	0.02871389
8.9279	0.968032622	0.029712634
9.2035	1.056920838	0.030961064
9.4805	1.13357444	0.032209494
9.7562	1.19974123	0.033208238
10.032	1.306107466	0.034706354
10.399	1.456418438	0.036953528
10.859	1.633695498	0.039450388
11.317	1.834942414	0.042196934
11.777	2.059410128	0.045193166
12.239	2.282629412	0.048189398
12.698	2.532814784	0.051685002
13.159	2.801227234	0.05493092
13.622	3.098852946	0.05867621
14.087	3.403719552	0.062671186
14.551	3.735052874	0.066416476
14.236	3.509586416	0.063919616
15.329	4.31582251	0.073157998
16.339	5.147027204	0.08239638
17.344	6.038156538	0.091385076
18.344	6.974479038	0.100873144
19.34	7.949752554	0.109362468
20.335	8.968221748	0.118351164
21.842	10.734999884	0.133082638
23.798	13.116255266	0.150560658
25.753	15.842327014	0.16853805
27.719	18.238813242	0.180023606
29.695	21.255519494	0.19475508
31.682	23.15463121	0.210235612
33.665	26.86121988	0.22971112
35.636	30.1870374	0.24718914
37.61	33.5203455	0.26466716
22.857	11.971944328	0.142570706
23.863	13.21088626	0.150560658
24.838	14.417119326	0.158300924
25.814	15.699256936	0.165791504
26.794	16.966413386	0.173781456
27.772	18.33194612	0.180522978
28.749	19.727940546	0.186765128
29.726	21.15464635	0.193756336
30.705	22.534910558	0.20723938
31.683	24.034274988	0.21597839
32.663	25.55785896	0.2247174
33.645	27.01103148	0.23220798
34.625	28.57406584	0.23969856
35.606	30.07218184	0.24718914
36.586	31.75506548	0.25467972
37.57	33.30311868	0.2621703
38.555	34.93356826	0.26966088
39.539	36.50659006	0.27715146
25.494	15.24832402	0.16479276
26.504	16.5916347	0.17228334
27.479	17.90498306	0.17727706
28.455	19.31071524	0.18476764
29.434	20.68398824	0.18976136
30.412	22.10719844	0.20723938
31.391	23.59283014	0.2122331
32.369	25.13838648	0.22222054
33.355	26.55160924	0.22971112
34.338	28.09966244	0.2372017
35.315	29.6502125	0.24469228
36.293	31.17829082	0.25218286
37.273	32.75380948	0.25967344
38.254	34.36678104	0.26716402
39.234	35.95228714	0.27715146
40.216	37.51032778	0.28464204
41.204	39.02342494	0.28963576
42.188	40.34676074	0.29462948
43.17	41.93226684	0.30212006
44.155	43.28806182	0.30711378
45.139	44.6064039	0.31460436
46.125	45.8673182	0.31959808
47.111	47.23809434	0.32209494
48.097	48.61636106	0.33208238
49.083	50.17689856	0.3370761
50.07	52.0095938	0.34456668
51.056	53.88972938	0.35455412
52.043	55.62255022	0.35954784
53.029	57.23302492	0.36953528
54.016	58.81853102	0.374529
55.003	60.25921924	0.37702586
55.991	61.62749852	0.38451644
56.979	62.68866402	0.3870133
57.966	63.82473532	0.39200702
58.956	65.22797064	0.39450388
59.945	66.92084172	0.40449132
60.934	68.42395144	0.4119819
61.924	69.94453918	0.41447876
62.916	71.40020856	0.42196934
63.908	72.71106006	0.4244662
64.901	74.00443354	0.43195678
65.894	75.33775678	0.43944736
66.888	76.71352664	0.43944736
67.882	78.07431534	0.44693794
68.878	79.31026104	0.4494348
69.873	80.5362193	0.45442852
71.869	83.37514912	0.46441596
74.876	87.17537004	0.47690026
77.893	90.83077308	0.48938456
80.916	94.51613844	0.50686258
36.258	31.26318406	0.25467972
38.339	34.69636656	0.26966088
40.314	37.77249808	0.28464204
42.293	40.62640906	0.29712634
44.271	43.37545192	0.30711378
46.249	46.07705444	0.31959808
48.229	48.95343716	0.32958552
50.209	52.309217	0.34706354
52.192	55.66000312	0.35954784
54.176	58.7261472	0.37203214
56.162	61.64997026	0.38451644
58.15	64.4689252	0.39450388
60.141	67.29537072	0.40698818
62.134	70.09185392	0.41697562
64.128	72.85338108	0.4244662
66.123	75.64986428	0.43445364
68.091	78.22412694	0.44693794
70.002	80.85332052	0.45692538
72.446	84.21159722	0.46691282
75.455	87.9768621	0.47939712
78.476	91.70717094	0.49188142
81.507	95.35758026	0.50436572
79.111	92.2090398	0.49437828
82.478	96.20151894	0.50935944
85.52	99.6871355	0.51934688
88.568	103.18523636	0.53432804
91.62	106.68084036	0.54181862
94.679	110.0865574	0.5493092
97.743	113.4073812	0.5617935
100.82	116.61834316	0.56678722
103.89	120.07649426	0.57927152
106.97	123.24251274	0.5867621
110.06	126.4160218	0.59175582
113.16	129.60201516	0.60174326
116.25	132.90286408	0.61422756
119.36	135.8791212	0.61922128
122.46	138.97023388	0.62920872
125.57	142.11128376	0.63420244
128.7	145.1549561	0.64418988
131.82	148.19613158	0.6491836
134.93	151.22731962	0.65917104
138.05	154.26350138	0.66915848
141.16	157.4519916	0.6741522
144.28	160.35084606	0.68413964
147.4	163.32460632	0.69412708
150.52	166.25591996	0.69662394
153.64	169.31457346	0.70661138
156.76	172.31829604	0.71659882
159.88	175.23462852	0.72658626
163.01	178.3756784	0.72908312
166.13	181.26204856	0.73907056
169.26	184.17588418	0.749058
172.38	187.03478888	0.75904544
175.51	189.77634116	0.75904544
178.63	192.28069174	0.76903288
181.75	194.98728798	0.77652346
184.87	197.90861418	0.7865109
187.99	200.27064374	0.79400148
191.11	202.9073279	0.79400148
194.23	206.13826474	0.80398892
197.34	208.76745832	0.81397636
200.44	211.49402944	0.8239638
203.52	214.1556822	0.83145438
206.59	216.64255476	0.82895752
209.64	219.17686766	0.83894496
212.68	221.85100472	0.84643554
215.69	224.42526738	0.85642298
218.69	227.07443584	0.86391356
221.67	229.64620164	0.87140414
224.64	232.1330742	0.873901
227.61	234.56002212	0.88139158
230.54	237.24414662	0.89137902
233.45	239.84337788	0.8988696
236.34	241.9956712	0.90386332
239.22	244.57742444	0.91385076
242.1	246.15044624	0.91884448
244.96	248.55492242	0.92633506
247.81	250.7721341	0.93132878
250.65	253.28647212	0.93881936
253.49	254.98933064	0.94630994
256.31	256.80954158	0.95130366
259.1	259.74584894	0.95879424
261.91	260.8219956	0.96378796
264.69	262.84195534	0.96878168
267.47	265.71833806	0.97876912
270.26	267.95552462	0.9862597
273.15	269.83066648	0.99125342
275.93	272.17771488	0.998744
278.71	274.33250506	1.00623458
281.48	276.4648235	1.0112283
284.24	278.43484604	1.01871888
287	280.48227124	1.0237126
289.76	282.27501672	1.02870632
292.51	284.1176994	1.0361969
295.26	285.99783498	1.04119062
298.02	287.87797056	1.04618434
300.77	289.97533296	1.05367492
303.53	291.76807844	1.05866864
306.28	293.5932831	1.06366236
309.04	295.49838728	1.07115294
311.8	297.26117044	1.07614666
314.56	298.99399128	1.08114038
317.53	300.51707588	1.0861341
320.3	302.56450108	1.09362468
323.07	304.16998206	1.0986184
86.118	100.39624374	0.52184374
87.258	101.63218944	0.52683746
88.283	102.82818538	0.53432804
89.308	103.95926296	0.53932176
90.333	105.21268668	0.53432804
91.362	106.31879566	0.53932176
92.392	107.489823	0.54431548
93.424	108.58594454	0.5493092
94.457	109.82189024	0.54681234
95.492	110.96545212	0.55180606
96.528	111.90427148	0.55430292
97.565	113.09777056	0.55929664
98.603	114.41111892	0.56429036
99.649	115.37241002	0.5617935
100.69	116.48600958	0.56678722
101.73	117.58712484	0.57178094
102.79	118.7007244	0.5742778
103.84	119.78436164	0.57927152
104.89	120.90295492	0.57677466
105.93	122.01405762	0.58176838
106.98	123.13764462	0.58426524
108.03	124.24625046	0.58925896
109.08	125.36484374	0.59425268
110.13	126.45846842	0.59175582
111.18	127.43723754	0.59425268
112.23	128.51837792	0.5992464
113.29	129.53959366	0.60174326
114.34	130.68065868	0.60673698
115.39	131.77678022	0.6117307
116.44	132.81048026	0.61422756
117.5	133.8441803	0.6117307
118.55	134.96027672	0.61672442
119.63	136.13879464	0.61922128
120.69	136.93529298	0.62171814
121.74	138.14627008	0.62671186
122.8	139.1749764	0.63170558
123.86	140.25861364	0.62671186
124.91	141.44462214	0.63170558
125.97	142.62563692	0.6366993
127.03	143.4570913	0.63919616
128.08	144.35096718	0.64169302
129.14	145.37467978	0.64668674
130.2	146.58066316	0.65168046
131.25	147.54944484	0.65417732
132.31	148.61061034	0.6491836
133.37	149.93144928	0.65417732
134.43	150.80035656	0.65917104
135.49	151.95390588	0.6616679
136.56	152.70046702	0.66416476
137.61	153.74914822	0.66915848
138.67	154.90269754	0.67165534
139.72	155.89644782	0.67664906
140.78	156.9401353	0.67165534
141.83	157.84399862	0.6741522
142.89	158.79030856	0.67914592
143.94	159.81901488	0.68164278
144.99	160.85021806	0.6866365
146.04	161.99377994	0.68913336
147.09	162.84021548	0.69163022
148.14	163.74158194	0.69662394
149.18	164.71286048	0.6991208
150.23	165.79899458	0.69412708
151.27	167.02245598	0.6991208
152.32	167.82145118	0.70161766
153.38	169.0249377	0.70661138
154.42	169.98373194	0.70910824
155.47	171.06736918	0.71410196
156.52	172.02616342	0.71659882
157.57	172.98495766	0.71909568
158.61	173.87633668	0.72159254
159.66	174.8176529	0.72658626
160.71	175.82388748	0.72908312
161.75	176.91002158	0.7240894
162.8	177.97368394	0.72908312
163.85	178.90251586	0.73157998
164.89	179.87629126	0.73407684
165.94	180.89501014	0.73907056
166.99	181.71897394	0.74156742
168.03	182.65529644	0.74406428
169.08	183.63656242	0.74656114
170.13	184.5554069	0.75155486
171.17	185.59410066	0.75405172
89.573	104.25139558	0.53432804
91.841	106.74575872	0.54181862
93.888	109.01790132	0.54431548
95.935	111.25259102	0.55180606
97.982	113.44233724	0.5617935
100.03	115.64956148	0.56429036
102.08	117.97164128	0.57178094
104.14	120.09397228	0.5742778
106.2	122.39358034	0.58176838
108.27	124.44100554	0.58925896
110.33	126.53836794	0.59175582
112.4	128.69565498	0.5992464
114.47	130.81299226	0.60673698
116.54	133.17502182	0.60923384
118.62	135.00022648	0.61672442
120.69	137.14253236	0.624215
122.8	139.2623665	0.63170558
124.88	141.31228856	0.63170558
126.97	143.35971376	0.63919616
129.05	145.43710128	0.64668674
131.13	147.52447624	0.65417732
133.22	149.56690772	0.65417732
135.3	151.52694282	0.6616679
137.39	153.54939942	0.66666162
139.47	155.52691254	0.6741522
141.56	157.54687228	0.6741522
143.64	159.59679434	0.68164278
145.73	161.62674152	0.68913336
147.81	163.57429232	0.69412708
149.89	165.55929602	0.70161766
151.97	167.62919296	0.70161766
154.06	169.63417154	0.70910824
156.15	171.6840936	0.71410196
158.24	173.61666324	0.72159254
160.32	175.82638434	0.72908312
162.41	177.56170204	0.72658626
164.49	179.68902676	0.73407684
166.58	181.29950146	0.73907056
168.67	183.22208366	0.74656114
170.76	185.14716272	0.75155486
172.85	187.25700942	0.75904544
174.95	188.9373962	0.75654858
177.04	190.61278926	0.7615423
179.13	192.37307556	0.76903288
181.21	194.29066404	0.7740266
183.3	195.97105082	0.77902032
185.39	197.77378374	0.7865109
187.48	199.99099542	0.79400148
189.57	201.44416794	0.78900776
191.66	203.2069511	0.79649834
193.74	205.3043135	0.80398892
195.83	207.12452444	0.80898264
197.92	209.0121506	0.81397636
200.02	210.2855492	0.81897008
202.12	212.11075386	0.8239638
204.22	214.40037448	0.83145438
206.33	215.54893008	0.82646066
208.45	218.00833718	0.83395124
210.58	219.17936452	0.83894496
212.7	220.96711628	0.84393868
214.83	222.90218278	0.85142926
216.96	224.83225556	0.85642298
219.1	226.57506384	0.8614167
221.23	229.06693012	0.87140414
223.42	230.1480705	0.873901
225.57	231.88588506	0.873901
227.72	233.68861798	0.87889472
229.87	235.53629438	0.88388844
232.02	238.2753498	0.89387588
234.17	240.04312668	0.8988696
236.33	241.78593496	0.90386332
238.49	242.57244586	0.90636018
240.64	245.25157664	0.91385076
242.81	246.88452308	0.91884448
244.99	248.4750229	0.9238382
247.17	250.060529	0.9238382
249.35	251.8332996	0.9238382
251.54	253.6060702	0.9488068
253.73	255.6035582	0.9488068
255.93	257.4012974	0.9488068
258.2	258.7745704	0.9488068
260.42	260.5972782	0.9737754
262.65	262.419986	0.9737754
264.88	264.1178508	0.9737754
267.12	265.8406842	0.9737754
269.37	267.5135804	0.9737754
271.62	269.2364138	0.998744
273.88	270.90931	0.998744
276.14	271.783211	0.998744
278.38	274.5547256	0.998744
280.66	275.029129	0.998744
282.91	276.6271194	1.0237126
285.16	279.2987596	1.0237126
287.46	280.8218442	1.0237126
289.76	282.2450544	1.0237126
292.07	282.8692694	1.0237126
294.48	285.7905956	1.0486812
296.84	287.3636174	1.0486812
299.23	288.761859	1.0486812
301.59	289.4859484	1.0486812
303.92	292.0577142	1.0486812
306.3	293.9303592	1.0736498
308.68	295.753067	1.0736498
311.08	296.127596	1.0736498
313.44	298.7992362	1.0736498
315.85	300.247415	1.0736498
318.28	301.4708764	1.0986184
320.71	302.8191808	1.0986184
323.15	304.367234	1.0986184

System: copper(II) sulfate pentahydrate; phases: Crystal
Fixed: Pressure, kPa = 101.325
Property: Molar heat capacity at constant pressure, J/K/mol (Crystal); method: Small (less than 1 g) adiabatic calorimetry
Temperature, K	Molar heat capacity at constant pressure, J/K/mol	uncertainty
5	0.4962	0.0235
10	1.299	0.035
15	4.062	0.07
20	8.662	0.116
25	14.64	0.16
30	21.51	0.2
35	29.13	0.25
40	37.15	0.28
45	44.39	0.31
50	51.93	0.34
55	60.19	0.38
60	66.98	0.4
65	74.12	0.43
70	80.84	0.45
75	87.24	0.48
80	93.33	0.5
85	99.12	0.52
90	104.7	0.5
95	110.3	0.5
100	115.7	0.6
110	126.2	0.6
120	136.3	0.6
130	146.3	0.6
140	156	0.7
150	165.6	0.7
160	175.2	0.7
170	184.5	0.7
180	193.2	0.8
190	201.9	0.8
200	210.9	0.8
210	219.4	0.9
220	228	0.9
230	236.5	0.9
240	244.6	0.9
250	252.3	0.9
260	260.1	1
270	267.7	1
273.15	270.1	1
280	275.2	1
290	282.3	1
298.15	288	1
300	289.3	1.1
310	296	1.1
320	302.2	1.1

System: copper(II) sulfate pentahydrate; phases: Crystal
Fixed: Pressure, kPa = 101.325
Property: Molar entropy, J/K/mol (Crystal); method: Small (less than 1 g) adiabatic calorimetry
Temperature, K	Molar entropy, J/K/mol	uncertainty
5	1.205	0.092
10	1.688	0.106
15	2.669	0.125
20	4.429	0.155
25	6.984	0.188
30	10.25	0.25
35	14.13	0.29
40	18.55	0.33
45	23.35	0.38
50	28.39	0.42
55	33.74	0.46
60	39.25	0.5
65	44.9	0.54
70	50.64	0.59
75	56.43	0.63
80	62.26	0.67
85	68.09	0.71
90	73.92	0.78
95	79.73	0.8
100	85.52	0.84
110	97.04	0.91
120	108.5	1
130	119.8	1
140	131	1.1
150	142.1	1.1
160	153.1	1.2
170	164	1.3
180	174.7	1.3
190	185.4	1.3
200	196	1.4
210	206.5	1.5
220	216.9	1.5
230	227.2	1.6
240	237.5	1.6
250	247.6	1.6
260	257.7	1.7
270	267.6	1.7
273.15	270.7	1.7
280	277.5	1.8
290	287.3	1.9
298.15	295.2	1.9
300	297	1.9
310	306.6	1.9
320	316.1	2

System: copper(II) sulfate pentahydrate; phases: Crystal
Fixed: Pressure, kPa = 101.325
Property: Molar enthalpy, kJ/mol (Crystal); method: Small (less than 1 g) adiabatic calorimetry
Temperature, K	Molar enthalpy, kJ/mol	uncertainty
5	0.002267	0.000126
10	0.005969	0.00025
15	0.01853	0.00049
20	0.04966	0.00091
25	0.1075	0.0015
30	0.1975	0.0033
35	0.3238	0.0043
40	0.4898	0.0056
45	0.6941	0.007
50	0.9336	0.0087
55	1.214	0.01
60	1.531	0.012
65	1.884	0.014
70	2.272	0.017
75	2.692	0.019
80	3.144	0.021
85	3.625	0.024
90	4.135	0.029
95	4.672	0.032
100	5.237	0.035
110	6.447	0.041
120	7.76	0.047
130	9.173	0.053
140	10.68	0.06
150	12.29	0.07
160	14	0.07
170	15.8	0.08
180	17.68	0.09
190	19.66	0.1
200	21.72	0.1
210	23.87	0.11
220	26.11	0.12
230	28.43	0.13
240	30.84	0.14
250	33.32	0.15
260	35.89	0.16
270	38.53	0.17
273.15	39.37	0.17
280	41.24	0.18
290	44.03	0.18
298.15	46.35	0.2
300	46.89	0.2
310	49.81	0.21
320	52.8	0.22

System: copper(II) sulfate pentahydrate; phases: Crystal
Fixed: Pressure, kPa = 101.325
Property: Molar heat capacity at constant pressure, J/K/mol (Crystal); method: Small (less than 1 g) adiabatic calorimetry
Temperature, K	Molar heat capacity at constant pressure, J/K/mol	uncertainty
4.3353	0.515851276	0.026466716
4.5685	0.482892724	0.025218286
4.8236	0.44319265	0.02372017
5.0817	0.442693278	0.023470484
5.3519	0.435951756	0.022971112
5.6318	0.431457408	0.022721426
5.914	0.447936684	0.022971112
6.303	0.458673182	0.022971112
6.7827	0.48813613	0.023470484
7.2581	0.55555135	0.024718914
7.7253	0.63545087	0.026466716
8.1902	0.735574956	0.028214518
8.6503	0.841192134	0.030461692
9.1074	0.951803032	0.03245918
9.5631	1.103112748	0.035455412
10.02	1.250427488	0.038201958
10.71	1.5355689	0.043445364
11.629	1.943555824	0.050935944
12.55	2.432441012	0.059425268
13.474	3.006469126	0.068913336
14.401	3.652406808	0.079150462
15.333	4.373749662	0.090386332
16.272	5.148025948	0.101622202
17.217	5.985472792	0.113107758
18.166	6.864617198	0.125092686
19.119	7.8026875	0.137077614
20.077	8.780957248	0.149062542
21.516	10.50304159	0.169287108
23.428	12.809890544	0.195254452
25.353	15.407623688	0.220472738
27.283	18.192621332	0.246939454
29.231	20.8987182	0.266914334
31.216	23.13465633	0.288137644
33.194	26.39680392	0.31710122
35.148	29.64022506	0.34456668
37.112	32.80624354	0.36703842
36.175	31.26568092	0.35455412
38.378	34.83619072	0.38201958
40.348	37.93229712	0.40698818
42.32	41.04088782	0.4244662
44.293	44.03711982	0.44693794
46.266	47.02586124	0.46441596
48.241	49.92721256	0.48439084
50.215	52.88099794	0.50186886
52.193	55.7423995	0.52184374
54.173	58.7386315	0.5368249
56.154	61.81975674	0.55180606
58.138	64.88590082	0.57178094
60.124	67.94205746	0.59175582
62.112	70.89334598	0.60424012
64.103	73.66236372	0.61922128
66.096	76.32651334	0.63420244
68.09	78.89827914	0.64668674
70.085	81.47004494	0.6616679
72.581	84.91071802	0.67165534
75.59	88.71842952	0.69412708
79.356	93.02800988	0.70910824
82.907	97.31761536	0.73157998
85.948	100.89561574	0.74156742
88.997	104.46362868	0.75654858
92.053	107.9642264	0.76903288
95.118	111.37743402	0.78151718
98.191	114.67828294	0.79400148
101.27	117.91671036	0.80398892
104.36	121.28747136	0.81397636
107.46	124.55835796	0.8239638
110.57	127.77930736	0.84393868
113.69	130.98277874	0.85142926
116.81	134.01396678	0.85891984
119.93	137.32480314	0.86641042
123.07	140.3984378	0.88388844
126.2	143.6693244	0.89137902
129.38	146.91274554	0.8988696
132.53	150.01384566	0.91634762
135.69	153.08748032	0.92134134
138.85	156.32091402	0.92633506
142.01	159.45946704	0.94381308
145.18	162.59052948	0.94630994
148.35	165.50186824	0.96378796
151.52	168.7003459	0.96628482
154.7	171.73902452	0.98126598
157.89	174.7926843	0.98376284
161.09	177.81638176	1.00124086
164.29	180.85755724	1.00124086
167.49	183.6939902	1.01622202
170.71	186.66275674	1.01622202
173.93	189.3993153	1.03120318
177.15	192.52788088	1.04618434
180.42	195.74633342	1.04618434
183.65	198.95979224	1.06366236
186.89	202.38049044	1.06366236
190.12	206.13077416	1.08363724
193.37	209.23437114	1.09612154
196.62	212.01337632	1.09362468
199.89	214.09825442	1.10361212
203.14	217.48649344	1.12109014
206.4	220.51518462	1.11859328
209.68	223.60130358	1.13357444
212.95	226.5401078	1.14605874
216.23	229.64120792	1.14356188
219.52	232.64742736	1.15854304
222.81	235.63616878	1.17102734
226.1	239.20917544	1.18850536
229.38	242.74223234	1.1860085
232.75	246.08802474	1.20098966
236.03	249.810843	1.2234614
239.28	253.6310388	1.2234614
242.5	257.5011718	1.2234614
245.7	261.4711792	1.24843
248.87	265.5660296	1.2733986
252.02	268.786979	1.2733986
255.15	266.8893654	1.24843
258.28	269.3612568	1.2733986
261.39	272.2076772	1.2733986
264.46	276.8768054	1.2983672
267.49	288.137644	1.3233358
270.38	339.7227716	1.747802
273.27	284.3424168	1.3233358
276.26	287.8629894	1.3233358
279.23	285.2163178	1.3233358
282.27	286.1651246	1.2983672
285.23	288.3373928	1.2983672
288.18	290.4597238	1.3233358
291.11	292.7818036	1.3233358
294.03	294.9041346	1.3483044
296.93	297.001497	1.3483044
299.82	299.1987338	1.3233358
302.7	301.495845	1.3483044
305.56	303.4683644	1.3483044
308.41	305.5657268	1.373273
311.25	307.5881834	1.373273
314.07	309.8353574	1.373273
316.88	312.4071232	1.373273
319.69	314.2547996	1.373273
322.49	315.5032296	1.373273
77.955	91.35511368	0.70411452
79.147	92.84324224	0.70910824
80.162	93.94685436	0.71659882
81.179	95.2427247	0.71659882
82.196	96.42124262	0.72658626
83.215	97.59226996	0.73407684
84.236	98.89563088	0.7365737
85.257	100.1740232	0.74406428
86.28	101.27014474	0.74406428
87.304	102.49110928	0.75155486
88.332	103.67212406	0.7615423
89.363	104.73328956	0.75904544
90.394	105.94426666	0.76653602
91.427	107.16023748	0.76403916
92.465	108.24886844	0.77152974
93.499	109.4748267	0.77902032
94.554	110.66832578	0.77652346
95.592	111.72699442	0.78401404
96.632	112.86556258	0.79150462
97.679	113.95419354	0.78900776
98.722	115.17016436	0.79649834
99.767	116.31122938	0.80398892
100.81	117.41983522	0.80149206
101.86	118.59086256	0.80898264
102.91	119.61956888	0.81397636
103.96	120.80058366	0.8114795
105.01	121.85425858	0.81897008
106.06	122.97285186	0.8239638
107.12	123.92415552	0.83145438
108.17	125.2300133	0.82895752
109.23	126.17132952	0.83395124
110.29	127.25996048	0.84144182
111.37	128.5633214	0.83894496
112.43	129.57205284	0.84393868
113.49	130.69314298	0.85142926
114.56	131.61698118	0.85642298
115.62	132.8079834	0.85142926
116.68	133.94155784	0.85891984
117.75	134.92532068	0.86391356
118.81	136.21869416	0.87140414
119.88	137.1650041	0.86641042
120.95	138.1887167	0.87140414
122.02	139.10756118	0.87889472
123.09	140.25611678	0.88388844
124.16	141.38220064	0.87889472
125.23	142.70054272	0.8863853
126.3	143.66433068	0.89137902
127.37	144.65808096	0.8988696
128.47	145.88154236	0.89387588
129.54	146.78790254	0.8988696
130.62	147.66929412	0.90386332
131.69	149.0500577	0.9113539
132.77	150.08126088	0.91634762
133.85	151.34966576	0.9113539
134.92	152.13118294	0.91634762
136	153.03504626	0.92134134
137.07	154.22854534	0.92633506
138.14	155.43952244	0.93382564
139.22	156.2534988	0.92633506
140.3	157.177337	0.93132878
141.37	158.29093656	0.9363225
142.45	159.46695762	0.94381308
143.52	160.61551322	0.9488068
144.6	161.74159708	0.94381308
145.7	162.71537248	0.9488068
146.78	163.88889668	0.95380052
147.86	165.07740204	0.9612911
148.94	165.94381246	0.96378796
150.02	166.76777626	0.95629738
151.09	167.99872824	0.96378796
152.17	169.13230268	0.96878168
153.24	170.01619112	0.9737754
154.32	171.0598786	0.97876912
155.4	172.11854724	0.98376284
156.48	173.1197881	0.97627226
157.56	174.07608548	0.98126598
158.64	175.11477924	0.9862597
159.72	176.09854208	0.99125342
160.81	177.05483946	0.99624714
161.89	178.19590448	1.00124086
163	179.40188786	1.00873144
164.09	180.2608077	0.998744
165.17	181.1347087	1.00373772
166.26	182.01110656	1.00873144
167.35	183.03731602	1.01372516
168.44	184.43555762	1.01871888
169.53	185.06476634	1.0237126
170.62	186.2407874	1.01372516
171.71	187.46924252	1.02121574
172.8	188.138401	1.0237126
173.89	188.90493702	1.02870632
174.98	190.00105856	1.03370004
176.07	191.27945088	1.03869376
177.16	191.9710811	1.04368748
178.25	192.96732824	1.03370004
179.35	194.0309906	1.03869376
180.47	195.63397472	1.04618434
181.57	196.1033844	1.0486812
182.67	197.04969434	1.05367492
183.77	198.41048304	1.0611655
184.86	199.5115983	1.06615922
185.95	200.62020414	1.07115294
187.05	201.81620008	1.0611655
188.14	203.74627286	1.07115294
189.25	204.46287168	1.0736498
190.35	205.40668476	1.07864352
191.45	206.6651022	1.0861341
192.55	207.96846312	1.09112782
193.65	208.93974166	1.09612154
194.75	209.88854846	1.10111526
195.86	210.72499656	1.08863096
196.97	211.55645094	1.09362468
198.12	212.61511958	1.0986184
199.23	213.43658652	1.10111526
200.35	215.0170989	1.10860584
201.49	215.229332	1.1111027
202.61	217.01958062	1.11859328
203.74	217.34666928	1.12109014
204.87	218.10821158	1.10860584
205.99	219.32917612	1.11359956
207.11	220.48272544	1.11859328
208.23	222.3828359	1.12858072
209.37	222.8822079	1.12858072
210.49	223.25923376	1.13107758
211.61	224.88968334	1.13856816
212.75	225.66870366	1.14356188
213.88	226.39778678	1.14605874
215	227.94583998	1.1360713
216.19	228.74483518	1.14106502
217.31	230.09064272	1.14605874
218.45	231.2217203	1.15105246
219.6	231.89836936	1.15354932
220.72	233.29661096	1.1610399
221.86	234.58499072	1.16603362
223	235.73354632	1.17102734
224.14	236.54502582	1.17602106
225.28	237.03191352	1.17851792
226.41	238.7247846	1.16853048
227.55	239.68357884	1.1735242
228.69	240.10305132	1.1735242
229.82	241.69355114	1.18101478
230.95	243.17418912	1.18850536
232.09	244.43260656	1.19349908
233.23	245.47629404	1.1984928
234.4	246.29276726	1.20348652
235.54	247.77839896	1.20848024
236.67	248.93444514	1.21347396
237.8	249.9606546	1.2234614
238.93	250.6597754	1.1984928
240.05	252.4575146	1.2234614
241.18	254.1553794	1.2234614
242.31	255.303935	1.2234614
243.44	256.3526162	1.2234614
244.56	257.8257636	1.24843
245.68	259.423754	1.24843
246.81	260.9967758	1.24843
247.93	262.4699232	1.24843
249.05	263.9430706	1.2733986
250.16	265.91559	1.2733986
251.28	267.3388002	1.24843
252.43	268.7370418	1.2733986
253.55	268.8618848	1.2733986
254.67	267.8631408	1.2733986
255.79	265.6908726	1.24843
256.92	265.790747	1.24843
258.04	266.6896166	1.24843
259.16	267.913078	1.2733986
260.28	269.1365394	1.2733986
261.41	270.409938	1.2733986
262.53	272.1827086	1.2733986
263.65	274.0803222	1.2983672
264.78	276.4523392	1.2983672
265.9	279.4485712	1.2983672
267.02	283.4685158	1.3233358
268.14	289.0864508	1.3483044
269.26	299.2986082	1.3982416
270.38	332.9063438	1.7228334
271.46	344.4168684	1.6728962
272.63	281.0465616	1.3233358
273.8	282.8443008	1.2983672
274.93	283.518453	1.2983672
276.06	284.9166946	1.3233358
277.18	287.2138058	1.3233358
278.31	288.0377696	1.3233358
279.45	283.0690182	1.2983672
280.57	284.267511	1.3233358
281.7	285.5658782	1.2983672
282.84	286.5396536	1.2983672
283.97	287.5383976	1.2983672
285.11	288.0377696	1.2983672
286.25	289.386074	1.3233358
287.4	289.8105402	1.3233358
288.59	291.8329968	1.3233358
289.75	292.881678	1.3233358
290.91	292.3074002	1.3233358
292.1	293.3061442	1.3233358
293.27	294.3548254	1.3233358
294.44	295.253695	1.3483044
295.61	296.0277216	1.3483044
296.79	296.1525646	1.3483044
297.94	297.8504294	1.3483044
299.12	298.6494246	1.3233358
300.3	299.4484198	1.3233358
301.47	300.1725092	1.3483044
302.65	301.0464102	1.3483044
303.83	301.9203112	1.3483044
305.01	302.7692436	1.3483044
306.19	303.6431446	1.3483044
307.44	304.6918258	1.3483044
308.62	305.5407582	1.373273
309.8	305.3909466	1.3483044
310.97	306.739251	1.373273
312.15	307.8129008	1.373273
313.33	308.9614564	1.373273
314.51	309.7604516	1.373273
315.69	310.8840386	1.373273
316.88	311.608128	1.373273
318.06	312.5319662	1.373273
319.25	313.4558044	1.373273
320.43	313.605616	1.373273
321.6	312.5069976	1.373273
322.78	316.4020992	1.373273
323.97	317.1761258	1.3982416
196.02	208.80491122	1.07864352
196.78	210.58766926	1.08863096
197.54	211.36668958	1.09112782
198.28	211.93597366	1.09362468
199.03	212.8448307	1.0986184
199.77	213.38415246	1.10111526
200.5	214.13820418	1.10361212
201.23	214.7674129	1.10860584
201.96	215.31172838	1.1111027
202.68	216.54767408	1.11609642
203.42	216.86976902	1.11859328
204.14	217.62382074	1.12109014
204.87	218.14316762	1.10860584
205.59	218.93217538	1.1111027
206.31	219.38910076	1.11359956
207.02	220.57760612	1.11859328
207.81	220.8847199	1.12109014
208.52	222.43776682	1.12858072
209.24	222.9196608	1.12858072
209.96	223.05449124	1.13107758
210.67	223.73613402	1.13357444
211.38	224.38781448	1.1360713
212.1	224.82476498	1.13856816
212.81	225.62625704	1.14106502
213.52	226.64247906	1.14605874
214.25	227.01950492	1.1485556
214.96	227.57880156	1.15105246
215.67	228.20801028	1.13856816
216.38	229.08940186	1.14106502
217.1	229.55381782	1.14356188
217.81	229.89588764	1.14605874
218.51	230.58751786	1.1485556
219.27	231.86840704	1.15354932
219.98	232.07314956	1.15604618
220.68	232.62994934	1.15854304
221.39	233.35903246	1.1610399
222.09	234.579997	1.16603362
222.81	235.01445064	1.16853048
223.51	235.2541492	1.16853048
224.22	235.9782386	1.1735242
224.92	236.67985626	1.17602106
225.62	237.73602804	1.18101478
226.33	238.2628655	1.16603362
227.03	238.58496044	1.16853048
227.73	239.34150902	1.17102734
228.43	239.9856989	1.1735242
229.13	241.12676392	1.17851792
229.84	241.42888398	1.18101478
230.59	242.2578415	1.18351164
231.28	242.66732654	1.1860085
231.97	243.30402584	1.18850536
232.67	243.84584446	1.19100222
233.36	244.29527926	1.19349908
234.05	245.56867786	1.1984928
234.74	245.8408356	1.20098966
235.43	246.75718322	1.20348652
236.12	248.08551274	1.2109771
236.8	248.3876328	1.2109771
237.49	248.39262652	1.2109771
238.17	249.65853454	1.20098966
238.86	250.684744	1.1984928
239.54	251.4088334	1.1984928
240.22	252.0829856	1.1984928
240.9	252.7821064	1.2234614
241.62	254.67972	1.2234614
242.31	255.2789664	1.2234614
243	255.2539978	1.2234614
243.67	255.7533698	1.2234614
244.35	256.2028046	1.2234614
245.02	258.050481	1.24843
245.7	258.6497274	1.24843
246.37	259.3488482	1.24843
247.04	259.8731888	1.24843
247.71	260.547341	1.24843
248.38	262.794515	1.24843
249.05	263.8931334	1.2733986
249.73	264.7670344	1.2733986
250.4	265.1165948	1.2733986
251.06	267.0641456	1.2733986
251.73	268.2376698	1.2733986
252.44	269.161508	1.2733986
253.1	269.7607544	1.2733986
253.77	270.409938	1.2733986
254.44	270.784467	1.2733986
255.11	269.9854718	1.2733986
255.78	268.3874814	1.2733986
256.46	267.7632664	1.24843
257.13	266.914334	1.24843
257.81	266.8394282	1.24843
258.49	266.5897422	1.24843
259.16	267.8132036	1.24843
259.84	267.9630152	1.2733986
260.5	268.3625128	1.2733986
261.17	270.2351578	1.2733986
261.85	271.3587448	1.2733986
262.53	271.2339018	1.2733986
263.24	272.3325202	1.2733986
263.9	273.1814526	1.2733986
264.57	275.1040348	1.2983672
265.24	276.277559	1.2983672
265.91	277.8256122	1.2983672
266.57	280.7968756	1.2983672
267.24	282.9941124	1.3233358
267.89	286.7394024	1.3233358
268.56	290.5595982	1.3483044
269.21	298.249927	1.3982416
269.86	308.736739	1.5230846
270.48	333.1310612	1.5730218
271.09	383.642539	1.747802
271.71	298.8242048	1.4731474
272.36	280.397378	1.6978648
273.04	280.397378	1.2983672
273.74	281.1963732	1.2983672
274.4	281.0465616	1.2983672
275.07	282.4947404	1.2983672
275.73	282.3199602	1.2983672
276.39	283.2437984	1.2983672
277.05	284.9416632	1.3233358
277.71	285.6657526	1.3233358
278.37	287.6632406	1.3233358
279.05	283.8430448	1.2983672
279.71	282.8692694	1.2983672
280.38	282.9691438	1.2983672
281.05	283.8680134	1.2983672
281.71	285.1913492	1.2983672
282.39	285.1913492	1.2983672
283.05	284.891726	1.2983672
283.72	285.6907212	1.2983672
284.43	286.889214	1.2983672
285.09	286.6894652	1.2983672
285.76	287.4634918	1.2983672
286.42	287.763115	1.2983672
287.09	288.3124242	1.2983672
287.75	289.0365136	1.3233358
288.42	289.3111682	1.3233358
289.09	290.2350064	1.3233358
289.76	292.6070234	1.3233358
290.44	291.3336248	1.3233358
291.11	291.009033	1.3233358
291.78	291.8579654	1.3233358
292.46	294.1051394	1.3233358
293.15	293.4559558	1.3233358
293.82	293.8304848	1.3233358
294.5	295.0289776	1.3483044
295.25	295.7780356	1.3483044
295.94	296.502125	1.3483044
296.64	295.9278472	1.3483044
297.32	296.2274704	1.3483044
298	296.8516854	1.3233358
298.68	299.0489222	1.3233358
299.37	298.1500526	1.3233358
300.06	299.1987338	1.3233358
300.75	298.8491734	1.3233358
301.44	299.0239536	1.3233358
302.12	300.5720068	1.3483044
302.82	300.4221952	1.3483044
303.5	300.7218184	1.3483044
304.18	301.4708764	1.3483044
304.87	301.5208136	1.3483044
305.55	302.3198088	1.3483044
306.3	304.4171712	1.3483044
306.99	304.5420142	1.3483044
307.7	304.1924538	1.3483044
308.38	304.5170456	1.3483044
309.07	305.3909466	1.3483044
309.75	305.6656012	1.373273
310.43	305.5157896	1.3483044
311.11	306.239879	1.373273
311.79	306.6893138	1.373273
312.47	307.3135288	1.373273
313.16	307.8378694	1.373273
313.84	308.5619588	1.373273
314.52	309.111268	1.373273
315.19	310.484541	1.373273
315.89	310.1849178	1.373273
316.57	310.5594468	1.373273
317.31	309.3110168	1.3483044
317.99	311.108756	1.373273
318.66	311.5831594	1.373273
319.34	313.5307102	1.373273
320.02	313.2810242	1.373273
320.7	312.7816522	1.373273
321.37	314.2048624	1.373273
322.05	315.5281982	1.373273
322.74	316.3271934	1.373273
323.43	315.9027272	1.373273
324.11	315.9526644	1.373273
88.081	103.41494748	0.75904544
90.757	106.38870774	0.76903288
93.359	109.28007162	0.77902032
95.966	112.109014	0.7865109
98.58	114.96292498	0.79649834
101.2	117.7144647	0.80398892
103.83	120.63329404	0.8114795
106.46	123.35986516	0.82646066
109.1	126.12638604	0.83395124
111.74	128.74309532	0.83894496
114.38	131.41473552	0.85392612
117.02	134.20372814	0.8614167
119.67	137.0276768	0.86641042
122.32	139.58196458	0.88139158
124.97	142.21864874	0.88388844
127.62	145.00015078	0.8988696
130.3	147.58440088	0.90136646
132.95	150.13119808	0.91634762
135.59	152.74790736	0.91884448
138.23	155.30968572	0.93382564
140.87	157.92140128	0.93382564
143.51	160.82774632	0.95130366
146.16	163.12985124	0.9488068
148.79	165.59924578	0.96378796
150.77	167.62919296	0.9612911
152.1	169.00246596	0.96878168
153.43	170.10857494	0.9737754
154.77	171.24963996	0.97876912
156.1	172.57297576	0.9862597
157.44	173.9687205	0.98126598
158.78	175.16971016	0.9862597
160.11	176.48305852	0.99375028
161.48	177.6765576	0.998744
162.82	178.90251586	1.00623458
164.16	180.28327944	0.998744
165.49	181.51922514	1.00623458
166.83	182.7326991	1.0112283
168.17	183.7564117	1.01622202
169.5	184.86501754	1.02121574
170.84	186.2782403	1.01622202
172.18	187.67897876	1.02121574
173.51	188.79257832	1.02620946
174.85	189.90617788	1.03370004
176.18	191.23201054	1.03869376
177.52	192.40303788	1.04618434
178.85	193.69141764	1.0361969
180.19	194.75008628	1.04119062
181.52	196.04595662	1.0486812
182.89	197.44919194	1.05617178
184.23	198.66516276	1.0611655
185.55	200.51283916	1.07115294
186.89	201.621445	1.0611655
188.22	203.52654918	1.07115294
189.56	204.61518014	1.07614666
190.88	206.96722226	1.0861341
192.21	207.9509851	1.09112782
193.55	208.34798584	1.09362468
194.87	210.10078156	1.10111526
196.2	210.8473427	1.08863096
197.52	212.44782996	1.09612154
198.86	213.01461718	1.0986184
200.18	214.49775202	1.10610898
201.51	215.19687282	1.1111027
202.83	216.30547866	1.11609642
204.2	218.1881111	1.123587
205.53	218.79734494	1.1111027
206.85	220.61256216	1.11859328
208.18	221.52391606	1.123587
209.5	223.32664898	1.13107758
210.83	223.72364972	1.13357444
212.14	225.3540993	1.14106502
213.47	226.66744766	1.14605874
214.8	227.74858804	1.15105246
216.13	230.23046688	1.14605874
217.46	230.34282558	1.1485556
218.79	231.49387804	1.15354932
220.12	232.92707568	1.15854304
221.44	233.43643512	1.1610399
222.76	235.18923084	1.16853048
224.08	236.48010746	1.17602106
225.45	237.84838674	1.18101478
226.77	238.56997928	1.16853048
228.08	239.61366676	1.1735242
229.38	240.91203396	1.17851792
230.69	242.6323705	1.1860085
232	244.2178766	1.19349908
233.31	244.85956962	1.19599594
234.6	245.96817546	1.20098966
235.9	247.42883856	1.20848024
237.18	249.45379202	1.21597082
238.48	250.93443	1.1984928
239.78	251.7833624	1.1984928
241.06	253.9556306	1.2234614
242.34	255.303935	1.2234614
243.63	256.1029302	1.2234614
244.9	258.2502298	1.24843
246.21	260.2477178	1.24843
247.49	261.8706768	1.24843
248.76	263.793259	1.2733986
250.03	265.7158412	1.2733986
250.81	264.66716	1.2733986
251.11	266.3650248	1.2733986
251.4	267.1889886	1.24843
251.7	267.0891142	1.24843
252	268.41245	1.2733986
252.3	268.3375442	1.2733986
252.6	268.7370418	1.2733986
252.91	269.286351	1.2733986
253.21	269.4361626	1.2733986
253.51	272.532269	1.2733986
253.82	269.4611312	1.2733986
254.13	270.5098124	1.2733986
254.48	271.0591216	1.2733986
254.79	270.1103148	1.2733986
255.09	270.8593728	1.2733986
255.4	268.0628896	1.2733986
255.71	269.2364138	1.2733986
256.02	270.784467	1.2733986
256.34	267.4886118	1.24843
256.65	267.3138316	1.24843
256.96	267.5884862	1.24843
257.27	266.5148364	1.24843
257.59	266.8394282	1.24843
257.9	267.1889886	1.24843
258.23	266.290119	1.24843
258.54	266.914334	1.24843
258.86	266.2651504	1.24843
259.17	266.5647736	1.24843
259.54	267.7632664	1.24843
259.85	268.0129524	1.2733986
260.17	268.0628896	1.2733986
260.48	269.7357858	1.2733986
260.81	268.662136	1.2733986
261.13	268.8119476	1.2733986
261.45	269.3113196	1.2733986
261.76	270.0853462	1.2733986
262.08	270.5847182	1.2733986
262.39	270.7345298	1.2733986
262.71	270.9342786	1.2733986
263.03	271.3837134	1.2733986
263.34	272.3824574	1.2733986
263.66	273.1315154	1.2733986
263.97	273.3062956	1.2733986
264.29	274.3300082	1.2983672
264.65	275.1789406	1.2983672
264.96	275.1040348	1.2983672
265.28	276.6021508	1.2983672
265.59	277.0765542	1.2733986
265.91	277.4760518	1.2733986
266.22	277.650832	1.2733986
266.54	279.6732886	1.2983672
266.85	280.5721582	1.2983672
267.16	281.2463104	1.2983672
267.48	282.6944892	1.2983672
267.79	284.4922284	1.3233358
268.1	286.2899676	1.3233358
268.41	287.9628638	1.3483044
268.72	290.509661	1.3483044
269.03	293.880422	1.373273
269.34	297.251183	1.4731474
269.69	302.9689924	1.4731474
270	309.4358598	1.6728962
270.3	319.6729858	1.6479276
270.59	334.953769	1.5230846
270.88	351.8824798	1.622959
271.16	376.4266136	1.7727706
271.44	383.4178216	1.8227078
271.74	277.8256122	1.3982416
272.06	278.6995132	1.6728962
272.37	278.524733	1.6728962
272.69	278.6995132	1.2983672
273.01	279.64832	1.2983672
273.33	280.4722838	1.2983672
273.64	279.3736654	1.2983672
273.96	280.0977548	1.2983672
274.28	278.8493248	1.2983672
274.64	282.7444264	1.2983672
274.96	280.8468128	1.2983672
275.27	285.016569	1.3233358
275.6	285.391098	1.3233358
275.91	281.8205882	1.2983672
276.23	282.519709	1.2983672
276.54	281.9204626	1.2983672
276.86	283.1189554	1.2983672
277.17	283.6932332	1.2983672
277.48	283.5683902	1.2983672
277.8	284.3424168	1.3233358
278.11	284.891726	1.3233358
278.43	285.391098	1.3233358
278.74	285.7905956	1.3233358
279.06	284.2425424	1.3233358
279.37	283.1189554	1.2983672
279.74	283.8430448	1.2983672
280.05	283.6932332	1.2983672
280.37	283.643296	1.2983672
280.69	284.4922284	1.3233358
281.02	283.6682646	1.2983672
281.33	283.768139	1.2983672
281.65	284.8168202	1.2983672
281.97	283.9429192	1.2983672
282.29	285.0415376	1.2983672
282.6	284.7419144	1.2983672
282.92	285.391098	1.2983672
283.24	285.5409096	1.2983672
283.56	286.889214	1.2983672
283.88	287.2387744	1.2983672
284.2	286.7144338	1.2983672
284.52	286.4148106	1.2983672
284.89	287.6133034	1.2983672
285.21	287.7880836	1.2983672
285.54	287.6133034	1.2983672
285.86	289.011545	1.3233358
286.18	287.8629894	1.2983672
286.51	286.2899676	1.2983672
286.83	288.262487	1.2983672
287.16	288.4122986	1.2983672
287.49	289.63576	1.3233358
287.82	289.6107914	1.3233358
288.14	289.3361368	1.3233358
288.47	290.3099122	1.3233358
288.8	291.8579654	1.3233358
289.13	293.006521	1.3233358
289.48	297.4509318	1.3483044
289.83	290.4846924	1.3233358
290.23	291.9828084	1.3233358
290.57	288.7368904	1.3233358
290.91	292.2324944	1.3233358
291.26	298.1999898	1.3483044
291.62	292.9316152	1.3233358
291.96	292.13262	1.3233358
292.31	293.256207	1.3233358
292.65	291.2337504	1.3233358
292.99	292.6569606	1.3233358
293.33	294.9041346	1.3483044
293.67	295.87791	1.3483044
294.03	295.6531926	1.3483044
294.37	295.7280984	1.3483044
294.72	294.1051394	1.3233358
295.06	293.3560814	1.3233358
295.4	295.1538206	1.3483044
295.81	299.0489222	1.3483044
296.17	298.8491734	1.3483044
296.52	298.749299	1.3483044
296.88	296.3523134	1.3483044
297.22	297.1513086	1.3483044
297.57	297.2262144	1.3483044
297.91	299.0489222	1.3483044
298.25	298.4247072	1.3233358
298.59	299.1737652	1.3233358
298.94	299.3984826	1.3233358
299.29	300.4721324	1.3483044
299.64	299.498357	1.3483044
