Measured thermophysical data. Critical behavior of binary mixture of {x C6H5CN + (1 - x) CH3(CH2)12CH3}: Measurements of coexistence curves, turbidity, and heat capacity
Source: J. Chem. Thermodyn., 2011, 10.1016/j.jct.2010.12.002
Compound 1: benzonitrile, C7H5N, InChI=1S/C7H5N/c8-6-7-4-2-1-3-5-7/h1-5H, purity 99%
Compound 2: tetradecane, C14H30, InChI=1S/C14H30/c1-3-5-7-9-11-13-14-12-10-8-6-4-2/h3-14H2,1-2H3, purity 99%

System: benzonitrile; phases: Liquid
Fixed: Pressure, kPa = 101
Fixed: Wavelength, nm = 632.8
Property: Refractive index (other wavelength) (Liquid); method: Standard Abbe refractometry
Temperature, K	Refractive index (other wavelength)	uncertainty
299.6	1.522	0.0008
289.017	1.5272	0.0008
290.953	1.5263	0.0008
292.797	1.5254	0.0008
294.266	1.5246	0.0008
296.29	1.5236	0.0008
298.251	1.5227	0.0008
299.813	1.5219	0.0008

System: tetradecane; phases: Liquid
Fixed: Pressure, kPa = 101
Fixed: Wavelength, nm = 632.8
Property: Refractive index (other wavelength) (Liquid); method: Standard Abbe refractometry
Temperature, K	Refractive index (other wavelength)	uncertainty
299.6	1.4248	0.0008
299	1.4251	0.0008
297.357	1.4258	0.0008
295.686	1.4264	0.0008
294.013	1.4271	0.0008
292.383	1.4278	0.0008
290.911	1.4284	0.0008
289.017	1.4292	0.0008

System: benzonitrile + tetradecane; phases: Liquid mixture 1, Liquid mixture 2, Air at 1 atmosphere
Property: Upper consolute temperature, K (Liquid mixture 1); method: VISOBS
Upper consolute temperature, K	uncertainty
298.858	0.534

System: benzonitrile + tetradecane; phases: Liquid mixture 1, Liquid mixture 2, Air at 1 atmosphere
Property: Upper consolute composition: mole fraction of benzonitrile (Liquid mixture 1); method: equal volume method
Upper consolute composition: mole fraction of benzonitrile	uncertainty
0.633	0.002

System: benzonitrile + tetradecane; phases: Liquid
Fixed: Mole fraction of benzonitrile = 0.633
Fixed: Pressure, kPa = 101
Property: Heat capacity at constant pressure per volume, J/K/m3 (Liquid); method: Large sample (1 g) DSC
Temperature, K	Heat capacity at constant pressure per volume, J/K/m3	uncertainty
337.435	1706600	34100
336.448	1705600	34100
335.459	1705000	34100
334.471	1704200	34100
333.482	1703700	34100
332.494	1703500	34100
331.505	1702900	34100
330.516	1702300	34000
329.528	1702000	34000
328.541	1701400	34000
327.552	1701000	34000
326.563	1700600	34000
325.575	1700200	34000
324.587	1699700	34000
323.598	1699300	34000
322.61	1699000	34000
321.621	1698800	34000
320.633	1698500	34000
319.644	1698200	34000
318.656	1698100	34000
317.668	1698000	34000
316.679	1698000	34000
315.691	1697900	34000
314.703	1697900	34000
313.714	1697900	34000
312.725	1697900	34000
311.737	1698200	34000
310.749	1698600	34000
309.76	1699200	34000
308.772	1699800	34000
307.784	1700800	34000
306.878	1701200	34000
306.147	1703500	34100
305.418	1703800	34100
304.859	1705000	34100
304.494	1705800	34100
304.129	1706400	34100
303.765	1706500	34100
303.399	1708800	34200
303.035	1711200	34200
302.669	1711700	34200
302.305	1713100	34300
301.939	1713900	34300
301.574	1716400	34300
301.344	1718600	34400
301.052	1720900	34400
300.76	1722300	34400
300.467	1727600	34600
300.176	1730200	34600
299.884	1736700	34700
299.738	1742100	34800
299.592	1747100	34900
299.446	1752000	35000
299.299	1759200	35200
299.153	1770700	35500
299.094	1778000	35700
299.044	1784700	35900
298.996	1793300	40500
298.947	1803300	43000
298.922	1810900	41000
298.898	1823400	41200
298.886	1839500	40500
298.877	1853700	40200
298.874	1859100	40300
298.87	1864700	40200
298.866	1870900	41100
298.862	1883400	41300
298.861	1888100	41400
298.858	1901600	41100
298.855	1931400	41700
298.853	1973900	42400
298.851	2013000	43200
298.849	2030100	43500
298.847	2062000	43600
298.838	2162300	45700
298.826	2144200	45100
298.814	2119500	44600
298.801	2120200	44600
298.788	2108900	44600
298.776	2090400	44500
298.764	2080600	44500
298.753	2063800	44300
298.74	2044300	41800
298.728	2034400	41500
298.716	2031200	41300
298.705	2020700	40600
298.692	2009000	42000
298.679	2002500	41400
298.667	2006700	41200
298.643	2017100	41200
298.545	1997300	40000
298.448	1965700	39500
298.351	1970300	39500
298.254	1937200	38800
298.157	1955700	39200
298.059	1934800	38700
297.962	1935600	38700
297.864	1941800	38800
297.767	1924600	38500
297.669	1931900	38700
297.573	1921300	38400
297.147	1914100	38300
296.72	1903200	38100
296.295	1895100	37900
295.869	1891300	37800
295.444	1884100	37700
295.018	1881100	37600
294.592	1877100	37500
294.166	1876000	38000
293.74	1873100	37500
293.315	1869000	37000
292.889	1864700	37300
292.463	1859200	37200
292.037	1858300	37200
291.611	1852800	37100
291.186	1849800	37000
290.76	1846500	36900
290.334	1844000	37000
289.908	1838800	36800
289.482	1838900	36800

System: benzonitrile + tetradecane; phases: Liquid
Fixed: Pressure, kPa = 101
Fixed: Wavelength, nm = 632.8
Property: Refractive index (other wavelength) (Liquid); method: Standard Abbe refractometry
Temperature, K	Mole fraction of benzonitrile	Refractive index (other wavelength)	uncertainty
299.6	0	1.4248	0.0008
299.6	0.0975	1.4284	0.0008
299.6	0.1928	1.4326	0.0008
299.6	0.2922	1.4376	0.0008
299.6	0.4008	1.4444	0.0008
299.6	0.4923	1.451	0.0008
299.6	0.5896	1.4593	0.0008
299.6	0.6902	1.4698	0.0008
299.6	0.7899	1.4827	0.0008
299.6	0.8855	1.4982	0.0008
299.6	1	1.522	0.0008
299	0	1.4251	0.0008
297.357	0	1.4258	0.0008
295.686	0	1.4264	0.0008
294.013	0	1.4271	0.0008
292.383	0	1.4278	0.0008
290.911	0	1.4284	0.0008
289.017	0	1.4292	0.0008
289.017	1	1.5272	0.0008
290.953	1	1.5263	0.0008
292.797	1	1.5254	0.0008
294.266	1	1.5246	0.0008
296.29	1	1.5236	0.0008
298.251	1	1.5227	0.0008
299.813	1	1.5219	0.0008

System: benzonitrile + tetradecane; phases: Liquid mixture 2, Liquid mixture 1
Fixed: Pressure, kPa = 101
Fixed: Wavelength, nm = 632.8
Property: Refractive index (other wavelength) (Liquid mixture 2); method: Standard Abbe refractometry
Temperature, K	Refractive index (other wavelength)	uncertainty
298.842	1.4611	0.0008
298.828	1.4605	0.0008
298.804	1.4596	0.0008
298.769	1.4589	0.0008
298.715	1.4579	0.0008
298.615	1.4568	0.0008
298.539	1.4562	0.0008
298.326	1.4548	0.0008
298.324	1.4548	0.0008
298.022	1.4534	0.0008
297.588	1.452	0.0008
296.852	1.4505	0.0008
295.845	1.4486	0.0008
294.522	1.4472	0.0008
292.647	1.446	0.0008
291.161	1.445	0.0008
289.401	1.4443	0.0008

System: benzonitrile + tetradecane; phases: Liquid mixture 1, Liquid mixture 2
Fixed: Pressure, kPa = 101
Property: Mole fraction of benzonitrile (Liquid mixture 1); method: Index of refraction calibration data
Temperature, K	Mole fraction of benzonitrile	uncertainty
298.842	0.666	0.01
298.828	0.672	0.01
298.804	0.679	0.01
298.769	0.687	0.009
298.715	0.695	0.009
298.615	0.706	0.009
298.539	0.711	0.009
298.326	0.725	0.008
298.324	0.725	0.008
298.022	0.738	0.008
297.588	0.752	0.007
296.852	0.769	0.007
295.845	0.786	0.006
294.522	0.802	0.006
292.647	0.82	0.005
291.161	0.832	0.005
289.401	0.843	0.005

System: benzonitrile + tetradecane; phases: Liquid mixture 2, Liquid mixture 1
Fixed: Pressure, kPa = 101
Property: Mole fraction of benzonitrile (Liquid mixture 2); method: Index of refraction calibration data
Temperature, K	Mole fraction of benzonitrile	uncertainty
298.842	0.604	0.012
298.828	0.599	0.012
298.804	0.589	0.012
298.769	0.581	0.013
298.715	0.57	0.013
298.615	0.557	0.013
298.539	0.55	0.014
298.326	0.533	0.014
298.324	0.533	0.014
298.022	0.514	0.015
297.588	0.494	0.015
296.852	0.471	0.014
295.845	0.439	0.013
294.522	0.41	0.012
292.647	0.38	0.011
291.161	0.355	0.011
289.401	0.331	0.01

System: benzonitrile + tetradecane; phases: Liquid mixture 1, Liquid mixture 2
Fixed: Pressure, kPa = 101
Fixed: Wavelength, nm = 632.8
Property: Refractive index (other wavelength) (Liquid mixture 1); method: Standard Abbe refractometry
Temperature, K	Refractive index (other wavelength)	uncertainty
298.842	1.4674	0.0008
298.828	1.4681	0.0008
298.804	1.4689	0.0008
298.769	1.4698	0.0008
298.715	1.4707	0.0008
298.615	1.4721	0.0008
298.539	1.4728	0.0008
298.326	1.4745	0.0008
298.324	1.4745	0.0008
298.022	1.4763	0.0008
297.588	1.4784	0.0008
296.852	1.481	0.0008
295.845	1.4839	0.0008
294.522	1.4868	0.0008
292.647	1.4904	0.0008
291.161	1.493	0.0008
289.401	1.4957	0.0008
