Measured thermophysical data. Osmotic and apparent molar properties of binary mixtures  alcohol + 1-butyl-3-methylimidazolium trifluoromethanesulfonate ionic liquid
Source: J. Chem. Thermodyn., 2013, 10.1016/j.jct.2013.01.032
Compound 1: 1-butyl-3-methylimidazolium trifluoromethanesulfonate, C9H15F3N2O3S, InChI=1S/C8H15N2.CHF3O3S/c1-3-4-5-10-7-6-9(2)8-10;2-1(3,4)8(5,6)7/h6-8H,3-5H2,1-2H3;(H,5,6,7)/q+1;/p-1, purity 99%
Compound 2: propan-1-ol, C3H8O, InChI=1S/C3H8O/c1-2-3-4/h4H,2-3H2,1H3, purity 99.9%
Compound 3: propan-2-ol, C3H8O, InChI=1S/C3H8O/c1-3(2)4/h3-4H,1-2H3, purity 99.9%
Compound 4: butan-1-ol, C4H10O, InChI=1S/C4H10O/c1-2-3-4-5/h5H,2-4H2,1H3, purity 99.9%
Compound 5: butan-2-ol, C4H10O, InChI=1S/C4H10O/c1-3-4(2)5/h4-5H,3H2,1-2H3, purity 99.5%
Compound 6: pentan-1-ol, C5H12O, InChI=1S/C5H12O/c1-2-3-4-5-6/h6H,2-5H2,1H3, purity 99%

System: 1-butyl-3-methylimidazolium trifluoromethanesulfonate; phases: Liquid
Fixed: Pressure, kPa = 101.325
Property: Mass density, kg/m3 (Liquid); method: Vibrating tube method
Temperature, K	Mass density, kg/m3	uncertainty
293.15	1303.7	0.6
308.15	1291.7	0.6
323.15	1279.9	0.6

System: 1-butyl-3-methylimidazolium trifluoromethanesulfonate; phases: Liquid
Fixed: Pressure, kPa = 101.325
Property: Speed of sound, m/s (Liquid); method: Sing-around technique in a fixed-path interferometer
Temperature, K	Speed of sound, m/s	uncertainty
293.15	1402.9	1.3
308.15	1369.1	1.3
323.15	1336.5	1.3

System: propan-1-ol; phases: Liquid
Fixed: Pressure, kPa = 101.325
Property: Mass density, kg/m3 (Liquid); method: Vibrating tube method
Temperature, K	Mass density, kg/m3	uncertainty
293.15	803.92	0.14
308.15	791.84	0.15
323.15	779.33	0.16

System: propan-1-ol; phases: Liquid
Fixed: Pressure, kPa = 101.325
Property: Speed of sound, m/s (Liquid); method: Sing-around technique in a fixed-path interferometer
Temperature, K	Speed of sound, m/s	uncertainty
293.15	1223.9	0.8
308.15	1172.6	0.8
323.15	1122	0.8

System: propan-2-ol; phases: Liquid
Fixed: Pressure, kPa = 101.325
Property: Mass density, kg/m3 (Liquid); method: Vibrating tube method
Temperature, K	Mass density, kg/m3	uncertainty
293.15	785.1	0.15
308.15	772.31	0.16
323.15	758.7	0.17

System: propan-2-ol; phases: Liquid
Fixed: Pressure, kPa = 101.325
Property: Speed of sound, m/s (Liquid); method: Sing-around technique in a fixed-path interferometer
Temperature, K	Speed of sound, m/s	uncertainty
293.15	1156.7	0.8
308.15	1156.7	0.8
323.15	1050.8	0.7

System: butan-1-ol; phases: Liquid
Fixed: Pressure, kPa = 101.325
Property: Mass density, kg/m3 (Liquid); method: Vibrating tube method
Temperature, K	Mass density, kg/m3	uncertainty
293.15	809.54	0.14
308.15	798.01	0.15
323.15	786.15	0.15

System: butan-1-ol; phases: Liquid
Fixed: Pressure, kPa = 101.325
Property: Speed of sound, m/s (Liquid); method: Sing-around technique in a fixed-path interferometer
Temperature, K	Speed of sound, m/s	uncertainty
293.15	1256.2	0.8
308.15	1205.9	0.8
323.15	1155.7	0.8

System: butan-2-ol; phases: Liquid
Fixed: Pressure, kPa = 101.325
Property: Mass density, kg/m3 (Liquid); method: Vibrating tube method
Temperature, K	Mass density, kg/m3	uncertainty
293.15	806.56	0.18
308.15	794	0.19
323.15	780.5	0.19

System: butan-2-ol; phases: Liquid
Fixed: Pressure, kPa = 101.325
Property: Speed of sound, m/s (Liquid); method: Sing-around technique in a fixed-path interferometer
Temperature, K	Speed of sound, m/s	uncertainty
293.15	1230	1
308.15	1175.8	0.9
323.15	1120.3	0.9

System: pentan-1-ol; phases: Liquid
Fixed: Pressure, kPa = 101.325
Property: Mass density, kg/m3 (Liquid); method: Vibrating tube method
Temperature, K	Mass density, kg/m3	uncertainty
293.15	814.53	0.31
308.15	803.52	0.31
323.15	792.15	0.31

System: pentan-1-ol; phases: Liquid
Fixed: Pressure, kPa = 101.325
Property: Speed of sound, m/s (Liquid); method: Sing-around technique in a fixed-path interferometer
Temperature, K	Speed of sound, m/s	uncertainty
293.15	1292.7	1.3
308.15	1242.4	1.3
323.15	1192.7	1.3

System: propan-1-ol + 1-butyl-3-methylimidazolium trifluoromethanesulfonate; phases: Liquid
Fixed: Pressure, kPa = 101
Property: Mass density, kg/m3 (Liquid); method: Vibrating tube method
Molality, mol/kg of 1-butyl-3-methylimidazolium trifluoromethanesulfonate	Temperature, K	Mass density, kg/m3	uncertainty
0.05	293.15	808.59	0.23
0.101	293.15	813.12	0.22
0.15	293.15	817.38	0.22
0.2	293.15	821.64	0.19
0.25	293.15	825.82	0.21
0.758	293.15	864.71	0.19
1.004	293.15	881.36	0.18
1.258	293.15	897.18	0.17
1.524	293.15	912.6	0.16
1.771	293.15	925.96	0.15
2.021	293.15	938.44	0.15
2.517	293.15	960.93	0.14
3.011	293.15	981.02	0.14
0.05	308.15	796.51	0.23
0.101	308.15	801.04	0.23
0.15	308.15	805.31	0.22
0.2	308.15	809.57	0.22
0.25	308.15	813.75	0.21
0.758	308.15	852.6	0.2
1.004	308.15	869.23	0.18
1.258	308.15	885.04	0.17
1.524	308.15	900.41	0.16
1.771	308.15	913.75	0.16
2.021	308.15	926.22	0.15
2.517	308.15	948.73	0.15
3.011	308.15	968.77	0.15
0.05	323.15	784.03	0.23
0.101	323.15	788.57	0.23
0.15	323.15	792.86	0.23
0.2	323.15	797.12	0.16
0.25	323.15	801.31	0.22
0.758	323.15	840.18	0.2
1.004	323.15	856.81	0.18
1.258	323.15	872.62	0.18
1.524	323.15	887.99	0.17
1.771	323.15	901.33	0.16
2.021	323.15	913.81	0.16
2.517	323.15	936.31	0.15
3.011	323.15	956.37	0.15

System: propan-1-ol + 1-butyl-3-methylimidazolium trifluoromethanesulfonate; phases: Liquid
Fixed: Pressure, kPa = 101
Property: Speed of sound, m/s (Liquid); method: Sing-around technique in a fixed-path interferometer
Molality, mol/kg of 1-butyl-3-methylimidazolium trifluoromethanesulfonate	Temperature, K	Speed of sound, m/s	uncertainty
0.05	293.15	1225.2	0.8
0.101	293.15	1225.9	0.8
0.15	293.15	1226.2	0.8
0.2	293.15	1226.7	0.8
0.25	293.15	1227.4	0.8
0.758	293.15	1232.4	0.9
1.004	293.15	1235	0.9
1.258	293.15	1237.6	0.9
1.524	293.15	1241.2	0.9
1.771	293.15	1243.6	0.9
2.021	293.15	1246.4	0.9
2.517	293.15	1251.9	1
3.011	293.15	1257.1	1
0.05	308.15	1174.1	0.8
0.101	308.15	1175.1	0.8
0.15	308.15	1176	0.8
0.2	308.15	1176.8	0.8
0.25	308.15	1177.6	0.8
0.758	308.15	1184.8	0.8
1.004	308.15	1188.2	0.9
1.258	308.15	1191.7	0.9
1.524	308.15	1195.4	0.9
1.771	308.15	1198.7	0.9
2.021	308.15	1202	0.9
2.517	308.15	1208.4	0.9
3.011	308.15	1214.8	1
0.05	323.15	1123.8	0.8
0.101	323.15	1125.1	0.8
0.15	323.15	1126.3	0.8
0.2	323.15	1127.3	0.8
0.25	323.15	1128.4	0.8
0.758	323.15	1137.7	0.8
1.004	323.15	1141.9	0.8
1.258	323.15	1146.2	0.8
1.524	323.15	1150.5	0.9
1.771	323.15	1154.5	0.9
2.021	323.15	1158.4	0.9
2.517	323.15	1165.7	0.9
3.011	323.15	1172.9	0.9

System: propan-1-ol + 1-butyl-3-methylimidazolium trifluoromethanesulfonate; phases: Liquid, Gas
Fixed: Temperature, K = 323.15
Property: Osmotic coefficient (Liquid); method: Knauer Osmometer
Molality, mol/kg of 1-butyl-3-methylimidazolium trifluoromethanesulfonate	Osmotic coefficient	uncertainty
0.0299	0.906	0.016
0.0473	0.817	0.014
0.0849	0.775	0.015
0.0975	0.755	0.015
0.2019	0.66	0.017
0.2968	0.612	0.018
0.4022	0.575	0.019
0.5062	0.549	0.02
0.8045	0.494	0.022
1.2061	0.445	0.023
1.6399	0.412	0.024
2.0439	0.39	0.025
2.44	0.378	0.025
2.8288	0.361	0.026
3.3155	0.34	0.026

System: propan-2-ol + 1-butyl-3-methylimidazolium trifluoromethanesulfonate; phases: Liquid
Fixed: Pressure, kPa = 101
Property: Mass density, kg/m3 (Liquid); method: Vibrating tube method
Molality, mol/kg of 1-butyl-3-methylimidazolium trifluoromethanesulfonate	Temperature, K	Mass density, kg/m3	uncertainty
0.049	293.15	789.81	0.24
0.1	293.15	794.52	0.23
0.152	293.15	799.18	0.23
0.207	293.15	804.09	0.23
0.254	293.15	808.1	0.22
0.51	293.15	828.98	0.21
0.754	293.15	847.24	0.19
1.006	293.15	864.73	0.18
1.525	293.15	896.77	0.17
1.758	293.15	910.13	0.16
2.05	293.15	925.34	0.15
2.526	293.15	947.75	0.15
3.011	293.15	967.97	0.15
0.049	308.15	777.07	0.25
0.1	308.15	781.8	0.2
0.152	308.15	786.48	0.24
0.207	308.15	791.39	0.23
0.254	308.15	795.41	0.22
0.51	308.15	816.33	0.21
0.754	308.15	834.61	0.2
1.006	308.15	852.1	0.2
1.525	308.15	884.17	0.18
1.758	308.15	897.53	0.17
2.05	308.15	912.77	0.16
2.526	308.15	935.19	0.15
3.011	308.15	955.42	0.15
0.049	323.15	763.51	0.25
0.1	323.15	768.29	0.24
0.152	323.15	772.99	0.24
0.207	323.15	777.93	0.24
0.254	323.15	781.98	0.23
0.51	323.15	803.01	0.22
0.754	323.15	821.37	0.2
1.006	323.15	838.92	0.19
1.525	323.15	871.1	0.2
1.758	323.15	884.5	0.2
2.05	323.15	899.8	0.2
2.526	323.15	922.28	0.16
3.011	323.15	942.57	0.16

System: propan-2-ol + 1-butyl-3-methylimidazolium trifluoromethanesulfonate; phases: Liquid
Fixed: Pressure, kPa = 101
Property: Speed of sound, m/s (Liquid); method: Sing-around technique in a fixed-path interferometer
Molality, mol/kg of 1-butyl-3-methylimidazolium trifluoromethanesulfonate	Temperature, K	Speed of sound, m/s	uncertainty
0.049	293.15	1158.3	0.8
0.1	293.15	1159.5	0.8
0.152	293.15	1160.9	0.8
0.207	293.15	1162.6	0.8
0.254	293.15	1163.3	0.8
0.51	293.15	1168.6	0.8
0.754	293.15	1173.2	0.8
1.006	293.15	1178.4	0.8
1.525	293.15	1188.1	0.9
1.758	293.15	1192.5	0.9
2.05	293.15	1197.6	0.9
2.526	293.15	1206	0.9
3.011	293.15	1214.3	1
0.049	308.15	1106.4	0.8
0.1	308.15	1108	0.8
0.152	308.15	1109.6	0.8
0.207	308.15	1111.2	0.8
0.254	308.15	1112.5	0.8
0.51	308.15	1119.1	0.8
0.754	308.15	1124.8	0.8
1.006	308.15	1130.5	0.8
1.525	308.15	1142	0.9
1.758	308.15	1147	0.9
2.05	308.15	1153.1	0.9
2.526	308.15	1162.5	0.9
3.011	308.15	1171.5	0.9
0.049	323.15	1053.4	0.7
0.1	323.15	1055.5	0.7
0.152	323.15	1057.4	0.7
0.207	323.15	1059.3	0.8
0.254	323.15	1060.8	0.8
0.51	323.15	1068.8	0.8
0.754	323.15	1075.6	0.8
1.006	323.15	1082.3	0.8
1.525	323.15	1095.6	0.8
1.758	323.15	1101.3	0.9
2.05	323.15	1108.2	0.9
2.526	323.15	1118.6	0.9
3.011	323.15	1128.5	0.9

System: propan-2-ol + 1-butyl-3-methylimidazolium trifluoromethanesulfonate; phases: Liquid, Gas
Fixed: Temperature, K = 323.15
Property: Osmotic coefficient (Liquid); method: Knauer Osmometer
Molality, mol/kg of 1-butyl-3-methylimidazolium trifluoromethanesulfonate	Osmotic coefficient	uncertainty
0.0255	0.991	0.014
0.0473	0.911	0.013
0.1132	0.844	0.013
0.1803	0.765	0.015
0.2949	0.686	0.016
0.398	0.624	0.018
0.5052	0.588	0.019
0.8092	0.518	0.021
1.2051	0.461	0.023
1.6146	0.412	0.024
2.031	0.391	0.025
2.42	0.381	0.025
2.8286	0.366	0.025
3.3264	0.356	0.026

System: butan-1-ol + 1-butyl-3-methylimidazolium trifluoromethanesulfonate; phases: Liquid
Fixed: Pressure, kPa = 101
Property: Mass density, kg/m3 (Liquid); method: Vibrating tube method
Molality, mol/kg of 1-butyl-3-methylimidazolium trifluoromethanesulfonate	Temperature, K	Mass density, kg/m3	uncertainty
0.052	293.15	814.31	0.22
0.101	293.15	818.63	0.22
0.153	293.15	823.08	0.22
0.206	293.15	827.53	0.21
0.25	293.15	831.16	0.21
0.504	293.15	851.11	0.2
0.756	293.15	869.28	0.18
1.009	293.15	886.03	0.15
1.262	293.15	901.54	0.16
1.508	293.15	915.57	0.16
1.758	293.15	928.83	0.15
1.989	293.15	940.32	0.15
2.486	293.15	962.85	0.14
2.979	293.15	982.55	0.14
0.052	308.15	802.84	0.23
0.101	308.15	807.15	0.22
0.153	308.15	811.61	0.22
0.206	308.15	816.05	0.22
0.25	308.15	819.67	0.21
0.504	308.15	839.58	0.2
0.756	308.15	857.7	0.19
1.009	308.15	874.41	0.18
1.262	308.15	889.89	0.17
1.508	308.15	903.89	0.16
1.758	308.15	917.11	0.16
1.989	308.15	928.56	0.15
2.486	308.15	951.04	0.15
2.979	308.15	970.73	0.14
0.052	323.15	790.99	0.23
0.101	323.15	795.31	0.23
0.153	323.15	799.78	0.22
0.206	323.15	804.22	0.22
0.25	323.15	807.85	0.22
0.504	323.15	827.75	0.2
0.756	323.15	845.85	0.19
1.009	323.15	862.55	0.21
1.262	323.15	878.01	0.17
1.508	323.15	892	0.17
1.758	323.15	905.21	0.16
1.989	323.15	916.64	0.15
2.486	323.15	939.1	0.15
2.979	323.15	958.77	0.15

System: butan-1-ol + 1-butyl-3-methylimidazolium trifluoromethanesulfonate; phases: Liquid
Fixed: Pressure, kPa = 101
Property: Speed of sound, m/s (Liquid); method: Sing-around technique in a fixed-path interferometer
Molality, mol/kg of 1-butyl-3-methylimidazolium trifluoromethanesulfonate	Temperature, K	Speed of sound, m/s	uncertainty
0.052	293.15	1257.8	0.8
0.101	293.15	1258	0.8
0.153	293.15	1257.7	0.8
0.206	293.15	1257.9	0.8
0.25	293.15	1258	0.8
0.504	293.15	1258	0.9
0.756	293.15	1259.2	0.9
1.009	293.15	1260.2	0.9
1.262	293.15	1261	0.9
1.508	293.15	1262.4	0.9
1.758	293.15	1263.9	0.9
1.989	293.15	1265.8	0.9
2.486	293.15	1269.5	1
2.979	293.15	1273.1	1
0.052	308.15	1207.6	0.8
0.101	308.15	1208	0.8
0.153	308.15	1208.3	0.8
0.206	308.15	1208.8	0.8
0.25	308.15	1209.1	0.8
0.504	308.15	1210.5	0.8
0.756	308.15	1212.1	0.9
1.009	308.15	1213.9	0.9
1.262	308.15	1215.8	0.9
1.508	308.15	1217.9	0.9
1.758	308.15	1219.9	0.9
1.989	308.15	1222	0.9
2.486	308.15	1226.6	0.9
2.979	308.15	1231.2	1
0.052	323.15	1158.1	0.8
0.101	323.15	1158.8	0.8
0.153	323.15	1159.4	0.8
0.206	323.15	1160.1	0.8
0.25	323.15	1160.6	0.8
0.504	323.15	1163.2	0.8
0.756	323.15	1165.7	0.8
1.009	323.15	1168.4	0.8
1.262	323.15	1171	0.9
1.508	323.15	1173.7	0.9
1.758	323.15	1176.4	0.9
1.989	323.15	1179	0.9
2.486	323.15	1184.5	0.9
2.979	323.15	1189.8	1

System: butan-1-ol + 1-butyl-3-methylimidazolium trifluoromethanesulfonate; phases: Liquid, Gas
Fixed: Temperature, K = 323.15
Property: Osmotic coefficient (Liquid); method: Knauer Osmometer
Molality, mol/kg of 1-butyl-3-methylimidazolium trifluoromethanesulfonate	Osmotic coefficient	uncertainty
0.0481	0.84	0.015
0.1053	0.618	0.018
0.2108	0.512	0.021
0.3131	0.457	0.023
0.4049	0.425	0.024
0.4947	0.403	0.024
0.8149	0.36	0.026
1.2155	0.323	0.027
1.6131	0.301	0.027
2.0358	0.28	0.028
2.4252	0.268	0.029
2.8197	0.27	0.028
3.311	0.259	0.029

System: butan-2-ol + 1-butyl-3-methylimidazolium trifluoromethanesulfonate; phases: Liquid
Fixed: Pressure, kPa = 101
Property: Mass density, kg/m3 (Liquid); method: Vibrating tube method
Molality, mol/kg of 1-butyl-3-methylimidazolium trifluoromethanesulfonate	Temperature, K	Mass density, kg/m3	uncertainty
0.098	293.15	815.49	0.25
0.149	293.15	819.88	0.25
0.201	293.15	824.3	0.24
0.249	293.15	828.21	0.24
0.498	293.15	847.84	0.23
1.002	293.15	882.87	0.22
1.239	293.15	897.53	0.21
1.522	293.15	913.81	0.21
1.763	293.15	926.62	0.2
2.497	293.15	961.11	0.2
2.935	293.15	978.86	0.2
0.098	308.15	802.94	0.26
0.149	308.15	807.37	0.25
0.201	308.15	811.78	0.25
0.249	308.15	815.73	0.24
0.498	308.15	835.4	0.23
1.002	308.15	870.47	0.22
1.239	308.15	885.16	0.21
1.522	308.15	901.44	0.21
1.763	308.15	914.26	0.2
2.497	308.15	948.77	0.2
2.935	308.15	966.54	0.2
0.098	323.15	789.53	0.26
0.149	323.15	794.01	0.26
0.201	323.15	798.46	0.25
0.249	323.15	802.45	0.25
0.498	323.15	822.26	0.24
1.002	323.15	857.52	0.23
1.239	323.15	872.26	0.22
1.522	323.15	888.61	0.21
1.763	323.15	901.49	0.21
2.497	323.15	936.11	0.21
2.935	323.15	953.94	0.2

System: butan-2-ol + 1-butyl-3-methylimidazolium trifluoromethanesulfonate; phases: Liquid
Fixed: Pressure, kPa = 101
Property: Speed of sound, m/s (Liquid); method: Sing-around technique in a fixed-path interferometer
Molality, mol/kg of 1-butyl-3-methylimidazolium trifluoromethanesulfonate	Temperature, K	Speed of sound, m/s	uncertainty
0.098	293.15	1231	1
0.149	293.15	1231.4	1
0.201	293.15	1231.9	1
0.249	293.15	1232	1
0.498	293.15	1233.7	1
1.002	293.15	1238.2	1
1.239	293.15	1240.2	1
1.522	293.15	1243.1	1.1
1.763	293.15	1245.6	1.1
2.497	293.15	1253.6	1.1
2.935	293.15	1258.2	1.1
0.098	308.15	1177.6	0.9
0.149	308.15	1178.3	0.9
0.201	308.15	1179.2	1
0.249	308.15	1179.6	1
0.498	308.15	1182.7	1
1.002	308.15	1189.5	1
1.239	308.15	1192.4	1
1.522	308.15	1196.2	1
1.763	308.15	1199.4	1
2.497	308.15	1209.2	1.1
2.935	308.15	1214.5	1.1
0.098	323.15	1122.9	0.9
0.149	323.15	1124.1	0.9
0.201	323.15	1125.5	0.9
0.249	323.15	1126.3	0.9
0.498	323.15	1130.8	1
1.002	323.15	1140.3	1
1.239	323.15	1144	1
1.522	323.15	1148.8	1
1.763	323.15	1152.7	1
2.497	323.15	1164.3	1.1
2.935	323.15	1170.8	1.1

System: butan-2-ol + 1-butyl-3-methylimidazolium trifluoromethanesulfonate; phases: Liquid, Gas
Fixed: Temperature, K = 323.15
Property: Osmotic coefficient (Liquid); method: Knauer Osmometer
Molality, mol/kg of 1-butyl-3-methylimidazolium trifluoromethanesulfonate	Osmotic coefficient	uncertainty
0.0481	0.914	0.014
0.0784	0.806	0.015
0.1008	0.771	0.015
0.2021	0.657	0.017
0.2917	0.568	0.02
0.3846	0.507	0.021
0.485	0.472	0.022
0.7679	0.428	0.024
1.126	0.379	0.025
1.5227	0.334	0.026
1.909	0.318	0.027
2.2824	0.31	0.027
2.5736	0.296	0.028
2.9942	0.279	0.028
3.4479	0.275	0.028

System: pentan-1-ol + 1-butyl-3-methylimidazolium trifluoromethanesulfonate; phases: Liquid
Fixed: Pressure, kPa = 101
Property: Mass density, kg/m3 (Liquid); method: Vibrating tube method
Molality, mol/kg of 1-butyl-3-methylimidazolium trifluoromethanesulfonate	Temperature, K	Mass density, kg/m3	uncertainty
0.048	293.15	818.89	0.29
0.103	293.15	823.68	0.29
0.203	293.15	832.08	0.29
0.246	293.15	835.58	0.28
0.746	293.15	872.74	0.27
1.014	293.15	890.36	0.26
1.517	293.15	919.71	0.26
1.778	293.15	933.35	0.25
2.024	293.15	945.34	0.25
2.477	293.15	965.54	0.24
2.963	293.15	984.77	0.24
0.048	308.15	807.86	0.3
0.103	308.15	812.65	0.29
0.203	308.15	821.04	0.29
0.246	308.15	824.54	0.28
0.746	308.15	861.58	0.27
1.014	308.15	879.13	0.26
1.517	308.15	908.4	0.26
1.778	308.15	921.98	0.25
2.024	308.15	933.93	0.25
2.477	308.15	954.08	0.24
2.963	308.15	973.25	0.24
0.048	323.15	796.5	0.29
0.103	323.15	801.3	0.29
0.203	323.15	809.68	0.29
0.246	323.15	813.18	0.29
0.746	323.15	850.17	0.27
1.014	323.15	867.69	0.26
1.517	323.15	896.89	0.26
1.778	323.15	910.45	0.25
2.024	323.15	922.38	0.25
2.477	323.15	942.49	0.24
2.963	323.15	961.63	0.24

System: pentan-1-ol + 1-butyl-3-methylimidazolium trifluoromethanesulfonate; phases: Liquid
Fixed: Pressure, kPa = 101
Property: Speed of sound, m/s (Liquid); method: Sing-around technique in a fixed-path interferometer
Molality, mol/kg of 1-butyl-3-methylimidazolium trifluoromethanesulfonate	Temperature, K	Speed of sound, m/s	uncertainty
0.048	293.15	1292.6	1.3
0.103	293.15	1292.3	1.3
0.203	293.15	1291.9	1.3
0.246	293.15	1291.4	1.3
0.746	293.15	1289	1.3
1.014	293.15	1288.5	1.3
1.517	293.15	1288.2	1.3
1.778	293.15	1288.6	1.3
2.024	293.15	1289.4	1.3
2.477	293.15	1290.7	1.3
2.963	293.15	1292.8	1.3
0.048	308.15	1242.7	1.3
0.103	308.15	1242.7	1.3
0.203	308.15	1242.7	1.3
0.246	308.15	1242.6	1.3
0.746	308.15	1242	1.3
1.014	308.15	1242.2	1.3
1.517	308.15	1243.4	1.3
1.778	308.15	1244.5	1.3
2.024	308.15	1245.7	1.3
2.477	308.15	1248.1	1.3
2.963	308.15	1250.8	1.3
0.048	323.15	1193.2	1.3
0.103	323.15	1193.6	1.3
0.203	323.15	1194.1	1.3
0.246	323.15	1194.1	1.3
0.746	323.15	1195.6	1.3
1.014	323.15	1196.7	1.3
1.517	323.15	1199.3	1.3
1.778	323.15	1201	1.3
2.024	323.15	1202.7	1.3
2.477	323.15	1205.9	1.3
2.963	323.15	1209.4	1.3

System: pentan-1-ol + 1-butyl-3-methylimidazolium trifluoromethanesulfonate; phases: Liquid, Gas
Fixed: Temperature, K = 323.15
Property: Osmotic coefficient (Liquid); method: Knauer Osmometer
Molality, mol/kg of 1-butyl-3-methylimidazolium trifluoromethanesulfonate	Osmotic coefficient	uncertainty
0.0505	0.619	0.018
0.0795	0.565	0.02
0.1004	0.529	0.021
0.2014	0.436	0.023
0.3014	0.402	0.024
0.406	0.365	0.025
0.5071	0.344	0.026
0.8272	0.299	0.028
1.2327	0.242	0.029
1.6491	0.224	0.03
2.0439	0.202	0.031
2.4456	0.183	0.032
2.8373	0.184	0.032
3.3397	0.184	0.032
