Measured thermophysical data. Temperature of maximum density for aqueous mixtures of three pentanol isomers
Source: J. Chem. Thermodyn., 2017, 10.1016/j.jct.2017.07.011
Compound 1: pentan-2-ol, C5H12O, InChI=1S/C5H12O/c1-3-4-5(2)6/h5-6H,3-4H2,1-2H3, purity 98%
Compound 2: 3-pentanol, C5H12O, InChI=1S/C5H12O/c1-3-5(6)4-2/h5-6H,3-4H2,1-2H3, purity 98%
Compound 3: 2-methylbutan-2-ol, C5H12O, InChI=1S/C5H12O/c1-4-5(2,3)6/h6H,4H2,1-3H3, purity 99.5%
Compound 4: water, H2O, InChI=1S/H2O/h1H2

System: pentan-2-ol; phases: Liquid
Fixed: Pressure, kPa = 100
Property: Mass density, kg/m3 (Liquid); method: Vibrating tube method
Temperature, K	Mass density, kg/m3	uncertainty
282.15	817.5	2.1
281.65	817.9	2.1
281.15	818.3	2.1
280.65	818.7	2.1
280.15	819.1	2.1
279.65	819.4	2.1
279.15	819.8	2.1
278.65	820.2	2.1
278.15	820.6	2.1
277.65	820.9	2.1
277.15	821.3	2.1
276.65	821.7	2.1
276.15	822.1	2.1
275.65	822.5	2.1
275.15	822.8	2.1
274.65	823.2	2.1
274.15	823.6	2.1
273.65	824	2.1

System: 3-pentanol; phases: Liquid
Fixed: Pressure, kPa = 100
Property: Mass density, kg/m3 (Liquid); method: Vibrating tube method
Temperature, K	Mass density, kg/m3	uncertainty
282.15	828.9	2.1
281.65	829.3	2.1
281.15	829.7	2.1
280.65	830.1	2.1
280.15	830.5	2.1
279.65	830.9	2.1
279.15	831.3	2.1
278.65	831.7	2.1
278.15	832.1	2.1
277.65	832.5	2.1
277.15	832.9	2.1
276.65	833.3	2.1
276.15	833.7	2.1
275.65	834.1	2.1
275.15	834.5	2.1
274.65	834.9	2.1
274.15	835.3	2.1
273.65	835.7	2.1

System: 2-methylbutan-2-ol; phases: Liquid
Fixed: Pressure, kPa = 100
Property: Mass density, kg/m3 (Liquid); method: Vibrating tube method
Temperature, K	Mass density, kg/m3	uncertainty
282.15	819	2
281.65	819.4	2
281.15	819.9	2
280.65	820.3	2
280.15	820.8	2
279.65	821.3	2
279.15	821.7	2
278.65	822.2	2
278.15	822.6	2
277.65	823.1	2
277.15	823.5	2
276.65	824	2
276.15	824.5	2
275.65	824.9	2
275.15	825.4	2
274.65	825.8	2
274.15	826.3	2
273.65	826.7	2

System: pentan-2-ol + water; phases: Liquid
Fixed: Pressure, kPa = 100
Property: Mass density, kg/m3 (Liquid); method: Vibrating tube method
Temperature, K	Mole fraction of pentan-2-ol	Mass density, kg/m3	uncertainty
282.15	0.00105	998.992	0.175
281.65	0.00105	999.025	0.175
281.15	0.00105	999.058	0.175
280.65	0.00105	999.09	0.175
280.15	0.00105	999.115	0.175
279.65	0.00105	999.133	0.175
279.15	0.00105	999.163	0.174
278.65	0.00105	999.177	0.174
278.15	0.00105	999.187	0.174
277.65	0.00105	999.19	0.173
277.15	0.00105	999.185	0.173
276.65	0.00105	999.193	0.173
276.15	0.00105	999.187	0.173
275.65	0.00105	999.177	0.173
275.15	0.00105	999.16	0.172
274.65	0.00105	999.148	0.172
274.15	0.00105	999.119	0.172
273.65	0.00105	999.095	0.172
282.15	0.0021	998.234	0.17
281.65	0.0021	998.267	0.17
281.15	0.0021	998.301	0.169
280.65	0.0021	998.332	0.169
280.15	0.0021	998.36	0.169
279.65	0.0021	998.376	0.169
279.15	0.0021	998.401	0.168
278.65	0.0021	998.416	0.168
278.15	0.0021	998.426	0.168
277.65	0.0021	998.439	0.168
277.15	0.0021	998.444	0.167
276.65	0.0021	998.445	0.167
276.15	0.0021	998.44	0.167
275.65	0.0021	998.43	0.167
275.15	0.0021	998.416	0.166
274.65	0.0021	998.4	0.166
274.15	0.0021	998.377	0.166
273.65	0.0021	998.354	0.166
282.15	0.00413	996.841	0.17
281.65	0.00413	996.878	0.17
281.15	0.00413	996.915	0.169
280.65	0.00413	996.951	0.169
280.15	0.00413	996.978	0.169
279.65	0.00413	997.002	0.169
279.15	0.00413	997.037	0.169
278.65	0.00413	997.053	0.168
278.15	0.00413	997.066	0.168
277.65	0.00413	997.076	0.168
277.15	0.00413	997.082	0.167
276.65	0.00413	997.092	0.167
276.15	0.00413	997.09	0.167
275.65	0.00413	997.08	0.167
275.15	0.00413	997.073	0.166
274.65	0.00413	997.057	0.166
274.15	0.00413	997.038	0.166
273.65	0.00413	997.02	0.165
282.15	0.00599	995.688	0.163
281.65	0.00599	995.731	0.163
281.15	0.00599	995.769	0.163
280.65	0.00599	995.806	0.163
280.15	0.00599	995.84	0.162
279.65	0.00599	995.867	0.162
279.15	0.00599	995.898	0.162
278.65	0.00599	995.923	0.161
278.15	0.00599	995.938	0.161
277.65	0.00599	995.952	0.161
277.15	0.00599	995.964	0.161
276.65	0.00599	995.974	0.16
276.15	0.00599	995.972	0.16
275.65	0.00599	995.972	0.16
275.15	0.00599	995.965	0.16
274.65	0.00599	995.957	0.159
274.15	0.00599	995.939	0.159
273.65	0.00599	995.922	0.158
282.15	0.00677	995.214	0.158
281.65	0.00677	995.261	0.158
281.15	0.00677	995.301	0.158
280.65	0.00677	995.342	0.157
280.15	0.00677	995.375	0.157
279.65	0.00677	995.403	0.157
279.15	0.00677	995.439	0.157
278.65	0.00677	995.466	0.156
278.15	0.00677	995.484	0.156
277.65	0.00677	995.498	0.156
277.15	0.00677	995.512	0.155
276.65	0.00677	995.524	0.155
276.15	0.00677	995.527	0.157
275.65	0.00677	995.524	0.154
275.15	0.00677	995.523	0.154
274.65	0.00677	995.51	0.154
274.15	0.00677	995.499	0.154
273.65	0.00677	995.484	0.153
282.15	0.00857	994.273	0.153
281.65	0.00857	994.318	0.153
281.15	0.00857	994.365	0.153
280.65	0.00857	994.408	0.153
280.15	0.00857	994.439	0.153
279.65	0.00857	994.471	0.152
279.15	0.00857	994.519	0.152
278.65	0.00857	994.542	0.151
278.15	0.00857	994.566	0.151
277.65	0.00857	994.583	0.151
277.15	0.00857	994.604	0.15
276.65	0.00857	994.619	0.15
276.15	0.00857	994.622	0.15
275.65	0.00857	994.627	0.15
275.15	0.00857	994.625	0.149
274.65	0.00857	994.622	0.149
274.15	0.00857	994.61	0.149
273.65	0.00857	994.604	0.148
282.15	1	817.5	2.1
281.65	1	817.9	2.1
281.15	1	818.3	2.1
280.65	1	818.7	2.1
280.15	1	819.1	2.1
279.65	1	819.4	2.1
279.15	1	819.8	2.1
278.65	1	820.2	2.1
278.15	1	820.6	2.1
277.65	1	820.9	2.1
277.15	1	821.3	2.1
276.65	1	821.7	2.1
276.15	1	822.1	2.1
275.65	1	822.5	2.1
275.15	1	822.8	2.1
274.65	1	823.2	2.1
274.15	1	823.6	2.1
273.65	1	824	2.1

System: 3-pentanol + water; phases: Liquid
Fixed: Pressure, kPa = 100
Property: Mass density, kg/m3 (Liquid); method: Vibrating tube method
Temperature, K	Mole fraction of 3-pentanol	Mass density, kg/m3	uncertainty
282.15	0.00117	999.017	0.165
281.65	0.00117	999.053	0.165
281.15	0.00117	999.084	0.165
280.65	0.00117	999.119	0.165
280.15	0.00117	999.14	0.164
279.65	0.00117	999.159	0.164
279.15	0.00117	999.182	0.163
278.65	0.00117	999.194	0.163
278.15	0.00117	999.206	0.163
277.65	0.00117	999.21	0.163
277.15	0.00117	999.214	0.163
276.65	0.00117	999.216	0.162
276.15	0.00117	999.21	0.162
275.65	0.00117	999.2	0.162
275.15	0.00117	999.182	0.162
274.65	0.00117	999.166	0.161
274.15	0.00117	999.145	0.162
273.65	0.00117	999.121	0.162
282.15	0.00216	998.353	0.159
281.65	0.00216	998.388	0.159
281.15	0.00216	998.424	0.158
280.65	0.00216	998.457	0.158
280.15	0.00216	998.48	0.158
279.65	0.00216	998.5	0.158
279.15	0.00216	998.533	0.157
278.65	0.00216	998.549	0.157
278.15	0.00216	998.556	0.157
277.65	0.00216	998.562	0.157
277.15	0.00216	998.574	0.156
276.65	0.00216	998.574	0.156
276.15	0.00216	998.568	0.156
275.65	0.00216	998.559	0.156
275.15	0.00216	998.545	0.155
274.65	0.00216	998.525	0.155
274.15	0.00216	998.504	0.155
273.65	0.00216	998.483	0.155
282.15	0.00361	997.476	0.162
281.65	0.00361	997.515	0.161
281.15	0.00361	997.551	0.161
280.65	0.00361	997.582	0.161
280.15	0.00361	997.609	0.161
279.65	0.00361	997.635	0.161
279.15	0.00361	997.668	0.16
278.65	0.00361	997.686	0.16
278.15	0.00361	997.698	0.16
277.65	0.00361	997.704	0.159
277.15	0.00361	997.712	0.159
276.65	0.00361	997.718	0.159
276.15	0.00361	997.714	0.159
275.65	0.00361	997.704	0.158
275.15	0.00361	997.694	0.158
274.65	0.00361	997.681	0.158
274.15	0.00361	997.655	0.158
273.65	0.00361	997.636	0.157
282.15	0.00517	996.581	0.153
281.65	0.00517	996.619	0.153
281.15	0.00517	996.663	0.153
280.65	0.00517	996.698	0.152
280.15	0.00517	996.729	0.152
279.65	0.00517	996.752	0.152
279.15	0.00517	996.789	0.152
278.65	0.00517	996.805	0.151
278.15	0.00517	996.822	0.151
277.65	0.00517	996.832	0.151
277.15	0.00517	996.843	0.15
276.65	0.00517	996.852	0.15
276.15	0.00517	996.849	0.15
275.65	0.00517	996.842	0.15
275.15	0.00517	996.837	0.149
274.65	0.00517	996.827	0.149
274.15	0.00517	996.809	0.149
273.65	0.00517	996.791	0.149
282.15	0.00616	995.981	0.151
281.65	0.00616	996.024	0.151
281.15	0.00616	996.061	0.151
280.65	0.00616	996.103	0.15
280.15	0.00616	996.134	0.15
279.65	0.00616	996.159	0.15
279.15	0.00616	996.197	0.15
278.65	0.00616	996.219	0.149
278.15	0.00616	996.238	0.149
277.65	0.00616	996.251	0.149
277.15	0.00616	996.263	0.148
276.65	0.00616	996.271	0.148
276.15	0.00616	996.277	0.15
275.65	0.00616	996.271	0.148
275.15	0.00616	996.27	0.147
274.65	0.00616	996.257	0.147
274.15	0.00616	996.243	0.147
273.65	0.00616	996.228	0.146
282.15	0.00773	995.24	0.15
281.65	0.00773	995.286	0.149
281.15	0.00773	995.327	0.149
280.65	0.00773	995.368	0.149
280.15	0.00773	995.406	0.149
279.65	0.00773	995.434	0.148
279.15	0.00773	995.475	0.148
278.65	0.00773	995.503	0.148
278.15	0.00773	995.523	0.148
277.65	0.00773	995.537	0.147
277.15	0.00773	995.555	0.147
276.65	0.00773	995.565	0.147
276.15	0.00773	995.571	0.146
275.65	0.00773	995.572	0.146
275.15	0.00773	995.568	0.146
274.65	0.00773	995.562	0.146
274.15	0.00773	995.55	0.145
273.65	0.00773	995.539	0.145
282.15	0.00866	994.77	0.149
281.65	0.00866	994.819	0.149
281.15	0.00866	994.867	0.149
280.65	0.00866	994.912	0.148
280.15	0.00866	994.948	0.148
279.65	0.00866	994.98	0.147
279.15	0.00866	995.023	0.148
278.65	0.00866	995.05	0.147
278.15	0.00866	995.08	0.147
277.65	0.00866	995.092	0.146
277.15	0.00866	995.116	0.146
276.65	0.00866	995.128	0.146
276.15	0.00866	995.134	0.145
275.65	0.00866	995.134	0.145
275.15	0.00866	995.137	0.145
274.65	0.00866	995.131	0.145
274.15	0.00866	995.121	0.144
273.65	0.00866	995.114	0.144
282.15	1	828.9	2.1
281.65	1	829.3	2.1
281.15	1	829.7	2.1
280.65	1	830.1	2.1
280.15	1	830.5	2.1
279.65	1	830.9	2.1
279.15	1	831.3	2.1
278.65	1	831.7	2.1
278.15	1	832.1	2.1
277.65	1	832.5	2.1
277.15	1	832.9	2.1
276.65	1	833.3	2.1
276.15	1	833.7	2.1
275.65	1	834.1	2.1
275.15	1	834.5	2.1
274.65	1	834.9	2.1
274.15	1	835.3	2.1
273.65	1	835.7	2.1

System: 2-methylbutan-2-ol + water; phases: Liquid
Fixed: Pressure, kPa = 100
Property: Mass density, kg/m3 (Liquid); method: Vibrating tube method
Temperature, K	Mole fraction of 2-methylbutan-2-ol	Mass density, kg/m3	uncertainty
282.15	0.00122	998.939	0.166
281.65	0.00122	998.97	0.166
281.15	0.00122	999.006	0.166
280.65	0.00122	999.032	0.166
280.15	0.00122	999.056	0.166
279.65	0.00122	999.075	0.166
279.15	0.00122	999.102	0.165
278.65	0.00122	999.113	0.165
278.15	0.00122	999.126	0.165
277.65	0.00122	999.129	0.165
277.15	0.00122	999.134	0.165
276.65	0.00122	999.132	0.165
276.15	0.00122	999.13	0.164
275.65	0.00122	999.114	0.164
275.15	0.00122	999.099	0.164
274.65	0.00122	999.08	0.164
274.15	0.00122	999.058	0.164
273.65	0.00122	999.033	0.164
282.15	0.00255	998.044	0.162
281.65	0.00255	998.079	0.161
281.15	0.00255	998.115	0.161
280.65	0.00255	998.146	0.161
280.15	0.00255	998.17	0.161
279.65	0.00255	998.186	0.16
279.15	0.00255	998.216	0.16
278.65	0.00255	998.23	0.16
278.15	0.00255	998.235	0.16
277.65	0.00255	998.246	0.16
277.15	0.00255	998.251	0.159
276.65	0.00255	998.253	0.159
276.15	0.00255	998.247	0.159
275.65	0.00255	998.237	0.159
275.15	0.00255	998.222	0.159
274.65	0.00255	998.206	0.159
274.15	0.00255	998.181	0.158
273.65	0.00255	998.16	0.159
282.15	0.00412	997.086	0.159
281.65	0.00412	997.123	0.159
281.15	0.00412	997.154	0.159
280.65	0.00412	997.189	0.158
280.15	0.00412	997.213	0.158
279.65	0.00412	997.235	0.158
279.15	0.00412	997.265	0.158
278.65	0.00412	997.279	0.157
278.15	0.00412	997.295	0.157
277.65	0.00412	997.299	0.157
277.15	0.00412	997.307	0.157
276.65	0.00412	997.309	0.157
276.15	0.00412	997.305	0.157
275.65	0.00412	997.295	0.156
275.15	0.00412	997.286	0.156
274.65	0.00412	997.266	0.156
274.15	0.00412	997.247	0.156
273.65	0.00412	997.224	0.156
282.15	0.00507	996.522	0.16
281.65	0.00507	996.561	0.16
281.15	0.00507	996.599	0.16
280.65	0.00507	996.631	0.159
280.15	0.00507	996.659	0.159
279.65	0.00507	996.681	0.159
279.15	0.00507	996.713	0.159
278.65	0.00507	996.728	0.159
278.15	0.00507	996.741	0.158
277.65	0.00507	996.748	0.158
277.15	0.00507	996.759	0.158
276.65	0.00507	996.765	0.158
276.15	0.00507	996.76	0.158
275.65	0.00507	996.749	0.157
275.15	0.00507	996.74	0.157
274.65	0.00507	996.721	0.157
274.15	0.00507	996.703	0.157
273.65	0.00507	996.687	0.157
282.15	0.00607	995.962	0.154
281.65	0.00607	996	0.153
281.15	0.00607	996.039	0.153
280.65	0.00607	996.074	0.153
280.15	0.00607	996.101	0.153
279.65	0.00607	996.124	0.152
279.15	0.00607	996.158	0.152
278.65	0.00607	996.177	0.152
278.15	0.00607	996.193	0.152
277.65	0.00607	996.2	0.151
277.15	0.00607	996.215	0.151
276.65	0.00607	996.216	0.151
276.15	0.00607	996.213	0.151
275.65	0.00607	996.207	0.151
275.15	0.00607	996.2	0.15
274.65	0.00607	996.184	0.15
274.15	0.00607	996.17	0.15
273.65	0.00607	996.151	0.15
282.15	0.0079	994.976	0.146
281.65	0.0079	995.021	0.145
281.15	0.0079	995.06	0.145
280.65	0.0079	995.095	0.145
280.15	0.0079	995.132	0.145
279.65	0.0079	995.158	0.144
279.15	0.0079	995.193	0.144
278.65	0.0079	995.217	0.144
278.15	0.0079	995.233	0.143
277.65	0.0079	995.243	0.143
277.15	0.0079	995.258	0.143
276.65	0.0079	995.269	0.143
276.15	0.0079	995.266	0.142
275.65	0.0079	995.267	0.142
275.15	0.0079	995.262	0.142
274.65	0.0079	995.25	0.141
274.15	0.0079	995.235	0.141
273.65	0.0079	995.216	0.141
282.15	0.00994	993.958	0.146
281.65	0.00994	994.007	0.145
281.15	0.00994	994.049	0.145
280.65	0.00994	994.093	0.145
280.15	0.00994	994.13	0.145
279.65	0.00994	994.162	0.144
279.15	0.00994	994.199	0.144
278.65	0.00994	994.22	0.144
278.15	0.00994	994.246	0.143
277.65	0.00994	994.261	0.143
277.15	0.00994	994.279	0.143
276.65	0.00994	994.293	0.142
276.15	0.00994	994.297	0.142
275.65	0.00994	994.301	0.142
275.15	0.00994	994.3	0.142
274.65	0.00994	994.296	0.141
274.15	0.00994	994.284	0.141
273.65	0.00994	994.277	0.14
282.15	0.01252	992.79	0.138
281.65	0.01252	992.846	0.138
281.15	0.01252	992.894	0.138
280.65	0.01252	992.943	0.137
280.15	0.01252	992.984	0.137
279.65	0.01252	993.023	0.137
279.15	0.01252	993.072	0.136
278.65	0.01252	993.102	0.136
278.15	0.01252	993.13	0.135
277.65	0.01252	993.157	0.135
277.15	0.01252	993.181	0.135
276.65	0.01252	993.203	0.134
276.15	0.01252	993.215	0.134
275.65	0.01252	993.227	0.134
275.15	0.01252	993.231	0.133
274.65	0.01252	993.233	0.133
274.15	0.01252	993.232	0.132
273.65	0.01252	993.23	0.132
282.15	0.01488	991.8	0.136
281.65	0.01488	991.86	0.136
281.15	0.01488	991.918	0.135
280.65	0.01488	991.972	0.135
280.15	0.01488	992.025	0.135
279.65	0.01488	992.067	0.134
279.15	0.01488	992.123	0.134
278.65	0.01488	992.159	0.134
278.15	0.01488	992.197	0.133
277.65	0.01488	992.23	0.133
277.15	0.01488	992.265	0.132
276.65	0.01488	992.291	0.132
276.15	0.01488	992.313	0.132
275.65	0.01488	992.328	0.131
275.15	0.01488	992.341	0.131
274.65	0.01488	992.353	0.131
274.15	0.01488	992.356	0.13
273.65	0.01488	992.364	0.13
282.15	1	819	2
281.65	1	819.4	2
281.15	1	819.9	2
280.65	1	820.3	2
280.15	1	820.8	2
279.65	1	821.3	2
279.15	1	821.7	2
278.65	1	822.2	2
278.15	1	822.6	2
277.65	1	823.1	2
277.15	1	823.5	2
276.65	1	824	2
276.15	1	824.5	2
275.65	1	824.9	2
275.15	1	825.4	2
274.65	1	825.8	2
274.15	1	826.3	2
273.65	1	826.7	2
