Measured thermophysical data. Solubility of cilostazol in the presence of polyethylene glycol 4000, polyethylene glycol 6000, polyvinylpyrrolidone K30, and poly(1-vinylpyrrolidone-co-vinyl acetate) at different temperatures
Source: J. Chem. Thermodyn., 2017, 10.1016/j.jct.2017.05.040
Compound 1: Cilostazol, C20H27N5O2, InChI=1S/C20H27N5O2/c26-20-12-9-15-14-17(10-11-18(15)21-20)27-13-5-4-8-19-22-23-24-25(19)16-6-2-1-3-7-16/h10-11,14,16H,1-9,12-13H2,(H,21,26), purity 99.9%
Compound 2: water, H2O, InChI=1S/H2O/h1H2, purity 99.8%

System: Cilostazol + water; phases: Liquid, Crystal
Fixed: Pressure, kPa = 100
Property: Mass fraction of Cilostazol (Liquid); method: Chromatography
Temperature, K	Mass fraction of Cilostazol	uncertainty
298.15	3.32e-06	8e-08
303.15	4.58e-06	1.1e-07
308.15	6.44e-06	1.6e-07
313.15	8.97e-06	2.3e-07
318.15	1.38e-05	3e-07
