Measured thermophysical data. Absorption performance of (CO2 + N2) gas mixtures in amino acid ionic liquids promoted N-methyldiethanolamine aqueous solutions
Source: J. Chem. Thermodyn., 2017, 10.1016/j.jct.2017.06.010
Compound 1: water, H2O, InChI=1S/H2O/h1H2
Compound 2: 2-aminoethan-1-ol, C2H7NO, InChI=1S/C2H7NO/c3-1-2-4/h4H,1-3H2, purity 99.5%
Compound 3: carbon dioxide, CO2, InChI=1S/CO2/c2-1-3, purity 99.9%

System: 2-aminoethan-1-ol + water + carbon dioxide; phases: Liquid, Gas
Property: Mass ratio of solute to solvent of carbon dioxide (Liquid); method: Volumetric method
Solvent: Mass fraction of 2-aminoethan-1-ol	Temperature, K	Pressure, kPa	Mass ratio of solute to solvent of carbon dioxide	uncertainty
0.22	313.2	100	0.0962	0.004
