Measured thermophysical data. Vapor-liquid equilibrium data of binary mixtures of 1-hexanol, 1-heptanol, 1-nonanol and 1,3-propanediol at P = 101.3 kPa using differential scanning calorimetry (DSC)
Source: J. Chem. Thermodyn., 2019, 10.1016/j.jct.2018.12.030
Compound 1: hexan-1-ol, C6H14O, InChI=1S/C6H14O/c1-2-3-4-5-6-7/h7H,2-6H2,1H3, purity 99%
Compound 2: heptan-1-ol, C7H16O, InChI=1S/C7H16O/c1-2-3-4-5-6-7-8/h8H,2-7H2,1H3, purity 99%
Compound 3: nonan-1-ol, C9H20O, InChI=1S/C9H20O/c1-2-3-4-5-6-7-8-9-10/h10H,2-9H2,1H3, purity 99%
Compound 4: propan-1,3-diol, C3H8O2, InChI=1S/C3H8O2/c4-2-1-3-5/h4-5H,1-3H2, purity 99%

System: hexan-1-ol; phases: Liquid, Gas
Property: Vapor or sublimation pressure, kPa (Liquid); method: DSC
Temperature, K	Vapor or sublimation pressure, kPa	uncertainty
430.11	101.3	8

System: heptan-1-ol; phases: Liquid, Gas
Property: Vapor or sublimation pressure, kPa (Liquid); method: DSC
Temperature, K	Vapor or sublimation pressure, kPa	uncertainty
449.52	101.3	8

System: nonan-1-ol; phases: Liquid, Gas
Property: Vapor or sublimation pressure, kPa (Liquid); method: DSC
Temperature, K	Vapor or sublimation pressure, kPa	uncertainty
486.55	101.3	8

System: propan-1,3-diol; phases: Liquid, Gas
Property: Vapor or sublimation pressure, kPa (Liquid); method: DSC
Temperature, K	Vapor or sublimation pressure, kPa	uncertainty
487.43	101.3	7.9

System: hexan-1-ol + heptan-1-ol; phases: Liquid, Gas
Fixed: Pressure, kPa = 101.3
Property: Boiling temperature at pressure P, K (Liquid); method: DSC
Mole fraction of hexan-1-ol	Boiling temperature at pressure P, K	uncertainty
0	449.48	1.55
0.0175	448.61	1.55
0.0302	448.51	1.55
0.0505	447.81	1.55
0.0969	446.41	1.55
0.2004	444.05	1.55
0.2971	441.67	1.55
0.3991	439.67	1.55
0.4991	437.88	1.55
0.5999	435.97	1.55
0.6999	433.94	1.55
0.8006	432.75	1.55
0.8992	431.31	1.55
0.9497	430.85	1.55
0.971	430.31	1.55
0.985	430.18	1.55
1	430.15	1.55

System: hexan-1-ol + nonan-1-ol; phases: Liquid, Gas
Fixed: Pressure, kPa = 101.3
Property: Boiling temperature at pressure P, K (Liquid); method: DSC
Mole fraction of hexan-1-ol	Boiling temperature at pressure P, K	uncertainty
0	486.53	1.55
0.0206	485.92	1.55
0.0331	484.85	1.55
0.0525	484.06	1.55
0.1015	481.58	1.55
0.2026	474.09	1.55
0.312	464.92	1.55
0.4007	457.92	1.55
0.5012	452.14	1.55
0.5985	445.1	1.55
0.698	440.18	1.55
0.8	436.23	1.55
0.8991	432.58	1.55
0.95	431.22	1.55
0.9702	430.78	1.55
0.984	430.27	1.55
1	430.08	1.55

System: hexan-1-ol + propan-1,3-diol; phases: Liquid, Gas
Fixed: Pressure, kPa = 101.3
Property: Boiling temperature at pressure P, K (Liquid); method: DSC
Mole fraction of hexan-1-ol	Boiling temperature at pressure P, K	uncertainty
0	487.44	1.55
0.0177	485.38	1.56
0.0309	484.09	1.56
0.0516	481.86	1.56
0.0979	476.66	1.56
0.1991	467.48	1.56
0.2998	458.36	1.56
0.4012	450.68	1.55
0.5	443.49	1.55
0.6002	438.64	1.55
0.7	435.45	1.55
0.7974	433.14	1.55
0.9019	431.74	1.55
0.947	430.81	1.55
0.9702	430.49	1.55
0.9792	430.26	1.55
1	430.1	1.55

System: heptan-1-ol + nonan-1-ol; phases: Liquid, Gas
Fixed: Pressure, kPa = 101.3
Property: Boiling temperature at pressure P, K (Liquid); method: DSC
Mole fraction of heptan-1-ol	Boiling temperature at pressure P, K	uncertainty
0	486.51	1.55
0.0146	485.96	1.55
0.0347	484.95	1.55
0.0487	484.22	1.55
0.0973	481.91	1.55
0.1967	477.17	1.55
0.2963	472.27	1.55
0.4014	467.41	1.55
0.4991	463.16	1.55
0.5998	460.1	1.55
0.6959	457.25	1.55
0.8013	453.95	1.55
0.9023	451.26	1.55
0.9485	450.61	1.55
0.9709	449.88	1.55
0.9812	449.63	1.55
1	449.53	1.55

System: heptan-1-ol + propan-1,3-diol; phases: Liquid, Gas
Fixed: Pressure, kPa = 101.3
Property: Boiling temperature at pressure P, K (Liquid); method: DSC
Mole fraction of heptan-1-ol	Boiling temperature at pressure P, K	uncertainty
0	487.41	1.55
0.0187	483.89	1.57
0.0328	482.1	1.56
0.0503	480.22	1.56
0.1027	476.07	1.55
0.1988	471.21	1.55
0.2998	467.47	1.55
0.3989	464.3	1.55
0.4977	461.37	1.55
0.6018	458.46	1.55
0.7044	455.26	1.55
0.8063	453.29	1.55
0.8976	451.42	1.55
0.9453	450.46	1.55
0.967	450.09	1.55
0.9764	449.79	1.55
1	449.55	1.55

System: nonan-1-ol + propan-1,3-diol; phases: Liquid, Gas
Fixed: Pressure, kPa = 101.3
Property: Boiling temperature at pressure P, K (Liquid); method: DSC
Mole fraction of nonan-1-ol	Boiling temperature at pressure P, K	uncertainty
0	487.45	1.55
0.0155	485.09	1.57
0.0309	483.06	1.56
0.052	480.5	1.55
0.0991	477.76	1.55
0.2024	475.59	1.55
0.2965	474.71	1.55
0.3492	474.55	1.55
0.3718	474.5	1.55
0.386	474.47	1.55
0.3984	474.46	1.55
0.4184	474.48	1.55
0.4511	474.45	1.55
0.466	474.51	1.55
0.5952	475.13	1.55
0.7021	476	1.55
0.8005	477.74	1.55
0.8925	481.04	1.55
0.941	482.98	1.55
0.9651	484.42	1.55
0.9873	485.78	1.55
1	486.6	1.55
