Measured thermophysical data. Evaluation of the ionic liquids 1-alkyl-3-methylimidazolium hexafluorophosphate as a solvent for the extraction of benzene  from cyclohexane: (Liquid + liquid) equilibria
Source: J. Chem. Thermodyn., 2012, 10.1016/j.jct.2011.12.006
Compound 1: benzene, C6H6, InChI=1S/C6H6/c1-2-4-6-5-3-1/h1-6H, purity 99.5%
Compound 2: cyclohexane, C6H12, InChI=1S/C6H12/c1-2-4-6-5-3-1/h1-6H2, purity 99.5%
Compound 3: 1-butyl-3-methylimidazolium hexafluorophosphate, C8H15F6N2P, InChI=1S/C8H15N2.F6P/c1-3-4-5-10-7-6-9(2)8-10;1-7(2,3,4,5)6/h6-8H,3-5H2,1-2H3;/q+1;-1, purity 99%
Compound 4: 1-methyl-3-pentylimidazolium hexafluorophosphate, C9H17F6N2P, InChI=1S/C9H17N2.F6P/c1-3-4-5-6-11-8-7-10(2)9-11;1-7(2,3,4,5)6/h7-9H,3-6H2,1-2H3;/q+1;-1, purity 99%
Compound 5: 1-hexyl-3-methylimidazolium hexafluorophosphate, C10H19F6N2P, InChI=1S/C10H19N2.F6P/c1-3-4-5-6-7-12-9-8-11(2)10-12;1-7(2,3,4,5)6/h8-10H,3-7H2,1-2H3;/q+1;-1, purity 99%

System: benzene + cyclohexane + 1-butyl-3-methylimidazolium hexafluorophosphate; phases: Liquid mixture 2, Liquid mixture 1
Fixed: Pressure, kPa = 101
Fixed: Temperature, K = 298.15
Property: Mole fraction of cyclohexane (Liquid mixture 2); method: Chromatography
Property: Mole fraction of cyclohexane (Liquid mixture 1); method: Chromatography
Property: Mole fraction of benzene (Liquid mixture 1); method: Chromatography
Mole fraction of benzene	Mole fraction of cyclohexane	uncertainty	Mole fraction of cyclohexane	uncertainty	Mole fraction of benzene	uncertainty
0.0542	0.0269	0.002	0.9608	0.0028	0.0392	
0.1098	0.0319	0.002	0.9205	0.0029	0.0795	
0.1647	0.0368	0.002	0.8372	0.0031	0.1628	
0.2375	0.0327	0.002	0.7519	0.0033	0.2481	
0.2723	0.0395	0.002	0.6493	0.0038	0.3507	
0.324	0.0311	0.002	0.551	0.0043	0.449	
0.4321	0.0245	0.002	0.3538	0.0038	0.6462	
0.54	0.012	0.002	0.1276	0.003	0.8724	

System: benzene + cyclohexane + 1-methyl-3-pentylimidazolium hexafluorophosphate; phases: Liquid mixture 1, Liquid mixture 2
Fixed: Temperature, K = 298.15
Fixed: Pressure, kPa = 101
Property: Mole fraction of cyclohexane (Liquid mixture 1); method: Chromatography
Property: Mole fraction of cyclohexane (Liquid mixture 2); method: Chromatography
Property: Mole fraction of benzene (Liquid mixture 2); method: Chromatography
Mole fraction of benzene	Mole fraction of cyclohexane	uncertainty	Mole fraction of cyclohexane	uncertainty	Mole fraction of benzene	uncertainty
0.0407	0.9593	0.0006	0.0311	0.0005	0.0505	
0.0891	0.9109	0.0008	0.0418	0.0005	0.0937	
0.1545	0.8455	0.0013	0.0641	0.0006	0.1512	
0.2112	0.7888	0.0017	0.063	0.0006	0.202	
0.3544	0.6456	0.0028	0.0648	0.0006	0.3239	
0.4827	0.5173	0.0038	0.0719	0.0006	0.4173	
0.6464	0.3536	0.0028	0.0755	0.0007	0.5242	
0.8457	0.1543	0.0013	0.0561	0.0006	0.683	

System: benzene + cyclohexane + 1-hexyl-3-methylimidazolium hexafluorophosphate; phases: Liquid mixture 1, Liquid mixture 2
Fixed: Temperature, K = 298.15
Fixed: Pressure, kPa = 101
Property: Mole fraction of cyclohexane (Liquid mixture 1); method: Chromatography
Property: Mole fraction of cyclohexane (Liquid mixture 2); method: Chromatography
Property: Mole fraction of benzene (Liquid mixture 2); method: Chromatography
Mole fraction of benzene	Mole fraction of cyclohexane	uncertainty	Mole fraction of cyclohexane	uncertainty	Mole fraction of benzene	uncertainty
0.0392	0.9608	0.0006	0.051	0.0006	0.0533	
0.0829	0.9171	0.0008	0.0657	0.0006	0.1057	
0.1522	0.8478	0.0012	0.075	0.0007	0.1666	
0.2179	0.7821	0.0017	0.0785	0.0007	0.2405	
0.351	0.649	0.0027	0.0807	0.0007	0.3658	
0.4742	0.5258	0.0037	0.0815	0.0007	0.4481	
0.6436	0.3564	0.0028	0.0805	0.0007	0.5512	
0.84	0.16	0.0013	0.0595	0.0006	0.7005	
