Measured thermophysical data. Liquid-liquid equilibria for the aqueous mixture of C5 carboxylic acids and heavier than water solvents at T = 298.2 K
Source: J. Chem. Thermodyn., 2018, 10.1016/j.jct.2017.12.008
Compound 1: pentanoic acid, C5H10O2, InChI=1S/C5H10O2/c1-2-3-4-5(6)7/h2-4H2,1H3,(H,6,7), purity 98%
Compound 2: 4-oxopentanoic acid, C5H8O3, InChI=1S/C5H8O3/c1-4(6)2-3-5(7)8/h2-3H2,1H3,(H,7,8), purity 99%
Compound 3: 4-methyl-1,3-dioxolan-2-one, C4H6O3, InChI=1S/C4H6O3/c1-3-2-6-4(5)7-3/h3H,2H2,1H3, purity 99%
Compound 4: dimethyl 1,2-benzenedicarboxylate, C10H10O4, InChI=1S/C10H10O4/c1-13-9(11)7-5-3-4-6-8(7)10(12)14-2/h3-6H,1-2H3, purity 99%
Compound 5: water, H2O, InChI=1S/H2O/h1H2

System: water + pentanoic acid + 4-methyl-1,3-dioxolan-2-one; phases: Liquid mixture 1, Liquid mixture 2
Fixed: Pressure, kPa = 101.1
Fixed: Temperature, K = 298.2
Property: Mass fraction of pentanoic acid (Liquid mixture 1); method: Titration method
Mass fraction of water	Mass fraction of pentanoic acid	uncertainty
0.0767	0	
0.0744	0.0512	0.0075
0.0714	0.1347	0.0083
0.0676	0.1939	0.0092
0.0652	0.2986	0.0112
0.0643	0.396	0.0134
0.0632	0.5066	0.0158
0.0697	0.627	0.0129
0.0843	0.7583	0.0101
0.1027	0.8176	0.009
0.1369	0.8631	0.0084
0.8236	0	
0.837	0.0427	0.0075
0.8714	0.0595	0.0076
0.9002	0.0644	0.0076
0.9548	0.0452	0.0075

System: water + pentanoic acid + 4-methyl-1,3-dioxolan-2-one; phases: Liquid
Fixed: Temperature, K = 298.2
Fixed: Pressure, kPa = 101.1
Property: Mass density, kg/m3 (Liquid); method: Vibrating tube method
Mass fraction of water	Mass fraction of pentanoic acid	Mass density, kg/m3	uncertainty
0.8341	0.0341	1020.3	3.4
0.8572	0.0524	1011.6	3.1
0.8768	0.0602	1006.2	3.1
0.8917	0.063	1003	3.1
0.9117	0.0605	1001.2	3.1
0.9352	0.0519	1000.1	3.1

System: water + pentanoic acid + 4-methyl-1,3-dioxolan-2-one; phases: Liquid
Fixed: Temperature, K = 298.2
Fixed: Pressure, kPa = 101.1
Property: Mass density, kg/m3 (Liquid); method: Vibrating tube method
Mass fraction of water	Mass fraction of pentanoic acid	Mass density, kg/m3	uncertainty
0.0702	0.1187	1148.2	3.1
0.0665	0.2484	1108.5	3.1
0.0647	0.3801	1070.5	3.1
0.0632	0.4718	1045.6	3.1
0.0664	0.5554	1023.1	3.1
0.0697	0.627	1004.4	3.1

System: water + pentanoic acid + 4-methyl-1,3-dioxolan-2-one; phases: Liquid mixture 2, Liquid mixture 1
Fixed: Temperature, K = 298.2
Fixed: Pressure, kPa = 101.1
Property: Mass fraction of water (Liquid mixture 2); method: Titration method
Property: Mass fraction of pentanoic acid (Liquid mixture 1); method: Titration method
Property: Mass fraction of water (Liquid mixture 1); method: Titration method
Mass fraction of pentanoic acid	Mass fraction of water	uncertainty	Mass fraction of pentanoic acid	uncertainty	Mass fraction of water	uncertainty
0.1187	0.0702	0.0046	0.0341	0.0038	0.8341	
0.2484	0.0665	0.0046	0.0524	0.0032	0.8572	
0.3801	0.0647	0.0046	0.0602	0.0023	0.8768	
0.4718	0.0632	0.0046	0.063	0.0019	0.8917	
0.5554	0.0664	0.0046	0.0605	0.0021	0.9117	
0.627	0.0697	0.0046	0.0519	0.0024	0.9352	

System: water + 4-oxopentanoic acid + 4-methyl-1,3-dioxolan-2-one; phases: Liquid mixture 1, Liquid mixture 2
Fixed: Pressure, kPa = 101.1
Fixed: Temperature, K = 298.2
Property: Mass fraction of 4-oxopentanoic acid (Liquid mixture 1); method: Titration method
Mass fraction of water	Mass fraction of 4-oxopentanoic acid	uncertainty
0.0767	0	
0.0969	0.0565	0.0076
0.1251	0.1244	0.0082
0.1576	0.1678	0.0088
0.212	0.224	0.0097
0.2704	0.2591	0.0104
0.3468	0.2826	0.0109
0.4322	0.2688	0.0106
0.5086	0.251	0.0103
0.5771	0.2101	0.0095
0.6582	0.1498	0.0085
0.7124	0.1018	0.0079
0.8236	0	

System: water + 4-oxopentanoic acid + 4-methyl-1,3-dioxolan-2-one; phases: Liquid
Fixed: Temperature, K = 298.2
Fixed: Pressure, kPa = 101.1
Property: Mass density, kg/m3 (Liquid); method: Vibrating tube method
Mass fraction of water	Mass fraction of 4-oxopentanoic acid	Mass density, kg/m3	uncertainty
0.802	0.0196	1033.9	3.1
0.7728	0.0464	1038	3.1
0.7533	0.0642	1040.8	3.1
0.7396	0.0766	1042.7	3.1
0.7124	0.1018	1046.5	3.1
0.6976	0.1147	1048.7	3.1

System: water + 4-oxopentanoic acid + 4-methyl-1,3-dioxolan-2-one; phases: Liquid
Fixed: Temperature, K = 298.2
Fixed: Pressure, kPa = 101.1
Property: Mass density, kg/m3 (Liquid); method: Vibrating tube method
Mass fraction of water	Mass fraction of 4-oxopentanoic acid	Mass density, kg/m3	uncertainty
0.1075	0.0824	1174	3.4
0.1189	0.1124	1169.6	3.2
0.1379	0.1413	1163.4	3.3
0.1513	0.1609	1159.2	3.2
0.1795	0.1905	1151.1	3.3
0.1966	0.2078	1146.3	3.3

System: water + 4-oxopentanoic acid + 4-methyl-1,3-dioxolan-2-one; phases: Liquid mixture 2, Liquid mixture 1
Fixed: Temperature, K = 298.2
Fixed: Pressure, kPa = 101.1
Property: Mass fraction of water (Liquid mixture 2); method: Titration method
Property: Mass fraction of water (Liquid mixture 1); method: Titration method
Property: Mass fraction of 4-oxopentanoic acid (Liquid mixture 1); method: Titration method
Mass fraction of 4-oxopentanoic acid	Mass fraction of water	uncertainty	Mass fraction of water	uncertainty	Mass fraction of 4-oxopentanoic acid	uncertainty
0.0824	0.1075	0.0052	0.802	0.0073	0.0196	
0.1124	0.1189	0.0055	0.7728	0.0079	0.0464	
0.1413	0.1379	0.0059	0.7533	0.0084	0.0642	
0.1609	0.1513	0.0062	0.7396	0.0087	0.0766	
0.1905	0.1795	0.0068	0.7124	0.0094	0.1018	
0.2078	0.1966	0.0072	0.6976	0.0098	0.1147	

System: water + pentanoic acid + dimethyl 1,2-benzenedicarboxylate; phases: Liquid mixture 1, Liquid mixture 2
Fixed: Pressure, kPa = 101.1
Fixed: Temperature, K = 298.2
Property: Mass fraction of pentanoic acid (Liquid mixture 1); method: Titration method
Mass fraction of water	Mass fraction of pentanoic acid	uncertainty
0.0131	0	
0.0291	0.0971	0.0079
0.0498	0.1896	0.0091
0.0737	0.3249	0.0118
0.0884	0.4104	0.0138
0.1009	0.4933	0.0158
0.1131	0.5765	0.0141
0.1206	0.6601	0.0121
0.1264	0.6972	0.0113
0.1315	0.7565	0.0101
0.1369	0.8631	0.0084
0.9906	0	
0.9668	0.0082	0.0074
0.9541	0.0193	0.0074
0.9479	0.0375	0.0075
0.9548	0.0452	0.0075

System: water + pentanoic acid + dimethyl 1,2-benzenedicarboxylate; phases: Liquid
Fixed: Temperature, K = 298.2
Fixed: Pressure, kPa = 101.1
Property: Mass density, kg/m3 (Liquid); method: Vibrating tube method
Mass fraction of water	Mass fraction of pentanoic acid	Mass density, kg/m3	uncertainty
0.9586	0.0153	1003	3
0.954	0.0219	1002.2	3
0.9507	0.0286	1001.2	3
0.9487	0.035	1000	3.1
0.9504	0.0401	998.5	3
0.9529	0.0432	997.4	3

System: water + pentanoic acid + dimethyl 1,2-benzenedicarboxylate; phases: Liquid
Fixed: Temperature, K = 298.2
Fixed: Pressure, kPa = 101.1
Property: Mass density, kg/m3 (Liquid); method: Vibrating tube method
Mass fraction of water	Mass fraction of pentanoic acid	Mass density, kg/m3	uncertainty
0.0497	0.19	1119.9	3.1
0.0737	0.3249	1077.1	3.1
0.0885	0.4133	1050.9	3.1
0.0976	0.4699	1034.9	3.1
0.1062	0.5318	1018.1	3.1
0.1168	0.6219	1009.4	3.1

System: water + pentanoic acid + dimethyl 1,2-benzenedicarboxylate; phases: Liquid mixture 2, Liquid mixture 1
Fixed: Temperature, K = 298.2
Fixed: Pressure, kPa = 101.1
Property: Mass fraction of water (Liquid mixture 2); method: Titration method
Property: Mass fraction of water (Liquid mixture 1); method: Titration method
Property: Mass fraction of pentanoic acid (Liquid mixture 1); method: Titration method
Mass fraction of pentanoic acid	Mass fraction of water	uncertainty	Mass fraction of water	uncertainty	Mass fraction of pentanoic acid	uncertainty
0.19	0.0497	0.0044	0.9586	0.0045	0.0153	
0.3249	0.0737	0.0047	0.954	0.0045	0.0219	
0.4133	0.0885	0.0049	0.9507	0.0045	0.0286	
0.4699	0.0976	0.005	0.9487	0.0044	0.035	
0.5318	0.1062	0.0052	0.9504	0.0045	0.0401	
0.6219	0.1168	0.0053	0.9529	0.0046	0.0432	

System: water + 4-oxopentanoic acid + dimethyl 1,2-benzenedicarboxylate; phases: Liquid mixture 1, Liquid mixture 2
Fixed: Pressure, kPa = 101.1
Fixed: Temperature, K = 298.2
Property: Mass fraction of 4-oxopentanoic acid (Liquid mixture 1); method: Titration method
Mass fraction of water	Mass fraction of 4-oxopentanoic acid	uncertainty
0.0131	0	
0.0485	0.097	0.0079
0.0782	0.1862	0.0091
0.1614	0.2935	0.0111
0.257	0.3939	0.0134
0.3594	0.4153	0.0139
0.5052	0.3701	0.0128
0.5585	0.3408	0.0122
0.6899	0.2713	0.0107
0.7331	0.2444	0.0101
0.84	0.1482	0.0085
0.9365	0.0518	0.0075
0.9906	0	

System: water + 4-oxopentanoic acid + dimethyl 1,2-benzenedicarboxylate; phases: Liquid
Fixed: Temperature, K = 298.2
Fixed: Pressure, kPa = 101.1
Property: Mass density, kg/m3 (Liquid); method: Vibrating tube method
Mass fraction of water	Mass fraction of 4-oxopentanoic acid	Mass density, kg/m3	uncertainty
0.9666	0.0228	1004.6	3.1
0.9465	0.0429	1007.2	3.1
0.9081	0.0801	1012.2	3.1
0.8488	0.1399	1019.9	3.1
0.7968	0.187	1026.9	3
0.7544	0.2279	1032.7	3.1

System: water + 4-oxopentanoic acid + dimethyl 1,2-benzenedicarboxylate; phases: Liquid
Fixed: Temperature, K = 298.2
Fixed: Pressure, kPa = 101.1
Property: Mass density, kg/m3 (Liquid); method: Vibrating tube method
Mass fraction of water	Mass fraction of 4-oxopentanoic acid	Mass density, kg/m3	uncertainty
0.0753	0.1849	1164.8	3.2
0.1357	0.2593	1148.6	3.1
0.2006	0.3351	1131.9	3.1
0.2386	0.3743	1122.5	3.1
0.2721	0.3972	1114.8	3.1
0.3454	0.4127	1099.9	3.1

System: water + 4-oxopentanoic acid + dimethyl 1,2-benzenedicarboxylate; phases: Liquid mixture 2, Liquid mixture 1
Fixed: Temperature, K = 298.2
Fixed: Pressure, kPa = 101.1
Property: Mass fraction of 4-oxopentanoic acid (Liquid mixture 2); method: Chromatography
Property: Mass fraction of 4-oxopentanoic acid (Liquid mixture 1); method: Chromatography
Property: Mass fraction of water (Liquid mixture 1); method: Chromatography
Mass fraction of water	Mass fraction of 4-oxopentanoic acid	uncertainty	Mass fraction of 4-oxopentanoic acid	uncertainty	Mass fraction of water	uncertainty
0.0753	0.1849	0.0056	0.0228	0.0046	0.9666	
0.1357	0.2593	0.0057	0.0429	0.0045	0.9465	
0.2006	0.3351	0.0056	0.0801	0.0046	0.9081	
0.2386	0.3743	0.0049	0.1399	0.0045	0.8488	
0.2721	0.3972	0.0036	0.187	0.0045	0.7968	
0.3454	0.4127	0.0035	0.2279	0.0047	0.7544	

System: water + 4-methyl-1,3-dioxolan-2-one; phases: Liquid mixture 1, Liquid mixture 2
Fixed: Pressure, kPa = 101.1
Fixed: Temperature, K = 298.2
Property: Mass fraction of water (Liquid mixture 1); method: Titration method
Mass fraction of water	uncertainty
0.0767	0.0075
0.8236	0.0078

System: water + pentanoic acid; phases: Liquid mixture 1, Liquid mixture 2
Fixed: Pressure, kPa = 101.1
Fixed: Temperature, K = 298.2
Property: Mass fraction of pentanoic acid (Liquid mixture 1); method: Titration method
Mass fraction of pentanoic acid	uncertainty
0.8631	0.0076
0.0452	0.0074

System: water + dimethyl 1,2-benzenedicarboxylate; phases: Liquid mixture 1, Liquid mixture 2
Fixed: Pressure, kPa = 101.1
Fixed: Temperature, K = 298.2
Property: Mass fraction of water (Liquid mixture 1); method: Titration method
Mass fraction of water	uncertainty
0.0131	0.0074
0.9906	0.0074
