Measured thermophysical data. Calorimetric measurements of the Li Zn system. Direct reaction method and mixing enthalpy
Source: J. Chem. Thermodyn., 2016, 10.1016/j.jct.2016.03.017
Compound 1: lithium, Li, InChI=1S/Li, purity 99.9%
Compound 2: zinc, Zn, InChI=1S/Zn, purity 99.999%

System: lithium + zinc; phases: Liquid
Fixed: Pressure, kPa = 100
Property: Excess molar enthalpy (molar enthalpy of mixing), kJ/mol (Liquid); method: Calvet calorimetry
Temperature, K	Mole fraction of lithium	Excess molar enthalpy (molar enthalpy of mixing), kJ/mol	uncertainty
814	0.952	-1.1	0.2
814	0.9158	-2	0.2
814	0.8675	-3.2	0.2
814	0.8385	-3.9	0.2
814	0.756	-6.1	0.2
814	0.6888	-7.8	0.2
814	0.6339	-9.1	0.2
814	0.5951	-9.9	0.2
814	0.5619	-10.5	0.2
814	0.5378	-10.8	0.2
814	0.5114	-11.3	0.2
814	0.4875	-11.6	0.2
814	0.1284	-6.5	0.8
814	0.2489	-10.5	0.8
814	0.3293	-11.7	0.8
814	0.4074	-11.8	0.8
814	0.4748	-11.2	0.8
814	0.5348	-10.4	0.8
813	0.4956	-11.4	1.6
813	0.379	-12.3	1.6
813	0.302	-11.8	1.6
813	0.2567	-10.9	1.6
813	0.2137	-9.7	1.6
813	0.1735	-8.3	1.6
813	0.1483	-7.4	1.6
