Measured thermophysical data. Measurement and correlation of density and viscosity of binary mixtures of fatty acid (methyl esters + methylcyclohexane)
Source: J. Chem. Thermodyn., 2019, 10.1016/j.jct.2019.05.021
Compound 1: methyl decanoate, C11H22O2, InChI=1S/C11H22O2/c1-3-4-5-6-7-8-9-10-11(12)13-2/h3-10H2,1-2H3, purity 98%
Compound 2: methyl dodecanoate, C13H26O2, InChI=1S/C13H26O2/c1-3-4-5-6-7-8-9-10-11-12-13(14)15-2/h3-12H2,1-2H3, purity 99%
Compound 3: methyl tetradecanoate, C15H30O2, InChI=1S/C15H30O2/c1-3-4-5-6-7-8-9-10-11-12-13-14-15(16)17-2/h3-14H2,1-2H3, purity 98%
Compound 4: methylcyclohexane, C7H14, InChI=1S/C7H14/c1-7-5-3-2-4-6-7/h7H,2-6H2,1H3, purity 99%

System: methyl decanoate; phases: Liquid
Fixed: Pressure, kPa = 100
Property: Mass density, kg/m3 (Liquid); method: Vibrating tube method
Temperature, K	Mass density, kg/m3	uncertainty
293.15	872.25	1.76
298.15	868.16	1.75
303.15	864.06	1.75
308.15	859.96	1.74
313.15	855.85	1.73
318.15	851.74	1.72
323.15	847.62	1.71

System: methyl decanoate; phases: Liquid
Fixed: Pressure, kPa = 100
Property: Viscosity, Pa*s (Liquid); method: Falling or rolling sphere viscometry
Temperature, K	Viscosity, Pa*s	uncertainty
293.15	0.002125	4.7e-05
298.15	0.001909	4.2e-05
303.15	0.001738	3.8e-05
308.15	0.001588	3.5e-05
313.15	0.001453	3.2e-05
318.15	0.001341	2.9e-05
323.15	0.001245	2.7e-05

System: methyl dodecanoate; phases: Liquid
Fixed: Pressure, kPa = 100
Property: Mass density, kg/m3 (Liquid); method: Vibrating tube method
Temperature, K	Mass density, kg/m3	uncertainty
293.15	869.3	1.74
298.15	865.39	1.73
303.15	861.46	1.73
308.15	857.53	1.72
313.15	853.61	1.71
318.15	849.69	1.7
323.15	845.76	1.7

System: methyl dodecanoate; phases: Liquid
Fixed: Pressure, kPa = 100
Property: Viscosity, Pa*s (Liquid); method: Falling or rolling sphere viscometry
Temperature, K	Viscosity, Pa*s	uncertainty
293.15	0.003151	6.7e-05
298.15	0.002792	6e-05
303.15	0.002504	5.4e-05
308.15	0.002263	4.8e-05
313.15	0.002049	4.4e-05
318.15	0.001875	4e-05
323.15	0.001729	3.7e-05

System: methyl tetradecanoate; phases: Liquid
Fixed: Pressure, kPa = 100
Property: Mass density, kg/m3 (Liquid); method: Vibrating tube method
Temperature, K	Mass density, kg/m3	uncertainty
293.15	867.17	1.76
298.15	863.35	1.75
303.15	859.54	1.75
308.15	855.74	1.74
313.15	851.94	1.73
318.15	848.14	1.72
323.15	844.34	1.72

System: methyl tetradecanoate; phases: Liquid
Fixed: Pressure, kPa = 100
Property: Viscosity, Pa*s (Liquid); method: Falling or rolling sphere viscometry
Temperature, K	Viscosity, Pa*s	uncertainty
293.15	0.004557	0.000101
298.15	0.003979	8.8e-05
303.15	0.003519	7.8e-05
308.15	0.003093	6.9e-05
313.15	0.002797	6.2e-05
318.15	0.002544	5.6e-05
323.15	0.002308	5.1e-05

System: methylcyclohexane; phases: Liquid
Fixed: Pressure, kPa = 100
Property: Mass density, kg/m3 (Liquid); method: Vibrating tube method
Temperature, K	Mass density, kg/m3	uncertainty
293.15	769.38	1.55
298.15	765.06	1.54
303.15	760.71	1.53
308.15	756.35	1.52
313.15	751.98	1.51
318.15	747.59	1.5
323.15	743.19	1.49

System: methylcyclohexane; phases: Liquid
Fixed: Pressure, kPa = 100
Property: Viscosity, Pa*s (Liquid); method: Falling or rolling sphere viscometry
Temperature, K	Viscosity, Pa*s	uncertainty
293.15	0.000733	1.6e-05
298.15	0.000681	1.5e-05
303.15	0.000638	1.4e-05
308.15	0.000599	1.3e-05
313.15	0.000563	1.2e-05
318.15	0.000533	1.1e-05
323.15	0.000505	1.1e-05

System: methylcyclohexane + methyl decanoate; phases: Liquid
Fixed: Pressure, kPa = 100
Property: Mass density, kg/m3 (Liquid); method: Vibrating tube method
Temperature, K	Mole fraction of methylcyclohexane	Mass density, kg/m3	uncertainty
293.15	0	872.25	1.76
293.15	0.0999	865.57	1.75
293.15	0.2	858.32	1.73
293.15	0.3	850.46	1.71
293.15	0.4001	841.94	1.69
293.15	0.4998	832.57	1.67
293.15	0.5999	822.32	1.65
293.15	0.6999	811	1.63
293.15	0.8	798.51	1.61
293.15	0.9	784.68	1.58
293.15	1	769.38	1.55
298.15	0	868.16	1.75
298.15	0.0999	861.49	1.74
298.15	0.2	854.23	1.72
298.15	0.3	846.38	1.7
298.15	0.4001	837.84	1.69
298.15	0.4998	828.47	1.67
298.15	0.5999	818.2	1.65
298.15	0.6999	806.84	1.62
298.15	0.8	794.31	1.6
298.15	0.9	780.43	1.57
298.15	1	765.06	1.54
303.15	0	864.06	1.75
303.15	0.0999	857.38	1.73
303.15	0.2	850.12	1.71
303.15	0.3	842.25	1.7
303.15	0.4001	833.72	1.68
303.15	0.4998	824.32	1.66
303.15	0.5999	814.03	1.64
303.15	0.6999	802.63	1.61
303.15	0.8	790.09	1.59
303.15	0.9	776.16	1.56
303.15	1	760.71	1.53
308.15	0	859.96	1.74
308.15	0.0999	853.28	1.72
308.15	0.2	846.01	1.71
308.15	0.3	838.14	1.69
308.15	0.4001	829.57	1.67
308.15	0.4998	820.17	1.65
308.15	0.5999	809.84	1.63
308.15	0.6999	798.43	1.61
308.15	0.8	785.85	1.58
308.15	0.9	771.88	1.55
308.15	1	756.35	1.52
313.15	0	855.85	1.73
313.15	0.0999	849.16	1.71
313.15	0.2	841.89	1.7
313.15	0.3	834.02	1.68
313.15	0.4001	825.43	1.66
313.15	0.4998	816.01	1.64
313.15	0.5999	805.67	1.62
313.15	0.6999	794.22	1.6
313.15	0.8	781.6	1.57
313.15	0.9	767.57	1.54
313.15	1	751.98	1.51
318.15	0	851.74	1.72
318.15	0.0999	845.04	1.71
318.15	0.2	837.76	1.69
318.15	0.3	829.87	1.67
318.15	0.4001	821.28	1.65
318.15	0.4998	811.84	1.63
318.15	0.5999	801.47	1.61
318.15	0.6999	789.99	1.59
318.15	0.8	777.33	1.56
318.15	0.9	763.25	1.54
318.15	1	747.59	1.5
323.15	0	847.62	1.71
323.15	0.0999	840.91	1.7
323.15	0.2	833.62	1.68
323.15	0.3	825.72	1.66
323.15	0.4001	817.11	1.65
323.15	0.4998	807.66	1.63
323.15	0.5999	797.25	1.6
323.15	0.6999	785.75	1.58
323.15	0.8	773.05	1.56
323.15	0.9	758.92	1.53
323.15	1	743.19	1.49

System: methylcyclohexane + methyl decanoate; phases: Liquid
Fixed: Pressure, kPa = 100
Property: Viscosity, Pa*s (Liquid); method: Falling or rolling sphere viscometry
Temperature, K	Mole fraction of methylcyclohexane	Viscosity, Pa*s	uncertainty
293.15	0	0.002125	4.7e-05
293.15	0.0999	0.001953	4.3e-05
293.15	0.2	0.001783	3.9e-05
293.15	0.3	0.001618	3.5e-05
293.15	0.4001	0.001464	3.2e-05
293.15	0.4998	0.001316	2.8e-05
293.15	0.5999	0.001177	2.5e-05
293.15	0.6999	0.001051	2.3e-05
293.15	0.8	0.000933	2e-05
293.15	0.9	0.000825	1.8e-05
293.15	1	0.000733	1.6e-05
298.15	0	0.001909	4.2e-05
298.15	0.0999	0.001758	3.8e-05
298.15	0.2	0.001613	3.5e-05
298.15	0.3	0.001473	3.2e-05
298.15	0.4001	0.001339	2.9e-05
298.15	0.4998	0.001209	2.6e-05
298.15	0.5999	0.001084	2.3e-05
298.15	0.6999	0.000969	2.1e-05
298.15	0.8	0.000862	1.9e-05
298.15	0.9	0.000765	1.6e-05
298.15	1	0.000681	1.5e-05
303.15	0	0.001738	3.8e-05
303.15	0.0999	0.001603	3.5e-05
303.15	0.2	0.001474	3.2e-05
303.15	0.3	0.00135	2.9e-05
303.15	0.4001	0.001232	2.7e-05
303.15	0.4998	0.00112	2.4e-05
303.15	0.5999	0.001012	2.2e-05
303.15	0.6999	0.000907	2e-05
303.15	0.8	0.000807	1.7e-05
303.15	0.9	0.000716	1.5e-05
303.15	1	0.000638	1.4e-05
308.15	0	0.001588	3.5e-05
308.15	0.0999	0.00147	3.2e-05
308.15	0.2	0.001357	3e-05
308.15	0.3	0.001247	2.7e-05
308.15	0.4001	0.001142	2.5e-05
308.15	0.4998	0.001038	2.2e-05
308.15	0.5999	0.000937	2e-05
308.15	0.6999	0.000843	1.8e-05
308.15	0.8	0.000754	1.6e-05
308.15	0.9	0.000673	1.4e-05
308.15	1	0.000599	1.3e-05
313.15	0	0.001453	3.2e-05
313.15	0.0999	0.001351	3e-05
313.15	0.2	0.001251	2.7e-05
313.15	0.3	0.001152	2.5e-05
313.15	0.4001	0.001057	2.3e-05
313.15	0.4998	0.000963	2.1e-05
313.15	0.5999	0.000872	1.9e-05
313.15	0.6999	0.000787	1.7e-05
313.15	0.8	0.000707	1.5e-05
313.15	0.9	0.000631	1.4e-05
313.15	1	0.000563	1.2e-05
318.15	0	0.001341	2.9e-05
318.15	0.0999	0.001252	2.7e-05
318.15	0.2	0.001161	2.5e-05
318.15	0.3	0.001072	2.3e-05
318.15	0.4001	0.000986	2.1e-05
318.15	0.4998	0.000904	2e-05
318.15	0.5999	0.000822	1.8e-05
318.15	0.6999	0.000743	1.6e-05
318.15	0.8	0.000668	1.4e-05
318.15	0.9	0.000598	1.3e-05
318.15	1	0.000533	1.1e-05
323.15	0	0.001245	2.7e-05
323.15	0.0999	0.001163	2.5e-05
323.15	0.2	0.001083	2.4e-05
323.15	0.3	0.001003	2.2e-05
323.15	0.4001	0.000925	2e-05
323.15	0.4998	0.000847	1.8e-05
323.15	0.5999	0.000772	1.7e-05
323.15	0.6999	0.0007	1.5e-05
323.15	0.8	0.000632	1.4e-05
323.15	0.9	0.000567	1.2e-05
323.15	1	0.000505	1.1e-05

System: methylcyclohexane + methyl dodecanoate; phases: Liquid
Fixed: Pressure, kPa = 100
Property: Mass density, kg/m3 (Liquid); method: Vibrating tube method
Temperature, K	Mole fraction of methylcyclohexane	Mass density, kg/m3	uncertainty
293.15	0	869.3	1.74
293.15	0.1	863.68	1.73
293.15	0.2	857.47	1.72
293.15	0.3	850.62	1.71
293.15	0.4001	842.9	1.69
293.15	0.5001	834.34	1.67
293.15	0.6	824.66	1.65
293.15	0.6999	813.62	1.63
293.15	0.8	801	1.61
293.15	0.8999	786.46	1.58
293.15	1	769.38	1.55
298.15	0	865.39	1.73
298.15	0.1	859.76	1.72
298.15	0.2	853.54	1.71
298.15	0.3	846.68	1.7
298.15	0.4001	838.94	1.68
298.15	0.5001	830.36	1.67
298.15	0.6	820.65	1.65
298.15	0.6999	809.56	1.63
298.15	0.8	796.88	1.6
298.15	0.8999	782.25	1.57
298.15	1	765.06	1.54
303.15	0	861.46	1.73
303.15	0.1	855.83	1.72
303.15	0.2	849.6	1.7
303.15	0.3	842.72	1.69
303.15	0.4001	834.97	1.68
303.15	0.5001	826.36	1.66
303.15	0.6	816.61	1.64
303.15	0.6999	805.48	1.62
303.15	0.8	792.75	1.59
303.15	0.8999	778.03	1.56
303.15	1	760.71	1.53
308.15	0	857.53	1.72
308.15	0.1	851.9	1.71
308.15	0.2	845.67	1.7
308.15	0.3	838.76	1.68
308.15	0.4001	830.99	1.67
308.15	0.5001	822.36	1.65
308.15	0.6	812.57	1.63
308.15	0.6999	801.4	1.61
308.15	0.8	788.6	1.58
308.15	0.8999	773.79	1.56
308.15	1	756.35	1.52
313.15	0	853.61	1.71
313.15	0.1	847.96	1.7
313.15	0.2	841.71	1.69
313.15	0.3	834.79	1.67
313.15	0.4001	827.01	1.66
313.15	0.5001	818.35	1.64
313.15	0.6	808.52	1.62
313.15	0.6999	797.31	1.6
313.15	0.8	784.44	1.58
313.15	0.8999	769.54	1.55
313.15	1	751.98	1.51
318.15	0	849.69	1.7
318.15	0.1	844.02	1.69
318.15	0.2	837.77	1.68
318.15	0.3	830.83	1.67
318.15	0.4001	823.02	1.65
318.15	0.5001	814.32	1.63
318.15	0.6	804.45	1.62
318.15	0.6999	793.18	1.59
318.15	0.8	780.26	1.57
318.15	0.8999	765.28	1.54
318.15	1	747.59	1.5
323.15	0	845.76	1.7
323.15	0.1	840.08	1.69
323.15	0.2	833.81	1.67
323.15	0.3	826.86	1.66
323.15	0.4001	819.02	1.64
323.15	0.5001	810.28	1.63
323.15	0.6	800.37	1.61
323.15	0.6999	789.06	1.59
323.15	0.8	776.07	1.56
323.15	0.8999	761	1.53
323.15	1	743.19	1.49

System: methylcyclohexane + methyl dodecanoate; phases: Liquid
Fixed: Pressure, kPa = 100
Property: Viscosity, Pa*s (Liquid); method: Falling or rolling sphere viscometry
Temperature, K	Mole fraction of methylcyclohexane	Viscosity, Pa*s	uncertainty
293.15	0	0.003151	6.7e-05
293.15	0.1	0.002838	6.1e-05
293.15	0.2	0.002545	5.4e-05
293.15	0.3	0.002264	4.8e-05
293.15	0.4001	0.002	4.3e-05
293.15	0.5001	0.001743	3.7e-05
293.15	0.6	0.001501	3.2e-05
293.15	0.6999	0.00128	2.7e-05
293.15	0.8	0.001071	2.3e-05
293.15	0.8999	0.000887	1.9e-05
293.15	1	0.000733	1.6e-05
298.15	0	0.002792	6e-05
298.15	0.1	0.002527	5.4e-05
298.15	0.2	0.00228	4.9e-05
298.15	0.3	0.002041	4.4e-05
298.15	0.4001	0.001811	3.9e-05
298.15	0.5001	0.001587	3.4e-05
298.15	0.6	0.001373	2.9e-05
298.15	0.6999	0.001177	2.5e-05
298.15	0.8	0.000992	2.1e-05
298.15	0.8999	0.000825	1.8e-05
298.15	1	0.000681	1.5e-05
303.15	0	0.002504	5.4e-05
303.15	0.1	0.002279	4.9e-05
303.15	0.2	0.00206	4.4e-05
303.15	0.3	0.00185	4e-05
303.15	0.4001	0.001646	3.5e-05
303.15	0.5001	0.001448	3.1e-05
303.15	0.6	0.001261	2.7e-05
303.15	0.6999	0.001087	2.3e-05
303.15	0.8	0.000919	2e-05
303.15	0.8999	0.00077	1.6e-05
303.15	1	0.000638	1.4e-05
308.15	0	0.002263	4.8e-05
308.15	0.1	0.002064	4.4e-05
308.15	0.2	0.001876	4e-05
308.15	0.3	0.001693	3.6e-05
308.15	0.4001	0.001512	3.2e-05
308.15	0.5001	0.001339	2.9e-05
308.15	0.6	0.001168	2.5e-05
308.15	0.6999	0.001007	2.2e-05
308.15	0.8	0.000858	1.8e-05
308.15	0.8999	0.000722	1.5e-05
308.15	1	0.000599	1.3e-05
313.15	0	0.002049	4.4e-05
313.15	0.1	0.001877	4e-05
313.15	0.2	0.001714	3.7e-05
313.15	0.3	0.001552	3.3e-05
313.15	0.4001	0.001393	3e-05
313.15	0.5001	0.001237	2.6e-05
313.15	0.6	0.001086	2.3e-05
313.15	0.6999	0.000937	2e-05
313.15	0.8	0.000801	1.7e-05
313.15	0.8999	0.000676	1.4e-05
313.15	1	0.000563	1.2e-05
318.15	0	0.001875	4e-05
318.15	0.1	0.001725	3.7e-05
318.15	0.2	0.001581	3.4e-05
318.15	0.3	0.001437	3.1e-05
318.15	0.4001	0.001294	2.8e-05
318.15	0.5001	0.001151	2.5e-05
318.15	0.6	0.001012	2.2e-05
318.15	0.6999	0.000879	1.9e-05
318.15	0.8	0.000754	1.6e-05
318.15	0.8999	0.000638	1.4e-05
318.15	1	0.000533	1.1e-05
323.15	0	0.001729	3.7e-05
323.15	0.1	0.001592	3.4e-05
323.15	0.2	0.001461	3.1e-05
323.15	0.3	0.001332	2.8e-05
323.15	0.4001	0.001202	2.6e-05
323.15	0.5001	0.001073	2.3e-05
323.15	0.6	0.000946	2e-05
323.15	0.6999	0.000826	1.8e-05
323.15	0.8	0.000711	1.5e-05
323.15	0.8999	0.000603	1.3e-05
323.15	1	0.000505	1.1e-05

System: methylcyclohexane + methyl tetradecanoate; phases: Liquid
Fixed: Pressure, kPa = 100
Property: Mass density, kg/m3 (Liquid); method: Vibrating tube method
Temperature, K	Mole fraction of methylcyclohexane	Mass density, kg/m3	uncertainty
293.15	0	867.17	1.76
293.15	0.1	862.3	1.75
293.15	0.2	856.82	1.73
293.15	0.3	850.69	1.72
293.15	0.4003	843.72	1.7
293.15	0.5001	835.76	1.68
293.15	0.6	826.55	1.66
293.15	0.6999	815.89	1.64
293.15	0.8	803.17	1.61
293.15	0.8999	787.98	1.58
293.15	1	769.38	1.55
298.15	0	863.35	1.75
298.15	0.1	858.46	1.74
298.15	0.2	853	1.73
298.15	0.3	846.86	1.71
298.15	0.4003	839.87	1.69
298.15	0.5001	831.9	1.68
298.15	0.6	822.64	1.66
298.15	0.6999	811.92	1.63
298.15	0.8	799.13	1.61
298.15	0.8999	783.83	1.58
298.15	1	765.06	1.54
303.15	0	859.54	1.75
303.15	0.1	854.64	1.73
303.15	0.2	849.17	1.72
303.15	0.3	843.02	1.7
303.15	0.4003	836.01	1.69
303.15	0.5001	828.01	1.67
303.15	0.6	818.71	1.65
303.15	0.6999	807.93	1.63
303.15	0.8	795.07	1.6
303.15	0.8999	779.65	1.57
303.15	1	760.71	1.53
308.15	0	855.74	1.74
308.15	0.1	850.83	1.72
308.15	0.2	845.36	1.71
308.15	0.3	839.19	1.69
308.15	0.4003	832.16	1.68
308.15	0.5001	824.11	1.66
308.15	0.6	814.78	1.64
308.15	0.6999	803.92	1.62
308.15	0.8	791	1.59
308.15	0.8999	775.46	1.56
308.15	1	756.35	1.52
313.15	0	851.94	1.73
313.15	0.1	847.02	1.72
313.15	0.2	841.53	1.7
313.15	0.3	835.34	1.69
313.15	0.4003	828.29	1.67
313.15	0.5001	820.21	1.65
313.15	0.6	810.83	1.63
313.15	0.6999	799.9	1.61
313.15	0.8	786.91	1.58
313.15	0.8999	771.26	1.55
313.15	1	751.98	1.51
318.15	0	848.14	1.72
318.15	0.1	843.22	1.71
318.15	0.2	837.71	1.69
318.15	0.3	831.5	1.68
318.15	0.4003	824.42	1.66
318.15	0.5001	816.31	1.64
318.15	0.6	806.88	1.62
318.15	0.6999	795.9	1.6
318.15	0.8	782.82	1.57
318.15	0.8999	767.04	1.54
318.15	1	747.59	1.5
323.15	0	844.34	1.72
323.15	0.1	839.41	1.7
323.15	0.2	833.87	1.69
323.15	0.3	827.63	1.67
323.15	0.4003	820.53	1.66
323.15	0.5001	812.38	1.64
323.15	0.6	802.92	1.62
323.15	0.6999	791.88	1.59
323.15	0.8	778.71	1.57
323.15	0.8999	762.81	1.54
323.15	1	743.19	1.49

System: methylcyclohexane + methyl tetradecanoate; phases: Liquid
Fixed: Pressure, kPa = 100
Property: Viscosity, Pa*s (Liquid); method: Falling or rolling sphere viscometry
Temperature, K	Mole fraction of methylcyclohexane	Viscosity, Pa*s	uncertainty
293.15	0	0.004557	0.000101
293.15	0.1	0.004065	9e-05
293.15	0.2	0.003591	7.9e-05
293.15	0.3	0.003141	6.9e-05
293.15	0.4003	0.002706	5.9e-05
293.15	0.5001	0.002304	5e-05
293.15	0.6	0.001925	4.2e-05
293.15	0.6999	0.001578	3.4e-05
293.15	0.8	0.001267	2.7e-05
293.15	0.8999	0.000982	2.1e-05
293.15	1	0.000733	1.6e-05
298.15	0	0.003979	8.8e-05
298.15	0.1	0.003575	7.9e-05
298.15	0.2	0.003176	7e-05
298.15	0.3	0.002792	6.1e-05
298.15	0.4003	0.002424	5.3e-05
298.15	0.5001	0.002072	4.5e-05
298.15	0.6	0.001743	3.8e-05
298.15	0.6999	0.001438	3.1e-05
298.15	0.8	0.001163	2.5e-05
298.15	0.8999	0.00091	2e-05
298.15	1	0.000681	1.5e-05
303.15	0	0.003519	7.8e-05
303.15	0.1	0.003179	7e-05
303.15	0.2	0.002838	6.2e-05
303.15	0.3	0.002507	5.5e-05
303.15	0.4003	0.00219	4.8e-05
303.15	0.5001	0.001884	4.1e-05
303.15	0.6	0.0016	3.5e-05
303.15	0.6999	0.001327	2.9e-05
303.15	0.8	0.001078	2.3e-05
303.15	0.8999	0.000848	1.8e-05
303.15	1	0.000638	1.4e-05
308.15	0	0.003093	6.9e-05
308.15	0.1	0.002803	6.2e-05
308.15	0.2	0.002515	5.5e-05
308.15	0.3	0.002234	4.9e-05
308.15	0.4003	0.001962	4.3e-05
308.15	0.5001	0.001695	3.7e-05
308.15	0.6	0.001445	3.1e-05
308.15	0.6999	0.001205	2.6e-05
308.15	0.8	0.000987	2.1e-05
308.15	0.8999	0.000782	1.7e-05
308.15	1	0.000599	1.3e-05
313.15	0	0.002797	6.2e-05
313.15	0.1	0.002552	5.6e-05
313.15	0.2	0.002302	5.1e-05
313.15	0.3	0.002054	4.5e-05
313.15	0.4003	0.001803	3.9e-05
313.15	0.5001	0.001564	3.4e-05
313.15	0.6	0.001336	2.9e-05
313.15	0.6999	0.001121	2.4e-05
313.15	0.8	0.000918	2e-05
313.15	0.8999	0.000735	1.6e-05
313.15	1	0.000563	1.2e-05
318.15	0	0.002544	5.6e-05
318.15	0.1	0.002325	5.1e-05
318.15	0.2	0.002101	4.6e-05
318.15	0.3	0.001879	4.1e-05
318.15	0.4003	0.001661	3.6e-05
318.15	0.5001	0.00145	3.1e-05
318.15	0.6	0.001249	2.7e-05
318.15	0.6999	0.001052	2.3e-05
318.15	0.8	0.000868	1.9e-05
318.15	0.8999	0.000695	1.5e-05
318.15	1	0.000533	1.1e-05
323.15	0	0.002308	5.1e-05
323.15	0.1	0.002115	4.7e-05
323.15	0.2	0.00192	4.2e-05
323.15	0.3	0.001728	3.8e-05
323.15	0.4003	0.001534	3.3e-05
323.15	0.5001	0.001345	2.9e-05
323.15	0.6	0.001161	2.5e-05
323.15	0.6999	0.000985	2.1e-05
323.15	0.8	0.000819	1.8e-05
323.15	0.8999	0.000658	1.4e-05
323.15	1	0.000505	1.1e-05
