Measured thermophysical data. Densities, excess molar volumes, speeds of sound and isothermal compressibilities for {2-(2-hexyloxyethoxy)ethanol + n-alkanol} systems at temperatures between (288.15 and 308.15) K
Source: J. Chem. Thermodyn., 2008, 10.1016/j.jct.2008.01.015
Compound 1: 2-(2-hexyloxyethoxy)ethanol, C10H22O3, InChI=1S/C10H22O3/c1-2-3-4-5-7-12-9-10-13-8-6-11/h11H,2-10H2,1H3
Compound 2: methanol, CH4O, InChI=1S/CH4O/c1-2/h2H,1H3
Compound 3: propan-1-ol, C3H8O, InChI=1S/C3H8O/c1-2-3-4/h4H,2-3H2,1H3
Compound 4: pentan-1-ol, C5H12O, InChI=1S/C5H12O/c1-2-3-4-5-6/h6H,2-5H2,1H3
Compound 5: heptan-1-ol, C7H16O, InChI=1S/C7H16O/c1-2-3-4-5-6-7-8/h8H,2-7H2,1H3

System: 2-(2-hexyloxyethoxy)ethanol; phases: Liquid
Fixed: Pressure, kPa = 101.325
Property: Speed of sound, m/s (Liquid); method: Sing-around technique in a fixed-path interferometer
Temperature, K	Speed of sound, m/s	uncertainty
288.15	1405.17	0.86
293.15	1388.08	0.86
298.15	1371.14	0.85
303.15	1354.3	0.85
308.15	1337.65	0.84

System: 2-(2-hexyloxyethoxy)ethanol; phases: Liquid
Fixed: Pressure, kPa = 101.325
Property: Mass density, kg/m3 (Liquid); method: VIBTUB:UFactor:4
Temperature, K	Mass density, kg/m3	uncertainty
288.15	936.901	0.268
293.15	932.917	0.274
298.15	928.926	0.28
303.15	924.931	0.286
308.15	920.933	0.292

System: methanol; phases: Liquid
Fixed: Pressure, kPa = 101.325
Property: Speed of sound, m/s (Liquid); method: Sing-around technique in a fixed-path interferometer
Temperature, K	Speed of sound, m/s	uncertainty
288.15	1135.85	0.78
293.15	1118.91	0.77
298.15	1102.62	0.77
303.15	1086.03	0.77
308.15	1069.8	0.76

System: methanol; phases: Liquid
Fixed: Pressure, kPa = 101.325
Property: Mass density, kg/m3 (Liquid); method: VIBTUB:UFactor:4
Temperature, K	Mass density, kg/m3	uncertainty
288.15	795.969	0.48
293.15	791.786	0.487
298.15	786.548	0.495
303.15	782.286	0.502
308.15	777.067	0.51

System: propan-1-ol; phases: Liquid
Fixed: Pressure, kPa = 101.325
Property: Speed of sound, m/s (Liquid); method: Sing-around technique in a fixed-path interferometer
Temperature, K	Speed of sound, m/s	uncertainty
288.15	1240.01	0.81
293.15	1223.17	0.81
298.15	1206.47	0.8
303.15	1189.86	0.8
308.15	1172.04	0.79

System: propan-1-ol; phases: Liquid
Fixed: Pressure, kPa = 101.325
Property: Mass density, kg/m3 (Liquid); method: VIBTUB:UFactor:4
Temperature, K	Mass density, kg/m3	uncertainty
288.15	807.898	0.462
293.15	803.715	0.469
298.15	799.666	0.475
303.15	795.649	0.481
308.15	791.765	0.487

System: pentan-1-ol; phases: Liquid
Fixed: Pressure, kPa = 101.325
Property: Speed of sound, m/s (Liquid); method: Sing-around technique in a fixed-path interferometer
Temperature, K	Speed of sound, m/s	uncertainty
288.15	1312.5	0.83
293.15	1293.45	0.83
298.15	1276.01	0.82
303.15	1258.25	0.82
308.15	1243.67	0.81

System: pentan-1-ol; phases: Liquid
Fixed: Pressure, kPa = 101.325
Property: Mass density, kg/m3 (Liquid); method: VIBTUB:UFactor:4
Temperature, K	Mass density, kg/m3	uncertainty
288.15	818.336	0.446
293.15	815.032	0.452
298.15	811.001	0.458
303.15	807.593	0.463
308.15	803.302	0.47

System: heptan-1-ol; phases: Liquid
Fixed: Pressure, kPa = 101.325
Property: Speed of sound, m/s (Liquid); method: Sing-around technique in a fixed-path interferometer
Temperature, K	Speed of sound, m/s	uncertainty
288.15	1361.34	0.85
293.15	1344.21	0.84
298.15	1327.36	0.84
303.15	1310.68	0.83
308.15	1293.88	0.83

System: heptan-1-ol; phases: Liquid
Fixed: Pressure, kPa = 101.325
Property: Mass density, kg/m3 (Liquid); method: VIBTUB:UFactor:4
Temperature, K	Mass density, kg/m3	uncertainty
288.15	825.943	0.435
293.15	822.394	0.44
298.15	818.789	0.446
303.15	815.414	0.451
308.15	812.385	0.456

System: methanol + 2-(2-hexyloxyethoxy)ethanol; phases: Liquid
Fixed: Pressure, kPa = 101
Property: Speed of sound, m/s (Liquid); method: Sing-around technique in a fixed-path interferometer
Mole fraction of 2-(2-hexyloxyethoxy)ethanol	Temperature, K	Speed of sound, m/s	uncertainty
0.1171	288.15	1247.43	0.82
0.1171	293.15	1230.88	0.81
0.1171	298.15	1214.37	0.81
0.1171	303.15	1197.93	0.8
0.1171	308.15	1181.59	0.8
0.1668	288.15	1271.08	0.82
0.1668	293.15	1254.37	0.82
0.1668	298.15	1237.92	0.81
0.1668	303.15	1221.4	0.81
0.1668	308.15	1205.14	0.8
0.2024	288.15	1286.22	0.83
0.2024	293.15	1269.52	0.82
0.2024	298.15	1252.93	0.82
0.2024	303.15	1236.5	0.81
0.2024	308.15	1220.2	0.81
0.2453	288.15	1302.64	0.83
0.2453	293.15	1285.94	0.83
0.2453	298.15	1269.34	0.82
0.2453	303.15	1252.85	0.82
0.2453	308.15	1236.48	0.81
0.3057	288.15	1322.67	0.84
0.3057	293.15	1305.85	0.84
0.3057	298.15	1289.23	0.83
0.3057	303.15	1272.7	0.83
0.3057	308.15	1256.33	0.82
0.3572	288.15	1336.96	0.85
0.3572	293.15	1320.15	0.84
0.3572	298.15	1303.54	0.84
0.3572	303.15	1286.97	0.83
0.3572	308.15	1270.44	0.83
0.4098	288.15	1349.38	0.85
0.4098	293.15	1332.52	0.84
0.4098	298.15	1315.94	0.84
0.4098	303.15	1299.34	0.83
0.4098	308.15	1282.77	0.83
0.4448	288.15	1356.47	0.85
0.4448	293.15	1339.58	0.85
0.4448	298.15	1322.95	0.84
0.4448	303.15	1306.3	0.84
0.4448	308.15	1289.79	0.83
0.4937	288.15	1365.04	0.85
0.4937	293.15	1348.23	0.85
0.4937	298.15	1331.49	0.84
0.4937	303.15	1314.77	0.84
0.4937	308.15	1298.23	0.83
0.5565	288.15	1373.9	0.85
0.5565	293.15	1357.1	0.85
0.5565	298.15	1340.3	0.84
0.5565	303.15	1323.6	0.84
0.5565	308.15	1307	0.83
0.6009	288.15	1379.12	0.85
0.6009	293.15	1362.26	0.85
0.6009	298.15	1345.46	0.84
0.6009	303.15	1328.67	0.84
0.6009	308.15	1312.04	0.83
0.6571	288.15	1384.47	0.86
0.6571	293.15	1367.62	0.85
0.6571	298.15	1350.76	0.85
0.6571	303.15	1333.94	0.84
0.6571	308.15	1317.36	0.84
0.706	288.15	1388.34	0.86
0.706	293.15	1371.42	0.85
0.706	298.15	1354.54	0.85
0.706	303.15	1337.74	0.84
0.706	308.15	1320.99	0.84
0.7491	288.15	1391.28	0.86
0.7491	293.15	1374.35	0.85
0.7491	298.15	1357.47	0.85
0.7491	303.15	1340.61	0.84
0.7491	308.15	1323.85	0.84
0.8092	288.15	1394.9	0.86
0.8092	293.15	1377.98	0.85
0.8092	298.15	1360.98	0.85
0.8092	303.15	1344.23	0.84
0.8092	308.15	1327.48	0.84
0.8524	288.15	1397.34	0.86
0.8524	293.15	1380.37	0.85
0.8524	298.15	1363.41	0.85
0.8524	303.15	1346.61	0.84
0.8524	308.15	1329.87	0.84
0.9191	288.15	1401.3	0.86
0.9191	293.15	1384.21	0.86
0.9191	298.15	1367.24	0.85
0.9191	303.15	1350.43	0.85
0.9191	308.15	1333.75	0.84
0.9648	288.15	1404.14	0.86
0.9648	293.15	1387.05	0.86
0.9648	298.15	1370.05	0.85
0.9648	303.15	1353.33	0.85
0.9648	308.15	1336.67	0.84

System: methanol + 2-(2-hexyloxyethoxy)ethanol; phases: Liquid
Fixed: Pressure, kPa = 101
Property: Mass density, kg/m3 (Liquid); method: VIBTUB:UFactor:4
Temperature, K	Mole fraction of 2-(2-hexyloxyethoxy)ethanol	Mass density, kg/m3	uncertainty
288.15	0.1171	857.614	0.388
288.15	0.1668	872.157	0.365
288.15	0.2024	880.483	0.352
288.15	0.2453	888.765	0.339
288.15	0.3057	898.209	0.324
288.15	0.3572	904.718	0.314
288.15	0.4098	910.278	0.306
288.15	0.4448	913.47	0.301
288.15	0.4937	917.368	0.295
288.15	0.5565	921.596	0.289
288.15	0.6009	924.097	0.285
288.15	0.6571	926.86	0.281
288.15	0.706	928.905	0.278
288.15	0.7491	930.523	0.276
288.15	0.8092	932.473	0.273
288.15	0.8524	933.727	0.271
288.15	0.9191	935.357	0.268
288.15	0.9648	936.301	0.267
293.15	0.1171	853.235	0.394
293.15	0.1668	867.848	0.372
293.15	0.2024	876.228	0.358
293.15	0.2453	884.567	0.345
293.15	0.3057	894.04	0.331
293.15	0.3572	900.582	0.32
293.15	0.4098	906.172	0.312
293.15	0.4448	909.378	0.307
293.15	0.4937	913.292	0.301
293.15	0.5565	917.544	0.295
293.15	0.6009	920.053	0.291
293.15	0.6571	922.837	0.287
293.15	0.706	924.882	0.284
293.15	0.7491	926.512	0.281
293.15	0.8092	928.466	0.279
293.15	0.8524	929.728	0.277
293.15	0.9191	931.362	0.274
293.15	0.9648	932.315	0.273
298.15	0.1171	848.836	0.401
298.15	0.1668	863.53	0.378
298.15	0.2024	871.945	0.364
298.15	0.2453	880.311	0.351
298.15	0.3057	889.862	0.337
298.15	0.3572	896.438	0.327
298.15	0.4098	902.054	0.318
298.15	0.4448	905.279	0.313
298.15	0.4937	909.209	0.307
298.15	0.5565	913.483	0.301
298.15	0.6009	916.001	0.297
298.15	0.6571	918.802	0.293
298.15	0.706	920.854	0.29
298.15	0.7491	922.492	0.287
298.15	0.8092	924.455	0.284
298.15	0.8524	925.721	0.283
298.15	0.9191	927.363	0.28
298.15	0.9648	928.32	0.279
303.15	0.1171	844.014	0.408
303.15	0.1668	858.918	0.385
303.15	0.2024	867.485	0.371
303.15	0.2453	876.022	0.358
303.15	0.3057	885.669	0.343
303.15	0.3572	892.28	0.333
303.15	0.4098	897.927	0.324
303.15	0.4448	901.168	0.319
303.15	0.4937	905.126	0.313
303.15	0.5565	909.382	0.307
303.15	0.6009	911.941	0.303
303.15	0.6571	914.739	0.299
303.15	0.706	916.819	0.296
303.15	0.7491	918.464	0.293
303.15	0.8092	920.452	0.29
303.15	0.8524	921.707	0.288
303.15	0.9191	923.357	0.286
303.15	0.9648	924.323	0.285
308.15	0.1171	839.086	0.415
308.15	0.1668	854.278	0.392
308.15	0.2024	862.986	0.378
308.15	0.2453	871.662	0.364
308.15	0.3057	881.465	0.349
308.15	0.3572	888.145	0.339
308.15	0.4098	893.806	0.33
308.15	0.4448	897.051	0.325
308.15	0.4937	901.018	0.319
308.15	0.5565	905.302	0.313
308.15	0.6009	907.876	0.309
308.15	0.6571	910.687	0.305
308.15	0.706	912.777	0.302
308.15	0.7491	914.429	0.299
308.15	0.8092	916.435	0.296
308.15	0.8524	917.689	0.294
308.15	0.9191	919.349	0.292
308.15	0.9648	920.308	0.291

System: propan-1-ol + 2-(2-hexyloxyethoxy)ethanol; phases: Liquid
Fixed: Pressure, kPa = 101
Property: Speed of sound, m/s (Liquid); method: Sing-around technique in a fixed-path interferometer
Temperature, K	Mole fraction of 2-(2-hexyloxyethoxy)ethanol	Speed of sound, m/s	uncertainty
288.15	0.1062	1284.22	0.83
288.15	0.1678	1301.99	0.83
288.15	0.2147	1313.7	0.84
288.15	0.2748	1327.19	0.84
288.15	0.3074	1333.75	0.84
288.15	0.3594	1343.29	0.84
288.15	0.4007	1350.05	0.85
288.15	0.454	1357.9	0.85
288.15	0.5065	1364.8	0.85
288.15	0.5476	1369.75	0.85
288.15	0.6141	1376.84	0.85
288.15	0.6648	1381.92	0.86
288.15	0.7057	1385.42	0.86
288.15	0.7615	1389.94	0.86
288.15	0.8008	1392.91	0.86
288.15	0.8663	1397.41	0.86
288.15	0.9129	1400.26	0.86
288.15	0.9611	1402.93	0.86
293.15	0.1062	1267.34	0.82
293.15	0.1678	1284.56	0.83
293.15	0.2147	1296.26	0.83
293.15	0.2748	1309.65	0.83
293.15	0.3074	1316.35	0.84
293.15	0.3594	1326.02	0.84
293.15	0.4007	1332.9	0.84
293.15	0.454	1340.94	0.84
293.15	0.5065	1348.06	0.84
293.15	0.5476	1353.11	0.85
293.15	0.6141	1360.22	0.85
293.15	0.6648	1365.06	0.85
293.15	0.7057	1368.6	0.85
293.15	0.7615	1372.95	0.85
293.15	0.8008	1375.88	0.85
293.15	0.8663	1380.32	0.85
293.15	0.9129	1383.37	0.86
293.15	0.9611	1386.38	0.86
298.15	0.1062	1249.32	0.82
298.15	0.1678	1267.64	0.82
298.15	0.2147	1279.74	0.82
298.15	0.2748	1293.36	0.83
298.15	0.3074	1299.91	0.83
298.15	0.3594	1309.31	0.83
298.15	0.4007	1316.04	0.84
298.15	0.454	1323.95	0.84
298.15	0.5065	1330.8	0.84
298.15	0.5476	1335.82	0.84
298.15	0.6141	1343.05	0.84
298.15	0.6648	1348.1	0.84
298.15	0.7057	1351.84	0.85
298.15	0.7615	1356.56	0.85
298.15	0.8008	1359.53	0.85
298.15	0.8663	1363.92	0.85
298.15	0.9129	1366.51	0.85
298.15	0.9611	1368.72	0.85
303.15	0.1062	1232.64	0.81
303.15	0.1678	1250.96	0.82
303.15	0.2147	1262.96	0.82
303.15	0.2748	1276.42	0.82
303.15	0.3074	1282.96	0.83
303.15	0.3594	1292.35	0.83
303.15	0.4007	1299	0.83
303.15	0.454	1306.91	0.83
303.15	0.5065	1313.86	0.83
303.15	0.5476	1318.84	0.84
303.15	0.6141	1326.22	0.84
303.15	0.6648	1331.38	0.84
303.15	0.7057	1335.15	0.84
303.15	0.7615	1339.89	0.84
303.15	0.8008	1342.88	0.84
303.15	0.8663	1347.24	0.84
303.15	0.9129	1349.8	0.84
303.15	0.9611	1351.8	0.85
308.15	0.1062	1215.78	0.81
308.15	0.1678	1233.96	0.81
308.15	0.2147	1245.99	0.81
308.15	0.2748	1259.48	0.82
308.15	0.3074	1266.02	0.82
308.15	0.3594	1275.53	0.82
308.15	0.4007	1282.27	0.82
308.15	0.454	1290.14	0.83
308.15	0.5065	1297.1	0.83
308.15	0.5476	1302.1	0.83
308.15	0.6141	1309.36	0.83
308.15	0.6648	1314.35	0.83
308.15	0.7057	1318.07	0.84
308.15	0.7615	1322.75	0.84
308.15	0.8008	1325.81	0.84
308.15	0.8663	1330.19	0.84
308.15	0.9129	1332.92	0.84
308.15	0.9611	1335.33	0.84

System: propan-1-ol + 2-(2-hexyloxyethoxy)ethanol; phases: Liquid
Fixed: Pressure, kPa = 101
Property: Mass density, kg/m3 (Liquid); method: VIBTUB:UFactor:4
Temperature, K	Mole fraction of 2-(2-hexyloxyethoxy)ethanol	Mass density, kg/m3	uncertainty
288.15	0.1062	843.052	0.407
288.15	0.1678	856.676	0.387
288.15	0.2147	865.458	0.373
288.15	0.2748	875.451	0.358
288.15	0.3074	880.428	0.35
288.15	0.3594	887.763	0.34
288.15	0.4007	893.137	0.331
288.15	0.454	899.478	0.322
288.15	0.5065	905.116	0.314
288.15	0.5476	909.104	0.308
288.15	0.6141	914.857	0.299
288.15	0.6648	918.787	0.293
288.15	0.7057	921.697	0.289
288.15	0.7615	925.378	0.283
288.15	0.8008	927.797	0.28
288.15	0.8663	931.55	0.274
288.15	0.9129	933.87	0.271
288.15	0.9611	935.832	0.268
293.15	0.1062	839.34	0.413
293.15	0.1678	852.869	0.392
293.15	0.2147	861.572	0.379
293.15	0.2748	871.495	0.364
293.15	0.3074	876.423	0.356
293.15	0.3594	883.755	0.345
293.15	0.4007	889.131	0.337
293.15	0.454	895.473	0.328
293.15	0.5065	901.108	0.319
293.15	0.5476	905.089	0.313
293.15	0.6141	910.869	0.305
293.15	0.6648	914.772	0.299
293.15	0.7057	917.7	0.295
293.15	0.7615	921.402	0.289
293.15	0.8008	923.841	0.286
293.15	0.8663	927.598	0.28
293.15	0.9129	929.946	0.276
293.15	0.9611	931.895	0.274
298.15	0.1062	835.067	0.419
298.15	0.1678	848.695	0.398
298.15	0.2147	857.456	0.385
298.15	0.2748	867.42	0.37
298.15	0.3074	872.391	0.362
298.15	0.3594	879.735	0.351
298.15	0.4007	885.109	0.343
298.15	0.454	891.458	0.334
298.15	0.5065	897.101	0.325
298.15	0.5476	901.088	0.319
298.15	0.6141	906.849	0.311
298.15	0.6648	910.769	0.305
298.15	0.7057	913.696	0.301
298.15	0.7615	917.412	0.295
298.15	0.8008	919.869	0.291
298.15	0.8663	923.643	0.286
298.15	0.9129	925.995	0.282
298.15	0.9611	927.934	0.279
303.15	0.1062	831.089	0.425
303.15	0.1678	844.674	0.404
303.15	0.2147	853.42	0.391
303.15	0.2748	863.377	0.376
303.15	0.3074	868.329	0.368
303.15	0.3594	875.695	0.357
303.15	0.4007	881.072	0.349
303.15	0.454	887.425	0.34
303.15	0.5065	893.072	0.331
303.15	0.5476	897.062	0.325
303.15	0.6141	902.826	0.317
303.15	0.6648	906.756	0.311
303.15	0.7057	909.679	0.306
303.15	0.7615	913.4	0.301
303.15	0.8008	915.862	0.297
303.15	0.8663	919.659	0.292
303.15	0.9129	922.009	0.288
303.15	0.9611	923.955	0.285
308.15	0.1062	827.206	0.43
308.15	0.1678	840.696	0.41
308.15	0.2147	849.384	0.397
308.15	0.2748	859.316	0.382
308.15	0.3074	864.284	0.374
308.15	0.3594	871.64	0.363
308.15	0.4007	877.016	0.355
308.15	0.454	883.38	0.346
308.15	0.5065	889.029	0.337
308.15	0.5476	893.028	0.331
308.15	0.6141	898.797	0.323
308.15	0.6648	902.724	0.317
308.15	0.7057	905.653	0.312
308.15	0.7615	909.372	0.307
308.15	0.8008	911.828	0.303
308.15	0.8663	915.63	0.298
308.15	0.9129	918.002	0.294
308.15	0.9611	919.943	0.291

System: pentan-1-ol + 2-(2-hexyloxyethoxy)ethanol; phases: Liquid
Fixed: Pressure, kPa = 101
Property: Speed of sound, m/s (Liquid); method: Sing-around technique in a fixed-path interferometer
Temperature, K	Mole fraction of 2-(2-hexyloxyethoxy)ethanol	Speed of sound, m/s	uncertainty
288.15	0.1078	1327.31	0.84
288.15	0.1622	1335.1	0.84
288.15	0.2069	1341.08	0.84
288.15	0.2553	1347.1	0.84
288.15	0.298	1352.12	0.85
288.15	0.3646	1359.43	0.85
288.15	0.4027	1363.3	0.85
288.15	0.4509	1367.87	0.85
288.15	0.4972	1372.1	0.85
288.15	0.5422	1375.93	0.85
288.15	0.6161	1381.7	0.85
288.15	0.668	1385.46	0.86
288.15	0.6985	1387.59	0.86
288.15	0.7544	1391.33	0.86
288.15	0.8055	1394.44	0.86
288.15	0.8476	1396.98	0.86
288.15	0.895	1399.8	0.86
288.15	0.9529	1402.94	0.86
293.15	0.1078	1310.31	0.83
293.15	0.1622	1318.16	0.84
293.15	0.2069	1324.1	0.84
293.15	0.2553	1330.13	0.84
293.15	0.298	1335.19	0.84
293.15	0.3646	1342.5	0.84
293.15	0.4027	1346.33	0.84
293.15	0.4509	1351.05	0.85
293.15	0.4972	1355.15	0.85
293.15	0.5422	1359	0.85
293.15	0.6161	1364.7	0.85
293.15	0.668	1368.57	0.85
293.15	0.6985	1370.58	0.85
293.15	0.7544	1374.3	0.85
293.15	0.8055	1377.49	0.85
293.15	0.8476	1379.92	0.85
293.15	0.895	1382.7	0.86
293.15	0.9529	1385.88	0.86
298.15	0.1078	1293.5	0.83
298.15	0.1622	1301.3	0.83
298.15	0.2069	1307.29	0.83
298.15	0.2553	1313.31	0.83
298.15	0.298	1318.33	0.84
298.15	0.3646	1325.75	0.84
298.15	0.4027	1329.57	0.84
298.15	0.4509	1334.24	0.84
298.15	0.4972	1338.46	0.84
298.15	0.5422	1342.3	0.84
298.15	0.6161	1347.91	0.84
298.15	0.668	1351.73	0.85
298.15	0.6985	1353.78	0.85
298.15	0.7544	1357.5	0.85
298.15	0.8055	1360.51	0.85
298.15	0.8476	1363	0.85
298.15	0.895	1365.86	0.85
298.15	0.9529	1368.92	0.85
303.15	0.1078	1276.85	0.82
303.15	0.1622	1284.68	0.83
303.15	0.2069	1290.6	0.83
303.15	0.2553	1296.61	0.83
303.15	0.298	1301.64	0.83
303.15	0.3646	1308.99	0.83
303.15	0.4027	1312.79	0.83
303.15	0.4509	1317.5	0.84
303.15	0.4972	1321.6	0.84
303.15	0.5422	1325.38	0.84
303.15	0.6161	1331.11	0.84
303.15	0.668	1334.94	0.84
303.15	0.6985	1336.97	0.84
303.15	0.7544	1340.65	0.84
303.15	0.8055	1343.76	0.84
303.15	0.8476	1346.23	0.84
303.15	0.895	1349	0.84
303.15	0.9529	1352.15	0.85
308.15	0.1078	1260.15	0.82
308.15	0.1622	1268	0.82
308.15	0.2069	1274.01	0.82
308.15	0.2553	1280.02	0.82
308.15	0.298	1285.16	0.83
308.15	0.3646	1292.44	0.83
308.15	0.4027	1296.22	0.83
308.15	0.4509	1300.91	0.83
308.15	0.4972	1305.06	0.83
308.15	0.5422	1308.81	0.83
308.15	0.6161	1314.54	0.83
308.15	0.668	1318.25	0.84
308.15	0.6985	1320.38	0.84
308.15	0.7544	1324.02	0.84
308.15	0.8055	1327.13	0.84
308.15	0.8476	1329.65	0.84
308.15	0.895	1332.32	0.84
308.15	0.9529	1335.47	0.84

System: pentan-1-ol + 2-(2-hexyloxyethoxy)ethanol; phases: Liquid
Fixed: Pressure, kPa = 101
Property: Mass density, kg/m3 (Liquid); method: VIBTUB:UFactor:4
Temperature, K	Mole fraction of 2-(2-hexyloxyethoxy)ethanol	Mass density, kg/m3	uncertainty
288.15	0.1078	841.1	0.409
288.15	0.1622	850.687	0.395
288.15	0.2069	858.039	0.384
288.15	0.2553	865.554	0.372
288.15	0.298	871.838	0.363
288.15	0.3646	880.994	0.349
288.15	0.4027	885.886	0.342
288.15	0.4509	891.699	0.333
288.15	0.4972	896.896	0.326
288.15	0.5422	901.582	0.319
288.15	0.6161	908.619	0.308
288.15	0.668	913.212	0.301
288.15	0.6985	915.788	0.298
288.15	0.7544	920.338	0.291
288.15	0.8055	924.361	0.285
288.15	0.8476	927.543	0.28
288.15	0.895	930.931	0.275
288.15	0.9529	934.588	0.27
293.15	0.1078	837.386	0.414
293.15	0.1622	846.94	0.4
293.15	0.2069	854.267	0.389
293.15	0.2553	861.758	0.378
293.15	0.298	868.024	0.369
293.15	0.3646	877.155	0.355
293.15	0.4027	882.034	0.348
293.15	0.4509	887.834	0.339
293.15	0.4972	892.991	0.331
293.15	0.5422	897.684	0.324
293.15	0.6161	904.704	0.314
293.15	0.668	909.288	0.307
293.15	0.6985	911.857	0.303
293.15	0.7544	916.395	0.297
293.15	0.8055	920.411	0.291
293.15	0.8476	923.58	0.286
293.15	0.895	926.961	0.281
293.15	0.9529	930.609	0.276
298.15	0.1078	833.637	0.42
298.15	0.1622	843.17	0.406
298.15	0.2069	850.477	0.395
298.15	0.2553	857.946	0.384
298.15	0.298	864.196	0.374
298.15	0.3646	873.301	0.361
298.15	0.4027	878.17	0.353
298.15	0.4509	883.952	0.345
298.15	0.4972	889.123	0.337
298.15	0.5422	893.794	0.33
298.15	0.6161	900.801	0.32
298.15	0.668	905.354	0.313
298.15	0.6985	907.915	0.309
298.15	0.7544	912.444	0.302
298.15	0.8055	916.444	0.297
298.15	0.8476	919.614	0.292
298.15	0.895	922.988	0.287
298.15	0.9529	926.624	0.281
303.15	0.1078	829.874	0.426
303.15	0.1622	839.38	0.411
303.15	0.2069	846.668	0.4
303.15	0.2553	854.12	0.389
303.15	0.298	860.35	0.38
303.15	0.3646	869.461	0.366
303.15	0.4027	874.29	0.359
303.15	0.4509	880.058	0.351
303.15	0.4972	885.216	0.343
303.15	0.5422	889.855	0.336
303.15	0.6161	896.846	0.326
303.15	0.668	901.411	0.319
303.15	0.6985	903.967	0.315
303.15	0.7544	908.482	0.308
303.15	0.8055	912.476	0.302
303.15	0.8476	915.638	0.298
303.15	0.895	919.003	0.293
303.15	0.9529	922.635	0.287
308.15	0.1078	825.998	0.431
308.15	0.1622	835.531	0.417
308.15	0.2069	842.838	0.406
308.15	0.2553	850.275	0.395
308.15	0.298	856.491	0.386
308.15	0.3646	865.566	0.372
308.15	0.4027	870.397	0.365
308.15	0.4509	876.149	0.356
308.15	0.4972	881.265	0.349
308.15	0.5422	885.892	0.342
308.15	0.6161	892.904	0.331
308.15	0.668	897.456	0.325
308.15	0.6985	900.011	0.321
308.15	0.7544	904.53	0.314
308.15	0.8055	908.502	0.308
308.15	0.8476	911.655	0.304
308.15	0.895	915.012	0.299
308.15	0.9529	918.64	0.293

System: heptan-1-ol + 2-(2-hexyloxyethoxy)ethanol; phases: Liquid
Fixed: Pressure, kPa = 101
Property: Speed of sound, m/s (Liquid); method: Sing-around technique in a fixed-path interferometer
Temperature, K	Mole fraction of 2-(2-hexyloxyethoxy)ethanol	Speed of sound, m/s	uncertainty
288.15	0.1197	1367.47	0.85
288.15	0.1597	1369.55	0.85
288.15	0.2026	1371.68	0.85
288.15	0.2644	1374.54	0.85
288.15	0.307	1376.56	0.85
288.15	0.3555	1378.78	0.85
288.15	0.4163	1381.63	0.85
288.15	0.4444	1382.72	0.86
288.15	0.4965	1385.16	0.86
288.15	0.549	1387.38	0.86
288.15	0.6118	1389.96	0.86
288.15	0.6743	1392.56	0.86
288.15	0.768	1396.3	0.86
288.15	0.8158	1398.17	0.86
288.15	0.8551	1399.72	0.86
288.15	0.8989	1401.42	0.86
288.15	0.9536	1403.55	0.86
293.15	0.1197	1350.47	0.85
293.15	0.1597	1352.58	0.85
293.15	0.2026	1354.72	0.85
293.15	0.2644	1357.65	0.85
293.15	0.307	1359.64	0.85
293.15	0.3555	1361.92	0.85
293.15	0.4163	1364.66	0.85
293.15	0.4444	1365.92	0.85
293.15	0.4965	1368.22	0.85
293.15	0.549	1370.51	0.85
293.15	0.6118	1373.15	0.85
293.15	0.6743	1375.8	0.85
293.15	0.768	1379.5	0.85
293.15	0.8158	1381.31	0.85
293.15	0.8551	1382.82	0.86
293.15	0.8989	1384.47	0.86
293.15	0.9536	1386.53	0.86
298.15	0.1197	1333.57	0.84
298.15	0.1597	1335.65	0.84
298.15	0.2026	1337.77	0.84
298.15	0.2644	1340.83	0.84
298.15	0.307	1342.74	0.84
298.15	0.3555	1345.09	0.84
298.15	0.4163	1347.81	0.84
298.15	0.4444	1349.16	0.84
298.15	0.4965	1351.46	0.85
298.15	0.549	1353.67	0.85
298.15	0.6118	1356.41	0.85
298.15	0.6743	1359.02	0.85
298.15	0.768	1362.68	0.85
298.15	0.8158	1364.44	0.85
298.15	0.8551	1365.98	0.85
298.15	0.8989	1367.53	0.85
298.15	0.9536	1369.58	0.85
303.15	0.1197	1316.83	0.83
303.15	0.1597	1318.94	0.84
303.15	0.2026	1321.03	0.84
303.15	0.2644	1324.06	0.84
303.15	0.307	1326.05	0.84
303.15	0.3555	1328.34	0.84
303.15	0.4163	1331.13	0.84
303.15	0.4444	1332.28	0.84
303.15	0.4965	1334.7	0.84
303.15	0.549	1336.92	0.84
303.15	0.6118	1339.56	0.84
303.15	0.6743	1342.08	0.84
303.15	0.768	1345.82	0.84
303.15	0.8158	1347.61	0.84
303.15	0.8551	1349.12	0.84
303.15	0.8989	1350.83	0.85
303.15	0.9536	1352.8	0.85
308.15	0.1197	1300.23	0.83
308.15	0.1597	1302.33	0.83
308.15	0.2026	1304.48	0.83
308.15	0.2644	1307.41	0.83
308.15	0.307	1309.51	0.83
308.15	0.3555	1311.69	0.83
308.15	0.4163	1314.58	0.83
308.15	0.4444	1315.74	0.83
308.15	0.4965	1318.12	0.84
308.15	0.549	1320.26	0.84
308.15	0.6118	1323.02	0.84
308.15	0.6743	1325.52	0.84
308.15	0.768	1329.24	0.84
308.15	0.8158	1330.97	0.84
308.15	0.8551	1332.49	0.84
308.15	0.8989	1334.06	0.84
308.15	0.9536	1336.14	0.84

System: heptan-1-ol + 2-(2-hexyloxyethoxy)ethanol; phases: Liquid
Fixed: Pressure, kPa = 101
Property: Mass density, kg/m3 (Liquid); method: VIBTUB:UFactor:4
Temperature, K	Mole fraction of 2-(2-hexyloxyethoxy)ethanol	Mass density, kg/m3	uncertainty
288.15	0.1197	844.686	0.403
288.15	0.1597	850.265	0.395
288.15	0.2026	856.07	0.386
288.15	0.2644	864.155	0.374
288.15	0.307	869.559	0.366
288.15	0.3555	875.557	0.357
288.15	0.4163	882.781	0.347
288.15	0.4444	886.01	0.342
288.15	0.4965	891.772	0.333
288.15	0.549	897.332	0.325
288.15	0.6118	903.667	0.316
288.15	0.6743	909.713	0.307
288.15	0.768	918.369	0.294
288.15	0.8158	922.63	0.288
288.15	0.8551	926.049	0.283
288.15	0.8989	929.693	0.277
288.15	0.9536	933.886	0.271
293.15	0.1197	841.1	0.408
293.15	0.1597	846.652	0.4
293.15	0.2026	852.422	0.392
293.15	0.2644	860.487	0.38
293.15	0.307	865.861	0.372
293.15	0.3555	871.836	0.363
293.15	0.4163	879.042	0.352
293.15	0.4444	882.239	0.347
293.15	0.4965	888	0.339
293.15	0.549	893.538	0.331
293.15	0.6118	899.843	0.321
293.15	0.6743	905.849	0.312
293.15	0.768	914.461	0.3
293.15	0.8158	918.71	0.293
293.15	0.8551	922.107	0.288
293.15	0.8989	925.738	0.283
293.15	0.9536	929.912	0.277
298.15	0.1197	837.482	0.414
298.15	0.1597	843.022	0.406
298.15	0.2026	848.773	0.397
298.15	0.2644	856.802	0.385
298.15	0.307	862.153	0.377
298.15	0.3555	868.101	0.368
298.15	0.4163	875.254	0.358
298.15	0.4444	878.454	0.353
298.15	0.4965	884.176	0.344
298.15	0.549	889.686	0.336
298.15	0.6118	895.968	0.327
298.15	0.6743	901.96	0.318
298.15	0.768	910.543	0.305
298.15	0.8158	914.779	0.299
298.15	0.8551	918.16	0.294
298.15	0.8989	921.775	0.289
298.15	0.9536	925.937	0.283
303.15	0.1197	833.883	0.419
303.15	0.1597	839.38	0.411
303.15	0.2026	845.1	0.402
303.15	0.2644	853.102	0.391
303.15	0.307	858.429	0.383
303.15	0.3555	864.353	0.374
303.15	0.4163	871.484	0.363
303.15	0.4444	874.673	0.358
303.15	0.4965	880.358	0.35
303.15	0.549	885.851	0.342
303.15	0.6118	892.105	0.333
303.15	0.6743	898.071	0.324
303.15	0.768	906.62	0.311
303.15	0.8158	910.838	0.305
303.15	0.8551	914.207	0.3
303.15	0.8989	917.818	0.295
303.15	0.9536	921.952	0.288
308.15	0.1197	830.252	0.424
308.15	0.1597	835.719	0.416
308.15	0.2026	841.399	0.408
308.15	0.2644	849.355	0.396
308.15	0.307	854.692	0.388
308.15	0.3555	860.592	0.379
308.15	0.4163	867.685	0.369
308.15	0.4444	870.856	0.364
308.15	0.4965	876.528	0.356
308.15	0.549	882	0.348
308.15	0.6118	888.229	0.338
308.15	0.6743	894.164	0.33
308.15	0.768	902.693	0.317
308.15	0.8158	906.89	0.311
308.15	0.8551	910.251	0.306
308.15	0.8989	913.838	0.3
308.15	0.9536	917.965	0.294
