Measured thermophysical data. Measurements of isothermal (vapour + liquid) equilibria data for  {1,1,2,2-Tetrafluoroethane (R134) + trans-1,3,3,3-tetrafluoropropene  (R1234ze (E))} at T = (258.150 to 288.150) K
Source: J. Chem. Thermodyn., 2013, 10.1016/j.jct.2012.12.026
Compound 1: 1,1,2,2-tetrafluoroethane, C2H2F4, InChI=1S/C2H2F4/c3-1(4)2(5)6/h1-2H, purity 99.5%
Compound 2: trans-1,3,3,3-tetrafluoropropene, C3H2F4, InChI=1S/C3H2F4/c4-2-1-3(5,6)7/h1-2H/b2-1+, purity 99.5%

System: 1,1,2,2-tetrafluoroethane; phases: Liquid, Gas
Property: Vapor or sublimation pressure, kPa (Liquid); method: Closed cell (Static) method
Temperature, K	Vapor or sublimation pressure, kPa	uncertainty
278.15	271.3	1.3
288.15	382.9	1.5

System: trans-1,3,3,3-tetrafluoropropene; phases: Liquid, Gas
Property: Vapor or sublimation pressure, kPa (Liquid); method: Closed cell (Static) method
Temperature, K	Vapor or sublimation pressure, kPa	uncertainty
258.15	120.2	1
268.15	179.3	1
278.15	259.2	1.1
288.15	364.2	1.1

System: 1,1,2,2-tetrafluoroethane + trans-1,3,3,3-tetrafluoropropene; phases: Liquid, Gas
Property: Vapor or sublimation pressure, kPa (Liquid); method: Closed cell (Static) method
Mole fraction of 1,1,2,2-tetrafluoroethane	Temperature, K	Vapor or sublimation pressure, kPa	uncertainty
0	258.15	120.2	1.1
0.195	258.15	124.3	1.1
0.271	258.15	126.3	1.1
0.392	258.15	127.6	1.1
0.531	258.15	128.9	1.1
0.587	258.15	129	1.1
0.673	258.15	128.9	1.1
0.792	258.15	127.8	1.1
0.887	258.15	126.3	1.1
0	268.15	179.3	1.1
0.199	268.15	185.9	1.2
0.272	268.15	188.1	1.2
0.393	268.15	190.4	1.2
0.527	268.15	192.1	1.2
0.587	268.15	192.6	1.2
0.673	268.15	192.5	1.2
0.793	268.15	191.5	1.2
0.888	268.15	189.7	1.3
0	278.15	259.2	1.3
0.198	278.15	267	1.4
0.271	278.15	271.5	1.3
0.393	278.15	275.2	1.3
0.523	278.15	277.5	1.4
0.591	278.15	278.2	1.3
0.673	278.15	278.4	9.3
0.683	278.15	278.3	1.3
0.793	278.15	277.6	1.3
0.888	278.15	275.5	1.4
1	278.15	271.3	1.3
0	288.15	364.2	1.5
0.199	288.15	377.8	1.7
0.271	288.15	381	1.6
0.392	288.15	386.5	1.6
0.524	288.15	389.8	1.6
0.591	288.15	391	1.6
0.673	288.15	391.5	1.6
0.683	288.15	391.5	1.6
0.793	288.15	390.8	1.6
0.889	288.15	388.1	1.6
1	288.15	382.9	1.5

System: 1,1,2,2-tetrafluoroethane + trans-1,3,3,3-tetrafluoropropene; phases: Gas, Liquid
Property: Mole fraction of 1,1,2,2-tetrafluoroethane (Gas); method: Chromatography
Mole fraction of 1,1,2,2-tetrafluoroethane	Temperature, K	Mole fraction of 1,1,2,2-tetrafluoroethane	uncertainty
0	258.15	0	
0.195	258.15	0.225	0.015
0.271	258.15	0.299	0.014
0.392	258.15	0.414	0.014
0.531	258.15	0.54	0.02
0.587	258.15	0.588	0.014
0.673	258.15	0.662	0.014
0.792	258.15	0.774	0.014
0.887	258.15	0.869	0.014
0	268.15	0	
0.199	268.15	0.222	0.015
0.272	268.15	0.298	0.014
0.393	268.15	0.415	0.014
0.527	268.15	0.538	0.014
0.587	268.15	0.589	0.014
0.673	268.15	0.667	0.014
0.793	268.15	0.777	0.014
0.888	268.15	0.873	0.014
0	278.15	0	
0.198	278.15	0.222	0.015
0.271	278.15	0.298	0.014
0.393	278.15	0.416	0.014
0.523	278.15	0.532	0.014
0.591	278.15	0.591	0.014
0.673	278.15	0.667	0.013
0.683	278.15	0.676	0.014
0.793	278.15	0.779	0.014
0.888	278.15	0.875	0.015
1	278.15	1	
0	288.15	0	
0.199	288.15	0.221	0.015
0.271	288.15	0.296	0.014
0.392	288.15	0.415	0.014
0.524	288.15	0.532	0.014
0.591	288.15	0.592	0.014
0.673	288.15	0.669	0.013
0.683	288.15	0.677	0.013
0.793	288.15	0.781	0.014
0.889	288.15	0.88	0.015
1	288.15	1	

System: 1,1,2,2-tetrafluoroethane + trans-1,3,3,3-tetrafluoropropene; phases: Liquid, Gas
Property: Azeotropic composition: mole fraction of 1,1,2,2-tetrafluoroethane (Liquid); method: By X=Y
Temperature, K	Azeotropic composition: mole fraction of 1,1,2,2-tetrafluoroethane	uncertainty
258.15	0.619	0.011
268.15	0.633	0.011
278.15	0.647	0.011
288.15	0.663	0.011

System: 1,1,2,2-tetrafluoroethane + trans-1,3,3,3-tetrafluoropropene; phases: Liquid, Gas
Property: Azeotropic pressure, kPa (Liquid); method: By X=Y
Temperature, K	Azeotropic pressure, kPa	uncertainty
258.15	129	1.2
268.15	192.5	1.4
278.15	278.4	1.7
288.15	391.3	2.1
