Measured thermophysical data. An effect of cation functionalization on thermophysical properties of ionic liquids and solubility of glucose in them  Measurements and PC-SAFT calculations
Source: J. Chem. Thermodyn., 2016, 10.1016/j.jct.2015.07.019
Compound 1: 1-allyl-3-methylimidazolium dicyanamide, C9H11N5, InChI=1S/C7H11N2.C2N3/c1-3-4-9-6-5-8(2)7-9;3-1-5-2-4/h3,5-7H,1,4H2,2H3;/q+1;-1, purity 98%
Compound 2: 3-(2-hydroxyethyl)-1-methyl-1H-imidazol-3-ium dicyanoazanide, C8H11N5O, InChI=1S/C6H11N2O.C2N3/c1-7-2-3-8(6-7)4-5-9;3-1-5-2-4/h2-3,6,9H,4-5H2,1H3;/q+1;-1, purity 98%
Compound 3: 1-(3-cyanopropyl)-3-methylimidazolium cyanocyanamide, C10H12N6, InChI=1S/C8H12N3.C2N3/c1-10-6-7-11(8-10)5-3-2-4-9;3-1-5-2-4/h6-8H,2-3,5H2,1H3;/q+1;-1, purity 98.5%
Compound 4: 1-(2-chloroethyl)-3-methylimidazolium dicyanamide, C8H10ClN5, InChI=1S/C6H10ClN2.C2N3/c1-8-4-5-9(6-8)3-2-7;3-1-5-2-4/h4-6H,2-3H2,1H3;/q+1;-1, purity 95%
Compound 5: D-glucose, C6H12O6, InChI=1S/C6H12O6/c7-1-3(9)5(11)6(12)4(10)2-8/h1,3-6,8-12H,2H2/t3-,4+,5+,6+/m0/s1, purity 99.5%

System: 1-allyl-3-methylimidazolium dicyanamide; phases: Glass, Liquid, Air at 1 atmosphere
Property: Triple point temperature, K (Glass); method: DSC
Triple point temperature, K	uncertainty
181.2	1.2

System: 1-allyl-3-methylimidazolium dicyanamide; phases: Liquid
Fixed: Pressure, kPa = 101.325
Property: Mass density, kg/m3 (Liquid); method: Vibrating tube method
Temperature, K	Mass density, kg/m3	uncertainty
293.15	1113.2	2.2
298.15	1109.9	2.2
303.15	1106.5	2.2
308.15	1103.2	2.2
313.15	1099.9	2.2
318.15	1096.6	2.2
323.15	1093.3	2.2
328.15	1090	2.2
333.15	1086.8	2.2
338.15	1083.5	2.2
343.15	1080.3	2.2
348.15	1077.1	2.2
353.15	1073.9	2.2
358.15	1070.8	2.2
363.15	1067.6	2.2

System: 1-allyl-3-methylimidazolium dicyanamide; phases: Liquid
Fixed: Pressure, kPa = 101.325
Property: Viscosity, Pa*s (Liquid); method: Falling or rolling sphere viscometry
Temperature, K	Viscosity, Pa*s	uncertainty
293.15	0.0234	0.0024
298.15	0.0196	0.002
303.15	0.0166	0.0017
308.15	0.0143	0.0014
313.15	0.0124	0.0013
318.15	0.0109	0.0011
323.15	0.0097	0.001
328.15	0.0086	0.0009
333.15	0.0077	0.0008
338.15	0.0069	0.0007
343.15	0.0063	0.0006
348.15	0.0057	0.0006
353.15	0.0052	0.0005
358.15	0.0048	0.0005
363.15	0.0043	0.0004

System: 3-(2-hydroxyethyl)-1-methyl-1H-imidazol-3-ium dicyanoazanide; phases: Glass, Liquid, Air at 1 atmosphere
Property: Triple point temperature, K (Glass); method: DSC
Triple point temperature, K	uncertainty
194.3	1.2

System: 3-(2-hydroxyethyl)-1-methyl-1H-imidazol-3-ium dicyanoazanide; phases: Liquid
Fixed: Pressure, kPa = 101.325
Property: Mass density, kg/m3 (Liquid); method: Vibrating tube method
Temperature, K	Mass density, kg/m3	uncertainty
293.15	1189.5	2.3
298.15	1186.2	2.3
303.15	1182.9	2.3
308.15	1179.6	2.3
313.15	1176.4	2.3
318.15	1173.1	2.3
323.15	1169.9	2.3
328.15	1166.7	2.3
333.15	1163.5	2.3
338.15	1160.4	2.3
343.15	1157.2	2.3
348.15	1154.1	2.3
353.15	1150.9	2.3
358.15	1147.8	2.3
363.15	1144.8	2.3

System: 3-(2-hydroxyethyl)-1-methyl-1H-imidazol-3-ium dicyanoazanide; phases: Liquid
Fixed: Pressure, kPa = 101.325
Property: Viscosity, Pa*s (Liquid); method: Falling or rolling sphere viscometry
Temperature, K	Viscosity, Pa*s	uncertainty
293.15	0.0895	0.0091
298.15	0.0671	0.0068
303.15	0.0517	0.0052
308.15	0.0408	0.0041
313.15	0.0329	0.0033
318.15	0.027	0.0027
323.15	0.0225	0.0023
328.15	0.0191	0.0019
333.15	0.0163	0.0016
338.15	0.0142	0.0014
343.15	0.0124	0.0013
348.15	0.0109	0.0011
353.15	0.0098	0.001
358.15	0.0088	0.0009
363.15	0.0078	0.0008

System: 1-(3-cyanopropyl)-3-methylimidazolium cyanocyanamide; phases: Glass, Liquid, Air at 1 atmosphere
Property: Triple point temperature, K (Glass); method: DSC
Triple point temperature, K	uncertainty
199	1.2

System: 1-(3-cyanopropyl)-3-methylimidazolium cyanocyanamide; phases: Liquid
Fixed: Pressure, kPa = 101.325
Property: Mass density, kg/m3 (Liquid); method: Vibrating tube method
Temperature, K	Mass density, kg/m3	uncertainty
293.15	1155.6	2.1
298.15	1152.4	2.1
303.15	1149.2	2.1
308.15	1146	2.1
313.15	1142.9	2.1
318.15	1139.7	2.1
323.15	1136.6	2.1
328.15	1133.5	2.1
333.15	1130.4	2.1
338.15	1127.3	2.1
343.15	1124.2	2.1
348.15	1121.2	2.1
353.15	1118.1	2.1
358.15	1115.1	2.1
363.15	1112.1	2.1

System: 1-(3-cyanopropyl)-3-methylimidazolium cyanocyanamide; phases: Liquid
Fixed: Pressure, kPa = 101.325
Property: Viscosity, Pa*s (Liquid); method: Falling or rolling sphere viscometry
Temperature, K	Viscosity, Pa*s	uncertainty
293.15	0.2183	0.024
298.15	0.1585	0.0169
303.15	0.1187	0.0123
308.15	0.0908	0.0093
313.15	0.0713	0.0072
318.15	0.0572	0.0057
323.15	0.0467	0.0047
328.15	0.0387	0.0039
333.15	0.0325	0.0033
338.15	0.0276	0.0028
343.15	0.0237	0.0024
348.15	0.0205	0.0021
353.15	0.018	0.0018
358.15	0.0159	0.0016
363.15	0.014	0.0014

System: 1-(2-chloroethyl)-3-methylimidazolium dicyanamide; phases: Glass, Liquid, Air at 1 atmosphere
Property: Triple point temperature, K (Glass); method: DSC
Triple point temperature, K	uncertainty
199.3	1.2

System: 1-(2-chloroethyl)-3-methylimidazolium dicyanamide; phases: Liquid
Fixed: Pressure, kPa = 101.325
Property: Mass density, kg/m3 (Liquid); method: Vibrating tube method
Temperature, K	Mass density, kg/m3	uncertainty
293.15	1242.3	8.4
298.15	1238.7	8.4
303.15	1235.2	8.3
308.15	1231.6	8.3
313.15	1228.1	8.2
318.15	1224.6	8.2
323.15	1221.2	8.1
328.15	1217.7	8.1
333.15	1214.3	8
338.15	1210.9	8
343.15	1207.5	7.9
348.15	1204	7.9
353.15	1200.6	7.8
358.15	1197.2	7.8
363.15	1194.6	7.8

System: 1-(2-chloroethyl)-3-methylimidazolium dicyanamide; phases: Liquid
Fixed: Pressure, kPa = 101.325
Property: Viscosity, Pa*s (Liquid); method: Falling or rolling sphere viscometry
Temperature, K	Viscosity, Pa*s	uncertainty
293.15	0.1676	0.0184
298.15	0.1217	0.013
303.15	0.0917	0.0096
308.15	0.0708	0.0073
313.15	0.0561	0.0058
318.15	0.0453	0.0047
323.15	0.0372	0.0038
328.15	0.0311	0.0032
333.15	0.0263	0.0027
338.15	0.0225	0.0023
343.15	0.0195	0.002
348.15	0.017	0.0018
353.15	0.0149	0.0015
358.15	0.0133	0.0014
363.15	0.012	0.0012

System: D-glucose + 1-allyl-3-methylimidazolium dicyanamide; phases: Liquid, Crystal
Fixed: Pressure, kPa = 100
Property: Solid-liquid equilibrium temperature, K (Liquid); method: VISOBS
Mole fraction of D-glucose	Solid-liquid equilibrium temperature, K	uncertainty
0.1623	322	1
0.2725	344.6	1
0.3655	362.2	1
0.4441	374.6	1
0.5784	391.9	1

System: D-glucose + 3-(2-hydroxyethyl)-1-methyl-1H-imidazol-3-ium dicyanoazanide; phases: Liquid, Crystal
Fixed: Pressure, kPa = 100
Property: Solid-liquid equilibrium temperature, K (Liquid); method: VISOBS
Mole fraction of D-glucose	Solid-liquid equilibrium temperature, K	uncertainty
0.1779	310.1	1.1
0.2219	323.5	1
0.2993	344.4	1
0.3522	357.7	1
0.4186	369.3	1
0.4641	375.3	1
0.536	385.6	1

System: D-glucose + 1-(3-cyanopropyl)-3-methylimidazolium cyanocyanamide; phases: Liquid, Crystal
Fixed: Pressure, kPa = 100
Property: Solid-liquid equilibrium temperature, K (Liquid); method: VISOBS
Mole fraction of D-glucose	Solid-liquid equilibrium temperature, K	uncertainty
0.0996	321.3	1
0.1459	331.2	1
0.2013	341.3	1
0.2617	352.8	1
0.3529	370.7	1
0.5003	389.2	1

System: 1-(2-chloroethyl)-3-methylimidazolium dicyanamide + D-glucose; phases: Liquid, Crystal
Fixed: Pressure, kPa = 100
Property: Solid-liquid equilibrium temperature, K (Liquid); method: VISOBS
Mole fraction of D-glucose	Solid-liquid equilibrium temperature, K	uncertainty
0.1929	332.6	1
0.2801	352.3	1
0.3883	370.3	1
0.5314	388.5	1
0.5834	395	1
