Measured thermophysical data. Volumetric and viscometric study of amino acids in aqueous sorbitol solution at different temperatures
Source: J. Chem. Thermodyn., 2016, 10.1016/j.jct.2015.10.002
Compound 1: D-sorbitol, C6H14O6, InChI=1S/C6H14O6/c7-1-3(9)5(11)6(12)4(10)2-8/h3-12H,1-2H2/t3-,4+,5-,6-/m1/s1, purity 98%
Compound 2: 2-aminoacetic acid, C2H5NO2, InChI=1S/C2H5NO2/c3-1-2(4)5/h1,3H2,(H,4,5), purity 99.5%
Compound 3: (S)-2-aminopropanoic acid, C3H7NO2, InChI=1S/C3H7NO2/c1-2(4)3(5)6/h2H,4H2,1H3,(H,5,6)/t2-/m0/s1, purity 99%
Compound 4: L-valine, C5H11NO2, InChI=1S/C5H11NO2/c1-3(2)4(6)5(7)8/h3-4H,6H2,1-2H3,(H,7,8)/t4-/m0/s1, purity 99%
Compound 5: L-threonine, C4H9NO3, InChI=1S/C4H9NO3/c1-2(6)3(5)4(7)8/h2-3,6H,5H2,1H3,(H,7,8)/t2-,3+/m1/s1, purity 99%
Compound 6: L-arginine, C6H14N4O2, InChI=1S/C6H14N4O2/c7-4(5(11)12)2-1-3-10-6(8)9/h4H,1-3,7H2,(H,11,12)(H4,8,9,10)/t4-/m0/s1, purity 98%
Compound 7: water, H2O, InChI=1S/H2O/h1H2

System: D-sorbitol + 2-aminoacetic acid + water; phases: Liquid
Fixed: Pressure, kPa = 101.3
Property: Mass density, kg/m3 (Liquid); method: Vibrating tube method
Temperature, K	Solvent: Molality, mol/kg of D-sorbitol	Molality, mol/kg of 2-aminoacetic acid	Mass density, kg/m3	uncertainty
293.15	0.2	0	1010.61	1.02
293.15	0.2	0.1001	1013.77	1.02
293.15	0.2	0.2	1016.88	1.02
293.15	0.2	0.3	1019.95	1.02
293.15	0.2	0.4	1022.97	1.02
293.15	0.2	0.5001	1025.94	1.03
293.15	0.2	0.6	1028.87	1.03
293.15	0.2	0.7	1031.75	1.03
303.15	0.2	0	1007.87	1.02
303.15	0.2	0.1001	1010.98	1.02
303.15	0.2	0.2	1014.03	1.02
303.15	0.2	0.3	1017.05	1.02
303.15	0.2	0.4	1020.01	1.02
303.15	0.2	0.5001	1022.94	1.03
303.15	0.2	0.6	1025.82	1.03
303.15	0.2	0.7	1028.65	1.03
313.15	0.2	0	1004.3	1.02
313.15	0.2	0.1001	1007.37	1.02
313.15	0.2	0.2	1010.38	1.02
313.15	0.2	0.3	1013.35	1.02
313.15	0.2	0.4	1016.28	1.02
313.15	0.2	0.5001	1019.17	1.02
313.15	0.2	0.6	1022.02	1.03
313.15	0.2	0.7	1024.82	1.03
323.15	0.2	0	999.96	1.02
323.15	0.2	0.1001	1002.99	1.02
323.15	0.2	0.2	1005.98	1.02
323.15	0.2	0.3	1008.93	1.02
323.15	0.2	0.4	1011.84	1.02
323.15	0.2	0.5001	1014.72	1.02
323.15	0.2	0.6	1017.55	1.03
323.15	0.2	0.7	1020.34	1.03
293.15	0.4	0	1022.43	1.02
293.15	0.4	0.1	1025.52	1.02
293.15	0.4	0.2	1028.57	1.02
293.15	0.4	0.3	1031.58	1.02
293.15	0.4	0.4	1034.55	1.03
293.15	0.4	0.5	1037.49	1.03
293.15	0.4	0.6001	1040.39	1.03
293.15	0.4	0.7	1043.24	1.03
303.15	0.4	0	1019.5	1.02
303.15	0.4	0.1	1022.54	1.02
303.15	0.4	0.2	1025.53	1.02
303.15	0.4	0.3	1028.49	1.02
303.15	0.4	0.4	1031.42	1.02
303.15	0.4	0.5	1034.3	1.03
303.15	0.4	0.6001	1037.15	1.03
303.15	0.4	0.7	1039.96	1.03
313.15	0.4	0	1015.77	1.02
313.15	0.4	0.1	1018.77	1.02
313.15	0.4	0.2	1021.73	1.02
313.15	0.4	0.3	1024.66	1.02
313.15	0.4	0.4	1027.56	1.02
313.15	0.4	0.5	1030.42	1.03
313.15	0.4	0.6001	1033.25	1.03
313.15	0.4	0.7	1036.04	1.03
323.15	0.4	0	1011.33	1.02
323.15	0.4	0.1	1014.3	1.02
323.15	0.4	0.2	1017.23	1.02
323.15	0.4	0.3	1020.14	1.02
323.15	0.4	0.4	1023.02	1.02
323.15	0.4	0.5	1025.86	1.03
323.15	0.4	0.6001	1028.68	1.03
323.15	0.4	0.7	1031.45	1.03
293.15	0.6	0	1033.64	1.02
293.15	0.6	0.1	1036.67	1.02
293.15	0.6	0.2001	1039.67	1.02
293.15	0.6	0.3	1042.63	1.02
293.15	0.6	0.4	1045.55	1.03
293.15	0.6	0.5	1048.44	1.03
293.15	0.6	0.6	1051.3	1.03
293.15	0.6	0.7	1054.12	1.04
303.15	0.6	0	1030.53	1.02
303.15	0.6	0.1	1033.52	1.02
303.15	0.6	0.2001	1036.47	1.02
303.15	0.6	0.3	1039.39	1.02
303.15	0.6	0.4	1042.27	1.03
303.15	0.6	0.5	1045.12	1.03
303.15	0.6	0.6	1047.94	1.03
303.15	0.6	0.7	1050.72	1.03
313.15	0.6	0	1026.67	1.02
313.15	0.6	0.1	1029.62	1.02
313.15	0.6	0.2001	1032.54	1.02
313.15	0.6	0.3	1035.43	1.02
313.15	0.6	0.4	1038.28	1.03
313.15	0.6	0.5	1041.11	1.03
313.15	0.6	0.6	1043.9	1.03
313.15	0.6	0.7	1046.66	1.03
323.15	0.6	0	1022.12	1.02
323.15	0.6	0.1	1025.04	1.02
323.15	0.6	0.2001	1027.93	1.02
323.15	0.6	0.3	1030.79	1.02
323.15	0.6	0.4	1033.63	1.03
323.15	0.6	0.5	1036.43	1.03
323.15	0.6	0.6	1039.21	1.03
323.15	0.6	0.7	1041.95	1.03
293.15	0.8	0	1044.32	1.02
293.15	0.8	0.1001	1047.32	1.02
293.15	0.8	0.2001	1050.27	1.02
293.15	0.8	0.3	1053.19	1.03
293.15	0.8	0.4	1056.07	1.03
293.15	0.8	0.5	1058.92	1.03
293.15	0.8	0.6	1061.73	1.03
293.15	0.8	0.7	1064.51	1.04
303.15	0.8	0	1041.07	1.02
303.15	0.8	0.1001	1044.03	1.02
303.15	0.8	0.2001	1046.95	1.02
303.15	0.8	0.3	1049.83	1.03
303.15	0.8	0.4	1052.68	1.03
303.15	0.8	0.5	1055.5	1.03
303.15	0.8	0.6	1058.28	1.03
303.15	0.8	0.7	1061.02	1.04
313.15	0.8	0	1037.06	1.02
313.15	0.8	0.1001	1039.98	1.02
313.15	0.8	0.2001	1042.87	1.02
313.15	0.8	0.3	1045.73	1.03
313.15	0.8	0.4	1048.56	1.03
313.15	0.8	0.5	1051.35	1.03
313.15	0.8	0.6	1054.12	1.03
313.15	0.8	0.7	1056.86	1.04
323.15	0.8	0	1032.4	1.02
323.15	0.8	0.1001	1035.3	1.02
323.15	0.8	0.2001	1038.16	1.02
323.15	0.8	0.3	1040.99	1.02
323.15	0.8	0.4	1043.8	1.03
323.15	0.8	0.5	1046.57	1.03
323.15	0.8	0.6	1049.32	1.03
323.15	0.8	0.7	1052.04	1.03
293.15	1	0	1054.54	1.02
293.15	1	0.1	1057.48	1.03
293.15	1	0.2	1060.38	1.03
293.15	1	0.3	1063.24	1.03
293.15	1	0.4	1066.08	1.03
293.15	1	0.5	1068.88	1.03
293.15	1	0.6	1071.65	1.04
293.15	1	0.7	1074.38	1.04
303.15	1	0	1051.08	1.02
303.15	1	0.1	1053.99	1.02
303.15	1	0.2	1056.86	1.03
303.15	1	0.3	1059.7	1.03
303.15	1	0.4	1062.51	1.03
303.15	1	0.5	1065.29	1.03
303.15	1	0.6	1068.04	1.03
303.15	1	0.7	1070.76	1.04
313.15	1	0	1046.99	1.02
313.15	1	0.1	1049.86	1.02
313.15	1	0.2	1052.69	1.03
313.15	1	0.3	1055.5	1.03
313.15	1	0.4	1058.27	1.03
313.15	1	0.5	1061.02	1.03
313.15	1	0.6	1063.75	1.03
313.15	1	0.7	1066.44	1.04
323.15	1	0	1042.26	1.02
323.15	1	0.1	1045.1	1.02
323.15	1	0.2	1047.92	1.02
323.15	1	0.3	1050.7	1.03
323.15	1	0.4	1053.46	1.03
323.15	1	0.5	1056.18	1.03
323.15	1	0.6	1058.88	1.03
323.15	1	0.7	1061.56	1.04

System: D-sorbitol + 2-aminoacetic acid + water; phases: Liquid
Fixed: Pressure, kPa = 101.3
Property: Viscosity, Pa*s (Liquid); method: Capillary tube (Ostwald; Ubbelohde) method
Temperature, K	Solvent: Molality, mol/kg of D-sorbitol	Molality, mol/kg of 2-aminoacetic acid	Viscosity, Pa*s	uncertainty
293.15	0.2	0	0.001099	4.5e-05
293.15	0.2	0.1001	0.001111	4.5e-05
293.15	0.2	0.2	0.001124	4.6e-05
293.15	0.2	0.3	0.001138	4.6e-05
293.15	0.2	0.4	0.001153	4.7e-05
293.15	0.2	0.5001	0.001168	4.7e-05
293.15	0.2	0.6	0.001185	4.8e-05
293.15	0.2	0.7	0.001203	4.9e-05
303.15	0.2	0	0.00087	3.5e-05
303.15	0.2	0.1001	0.000881	3.6e-05
303.15	0.2	0.2	0.000892	3.6e-05
303.15	0.2	0.3	0.000904	3.7e-05
303.15	0.2	0.4	0.000916	3.7e-05
303.15	0.2	0.5001	0.00093	3.8e-05
303.15	0.2	0.6	0.000944	3.8e-05
303.15	0.2	0.7	0.000959	3.9e-05
313.15	0.2	0	0.000708	2.9e-05
313.15	0.2	0.1001	0.000718	2.9e-05
313.15	0.2	0.2	0.000727	3e-05
313.15	0.2	0.3	0.000737	3e-05
313.15	0.2	0.4	0.000748	3e-05
313.15	0.2	0.5001	0.000759	3.1e-05
313.15	0.2	0.6	0.000771	3.1e-05
313.15	0.2	0.7	0.000783	3.2e-05
323.15	0.2	0	0.000588	2.4e-05
323.15	0.2	0.1001	0.000597	2.4e-05
323.15	0.2	0.2	0.000605	2.5e-05
323.15	0.2	0.3	0.000615	2.5e-05
323.15	0.2	0.4	0.000624	2.5e-05
323.15	0.2	0.5001	0.000634	2.6e-05
323.15	0.2	0.6	0.000644	2.6e-05
323.15	0.2	0.7	0.000654	2.7e-05
293.15	0.4	0	0.001203	4.9e-05
293.15	0.4	0.1	0.001217	4.9e-05
293.15	0.4	0.2	0.001232	5e-05
293.15	0.4	0.3	0.001247	5.1e-05
293.15	0.4	0.4	0.001264	5.1e-05
293.15	0.4	0.5	0.001283	5.2e-05
293.15	0.4	0.6001	0.001301	5.3e-05
293.15	0.4	0.7	0.00132	5.4e-05
303.15	0.4	0	0.000944	3.8e-05
303.15	0.4	0.1	0.000956	3.9e-05
303.15	0.4	0.2	0.000969	3.9e-05
303.15	0.4	0.3	0.000983	4e-05
303.15	0.4	0.4	0.000997	4.1e-05
303.15	0.4	0.5	0.001012	4.1e-05
303.15	0.4	0.6001	0.001028	4.2e-05
303.15	0.4	0.7	0.001044	4.2e-05
313.15	0.4	0	0.000766	3.1e-05
313.15	0.4	0.1	0.000777	3.2e-05
313.15	0.4	0.2	0.000788	3.2e-05
313.15	0.4	0.3	0.000799	3.3e-05
313.15	0.4	0.4	0.000811	3.3e-05
313.15	0.4	0.5	0.000823	3.3e-05
313.15	0.4	0.6001	0.000836	3.4e-05
313.15	0.4	0.7	0.00085	3.5e-05
323.15	0.4	0	0.000634	2.6e-05
323.15	0.4	0.1	0.000643	2.6e-05
323.15	0.4	0.2	0.000653	2.7e-05
323.15	0.4	0.3	0.000664	2.7e-05
323.15	0.4	0.4	0.000674	2.7e-05
323.15	0.4	0.5	0.000684	2.8e-05
323.15	0.4	0.6001	0.000696	2.8e-05
323.15	0.4	0.7	0.000706	2.9e-05
293.15	0.6	0	0.001319	5.4e-05
293.15	0.6	0.1	0.001336	5.4e-05
293.15	0.6	0.2001	0.001353	5.5e-05
293.15	0.6	0.3	0.001371	5.6e-05
293.15	0.6	0.4	0.00139	5.7e-05
293.15	0.6	0.5	0.001411	5.7e-05
293.15	0.6	0.6	0.001433	5.8e-05
293.15	0.6	0.7	0.001455	5.9e-05
303.15	0.6	0	0.001034	4.2e-05
303.15	0.6	0.1	0.001048	4.3e-05
303.15	0.6	0.2001	0.001063	4.3e-05
303.15	0.6	0.3	0.001078	4.4e-05
303.15	0.6	0.4	0.001093	4.4e-05
303.15	0.6	0.5	0.00111	4.5e-05
303.15	0.6	0.6	0.001127	4.6e-05
303.15	0.6	0.7	0.001145	4.7e-05
313.15	0.6	0	0.000829	3.4e-05
313.15	0.6	0.1	0.000841	3.4e-05
313.15	0.6	0.2001	0.000853	3.5e-05
313.15	0.6	0.3	0.000866	3.5e-05
313.15	0.6	0.4	0.000879	3.6e-05
313.15	0.6	0.5	0.000892	3.6e-05
313.15	0.6	0.6	0.000906	3.7e-05
313.15	0.6	0.7	0.00092	3.7e-05
323.15	0.6	0	0.000686	2.8e-05
323.15	0.6	0.1	0.000697	2.8e-05
323.15	0.6	0.2001	0.000708	2.9e-05
323.15	0.6	0.3	0.000718	2.9e-05
323.15	0.6	0.4	0.000729	3e-05
323.15	0.6	0.5	0.000741	3e-05
323.15	0.6	0.6	0.000752	3.1e-05
323.15	0.6	0.7	0.000764	3.1e-05
293.15	0.8	0	0.001453	5.9e-05
293.15	0.8	0.1001	0.001473	6e-05
293.15	0.8	0.2001	0.001493	6.1e-05
293.15	0.8	0.3	0.001514	6.2e-05
293.15	0.8	0.4	0.001536	6.2e-05
293.15	0.8	0.5	0.00156	6.3e-05
293.15	0.8	0.6	0.001584	6.4e-05
293.15	0.8	0.7	0.00161	6.5e-05
303.15	0.8	0	0.001122	4.6e-05
303.15	0.8	0.1001	0.001139	4.6e-05
303.15	0.8	0.2001	0.001155	4.7e-05
303.15	0.8	0.3	0.001173	4.8e-05
303.15	0.8	0.4	0.001191	4.8e-05
303.15	0.8	0.5	0.001211	4.9e-05
303.15	0.8	0.6	0.001231	5e-05
303.15	0.8	0.7	0.001252	5.1e-05
313.15	0.8	0	0.000903	3.7e-05
313.15	0.8	0.1001	0.000918	3.7e-05
313.15	0.8	0.2001	0.000932	3.8e-05
313.15	0.8	0.3	0.000947	3.9e-05
313.15	0.8	0.4	0.000963	3.9e-05
313.15	0.8	0.5	0.00098	4e-05
313.15	0.8	0.6	0.000997	4.1e-05
313.15	0.8	0.7	0.001014	4.1e-05
323.15	0.8	0	0.000738	3e-05
323.15	0.8	0.1001	0.000751	3.1e-05
323.15	0.8	0.2001	0.000763	3.1e-05
323.15	0.8	0.3	0.000776	3.2e-05
323.15	0.8	0.4	0.000789	3.2e-05
323.15	0.8	0.5	0.000804	3.3e-05
323.15	0.8	0.6	0.000818	3.3e-05
323.15	0.8	0.7	0.000833	3.4e-05
293.15	1	0	0.001592	6.5e-05
293.15	1	0.1	0.001615	6.6e-05
293.15	1	0.2	0.001638	6.7e-05
293.15	1	0.3	0.001662	6.8e-05
293.15	1	0.4	0.001687	6.9e-05
293.15	1	0.5	0.001713	7e-05
293.15	1	0.6	0.001739	7.1e-05
293.15	1	0.7	0.001767	7.2e-05
303.15	1	0	0.001233	5e-05
303.15	1	0.1	0.001252	5.1e-05
303.15	1	0.2	0.001271	5.2e-05
303.15	1	0.3	0.00129	5.2e-05
303.15	1	0.4	0.00131	5.3e-05
303.15	1	0.5	0.00133	5.4e-05
303.15	1	0.6	0.001351	5.5e-05
303.15	1	0.7	0.001374	5.6e-05
313.15	1	0	0.000977	4e-05
313.15	1	0.1	0.000993	4e-05
313.15	1	0.2	0.001009	4.1e-05
313.15	1	0.3	0.001024	4.2e-05
313.15	1	0.4	0.00104	4.2e-05
313.15	1	0.5	0.001056	4.3e-05
313.15	1	0.6	0.001072	4.4e-05
313.15	1	0.7	0.001089	4.4e-05
323.15	1	0	0.000797	3.2e-05
323.15	1	0.1	0.000811	3.3e-05
323.15	1	0.2	0.000824	3.4e-05
323.15	1	0.3	0.000837	3.4e-05
323.15	1	0.4	0.00085	3.5e-05
323.15	1	0.5	0.000864	3.5e-05
323.15	1	0.6	0.000878	3.6e-05
323.15	1	0.7	0.000892	3.6e-05

System: D-sorbitol + (S)-2-aminopropanoic acid + water; phases: Liquid
Fixed: Pressure, kPa = 101.3
Property: Mass density, kg/m3 (Liquid); method: Vibrating tube method
Temperature, K	Solvent: Molality, mol/kg of D-sorbitol	Molality, mol/kg of (S)-2-aminopropanoic acid	Mass density, kg/m3	uncertainty
293.15	0.2	0	1010.61	1.03
293.15	0.2	0.1	1013.41	1.03
293.15	0.2	0.2	1016.17	1.03
293.15	0.2	0.3	1018.88	1.03
293.15	0.2	0.4	1021.54	1.04
293.15	0.2	0.5	1024.16	1.04
293.15	0.2	0.6	1026.73	1.04
293.15	0.2	0.7	1029.26	1.05
303.15	0.2	0	1007.87	1.03
303.15	0.2	0.1	1010.63	1.03
303.15	0.2	0.2	1013.35	1.03
303.15	0.2	0.3	1016.02	1.03
303.15	0.2	0.4	1018.65	1.04
303.15	0.2	0.5	1021.23	1.04
303.15	0.2	0.6	1023.77	1.04
303.15	0.2	0.7	1026.28	1.04
313.15	0.2	0	1004.3	1.03
313.15	0.2	0.1	1007.02	1.03
313.15	0.2	0.2	1009.7	1.03
313.15	0.2	0.3	1012.33	1.03
313.15	0.2	0.4	1014.93	1.04
313.15	0.2	0.5	1017.49	1.04
313.15	0.2	0.6	1020	1.04
313.15	0.2	0.7	1022.48	1.04
323.15	0.2	0	999.96	1.03
323.15	0.2	0.1	1002.64	1.03
323.15	0.2	0.2	1005.28	1.03
323.15	0.2	0.3	1007.89	1.03
323.15	0.2	0.4	1010.46	1.03
323.15	0.2	0.5	1012.99	1.04
323.15	0.2	0.6	1015.49	1.04
323.15	0.2	0.7	1017.96	1.04
293.15	0.4	0	1022.43	1.03
293.15	0.4	0.1	1025.18	1.03
293.15	0.4	0.2	1027.87	1.04
293.15	0.4	0.3	1030.52	1.04
293.15	0.4	0.4	1033.13	1.04
293.15	0.4	0.5	1035.68	1.04
293.15	0.4	0.6	1038.2	1.04
293.15	0.4	0.7	1040.68	1.05
303.15	0.4	0	1019.5	1.03
303.15	0.4	0.1	1022.2	1.03
303.15	0.4	0.2	1024.86	1.03
303.15	0.4	0.3	1027.47	1.04
303.15	0.4	0.4	1030.03	1.04
303.15	0.4	0.5	1032.54	1.04
303.15	0.4	0.6	1035.02	1.04
303.15	0.4	0.7	1037.45	1.05
313.15	0.4	0	1015.77	1.03
313.15	0.4	0.1	1018.44	1.03
313.15	0.4	0.2	1021.06	1.03
313.15	0.4	0.3	1023.64	1.04
313.15	0.4	0.4	1026.17	1.04
313.15	0.4	0.5	1028.67	1.04
313.15	0.4	0.6	1031.13	1.04
313.15	0.4	0.7	1033.53	1.05
323.15	0.4	0	1011.33	1.03
323.15	0.4	0.1	1013.96	1.03
323.15	0.4	0.2	1016.55	1.03
323.15	0.4	0.3	1019.11	1.03
323.15	0.4	0.4	1021.63	1.04
323.15	0.4	0.5	1024.12	1.04
323.15	0.4	0.6	1026.58	1.04
323.15	0.4	0.7	1029	1.04
293.15	0.6	0	1033.64	1.04
293.15	0.6	0.1	1036.34	1.04
293.15	0.6	0.2	1038.98	1.04
293.15	0.6	0.3	1041.57	1.04
293.15	0.6	0.4	1044.11	1.04
293.15	0.6	0.5	1046.6	1.04
293.15	0.6	0.6	1049.04	1.05
293.15	0.6	0.7	1051.43	1.05
303.15	0.6	0	1030.53	1.04
303.15	0.6	0.1	1033.18	1.04
303.15	0.6	0.2	1035.79	1.04
303.15	0.6	0.3	1038.34	1.04
303.15	0.6	0.4	1040.84	1.04
303.15	0.6	0.5	1043.3	1.04
303.15	0.6	0.6	1045.7	1.05
303.15	0.6	0.7	1048.07	1.05
313.15	0.6	0	1026.67	1.03
313.15	0.6	0.1	1029.29	1.04
313.15	0.6	0.2	1031.86	1.04
313.15	0.6	0.3	1034.39	1.04
313.15	0.6	0.4	1036.87	1.04
313.15	0.6	0.5	1039.31	1.04
313.15	0.6	0.6	1041.72	1.05
313.15	0.6	0.7	1044.07	1.05
323.15	0.6	0	1022.12	1.03
323.15	0.6	0.1	1024.7	1.03
323.15	0.6	0.2	1027.24	1.04
323.15	0.6	0.3	1029.75	1.04
323.15	0.6	0.4	1032.23	1.04
323.15	0.6	0.5	1034.67	1.04
323.15	0.6	0.6	1037.07	1.04
323.15	0.6	0.7	1039.43	1.05
293.15	0.8	0	1044.32	1.04
293.15	0.8	0.1	1046.97	1.04
293.15	0.8	0.2001	1049.57	1.04
293.15	0.8	0.3	1052.12	1.04
293.15	0.8	0.4	1054.61	1.04
293.15	0.8	0.5	1057.06	1.05
293.15	0.8	0.6	1059.46	1.05
293.15	0.8	0.7	1061.81	1.05
303.15	0.8	0	1041.07	1.04
303.15	0.8	0.1	1043.68	1.04
303.15	0.8	0.2001	1046.24	1.04
303.15	0.8	0.3	1048.75	1.04
303.15	0.8	0.4	1051.21	1.04
303.15	0.8	0.5	1053.62	1.05
303.15	0.8	0.6	1055.98	1.05
303.15	0.8	0.7	1058.31	1.05
313.15	0.8	0	1037.06	1.04
313.15	0.8	0.1	1039.63	1.04
313.15	0.8	0.2001	1042.16	1.04
313.15	0.8	0.3	1044.64	1.04
313.15	0.8	0.4	1047.08	1.04
313.15	0.8	0.5	1049.48	1.04
313.15	0.8	0.6	1051.83	1.05
313.15	0.8	0.7	1054.14	1.05
323.15	0.8	0	1032.4	1.04
323.15	0.8	0.1	1034.94	1.04
323.15	0.8	0.2001	1037.44	1.04
323.15	0.8	0.3	1039.91	1.04
323.15	0.8	0.4	1042.35	1.04
323.15	0.8	0.5	1044.75	1.04
323.15	0.8	0.6	1047.12	1.05
323.15	0.8	0.7	1049.46	1.05
293.15	1	0	1054.54	1.04
293.15	1	0.1	1057.13	1.04
293.15	1	0.2	1059.65	1.04
293.15	1	0.3	1062.13	1.04
293.15	1	0.4	1064.53	1.05
293.15	1	0.5	1066.88	1.05
293.15	1	0.6	1069.19	1.05
293.15	1	0.7	1071.42	1.05
303.15	1	0	1051.08	1.04
303.15	1	0.1	1053.63	1.04
303.15	1	0.2	1056.13	1.04
303.15	1	0.3	1058.57	1.04
303.15	1	0.4	1060.96	1.05
303.15	1	0.5	1063.3	1.05
303.15	1	0.6	1065.6	1.05
303.15	1	0.7	1067.84	1.05
313.15	1	0	1046.99	1.04
313.15	1	0.1	1049.51	1.04
313.15	1	0.2	1051.97	1.04
313.15	1	0.3	1054.4	1.04
313.15	1	0.4	1056.77	1.04
313.15	1	0.5	1059.1	1.05
313.15	1	0.6	1061.39	1.05
313.15	1	0.7	1063.62	1.05
323.15	1	0	1042.26	1.04
323.15	1	0.1	1044.75	1.04
323.15	1	0.2	1047.19	1.04
323.15	1	0.3	1049.6	1.04
323.15	1	0.4	1051.97	1.04
323.15	1	0.5	1054.3	1.05
323.15	1	0.6	1056.6	1.05
323.15	1	0.7	1058.85	1.05

System: D-sorbitol + (S)-2-aminopropanoic acid + water; phases: Liquid
Fixed: Pressure, kPa = 101.3
Property: Viscosity, Pa*s (Liquid); method: Capillary tube (Ostwald; Ubbelohde) method
Temperature, K	Solvent: Molality, mol/kg of D-sorbitol	Molality, mol/kg of (S)-2-aminopropanoic acid	Viscosity, Pa*s	uncertainty
293.15	0.2	0	0.001099	4.5e-05
293.15	0.2	0.1	0.001122	4.6e-05
293.15	0.2	0.2	0.001148	4.7e-05
293.15	0.2	0.3	0.001174	4.8e-05
293.15	0.2	0.4	0.001203	4.9e-05
293.15	0.2	0.5	0.001233	5e-05
293.15	0.2	0.6	0.001264	5.2e-05
293.15	0.2	0.7	0.001297	5.3e-05
303.15	0.2	0	0.00087	3.5e-05
303.15	0.2	0.1	0.000887	3.6e-05
303.15	0.2	0.2	0.000906	3.7e-05
303.15	0.2	0.3	0.000925	3.8e-05
303.15	0.2	0.4	0.000947	3.9e-05
303.15	0.2	0.5	0.00097	4e-05
303.15	0.2	0.6	0.000995	4.1e-05
303.15	0.2	0.7	0.001021	4.2e-05
313.15	0.2	0	0.000708	2.9e-05
313.15	0.2	0.1	0.00072	2.9e-05
313.15	0.2	0.2	0.000735	3e-05
313.15	0.2	0.3	0.000751	3.1e-05
313.15	0.2	0.4	0.000767	3.1e-05
313.15	0.2	0.5	0.000786	3.2e-05
313.15	0.2	0.6	0.000805	3.3e-05
313.15	0.2	0.7	0.000824	3.4e-05
323.15	0.2	0	0.000588	2.4e-05
323.15	0.2	0.1	0.000598	2.4e-05
323.15	0.2	0.2	0.00061	2.5e-05
323.15	0.2	0.3	0.000622	2.5e-05
323.15	0.2	0.4	0.000636	2.6e-05
323.15	0.2	0.5	0.000649	2.6e-05
323.15	0.2	0.6	0.000664	2.7e-05
323.15	0.2	0.7	0.000681	2.8e-05
293.15	0.4	0	0.001203	4.9e-05
293.15	0.4	0.1	0.001231	5e-05
293.15	0.4	0.2	0.00126	5.1e-05
293.15	0.4	0.3	0.001291	5.3e-05
293.15	0.4	0.4	0.001325	5.4e-05
293.15	0.4	0.5	0.00136	5.5e-05
293.15	0.4	0.6	0.001396	5.7e-05
293.15	0.4	0.7	0.001436	5.9e-05
303.15	0.4	0	0.000944	3.8e-05
303.15	0.4	0.1	0.000965	3.9e-05
303.15	0.4	0.2	0.000987	4e-05
303.15	0.4	0.3	0.00101	4.1e-05
303.15	0.4	0.4	0.001035	4.2e-05
303.15	0.4	0.5	0.001063	4.3e-05
303.15	0.4	0.6	0.001093	4.5e-05
303.15	0.4	0.7	0.001122	4.6e-05
313.15	0.4	0	0.000766	3.1e-05
313.15	0.4	0.1	0.000781	3.2e-05
313.15	0.4	0.2	0.000799	3.3e-05
313.15	0.4	0.3	0.000817	3.3e-05
313.15	0.4	0.4	0.000836	3.4e-05
313.15	0.4	0.5	0.000858	3.5e-05
313.15	0.4	0.6	0.00088	3.6e-05
313.15	0.4	0.7	0.000904	3.7e-05
323.15	0.4	0	0.000634	2.6e-05
323.15	0.4	0.1	0.000645	2.6e-05
323.15	0.4	0.2	0.00066	2.7e-05
323.15	0.4	0.3	0.000674	2.8e-05
323.15	0.4	0.4	0.000689	2.8e-05
323.15	0.4	0.5	0.000706	2.9e-05
323.15	0.4	0.6	0.000722	2.9e-05
323.15	0.4	0.7	0.00074	3e-05
293.15	0.6	0	0.001319	5.4e-05
293.15	0.6	0.1	0.00135	5.5e-05
293.15	0.6	0.2	0.001384	5.6e-05
293.15	0.6	0.3	0.00142	5.8e-05
293.15	0.6	0.4	0.001459	5.9e-05
293.15	0.6	0.5	0.001501	6.1e-05
293.15	0.6	0.6	0.001544	6.3e-05
293.15	0.6	0.7	0.001586	6.5e-05
303.15	0.6	0	0.001034	4.2e-05
303.15	0.6	0.1	0.001057	4.3e-05
303.15	0.6	0.2	0.001082	4.4e-05
303.15	0.6	0.3	0.001109	4.5e-05
303.15	0.6	0.4	0.001139	4.6e-05
303.15	0.6	0.5	0.001169	4.8e-05
303.15	0.6	0.6	0.001201	4.9e-05
303.15	0.6	0.7	0.001232	5e-05
313.15	0.6	0	0.000829	3.4e-05
313.15	0.6	0.1	0.000847	3.5e-05
313.15	0.6	0.2	0.000867	3.5e-05
313.15	0.6	0.3	0.000887	3.6e-05
313.15	0.6	0.4	0.000909	3.7e-05
313.15	0.6	0.5	0.000932	3.8e-05
313.15	0.6	0.6	0.000957	3.9e-05
313.15	0.6	0.7	0.000982	4e-05
323.15	0.6	0	0.000686	2.8e-05
323.15	0.6	0.1	0.000699	2.9e-05
323.15	0.6	0.2	0.000714	2.9e-05
323.15	0.6	0.3	0.000731	3e-05
323.15	0.6	0.4	0.000747	3e-05
323.15	0.6	0.5	0.000765	3.1e-05
323.15	0.6	0.6	0.000784	3.2e-05
323.15	0.6	0.7	0.000803	3.3e-05
293.15	0.8	0	0.001453	5.9e-05
293.15	0.8	0.1	0.001491	6.1e-05
293.15	0.8	0.2001	0.001528	6.2e-05
293.15	0.8	0.3	0.001568	6.4e-05
293.15	0.8	0.4	0.001612	6.6e-05
293.15	0.8	0.5	0.001657	6.8e-05
293.15	0.8	0.6	0.001704	6.9e-05
293.15	0.8	0.7	0.001754	7.1e-05
303.15	0.8	0	0.001122	4.6e-05
303.15	0.8	0.1	0.001149	4.7e-05
303.15	0.8	0.2001	0.001178	4.8e-05
303.15	0.8	0.3	0.001208	4.9e-05
303.15	0.8	0.4	0.001241	5.1e-05
303.15	0.8	0.5	0.001276	5.2e-05
303.15	0.8	0.6	0.00131	5.3e-05
303.15	0.8	0.7	0.001347	5.5e-05
313.15	0.8	0	0.000903	3.7e-05
313.15	0.8	0.1	0.000923	3.8e-05
313.15	0.8	0.2001	0.000946	3.9e-05
313.15	0.8	0.3	0.000969	4e-05
313.15	0.8	0.4	0.000993	4e-05
313.15	0.8	0.5	0.001019	4.2e-05
313.15	0.8	0.6	0.001046	4.3e-05
313.15	0.8	0.7	0.001073	4.4e-05
323.15	0.8	0	0.000738	3e-05
323.15	0.8	0.1	0.000753	3.1e-05
323.15	0.8	0.2001	0.000771	3.1e-05
323.15	0.8	0.3	0.000789	3.2e-05
323.15	0.8	0.4	0.000808	3.3e-05
323.15	0.8	0.5	0.000828	3.4e-05
323.15	0.8	0.6	0.000849	3.5e-05
323.15	0.8	0.7	0.000871	3.6e-05
293.15	1	0	0.001592	6.5e-05
293.15	1	0.1	0.001634	6.7e-05
293.15	1	0.2	0.001678	6.8e-05
293.15	1	0.3	0.001724	7e-05
293.15	1	0.4	0.001773	7.2e-05
293.15	1	0.5	0.001823	7.4e-05
293.15	1	0.6	0.001878	7.7e-05
293.15	1	0.7	0.001934	7.9e-05
303.15	1	0	0.001233	5e-05
303.15	1	0.1	0.001264	5.2e-05
303.15	1	0.2	0.001296	5.3e-05
303.15	1	0.3	0.001328	5.4e-05
303.15	1	0.4	0.001365	5.6e-05
303.15	1	0.5	0.001401	5.7e-05
303.15	1	0.6	0.001438	5.9e-05
303.15	1	0.7	0.001478	6e-05
313.15	1	0	0.000977	4e-05
313.15	1	0.1	0.001	4.1e-05
313.15	1	0.2	0.001024	4.2e-05
313.15	1	0.3	0.00105	4.3e-05
313.15	1	0.4	0.001077	4.4e-05
313.15	1	0.5	0.001106	4.5e-05
313.15	1	0.6	0.001133	4.6e-05
313.15	1	0.7	0.001162	4.7e-05
323.15	1	0	0.000797	3.3e-05
323.15	1	0.1	0.000816	3.3e-05
323.15	1	0.2	0.000834	3.4e-05
323.15	1	0.3	0.000854	3.5e-05
323.15	1	0.4	0.000874	3.6e-05
323.15	1	0.5	0.000896	3.7e-05
323.15	1	0.6	0.000917	3.7e-05
323.15	1	0.7	0.00094	3.8e-05

System: D-sorbitol + L-valine + water; phases: Liquid
Fixed: Pressure, kPa = 101.3
Property: Mass density, kg/m3 (Liquid); method: Vibrating tube method
Temperature, K	Solvent: Molality, mol/kg of D-sorbitol	Molality, mol/kg of L-valine	Mass density, kg/m3	uncertainty
293.15	0.2	0	1010.61	1.03
293.15	0.2	0.1	1013.22	1.03
293.15	0.2	0.2	1015.76	1.03
293.15	0.2	0.3	1018.26	1.03
293.15	0.2	0.4	1020.69	1.04
303.15	0.2	0	1007.87	1.03
303.15	0.2	0.1	1010.43	1.03
303.15	0.2	0.2	1012.94	1.03
303.15	0.2	0.3	1015.39	1.03
303.15	0.2	0.4	1017.79	1.04
313.15	0.2	0	1004.3	1.03
313.15	0.2	0.1	1006.81	1.03
313.15	0.2	0.2	1009.28	1.03
313.15	0.2	0.3	1011.7	1.03
313.15	0.2	0.4	1014.07	1.04
323.15	0.2	0	999.96	1.03
323.15	0.2	0.1	1002.42	1.03
323.15	0.2	0.2	1004.83	1.03
323.15	0.2	0.3	1007.19	1.03
323.15	0.2	0.4	1009.5	1.03
293.15	0.4	0	1022.43	1.03
293.15	0.4	0.1	1024.95	1.03
293.15	0.4	0.2	1027.4	1.04
293.15	0.4	0.3	1029.79	1.04
293.15	0.4	0.4	1032.13	1.04
303.15	0.4	0	1019.5	1.03
303.15	0.4	0.1	1021.97	1.03
303.15	0.4	0.2	1024.39	1.03
303.15	0.4	0.3	1026.74	1.04
303.15	0.4	0.4	1029.03	1.04
313.15	0.4	0	1015.77	1.03
313.15	0.4	0.1	1018.2	1.03
313.15	0.4	0.2	1020.57	1.03
313.15	0.4	0.3	1022.9	1.04
313.15	0.4	0.4	1025.17	1.04
323.15	0.4	0	1011.33	1.03
323.15	0.4	0.1	1013.7	1.03
323.15	0.4	0.2	1016.03	1.03
323.15	0.4	0.3	1018.31	1.03
323.15	0.4	0.4	1020.54	1.04
293.15	0.6	0	1033.64	1.04
293.15	0.6	0.1	1036.06	1.04
293.15	0.6	0.2	1038.41	1.04
293.15	0.6	0.3	1040.68	1.04
293.15	0.6	0.4	1042.87	1.04
303.15	0.6	0	1030.53	1.04
303.15	0.6	0.1	1032.91	1.04
303.15	0.6	0.2	1035.21	1.04
303.15	0.6	0.3	1037.44	1.04
303.15	0.6	0.4	1039.59	1.04
313.15	0.6	0	1026.67	1.03
313.15	0.6	0.1	1029.01	1.04
313.15	0.6	0.2	1031.28	1.04
313.15	0.6	0.3	1033.49	1.04
313.15	0.6	0.4	1035.65	1.04
323.15	0.6	0	1022.12	1.03
323.15	0.6	0.1	1024.41	1.03
323.15	0.6	0.2	1026.65	1.04
323.15	0.6	0.3	1028.84	1.04
323.15	0.6	0.4	1030.99	1.04
293.15	0.8	0	1044.32	1.04
293.15	0.8	0.1	1046.67	1.04
293.15	0.8	0.2	1048.95	1.04
293.15	0.8	0.3	1051.17	1.04
293.15	0.8	0.4	1053.32	1.04
303.15	0.8	0	1041.07	1.04
303.15	0.8	0.1	1043.37	1.04
303.15	0.8	0.2	1045.61	1.04
303.15	0.8	0.3	1047.78	1.04
303.15	0.8	0.4	1049.9	1.04
313.15	0.8	0	1037.06	1.04
313.15	0.8	0.1	1039.32	1.04
313.15	0.8	0.2	1041.52	1.04
313.15	0.8	0.3	1043.68	1.04
313.15	0.8	0.4	1045.77	1.04
323.15	0.8	0	1032.4	1.04
323.15	0.8	0.1	1034.61	1.04
323.15	0.8	0.2	1036.77	1.04
323.15	0.8	0.3	1038.88	1.04
323.15	0.8	0.4	1040.95	1.04
293.15	1	0	1054.54	1.04
293.15	1	0.1	1056.79	1.04
293.15	1	0.2	1058.98	1.04
293.15	1	0.3	1061.1	1.04
293.15	1	0.4	1063.18	1.05
303.15	1	0	1051.08	1.04
303.15	1	0.1	1053.29	1.04
303.15	1	0.2	1055.44	1.04
303.15	1	0.3	1057.53	1.04
303.15	1	0.4	1059.58	1.04
313.15	1	0	1046.99	1.04
313.15	1	0.1	1049.16	1.04
313.15	1	0.2	1051.27	1.04
313.15	1	0.3	1053.34	1.04
313.15	1	0.4	1055.35	1.04
323.15	1	0	1042.26	1.04
323.15	1	0.1	1044.38	1.04
323.15	1	0.2	1046.46	1.04
323.15	1	0.3	1048.49	1.04
323.15	1	0.4	1050.49	1.04

System: D-sorbitol + L-valine + water; phases: Liquid
Fixed: Pressure, kPa = 101.3
Property: Viscosity, Pa*s (Liquid); method: Capillary tube (Ostwald; Ubbelohde) method
Temperature, K	Solvent: Molality, mol/kg of D-sorbitol	Molality, mol/kg of L-valine	Viscosity, Pa*s	uncertainty
293.15	0.2	0	0.001099	4.5e-05
293.15	0.2	0.1	0.001145	4.7e-05
293.15	0.2	0.2	0.001195	4.9e-05
293.15	0.2	0.3	0.001246	5.1e-05
293.15	0.2	0.4	0.001299	5.3e-05
303.15	0.2	0	0.00087	3.5e-05
303.15	0.2	0.1	0.000906	3.7e-05
303.15	0.2	0.2	0.000943	3.8e-05
303.15	0.2	0.3	0.00098	4e-05
303.15	0.2	0.4	0.001018	4.2e-05
313.15	0.2	0	0.000708	2.9e-05
313.15	0.2	0.1	0.000736	3e-05
313.15	0.2	0.2	0.000764	3.1e-05
313.15	0.2	0.3	0.000793	3.2e-05
313.15	0.2	0.4	0.000822	3.4e-05
323.15	0.2	0	0.000588	2.4e-05
323.15	0.2	0.1	0.00061	2.5e-05
323.15	0.2	0.2	0.000633	2.6e-05
323.15	0.2	0.3	0.000654	2.7e-05
323.15	0.2	0.4	0.000678	2.8e-05
293.15	0.4	0	0.001203	4.9e-05
293.15	0.4	0.1	0.001256	5.1e-05
293.15	0.4	0.2	0.001315	5.4e-05
293.15	0.4	0.3	0.001374	5.6e-05
293.15	0.4	0.4	0.001435	5.8e-05
303.15	0.4	0	0.000944	3.8e-05
303.15	0.4	0.1	0.000984	4e-05
303.15	0.4	0.2	0.001027	4.2e-05
303.15	0.4	0.3	0.00107	4.4e-05
303.15	0.4	0.4	0.001114	4.5e-05
313.15	0.4	0	0.000766	3.1e-05
313.15	0.4	0.1	0.000797	3.3e-05
313.15	0.4	0.2	0.000829	3.4e-05
313.15	0.4	0.3	0.000861	3.5e-05
313.15	0.4	0.4	0.000892	3.6e-05
323.15	0.4	0	0.000634	2.6e-05
323.15	0.4	0.1	0.000658	2.7e-05
323.15	0.4	0.2	0.000682	2.8e-05
323.15	0.4	0.3	0.000706	2.9e-05
323.15	0.4	0.4	0.000729	3e-05
293.15	0.6	0	0.001319	5.4e-05
293.15	0.6	0.1	0.00138	5.6e-05
293.15	0.6	0.2	0.001443	5.9e-05
293.15	0.6	0.3	0.001511	6.2e-05
293.15	0.6	0.4	0.001574	6.4e-05
303.15	0.6	0	0.001034	4.2e-05
303.15	0.6	0.1	0.00108	4.4e-05
303.15	0.6	0.2	0.001127	4.6e-05
303.15	0.6	0.3	0.001174	4.8e-05
303.15	0.6	0.4	0.001222	5e-05
313.15	0.6	0	0.000829	3.4e-05
313.15	0.6	0.1	0.000864	3.5e-05
313.15	0.6	0.2	0.0009	3.7e-05
313.15	0.6	0.3	0.000937	3.8e-05
313.15	0.6	0.4	0.000973	4e-05
323.15	0.6	0	0.000686	2.8e-05
323.15	0.6	0.1	0.000713	2.9e-05
323.15	0.6	0.2	0.000741	3e-05
323.15	0.6	0.3	0.000768	3.1e-05
323.15	0.6	0.4	0.000796	3.2e-05
293.15	0.8	0	0.001453	5.9e-05
293.15	0.8	0.1	0.001523	6.2e-05
293.15	0.8	0.2	0.001597	6.5e-05
293.15	0.8	0.3	0.001672	6.8e-05
293.15	0.8	0.4	0.001748	7.1e-05
303.15	0.8	0	0.001122	4.6e-05
303.15	0.8	0.1	0.001174	4.8e-05
303.15	0.8	0.2	0.001228	5e-05
303.15	0.8	0.3	0.001284	5.2e-05
303.15	0.8	0.4	0.001339	5.5e-05
313.15	0.8	0	0.000903	3.7e-05
313.15	0.8	0.1	0.000942	3.8e-05
313.15	0.8	0.2	0.000982	4e-05
313.15	0.8	0.3	0.001022	4.2e-05
313.15	0.8	0.4	0.001062	4.3e-05
323.15	0.8	0	0.000738	3e-05
323.15	0.8	0.1	0.000768	3.1e-05
323.15	0.8	0.2	0.0008	3.3e-05
323.15	0.8	0.3	0.00083	3.4e-05
323.15	0.8	0.4	0.000861	3.5e-05
293.15	1	0	0.001592	6.5e-05
293.15	1	0.1	0.001673	6.8e-05
293.15	1	0.2	0.001755	7.2e-05
293.15	1	0.3	0.001842	7.5e-05
293.15	1	0.4	0.001929	7.9e-05
303.15	1	0	0.001233	5e-05
303.15	1	0.1	0.001291	5.3e-05
303.15	1	0.2	0.001352	5.5e-05
303.15	1	0.3	0.001415	5.8e-05
303.15	1	0.4	0.001476	6e-05
313.15	1	0	0.000977	4e-05
313.15	1	0.1	0.001021	4.2e-05
313.15	1	0.2	0.001067	4.3e-05
313.15	1	0.3	0.001113	4.5e-05
313.15	1	0.4	0.001159	4.7e-05
323.15	1	0	0.000797	3.3e-05
323.15	1	0.1	0.000831	3.4e-05
323.15	1	0.2	0.000866	3.5e-05
323.15	1	0.3	0.0009	3.7e-05
323.15	1	0.4	0.000935	3.8e-05

System: D-sorbitol + L-threonine + water; phases: Liquid
Fixed: Pressure, kPa = 101.3
Property: Mass density, kg/m3 (Liquid); method: Vibrating tube method
Temperature, K	Solvent: Molality, mol/kg of D-sorbitol	Molality, mol/kg of L-threonine	Mass density, kg/m3	uncertainty
293.15	0.2	0	1010.61	1.03
293.15	0.2	0.1	1014.76	1.03
293.15	0.2	0.2	1018.82	1.03
293.15	0.2	0.3	1022.81	1.04
293.15	0.2	0.4	1026.72	1.04
293.15	0.2	0.5	1030.55	1.04
293.15	0.2	0.6	1034.31	1.04
293.15	0.2	0.7	1037.99	1.05
303.15	0.2	0	1007.87	1.03
303.15	0.2	0.1	1011.96	1.03
303.15	0.2	0.2	1015.96	1.03
303.15	0.2	0.3	1019.89	1.04
303.15	0.2	0.4	1023.74	1.04
303.15	0.2	0.5	1027.52	1.04
303.15	0.2	0.6	1031.22	1.04
303.15	0.2	0.7	1034.85	1.05
313.15	0.2	0	1004.3	1.03
313.15	0.2	0.1	1008.33	1.03
313.15	0.2	0.2	1012.29	1.03
313.15	0.2	0.3	1016.17	1.03
313.15	0.2	0.4	1019.99	1.04
313.15	0.2	0.5	1023.72	1.04
313.15	0.2	0.6	1027.39	1.04
313.15	0.2	0.7	1030.99	1.05
323.15	0.2	0	999.96	1.03
323.15	0.2	0.1	1003.94	1.03
323.15	0.2	0.2	1007.85	1.03
323.15	0.2	0.3	1011.71	1.03
323.15	0.2	0.4	1015.5	1.04
323.15	0.2	0.5	1019.23	1.04
323.15	0.2	0.6	1022.89	1.04
323.15	0.2	0.7	1026.49	1.04
293.15	0.4	0	1022.43	1.03
293.15	0.4	0.1	1026.48	1.03
293.15	0.4	0.2	1030.45	1.04
293.15	0.4	0.3	1034.35	1.04
293.15	0.4	0.4	1038.18	1.04
293.15	0.4	0.5	1041.95	1.04
293.15	0.4	0.6	1045.65	1.05
293.15	0.4	0.7	1049.27	1.05
303.15	0.4	0	1019.5	1.03
303.15	0.4	0.1	1023.49	1.03
303.15	0.4	0.2	1027.41	1.04
303.15	0.4	0.3	1031.25	1.04
303.15	0.4	0.4	1035.03	1.04
303.15	0.4	0.5	1038.75	1.04
303.15	0.4	0.6	1042.39	1.05
303.15	0.4	0.7	1045.97	1.05
313.15	0.4	0	1015.77	1.03
313.15	0.4	0.1	1019.71	1.03
313.15	0.4	0.2	1023.58	1.03
313.15	0.4	0.3	1027.38	1.04
313.15	0.4	0.4	1031.12	1.04
313.15	0.4	0.5	1034.8	1.04
313.15	0.4	0.6	1038.41	1.04
313.15	0.4	0.7	1041.95	1.05
323.15	0.4	0	1011.33	1.03
323.15	0.4	0.1	1015.21	1.03
323.15	0.4	0.2	1019.02	1.03
323.15	0.4	0.3	1022.78	1.04
323.15	0.4	0.4	1026.47	1.04
323.15	0.4	0.5	1030.1	1.04
323.15	0.4	0.6	1033.68	1.04
323.15	0.4	0.7	1037.2	1.05
293.15	0.6	0	1033.64	1.04
293.15	0.6	0.1	1037.61	1.04
293.15	0.6	0.2	1041.5	1.04
293.15	0.6	0.3	1045.32	1.04
293.15	0.6	0.4	1049.06	1.04
293.15	0.6	0.5	1052.73	1.05
293.15	0.6	0.6	1056.33	1.05
293.15	0.6	0.7	1059.86	1.05
303.15	0.6	0	1030.53	1.04
303.15	0.6	0.1	1034.44	1.04
303.15	0.6	0.2	1038.28	1.04
303.15	0.6	0.3	1042.05	1.04
303.15	0.6	0.4	1045.74	1.04
303.15	0.6	0.5	1049.36	1.04
303.15	0.6	0.6	1052.92	1.05
303.15	0.6	0.7	1056.4	1.05
313.15	0.6	0	1026.67	1.03
313.15	0.6	0.1	1030.54	1.04
313.15	0.6	0.2	1034.34	1.04
313.15	0.6	0.3	1038.07	1.04
313.15	0.6	0.4	1041.74	1.04
313.15	0.6	0.5	1045.34	1.04
313.15	0.6	0.6	1048.88	1.05
313.15	0.6	0.7	1052.37	1.05
323.15	0.6	0	1022.12	1.03
323.15	0.6	0.1	1025.93	1.03
323.15	0.6	0.2	1029.68	1.04
323.15	0.6	0.3	1033.36	1.04
323.15	0.6	0.4	1036.97	1.04
323.15	0.6	0.5	1040.53	1.04
323.15	0.6	0.6	1044.03	1.05
323.15	0.6	0.7	1047.47	1.05
293.15	0.8	0	1044.32	1.04
293.15	0.8	0.1	1048.24	1.04
293.15	0.8	0.2	1052.07	1.04
293.15	0.8	0.3	1055.84	1.04
293.15	0.8	0.4	1059.54	1.04
293.15	0.8	0.4999	1063.16	1.05
293.15	0.8	0.6	1066.73	1.05
293.15	0.8	0.7	1070.22	1.05
303.15	0.8	0	1041.07	1.04
303.15	0.8	0.1	1044.93	1.04
303.15	0.8	0.2	1048.72	1.04
303.15	0.8	0.3	1052.43	1.04
303.15	0.8	0.4	1056.08	1.04
303.15	0.8	0.4999	1059.66	1.05
303.15	0.8	0.6	1063.18	1.05
303.15	0.8	0.7	1066.62	1.05
313.15	0.8	0	1037.06	1.04
313.15	0.8	0.1	1040.87	1.04
313.15	0.8	0.2	1044.62	1.04
313.15	0.8	0.3	1048.3	1.04
313.15	0.8	0.4	1051.92	1.04
313.15	0.8	0.4999	1055.48	1.05
313.15	0.8	0.6	1058.98	1.05
313.15	0.8	0.7	1062.43	1.05
323.15	0.8	0	1032.4	1.04
323.15	0.8	0.1	1036.16	1.04
323.15	0.8	0.2	1039.85	1.04
323.15	0.8	0.3	1043.49	1.04
323.15	0.8	0.4	1047.06	1.04
323.15	0.8	0.4999	1050.57	1.04
323.15	0.8	0.6	1054.03	1.05
323.15	0.8	0.7	1057.44	1.05
293.15	1	0	1054.54	1.04
293.15	1	0.1	1058.38	1.04
293.15	1	0.2	1062.14	1.04
293.15	1	0.3	1065.83	1.04
293.15	1	0.4	1069.45	1.05
293.15	1	0.5	1073.01	1.05
293.15	1	0.6	1076.5	1.05
293.15	1	0.7	1079.92	1.06
303.15	1	0	1051.08	1.04
303.15	1	0.1	1054.86	1.04
303.15	1	0.2	1058.58	1.04
303.15	1	0.3	1062.23	1.04
303.15	1	0.4	1065.81	1.05
303.15	1	0.5	1069.33	1.05
303.15	1	0.6	1072.8	1.05
303.15	1	0.7	1076.2	1.06
313.15	1	0	1046.99	1.04
313.15	1	0.1	1050.72	1.04
313.15	1	0.2	1054.39	1.04
313.15	1	0.3	1057.98	1.04
313.15	1	0.4	1061.52	1.05
313.15	1	0.5	1064.99	1.05
313.15	1	0.6	1068.4	1.05
313.15	1	0.7	1071.76	1.05
323.15	1	0	1042.26	1.04
323.15	1	0.1	1045.94	1.04
323.15	1	0.2	1049.56	1.04
323.15	1	0.3	1053.11	1.04
323.15	1	0.4	1056.59	1.04
323.15	1	0.5	1060.02	1.05
323.15	1	0.6	1063.4	1.05
323.15	1	0.7	1066.72	1.05

System: D-sorbitol + L-threonine + water; phases: Liquid
Fixed: Pressure, kPa = 101.3
Property: Viscosity, Pa*s (Liquid); method: Capillary tube (Ostwald; Ubbelohde) method
Temperature, K	Solvent: Molality, mol/kg of D-sorbitol	Molality, mol/kg of L-threonine	Viscosity, Pa*s	uncertainty
293.15	0.2	0	0.001099	4.5e-05
293.15	0.2	0.1	0.001135	4.6e-05
293.15	0.2	0.2	0.001175	4.8e-05
293.15	0.2	0.3	0.001217	5e-05
293.15	0.2	0.4	0.00126	5.1e-05
293.15	0.2	0.5	0.001305	5.3e-05
293.15	0.2	0.6	0.001351	5.5e-05
293.15	0.2	0.7	0.0014	5.7e-05
303.15	0.2	0	0.00087	3.5e-05
303.15	0.2	0.1	0.000898	3.7e-05
303.15	0.2	0.2	0.000927	3.8e-05
303.15	0.2	0.3	0.000957	3.9e-05
303.15	0.2	0.4	0.000989	4e-05
303.15	0.2	0.5	0.001023	4.2e-05
303.15	0.2	0.6	0.001058	4.3e-05
303.15	0.2	0.7	0.001093	4.5e-05
313.15	0.2	0	0.000708	2.9e-05
313.15	0.2	0.1	0.00073	3e-05
313.15	0.2	0.2	0.000752	3.1e-05
313.15	0.2	0.3	0.000776	3.2e-05
313.15	0.2	0.4	0.000801	3.3e-05
313.15	0.2	0.5	0.000826	3.4e-05
313.15	0.2	0.6	0.000853	3.5e-05
313.15	0.2	0.7	0.00088	3.6e-05
323.15	0.2	0	0.000588	2.4e-05
323.15	0.2	0.1	0.000606	2.5e-05
323.15	0.2	0.2	0.000623	2.5e-05
323.15	0.2	0.3	0.000642	2.6e-05
323.15	0.2	0.4	0.000661	2.7e-05
323.15	0.2	0.5	0.000681	2.8e-05
323.15	0.2	0.6	0.000702	2.9e-05
323.15	0.2	0.7	0.000723	3e-05
293.15	0.4	0	0.001203	4.9e-05
293.15	0.4	0.1	0.001249	5.1e-05
293.15	0.4	0.2	0.001296	5.3e-05
293.15	0.4	0.3	0.001344	5.5e-05
293.15	0.4	0.4	0.001394	5.7e-05
293.15	0.4	0.5	0.001446	5.9e-05
293.15	0.4	0.6	0.001499	6.1e-05
293.15	0.4	0.7	0.001555	6.3e-05
303.15	0.4	0	0.000944	3.8e-05
303.15	0.4	0.1	0.000978	4e-05
303.15	0.4	0.2	0.001014	4.1e-05
303.15	0.4	0.3	0.001051	4.3e-05
303.15	0.4	0.4	0.001086	4.4e-05
303.15	0.4	0.5	0.001126	4.6e-05
303.15	0.4	0.6	0.001165	4.7e-05
303.15	0.4	0.7	0.001205	4.9e-05
313.15	0.4	0	0.000766	3.1e-05
313.15	0.4	0.1	0.000792	3.2e-05
313.15	0.4	0.2	0.00082	3.3e-05
313.15	0.4	0.3	0.000847	3.5e-05
313.15	0.4	0.4	0.000874	3.6e-05
313.15	0.4	0.5	0.000904	3.7e-05
313.15	0.4	0.6	0.000933	3.8e-05
313.15	0.4	0.7	0.000963	3.9e-05
323.15	0.4	0	0.000634	2.6e-05
323.15	0.4	0.1	0.000654	2.7e-05
323.15	0.4	0.2	0.000676	2.8e-05
323.15	0.4	0.3	0.000698	2.8e-05
323.15	0.4	0.4	0.00072	2.9e-05
323.15	0.4	0.5	0.000743	3e-05
323.15	0.4	0.6	0.000766	3.1e-05
323.15	0.4	0.7	0.000789	3.2e-05
293.15	0.6	0	0.001319	5.4e-05
293.15	0.6	0.1	0.001371	5.6e-05
293.15	0.6	0.2	0.001424	5.8e-05
293.15	0.6	0.3	0.001481	6e-05
293.15	0.6	0.4	0.001539	6.3e-05
293.15	0.6	0.5	0.001601	6.5e-05
293.15	0.6	0.6	0.001664	6.8e-05
293.15	0.6	0.7	0.001727	7e-05
303.15	0.6	0	0.001034	4.2e-05
303.15	0.6	0.1	0.001072	4.4e-05
303.15	0.6	0.2	0.001112	4.5e-05
303.15	0.6	0.3	0.001157	4.7e-05
303.15	0.6	0.4	0.001196	4.9e-05
303.15	0.6	0.5	0.001241	5.1e-05
303.15	0.6	0.6	0.001286	5.2e-05
303.15	0.6	0.7	0.001332	5.4e-05
313.15	0.6	0	0.000829	3.4e-05
313.15	0.6	0.1	0.000858	3.5e-05
313.15	0.6	0.2	0.000888	3.6e-05
313.15	0.6	0.3	0.000922	3.8e-05
313.15	0.6	0.4	0.000954	3.9e-05
313.15	0.6	0.5	0.000986	4e-05
313.15	0.6	0.6	0.001021	4.2e-05
313.15	0.6	0.7	0.001055	4.3e-05
323.15	0.6	0	0.000686	2.8e-05
323.15	0.6	0.1	0.000709	2.9e-05
323.15	0.6	0.2	0.000733	3e-05
323.15	0.6	0.3	0.000758	3.1e-05
323.15	0.6	0.4	0.000783	3.2e-05
323.15	0.6	0.5	0.000809	3.3e-05
323.15	0.6	0.6	0.000835	3.4e-05
323.15	0.6	0.7	0.00086	3.5e-05
293.15	0.8	0	0.001453	5.9e-05
293.15	0.8	0.1	0.001513	6.2e-05
293.15	0.8	0.2	0.001572	6.4e-05
293.15	0.8	0.3	0.001637	6.7e-05
293.15	0.8	0.4	0.001701	6.9e-05
293.15	0.8	0.4999	0.001768	7.2e-05
293.15	0.8	0.6	0.001836	7.5e-05
293.15	0.8	0.7	0.001907	7.8e-05
303.15	0.8	0	0.001122	4.6e-05
303.15	0.8	0.1	0.001164	4.7e-05
303.15	0.8	0.2	0.00121	4.9e-05
303.15	0.8	0.3	0.001257	5.1e-05
303.15	0.8	0.4	0.001306	5.3e-05
303.15	0.8	0.4999	0.001355	5.5e-05
303.15	0.8	0.6	0.001406	5.7e-05
303.15	0.8	0.7	0.001456	5.9e-05
313.15	0.8	0	0.000903	3.7e-05
313.15	0.8	0.1	0.000934	3.8e-05
313.15	0.8	0.2	0.00097	4e-05
313.15	0.8	0.3	0.001006	4.1e-05
313.15	0.8	0.4	0.001044	4.3e-05
313.15	0.8	0.4999	0.00108	4.4e-05
313.15	0.8	0.6	0.001116	4.5e-05
313.15	0.8	0.7	0.001154	4.7e-05
323.15	0.8	0	0.000738	3e-05
323.15	0.8	0.1	0.000762	3.1e-05
323.15	0.8	0.2	0.000791	3.2e-05
323.15	0.8	0.3	0.000818	3.3e-05
323.15	0.8	0.4	0.000847	3.5e-05
323.15	0.8	0.4999	0.000876	3.6e-05
323.15	0.8	0.6	0.000903	3.7e-05
323.15	0.8	0.7	0.000933	3.8e-05
293.15	1	0	0.001592	6.5e-05
293.15	1	0.1	0.001662	6.8e-05
293.15	1	0.2	0.001733	7.1e-05
293.15	1	0.3	0.0018	7.3e-05
293.15	1	0.4	0.001874	7.6e-05
293.15	1	0.5	0.001952	8e-05
293.15	1	0.6	0.002028	8.3e-05
293.15	1	0.7	0.002114	8.6e-05
303.15	1	0	0.001233	5e-05
303.15	1	0.1	0.001284	5.2e-05
303.15	1	0.2	0.001334	5.4e-05
303.15	1	0.3	0.001383	5.6e-05
303.15	1	0.4	0.001437	5.9e-05
303.15	1	0.5	0.00149	6.1e-05
303.15	1	0.6	0.001546	6.3e-05
303.15	1	0.7	0.001602	6.5e-05
313.15	1	0	0.000977	4e-05
313.15	1	0.1	0.001015	4.1e-05
313.15	1	0.2	0.001054	4.3e-05
313.15	1	0.3	0.001091	4.4e-05
313.15	1	0.4	0.001131	4.6e-05
313.15	1	0.5	0.00117	4.8e-05
313.15	1	0.6	0.001212	4.9e-05
313.15	1	0.7	0.001256	5.1e-05
323.15	1	0	0.000797	3.3e-05
323.15	1	0.1	0.000826	3.4e-05
323.15	1	0.2	0.000857	3.5e-05
323.15	1	0.3	0.000887	3.6e-05
323.15	1	0.4	0.000917	3.7e-05
323.15	1	0.5	0.000947	3.9e-05
323.15	1	0.6	0.00098	4e-05
323.15	1	0.7	0.001012	4.1e-05

System: D-sorbitol + L-arginine + water; phases: Liquid
Fixed: Pressure, kPa = 101.3
Property: Mass density, kg/m3 (Liquid); method: Vibrating tube method
Temperature, K	Solvent: Molality, mol/kg of D-sorbitol	Molality, mol/kg of L-arginine	Mass density, kg/m3	uncertainty
293.15	0.2	0	1010.61	1.08
293.15	0.2	0.1	1015.44	1.08
293.15	0.2	0.2	1020.12	1.08
293.15	0.2	0.3	1024.68	1.09
293.15	0.2	0.4	1029.1	1.1
293.15	0.2	0.5	1033.4	1.11
293.15	0.2	0.6	1037.57	1.12
293.15	0.2	0.7	1041.62	1.13
303.15	0.2	0	1007.87	1.08
303.15	0.2	0.1	1012.64	1.08
303.15	0.2	0.2	1017.28	1.08
303.15	0.2	0.3	1021.78	1.09
303.15	0.2	0.4	1026.16	1.1
303.15	0.2	0.5	1030.4	1.11
303.15	0.2	0.6	1034.53	1.12
303.15	0.2	0.7	1038.54	1.13
313.15	0.2	0	1004.3	1.08
313.15	0.2	0.1	1009.02	1.08
313.15	0.2	0.2	1013.61	1.08
313.15	0.2	0.3	1018.06	1.09
313.15	0.2	0.4	1022.39	1.1
313.15	0.2	0.5	1026.6	1.1
313.15	0.2	0.6	1030.68	1.11
313.15	0.2	0.7	1034.63	1.13
323.15	0.2	0	999.96	1.07
323.15	0.2	0.1	1004.64	1.08
323.15	0.2	0.2	1009.19	1.08
323.15	0.2	0.3	1013.6	1.09
323.15	0.2	0.4	1017.9	1.09
323.15	0.2	0.5	1022.08	1.1
323.15	0.2	0.6	1026.14	1.11
323.15	0.2	0.7	1030.08	1.12
293.15	0.4	0	1022.43	1.08
293.15	0.4	0.1	1027.13	1.09
293.15	0.4	0.2	1031.69	1.09
293.15	0.4	0.3	1036.11	1.1
293.15	0.4	0.4	1040.39	1.1
293.15	0.4	0.5	1044.53	1.11
293.15	0.4	0.6	1048.55	1.12
293.15	0.4	0.6999	1052.44	1.13
303.15	0.4	0	1019.5	1.08
303.15	0.4	0.1	1024.15	1.08
303.15	0.4	0.2	1028.66	1.09
303.15	0.4	0.3	1033.03	1.09
303.15	0.4	0.4	1037.26	1.1
303.15	0.4	0.5	1041.36	1.11
303.15	0.4	0.6	1045.33	1.12
303.15	0.4	0.6999	1049.19	1.13
313.15	0.4	0	1015.77	1.08
313.15	0.4	0.1	1020.37	1.08
313.15	0.4	0.2	1024.83	1.09
313.15	0.4	0.3	1029.14	1.09
313.15	0.4	0.4	1033.33	1.1
313.15	0.4	0.5	1037.38	1.11
313.15	0.4	0.6	1041.31	1.12
313.15	0.4	0.6999	1045.13	1.13
323.15	0.4	0	1011.33	1.08
323.15	0.4	0.1	1015.89	1.08
323.15	0.4	0.2	1020.32	1.09
323.15	0.4	0.3	1024.61	1.09
323.15	0.4	0.4	1028.79	1.1
323.15	0.4	0.5	1032.8	1.11
323.15	0.4	0.6	1036.72	1.12
323.15	0.4	0.6999	1040.55	1.13
293.15	0.6	0	1033.64	1.09
293.15	0.6	0.1	1038.23	1.09
293.15	0.6	0.2	1042.68	1.09
293.15	0.6	0.3	1046.99	1.1
293.15	0.6	0.4	1051.16	1.11
293.15	0.6	0.5	1055.2	1.12
293.15	0.6	0.6	1059.12	1.13
293.15	0.6	0.7	1062.9	1.14
303.15	0.6	0	1030.53	1.09
303.15	0.6	0.1	1035.08	1.09
303.15	0.6	0.2	1039.48	1.09
303.15	0.6	0.3	1043.75	1.1
303.15	0.6	0.4	1047.88	1.11
303.15	0.6	0.5	1051.87	1.12
303.15	0.6	0.6	1055.75	1.13
303.15	0.6	0.7	1059.51	1.14
313.15	0.6	0	1026.67	1.08
313.15	0.6	0.1	1031.17	1.09
313.15	0.6	0.2	1035.52	1.09
313.15	0.6	0.3	1039.73	1.1
313.15	0.6	0.4	1043.83	1.1
313.15	0.6	0.5	1047.78	1.11
313.15	0.6	0.6	1051.61	1.12
313.15	0.6	0.7	1055.35	1.14
323.15	0.6	0	1022.12	1.08
323.15	0.6	0.1	1026.59	1.09
323.15	0.6	0.2	1030.92	1.09
323.15	0.6	0.3	1035.11	1.1
323.15	0.6	0.4	1039.18	1.1
323.15	0.6	0.5	1043.13	1.11
323.15	0.6	0.6	1046.95	1.12
323.15	0.6	0.7	1050.68	1.13
293.15	0.8	0	1044.32	1.09
293.15	0.8	0.1	1048.81	1.1
293.15	0.8	0.2	1053.15	1.1
293.15	0.8	0.3	1057.35	1.11
293.15	0.8	0.4	1061.41	1.11
293.15	0.8	0.5	1065.34	1.12
293.15	0.8	0.6	1069.14	1.13
293.15	0.8	0.7	1072.82	1.15
303.15	0.8	0	1041.07	1.09
303.15	0.8	0.1	1045.51	1.09
303.15	0.8	0.2	1049.81	1.1
303.15	0.8	0.3	1053.96	1.1
303.15	0.8	0.4	1057.97	1.11
303.15	0.8	0.5	1061.86	1.12
303.15	0.8	0.6	1065.63	1.13
303.15	0.8	0.7	1069.26	1.14
313.15	0.8	0	1037.06	1.09
313.15	0.8	0.1	1041.46	1.09
313.15	0.8	0.2	1045.72	1.1
313.15	0.8	0.3	1049.83	1.1
313.15	0.8	0.4	1053.81	1.11
313.15	0.8	0.5	1057.66	1.12
313.15	0.8	0.6	1061.4	1.13
313.15	0.8	0.7	1065.03	1.14
323.15	0.8	0	1032.4	1.09
323.15	0.8	0.1	1036.76	1.09
323.15	0.8	0.2	1040.99	1.09
323.15	0.8	0.3	1045.09	1.1
323.15	0.8	0.4	1049.04	1.11
323.15	0.8	0.5	1052.9	1.12
323.15	0.8	0.6	1056.62	1.13
323.15	0.8	0.7	1060.25	1.14
293.15	1	0	1054.54	1.1
293.15	1	0.1	1058.91	1.1
293.15	1	0.2	1063.13	1.1
293.15	1	0.3	1067.22	1.11
293.15	1	0.4	1071.16	1.12
293.15	1	0.5	1074.98	1.13
293.15	1	0.5999	1078.67	1.14
293.15	1	0.7	1082.24	1.15
303.15	1	0	1051.08	1.1
303.15	1	0.1	1055.41	1.1
303.15	1	0.2	1059.6	1.1
303.15	1	0.3	1063.64	1.11
303.15	1	0.4	1067.55	1.12
303.15	1	0.5	1071.33	1.13
303.15	1	0.5999	1074.98	1.14
303.15	1	0.7	1078.53	1.15
313.15	1	0	1046.99	1.09
313.15	1	0.1	1051.27	1.1
313.15	1	0.2	1055.42	1.1
313.15	1	0.3	1059.42	1.11
313.15	1	0.4	1063.3	1.11
313.15	1	0.5	1067.05	1.12
313.15	1	0.5999	1070.68	1.13
313.15	1	0.7	1074.18	1.15
323.15	1	0	1042.26	1.09
323.15	1	0.1	1046.51	1.09
323.15	1	0.2	1050.63	1.1
323.15	1	0.3	1054.61	1.1
323.15	1	0.4	1058.46	1.11
323.15	1	0.5	1062.19	1.12
323.15	1	0.5999	1065.81	1.13
323.15	1	0.7	1069.32	1.14

System: D-sorbitol + L-arginine + water; phases: Liquid
Fixed: Pressure, kPa = 101.3
Property: Viscosity, Pa*s (Liquid); method: Capillary tube (Ostwald; Ubbelohde) method
Temperature, K	Solvent: Molality, mol/kg of D-sorbitol	Molality, mol/kg of L-arginine	Viscosity, Pa*s	uncertainty
293.15	0.2	0	0.001099	4.5e-05
293.15	0.2	0.1	0.001158	4.7e-05
293.15	0.2	0.2	0.001222	5e-05
293.15	0.2	0.3	0.001291	5.3e-05
293.15	0.2	0.4	0.001363	5.6e-05
293.15	0.2	0.5	0.00144	5.9e-05
293.15	0.2	0.6	0.001523	6.2e-05
293.15	0.2	0.7	0.001611	6.6e-05
303.15	0.2	0	0.00087	3.6e-05
303.15	0.2	0.1	0.000915	3.8e-05
303.15	0.2	0.2	0.000963	4e-05
303.15	0.2	0.3	0.001015	4.2e-05
303.15	0.2	0.4	0.001068	4.4e-05
303.15	0.2	0.5	0.001126	4.6e-05
303.15	0.2	0.6	0.001187	4.9e-05
303.15	0.2	0.7	0.001253	5.1e-05
313.15	0.2	0	0.000708	2.9e-05
313.15	0.2	0.1	0.000743	3.1e-05
313.15	0.2	0.2	0.000781	3.2e-05
313.15	0.2	0.3	0.000821	3.4e-05
313.15	0.2	0.4	0.000862	3.5e-05
313.15	0.2	0.5	0.000904	3.7e-05
313.15	0.2	0.6	0.000953	3.9e-05
313.15	0.2	0.7	0.001003	4.1e-05
323.15	0.2	0	0.000588	2.4e-05
323.15	0.2	0.1	0.000615	2.5e-05
323.15	0.2	0.2	0.000646	2.7e-05
323.15	0.2	0.3	0.000675	2.8e-05
323.15	0.2	0.4	0.00071	2.9e-05
323.15	0.2	0.5	0.000746	3.1e-05
323.15	0.2	0.6	0.000782	3.2e-05
323.15	0.2	0.7	0.000822	3.4e-05
293.15	0.4	0	0.001203	4.9e-05
293.15	0.4	0.1	0.001274	5.2e-05
293.15	0.4	0.2	0.001347	5.5e-05
293.15	0.4	0.3	0.001426	5.8e-05
293.15	0.4	0.4	0.001511	6.2e-05
293.15	0.4	0.5	0.0016	6.6e-05
293.15	0.4	0.6	0.001695	7e-05
293.15	0.4	0.6999	0.001796	7.4e-05
303.15	0.4	0	0.000944	3.9e-05
303.15	0.4	0.1	0.000994	4.1e-05
303.15	0.4	0.2	0.001051	4.3e-05
303.15	0.4	0.3	0.001113	4.6e-05
303.15	0.4	0.4	0.001175	4.8e-05
303.15	0.4	0.5	0.001241	5.1e-05
303.15	0.4	0.6	0.001311	5.4e-05
303.15	0.4	0.6999	0.001386	5.7e-05
313.15	0.4	0	0.000766	3.1e-05
313.15	0.4	0.1	0.000805	3.3e-05
313.15	0.4	0.2	0.000851	3.5e-05
313.15	0.4	0.3	0.000895	3.7e-05
313.15	0.4	0.4	0.000945	3.9e-05
313.15	0.4	0.5	0.000996	4.1e-05
313.15	0.4	0.6	0.001049	4.3e-05
313.15	0.4	0.6999	0.00111	4.6e-05
323.15	0.4	0	0.000634	2.6e-05
323.15	0.4	0.1	0.000665	2.7e-05
323.15	0.4	0.2	0.0007	2.9e-05
323.15	0.4	0.3	0.000735	3e-05
323.15	0.4	0.4	0.000774	3.2e-05
323.15	0.4	0.5	0.000812	3.3e-05
323.15	0.4	0.6	0.000854	3.5e-05
323.15	0.4	0.6999	0.000898	3.7e-05
293.15	0.6	0	0.001319	5.4e-05
293.15	0.6	0.1	0.001398	5.7e-05
293.15	0.6	0.2	0.001483	6.1e-05
293.15	0.6	0.3	0.001577	6.5e-05
293.15	0.6	0.4	0.001673	6.9e-05
293.15	0.6	0.5	0.001778	7.3e-05
293.15	0.6	0.6	0.001887	7.7e-05
293.15	0.6	0.7	0.002007	8.2e-05
303.15	0.6	0	0.001034	4.2e-05
303.15	0.6	0.1	0.001093	4.5e-05
303.15	0.6	0.2	0.001157	4.7e-05
303.15	0.6	0.3	0.001223	5e-05
303.15	0.6	0.4	0.001295	5.3e-05
303.15	0.6	0.5	0.001369	5.6e-05
303.15	0.6	0.6	0.001449	5.9e-05
303.15	0.6	0.7	0.001536	6.3e-05
313.15	0.6	0	0.000829	3.4e-05
313.15	0.6	0.1	0.000874	3.6e-05
313.15	0.6	0.2	0.000922	3.8e-05
313.15	0.6	0.3	0.000973	4e-05
313.15	0.6	0.4	0.00103	4.2e-05
313.15	0.6	0.5	0.001087	4.5e-05
313.15	0.6	0.6	0.001148	4.7e-05
313.15	0.6	0.7	0.001213	5e-05
323.15	0.6	0	0.000686	2.8e-05
323.15	0.6	0.1	0.000722	3e-05
323.15	0.6	0.2	0.00076	3.1e-05
323.15	0.6	0.3	0.000799	3.3e-05
323.15	0.6	0.4	0.000841	3.5e-05
323.15	0.6	0.5	0.000886	3.6e-05
323.15	0.6	0.6	0.000933	3.8e-05
323.15	0.6	0.7	0.000983	4e-05
293.15	0.8	0	0.001453	6e-05
293.15	0.8	0.1	0.001542	6.3e-05
293.15	0.8	0.2	0.00164	6.7e-05
293.15	0.8	0.3	0.001744	7.2e-05
293.15	0.8	0.4	0.001857	7.6e-05
293.15	0.8	0.5	0.001976	8.1e-05
293.15	0.8	0.6	0.002102	8.6e-05
293.15	0.8	0.7	0.002233	9.2e-05
303.15	0.8	0	0.001122	4.6e-05
303.15	0.8	0.1	0.001188	4.9e-05
303.15	0.8	0.2	0.001259	5.2e-05
303.15	0.8	0.3	0.001336	5.5e-05
303.15	0.8	0.4	0.001421	5.8e-05
303.15	0.8	0.5	0.001508	6.2e-05
303.15	0.8	0.6	0.001601	6.6e-05
303.15	0.8	0.7	0.001697	7e-05
313.15	0.8	0	0.000903	3.7e-05
313.15	0.8	0.1	0.000954	3.9e-05
313.15	0.8	0.2	0.001008	4.1e-05
313.15	0.8	0.3	0.001065	4.4e-05
313.15	0.8	0.4	0.001127	4.6e-05
313.15	0.8	0.5	0.001192	4.9e-05
313.15	0.8	0.6	0.00126	5.2e-05
313.15	0.8	0.7	0.001331	5.5e-05
323.15	0.8	0	0.000738	3e-05
323.15	0.8	0.1	0.000778	3.2e-05
323.15	0.8	0.2	0.00082	3.4e-05
323.15	0.8	0.3	0.000864	3.5e-05
323.15	0.8	0.4	0.000914	3.7e-05
323.15	0.8	0.5	0.000963	4e-05
323.15	0.8	0.6	0.001017	4.2e-05
323.15	0.8	0.7	0.001071	4.4e-05
293.15	1	0	0.001592	6.5e-05
293.15	1	0.1	0.001698	7e-05
293.15	1	0.2	0.001807	7.4e-05
293.15	1	0.3	0.001927	7.9e-05
293.15	1	0.4	0.002051	8.4e-05
293.15	1	0.5	0.002189	9e-05
293.15	1	0.5999	0.002337	9.6e-05
293.15	1	0.7	0.002492	0.000102
303.15	1	0	0.001233	5.1e-05
303.15	1	0.1	0.00131	5.4e-05
303.15	1	0.2	0.001389	5.7e-05
303.15	1	0.3	0.001476	6.1e-05
303.15	1	0.4	0.001568	6.4e-05
303.15	1	0.5	0.001667	6.8e-05
303.15	1	0.5999	0.001766	7.2e-05
303.15	1	0.7	0.001879	7.7e-05
313.15	1	0	0.000977	4e-05
313.15	1	0.1	0.001034	4.2e-05
313.15	1	0.2	0.001095	4.5e-05
313.15	1	0.3	0.001161	4.8e-05
313.15	1	0.4	0.001229	5e-05
313.15	1	0.5	0.001301	5.3e-05
313.15	1	0.5999	0.00138	5.7e-05
313.15	1	0.7	0.001461	6e-05
323.15	1	0	0.000797	3.3e-05
323.15	1	0.1	0.000843	3.5e-05
323.15	1	0.2	0.000891	3.7e-05
323.15	1	0.3	0.000939	3.9e-05
323.15	1	0.4	0.000991	4.1e-05
323.15	1	0.5	0.001047	4.3e-05
323.15	1	0.5999	0.001107	4.5e-05
323.15	1	0.7	0.001169	4.8e-05

System: D-sorbitol + water; phases: Liquid
Fixed: Pressure, kPa = 101.3
Property: Mass density, kg/m3 (Liquid); method: Vibrating tube method
Temperature, K	Molality, mol/kg of D-sorbitol	Mass density, kg/m3	uncertainty
293.15	0.2	1010.61	1.02
303.15	0.2	1007.87	1.02
313.15	0.2	1004.3	1.02
323.15	0.2	999.96	1.02
293.15	0.4	1022.43	1.02
303.15	0.4	1019.5	1.02
313.15	0.4	1015.77	1.02
323.15	0.4	1011.33	1.02
293.15	0.6	1033.64	1.02
303.15	0.6	1030.53	1.02
313.15	0.6	1026.67	1.02
323.15	0.6	1022.12	1.02
293.15	0.8	1044.32	1.02
303.15	0.8	1041.07	1.02
313.15	0.8	1037.06	1.02
323.15	0.8	1032.4	1.02
293.15	1	1054.54	1.02
303.15	1	1051.08	1.02
313.15	1	1046.99	1.02
323.15	1	1042.26	1.02

System: D-sorbitol + water; phases: Liquid
Fixed: Pressure, kPa = 101.3
Property: Viscosity, Pa*s (Liquid); method: Capillary tube (Ostwald; Ubbelohde) method
Temperature, K	Molality, mol/kg of D-sorbitol	Viscosity, Pa*s	uncertainty
293.15	0.2	0.001099	4.5e-05
303.15	0.2	0.00087	3.5e-05
313.15	0.2	0.000708	2.9e-05
323.15	0.2	0.000588	2.4e-05
293.15	0.4	0.001203	4.9e-05
303.15	0.4	0.000944	3.8e-05
313.15	0.4	0.000766	3.1e-05
323.15	0.4	0.000634	2.6e-05
293.15	0.6	0.001319	5.4e-05
303.15	0.6	0.001034	4.2e-05
313.15	0.6	0.000829	3.4e-05
323.15	0.6	0.000686	2.8e-05
293.15	0.8	0.001453	5.9e-05
303.15	0.8	0.001122	4.6e-05
313.15	0.8	0.000903	3.7e-05
323.15	0.8	0.000738	3e-05
293.15	1	0.001592	6.5e-05
303.15	1	0.001233	5e-05
313.15	1	0.000977	4e-05
323.15	1	0.000797	3.2e-05
