Measured thermophysical data. Isobaric (vapour + liquid) equilibria for N-formylmorpholine with ethylbenzene, n-butylbenzene, iso-propylbenzene and 1,2,4-trimethylbenzene at 101.33 kPa
Source: J. Chem. Thermodyn., 2012, 10.1016/j.jct.2012.04.016
Compound 1: N-formylmorpholine, C5H9NO2, InChI=1S/C5H9NO2/c7-5-6-1-3-8-4-2-6/h5H,1-4H2, purity 99.5%
Compound 2: ethylbenzene, C8H10, InChI=1S/C8H10/c1-2-8-6-4-3-5-7-8/h3-7H,2H2,1H3, purity 99.5%
Compound 3: butylbenzene, C10H14, InChI=1S/C10H14/c1-2-3-7-10-8-5-4-6-9-10/h4-6,8-9H,2-3,7H2,1H3, purity 99%
Compound 4: isopropylbenzene, C9H12, InChI=1S/C9H12/c1-8(2)9-6-4-3-5-7-9/h3-8H,1-2H3, purity 99%
Compound 5: 1,2,4-trimethylbenzene, C9H12, InChI=1S/C9H12/c1-7-4-5-8(2)9(3)6-7/h4-6H,1-3H3, purity 99%

System: N-formylmorpholine; phases: Liquid, Gas
Property: Normal boiling temperature, K (Liquid); method: Ebulliometric method (Recirculating still)
Normal boiling temperature, K	uncertainty
513.1	0.21

System: ethylbenzene; phases: Liquid, Gas
Property: Normal boiling temperature, K (Liquid); method: Ebulliometric method (Recirculating still)
Normal boiling temperature, K	uncertainty
409.35	0.21

System: butylbenzene; phases: Liquid, Gas
Property: Normal boiling temperature, K (Liquid); method: Ebulliometric method (Recirculating still)
Normal boiling temperature, K	uncertainty
456.4	0.22

System: isopropylbenzene; phases: Liquid, Gas
Property: Normal boiling temperature, K (Liquid); method: Ebulliometric method (Recirculating still)
Normal boiling temperature, K	uncertainty
425.55	0.22

System: 1,2,4-trimethylbenzene; phases: Liquid, Gas
Property: Normal boiling temperature, K (Liquid); method: Ebulliometric method (Recirculating still)
Normal boiling temperature, K	uncertainty
442.45	0.22

System: ethylbenzene + N-formylmorpholine; phases: Liquid, Gas
Fixed: Pressure, kPa = 101.33
Property: Boiling temperature at pressure P, K (Liquid); method: Ebulliometric method (Recirculating still)
Mole fraction of ethylbenzene	Boiling temperature at pressure P, K	uncertainty
0.0048	508.05	1.54
0.1514	451.88	1.42
0.1884	445.35	0.58
0.2135	443.12	1.23
0.219	441.43	1.23
0.2747	437.04	0.3
0.3455	432.45	0.3
0.4086	427.46	0.31
0.4693	423.45	0.21
0.534	421.57	0.15
0.6615	417.9	0.15
0.6977	416.98	0.14
0.74	415.77	0.14
0.7829	414.65	0.13
0.8282	413.8	0.12

System: ethylbenzene + N-formylmorpholine; phases: Gas, Liquid
Fixed: Pressure, kPa = 101.33
Property: Mole fraction of ethylbenzene (Gas); method: Chromatography
Mole fraction of ethylbenzene	Mole fraction of ethylbenzene	uncertainty
0.0048	0.121	0.0191
0.1514	0.8039	0.0174
0.1884	0.8607	0.0063
0.2135	0.8742	0.0043
0.219	0.8728	0.0043
0.2747	0.9093	0.0045
0.3455	0.9325	0.0042
0.4086	0.9482	0.0041
0.4693	0.9583	0.004
0.534	0.9587	0.004
0.6615	0.9733	0.004
0.6977	0.9765	0.004
0.74	0.9793	0.004
0.7829	0.9836	0.004
0.8282	0.9858	0.004

System: butylbenzene + N-formylmorpholine; phases: Liquid, Gas
Fixed: Pressure, kPa = 101.33
Property: Boiling temperature at pressure P, K (Liquid); method: Ebulliometric method (Recirculating still)
Mole fraction of butylbenzene	Boiling temperature at pressure P, K	uncertainty
0.0205	506.15	1.36
0.0228	505.35	1.34
0.0273	503.85	0.95
0.035	502.4	0.88
0.0433	500.35	1.01
0.0535	497.75	0.88
0.0675	495.04	0.83
0.0741	493.47	0.89
0.0819	491.85	0.68
0.0998	489.05	0.57
0.1157	487.15	0.47
0.1539	482.85	0.43
0.1978	478.57	0.42
0.2613	471.95	0.29
0.344	468.3	0.2
0.402	465.77	0.15
0.511	463.1	0.11
0.8104	460.15	0.11
0.9031	458.8	0.11
0.9558	457.93	0.12

System: butylbenzene + N-formylmorpholine; phases: Gas, Liquid
Fixed: Pressure, kPa = 101.33
Property: Mole fraction of butylbenzene (Gas); method: Chromatography
Mole fraction of butylbenzene	Mole fraction of butylbenzene	uncertainty
0.0205	0.0715	0.019
0.0228	0.0811	0.0199
0.0273	0.103	0.0162
0.035	0.1297	0.0114
0.0433	0.1458	0.0136
0.0535	0.1888	0.0153
0.0675	0.2352	0.0133
0.0741	0.2523	0.0124
0.0819	0.2766	0.0143
0.0998	0.3384	0.012
0.1157	0.3682	0.014
0.1539	0.509	0.0127
0.1978	0.5963	0.0098
0.2613	0.7199	0.0074
0.344	0.7881	0.0057
0.402	0.8213	0.005
0.511	0.8581	0.0046
0.8104	0.9135	0.0043
0.9031	0.9478	0.0044
0.9558	0.9734	0.0045

System: isopropylbenzene + N-formylmorpholine; phases: Liquid, Gas
Fixed: Pressure, kPa = 101.33
Property: Boiling temperature at pressure P, K (Liquid); method: Ebulliometric method (Recirculating still)
Mole fraction of isopropylbenzene	Boiling temperature at pressure P, K	uncertainty
0.4092	440.9	0.14
0.4467	439.95	0.16
0.4986	438.05	0.15
0.5594	436.55	0.16
0.6073	434.67	0.14
0.6549	434.17	0.13
0.6881	432.85	0.17
0.7203	431.97	0.13
0.7233	432.06	0.13
0.8031	430.4	0.14
0.8458	428.73	0.14
0.9242	427.33	0.13
0.964	426.3	0.14

System: isopropylbenzene + N-formylmorpholine; phases: Gas, Liquid
Fixed: Pressure, kPa = 101.33
Property: Mole fraction of isopropylbenzene (Gas); method: Chromatography
Mole fraction of isopropylbenzene	Mole fraction of isopropylbenzene	uncertainty
0.4092	0.9078	0.0044
0.4467	0.9183	0.0044
0.4986	0.9343	0.0042
0.5594	0.9376	0.0041
0.6073	0.9487	0.0041
0.6549	0.9523	0.0041
0.6881	0.9497	0.0041
0.7203	0.9548	0.0041
0.7233	0.96	0.0041
0.8031	0.9684	0.0041
0.8458	0.9739	0.0041
0.9242	0.9837	0.004
0.964	0.9905	0.0041

System: 1,2,4-trimethylbenzene + N-formylmorpholine; phases: Liquid, Gas
Fixed: Pressure, kPa = 101.33
Property: Boiling temperature at pressure P, K (Liquid); method: Ebulliometric method (Recirculating still)
Mole fraction of 1,2,4-trimethylbenzene	Boiling temperature at pressure P, K	uncertainty
0.0046	510.35	1.38
0.0305	501.45	1.32
0.048	496.15	1.08
0.0777	488.65	0.92
0.0997	484.45	0.84
0.1129	481.25	0.66
0.1513	475.7	0.56
0.2119	467.65	0.5
0.2395	465.03	0.25
0.325	460.85	0.21
0.4075	457.25	0.17
0.5036	454.55	0.15
0.582	452.35	0.14
0.6306	451.35	0.14
0.6798	449.95	0.14
0.813	446.95	0.13
0.9259	444.6	0.13

System: 1,2,4-trimethylbenzene + N-formylmorpholine; phases: Gas, Liquid
Fixed: Pressure, kPa = 101.33
Property: Mole fraction of 1,2,4-trimethylbenzene (Gas); method: Chromatography
Mole fraction of 1,2,4-trimethylbenzene	Mole fraction of 1,2,4-trimethylbenzene	uncertainty
0.0046	0.0772	0.0216
0.0305	0.2145	0.0222
0.048	0.3133	0.0206
0.0777	0.4519	0.0206
0.0997	0.5686	0.0185
0.1129	0.6021	0.013
0.1513	0.7162	0.0091
0.2119	0.7929	0.0065
0.2395	0.8102	0.005
0.325	0.8372	0.0047
0.4075	0.8572	0.0046
0.5036	0.8849	0.0044
0.582	0.8955	0.0043
0.6306	0.9061	0.0043
0.6798	0.9149	0.0043
0.813	0.9436	0.0042
0.9259	0.9718	0.0041
