Measured thermophysical data. Solubility of fragrance raw materials in water: Experimental study, correlations, and Mod. UNIFAC (Do) predictions
Source: J. Chem. Thermodyn., 2011, 10.1016/j.jct.2010.07.013
Compound 1: 2-heptanone, C7H14O, InChI=1S/C7H14O/c1-3-4-5-6-7(2)8/h3-6H2,1-2H3, purity 99%
Compound 2: 2-nonanone, C9H18O, InChI=1S/C9H18O/c1-3-4-5-6-7-8-9(2)10/h3-8H2,1-2H3, purity 99%
Compound 3: 2-undecanone, C11H22O, InChI=1S/C11H22O/c1-3-4-5-6-7-8-9-10-11(2)12/h3-10H2,1-2H3, purity 99%
Compound 4: 2-tridecanone, C13H26O, InChI=1S/C13H26O/c1-3-4-5-6-7-8-9-10-11-12-13(2)14/h3-12H2,1-2H3, purity 99%
Compound 5: cyclohexanecarboxylic acid, C7H12O2, InChI=1S/C7H12O2/c8-7(9)6-4-2-1-3-5-6/h6H,1-5H2,(H,8,9), purity 98%
Compound 6: cyclohexylethanoic acid, C8H14O2, InChI=1S/C8H14O2/c9-8(10)6-7-4-2-1-3-5-7/h7H,1-6H2,(H,9,10), purity 98%
Compound 7: 2-cyclohexylethanol, C8H16O, InChI=1S/C8H16O/c9-7-6-8-4-2-1-3-5-8/h8-9H,1-7H2, purity 98%
Compound 8: cyclohexyl ethanoate, C8H14O2, InChI=1S/C8H14O2/c1-7(9)10-8-5-3-2-4-6-8/h8H,2-6H2,1H3, purity 98%
Compound 9: cyclohexylethyl acetate, C10H18O2, InChI=1S/C10H18O2/c1-9(11)12-8-7-10-5-3-2-4-6-10/h10H,2-8H2,1H3, purity 98%
Compound 10: water, H2O, InChI=1S/H2O/h1H2, purity 99.8%

System: 2-heptanone + water; phases: Liquid mixture 1, Liquid mixture 2
Fixed: Pressure, kPa = 101
Property: Liquid-liquid equilibrium temperature, K (Liquid mixture 1); method: VISOBS:UFactor:16
Mole fraction of 2-heptanone	Liquid-liquid equilibrium temperature, K	uncertainty
0.8022	343	2.5
0.8365	327.5	2.5
0.8716	314.4	2.5
0.9031	296.7	2.5
0.9388	281.3	2.5
0.9689	269.9	2.5

System: 2-nonanone + water; phases: Liquid mixture 1, Liquid mixture 2
Fixed: Pressure, kPa = 101
Property: Liquid-liquid equilibrium temperature, K (Liquid mixture 1); method: VISOBS:UFactor:16
Mole fraction of 2-nonanone	Liquid-liquid equilibrium temperature, K	uncertainty
0.7083	358.6	2.5
0.7381	348.9	2.5
0.7426	349.5	2.5
0.8078	337.5	2.5
0.8328	325.8	2.5
0.8532	320.3	2.5
0.8548	319.3	2.5
0.8723	312.1	2.5
0.9056	299.8	2.5
0.9222	289.2	2.5
0.9505	279	2.5

System: 2-undecanone + water; phases: Liquid mixture 1, Liquid mixture 2
Fixed: Pressure, kPa = 101
Property: Liquid-liquid equilibrium temperature, K (Liquid mixture 1); method: VISOBS:UFactor:16
Mole fraction of 2-undecanone	Liquid-liquid equilibrium temperature, K	uncertainty
0.8854	360.4	2.5
0.9089	348.6	2.5
0.9303	336.2	2.5
0.9355	333.3	2.5
0.9411	330.4	2.5
0.9478	326.2	2.5
0.9563	321.2	2.5
0.9625	317.7	2.5
0.9673	314.6	2.5
0.9721	312.3	2.5
0.979	307.6	2.5

System: 2-tridecanone + water; phases: Liquid mixture 1, Liquid mixture 2
Fixed: Pressure, kPa = 101
Property: Liquid-liquid equilibrium temperature, K (Liquid mixture 1); method: VISOBS:UFactor:16
Mole fraction of 2-tridecanone	Liquid-liquid equilibrium temperature, K	uncertainty
0.9327	347.2	2.6
0.9334	346.1	2.5
0.9353	343.7	2.5
0.9373	341.7	2.5
0.9418	337.4	2.5
0.9468	332.3	2.5
0.9526	326.8	2.5
0.9574	321.9	2.5
0.9621	316.9	2.5
0.969	310.4	2.5

System: cyclohexanecarboxylic acid + water; phases: Liquid mixture 1, Liquid mixture 2
Fixed: Pressure, kPa = 101
Property: Liquid-liquid equilibrium temperature, K (Liquid mixture 1); method: VISOBS:UFactor:16
Mole fraction of cyclohexanecarboxylic acid	Liquid-liquid equilibrium temperature, K	uncertainty
0.6667	356	2.5
0.7015	347.4	2.5
0.73	339.7	2.5
0.7563	331.7	2.5
0.798	323.2	2.5
0.8351	315.4	2.5
0.8827	309.2	2.5
0.9361	304.2	2.5

System: cyclohexanecarboxylic acid + water; phases: Liquid, Crystal
Fixed: Pressure, kPa = 101
Property: Solid-liquid equilibrium temperature, K (Liquid); method: VISOBS
Mole fraction of cyclohexanecarboxylic acid	Solid-liquid equilibrium temperature, K	uncertainty
0.5784	299	0.3
0.6048	299	0.3
0.6176	299.5	0.3
0.65	299.4	0.3
0.6667	299.5	0.3
0.7015	299.6	0.3
0.73	299.7	0.3
0.7563	299.6	0.3
0.798	299.5	0.3
0.8351	299.5	0.3
0.8827	299.7	0.3
0.9361	302.1	0.3
1	303	0.3

System: cyclohexylethanoic acid + water; phases: Liquid mixture 1, Liquid mixture 2
Fixed: Pressure, kPa = 101
Property: Liquid-liquid equilibrium temperature, K (Liquid mixture 1); method: VISOBS:UFactor:16
Mole fraction of cyclohexylethanoic acid	Liquid-liquid equilibrium temperature, K	uncertainty
0.6131	358.9	2.5
0.6448	350.1	2.5
0.6739	342.2	2.5
0.7011	335.3	2.5
0.7353	329.3	2.5
0.7596	324.2	2.5
0.7972	318.1	2.5
0.835	312.8	2.5

System: cyclohexylethanoic acid + water; phases: Liquid, Crystal
Fixed: Pressure, kPa = 101
Property: Solid-liquid equilibrium temperature, K (Liquid); method: VISOBS
Mole fraction of cyclohexylethanoic acid	Solid-liquid equilibrium temperature, K	uncertainty
0.6131	300.5	0.3
0.6448	300.3	0.3
0.6739	300.2	0.3
0.7011	300.3	0.3
0.7353	300.3	0.3
0.7596	300.3	0.3
0.7972	300.4	0.3
0.835	300.7	0.3
0.8793	302	0.3
0.9461	302.8	0.3
1	303.1	0.3

System: 2-cyclohexylethanol + water; phases: Liquid mixture 1, Liquid mixture 2
Fixed: Pressure, kPa = 101
Property: Liquid-liquid equilibrium temperature, K (Liquid mixture 1); method: VISOBS:UFactor:16
Mole fraction of 2-cyclohexylethanol	Liquid-liquid equilibrium temperature, K	uncertainty
0.0006	288.3	2.5
0.0007	293.9	2.5
0.0008	302.1	2.5
0.001	312.2	2.5
0.0012	321.3	2.5
0.0013	326.3	2.5
0.6293	361.4	2.5
0.6639	346	2.5
0.6975	334.2	2.5
0.7251	319.9	2.5
0.7697	305.3	2.5
0.8108	295.5	2.5
0.845	288.2	2.5

System: cyclohexyl ethanoate + water; phases: Liquid mixture 1, Liquid mixture 2
Fixed: Pressure, kPa = 101
Property: Liquid-liquid equilibrium temperature, K (Liquid mixture 1); method: VISOBS:UFactor:16
Mole fraction of cyclohexyl ethanoate	Liquid-liquid equilibrium temperature, K	uncertainty
0.8663	353	2.5
0.8781	344.4	2.5
0.8904	338.2	2.5
0.906	328.2	2.5
0.915	322.4	2.5
0.9329	317	2.5
0.9461	310.6	2.5
0.9622	305.7	2.5

System: water + cyclohexylethyl acetate; phases: Liquid mixture 1, Liquid mixture 2
Fixed: Pressure, kPa = 101
Property: Liquid-liquid equilibrium temperature, K (Liquid mixture 1); method: VISOBS:UFactor:16
Mole fraction of cyclohexylethyl acetate	Liquid-liquid equilibrium temperature, K	uncertainty
0.7622	350.9	2.5
0.7938	344.8	2.5
0.811	339	2.5
0.8416	334.2	2.5
0.8568	330.2	2.5
0.9023	324.1	2.5
0.9135	321.2	2.5
0.932	316.4	2.5
0.9333	315.9	2.5
0.9568	310.9	2.5
