Measured thermophysical data. Salting-in and salting-out effects of organic and inorganic ammonium salts on the aqueous polymer solutions
Source: J. Chem. Thermodyn., 2018, 10.1016/j.jct.2018.03.030
Compound 1: tetraethylammonium bromide, C8H20BrN, InChI=1S/C8H20N.BrH/c1-5-9(6-2,7-3)8-4;/h5-8H2,1-4H3;1H/q+1;/p-1, purity 99%
Compound 2: tetrapropylammonium bromide, C12H28BrN, InChI=1S/C12H28N.BrH/c1-5-9-13(10-6-2,11-7-3)12-8-4;/h5-12H2,1-4H3;1H/q+1;/p-1, purity 99%
Compound 3: tetrabutylammonium bromide, C16H36BrN, InChI=1S/C16H36N.BrH/c1-5-9-13-17(14-10-6-2,15-11-7-3)16-12-8-4;/h5-16H2,1-4H3;1H/q+1;/p-1, purity 99%
Compound 4: tetrabutylammonium chloride, C16H36ClN, InChI=1S/C16H36N.ClH/c1-5-9-13-17(14-10-6-2,15-11-7-3)16-12-8-4;/h5-16H2,1-4H3;1H/q+1;/p-1, purity 98%
Compound 5: dodecyltrimethylammonium bromide, C15H34BrN, InChI=1S/C15H34N.BrH/c1-5-6-7-8-9-10-11-12-13-14-15-16(2,3)4;/h5-15H2,1-4H3;1H/q+1;/p-1, purity 99%
Compound 6: ammonium bromide, BrH4N, InChI=1S/BrH.H3N/h1H;1H3, purity 99%
Compound 7: ammonium chloride (NH4Cl), ClH4N, InChI=1S/ClH.H3N/h1H;1H3, purity 99%
Compound 8: water, H2O, InChI=1S/H2O/h1H2

System: ammonium chloride (NH4Cl) + water; phases: Liquid
Fixed: Pressure, kPa = 84.5
Fixed: Temperature, K = 298.2
Property: (Relative) activity of water (Liquid); method: ISOPIE
Molality, mol/kg of ammonium chloride (NH4Cl)	(Relative) activity of water	uncertainty
1.6452	0.948	0.039
3.6391	0.888	0.039
4.42	0.851	0.039
2.5868	0.918	0.039
4.2281	0.867	0.039
3.086	0.906	0.039
5.4735	0.831	0.039
4.0065	0.873	0.039
7.1444	0.783	0.039

System: ammonium bromide + water; phases: Liquid
Fixed: Pressure, kPa = 84.5
Fixed: Temperature, K = 298.2
Property: (Relative) activity of water (Liquid); method: ISOPIE
Molality, mol/kg of ammonium bromide	(Relative) activity of water	uncertainty
1.6206	0.948	0.039
3.5928	0.888	0.039
4.6333	0.851	0.039
2.5329	0.918	0.039
4.15	0.867	0.039
3.0053	0.906	0.039
5.3406	0.831	0.039
3.93	0.873	0.039
6.9324	0.783	0.039

System: tetraethylammonium bromide + water; phases: Liquid
Fixed: Pressure, kPa = 84.5
Fixed: Temperature, K = 298.2
Property: (Relative) activity of water (Liquid); method: ISOPIE
Molality, mol/kg of tetraethylammonium bromide	(Relative) activity of water	uncertainty
1.6556	0.956	0.039
3.004	0.916	0.039
4.2572	0.874	0.039
2.002	0.948	0.039
3.4041	0.904	0.039
1.6513	0.957	0.039
2.4713	0.934	0.039
1.9634	0.948	0.039
2.9644	0.916	0.039

System: tetrapropylammonium bromide + water; phases: Liquid
Fixed: Pressure, kPa = 84.5
Fixed: Temperature, K = 298.2
Property: (Relative) activity of water (Liquid); method: ISOPIE
Molality, mol/kg of tetrapropylammonium bromide	(Relative) activity of water	uncertainty
2.4635	0.929	0.039
4.4237	0.858	0.039
3.6088	0.889	0.039
5.1193	0.83	0.039
0.6632	0.982	0.039
0.9692	0.974	0.039
1.3023	0.965	0.039
0.9039	0.976	0.039
1.0728	0.972	0.039
0.904	0.976	0.039
2.6973	0.92	0.039

System: tetrabutylammonium bromide + water; phases: Liquid
Fixed: Pressure, kPa = 84.5
Fixed: Temperature, K = 298.2
Property: (Relative) activity of water (Liquid); method: ISOPIE
Molality, mol/kg of tetrabutylammonium bromide	(Relative) activity of water	uncertainty
1.9276	0.956	0.039
2.7615	0.944	0.039
2.9427	0.942	0.039
4.7199	0.916	0.039
7.7815	0.889	0.039
2.2431	0.952	0.039
2.684	0.945	0.039
3.1041	0.939	0.039
5.8005	0.904	0.039
1.8608	0.957	0.039
2.7618	0.944	0.039
4.4151	0.916	0.039
6.6508	0.896	0.039
2.5105	0.948	0.039
3.3574	0.934	0.039
4.9899	0.913	0.039

System: tetrabutylammonium chloride + water; phases: Liquid
Fixed: Pressure, kPa = 84.5
Fixed: Temperature, K = 298.2
Property: (Relative) activity of water (Liquid); method: ISOPIE
Molality, mol/kg of tetrabutylammonium chloride	(Relative) activity of water	uncertainty
1.0679	0.969	0.039
1.2141	0.965	0.039
1.8945	0.944	0.039
2.0756	0.939	0.039
1.205	0.965	0.039
1.6094	0.952	0.039
1.9974	0.942	0.039
1.4539	0.957	0.039
3.0205	0.913	0.039
3.9136	0.896	0.039

System: dodecyltrimethylammonium bromide + water; phases: Liquid
Fixed: Pressure, kPa = 84.5
Fixed: Temperature, K = 298.2
Property: (Relative) activity of water (Liquid); method: ISOPIE
Molality, mol/kg of dodecyltrimethylammonium bromide	(Relative) activity of water	uncertainty
1.1066	0.994	0.039
2.28	0.991	0.039
1.5068	0.993	0.039
2.979	0.99	0.039
1.188	0.994	0.039
2.2798	0.991	0.039
1.5722	0.993	0.039
2.5372	0.99	0.039
