Measured thermophysical data. The surface tension, density and refractive index of amino acid ionic liquids: [C3mim][Gly] and [C4mim][Gly]
Source: J. Chem. Thermodyn., 2012, 10.1016/j.jct.2012.05.012
Compound 1: water, H2O, InChI=1S/H2O/h1H2, purity 99.9%
Compound 2: 1-propyl-3-methylimidazolium glycine, C9H17N3O2, InChI=1S/C7H13N2.C2H5NO2/c1-3-4-9-6-5-8(2)7-9;3-1-2(4)5/h5-7H,3-4H2,1-2H3;1,3H2,(H,4,5)/q+1;/p-1, purity 99%
Compound 3: 1-butyl-3-methylimidazolium glycinate, C10H19N3O2, InChI=1S/C8H15N2.C2H5NO2/c1-3-4-5-10-7-6-9(2)8-10;3-1-2(4)5/h6-8H,3-5H2,1-2H3;1,3H2,(H,4,5)/q+1;/p-1, purity 99%

System: 1-propyl-3-methylimidazolium glycine; phases: Glass, Liquid, Air at 1 atmosphere
Property: Triple point temperature, K (Glass); method: DTA
Triple point temperature, K	uncertainty
203.68	4.02

System: 1-propyl-3-methylimidazolium glycine; phases: Liquid, Gas
Property: Surface tension liquid-gas, N/m (Liquid); method: Maximal bubble pressure
Temperature, K	Surface tension liquid-gas, N/m	uncertainty
283.15	0.0464	0.0004
288.15	0.0461	0.0004
293.15	0.0459	0.0004
298.15	0.0456	0.0004
303.15	0.0453	0.0004
308.15	0.045	0.0004
313.15	0.0447	0.0004
318.15	0.0444	0.0004
323.15	0.044	0.0004
328.15	0.0437	0.0004

System: 1-propyl-3-methylimidazolium glycine; phases: Liquid
Fixed: Pressure, kPa = 101
Property: Refractive index (Na D-line) (Liquid); method: Standard Abbe refractometry
Temperature, K	Refractive index (Na D-line)	uncertainty
293.15	1.5091	0.0004
298.15	1.5069	0.0004
303.15	1.505	0.0004
308.15	1.5031	0.0004
313.15	1.5005	0.0004
318.15	1.499	0.0004
323.15	1.4973	0.0004

System: 1-propyl-3-methylimidazolium glycine; phases: Liquid
Fixed: Pressure, kPa = 101
Property: Mass density, kg/m3 (Liquid); method: Buoyancy - hydrostatic balance
Temperature, K	Mass density, kg/m3	uncertainty
283.15	1144.6	0.5
288.15	1141.6	0.5
293.15	1139.1	0.5
298.15	1135.8	0.5
303.15	1133.1	0.5
308.15	1129.9	0.5
313.15	1127.2	0.5
318.15	1124.6	0.5
323.15	1122	0.5
328.15	1119.2	0.5

System: 1-butyl-3-methylimidazolium glycinate; phases: Glass, Liquid, Air at 1 atmosphere
Property: Triple point temperature, K (Glass); method: DTA
Triple point temperature, K	uncertainty
191.35	4.02

System: 1-butyl-3-methylimidazolium glycinate; phases: Liquid, Gas
Property: Surface tension liquid-gas, N/m (Liquid); method: Maximal bubble pressure
Temperature, K	Surface tension liquid-gas, N/m	uncertainty
283.15	0.0443	0.0004
288.15	0.044	0.0004
293.15	0.0438	0.0004
298.15	0.0435	0.0004
303.15	0.0432	0.0004
308.15	0.0429	0.0004
313.15	0.0426	0.0004
318.15	0.0422	0.0004
323.15	0.0418	0.0004
328.15	0.0415	0.0004

System: 1-butyl-3-methylimidazolium glycinate; phases: Liquid
Fixed: Pressure, kPa = 101
Property: Refractive index (Na D-line) (Liquid); method: Standard Abbe refractometry
Temperature, K	Refractive index (Na D-line)	uncertainty
293.15	1.5091	0.0004
298.15	1.5085	0.0004
303.15	1.5068	0.0004
308.15	1.5049	0.0004
313.15	1.5038	0.0004
318.15	1.5029	0.0004
323.15	1.5019	0.0004

System: 1-butyl-3-methylimidazolium glycinate; phases: Liquid
Fixed: Pressure, kPa = 101
Property: Mass density, kg/m3 (Liquid); method: Buoyancy - hydrostatic balance
Temperature, K	Mass density, kg/m3	uncertainty
283.15	1120.6	0.5
288.15	1117.4	0.5
293.15	1114.2	0.5
298.15	1110.9	0.5
303.15	1107.8	0.5
308.15	1104.7	0.5
313.15	1101.6	0.5
318.15	1098.6	0.5
323.15	1095.5	0.5
328.15	1092.3	0.5

System: water + 1-propyl-3-methylimidazolium glycine; phases: Liquid, Gas
Property: Surface tension liquid-gas, N/m (Liquid); method: Maximal bubble pressure
Temperature, K	Mass fraction of water	Surface tension liquid-gas, N/m	uncertainty
293.15	0.008	0.0471	0.0005
298.15	0.008	0.0468	0.0004
303.15	0.008	0.0466	0.0004
308.15	0.008	0.0463	0.0004
283.15	0.008	0.0476	0.0005
313.15	0.008	0.046	0.0004
288.15	0.008	0.0473	0.0005
318.15	0.008	0.0457	0.0004
323.15	0.008	0.0453	0.0004
328.15	0.008	0.045	0.0004
298.15	0.0102	0.0472	0.0005
283.15	0.0102	0.048	0.0005
303.15	0.0102	0.0469	0.0005
308.15	0.0102	0.0466	0.0004
293.15	0.0102	0.0475	0.0005
313.15	0.0102	0.0464	0.0004
318.15	0.0102	0.046	0.0004
288.15	0.0102	0.0477	0.0005
323.15	0.0102	0.0457	0.0004
328.15	0.0102	0.0453	0.0004
308.15	0.0123	0.047	0.0005
293.15	0.0123	0.0478	0.0005
298.15	0.0123	0.0475	0.0005
313.15	0.0123	0.0468	0.0004
318.15	0.0123	0.0464	0.0004
303.15	0.0123	0.0473	0.0005
283.15	0.0123	0.0483	0.0005
323.15	0.0123	0.0461	0.0004
288.15	0.0123	0.048	0.0005
328.15	0.0123	0.0456	0.0004
313.15	0.0145	0.0471	0.0005
293.15	0.0145	0.0481	0.0005
298.15	0.0145	0.0478	0.0005
308.15	0.0145	0.0474	0.0005
318.15	0.0145	0.0467	0.0004
283.15	0.0145	0.0486	0.0005
303.15	0.0145	0.0477	0.0005
288.15	0.0145	0.0483	0.0005
323.15	0.0145	0.0464	0.0004
328.15	0.0145	0.046	0.0004
313.15	0.0163	0.0474	0.0005
318.15	0.0163	0.047	0.0005
308.15	0.0163	0.0476	0.0005
323.15	0.0163	0.0467	0.0004
298.15	0.0163	0.0481	0.0005
288.15	0.0163	0.0486	0.0005
303.15	0.0163	0.0479	0.0005
283.15	0.0163	0.0489	0.0005
293.15	0.0163	0.0484	0.0005
328.15	0.0163	0.0463	0.0004

System: water + 1-propyl-3-methylimidazolium glycine; phases: Liquid
Fixed: Pressure, kPa = 101
Property: Refractive index (Na D-line) (Liquid); method: Standard Abbe refractometry
Temperature, K	Mass fraction of water	Refractive index (Na D-line)	uncertainty
298.15	0.008	1.4973	0.0005
303.15	0.008	1.496	0.0005
308.15	0.008	1.4946	0.0006
313.15	0.008	1.4927	0.0006
318.15	0.008	1.4913	0.0005
293.15	0.008	1.499	0.0006
323.15	0.008	1.4896	0.0006
303.15	0.0102	1.4936	0.0005
308.15	0.0102	1.4921	0.0006
313.15	0.0102	1.4904	0.0006
318.15	0.0102	1.4888	0.0006
293.15	0.0102	1.4965	0.0005
298.15	0.0102	1.4952	0.0005
323.15	0.0102	1.487	0.0006
308.15	0.0119	1.4899	0.0005
313.15	0.0119	1.4885	0.0005
318.15	0.0119	1.4869	0.0006
293.15	0.0119	1.4938	0.0006
298.15	0.0119	1.4925	0.0005
303.15	0.0119	1.4912	0.0005
323.15	0.0119	1.4853	0.0005
313.15	0.0141	1.4865	0.0005
318.15	0.0141	1.485	0.0005
293.15	0.0141	1.4917	0.0005
298.15	0.0141	1.4906	0.0005
303.15	0.0141	1.4892	0.0005
308.15	0.0141	1.4878	0.0005
323.15	0.0141	1.4834	0.0006
318.15	0.016	1.4833	0.0006
293.15	0.016	1.4889	0.0005
298.15	0.016	1.4878	0.0005
303.15	0.016	1.4869	0.0005
308.15	0.016	1.486	0.0005
313.15	0.016	1.4848	0.0005
323.15	0.016	1.4815	0.0006

System: water + 1-propyl-3-methylimidazolium glycine; phases: Liquid
Fixed: Pressure, kPa = 101
Property: Mass density, kg/m3 (Liquid); method: Vibrating tube method
Temperature, K	Mass fraction of water	Mass density, kg/m3	uncertainty
293.15	0.008	1140.6	8
298.15	0.008	1137.4	8
303.15	0.008	1134.7	8
308.15	0.008	1131.5	8
283.15	0.008	1146.2	8
313.15	0.008	1128.7	8
288.15	0.008	1143.2	8
318.15	0.008	1126	8
323.15	0.008	1123.3	8
328.15	0.008	1120.5	8
298.15	0.0109	1138	8
283.15	0.0109	1146.8	8
303.15	0.0109	1135.3	8
308.15	0.0109	1132.1	8
293.15	0.0109	1141.1	8
313.15	0.0109	1129.2	8
318.15	0.0109	1126.5	8
288.15	0.0109	1143.8	8
323.15	0.0109	1123.8	8
328.15	0.0109	1120.9	8
308.15	0.0142	1132.8	8
293.15	0.0142	1141.7	8
298.15	0.0142	1138.6	8
313.15	0.0142	1129.8	8
318.15	0.0142	1127.1	8
303.15	0.0142	1135.9	8
283.15	0.0142	1147.5	8
323.15	0.0142	1124.3	8
288.15	0.0142	1144.5	8
328.15	0.0142	1121.4	8
313.15	0.0184	1130.6	8
293.15	0.0184	1142.5	8
298.15	0.0184	1139.4	8
308.15	0.0184	1133.6	8
318.15	0.0184	1127.8	8
283.15	0.0184	1148.3	8
303.15	0.0184	1136.8	8
288.15	0.0184	1145.3	8
323.15	0.0184	1125	8
328.15	0.0184	1122.1	8
313.15	0.0218	1131.2	8
318.15	0.0218	1128.4	8
308.15	0.0218	1134.3	8
323.15	0.0218	1125.6	8
298.15	0.0218	1140.2	8
288.15	0.0218	1146	8
303.15	0.0218	1137.4	8
283.15	0.0218	1149	8
293.15	0.0218	1143.1	8
328.15	0.0218	1122.7	8

System: water + 1-butyl-3-methylimidazolium glycinate; phases: Liquid, Gas
Property: Surface tension liquid-gas, N/m (Liquid); method: Maximal bubble pressure
Temperature, K	Mass fraction of water	Surface tension liquid-gas, N/m	uncertainty
293.15	0.0081	0.0453	0.0004
298.15	0.0081	0.045	0.0004
303.15	0.0081	0.0448	0.0004
308.15	0.0081	0.0445	0.0004
283.15	0.0081	0.0457	0.0004
313.15	0.0081	0.0442	0.0004
288.15	0.0081	0.0455	0.0004
318.15	0.0081	0.0437	0.0004
323.15	0.0081	0.0433	0.0004
328.15	0.0081	0.0429	0.0004
298.15	0.0091	0.0452	0.0004
283.15	0.0091	0.0459	0.0004
303.15	0.0091	0.045	0.0004
308.15	0.0091	0.0447	0.0004
293.15	0.0091	0.0455	0.0004
313.15	0.0091	0.0444	0.0004
318.15	0.0091	0.0439	0.0004
288.15	0.0091	0.0457	0.0004
323.15	0.0091	0.0435	0.0004
328.15	0.0091	0.0431	0.0004
308.15	0.0102	0.0449	0.0004
293.15	0.0102	0.0457	0.0004
298.15	0.0102	0.0454	0.0004
313.15	0.0102	0.0446	0.0004
318.15	0.0102	0.0441	0.0004
303.15	0.0102	0.0452	0.0004
283.15	0.0102	0.0461	0.0004
323.15	0.0102	0.0437	0.0004
288.15	0.0102	0.0459	0.0004
328.15	0.0102	0.0433	0.0004
313.15	0.0118	0.0449	0.0004
293.15	0.0118	0.046	0.0004
298.15	0.0118	0.0457	0.0004
308.15	0.0118	0.0452	0.0004
318.15	0.0118	0.0444	0.0004
283.15	0.0118	0.0463	0.0004
303.15	0.0118	0.0455	0.0004
288.15	0.0118	0.0462	0.0004
323.15	0.0118	0.044	0.0004
328.15	0.0118	0.0435	0.0004
313.15	0.0131	0.0452	0.0004
318.15	0.0131	0.0446	0.0004
308.15	0.0131	0.0455	0.0004
323.15	0.0131	0.0442	0.0004
298.15	0.0131	0.0459	0.0004
288.15	0.0131	0.0464	0.0004
303.15	0.0131	0.0458	0.0004
283.15	0.0131	0.0466	0.0004
293.15	0.0131	0.0462	0.0004
328.15	0.0131	0.0438	0.0004

System: water + 1-butyl-3-methylimidazolium glycinate; phases: Liquid
Fixed: Pressure, kPa = 101
Property: Refractive index (Na D-line) (Liquid); method: Standard Abbe refractometry
Temperature, K	Mass fraction of water	Refractive index (Na D-line)	uncertainty
298.15	0.0081	1.4982	0.0005
303.15	0.0081	1.497	0.0005
308.15	0.0081	1.4955	0.0005
313.15	0.0081	1.4943	0.0005
318.15	0.0081	1.4931	0.0005
293.15	0.0081	1.4993	0.0005
323.15	0.0081	1.4917	0.0005
303.15	0.0102	1.4941	0.0005
308.15	0.0102	1.4927	0.0005
313.15	0.0102	1.4915	0.0005
318.15	0.0102	1.4904	0.0005
293.15	0.0102	1.4968	0.0005
298.15	0.0102	1.4954	0.0005
323.15	0.0102	1.4888	0.0005
308.15	0.0121	1.4907	0.0005
313.15	0.0121	1.4893	0.0005
318.15	0.0121	1.4879	0.0005
293.15	0.0121	1.4944	0.0005
298.15	0.0121	1.4928	0.0005
303.15	0.0121	1.4916	0.0005
323.15	0.0121	1.4864	0.0005
313.15	0.014	1.4872	0.0005
318.15	0.014	1.4855	0.0006
293.15	0.014	1.4918	0.0005
298.15	0.014	1.4907	0.0005
303.15	0.014	1.4895	0.0005
308.15	0.014	1.4884	0.0005
323.15	0.014	1.4838	0.0005
318.15	0.0161	1.4832	0.0005
293.15	0.0161	1.4896	0.0006
298.15	0.0161	1.4879	0.0005
303.15	0.0161	1.4869	0.0005
308.15	0.0161	1.4858	0.0005
313.15	0.0161	1.4845	0.0005
323.15	0.0161	1.4814	0.0006

System: water + 1-butyl-3-methylimidazolium glycinate; phases: Liquid
Fixed: Pressure, kPa = 101
Property: Mass density, kg/m3 (Liquid); method: Vibrating tube method
Temperature, K	Mass fraction of water	Mass density, kg/m3	uncertainty
293.15	0.0081	1114.8	8
298.15	0.0081	1111.5	8
303.15	0.0081	1108.4	8
308.15	0.0081	1105.4	8
283.15	0.0081	1121.2	8
313.15	0.0081	1102.2	8
288.15	0.0081	1118	8
318.15	0.0081	1099.2	8
323.15	0.0081	1096.1	8
328.15	0.0081	1092.9	8
298.15	0.0129	1111.9	8
283.15	0.0129	1121.5	8
303.15	0.0129	1108.9	8
308.15	0.0129	1105.7	8
293.15	0.0129	1115.1	8
313.15	0.0129	1102.6	8
318.15	0.0129	1099.5	8
288.15	0.0129	1118.3	8
323.15	0.0129	1096.4	8
328.15	0.0129	1093.2	8
308.15	0.018	1106.2	8
293.15	0.018	1115.5	8
298.15	0.018	1112.3	8
313.15	0.018	1103	8
318.15	0.018	1099.9	8
303.15	0.018	1109.3	8
283.15	0.018	1121.8	8
323.15	0.018	1096.8	8
288.15	0.018	1118.7	8
328.15	0.018	1093.6	8
313.15	0.0234	1103.4	8
293.15	0.0234	1115.9	8
298.15	0.0234	1112.7	8
308.15	0.0234	1106.6	8
318.15	0.0234	1100.3	8
283.15	0.0234	1122.2	8
303.15	0.0234	1109.7	8
288.15	0.0234	1119.1	8
323.15	0.0234	1097.2	8
328.15	0.0234	1094	8
313.15	0.0293	1103.9	8
318.15	0.0293	1100.7	8
308.15	0.0293	1107.1	8
323.15	0.0293	1097.6	8
298.15	0.0293	1113.1	8
288.15	0.0293	1119.5	8
303.15	0.0293	1110.2	8
283.15	0.0293	1122.6	8
293.15	0.0293	1116.3	8
328.15	0.0293	1094.4	8
