Measured thermophysical data. Thermodynamic and transport properties of aqueous solutions containing cholinium l-alaninate and polyethylene glycol dimethyl ether 250: Evaluation of solute-solvent interactions and phase separation
Source: J. Chem. Thermodyn., 2019, 10.1016/j.jct.2018.12.022
Compound 1: 2-hydroxy-N,N,N-trimethylethanaminium L-alaninate, C8H20N2O3, InChI=1S/C5H14NO.C3H7NO2/c1-6(2,3)4-5-7;1-2(4)3(5)6/h7H,4-5H2,1-3H3;2H,4H2,1H3,(H,5,6)/q+1;/p-1/t;2-/m.0/s1
Compound 2: water, H2O, InChI=1S/H2O/h1H2

System: 2-hydroxy-N,N,N-trimethylethanaminium L-alaninate; phases: Liquid
Property: Mass density, kg/m3 (Liquid); method: Vibrating tube method
Temperature, K	Pressure, kPa	Mass density, kg/m3	uncertainty
298.15	101.325	1122.56	1.1

System: 2-hydroxy-N,N,N-trimethylethanaminium L-alaninate; phases: Liquid
Property: Viscosity, Pa*s (Liquid); method: Falling or rolling sphere viscometry
Temperature, K	Pressure, kPa	Viscosity, Pa*s	uncertainty
298.15	101.325	0.715	0.07

System: 2-hydroxy-N,N,N-trimethylethanaminium L-alaninate; phases: Liquid
Property: Refractive index (Na D-line) (Liquid); method: Standard Abbe refractometry
Temperature, K	Pressure, kPa	Refractive index (Na D-line)	uncertainty
298.15	101.325	1.4868	0.0006

System: 2-hydroxy-N,N,N-trimethylethanaminium L-alaninate + water; phases: Liquid
Fixed: Pressure, kPa = 85
Property: Mass density, kg/m3 (Liquid); method: Vibrating tube method
Temperature, K	Molality, mol/kg of 2-hydroxy-N,N,N-trimethylethanaminium L-alaninate	Mass density, kg/m3	uncertainty
288.15	0.0108	999.398	0.322
288.15	0.0204	999.663	0.321
288.15	0.03	999.914	0.319
288.15	0.0401	1000.172	0.319
288.15	0.0509	1000.439	0.318
288.15	0.0583	1000.615	0.317
298.15	0.0108	997.345	0.389
298.15	0.0204	997.608	0.321
298.15	0.03	997.858	0.32
298.15	0.0401	998.115	0.32
298.15	0.0509	998.382	0.313
298.15	0.0583	998.553	0.313
308.15	0.0108	994.326	0.375
308.15	0.0204	994.588	0.322
308.15	0.03	994.839	0.321
308.15	0.0401	995.097	0.32
308.15	0.0509	995.362	0.315
308.15	0.0583	995.534	0.308
318.15	0.0108	990.514	0.324
318.15	0.0204	990.779	0.323
318.15	0.03	991.029	0.321
318.15	0.0401	991.289	0.321
318.15	0.0509	991.561	0.319
318.15	0.0583	991.728	0.317

System: 2-hydroxy-N,N,N-trimethylethanaminium L-alaninate + water; phases: Liquid
Fixed: Pressure, kPa = 85
Fixed: Frequency, MHz = 3
Property: Speed of sound, m/s (Liquid); method: Single path-length method
Temperature, K	Molality, mol/kg of 2-hydroxy-N,N,N-trimethylethanaminium L-alaninate	Speed of sound, m/s	uncertainty
288.15	0.0108	1468.01	1.19
288.15	0.0204	1469.35	1.19
288.15	0.03	1470.67	1.19
288.15	0.0401	1472.08	1.19
288.15	0.0509	1473.59	1.19
288.15	0.0583	1474.63	1.19
298.15	0.0108	1498.41	1.87
298.15	0.0204	1499.74	1.18
298.15	0.03	1501.04	1.18
298.15	0.0401	1502.42	1.18
298.15	0.0509	1503.89	1.13
298.15	0.0583	1504.91	1.28
308.15	0.0108	1521.62	1.87
308.15	0.0204	1522.93	1.16
308.15	0.03	1524.21	1.16
308.15	0.0401	1525.57	1.16
308.15	0.0509	1526.99	1.11
308.15	0.0583	1528	1.29
318.15	0.0108	1537.46	1.15
318.15	0.0204	1538.75	1.15
318.15	0.03	1540.01	1.15
318.15	0.0401	1541.35	1.15
318.15	0.0509	1542.76	1.15
318.15	0.0583	1543.74	1.15

System: 2-hydroxy-N,N,N-trimethylethanaminium L-alaninate + water; phases: Liquid
Fixed: Pressure, kPa = 85
Property: Viscosity, Pa*s (Liquid); method: Falling or rolling sphere viscometry
Temperature, K	Molality, mol/kg of 2-hydroxy-N,N,N-trimethylethanaminium L-alaninate	Viscosity, Pa*s	uncertainty
288.15	0.0108	0.001143	1.5e-05
288.15	0.0204	0.001147	1.5e-05
288.15	0.03	0.001151	1.5e-05
288.15	0.0401	0.001155	1.5e-05
288.15	0.0509	0.00116	1.5e-05
288.15	0.0583	0.001163	1.5e-05
298.15	0.0108	0.000897	1.7e-05
298.15	0.0204	0.0009	1.4e-05
298.15	0.03	0.000903	1.4e-05
298.15	0.0401	0.000906	1.4e-05
298.15	0.0509	0.00091	1.4e-05
298.15	0.0583	0.000912	2.1e-05
308.15	0.0108	0.000732	1.4e-05
308.15	0.0204	0.000735	1.3e-05
308.15	0.03	0.000737	1.3e-05
308.15	0.0401	0.00074	1.3e-05
308.15	0.0509	0.000743	1.3e-05
308.15	0.0583	0.000745	1.5e-05
318.15	0.0108	0.000604	1.3e-05
318.15	0.0204	0.000607	1.3e-05
318.15	0.03	0.000609	1.3e-05
318.15	0.0401	0.000611	1.3e-05
318.15	0.0509	0.000613	1.3e-05
318.15	0.0583	0.000615	1.3e-05

System: 2-hydroxy-N,N,N-trimethylethanaminium L-alaninate + water; phases: Liquid
Fixed: Pressure, kPa = 85
Property: Refractive index (Na D-line) (Liquid); method: Standard Abbe refractometry
Temperature, K	Molality, mol/kg of 2-hydroxy-N,N,N-trimethylethanaminium L-alaninate	Refractive index (Na D-line)	uncertainty
288.15	0.0108	1.3338	0.0005
288.15	0.0204	1.334	0.0005
288.15	0.03	1.3342	0.0005
288.15	0.0401	1.3345	0.0005
288.15	0.0509	1.3349	0.0005
288.15	0.0583	1.3351	0.0005
298.15	0.0108	1.3331	0.0005
298.15	0.0204	1.3333	0.0005
298.15	0.03	1.3335	0.0005
298.15	0.0401	1.3337	0.0005
298.15	0.0509	1.3341	0.0005
298.15	0.0583	1.3343	0.0005
308.15	0.0108	1.3319	0.0005
308.15	0.0204	1.3321	0.0005
308.15	0.03	1.3323	0.0005
308.15	0.0401	1.3326	0.0005
308.15	0.0509	1.333	0.0005
308.15	0.0583	1.3333	0.0005
318.15	0.0108	1.3304	0.0005
318.15	0.0204	1.3306	0.0005
318.15	0.03	1.3309	0.0005
318.15	0.0401	1.3312	0.0005
318.15	0.0509	1.3315	0.0005
318.15	0.0583	1.3318	0.0005
