Measured thermophysical data. Measurement and correlation of vapour pressures of pyridine and thiophene with [EMIM][SCN] ionic liquid
Source: J. Chem. Thermodyn., 2014, 10.1016/j.jct.2013.12.033
Compound 1: 1-ethyl-3-methylimidazolium thiocyanate, C7H11N3S, InChI=1S/C6H11N2.CHNS/c1-3-8-5-4-7(2)6-8;2-1-3/h4-6H,3H2,1-2H3;3H/q+1;/p-1, purity 99%
Compound 2: pyridine, C5H5N, InChI=1S/C5H5N/c1-2-4-6-5-3-1/h1-5H, purity 99%
Compound 3: thiophene, C4H4S, InChI=1S/C4H4S/c1-2-4-5-3-1/h1-4H, purity 99%

System: pyridine; phases: Liquid, Gas
Property: Vapor or sublimation pressure, kPa (Liquid); method: Closed cell (Static) method
Temperature, K	Vapor or sublimation pressure, kPa	uncertainty
273.15	0.5993	0.0374
283.15	1.136	0.071
293.15	2.049	0.125
303.15	3.535	0.214
313.15	5.863	0.353
323.15	9.383	0.565
333.15	14.55	0.88
343.15	21.92	1.32
353.15	32.17	1.93
363.15	46.13	2.77

System: thiophene; phases: Liquid, Gas
Property: Vapor or sublimation pressure, kPa (Liquid); method: Closed cell (Static) method
Temperature, K	Vapor or sublimation pressure, kPa	uncertainty
273.15	2.778	0.168
283.15	4.893	0.295
293.15	8.217	0.495
303.15	13.23	0.8
313.15	20.52	1.23
323.15	30.8	1.85
333.15	44.88	2.7
343.15	63.71	3.83
353.15	88.33	5.31
363.15	119.9	7.2

System: pyridine + 1-ethyl-3-methylimidazolium thiocyanate; phases: Liquid, Gas
Property: Vapor or sublimation pressure, kPa (Liquid); method: Closed cell (Static) method
Temperature, K	Mole fraction of pyridine	Vapor or sublimation pressure, kPa	uncertainty
273.15	0.1008	0.079	0.0055
273.15	0.1831	0.1461	0.0096
273.15	0.3061	0.1916	0.0124
273.15	0.5116	0.3356	0.0212
273.15	0.6652	0.4405	0.0277
273.15	0.8993	0.5637	0.0353
273.15	1	0.5993	0.0374
283.15	0.1008	0.1532	0.0101
283.15	0.1831	0.2766	0.0176
283.15	0.3061	0.3909	0.0246
283.15	0.5116	0.6468	0.0404
283.15	0.6652	0.8466	0.0527
283.15	0.8993	1.07	0.066
283.15	1	1.136	0.071
293.15	0.1008	0.2812	0.0179
293.15	0.1831	0.5006	0.0314
293.15	0.3061	0.7376	0.046
293.15	0.5116	1.173	0.073
293.15	0.6652	1.541	0.094
293.15	0.8993	1.931	0.118
293.15	1	2.049	0.125
303.15	0.1008	0.495	0.0311
303.15	0.1831	0.87	0.0542
303.15	0.3061	1.303	0.08
303.15	0.5116	2.017	0.123
303.15	0.6652	2.675	0.162
303.15	0.8993	3.336	0.202
303.15	1	3.535	0.214
313.15	0.1008	0.834	0.052
313.15	0.1831	1.458	0.089
313.15	0.3061	2.176	0.132
313.15	0.5116	3.312	0.2
313.15	0.6652	4.45	0.269
313.15	0.8993	5.541	0.334
313.15	1	5.863	0.353
323.15	0.1008	1.355	0.084
323.15	0.1831	2.365	0.144
323.15	0.3061	3.464	0.209
323.15	0.5116	5.223	0.315
323.15	0.6652	7.13	0.429
323.15	0.8993	8.885	0.535
323.15	1	9.383	0.565
333.15	0.1008	2.13	0.13
333.15	0.1831	3.722	0.225
333.15	0.3061	5.288	0.319
333.15	0.5116	7.948	0.479
333.15	0.6652	11.05	0.67
333.15	0.8993	13.8	0.83
333.15	1	14.55	0.88
343.15	0.1008	3.248	0.197
343.15	0.1831	5.7	0.344
343.15	0.3061	7.784	0.469
343.15	0.5116	11.72	0.71
343.15	0.6652	16.61	1
343.15	0.8993	20.84	1.25
343.15	1	21.92	1.32
353.15	0.1008	4.822	0.292
353.15	0.1831	8.516	0.513
353.15	0.3061	11.1	0.67
353.15	0.5116	16.79	1.01
353.15	0.6652	24.3	1.46
353.15	0.8993	30.65	1.84
353.15	1	32.17	1.93
363.15	0.1008	6.985	0.422
363.15	0.1831	12.44	0.75
363.15	0.3061	15.39	0.93
363.15	0.5116	23.47	1.41
363.15	0.6652	34.69	2.09
363.15	0.8993	44.04	2.65
363.15	1	46.13	2.77

System: thiophene + 1-ethyl-3-methylimidazolium thiocyanate; phases: Liquid, Gas
Property: Vapor or sublimation pressure, kPa (Liquid); method: Closed cell (Static) method
Temperature, K	Mole fraction of thiophene	Vapor or sublimation pressure, kPa	uncertainty
273.15	0.1017	0.4623	0.0291
273.15	0.1847	0.8277	0.0516
273.15	0.3026	1.244	0.077
273.15	0.4044	1.548	0.095
273.15	0.5009	1.889	0.115
273.15	0.6009	2.43	0.147
273.15	0.6991	2.717	0.165
273.15	0.8995	2.77	0.168
273.15	1	2.778	0.168
283.15	0.1017	0.8361	0.0521
283.15	0.1847	1.493	0.092
283.15	0.3026	2.233	0.136
283.15	0.4044	2.884	0.175
283.15	0.5009	3.551	0.215
283.15	0.6009	4.362	0.263
283.15	0.6991	4.769	0.288
283.15	0.8995	4.893	0.295
283.15	1	4.893	0.295
293.15	0.1017	1.438	0.088
293.15	0.1847	2.561	0.155
293.15	0.3026	3.811	0.23
293.15	0.4044	5.013	0.302
293.15	0.5009	6.151	0.371
293.15	0.6009	7.397	0.446
293.15	0.6991	7.997	0.482
293.15	0.8995	8.236	0.496
293.15	1	8.217	0.495
303.15	0.1017	2.366	0.144
303.15	0.1847	4.206	0.254
303.15	0.3026	6.223	0.375
303.15	0.4044	8.221	0.495
303.15	0.5009	9.963	0.6
303.15	0.6009	11.94	0.72
303.15	0.6991	12.88	0.77
303.15	0.8995	13.29	0.8
303.15	1	13.23	0.8
313.15	0.1017	3.744	0.227
313.15	0.1847	6.644	0.401
313.15	0.3026	9.775	0.589
313.15	0.4044	12.83	0.77
313.15	0.5009	15.27	0.92
313.15	0.6009	18.47	1.11
313.15	0.6991	20.03	1.2
313.15	0.8995	20.66	1.24
313.15	1	20.52	1.23
323.15	0.1017	5.724	0.346
323.15	0.1847	10.14	0.61
323.15	0.3026	14.83	0.89
323.15	0.5009	22.34	1.34
323.15	0.6009	27.53	1.66
323.15	0.6991	30.18	1.81
323.15	0.8995	31.06	1.87
323.15	1	30.8	1.85
333.15	0.1017	8.484	0.512
333.15	0.1847	15.01	0.9
333.15	0.5009	31.43	1.89
333.15	0.6009	39.73	2.39
333.15	0.6991	44.18	2.66
333.15	0.8995	45.35	2.73
333.15	1	44.88	2.7
343.15	0.1017	12.23	0.74
343.15	0.1847	21.63	1.3
343.15	0.5009	42.76	2.57
343.15	0.6009	55.7	3.35
343.15	0.6991	63.04	3.79
343.15	0.8995	64.49	3.88
343.15	1	63.71	3.83
353.15	0.1017	17.21	1.04
353.15	0.1847	30.39	1.83
353.15	0.6009	76.11	4.58
353.15	0.6991	87.91	5.28
353.15	0.8995	89.54	5.38
353.15	1	88.33	5.31
363.15	0.1017	23.67	1.43
363.15	0.1847	41.77	2.51
363.15	0.6009	101.7	6.1
363.15	0.6991	120.1	7.2
363.15	0.8995	121.7	7.3
363.15	1	119.9	7.2
