Measured thermophysical data. Thermochemistry of UO2 - ThO2 and UO2 - ZrO2 fluorite solid solutions
Source: J. Chem. Thermodyn., 2017, 10.1016/j.jct.2017.05.026
Compound 1: thorium dioxide, O2Th, InChI=1S/2O.Th/q2*-2;+4, purity 98%
Compound 2: uranium dioxide, O2U, InChI=1S/2O.U/q2*-2;+4, purity 98%
Compound 3: uranium(VI) oxide, O3U, InChI=1S/3O.U/q3*-2;+6, purity 98%
Compound 4: zirconium oxide, O2Zr, InChI=1S/2O.Zr/q2*-2;+4, purity 98%

System: thorium dioxide + uranium dioxide + uranium(VI) oxide; phases: Crystal
Fixed: Temperature, K = 298
Fixed: Pressure, kPa = 100
Property: Mass density, kg/m3 (Crystal); method: X-ray diffraction
Mole fraction of thorium dioxide	Mole fraction of uranium(VI) oxide	Mass density, kg/m3	uncertainty
0.2209	0.32	11090	100
0.4319	0.23	10990	100
0.7519	0.09	10350	90
0.2209	0	10730	90
0.4319	0	10510	90
0.7519	0	10070	90

System: thorium dioxide + uranium dioxide + uranium(VI) oxide; phases: Crystal
Fixed: Temperature, K = 298
Fixed: Pressure, kPa = 100
Property: Excess molar enthalpy (molar enthalpy of mixing), kJ/mol (Crystal); method: Calvet calorimetry
Mole fraction of thorium dioxide	Mole fraction of uranium(VI) oxide	Excess molar enthalpy (molar enthalpy of mixing), kJ/mol	uncertainty
0.2209	0.32	-25.03	6.73
0.4319	0.23	-25.3	3.1
0.7519	0.09	-0.92	3.07
0.2209	0	-6.91	3.21
0.4319	0	1.55	4.7
0.7519	0	-1.18	2.81

System: zirconium oxide + uranium dioxide; phases: Crystal
Fixed: Temperature, K = 298
Fixed: Pressure, kPa = 100
Property: Mass density, kg/m3 (Crystal); method: X-ray diffraction
Mole fraction of zirconium oxide	Mass density, kg/m3	uncertainty
0.0847	10630	90
0.1557	10260	90
0.2937	9570	70

System: zirconium oxide + uranium dioxide; phases: Crystal
Fixed: Temperature, K = 298
Fixed: Pressure, kPa = 100
Property: Excess molar enthalpy (molar enthalpy of mixing), kJ/mol (Crystal); method: Calvet calorimetry
Mole fraction of zirconium oxide	Excess molar enthalpy (molar enthalpy of mixing), kJ/mol	uncertainty
0.0847	-9.12	4.17
0.1557	-8.85	3.5
0.2937	0.81	3.22

System: thorium dioxide + uranium dioxide; phases: Crystal
Fixed: Temperature, K = 298
Fixed: Pressure, kPa = 100
Property: Mass density, kg/m3 (Crystal); method: X-ray diffraction
Mole fraction of thorium dioxide	Mass density, kg/m3	uncertainty
0.2209	10730	90
0.4319	10510	90
0.7519	10070	90

System: thorium dioxide + uranium dioxide; phases: Crystal
Fixed: Temperature, K = 298
Fixed: Pressure, kPa = 100
Property: Excess molar enthalpy (molar enthalpy of mixing), kJ/mol (Crystal); method: Calvet calorimetry
Mole fraction of thorium dioxide	Excess molar enthalpy (molar enthalpy of mixing), kJ/mol	uncertainty
0.2209	-6.91	3.21
0.4319	1.55	4.7
0.7519	-1.18	2.81
