Measured thermophysical data. Osmotic coefficients of binary mixtures of 1-butyl-3-methylimidazolium methylsulfate and 1,3-dimethylimidazolium methylsulfate with alcohols at T = 323.15 K
Source: J. Chem. Thermodyn., 2009, 10.1016/j.jct.2008.12.021
Compound 1: 1,3-dimethylimidazolium methylsulfate, C6H12N2O4S, InChI=1S/C5H9N2.CH4O4S/c1-6-3-4-7(2)5-6;1-5-6(2,3)4/h3-5H,1-2H3;1H3,(H,2,3,4)/q+1;/p-1
Compound 2: 1-butyl-3-methylimidazolium methyl sulfate, C9H18N2O4S, InChI=1S/C8H15N2.CH4O4S/c1-3-4-5-10-7-6-9(2)8-10;1-5-6(2,3)4/h6-8H,3-5H2,1-2H3;1H3,(H,2,3,4)/q+1;/p-1
Compound 3: propan-1-ol, C3H8O, InChI=1S/C3H8O/c1-2-3-4/h4H,2-3H2,1H3, purity 99.9%
Compound 4: propan-2-ol, C3H8O, InChI=1S/C3H8O/c1-3(2)4/h3-4H,1-2H3, purity 99.8%
Compound 5: ethanol, C2H6O, InChI=1S/C2H6O/c1-2-3/h3H,2H2,1H3, purity 99.9%

System: propan-2-ol + 1-butyl-3-methylimidazolium methyl sulfate; phases: Liquid, Gas
Fixed: Temperature, K = 323.15
Property: Osmotic coefficient (Liquid); method: vapour pressure osmometer
Molality, mol/kg of 1-butyl-3-methylimidazolium methyl sulfate	Osmotic coefficient	uncertainty
0.0524	0.95	0.012
0.0842	0.905	0.012
0.1084	0.871	0.013
0.2087	0.799	0.014
0.3036	0.733	0.015
0.4106	0.685	0.016
0.4869	0.648	0.017
0.682	0.588	0.019
0.9823	0.523	0.021
1.3202	0.493	0.022
1.6922	0.488	0.022
2.0498	0.502	0.021
2.4462	0.48	0.022
2.8295	0.455	0.023
3.3106	0.451	0.023

System: ethanol + 1,3-dimethylimidazolium methylsulfate; phases: Liquid, Gas
Fixed: Temperature, K = 323.15
Property: Osmotic coefficient (Liquid); method: vapour pressure osmometer
Molality, mol/kg of 1,3-dimethylimidazolium methylsulfate	Osmotic coefficient	uncertainty
0.0289	0.815	0.014
0.0374	0.794	0.014
0.0789	0.719	0.016
0.0991	0.687	0.016
0.1941	0.626	0.018
0.3285	0.56	0.02
0.4326	0.53	0.021
0.5312	0.503	0.021
0.6925	0.479	0.022
0.9868	0.449	0.023
1.2835	0.424	0.024
1.6987	0.399	0.024
2.0777	0.382	0.025
2.4892	0.363	0.026
2.9367	0.345	0.026
3.3145	0.326	0.027
3.7093	0.325	0.027
4.016	0.331	0.027

System: propan-1-ol + 1,3-dimethylimidazolium methylsulfate; phases: Liquid, Gas
Fixed: Temperature, K = 323.15
Property: Osmotic coefficient (Liquid); method: vapour pressure osmometer
Molality, mol/kg of 1,3-dimethylimidazolium methylsulfate	Osmotic coefficient	uncertainty
0.0512	0.848	0.013
0.079	0.772	0.014
0.0997	0.727	0.015
0.2023	0.67	0.017
0.2902	0.59	0.019
0.3952	0.544	0.02
0.488	0.526	0.021
0.6881	0.492	0.022
0.9815	0.454	0.023
1.2994	0.432	0.023
1.691	0.396	0.025
2.0974	0.375	0.025
2.5454	0.36	0.026
2.9285	0.343	0.026
3.3226	0.334	0.026
3.71	0.322	0.027

System: propan-2-ol + 1,3-dimethylimidazolium methylsulfate; phases: Liquid, Gas
Fixed: Temperature, K = 323.15
Property: Osmotic coefficient (Liquid); method: vapour pressure osmometer
Molality, mol/kg of 1,3-dimethylimidazolium methylsulfate	Osmotic coefficient	uncertainty
0.0241	0.914	0.012
0.0557	0.846	0.013
0.2089	0.683	0.016
0.3053	0.614	0.018
0.3982	0.588	0.019
0.6947	0.509	0.021
0.9721	0.461	0.023
1.2737	0.442	0.023
1.6596	0.416	0.024
2.0575	0.392	0.025
2.4473	0.364	0.025
2.8266	0.343	0.026
3.3134	0.329	0.027
3.712	0.323	0.027
4.1118	0.298	0.028

System: ethanol + 1-butyl-3-methylimidazolium methyl sulfate; phases: Liquid, Gas
Fixed: Temperature, K = 323.15
Property: Osmotic coefficient (Liquid); method: vapour pressure osmometer
Molality, mol/kg of 1-butyl-3-methylimidazolium methyl sulfate	Osmotic coefficient	uncertainty
0.0495	0.78	0.014
0.0783	0.716	0.016
0.176	0.646	0.017
0.3283	0.573	0.019
0.3907	0.55	0.02
0.5167	0.529	0.021
0.6846	0.508	0.021
0.9851	0.496	0.021
1.3181	0.499	0.021
1.7272	0.48	0.022
2.0926	0.474	0.022
2.507	0.465	0.022
2.9138	0.448	0.023
3.3109	0.424	0.024
3.697	0.408	0.024

System: propan-1-ol + 1-butyl-3-methylimidazolium methyl sulfate; phases: Liquid, Gas
Fixed: Temperature, K = 323.15
Property: Osmotic coefficient (Liquid); method: vapour pressure osmometer
Molality, mol/kg of 1-butyl-3-methylimidazolium methyl sulfate	Osmotic coefficient	uncertainty
0.0437	0.873	0.013
0.0547	0.829	0.013
0.2041	0.691	0.016
0.3571	0.639	0.018
0.5002	0.628	0.018
0.6627	0.628	0.018
0.8487	0.629	0.018
1.0071	0.629	0.018
1.2796	0.628	0.018
1.6654	0.62	0.018
2.1435	0.599	0.019
2.9365	0.581	0.019
