Measured thermophysical data. Apparent molar volumes and apparent molar heat capacities of aqueous N-acetyl-D-glucosamine at temperatures from 278.15 K to 368.15 K and of aqueous N-methylacetamide at temperatures from 278.15 K to 393.15 K at the pressure 0.35 MPa
Source: J. Chem. Thermodyn., 2006, 10.1016/j.jct.2006.04.007
Compound 1: N-acetyl-D-glucosamine, C8H15NO6, InChI=1S/C8H15NO6/c1-4(12)9-5(2-10)7(14)8(15)6(13)3-11/h2,5-8,11,13-15H,3H2,1H3,(H,9,12)/t5-,6+,7+,8+/m0/s1, purity 99%
Compound 2: water, H2O, InChI=1S/H2O/h1H2
Compound 3: N-methylacetamide, C3H7NO, InChI=1S/C3H7NO/c1-3(5)4-2/h1-2H3,(H,4,5), purity 99%

System: N-acetyl-D-glucosamine + water; phases: Liquid
Fixed: Pressure, kPa = 350
Property: Apparent molar heat capacity, J/K/mol (Liquid); method: Extra sensitive DSC
Temperature, K	Molality, mol/kg of N-acetyl-D-glucosamine	Apparent molar heat capacity, J/K/mol	uncertainty
278.15	0.0096	385	109
278.15	0.0207	377	51
278.15	0.03	358	36
278.15	0.07	362	16
278.15	0.1502	348.5	8.3
278.15	0.1999	368.5	6.8
278.15	0.3018	373.1	5.3
278.15	0.5001	378.3	4.3
278.15	0.7003	380.2	3.9
278.15	0.958	358.2	3.7
278.15	0.03	365	36
283.15	0.0096	416	108
283.15	0.0207	403	50
283.15	0.03	385	35
283.15	0.07	385	16
283.15	0.1502	374.5	8.2
283.15	0.1999	392.8	6.7
283.15	0.3018	396.5	5.3
283.15	0.5001	401.6	4.3
283.15	0.7003	403.8	3.8
283.15	0.958	381.8	3.6
283.15	0.03	387	36
288.15	0.0096	435	106
288.15	0.0207	421	50
288.15	0.03	404	35
288.15	0.07	405	16
288.15	0.1502	394.4	8.3
288.15	0.1999	411.9	7
288.15	0.3018	415.2	5.5
288.15	0.5001	420.1	4.5
288.15	0.7003	422	4.2
288.15	0.958	400.5	4
288.15	0.03	401	35
293.15	0.0096	450	106
293.15	0.0207	436	49
293.15	0.03	420	34
293.15	0.07	421	16
293.15	0.1502	411.4	8.2
293.15	0.1999	428.3	6.8
293.15	0.3018	431.3	5.4
293.15	0.5001	436	4.5
293.15	0.7003	437.9	4
293.15	0.958	416.6	3.9
293.15	0.03	415	34
298.15	0.0096	462	104
298.15	0.0207	449	49
298.15	0.03	433	34
298.15	0.07	437	16
298.15	0.1502	426.5	8.1
298.15	0.1999	442.5	6.7
298.15	0.3018	445.2	5.3
298.15	0.5001	449.8	4.3
298.15	0.7003	451.5	3.8
298.15	0.958	430.5	3.8
298.15	0.03	432	34
303.15	0.0096	474	104
303.15	0.0207	461	48
303.15	0.03	445	34
303.15	0.07	451	15
303.15	0.1502	440	8
303.15	0.1999	455	6.6
303.15	0.3018	457.8	5.2
303.15	0.5001	462.3	4.2
303.15	0.7003	463.7	3.8
303.15	0.958	443.2	3.6
303.15	0.03	447	34
308.15	0.0096	486	103
308.15	0.0207	472	48
308.15	0.03	456	34
308.15	0.07	462	15
308.15	0.1502	452.2	7.8
308.15	0.1999	466.4	6.5
308.15	0.3018	469.2	5.1
308.15	0.5001	473.5	4.1
308.15	0.7003	474.7	3.7
308.15	0.958	454.6	3.5
308.15	0.03	459	34
313.15	0.0096	496	102
313.15	0.0207	482	48
313.15	0.03	465	33
313.15	0.07	473.4	14.8
313.15	0.1502	463.3	7.8
313.15	0.1999	476.7	6.3
313.15	0.3018	479.6	5
313.15	0.5001	483.8	4
313.15	0.7003	484.8	3.5
313.15	0.958	465.2	3.5
313.15	0.03	470	33
318.15	0.0096	506	101
318.15	0.0207	491	47
318.15	0.03	474	33
318.15	0.07	483.8	14.7
318.15	0.1502	473.6	7.7
318.15	0.1999	486.3	6.3
318.15	0.3018	489.2	4.9
318.15	0.5001	493.4	4
318.15	0.7003	494.2	3.5
318.15	0.958	475	3.4
318.15	0.03	479	33
323.15	0.0096	516	100
323.15	0.0207	501	46
323.15	0.03	483	32
323.15	0.07	493.4	14.5
323.15	0.1502	483.4	7.6
323.15	0.1999	495.3	6.2
323.15	0.3018	498.2	4.8
323.15	0.5001	502.3	3.9
323.15	0.7003	503	3.5
323.15	0.958	484.1	3.3
323.15	0.03	488	32
328.15	0.0096	524	99
328.15	0.0207	509	46
328.15	0.03	490	32
328.15	0.07	501.3	14.4
328.15	0.1502	492.7	7.5
328.15	0.1999	503.9	6.1
328.15	0.3018	506.8	4.8
328.15	0.5001	510.8	3.8
328.15	0.7003	511.5	3.4
328.15	0.958	492.8	3.2
328.15	0.03	497	32
333.15	0.0096	532	98
333.15	0.0207	517	46
333.15	0.03	498	32
333.15	0.07	509.2	14.4
333.15	0.1502	501.5	7.4
333.15	0.1999	512.1	6.1
333.15	0.3018	514.9	4.7
333.15	0.5001	518.8	3.8
333.15	0.7003	519.6	3.4
333.15	0.958	501.1	3.2
333.15	0.03	506	32
338.15	0.0096	540	97
338.15	0.0207	524	46
338.15	0.03	505	32
338.15	0.07	517	14.2
338.15	0.1502	510.1	7.4
338.15	0.1999	520	6
338.15	0.3018	522.8	4.6
338.15	0.5001	526.6	3.7
338.15	0.7003	527.5	3.3
338.15	0.958	509.1	3.2
338.15	0.03	514	32
343.15	0.0096	547	97
343.15	0.0207	532	45
343.15	0.03	511	32
343.15	0.07	524.3	14.1
343.15	0.1502	518.1	7.4
343.15	0.1999	527.4	6
343.15	0.3018	530.1	4.7
343.15	0.5001	533.9	3.7
343.15	0.7003	535	3.3
343.15	0.958	516.5	3.1
343.15	0.03	523	31
348.15	0.0096	554	96
348.15	0.0207	538	44
348.15	0.03	518	31
348.15	0.07	531.6	14
348.15	0.1502	525.9	7.3
348.15	0.1999	534.7	5.9
348.15	0.3018	537.2	4.6
348.15	0.5001	540.8	3.7
348.15	0.7003	542.3	3.2
348.15	0.958	523.5	3.1
348.15	0.03	531	31
353.15	0.0096	561	95
353.15	0.0207	545	44
353.15	0.03	524	31
353.15	0.07	538.7	13.9
353.15	0.1502	533.4	7.3
353.15	0.1999	541.6	5.9
353.15	0.3018	544.1	4.5
353.15	0.5001	547.6	3.7
353.15	0.7003	549.6	3.2
353.15	0.958	530.3	3
353.15	0.03	539	31
358.15	0.0096	568	94
358.15	0.0207	552	44
358.15	0.03	529	31
358.15	0.07	545.8	13.8
358.15	0.1502	540.9	7.2
358.15	0.1999	548.3	5.8
358.15	0.3018	550.7	4.6
358.15	0.5001	554.1	3.6
358.15	0.7003	556.9	3.2
358.15	0.958	536.9	3.1
358.15	0.03	547	31
363.15	0.0096	574	94
363.15	0.0207	558	44
363.15	0.03	533	31
363.15	0.07	551.5	13.7
363.15	0.1502	547.3	7.1
363.15	0.1999	554.3	5.8
363.15	0.3018	556.6	4.5
363.15	0.5001	559.9	3.6
363.15	0.7003	564.4	3.2
363.15	0.958	542.9	3
363.15	0.03	553	31

System: N-acetyl-D-glucosamine + water; phases: Liquid
Fixed: Pressure, kPa = 350
Property: Mass density, kg/m3 (Liquid); method: VIBTUB:UFactor:24
Temperature, K	Molality, mol/kg of N-acetyl-D-glucosamine	Mass density, kg/m3	uncertainty
278.15	0.01	1000.31	0.98
278.15	0.02	1001.78	0.99
278.15	0.03	1001.98	0.99
278.15	0.07	1005.5	1.04
278.15	0.1502	1012.23	1.12
278.15	0.1999	1014.67	1.15
278.15	0.3018	1021.8	1.24
278.15	0.5001	1035.28	1.41
278.15	0.7003	1047.7	1.57
278.15	0.958	1065.18	1.79
278.15	0.03	1002.26	0.99
283.15	0.01	1000.13	0.97
283.15	0.02	1001.42	0.98
283.15	0.03	1001.76	0.99
283.15	0.07	1005.11	1.03
283.15	0.1502	1011.82	1.11
283.15	0.1999	1014.24	1.14
283.15	0.3018	1021.3	1.23
283.15	0.5001	1034.59	1.4
283.15	0.7003	1046.91	1.56
283.15	0.958	1064.21	1.78
283.15	0.03	1002.02	0.99
288.15	0.01	999.6	0.98
288.15	0.02	1000.86	0.98
288.15	0.03	1001.23	0.98
288.15	0.07	1004.42	1.02
288.15	0.1502	1011.1	1.1
288.15	0.1999	1013.51	1.13
288.15	0.3018	1020.51	1.22
288.15	0.5001	1033.66	1.39
288.15	0.7003	1045.87	1.54
288.15	0.958	1063.03	1.76
288.15	0.03	1001.43	0.98
308.15	0.01	994.68	1.04
308.15	0.02	995.7	1.02
308.15	0.03	996.2	1.01
308.15	0.07	999.2	0.98
308.15	0.1502	1005.72	1.04
308.15	0.1999	1008.07	1.07
308.15	0.3018	1014.85	1.15
308.15	0.5001	1027.59	1.31
308.15	0.7003	1039.58	1.47
308.15	0.958	1056.31	1.68
308.15	0.03	996.26	1.01
318.15	0.01	990.9	1.08
318.15	0.02	991.84	1.07
318.15	0.03	992.39	1.06
318.15	0.07	995.31	1.02
318.15	0.1502	1001.76	0.99
318.15	0.1999	1004.1	1.02
318.15	0.3018	1010.81	1.1
318.15	0.5001	1023.43	1.26
318.15	0.7003	1035.3	1.41
318.15	0.958	1051.87	1.62
318.15	0.03	992.41	1.06
328.15	0.01	986.41	1.14
328.15	0.02	987.4	1.12
328.15	0.03	987.95	1.11
328.15	0.07	990.79	1.08
328.15	0.1502	997.12	1
328.15	0.1999	999.48	0.97
328.15	0.3018	1006.12	1.05
328.15	0.5001	1018.64	1.2
328.15	0.7003	1030.41	1.35
328.15	0.958	1046.86	1.56
328.15	0.03	987.87	1.11
348.15	0.01	975.69	1.27
348.15	0.02	976.44	1.26
348.15	0.03	977.15	1.25
348.15	0.07	979.84	1.22
348.15	0.1502	986.13	1.14
348.15	0.1999	988.48	1.11
348.15	0.3018	995.03	1.03
348.15	0.5001	1007.4	1.07
348.15	0.7003	1019.03	1.21
348.15	0.958	1035.29	1.42
348.15	0.03	977.05	1.25
358.15	0.01	969.57	1.35
358.15	0.02	969.97	1.35
358.15	0.03	970.91	1.33
358.15	0.07	973.66	1.3
358.15	0.1502	979.94	1.22
358.15	0.1999	982.31	1.19
358.15	0.3018	988.83	1.11
358.15	0.5001	1000.87	0.99
358.15	0.7003	1012.6	1.14
358.15	0.958	1028.69	1.34
358.15	0.03	970.89	1.33
368.15	0.01	963.46	1.43
368.15	0.02	963.16	1.44
368.15	0.03	964.01	1.43
368.15	0.07	966.84	1.39
368.15	0.1502	973.05	1.32
368.15	0.1999	975.42	1.29
368.15	0.3018	981.89	1.21
368.15	0.5001	994.17	1.06
368.15	0.7003	1005.68	1.06
368.15	0.958	1021.82	1.26
368.15	0.03	964.02	1.43

System: N-methylacetamide + water; phases: Liquid
Fixed: Pressure, kPa = 350
Property: Apparent molar heat capacity, J/K/mol (Liquid); method: Extra sensitive DSC
Temperature, K	Molality, mol/kg of N-methylacetamide	Apparent molar heat capacity, J/K/mol	uncertainty
278.15	0.015	221	52
278.15	0.04	230	21
278.15	0.07	243.9	12.5
278.15	0.1001	239.7	8.8
278.15	0.2002	240.2	4.7
278.15	0.4	238.2	2.6
278.15	0.599	251.1	2.9
278.15	0.8028	237.5	2.3
278.15	1.0005	236.3	1.9
283.15	0.015	217	60
283.15	0.04	225	26
283.15	0.07	246	15
283.15	0.1001	242.5	9.2
283.15	0.2002	243.9	4.9
283.15	0.4	242.3	2.7
283.15	0.599	254.9	3.1
283.15	0.8028	242.4	2.4
283.15	1.0005	241.4	2.1
288.15	0.015	213	69
288.15	0.04	221	28
288.15	0.07	247	16
288.15	0.1001	247.1	8.4
288.15	0.2002	247.9	4.5
288.15	0.4	246	2.5
288.15	0.599	257.6	2.8
288.15	0.8028	245.8	2.2
288.15	1.0005	244.9	1.9
293.15	0.015	220	64
293.15	0.04	230	25
293.15	0.07	250	15
293.15	0.1001	251.4	8.3
293.15	0.2002	251.6	4.5
293.15	0.4	249.2	2.5
293.15	0.599	259.8	2.4
293.15	0.8028	248.7	1.9
293.15	1.0005	248	1.7
298.15	0.015	228	58
298.15	0.04	238	22
298.15	0.07	252.1	13
298.15	0.1001	254.8	8.3
298.15	0.2002	254.7	4.5
298.15	0.4	251.85	2.53
298.15	0.599	261.9	2.4
298.15	0.8028	251.4	1.9
298.15	1.0005	250.8	1.7
303.15	0.015	232	53
303.15	0.04	245	21
303.15	0.07	254.5	12
303.15	0.1001	259	8.3
303.15	0.2002	258.7	4.5
303.15	0.4	254.53	2.54
303.15	0.599	264	2.3
303.15	0.8028	254.1	1.9
303.15	1.0005	253.5	1.6
308.15	0.015	236	52
308.15	0.04	250.5	20
308.15	0.07	257.5	11.7
308.15	0.1001	262.8	8.4
308.15	0.2002	261.8	4.5
308.15	0.4	257.09	2.54
308.15	0.599	266	2.2
308.15	0.8028	256.5	1.8
308.15	1.0005	255.95	1.59
313.15	0.015	243	52
313.15	0.04	256.4	20
313.15	0.07	259.8	11.7
313.15	0.1001	264.8	8.4
313.15	0.2002	263.9	4.5
313.15	0.4	259.34	2.55
313.15	0.599	267.9	2.2
313.15	0.8028	258.7	1.8
313.15	1.0005	258.14	1.57
318.15	0.015	252	52
318.15	0.04	264.9	20
318.15	0.07	261.2	11.7
318.15	0.1001	266	8.4
318.15	0.2002	265.6	4.5
318.15	0.4	261.43	2.55
318.15	0.599	269.7	2.1
318.15	0.8028	260.8	1.8
318.15	1.0005	260.24	1.55
323.15	0.015	259	52
323.15	0.04	268.9	20
323.15	0.07	262.6	11.7
323.15	0.1001	267.4	8.4
323.15	0.2002	267.4	4.5
323.15	0.4	263.5	2.6
323.15	0.599	271.4	2.1
323.15	0.8028	262.77	1.75
323.15	1.0005	262.22	1.54
328.15	0.015	260	52
328.15	0.04	266.5	20
328.15	0.07	265	11.7
328.15	0.1001	269.3	8.4
328.15	0.2002	269.2	4.5
328.15	0.4	265.52	2.56
328.15	0.599	273.1	2.1
328.15	0.8028	264.63	1.74
328.15	1.0005	264.06	1.53
333.15	0.015	260	52
333.15	0.04	265.7	20
333.15	0.07	267	11.7
333.15	0.1001	271.2	8.4
333.15	0.2002	271	4.5
333.15	0.4	267.55	2.57
333.15	0.599	274.8	2.1
333.15	0.8028	266.47	1.73
333.15	1.0005	265.86	1.52
338.15	0.015	264	52
338.15	0.04	266.3	20
338.15	0.07	269.1	11.7
338.15	0.1001	272.8	8.4
338.15	0.2002	272.4	4.5
338.15	0.4	269.46	2.57
338.15	0.599	276.4	2.1
338.15	0.8028	268.26	1.72
338.15	1.0005	267.6	1.5
343.15	0.015	268	52
343.15	0.04	267.1	20
343.15	0.07	270.8	11.7
343.15	0.1001	274.1	8.4
343.15	0.2002	273.7	4.5
343.15	0.4	271.09	2.57
343.15	0.599	277.9	2.1
343.15	0.8028	269.89	1.73
343.15	1.0005	269.2	1.5
348.15	0.015	271	52
348.15	0.04	268.3	20
348.15	0.07	272.5	11.7
348.15	0.1001	275.2	8.4
348.15	0.2002	274.9	4.5
348.15	0.4	272.57	2.58
348.15	0.599	279.4	2.1
348.15	0.8028	271.43	1.74
348.15	1.0005	270.73	1.53
353.15	0.015	273	52
353.15	0.04	269.5	20
353.15	0.07	274	11.7
353.15	0.1001	276.3	8.4
353.15	0.2002	276	4.5
353.15	0.4	273.95	2.58
353.15	0.599	280.7	2.1
353.15	0.8028	272.85	1.74
353.15	1.0005	272.12	1.52
358.15	0.015	274	52
358.15	0.04	270.2	20
358.15	0.07	275.5	11.7
358.15	0.1001	277.5	8.4
358.15	0.2002	277.2	4.5
358.15	0.4	275.31	2.58
358.15	0.599	281.9	2.1
358.15	0.8028	274.18	1.72
358.15	1.0005	273.45	1.51
363.15	0.015	276	52
363.15	0.04	270.5	20
363.15	0.07	277.1	11.7
363.15	0.1001	278.7	8.4
363.15	0.2002	278.5	4.5
363.15	0.4	276.62	2.59
363.15	0.599	283.1	2
363.15	0.8028	275.42	1.7
363.15	1.0005	274.69	1.49
368.15	0.015	277	52
368.15	0.04	270.9	20
368.15	0.07	278.3	11.7
368.15	0.1001	279.7	8.4
368.15	0.2002	279.5	4.5
368.15	0.4	277.76	2.59
368.15	0.599	284.1	2.1
368.15	0.8028	276.51	1.68
368.15	1.0005	275.75	1.48
373.15	0.015	277	52
373.15	0.04	270.8	20
373.15	0.07	279.3	11.7
373.15	0.1001	280.7	8.4
373.15	0.2002	280.5	4.5
373.15	0.4	278.82	2.59
373.15	0.599	285.12	2.03
373.15	0.8028	277.53	1.67
373.15	1.0005	276.77	1.46
378.15	0.015	275	52
378.15	0.04	270.6	20
378.15	0.07	280	11.7
378.15	0.1001	281.5	8.4
378.15	0.2002	281.4	4.5
378.15	0.4	279.75	2.59
378.15	0.599	286.01	2.01
378.15	0.8028	278.43	1.65
378.15	1.0005	277.65	1.45
383.15	0.015	273	52
383.15	0.04	270.2	20.1
383.15	0.07	280.4	11.7
383.15	0.1001	282.2	8.4
383.15	0.2002	282.2	4.5
383.15	0.4	280.52	2.6
383.15	0.599	286.77	1.98
383.15	0.8028	279.21	1.63
383.15	1.0005	278.41	1.43
388.15	0.015	273	52
388.15	0.04	270.5	20.1
388.15	0.07	281.2	11.8
388.15	0.1001	282.6	8.4
388.15	0.2002	282.8	4.5
388.15	0.4	281.15	2.6
388.15	0.599	287.45	1.97
388.15	0.8028	279.89	1.62
388.15	1.0005	279.13	1.43
393.15	0.015	278	52
393.15	0.04	273.2	20
393.15	0.07	282.4	11.7
393.15	0.1001	281.9	8.4
393.15	0.2002	282.8	4.5
393.15	0.4	281.41	2.6
393.15	0.599	287.87	1.97
393.15	0.8028	280.37	1.62
393.15	1.0005	279.71	1.43

System: N-methylacetamide + water; phases: Liquid
Fixed: Pressure, kPa = 350
Property: Mass density, kg/m3 (Liquid); method: VIBTUB:UFactor:8
Temperature, K	Molality, mol/kg of N-methylacetamide	Mass density, kg/m3	uncertainty
278.15	0.015	999.98	0.32
278.15	0.04	1000.02	0.32
278.15	0.07	1000.14	0.32
278.15	0.1001	1000.14	0.32
278.15	0.2002	1000.14	0.32
278.15	0.4	1000.26	0.33
278.15	0.599	1000.35	0.33
278.15	0.8028	1000.66	0.33
278.15	1.0005	1000.98	0.33
283.15	0.015	999.8	0.32
283.15	0.04	999.78	0.32
283.15	0.07	999.85	0.32
283.15	0.1001	999.83	0.32
283.15	0.2002	999.82	0.32
283.15	0.4	999.89	0.32
283.15	0.599	1000	0.32
283.15	0.8028	1000.14	0.33
283.15	1.0005	1000.43	0.33
288.15	0.015	999.2	0.3
288.15	0.04	999.19	0.33
288.15	0.07	999.23	0.33
288.15	0.1001	999.22	0.33
288.15	0.2002	999.16	0.33
288.15	0.4	999.24	0.33
288.15	0.599	999.28	0.33
288.15	0.8028	999.39	0.33
288.15	1.0005	999.54	0.33
308.15	0.015	994.14	0.35
308.15	0.04	994.12	0.35
308.15	0.07	994.1	0.35
308.15	0.1001	994.07	0.35
308.15	0.2002	993.96	0.35
308.15	0.4	993.88	0.35
308.15	0.599	993.8	0.35
308.15	0.8028	993.77	0.35
308.15	1.0005	993.7	0.35
318.15	0.015	990.32	0.36
318.15	0.04	990.29	0.36
318.15	0.07	990.24	0.36
318.15	0.1001	990.21	0.36
318.15	0.2002	990.07	0.36
318.15	0.4	989.92	0.37
318.15	0.599	989.82	0.37
318.15	0.8028	989.72	0.37
318.15	1.0005	989.61	0.37
328.15	0.015	985.77	0.38
328.15	0.04	985.75	0.38
328.15	0.07	985.75	0.38
328.15	0.1001	985.75	0.38
328.15	0.2002	985.56	0.38
328.15	0.4	985.32	0.39
328.15	0.599	985.18	0.39
328.15	0.8028	985.04	0.39
328.15	1.0005	984.85	0.39
348.15	0.015	974.89	0.43
348.15	0.04	974.87	0.43
348.15	0.07	974.87	0.43
348.15	0.1001	974.82	0.43
348.15	0.2002	974.63	0.43
348.15	0.4	974.29	0.43
348.15	0.599	974.05	0.43
348.15	0.8028	973.79	0.44
348.15	1.0005	973.51	0.44
358.15	0.015	968.67	0.46
358.15	0.04	968.65	0.46
358.15	0.07	968.63	0.46
358.15	0.1001	968.56	0.46
358.15	0.2002	968.36	0.46
358.15	0.4	967.97	0.46
358.15	0.599	967.67	0.46
358.15	0.8028	967.36	0.46
358.15	1.0005	967.06	0.47
368.15	0.015	961.97	0.49
368.15	0.04	961.92	0.49
368.15	0.07	961.9	0.49
368.15	0.1001	961.83	0.49
368.15	0.2002	961.62	0.49
368.15	0.4	961.19	0.49
368.15	0.599	960.81	0.49
368.15	0.8028	960.43	0.5
368.15	1.0005	960.09	0.5
