Measured thermophysical data. Experimental research on (vapor + liquid) equilibria for the {trifluoroiodomethane (CF3I) + carbon dioxide (CO2)} system from 243.150 to 273.150 K
Source: J. Chem. Thermodyn., 2016, 10.1016/j.jct.2016.05.012
Compound 1: trifluoroiodomethane, CF3I, InChI=1S/CF3I/c2-1(3,4)5, purity 99.5%
Compound 2: carbon dioxide, CO2, InChI=1S/CO2/c2-1-3, purity 99.995%

System: trifluoroiodomethane; phases: Liquid, Gas
Property: Vapor or sublimation pressure, kPa (Liquid); method: Closed cell (Static) method
Temperature, K	Vapor or sublimation pressure, kPa	uncertainty
243.15	72.7	2.6
253.15	110.1	2.6
263.15	160.4	2.6
273.15	228.4	2.6

System: carbon dioxide; phases: Liquid, Gas
Property: Vapor or sublimation pressure, kPa (Liquid); method: Closed cell (Static) method
Temperature, K	Vapor or sublimation pressure, kPa	uncertainty
243.15	1426.5	3.3
253.15	1968.4	3.9
263.15	2647.5	4.6
273.15	3483.8	5.6

System: carbon dioxide + trifluoroiodomethane; phases: Liquid, Gas
Property: Vapor or sublimation pressure, kPa (Liquid); method: Closed cell (Static) method
Mole fraction of carbon dioxide	Temperature, K	Vapor or sublimation pressure, kPa	uncertainty
0	243.15	72.7	2.6
0.111	243.15	286	19.1
0.155	243.15	363.7	17.8
0.18	243.15	407	16.2
0.27	243.15	548.2	14.3
0.412	243.15	732.1	13
0.567	243.15	921.9	12.4
1	243.15	1426.5	4.8
0	253.15	110.1	2.6
0.164	253.15	497.4	33.6
0.186	253.15	579.4	21.1
0.268	253.15	721	17.5
0.408	253.15	961.1	19.7
0.537	253.15	1241.3	18.7
0.68	253.15	1455.9	16.5
1	253.15	1968.4	6.2
0	263.15	160.4	2.6
0.17	263.15	644.4	20.2
0.202	263.15	719.6	25.1
0.279	263.15	933.2	26.9
0.388	263.15	1223.1	24.7
0.538	263.15	1566.8	24.3
0.68	263.15	1914.8	23.8
1	263.15	2647.5	8.3
0	273.15	228.4	2.7
0.174	273.15	819.8	33.9
0.248	273.15	1061.7	34
0.382	273.15	1520.4	31.3
0.447	273.15	1663.3	29.6
0.542	273.15	1980.7	34.7
0.682	273.15	2464.1	33.6
1	273.15	3483.8	10.8

System: carbon dioxide + trifluoroiodomethane; phases: Gas, Liquid
Property: Mole fraction of carbon dioxide (Gas); method: Chromatography
Mole fraction of carbon dioxide	Temperature, K	Mole fraction of carbon dioxide	uncertainty
0	243.15	0	
0.111	243.15	0.751	0.01
0.155	243.15	0.814	0.01
0.18	243.15	0.838	0.01
0.27	243.15	0.896	0.01
0.412	243.15	0.93	0.01
0.567	243.15	0.958	0.01
1	243.15	1	
0	253.15	0	
0.164	253.15	0.79	0.01
0.186	253.15	0.814	0.01
0.268	253.15	0.858	0.01
0.408	253.15	0.896	0.01
0.537	253.15	0.93	0.01
0.68	253.15	0.962	0.01
1	253.15	1	
0	263.15	0	
0.17	263.15	0.761	0.01
0.202	263.15	0.787	0.01
0.279	263.15	0.845	0.01
0.388	263.15	0.893	0.01
0.538	263.15	0.931	0.01
0.68	263.15	0.954	0.01
1	263.15	1	
0	273.15	0	
0.174	273.15	0.734	0.01
0.248	273.15	0.814	0.01
0.382	273.15	0.872	0.01
0.447	273.15	0.89	0.01
0.542	273.15	0.92	0.01
0.682	273.15	0.941	0.01
1	273.15	1	
