Measured thermophysical data. Thermodynamics of solvation in propylene glycol and methyl cellosolve
Source: J. Chem. Thermodyn., 2014, 10.1016/j.jct.2014.06.006
Compound 1: 2-methoxyethan-1-ol, C3H8O2, InChI=1S/C3H8O2/c1-5-3-2-4/h4H,2-3H2,1H3, purity 99%
Compound 2: 1,2-propanediol, C3H8O2, InChI=1S/C3H8O2/c1-3(5)2-4/h3-5H,2H2,1H3, purity 99%
Compound 3: hexane, C6H14, InChI=1S/C6H14/c1-3-5-6-4-2/h3-6H2,1-2H3, purity 99%
Compound 4: heptane, C7H16, InChI=1S/C7H16/c1-3-5-7-6-4-2/h3-7H2,1-2H3, purity 99%
Compound 5: octane, C8H18, InChI=1S/C8H18/c1-3-5-7-8-6-4-2/h3-8H2,1-2H3, purity 99%
Compound 6: benzene, C6H6, InChI=1S/C6H6/c1-2-4-6-5-3-1/h1-6H, purity 99%
Compound 7: toluene, C7H8, InChI=1S/C7H8/c1-7-5-3-2-4-6-7/h2-6H,1H3, purity 99.8%
Compound 8: ethylbenzene, C8H10, InChI=1S/C8H10/c1-2-8-6-4-3-5-7-8/h3-7H,2H2,1H3, purity 99%
Compound 9: 1,2-dimethylbenzene, C8H10, InChI=1S/C8H10/c1-7-5-3-4-6-8(7)2/h3-6H,1-2H3, purity 99%
Compound 10: 1,3-dimethylbenzene, C8H10, InChI=1S/C8H10/c1-7-4-3-5-8(2)6-7/h3-6H,1-2H3, purity 99%
Compound 11: 1,4-dimethylbenzene, C8H10, InChI=1S/C8H10/c1-7-3-5-8(2)6-4-7/h3-6H,1-2H3, purity 99%
Compound 12: fluorobenzene, C6H5F, InChI=1S/C6H5F/c7-6-4-2-1-3-5-6/h1-5H, purity 99%
Compound 13: chlorobenzene, C6H5Cl, InChI=1S/C6H5Cl/c7-6-4-2-1-3-5-6/h1-5H, purity 99.6%
Compound 14: nonane, C9H20, InChI=1S/C9H20/c1-3-5-7-9-8-6-4-2/h3-9H2,1-2H3, purity 99%
Compound 15: decane, C10H22, InChI=1S/C10H22/c1-3-5-7-9-10-8-6-4-2/h3-10H2,1-2H3, purity 99%
Compound 16: naphthalene, C10H8, InChI=1S/C10H8/c1-2-6-10-8-4-3-7-9(10)5-1/h1-8H, purity 99%
Compound 17: undecane, C11H24, InChI=1S/C11H24/c1-3-5-7-9-11-10-8-6-4-2/h3-11H2,1-2H3, purity 99%
Compound 18: methylcyclopentane, C6H12, InChI=1S/C6H12/c1-6-4-2-3-5-6/h6H,2-5H2,1H3, purity 99.5%
Compound 19: cyclohexane, C6H12, InChI=1S/C6H12/c1-2-4-6-5-3-1/h1-6H2, purity 99.5%
Compound 20: cyclooctane, C8H16, InChI=1S/C8H16/c1-2-4-6-8-7-5-3-1/h1-8H2, purity 99%
Compound 21: 1,7-octadiene, C8H14, InChI=1S/C8H14/c1-3-5-7-8-6-4-2/h3-4H,1-2,5-8H2, purity 99%
Compound 22: 4-ethenylcyclohexene, C8H12, InChI=1S/C8H12/c1-2-8-6-4-3-5-7-8/h2-4,8H,1,5-7H2, purity 99.5%
Compound 23: bromobenzene, C6H5Br, InChI=1S/C6H5Br/c7-6-4-2-1-3-5-6/h1-5H, purity 99%
Compound 24: methylcyclohexane, C7H14, InChI=1S/C7H14/c1-7-5-3-2-4-6-7/h7H,2-6H2,1H3, purity 99%
Compound 25: cyclohexene, C6H10, InChI=1S/C6H10/c1-2-4-6-5-3-1/h1-2H,3-6H2, purity 99%
Compound 26: 1-(1-methylethyl)-4-methylbenzene, C10H14, InChI=1S/C10H14/c1-8(2)10-6-4-9(3)5-7-10/h4-8H,1-3H3, purity 99%

System: 1,2-propanediol + hexane; phases: Liquid
Property: Activity coefficient of hexane (Liquid); method: Chromatography
Temperature, K	Pressure, kPa	Mole fraction of hexane	Activity coefficient of hexane	uncertainty
298	238	0	63	20.1

System: 1,2-propanediol + heptane; phases: Liquid
Property: Activity coefficient of heptane (Liquid); method: Chromatography
Temperature, K	Pressure, kPa	Mole fraction of heptane	Activity coefficient of heptane	uncertainty
298	238	0	109	30.2

System: 1,2-propanediol + octane; phases: Liquid
Property: Activity coefficient of octane (Liquid); method: Chromatography
Temperature, K	Pressure, kPa	Mole fraction of octane	Activity coefficient of octane	uncertainty
298	238	0	150	40.3

System: 1,2-propanediol + benzene; phases: Liquid
Property: Activity coefficient of benzene (Liquid); method: Chromatography
Temperature, K	Pressure, kPa	Mole fraction of benzene	Activity coefficient of benzene	uncertainty
298	238	0	11.8	1.1

System: 1,2-propanediol + toluene; phases: Liquid
Property: Activity coefficient of toluene (Liquid); method: Chromatography
Temperature, K	Pressure, kPa	Mole fraction of toluene	Activity coefficient of toluene	uncertainty
298	238	0	17	2.1

System: 1,2-propanediol + ethylbenzene; phases: Liquid
Property: Activity coefficient of ethylbenzene (Liquid); method: Chromatography
Temperature, K	Pressure, kPa	Mole fraction of ethylbenzene	Activity coefficient of ethylbenzene	uncertainty
298	238	0	26.2	3.1

System: 1,2-propanediol + 1,2-dimethylbenzene; phases: Liquid
Property: Activity coefficient of 1,2-dimethylbenzene (Liquid); method: Chromatography
Temperature, K	Pressure, kPa	Mole fraction of 1,2-dimethylbenzene	Activity coefficient of 1,2-dimethylbenzene	uncertainty
298	238	0	26.3	3.1

System: 1,2-propanediol + 1,3-dimethylbenzene; phases: Liquid
Property: Activity coefficient of 1,3-dimethylbenzene (Liquid); method: Chromatography
Temperature, K	Pressure, kPa	Mole fraction of 1,3-dimethylbenzene	Activity coefficient of 1,3-dimethylbenzene	uncertainty
298	238	0	28.4	2.2

System: 1,2-propanediol + 1,4-dimethylbenzene; phases: Liquid
Property: Activity coefficient of 1,4-dimethylbenzene (Liquid); method: Chromatography
Temperature, K	Pressure, kPa	Mole fraction of 1,4-dimethylbenzene	Activity coefficient of 1,4-dimethylbenzene	uncertainty
298	238	0	26.7	3.1

System: 1,2-propanediol + fluorobenzene; phases: Liquid
Property: Activity coefficient of fluorobenzene (Liquid); method: Chromatography
Temperature, K	Pressure, kPa	Mole fraction of fluorobenzene	Activity coefficient of fluorobenzene	uncertainty
298	238	0	8.5	0.5

System: 1,2-propanediol + chlorobenzene; phases: Liquid
Property: Activity coefficient of chlorobenzene (Liquid); method: Chromatography
Temperature, K	Pressure, kPa	Mole fraction of chlorobenzene	Activity coefficient of chlorobenzene	uncertainty
298	238	0	13.6	1.1

System: 1,2-propanediol + naphthalene; phases: Liquid
Property: Activity coefficient of naphthalene (Liquid); method: Chromatography
Temperature, K	Pressure, kPa	Mole fraction of naphthalene	Activity coefficient of naphthalene	uncertainty
298	238	0	136	21

System: 2-methoxyethan-1-ol + hexane; phases: Liquid
Property: Activity coefficient of hexane (Liquid); method: Chromatography
Temperature, K	Pressure, kPa	Mole fraction of hexane	Activity coefficient of hexane	uncertainty
298	238	0	16.3	0.8

System: 2-methoxyethan-1-ol + heptane; phases: Liquid
Property: Activity coefficient of heptane (Liquid); method: Chromatography
Temperature, K	Pressure, kPa	Mole fraction of heptane	Activity coefficient of heptane	uncertainty
298	238	0	22.4	0.9

System: 2-methoxyethan-1-ol + octane; phases: Liquid
Property: Activity coefficient of octane (Liquid); method: Chromatography
Temperature, K	Pressure, kPa	Mole fraction of octane	Activity coefficient of octane	uncertainty
298	238	0	27.9	1

System: 2-methoxyethan-1-ol + nonane; phases: Liquid
Property: Activity coefficient of nonane (Liquid); method: Chromatography
Temperature, K	Pressure, kPa	Mole fraction of nonane	Activity coefficient of nonane	uncertainty
298	238	0	41.4	1.7

System: 2-methoxyethan-1-ol + decane; phases: Liquid
Property: Activity coefficient of decane (Liquid); method: Chromatography
Temperature, K	Pressure, kPa	Mole fraction of decane	Activity coefficient of decane	uncertainty
298	238	0	56.8	2.2

System: 2-methoxyethan-1-ol + undecane; phases: Liquid
Property: Activity coefficient of undecane (Liquid); method: Chromatography
Temperature, K	Pressure, kPa	Mole fraction of undecane	Activity coefficient of undecane	uncertainty
298	238	0	94.6	3.7

System: methylcyclopentane + 2-methoxyethan-1-ol; phases: Liquid
Property: Activity coefficient of methylcyclopentane (Liquid); method: Chromatography
Temperature, K	Pressure, kPa	Mole fraction of methylcyclopentane	Activity coefficient of methylcyclopentane	uncertainty
298	238	0	11	0.7

System: 2-methoxyethan-1-ol + cyclohexane; phases: Liquid
Property: Activity coefficient of cyclohexane (Liquid); method: Chromatography
Temperature, K	Pressure, kPa	Mole fraction of cyclohexane	Activity coefficient of cyclohexane	uncertainty
298	238	0	11.4	0.7

System: methylcyclohexane + 2-methoxyethan-1-ol; phases: Liquid
Property: Activity coefficient of methylcyclohexane (Liquid); method: Chromatography
Temperature, K	Pressure, kPa	Mole fraction of methylcyclohexane	Activity coefficient of methylcyclohexane	uncertainty
298	238	0	14.7	0.9

System: 2-methoxyethan-1-ol + cyclooctane; phases: Liquid
Property: Activity coefficient of cyclooctane (Liquid); method: Chromatography
Temperature, K	Pressure, kPa	Mole fraction of cyclooctane	Activity coefficient of cyclooctane	uncertainty
298	238	0	20.1	0.9

System: 2-methoxyethan-1-ol + cyclohexene; phases: Liquid
Property: Activity coefficient of cyclohexene (Liquid); method: Chromatography
Temperature, K	Pressure, kPa	Mole fraction of cyclohexene	Activity coefficient of cyclohexene	uncertainty
298	238	0	7.4	0.3

System: 2-methoxyethan-1-ol + 1,7-octadiene; phases: Liquid
Property: Activity coefficient of 1,7-octadiene (Liquid); method: Chromatography
Temperature, K	Pressure, kPa	Mole fraction of 1,7-octadiene	Activity coefficient of 1,7-octadiene	uncertainty
298	238	0	10.6	0.5

System: 4-ethenylcyclohexene + 2-methoxyethan-1-ol; phases: Liquid
Property: Activity coefficient of 4-ethenylcyclohexene (Liquid); method: Chromatography
Temperature, K	Pressure, kPa	Mole fraction of 4-ethenylcyclohexene	Activity coefficient of 4-ethenylcyclohexene	uncertainty
298	238	0	8.6	0.3

System: benzene + 2-methoxyethan-1-ol; phases: Liquid
Property: Activity coefficient of benzene (Liquid); method: Chromatography
Temperature, K	Pressure, kPa	Mole fraction of benzene	Activity coefficient of benzene	uncertainty
298	238	0	2.4	0.4

System: toluene + 2-methoxyethan-1-ol; phases: Liquid
Property: Activity coefficient of toluene (Liquid); method: Chromatography
Temperature, K	Pressure, kPa	Mole fraction of toluene	Activity coefficient of toluene	uncertainty
298	238	0	3.6	0.4

System: ethylbenzene + 2-methoxyethan-1-ol; phases: Liquid
Property: Activity coefficient of ethylbenzene (Liquid); method: Chromatography
Temperature, K	Pressure, kPa	Mole fraction of ethylbenzene	Activity coefficient of ethylbenzene	uncertainty
298	238	0	4.9	0.3

System: 1,2-dimethylbenzene + 2-methoxyethan-1-ol; phases: Liquid
Property: Activity coefficient of 1,2-dimethylbenzene (Liquid); method: Chromatography
Temperature, K	Pressure, kPa	Mole fraction of 1,2-dimethylbenzene	Activity coefficient of 1,2-dimethylbenzene	uncertainty
298	238	0	5	0.3

System: 1,3-dimethylbenzene + 2-methoxyethan-1-ol; phases: Liquid
Property: Activity coefficient of 1,3-dimethylbenzene (Liquid); method: Chromatography
Temperature, K	Pressure, kPa	Mole fraction of 1,3-dimethylbenzene	Activity coefficient of 1,3-dimethylbenzene	uncertainty
298	238	0	5.2	0.3

System: 1,4-dimethylbenzene + 2-methoxyethan-1-ol; phases: Liquid
Property: Activity coefficient of 1,4-dimethylbenzene (Liquid); method: Chromatography
Temperature, K	Pressure, kPa	Mole fraction of 1,4-dimethylbenzene	Activity coefficient of 1,4-dimethylbenzene	uncertainty
298	238	0	5.2	0.3

System: 1-(1-methylethyl)-4-methylbenzene + 2-methoxyethan-1-ol; phases: Liquid
Property: Activity coefficient of 1-(1-methylethyl)-4-methylbenzene (Liquid); method: Chromatography
Temperature, K	Pressure, kPa	Mole fraction of 1-(1-methylethyl)-4-methylbenzene	Activity coefficient of 1-(1-methylethyl)-4-methylbenzene	uncertainty
298	238	0	10	0.5

System: 2-methoxyethan-1-ol + fluorobenzene; phases: Liquid
Property: Activity coefficient of fluorobenzene (Liquid); method: Chromatography
Temperature, K	Pressure, kPa	Mole fraction of fluorobenzene	Activity coefficient of fluorobenzene	uncertainty
298	238	0	1.8	0.2

System: chlorobenzene + 2-methoxyethan-1-ol; phases: Liquid
Property: Activity coefficient of chlorobenzene (Liquid); method: Chromatography
Temperature, K	Pressure, kPa	Mole fraction of chlorobenzene	Activity coefficient of chlorobenzene	uncertainty
298	238	0	2.9	0.4

System: bromobenzene + 2-methoxyethan-1-ol; phases: Liquid
Property: Activity coefficient of bromobenzene (Liquid); method: Chromatography
Temperature, K	Pressure, kPa	Mole fraction of bromobenzene	Activity coefficient of bromobenzene	uncertainty
298	238	0	3.5	0.2

System: naphthalene + 2-methoxyethan-1-ol; phases: Liquid
Property: Activity coefficient of naphthalene (Liquid); method: Chromatography
Temperature, K	Pressure, kPa	Mole fraction of naphthalene	Activity coefficient of naphthalene	uncertainty
298	238	0	11	2
