Measured thermophysical data. Solubility of perfumery and fragrance raw materials based on cyclohexane in 1-octanol under ambient and high pressures up to 900 MPa
Source: J. Chem. Thermodyn., 2008, 10.1016/j.jct.2007.10.004
Compound 1: cyclohexanecarboxylic acid, C7H12O2, InChI=1S/C7H12O2/c8-7(9)6-4-2-1-3-5-6/h6H,1-5H2,(H,8,9), purity 98%
Compound 2: cyclohexylethanoic acid, C8H14O2, InChI=1S/C8H14O2/c9-8(10)6-7-4-2-1-3-5-7/h7H,1-6H2,(H,9,10), purity 98%
Compound 3: cyclohexyl ethanoate, C8H14O2, InChI=1S/C8H14O2/c1-7(9)10-8-5-3-2-4-6-8/h8H,2-6H2,1H3, purity 98%
Compound 4: cyclohexylethyl acetate, C10H18O2, InChI=1S/C10H18O2/c1-9(11)12-8-7-10-5-3-2-4-6-10/h10H,2-8H2,1H3, purity 98%
Compound 5: 2-cyclohexylethanol, C8H16O, InChI=1S/C8H16O/c9-7-6-8-4-2-1-3-5-8/h8-9H,1-7H2, purity 98%
Compound 6: octan-1-ol, C8H18O, InChI=1S/C8H18O/c1-2-3-4-5-6-7-8-9/h9H,2-8H2,1H3

System: cyclohexanecarboxylic acid; phases: Crystal, Liquid, Air at 1 atmosphere
Property: Molar enthalpy of transition or fusion, kJ/mol (Crystal); method: DSC
Molar enthalpy of transition or fusion, kJ/mol	uncertainty
9.197	0.274

System: cyclohexanecarboxylic acid; phases: Crystal, Liquid, Air at 1 atmosphere
Property: Normal melting temperature, K (Crystal); method: DTA
Normal melting temperature, K	uncertainty
302.9	0.5

System: cyclohexanecarboxylic acid; phases: Crystal, Liquid
Property: Solid-liquid equilibrium temperature, K (Crystal); method: VISOBS
Pressure, kPa	Solid-liquid equilibrium temperature, K	uncertainty
800	303.15	0.26
31000	313.15	0.52
63000	323.15	0.9
92000	333.15	1.32
121000	343.15	1.72
150000	353.15	2.11

System: cyclohexylethanoic acid; phases: Crystal, Liquid, Air at 1 atmosphere
Property: Molar enthalpy of transition or fusion, kJ/mol (Crystal); method: DSC
Molar enthalpy of transition or fusion, kJ/mol	uncertainty
13.802	0.359

System: cyclohexylethanoic acid; phases: Crystal, Liquid, Air at 1 atmosphere
Property: Normal melting temperature, K (Crystal); method: DTA
Normal melting temperature, K	uncertainty
301.9	0.4

System: cyclohexyl ethanoate; phases: Crystal, Liquid, Air at 1 atmosphere
Property: Molar enthalpy of transition or fusion, kJ/mol (Crystal); method: DSC
Molar enthalpy of transition or fusion, kJ/mol	uncertainty
3.384	0.174

System: cyclohexyl ethanoate; phases: Crystal, Liquid, Air at 1 atmosphere
Property: Normal melting temperature, K (Crystal); method: DTA
Normal melting temperature, K	uncertainty
221.45	0.4

System: cyclohexylethyl acetate; phases: Crystal, Liquid, Air at 1 atmosphere
Property: Normal melting temperature, K (Crystal); method: DTA
Normal melting temperature, K	uncertainty
221.45	0.39

System: octan-1-ol; phases: Crystal, Liquid, Air at 1 atmosphere
Property: Normal melting temperature, K (Crystal); method: VISOBS::UFactor:4
Normal melting temperature, K	uncertainty
258.55	0.62

System: octan-1-ol; phases: Crystal, Liquid
Property: Solid-liquid equilibrium temperature, K (Crystal); method: Closed cell (Static) method
Pressure, kPa	Solid-liquid equilibrium temperature, K	uncertainty
216000	303.15	1.71
268000	313.15	1.94
329000	323.15	2.04
400000	333.15	2.17
480000	343.15	2.32
569000	353.15	2.61

System: cyclohexanecarboxylic acid + octan-1-ol; phases: Crystal, Crystal, Liquid, Air at 1 atmosphere
Property: Eutectic temperature, K (Crystal); method: DTA::
Eutectic temperature, K	uncertainty
251.1	1

System: cyclohexanecarboxylic acid + octan-1-ol; phases: Crystal, Crystal, Liquid, Air at 1 atmosphere
Property: Eutectic composition: mole fraction of cyclohexanecarboxylic acid (Crystal); method: PHASDIA:
Eutectic composition: mole fraction of cyclohexanecarboxylic acid	uncertainty
0.67	0.003

System: cyclohexanecarboxylic acid + octan-1-ol; phases: Liquid, Crystal
Fixed: Pressure, kPa = 101
Property: Solid-liquid equilibrium temperature, K (Liquid); method: VISOBS:UFactor:12
Mole fraction of cyclohexanecarboxylic acid	Solid-liquid equilibrium temperature, K	uncertainty
0	302.94	1.86
0.0375	301.45	1.86
0.078	298.13	1.86
0.1641	293.58	1.86
0.2584	288.91	1.86
0.3323	282.71	1.86
0.3955	278.71	1.86
0.4569	274.29	1.86
0.5263	269.19	1.86
0.5491	266.01	1.86
0.5806	262.7	1.86
0.6543	253.45	1.86

System: cyclohexanecarboxylic acid + octan-1-ol; phases: Liquid, Crystal
Fixed: Pressure, kPa = 101
Property: Solid-liquid equilibrium temperature, K (Liquid); method: VISOBS:UFactor:12
Mole fraction of cyclohexanecarboxylic acid	Solid-liquid equilibrium temperature, K	uncertainty
0.7445	253.99	1.86
0.8402	255.92	1.86
0.9281	257.84	1.86
1	258.55	1.86

System: cyclohexanecarboxylic acid + octan-1-ol; phases: Liquid, Crystal
Property: Vapor or sublimation pressure, kPa (Liquid); method: Closed cell (Static) method
Temperature, K	Mole fraction of octan-1-ol	Vapor or sublimation pressure, kPa	uncertainty
303.15	0	800	600
303.15	0.0824	19000	1000
303.15	0.1237	35000	2000
303.15	0.1799	56000	3000
303.15	0.2504	81000	3000
303.15	0.3189	111000	5000
303.15	0.3992	141000	6000
303.15	0.4646	179000	7000
303.15	0.5245	214000	9000
303.15	0.6007	262000	11000
303.15	0.6582	315000	13000
303.15	0.6899	319000	13000
313.15	0	31000	2000
313.15	0.0824	53000	2000
313.15	0.1237	74000	3000
313.15	0.1799	99000	4000
313.15	0.2504	126000	5000
313.15	0.3189	156000	7000
313.15	0.3992	193000	8000
313.15	0.4646	235000	10000
313.15	0.5245	275000	11000
313.15	0.6007	330000	14000
313.15	0.6582	384000	16000
313.15	0.6899	401000	17000
323.15	0	63000	3000
323.15	0.0824	90000	4000
323.15	0.1237	109000	5000
323.15	0.1799	136000	6000
323.15	0.2504	167000	7000
323.15	0.3189	205000	9000
323.15	0.3992	239000	10000
323.15	0.4646	285000	12000
323.15	0.5245	329000	14000
323.15	0.6007	391000	16000
323.15	0.6582	450000	19000
323.15	0.6899	463000	19000
333.15	0	92000	4000
333.15	0.0824	125000	5000
333.15	0.1237	143000	6000
333.15	0.1799	173000	7000
333.15	0.2504	207000	9000
333.15	0.3189	245000	10000
333.15	0.3992	285000	12000
333.15	0.4646	343000	14000
333.15	0.5245	383000	16000
333.15	0.6007	449000	19000
333.15	0.6582	514000	21000
333.15	0.6899	527000	22000
343.15	0	121000	5000
343.15	0.0824	156000	6000
343.15	0.1237	176000	7000
343.15	0.1799	209000	9000
343.15	0.2504	243000	10000
343.15	0.3189	286000	12000
343.15	0.3992	332000	14000
343.15	0.4646	382000	16000
343.15	0.5245	432000	18000
343.15	0.6007	510000	21000
343.15	0.6582	585000	24000
343.15	0.6899	616000	25000
353.15	0	150000	6000
353.15	0.0824	188000	8000
353.15	0.1237	208000	9000
353.15	0.1799	240000	10000
353.15	0.2504	276000	11000
353.15	0.3189	325000	13000
353.15	0.3992	370000	15000
353.15	0.4646	427000	18000
353.15	0.5245	491000	20000
353.15	0.6007	580000	24000
353.15	0.6582	653000	27000
353.15	0.6899	695000	29000

System: cyclohexanecarboxylic acid + octan-1-ol; phases: Liquid, Crystal
Property: Vapor or sublimation pressure, kPa (Liquid); method: Closed cell (Static) method
Temperature, K	Mole fraction of octan-1-ol	Vapor or sublimation pressure, kPa	uncertainty
303.15	0.7283	300000	12000
303.15	0.8043	265000	11000
303.15	0.9023	239000	10000
303.15	0.9828	217000	9000
303.15	1	216000	9000
313.15	0.7283	376000	16000
313.15	0.8043	327000	14000
313.15	0.9023	290000	12000
313.15	0.9828	273000	11000
313.15	1	268000	11000
323.15	0.7283	443000	18000
323.15	0.8043	399000	17000
323.15	0.9023	365000	15000
323.15	0.9828	331000	14000
323.15	1	329000	14000
333.15	0.7283	525000	22000
333.15	0.8043	480000	20000
333.15	0.9023	436000	18000
333.15	0.9828	401000	17000
333.15	1	400000	17000
343.15	0.7283	627000	26000
343.15	0.8043	551000	23000
343.15	0.9023	514000	21000
343.15	0.9828	482000	20000
343.15	1	480000	20000
353.15	0.7283	729000	30000
353.15	0.8043	651000	27000
353.15	0.9023	608000	25000
353.15	0.9828	571000	24000
353.15	1	569000	24000

System: octan-1-ol + cyclohexylethanoic acid; phases: Crystal, Crystal, Liquid, Air at 1 atmosphere
Property: Eutectic temperature, K (Crystal); method: DTA::
Eutectic temperature, K	uncertainty
251.7	1

System: octan-1-ol + cyclohexylethanoic acid; phases: Crystal, Crystal, Liquid, Air at 1 atmosphere
Property: Eutectic composition: mole fraction of octan-1-ol (Crystal); method: PHASDIA:
Eutectic composition: mole fraction of octan-1-ol	uncertainty
0.72	0.003

System: octan-1-ol + cyclohexylethanoic acid; phases: Liquid, Crystal
Fixed: Pressure, kPa = 101
Property: Solid-liquid equilibrium temperature, K (Liquid); method: VISOBS:UFactor:4
Mole fraction of octan-1-ol	Solid-liquid equilibrium temperature, K	uncertainty
0	302.87	0.62
0.0502	300.33	0.62
0.1287	296.58	0.62
0.225	292.24	0.62
0.2939	288.42	0.62
0.3556	285.19	0.62
0.4216	281.04	0.62
0.4759	277.8	0.62
0.5256	273.52	0.62
0.5321	273.33	0.62
0.5785	269.3	0.62
0.6107	265.6	0.62
0.6241	264.89	0.62
0.6728	259.75	0.62
0.6922	255.77	0.63

System: octan-1-ol + cyclohexylethanoic acid; phases: Liquid, Crystal
Fixed: Pressure, kPa = 101
Property: Solid-liquid equilibrium temperature, K (Liquid); method: VISOBS:UFactor:4
Mole fraction of octan-1-ol	Solid-liquid equilibrium temperature, K	uncertainty
0.7485	252.9	0.62
0.8072	255.77	0.62
0.8683	257.33	0.62
0.9501	258.35	0.62
1	258.55	0.62

System: octan-1-ol + cyclohexyl ethanoate; phases: Liquid, Crystal
Fixed: Pressure, kPa = 101
Property: Solid-liquid equilibrium temperature, K (Liquid); method: VISOBS:UFactor:4
Mole fraction of octan-1-ol	Solid-liquid equilibrium temperature, K	uncertainty
0.0843	235.79	0.62
0.1161	238.87	0.62
0.1596	241.87	0.62
0.2047	244.39	0.62
0.2375	245.31	0.62
0.2681	246.24	0.62
0.3021	246.89	0.62
0.3402	247.67	0.62
0.3755	248.5	0.62
0.4234	249.41	0.62
0.468	250.05	0.62
0.5114	250.7	0.62
0.5583	251.84	0.62
0.6054	252.68	0.62
0.6633	253.76	0.62
0.732	254.63	0.62
0.7896	255.44	0.62
0.8669	256.59	0.62
0.9448	257.85	0.62
1	258.55	0.62

System: octan-1-ol + cyclohexylethyl acetate; phases: Liquid, Crystal
Fixed: Pressure, kPa = 101
Property: Solid-liquid equilibrium temperature, K (Liquid); method: VISOBS:UFactor:4
Mole fraction of octan-1-ol	Solid-liquid equilibrium temperature, K	uncertainty
0.1112	239.48	0.62
0.1665	242.97	0.62
0.2153	245.06	0.62
0.2739	246.97	0.62
0.3455	248.43	0.62
0.4312	250.55	0.62
0.5279	252	0.62
0.6392	253.59	0.62
0.7276	254.75	0.62
0.8001	255.67	0.62
0.8555	256.82	0.62
0.907	257.55	0.62
0.9638	258.23	0.62
1	258.55	0.62

System: octan-1-ol + 2-cyclohexylethanol; phases: Liquid, Crystal
Fixed: Pressure, kPa = 101
Property: Solid-liquid equilibrium temperature, K (Liquid); method: VISOBS:UFactor:4
Mole fraction of octan-1-ol	Solid-liquid equilibrium temperature, K	uncertainty
0.5145	246.09	0.62
0.5641	248.27	0.62
0.6297	250.43	0.62
0.6918	252.02	0.62
0.7562	253.87	0.62
0.809	255.39	0.62
0.8739	257.02	0.62
0.9368	258.07	0.62
1	258.55	0.62
