Measured thermophysical data. Apparent molar volumes, expansibilities, and isentropic compressibilities of selected electrolytes in methanol
Source: J. Chem. Thermodyn., 2008, 10.1016/j.jct.2008.04.008
Compound 1: tetraphenylphosphorane bromide, C24H20BrP, InChI=1S/C24H20P.BrH/c1-5-13-21(14-6-1)25(22-15-7-2-8-16-22,23-17-9-3-10-18-23)24-19-11-4-12-20-24;/h1-20H;1H/q+1;/p-1
Compound 2: sodium tetraphenylboron, C24H20BNa, InChI=1S/C24H20B.Na/c1-5-13-21(14-6-1)25(22-15-7-2-8-16-22,23-17-9-3-10-18-23)24-19-11-4-12-20-24;/h1-20H;/q-1;+1
Compound 3: sodium bromide, BrNa, InChI=1S/BrH.Na/h1H;/q;+1/p-1
Compound 4: sodium perchlorate, ClNaO4, InChI=1S/ClHO4.Na/c2-1(3,4)5;/h(H,2,3,4,5);/q;+1/p-1
Compound 5: methanol, CH4O, InChI=1S/CH4O/c1-2/h2H,1H3

System: methanol; phases: Liquid
Property: Speed of sound, m/s (Liquid); method: Pulse-echo method
Temperature, K	Pressure, kPa	Speed of sound, m/s	uncertainty
298.15	101.325	1102.41	0.91

System: methanol; phases: Liquid, Air at 1 atmosphere
Property: Mass density, kg/m3 (Liquid); method: VIBTUB:UFactor:2
Temperature, K	Mass density, kg/m3	uncertainty
283.15	800.625	0.294
283.15	800.568	0.295
283.15	800.575	0.306
283.15	800.567	0.322
288.15	795.934	0.299
288.15	795.879	0.3
288.15	795.888	0.311
288.15	795.88	0.326
293.15	791.243	0.303
293.15	791.184	0.305
293.15	791.194	0.315
298.15	786.534	0.308
298.15	786.475	0.309
298.15	786.485	0.32
303.15	781.808	0.313
303.15	781.746	0.314
303.15	781.758	0.325
303.15	781.748	0.339
308.15	777.058	0.317
308.15	776.997	0.318
308.15	777.007	0.329
313.15	772.28	0.322
313.15	772.219	0.323
313.15	772.229	0.334

System: methanol + sodium bromide; phases: Liquid, Air at 1 atmosphere
Fixed: Temperature, K = 298.15
Property: Speed of sound, m/s (Liquid); method: Pulse-echo method
Molality, mol/kg of sodium bromide	Speed of sound, m/s	uncertainty
0.06477	1106.06	0.91
0.08313	1107.07	0.91
0.1039	1107.69	0.91
0.1241	1108.71	0.91
0.1439	1109.12	0.91
0.2071	1111.78	0.91
0.2491	1113.22	0.91
0.2915	1114.87	0.91
0.3318	1116.12	0.92
0.3735	1117.57	0.92
0.4167	1119.23	0.92

System: methanol + sodium bromide; phases: Liquid, Air at 1 atmosphere
Property: Mass density, kg/m3 (Liquid); method: VIBTUB:UFactor:2
Molality, mol/kg of sodium bromide	Temperature, K	Mass density, kg/m3	uncertainty
0	283.15	800.625	0.294
0	288.15	795.934	0.299
0	293.15	791.243	0.303
0	298.15	786.534	0.308
0	303.15	781.808	0.313
0	308.15	777.058	0.317
0	313.15	772.28	0.322
0.06477	283.15	805.613	0.289
0.06477	288.15	800.933	0.294
0.06477	293.15	796.252	0.299
0.06477	298.15	791.558	0.303
0.06477	303.15	786.848	0.308
0.06477	308.15	782.114	0.313
0.06477	313.15	777.354	0.317
0.08313	283.15	807.039	0.288
0.08313	288.15	802.363	0.292
0.08313	293.15	797.683	0.297
0.08313	298.15	792.99	0.302
0.08313	303.15	788.28	0.306
0.08313	308.15	783.548	0.311
0.08313	313.15	778.794	0.316
0.1039	283.15	808.613	0.286
0.1039	288.15	803.939	0.291
0.1039	293.15	799.259	0.295
0.1039	298.15	794.566	0.3
0.1039	303.15	789.865	0.305
0.1039	308.15	785.138	0.309
0.1039	313.15	780.385	0.314
0.1241	283.15	810.154	0.285
0.1241	288.15	805.482	0.289
0.1241	293.15	800.807	0.294
0.1241	298.15	796.119	0.299
0.1241	303.15	791.41	0.303
0.1439	283.15	811.667	0.283
0.1439	288.15	806.995	0.288
0.1439	293.15	802.323	0.292
0.1439	298.15	797.64	0.297
0.1439	303.15	792.938	0.302
0.1439	308.15	788.218	0.306
0.1439	313.15	783.471	0.311
0.1639	283.15	813.155	0.282
0.1639	288.15	808.489	0.286
0.1639	293.15	803.818	0.291
0.1639	298.15	799.135	0.296
0.1639	303.15	794.436	0.3
0.1639	308.15	789.716	0.305
0.1639	313.15	784.971	0.31
0.2071	283.15	816.441	0.279
0.2071	288.15	811.772	0.283
0.2071	293.15	807.109	0.288
0.2071	298.15	802.43	0.292
0.2071	303.15	797.736	0.297
0.2071	308.15	793.019	0.302
0.2071	313.15	788.281	0.306
0.2491	283.15	819.583	0.276
0.2491	288.15	814.916	0.28
0.2491	293.15	810.253	0.285
0.2491	298.15	805.577	0.289
0.2491	303.15	800.887	0.294
0.2491	308.15	796.174	0.299
0.2491	313.15	791.44	0.303
0.2915	283.15	822.759	0.273
0.2915	288.15	818.104	0.277
0.2915	293.15	813.441	0.282
0.2915	298.15	808.767	0.286
0.2915	303.15	804.078	0.291
0.2915	308.15	799.369	0.296
0.2915	313.15	794.64	0.3
0.3318	283.15	825.782	0.27
0.3318	288.15	821.118	0.275
0.3318	293.15	816.459	0.279
0.3318	298.15	811.79	0.284
0.3318	303.15	807.103	0.288
0.3318	308.15	802.396	0.293
0.3318	313.15	797.671	0.297
0.3735	283.15	828.905	0.267
0.3735	288.15	824.245	0.272
0.3735	293.15	819.585	0.276
0.3735	298.15	814.919	0.281
0.3735	303.15	810.236	0.285
0.3735	308.15	805.533	0.29
0.3735	313.15	800.808	0.294
0.4167	283.15	832.098	0.264
0.4167	288.15	827.443	0.268
0.4167	293.15	822.783	0.273
0.4167	298.15	818.116	0.277
0.4167	303.15	813.434	0.282
0.4167	308.15	808.735	0.287
0.4167	313.15	804.019	0.291

System: methanol + sodium perchlorate; phases: Liquid, Air at 1 atmosphere
Fixed: Temperature, K = 298.15
Property: Speed of sound, m/s (Liquid); method: Pulse-echo method
Molality, mol/kg of sodium perchlorate	Speed of sound, m/s	uncertainty
0.06243	1106.67	0.91
0.0815	1107.69	0.91
0.1008	1108.92	0.91
0.1221	1110.14	0.91
0.1416	1111.17	0.91
0.1625	1112.41	0.91
0.2036	1115.09	0.92
0.2459	1116.95	0.92
0.2865	1119.03	0.92
0.3276	1121.33	0.92
0.3701	1123.64	0.92
0.412	1125.53	0.92

System: methanol + sodium perchlorate; phases: Liquid, Air at 1 atmosphere
Property: Mass density, kg/m3 (Liquid); method: VIBTUB:UFactor:2
Molality, mol/kg of sodium perchlorate	Temperature, K	Mass density, kg/m3	uncertainty
0	283.15	800.568	0.295
0	288.15	795.879	0.3
0	293.15	791.184	0.305
0	298.15	786.475	0.309
0	303.15	781.746	0.314
0	308.15	776.997	0.318
0	313.15	772.219	0.323
0.06243	283.15	805.671	0.291
0.06243	288.15	800.986	0.295
0.06243	293.15	796.296	0.3
0.06243	298.15	791.593	0.304
0.06243	303.15	786.871	0.309
0.06243	308.15	782.134	0.314
0.06243	313.15	777.365	0.318
0.0815	283.15	807.203	0.289
0.0815	288.15	802.517	0.293
0.0815	293.15	797.826	0.298
0.0815	298.15	793.122	0.303
0.0815	303.15	788.409	0.307
0.0815	308.15	783.67	0.312
0.0815	313.15	778.903	0.316
0.1008	283.15	808.744	0.287
0.1008	288.15	804.058	0.292
0.1008	293.15	799.365	0.296
0.1008	298.15	794.669	0.301
0.1008	303.15	789.952	0.306
0.1008	308.15	785.213	0.31
0.1008	313.15	780.447	0.315
0.1221	283.15	810.429	0.286
0.1221	288.15	805.746	0.29
0.1221	293.15	801.058	0.295
0.1221	298.15	796.356	0.299
0.1221	303.15	791.635	0.304
0.1221	308.15	786.904	0.309
0.1221	313.15	782.14	0.313
0.1416	283.15	811.984	0.285
0.1416	288.15	807.3	0.289
0.1416	293.15	802.609	0.294
0.1416	298.15	797.903	0.298
0.1416	303.15	793.191	0.303
0.1416	308.15	788.455	0.307
0.1416	313.15	783.694	0.312
0.1625	283.15	813.649	0.283
0.1625	288.15	808.965	0.287
0.1625	293.15	804.274	0.292
0.1625	298.15	799.57	0.296
0.1625	303.15	794.858	0.301
0.1625	308.15	790.121	0.306
0.1625	313.15	785.36	0.31
0.2036	283.15	816.875	0.28
0.2036	288.15	812.189	0.284
0.2036	293.15	807.5	0.289
0.2036	298.15	802.798	0.293
0.2036	303.15	798.077	0.298
0.2036	308.15	793.334	0.303
0.2036	313.15	788.581	0.307
0.2459	283.15	820.175	0.277
0.2459	288.15	815.49	0.281
0.2459	293.15	810.8	0.286
0.2459	298.15	806.099	0.29
0.2459	303.15	801.382	0.295
0.2459	308.15	796.642	0.299
0.2459	313.15	791.885	0.304
0.2865	283.15	823.32	0.274
0.2865	288.15	818.628	0.278
0.2865	293.15	813.937	0.283
0.2865	298.15	809.237	0.287
0.2865	303.15	804.52	0.292
0.2865	308.15	799.783	0.297
0.2865	313.15	795.021	0.301
0.3276	283.15	826.533	0.271
0.3276	288.15	821.841	0.275
0.3276	293.15	817.143	0.28
0.3276	298.15	812.442	0.284
0.3276	303.15	807.725	0.289
0.3276	308.15	802.987	0.294
0.3276	313.15	798.225	0.298
0.3701	283.15	829.792	0.268
0.3701	288.15	825.099	0.272
0.3701	293.15	820.402	0.277
0.3701	298.15	815.691	0.281
0.3701	303.15	810.974	0.286
0.3701	308.15	806.236	0.29
0.3701	313.15	801.475	0.295
0.412	283.15	832.991	0.265
0.412	288.15	828.296	0.269
0.412	293.15	823.6	0.274
0.412	298.15	818.891	0.278
0.412	303.15	814.168	0.283
0.412	308.15	809.417	0.288
0.412	313.15	804.668	0.292

System: methanol + sodium tetraphenylboron; phases: Liquid, Air at 1 atmosphere
Fixed: Temperature, K = 298.15
Property: Speed of sound, m/s (Liquid); method: Pulse-echo method
Molality, mol/kg of sodium tetraphenylboron	Speed of sound, m/s	uncertainty
0.06567	1114.06	0.91
0.07566	1115.71	0.91
0.09526	1119.03	0.92
0.1146	1122.38	0.92
0.1339	1125.74	0.92
0.1529	1128.28	0.92
0.173	1131.68	0.92
0.1931	1135.53	0.93

System: methanol + sodium tetraphenylboron; phases: Liquid, Air at 1 atmosphere
Property: Mass density, kg/m3 (Liquid); method: VIBTUB:UFactor:2
Molality, mol/kg of sodium tetraphenylboron	Temperature, K	Mass density, kg/m3	uncertainty
0	283.15	800.575	0.306
0	288.15	795.888	0.311
0	293.15	791.194	0.315
0	298.15	786.485	0.32
0	303.15	781.758	0.325
0	308.15	777.007	0.329
0	313.15	772.229	0.334
0.02864	283.15	803.855	0.303
0.02864	288.15	799.183	0.308
0.02864	293.15	794.505	0.312
0.02864	298.15	789.813	0.317
0.02864	303.15	785.107	0.321
0.02864	308.15	780.377	0.326
0.02864	313.15	775.618	0.331
0.03742	283.15	804.851	0.301
0.03742	288.15	800.185	0.306
0.03742	293.15	795.511	0.311
0.03742	298.15	790.825	0.315
0.03742	303.15	786.118	0.32
0.03742	308.15	781.392	0.324
0.03742	313.15	776.646	0.329
0.04715	283.15	805.936	0.3
0.04715	288.15	801.274	0.305
0.04715	293.15	796.607	0.309
0.04715	298.15	791.928	0.314
0.04715	303.15	787.23	0.319
0.04715	308.15	782.507	0.323
0.05653	283.15	806.979	0.299
0.05653	288.15	802.323	0.304
0.05653	293.15	797.659	0.308
0.05653	298.15	792.985	0.313
0.05653	303.15	788.298	0.317
0.05653	308.15	783.585	0.322
0.05653	313.15	778.847	0.327
0.06567	283.15	807.991	0.298
0.06567	288.15	803.338	0.303
0.06567	293.15	798.679	0.307
0.06567	298.15	794.015	0.312
0.06567	303.15	789.33	0.316
0.06567	308.15	784.622	0.321
0.06567	313.15	779.888	0.326
0.07566	283.15	809.099	0.297
0.07566	288.15	804.455	0.301
0.07566	293.15	799.8	0.306
0.07566	298.15	795.14	0.31
0.07566	303.15	790.46	0.315
0.07566	308.15	785.759	0.32
0.07566	313.15	781.031	0.324
0.09526	283.15	811.246	0.295
0.09526	288.15	806.611	0.299
0.09526	293.15	801.967	0.304
0.09526	298.15	797.318	0.308
0.09526	303.15	792.652	0.313
0.09526	308.15	787.962	0.317
0.09526	313.15	783.246	0.322
0.1146	283.15	813.35	0.292
0.1146	288.15	808.726	0.297
0.1146	293.15	804.095	0.302
0.1146	298.15	799.453	0.306
0.1146	303.15	794.791	0.311
0.1146	308.15	790.107	0.315
0.1146	313.15	785.409	0.32
0.1339	283.15	815.434	0.29
0.1339	288.15	810.82	0.294
0.1339	293.15	806.2	0.299
0.1339	298.15	801.569	0.304
0.1339	303.15	796.921	0.308
0.1339	308.15	792.253	0.313
0.1339	313.15	787.56	0.317
0.1529	283.15	817.425	0.288
0.1529	288.15	812.819	0.293
0.1529	293.15	808.212	0.297
0.1529	298.15	803.59	0.302
0.1529	303.15	798.952	0.306
0.1529	308.15	794.294	0.311
0.1529	313.15	789.61	0.315
0.173	283.15	819.579	0.282
0.173	288.15	814.984	0.291
0.173	293.15	810.383	0.295
0.173	298.15	805.772	0.3
0.173	303.15	801.145	0.304
0.173	308.15	796.5	0.309
0.173	313.15	791.829	0.305
0.1931	283.15	821.677	0.284
0.1931	288.15	817.092	0.288
0.1931	293.15	812.503	0.293
0.1931	298.15	807.899	0.297
0.1931	303.15	803.28	0.302
0.1931	308.15	798.648	0.306
0.1931	313.15	793.987	0.311

System: methanol + tetraphenylphosphorane bromide; phases: Liquid, Air at 1 atmosphere
Fixed: Temperature, K = 298.15
Property: Speed of sound, m/s (Liquid); method: Pulse-echo method
Molality, mol/kg of tetraphenylphosphorane bromide	Speed of sound, m/s	uncertainty
0.0261	1106.47	0.91
0.03452	1107.69	0.91
0.04277	1109.12	0.91
0.05089	1110.14	0.91
0.05974	1111.38	0.91
0.06826	1112.82	0.92
0.08592	1115.3	0.92
0.1039	1117.79	0.92
0.1212	1119.87	0.92
0.1384	1122.38	0.92
0.1565	1124.69	0.93
0.1747	1127.01	0.93

System: methanol + tetraphenylphosphorane bromide; phases: Liquid, Air at 1 atmosphere
Property: Mass density, kg/m3 (Liquid); method: VIBTUB:UFactor:2
Molality, mol/kg of tetraphenylphosphorane bromide	Temperature, K	Mass density, kg/m3	uncertainty
0	283.15	800.567	0.322
0	288.15	795.88	0.326
0	293.15	791.184	0.33
0	298.15	786.475	0.335
0	303.15	781.748	0.339
0	308.15	776.997	0.344
0	313.15	772.219	0.348
0.0261	283.15	804.518	0.318
0.0261	288.15	799.837	0.323
0.0261	293.15	795.15	0.327
0.0261	298.15	790.45	0.331
0.0261	303.15	785.734	0.336
0.0261	308.15	780.996	0.34
0.0261	313.15	776.229	0.345
0.03452	283.15	805.776	0.317
0.03452	288.15	801.095	0.321
0.03452	293.15	796.408	0.325
0.03452	298.15	791.716	0.33
0.03452	303.15	787.003	0.334
0.03452	308.15	782.267	0.338
0.03452	313.15	777.504	0.343
0.04277	283.15	807.01	0.315
0.04277	288.15	802.333	0.32
0.04277	293.15	797.652	0.324
0.04277	298.15	792.957	0.328
0.04277	303.15	788.242	0.333
0.04277	308.15	783.515	0.337
0.04277	313.15	778.757	0.342
0.05089	283.15	808.208	0.313
0.05089	288.15	803.532	0.318
0.05089	293.15	798.856	0.322
0.05089	298.15	794.167	0.326
0.05089	303.15	789.459	0.331
0.05089	308.15	784.728	0.335
0.05089	313.15	779.972	0.34
0.06826	283.15	810.754	0.311
0.06826	288.15	806.084	0.315
0.06826	293.15	801.412	0.32
0.06826	298.15	796.727	0.324
0.06826	303.15	792.025	0.328
0.06826	308.15	787.301	0.333
0.06826	313.15	782.553	0.337
0.08592	283.15	813.321	0.308
0.08592	288.15	808.661	0.313
0.08592	293.15	803.994	0.317
0.08592	298.15	799.314	0.321
0.08592	303.15	794.618	0.326
0.08592	308.15	789.901	0.33
0.08592	313.15	785.158	0.334
0.1039	283.15	815.894	0.306
0.1039	288.15	811.236	0.31
0.1039	293.15	806.575	0.314
0.1039	298.15	801.901	0.318
0.1039	303.15	797.21	0.323
0.1039	308.15	792.499	0.327
0.1039	313.15	787.763	0.332
0.1212	283.15	818.357	0.303
0.1212	288.15	813.704	0.308
0.1212	293.15	809.048	0.312
0.1212	298.15	804.378	0.316
0.1212	303.15	799.693	0.321
0.1212	308.15	794.987	0.325
0.1212	313.15	790.256	0.329
0.1384	283.15	820.799	0.301
0.1384	288.15	816.147	0.305
0.1384	293.15	811.492	0.309
0.1384	298.15	806.831	0.313
0.1384	303.15	802.152	0.318
0.1384	308.15	797.452	0.322
0.1384	313.15	792.728	0.327
0.1565	283.15	823.304	0.298
0.1565	288.15	818.656	0.302
0.1565	293.15	814.011	0.307
0.1565	298.15	809.353	0.311
0.1565	303.15	804.679	0.315
0.1565	308.15	799.985	0.32
0.1565	313.15	795.267	0.324
0.1747	283.15	825.843	0.296
0.1747	288.15	821.2	0.301
0.1747	293.15	816.556	0.305
0.1747	298.15	811.905	0.309
0.1747	303.15	807.237	0.313
0.1747	308.15	802.548	0.318
0.1747	313.15	797.837	0.322
