Measured thermophysical data. Equilibrium interfacial tension and the influence of extreme dilutions of uni-univalent salts: An expression of the "Jones-Ray effect"
Source: J. Chem. Thermodyn., 2012, 10.1016/j.jct.2012.04.012
Compound 1: toluene, C7H8, InChI=1S/C7H8/c1-7-5-3-2-4-6-7/h2-6H,1H3, purity 99.9%
Compound 2: water, H2O, InChI=1S/H2O/h1H2, purity 99.9%
Compound 3: sodium chloride, ClNa, InChI=1S/ClH.Na/h1H;/q;+1/p-1, purity 99.8%
Compound 4: potassium chloride, ClK, InChI=1S/ClH.K/h1H;/q;+1/p-1, purity 99.5%
Compound 5: potassium iodide, IK, InChI=1S/HI.K/h1H;/q;+1/p-1, purity 99.5%

System: toluene + sodium chloride + water; phases: Liquid, Liquid mixture 2
Fixed: Pressure, kPa = 101
Property: Interfacial tension, N/m (Liquid); method: Drop weight
Temperature, K	Amount concentration (molarity), mol/dm3 of sodium chloride	Interfacial tension, N/m	uncertainty
293.15	0	0.03749	0.00036
293.15	1e-06	0.03742	0.00035
293.15	5e-06	0.03735	0.00035
293.15	1e-05	0.03729	0.00035
293.15	2.5e-05	0.03715	0.00035
293.15	5e-05	0.03708	0.00035
298.15	0	0.03661	0.00035
298.15	1e-06	0.03654	0.00035
298.15	5e-06	0.03647	0.00035
298.15	1e-05	0.0364	0.00035
298.15	2.5e-05	0.03626	0.00035
298.15	5e-05	0.03619	0.00034
303.15	0	0.03586	0.00034
303.15	1e-06	0.03578	0.00034
303.15	5e-06	0.03571	0.00034
303.15	1e-05	0.03564	0.00034
303.15	2.5e-05	0.0355	0.00034
303.15	5e-05	0.03543	0.00034
308.15	0	0.03511	0.00034
308.15	1e-06	0.03504	0.00034
308.15	5e-06	0.03496	0.00033
308.15	1e-05	0.03489	0.00033
308.15	2.5e-05	0.03474	0.00033
308.15	5e-05	0.03467	0.00033
313.15	0	0.0344	0.00033
313.15	1e-06	0.03433	0.00033
313.15	5e-06	0.03425	0.00033
313.15	1e-05	0.03418	0.00033
313.15	2.5e-05	0.03403	0.00033
313.15	5e-05	0.03395	0.00033
323.15	0	0.03307	0.00032
323.15	1e-06	0.03299	0.00032
323.15	5e-06	0.03291	0.00032
323.15	1e-05	0.03284	0.00032
323.15	2.5e-05	0.03268	0.00032
323.15	5e-05	0.0326	0.00032

System: toluene + potassium chloride + water; phases: Liquid, Liquid mixture 2
Fixed: Pressure, kPa = 101
Property: Interfacial tension, N/m (Liquid); method: Drop weight
Temperature, K	Amount concentration (molarity), mol/dm3 of potassium chloride	Interfacial tension, N/m	uncertainty
293.15	0	0.03749	0.00036
293.15	1e-06	0.03742	0.00036
293.15	5e-06	0.03735	0.00036
293.15	1e-05	0.03729	0.00036
293.15	2.5e-05	0.03715	0.00035
293.15	5e-05	0.03708	0.00035
298.15	0	0.03661	0.00035
298.15	1e-06	0.03654	0.00035
298.15	5e-06	0.03647	0.00035
298.15	1e-05	0.0364	0.00035
298.15	2.5e-05	0.03626	0.00035
298.15	5e-05	0.03619	0.00035
303.15	0	0.03586	0.00034
303.15	1e-06	0.03579	0.00034
303.15	5e-06	0.03571	0.00034
303.15	1e-05	0.03564	0.00034
303.15	2.5e-05	0.0355	0.00034
303.15	5e-05	0.03543	0.00034
308.15	0	0.03511	0.00034
308.15	1e-06	0.03504	0.00034
308.15	5e-06	0.03496	0.00034
308.15	1e-05	0.03489	0.00034
308.15	2.5e-05	0.03474	0.00033
308.15	5e-05	0.03467	0.00033
313.15	0	0.0344	0.00033
313.15	1e-06	0.03433	0.00033
313.15	5e-06	0.03425	0.00033
313.15	1e-05	0.03418	0.00033
313.15	2.5e-05	0.03403	0.00033
313.15	5e-05	0.03395	0.00033
323.15	0	0.03307	0.00032
323.15	1e-06	0.03299	0.00032
323.15	5e-06	0.03292	0.00032
323.15	1e-05	0.03276	0.00032
323.15	2.5e-05	0.0326	0.00032
323.15	5e-05	0.03253	0.00032

System: toluene + potassium iodide + water; phases: Liquid, Liquid mixture 2
Fixed: Pressure, kPa = 101
Property: Interfacial tension, N/m (Liquid); method: Drop weight
Temperature, K	Amount concentration (molarity), mol/dm3 of potassium iodide	Interfacial tension, N/m	uncertainty
293.15	0	0.03749	0.00036
293.15	1e-06	0.03742	0.00036
293.15	5e-06	0.03729	0.00036
293.15	1e-05	0.03715	0.00035
293.15	2.5e-05	0.03701	0.00035
293.15	5e-05	0.03688	0.00035
298.15	0	0.03661	0.00035
298.15	1e-06	0.03654	0.00035
298.15	5e-06	0.0364	0.00035
298.15	1e-05	0.03626	0.00035
298.15	2.5e-05	0.03612	0.00035
298.15	5e-05	0.03598	0.00034
303.15	0	0.03586	0.00034
303.15	1e-06	0.03579	0.00034
303.15	5e-06	0.03564	0.00034
303.15	1e-05	0.0355	0.00034
303.15	2.5e-05	0.03535	0.00034
303.15	5e-05	0.03521	0.00034
308.15	0	0.03511	0.00034
308.15	1e-06	0.03496	0.00034
308.15	5e-06	0.03489	0.00034
308.15	1e-05	0.03474	0.00033
308.15	2.5e-05	0.0346	0.00033
308.15	5e-05	0.03445	0.00033
313.15	0	0.0344	0.00033
313.15	1e-06	0.03425	0.00033
313.15	5e-06	0.03418	0.00033
313.15	1e-05	0.03403	0.00033
313.15	2.5e-05	0.0338	0.00033
313.15	5e-05	0.03365	0.00033
323.15	0	0.03307	0.00032
323.15	1e-06	0.03292	0.00032
323.15	5e-06	0.03284	0.00032
323.15	1e-05	0.0326	0.00032
323.15	2.5e-05	0.03237	0.00032
323.15	5e-05	0.03221	0.00032

System: toluene + water; phases: Liquid, Liquid
Fixed: Pressure, kPa = 101
Property: Interfacial tension, N/m (Liquid); method: Drop weight
Temperature, K	Interfacial tension, N/m	uncertainty
293.15	0.03749	0.00036
298.15	0.03661	0.00035
303.15	0.03586	0.00034
308.15	0.03511	0.00034
313.15	0.0344	0.00033
323.15	0.03307	0.00032
