Measured thermophysical data. Thermodynamic analysis of unimer-micelle and sphere-to-rod micellar transitions of aqueous solutions of sodium dodecylbenzenesulfonate
Source: J. Chem. Thermodyn., 2014, 10.1016/j.jct.2014.05.001
Compound 1: water, H2O, InChI=1S/H2O/h1H2, purity 99.9%

System: water; phases: Liquid, Air at 1 atmosphere
Property: Surface tension liquid-gas, N/m (Liquid); method: Ring tensiometer
Temperature, K	Surface tension liquid-gas, N/m	uncertainty
298.15	0.072	0.0009
303.15	0.0711	0.0009
308.15	0.0703	0.0009
313.15	0.0694	0.0009
