Measured thermophysical data. Densities, viscosities, and refractive indices of the binary systems (PEG200 + 1,2-propanediol, +1,3-propanediol) and (PEG400 + 1,2-propanediol, +1,3-propanediol) at (288.15 to 333.15) K and atmospheric pressure: Measurements and modeling
Source: J. Chem. Thermodyn., 2013, 10.1016/j.jct.2012.07.024
Compound 1: 1,2-propanediol, C3H8O2, InChI=1S/C3H8O2/c1-3(5)2-4/h3-5H,2H2,1H3, purity 99.5%
Compound 2: propan-1,3-diol, C3H8O2, InChI=1S/C3H8O2/c4-2-1-3-5/h4-5H,1-3H2, purity 98%

System: 1,2-propanediol; phases: Liquid
Fixed: Pressure, kPa = 101.325
Property: Mass density, kg/m3 (Liquid); method: Vibrating tube method
Temperature, K	Mass density, kg/m3	uncertainty
288.15	1039.871	0.136
293.15	1036.247	0.135
298.15	1032.588	0.134
303.15	1028.881	0.133
308.15	1025.137	0.132
313.15	1021.351	0.131
318.15	1017.524	0.13
323.15	1013.656	0.128
328.15	1009.745	0.127
333.15	1005.793	0.126

System: 1,2-propanediol; phases: Liquid
Fixed: Pressure, kPa = 101.325
Property: Refractive index (Na D-line) (Liquid); method: Standard Abbe refractometry
Temperature, K	Refractive index (Na D-line)	uncertainty
288.15	1.43425	0.00033
293.15	1.4326	0.00033
298.15	1.43093	0.00033
303.15	1.42927	0.00033
308.15	1.4276	0.00033
313.15	1.4259	0.00033
318.15	1.42422	0.00033
323.15	1.42252	0.00033
328.15	1.42078	0.00033
333.15	1.41909	0.00033

System: 1,2-propanediol; phases: Liquid
Fixed: Pressure, kPa = 101.325
Property: Viscosity, Pa*s (Liquid); method: Concentric cylinders viscometry
Temperature, K	Viscosity, Pa*s	uncertainty
288.15	0.082862	0.001752
293.15	0.059845	0.001216
298.15	0.044191	0.000901
303.15	0.033289	0.000679
308.15	0.025541	0.000521
313.15	0.019925	0.000407
318.15	0.015792	0.000322
323.15	0.012759	0.00026
328.15	0.010347	0.000211
333.15	0.0085862	0.0001754

System: propan-1,3-diol; phases: Liquid
Fixed: Pressure, kPa = 101.325
Property: Mass density, kg/m3 (Liquid); method: Vibrating tube method
Temperature, K	Mass density, kg/m3	uncertainty
288.15	1055.961	0.953
293.15	1052.867	0.946
298.15	1049.756	0.94
303.15	1046.636	0.933
308.15	1043.499	0.927
313.15	1040.345	0.92
318.15	1037.176	0.914
323.15	1033.984	0.907
328.15	1030.771	0.9
333.15	1027.529	0.894

System: propan-1,3-diol; phases: Liquid
Fixed: Pressure, kPa = 101.325
Property: Refractive index (Na D-line) (Liquid); method: Standard Abbe refractometry
Temperature, K	Refractive index (Na D-line)	uncertainty
288.15	1.44073	0.00051
293.15	1.43932	0.00051
298.15	1.43792	0.00051
303.15	1.43654	0.00051
308.15	1.43513	0.00051
313.15	1.43375	0.00051
318.15	1.43232	0.00051
323.15	1.43087	0.00051
328.15	1.42945	0.00051
333.15	1.42803	0.00051

System: propan-1,3-diol; phases: Liquid
Fixed: Pressure, kPa = 101.325
Property: Viscosity, Pa*s (Liquid); method: Concentric cylinders viscometry
Temperature, K	Viscosity, Pa*s	uncertainty
288.15	0.068056	0.001545
293.15	0.052754	0.001181
298.15	0.041972	0.000947
303.15	0.033561	0.000757
308.15	0.027153	0.000613
313.15	0.02222	0.000502
318.15	0.018354	0.000414
323.15	0.015292	0.000345
328.15	0.012843	0.00029
333.15	0.01096	0.000248
