Measured thermophysical data. Density, speed of sound, and electrical conductance of ionic liquid 1-hexyl-3-methyl-imidazolium bromide in water at different temperatures
Source: J. Chem. Thermodyn., 2008, 10.1016/j.jct.2008.01.003
Compound 1: 3-hexyl-1-methyl-1H-imidazolium bromide, C10H19BrN2, InChI=1S/C10H19N2.BrH/c1-3-4-5-6-7-12-9-8-11(2)10-12;/h8-10H,3-7H2,1-2H3;1H/q+1;/p-1
Compound 2: water, H2O, InChI=1S/H2O/h1H2

System: water + 3-hexyl-1-methyl-1H-imidazolium bromide; phases: Liquid
Fixed: Pressure, kPa = 101
Property: Speed of sound, m/s (Liquid); method: FPINT:UFactor:4
Temperature, K	Molality, mol/kg of 3-hexyl-1-methyl-1H-imidazolium bromide	Speed of sound, m/s	uncertainty
283.15	0.0042	1448.7	2.87
283.15	0.0048	1448.79	2.87
283.15	0.0067	1449.21	2.87
283.15	0.0081	1449.29	2.87
283.15	0.0139	1450.3	2.87
283.15	0.0295	1452.94	2.88
283.15	0.0369	1453.35	2.88
283.15	0.0487	1455.35	2.88
283.15	0.064	1457.93	2.88
283.15	0.073	1459.38	2.89
283.15	0.094	1462.85	2.89
283.15	0.1183	1466.89	2.9
283.15	0.1423	1470.86	2.91
283.15	0.1639	1474.04	2.91
283.15	0.2206	1482.68	2.93
283.15	0.2581	1488.08	2.94
283.15	0.3034	1494.64	2.95
283.15	0.3543	1501.62	2.96
283.15	0.3874	1506.11	2.97
283.15	0.4492	1513.65	2.98
283.15	0.6269	1535.23	3.02
283.15	0.8614	1557.7	3.06
283.15	1.0007	1568.46	3.09
283.15	1.321	1586.34	3.13
283.15	1.7388	1600.03	3.17
283.15	2.0867	1607.38	3.2
288.15	0.0042	1467.02	2.9
288.15	0.0048	1467.07	2.9
288.15	0.0067	1467.4	2.9
288.15	0.0081	1467.43	2.9
288.15	0.0139	1468.41	2.9
288.15	0.0295	1470.81	2.9
288.15	0.0369	1471.09	2.9
288.15	0.0487	1472.96	2.91
288.15	0.064	1475.26	2.91
288.15	0.073	1476.58	2.91
288.15	0.094	1479.77	2.92
288.15	0.1183	1483.49	2.92
288.15	0.1423	1487.1	2.93
288.15	0.1639	1490.04	2.94
288.15	0.2206	1497.86	2.95
288.15	0.2581	1502.72	2.96
288.15	0.3034	1508.68	2.97
288.15	0.3543	1515.02	2.98
288.15	0.3874	1519.09	2.99
288.15	0.4492	1525.87	3
288.15	0.6269	1545.27	3.04
288.15	0.8614	1565.11	3.08
288.15	1.0007	1574.56	3.1
288.15	1.321	1590.3	3.14
288.15	1.7388	1602.46	3.17
288.15	2.0867	1608.87	3.2
293.15	0.0042	1483.21	2.92
293.15	0.0048	1483.24	2.92
293.15	0.0067	1483.54	2.92
293.15	0.0081	1483.57	2.92
293.15	0.0139	1484.47	2.92
293.15	0.0295	1486.67	2.93
293.15	0.0369	1486.81	2.93
293.15	0.0487	1488.54	2.93
293.15	0.064	1490.65	2.93
293.15	0.073	1491.86	2.94
293.15	0.094	1494.78	2.94
293.15	0.1183	1498.15	2.95
293.15	0.1423	1501.44	2.95
293.15	0.1639	1504.11	2.96
293.15	0.2206	1511.19	2.97
293.15	0.2581	1515.58	2.98
293.15	0.3034	1521.01	2.99
293.15	0.3543	1526.74	3
293.15	0.3874	1530.4	3
293.15	0.4492	1536.42	3.02
293.15	0.6269	1553.85	3.05
293.15	0.8614	1571.3	3.08
293.15	1.0007	1579.58	3.1
293.15	1.321	1593.4	3.14
293.15	1.7388	1604.06	3.18
293.15	2.0867	1609.56	3.2
298.15	0.0042	1497.46	2.94
298.15	0.0048	1497.48	2.94
298.15	0.0067	1497.73	2.94
298.15	0.0081	1497.74	2.94
298.15	0.0139	1498.58	2.95
298.15	0.0295	1500.55	2.95
298.15	0.0369	1500.6	2.95
298.15	0.0487	1502.18	2.95
298.15	0.064	1504.08	2.95
298.15	0.073	1505.16	2.96
298.15	0.094	1507.83	2.96
298.15	0.1183	1510.92	2.97
298.15	0.1423	1513.91	2.97
298.15	0.1639	1516.32	2.98
298.15	0.2206	1522.75	2.99
298.15	0.2581	1526.73	2.99
298.15	0.3034	1531.62	3
298.15	0.3543	1536.76	3.01
298.15	0.3874	1540.06	3.02
298.15	0.4492	1545.4	3.03
298.15	0.6269	1561.01	3.06
298.15	0.8614	1576.29	3.09
298.15	1.0007	1583.54	3.11
298.15	1.321	1595.58	3.14
298.15	1.7388	1604.8	3.18
298.15	2.0867	1609.39	3.2
303.15	0.0042	1509.84	2.96
303.15	0.0048	1509.82	2.96
303.15	0.0067	1510.06	2.96
303.15	0.0081	1510.09	2.96
303.15	0.0139	1510.84	2.96
303.15	0.0295	1512.62	2.97
303.15	0.0369	1512.54	2.97
303.15	0.0487	1514	2.97
303.15	0.064	1515.72	2.97
303.15	0.073	1516.73	2.97
303.15	0.094	1519.17	2.98
303.15	0.1183	1522	2.98
303.15	0.1423	1524.7	2.99
303.15	0.1639	1526.91	2.99
303.15	0.2206	1532.67	3
303.15	0.2581	1536.25	3.01
303.15	0.3034	1540.65	3.02
303.15	0.3543	1545.26	3.03
303.15	0.3874	1548.2	3.03
303.15	0.4492	1552.93	3.04
303.15	0.6269	1566.84	3.07
303.15	0.8614	1580.17	3.1
303.15	1.0007	1586.48	3.11
303.15	1.321	1596.9	3.15
303.15	1.7388	1604.73	3.18
303.15	2.0867	1608.43	3.2

System: water + 3-hexyl-1-methyl-1H-imidazolium bromide; phases: Liquid
Fixed: Pressure, kPa = 101
Property: Mass density, kg/m3 (Liquid); method: VIBTUB:UFactor:12
Temperature, K	Molality, mol/kg of 3-hexyl-1-methyl-1H-imidazolium bromide	Mass density, kg/m3	uncertainty
283.15	0.0042	999.919	0.485
283.15	0.0048	999.941	0.485
283.15	0.0067	1000.033	0.485
283.15	0.0081	1000.096	0.486
283.15	0.0139	1000.379	0.488
283.15	0.0295	1001.151	0.493
283.15	0.0369	1001.52	0.495
283.15	0.0487	1002.104	0.499
283.15	0.064	1002.842	0.504
283.15	0.073	1003.271	0.507
283.15	0.094	1004.288	0.513
283.15	0.1183	1005.446	0.521
283.15	0.1423	1006.6	0.529
283.15	0.1639	1007.599	0.536
283.15	0.2206	1010.253	0.554
283.15	0.2581	1011.963	0.566
283.15	0.3034	1014.04	0.581
283.15	0.3543	1016.301	0.597
283.15	0.3874	1017.818	0.608
283.15	0.4492	1020.542	0.628
283.15	0.6269	1028.05	0.685
283.15	0.8614	1037.256	0.758
283.15	1.0007	1042.275	0.799
283.15	1.321	1053.013	0.892
283.15	1.7388	1065.229	1.005
283.15	2.0867	1074.156	1.093
288.15	0.0042	999.312	0.49
288.15	0.0048	999.334	0.49
288.15	0.0067	999.423	0.489
288.15	0.0081	999.485	0.488
288.15	0.0139	999.762	0.487
288.15	0.0295	1000.518	0.489
288.15	0.0369	1000.88	0.491
288.15	0.0487	1001.447	0.495
288.15	0.064	1002.17	0.5
288.15	0.073	1002.592	0.503
288.15	0.094	1003.585	0.509
288.15	0.1183	1004.717	0.517
288.15	0.1423	1005.846	0.524
288.15	0.1639	1006.823	0.531
288.15	0.2206	1009.416	0.549
288.15	0.2581	1011.087	0.561
288.15	0.3034	1013.114	0.575
288.15	0.3543	1015.322	0.591
288.15	0.3874	1016.804	0.602
288.15	0.4492	1019.461	0.621
288.15	0.6269	1026.781	0.677
288.15	0.8614	1035.745	0.749
288.15	1.0007	1040.636	0.789
288.15	1.321	1051.103	0.88
288.15	1.7388	1063.056	0.992
288.15	2.0867	1071.818	1.078
293.15	0.0042	998.411	0.495
293.15	0.0048	998.432	0.495
293.15	0.0067	998.518	0.494
293.15	0.0081	998.579	0.494
293.15	0.0139	998.85	0.492
293.15	0.0295	999.592	0.488
293.15	0.0369	999.946	0.486
293.15	0.0487	1000.504	0.489
293.15	0.064	1001.211	0.494
293.15	0.073	1001.625	0.497
293.15	0.094	1002.596	0.503
293.15	0.1183	1003.707	0.511
293.15	0.1423	1004.812	0.518
293.15	0.1639	1005.768	0.525
293.15	0.2206	1008.306	0.542
293.15	0.2581	1009.943	0.554
293.15	0.3034	1011.926	0.568
293.15	0.3543	1014.084	0.584
293.15	0.3874	1015.533	0.594
293.15	0.4492	1018.13	0.613
293.15	0.6269	1025.278	0.668
293.15	0.8614	1034.026	0.738
293.15	1.0007	1038.798	0.778
293.15	1.321	1049.027	0.867
293.15	1.7388	1060.744	0.977
293.15	2.0867	1069.356	1.063
298.15	0.0042	997.246	0.502
298.15	0.0048	997.266	0.502
298.15	0.0067	997.351	0.501
298.15	0.0081	997.413	0.501
298.15	0.0139	997.679	0.499
298.15	0.0295	998.405	0.495
298.15	0.0369	998.754	0.493
298.15	0.0487	999.3	0.49
298.15	0.064	999.994	0.486
298.15	0.073	1000.398	0.489
298.15	0.094	1001.354	0.496
298.15	0.1183	1002.444	0.503
298.15	0.1423	1003.527	0.51
298.15	0.1639	1004.465	0.517
298.15	0.2206	1006.953	0.534
298.15	0.2581	1008.555	0.545
298.15	0.3034	1010.498	0.559
298.15	0.3543	1012.613	0.575
298.15	0.3874	1014.031	0.585
298.15	0.4492	1016.573	0.604
298.15	0.6269	1023.564	0.657
298.15	0.8614	1032.118	0.726
298.15	1.0007	1036.783	0.765
298.15	1.321	1046.799	0.854
298.15	1.7388	1058.306	0.962
298.15	2.0867	1066.779	1.046
303.15	0.0042	995.843	0.51
303.15	0.0048	995.864	0.51
303.15	0.0067	995.948	0.509
303.15	0.0081	996.006	0.509
303.15	0.0139	996.267	0.508
303.15	0.0295	996.983	0.504
303.15	0.0369	997.324	0.502
303.15	0.0487	997.863	0.499
303.15	0.064	998.545	0.495
303.15	0.073	998.942	0.493
303.15	0.094	999.878	0.488
303.15	0.1183	1000.95	0.494
303.15	0.1423	1002.014	0.501
303.15	0.1639	1002.936	0.507
303.15	0.2206	1005.377	0.524
303.15	0.2581	1006.949	0.536
303.15	0.3034	1008.855	0.549
303.15	0.3543	1010.929	0.564
303.15	0.3874	1012.318	0.575
303.15	0.4492	1014.808	0.593
303.15	0.6269	1021.657	0.646
303.15	0.8614	1030.031	0.713
303.15	1.0007	1034.602	0.752
303.15	1.321	1044.425	0.839
303.15	1.7388	1055.742	0.946
303.15	2.0867	1064.092	1.029
