Measured thermophysical data. Heat capacities and electrical conductivities of 1-ethyl-3-methylimidazolium-based ionic liquids
Source: J. Chem. Thermodyn., 2009, 10.1016/j.jct.2008.07.013
Compound 1: 1-ethyl-3-methylimidazolium tetrafluoroborate, C6H11BF4N2, InChI=1S/C6H11N2.BF4/c1-3-8-5-4-7(2)6-8;2-1(3,4)5/h4-6H,3H2,1-2H3;/q+1;-1, purity 97%
Compound 2: 1-ethyl-3-methylimidazolium trifluoromethanesulfonate, C7H11F3N2O3S, InChI=1S/C6H11N2.CHF3O3S/c1-3-8-5-4-7(2)6-8;2-1(3,4)8(5,6)7/h4-6H,3H2,1-2H3;(H,5,6,7)/q+1;/p-1, purity 98%
Compound 3: 1-ethyl-3-methylimidazolium dicyanamide, C8H11N5, InChI=1S/C6H11N2.C2N3/c1-3-8-5-4-7(2)6-8;3-1-5-2-4/h4-6H,3H2,1-2H3;/q+1;-1, purity 99.9%
Compound 4: 1-ethyl-3-methylimidazolium ethyl sulfate, C8H16N2O4S, InChI=1S/C6H11N2.C2H6O4S/c1-3-8-5-4-7(2)6-8;1-2-6-7(3,4)5/h4-6H,3H2,1-2H3;2H2,1H3,(H,3,4,5)/q+1;/p-1, purity 99.2%
Compound 5: 1-ethyl-3-methylimidazolium 2-(2-methoxyethoxy) ethylsulfate, C11H22N2O6S, InChI=1S/C6H11N2.C5H12O6S/c1-3-8-5-4-7(2)6-8;1-9-2-3-10-4-5-11-12(6,7)8/h4-6H,3H2,1-2H3;2-5H2,1H3,(H,6,7,8)/q+1;/p-1, purity 98.2%

System: 1-ethyl-3-methylimidazolium tetrafluoroborate; phases: Liquid
Fixed: Pressure, kPa = 101.325
Property: Molar heat capacity at constant pressure, J/K/mol (Liquid); method: Small sample (50 mg) DSC
Temperature, K	Molar heat capacity at constant pressure, J/K/mol	uncertainty
303.2	306.2590219416	39.9898658256
308.2	308.4366879024	40.3858050912
313.2	310.6143538632	40.583774724
318.2	312.792019824	40.9797139896
323.2	314.3757768864	41.1776836224
328.2	315.3656250504	41.1776836224
333.2	316.3554732144	41.3756532552
338.2	318.3351695424	41.573622888
343.2	319.3250177064	41.7715925208
348.2	321.3047140344	41.9695621536
353.2	322.8884710968	42.1675317864
358.2	323.4823799952	42.3655014192

System: 1-ethyl-3-methylimidazolium tetrafluoroborate; phases: Liquid, Air at 1 atmosphere
Property: Electrical conductivity, S/m (Liquid); method: Alternating current cell with electrodes
Temperature, K	Electrical conductivity, S/m	uncertainty
293.2	1.377	0.025
298.2	1.569	0.028
303.2	1.789	0.008
308.2	2.04	0.028
313.2	2.32	0.036
318.2	2.59	0.036
323.2	2.91	0.033
328.2	3.25	0.033
333.2	3.59	0.031
343.2	4.35	0.036
353.2	5.18	0.031

System: 1-ethyl-3-methylimidazolium trifluoromethanesulfonate; phases: Liquid
Fixed: Pressure, kPa = 101.325
Property: Molar heat capacity at constant pressure, J/K/mol (Liquid); method: Small sample (50 mg) DSC
Temperature, K	Molar heat capacity at constant pressure, J/K/mol	uncertainty
303.2	379.4228189568	49.7049097536
308.2	381.5046999936	49.9651448832
313.2	383.3263459008	50.2253800128
318.2	385.4082269376	50.4856151424
323.2	387.4901079744	50.745850272
328.2	389.5719890112	51.0060854016
333.2	391.653870048	51.2663205312
338.2	393.7357510848	51.5265556608
343.2	395.8176321216	51.7867907904
348.2	397.8995131584	52.04702592
353.2	399.7211590656	52.3072610496
358.2	401.8030401024	52.5674961792

System: 1-ethyl-3-methylimidazolium trifluoromethanesulfonate; phases: Liquid, Air at 1 atmosphere
Property: Electrical conductivity, S/m (Liquid); method: Alternating current cell with electrodes
Temperature, K	Electrical conductivity, S/m	uncertainty
293.2	0.834	0.028
298.2	0.979	0.028
303.2	1.155	0.033
308.2	1.34	0.036
313.2	1.523	0.031
318.2	1.737	0.031
323.2	1.936	0.033
328.2	2.17	0.039
333.2	2.42	0.036
343.2	2.94	0.028
353.2	3.51	0.036

System: 1-ethyl-3-methylimidazolium dicyanamide; phases: Liquid
Fixed: Pressure, kPa = 101.325
Property: Molar heat capacity at constant pressure, J/K/mol (Liquid); method: Small sample (50 mg) DSC
Temperature, K	Molar heat capacity at constant pressure, J/K/mol	uncertainty
303.2	328.00949064	42.88400688
308.2	329.95876368	43.06121352
313.2	332.97127656	43.59283344
318.2	335.09775624	43.77004008
323.2	338.64188904	44.30166
328.2	340.76836872	44.47886664
333.2	342.71764176	44.83327992
338.2	344.48970816	45.01048656
343.2	346.4389812	45.36489984
348.2	348.91987416	45.54210648
353.2	351.57797376	45.89651976
358.2	354.23607336	46.25093304

System: 1-ethyl-3-methylimidazolium dicyanamide; phases: Liquid, Air at 1 atmosphere
Property: Electrical conductivity, S/m (Liquid); method: Alternating current cell with electrodes
Temperature, K	Electrical conductivity, S/m	uncertainty
293.2	1.89	0.036
298.2	2.2	0.042
303.2	2.55	0.036
308.2	2.9	0.028
313.2	3.29	0.036
318.2	3.68	0.036
323.2	4.1	0.039
328.2	4.54	0.031
333.2	5.02	0.031
343.2	5.93	0.033
353.2	6.86	0.028

System: 1-ethyl-3-methylimidazolium ethyl sulfate; phases: Liquid
Fixed: Pressure, kPa = 101.325
Property: Molar heat capacity at constant pressure, J/K/mol (Liquid); method: Small sample (50 mg) DSC
Temperature, K	Molar heat capacity at constant pressure, J/K/mol	uncertainty
303.2	429.81100068	56.23695336
308.2	431.70131844	56.47324308
313.2	435.00937452	56.94582252
318.2	437.135982	57.18211224
323.2	441.38919696	57.65469168
328.2	444.46096332	58.12727112
333.2	447.29643996	58.59985056
338.2	450.1319166	58.83614028
343.2	452.96739324	59.30871972
348.2	456.51173904	59.78129916
353.2	461.00124372	60.2538786
358.2	463.60043064	60.72645804

System: 1-ethyl-3-methylimidazolium ethyl sulfate; phases: Liquid, Air at 1 atmosphere
Property: Electrical conductivity, S/m (Liquid); method: Alternating current cell with electrodes
Temperature, K	Electrical conductivity, S/m	uncertainty
293.2	0.31	0.022
298.2	0.398	0.025
303.2	0.493	0.008
308.2	0.603	0.028
313.2	0.722	0.028
318.2	0.852	0.028
323.2	1.002	0.025
328.2	1.167	0.025
333.2	1.341	0.025
343.2	1.735	0.028
353.2	2.15	0.028

System: 1-ethyl-3-methylimidazolium 2-(2-methoxyethoxy) ethylsulfate; phases: Liquid
Fixed: Pressure, kPa = 101.325
Property: Molar heat capacity at constant pressure, J/K/mol (Liquid); method: Small sample (50 mg) DSC
Temperature, K	Molar heat capacity at constant pressure, J/K/mol	uncertainty
303.2	526.38456896	68.90175372
308.2	527.93641026	68.90175372
313.2	529.48825156	69.21212198
318.2	531.04009286	69.52249024
323.2	532.59193416	69.52249024
328.2	533.8334072	69.8328585
333.2	535.69561676	70.14322676
338.2	537.24745806	70.14322676
343.2	538.79929936	70.45359502
348.2	540.66150892	70.76396328
353.2	542.21335022	70.76396328
358.2	544.07555978	71.07433154

System: 1-ethyl-3-methylimidazolium 2-(2-methoxyethoxy) ethylsulfate; phases: Liquid, Air at 1 atmosphere
Property: Electrical conductivity, S/m (Liquid); method: Alternating current cell with electrodes
Temperature, K	Electrical conductivity, S/m	uncertainty
293.2	0.11	0.031
298.2	0.147	0.025
303.2	0.194	0.025
308.2	0.244	0.028
313.2	0.307	0.036
318.2	0.378	0.031
323.2	0.459	0.033
328.2	0.545	0.033
333.2	0.641	0.031
343.2	0.859	0.036
353.2	1.124	0.036
