Measured thermophysical data. Thermodynamic study of volatile iridium (I) complexes with 1,5-cyclooctadiene and acetylacetonato derivatives: Effect of (O,O) and (O,N) coordination sites
Source: J. Chem. Thermodyn., 2019, 10.1016/j.jct.2019.02.021
Compound 1: (acetylacetonato)(1,5-cyclooctadiene)iridium(I), C13H19IrO2, InChI=1S/C8H12.C5H7O2.Ir/c1-2-4-6-8-7-5-3-1;1-4(6)3-5(2)7;/h1-2,7-8H,3-6H2;3H,1-2H3;/q;-1;+1/b2-1-,8-7-;;
Compound 2: (4-imino-2-pentanonato)(1,5-cyclooctadiene)iridium, C13H20IrNO, InChI=1S/C8H12.C5H8NO.Ir/c1-2-4-6-8-7-5-3-1;1-4(6)3-5(2)7;/h1-2,7-8H,3-6H2;3,6H,1-2H3;/q;-1;+1/b2-1-,8-7-;;
Compound 3: (4-(methylimino)-2-pentanonato)(1,5-cyclooctadiene)iridium, C14H22IrNO, InChI=1S/C8H12.C6H10NO.Ir/c1-2-4-6-8-7-5-3-1;1-5(7-3)4-6(2)8;/h1-2,7-8H,3-6H2;4H,1-3H3;/q;-1;+1/b2-1-,8-7-;7-5+;

System: (acetylacetonato)(1,5-cyclooctadiene)iridium(I); phases: Crystal, Liquid, Air at 1 atmosphere
Property: Triple point temperature, K (Crystal); method: DSC
Triple point temperature, K	uncertainty
428.8	0.9

System: (acetylacetonato)(1,5-cyclooctadiene)iridium(I); phases: Crystal, Liquid, Air at 1 atmosphere
Property: Molar enthalpy of transition or fusion, kJ/mol (Crystal); method: DSC
Molar enthalpy of transition or fusion, kJ/mol	uncertainty
21.3	0.7

System: (acetylacetonato)(1,5-cyclooctadiene)iridium(I); phases: Crystal, Gas
Property: Vapor or sublimation pressure, kPa (Crystal); method: Transpiration method
Temperature, K	Vapor or sublimation pressure, kPa	uncertainty
362.8	0.00045	8e-05
373.2	0.00116	0.00018
382.9	0.00308	0.0004
388.2	0.00469	0.00061
392.9	0.00669	0.00102
403.2	0.0153	0.0019
408.2	0.0225	0.0031
413.2	0.0343	0.0046
413.2	0.0335	0.0045
418.2	0.0499	0.0064
418.2	0.0496	0.0064
423.2	0.0703	0.0085
423.2	0.0705	0.0085

System: (4-imino-2-pentanonato)(1,5-cyclooctadiene)iridium; phases: Crystal, Liquid, Air at 1 atmosphere
Property: Triple point temperature, K (Crystal); method: DSC
Triple point temperature, K	uncertainty
440	0.9

System: (4-imino-2-pentanonato)(1,5-cyclooctadiene)iridium; phases: Crystal, Liquid, Air at 1 atmosphere
Property: Molar enthalpy of transition or fusion, kJ/mol (Crystal); method: DSC
Molar enthalpy of transition or fusion, kJ/mol	uncertainty
22.8	0.6

System: (4-imino-2-pentanonato)(1,5-cyclooctadiene)iridium; phases: Crystal, Gas
Property: Vapor or sublimation pressure, kPa (Crystal); method: Transpiration method
Temperature, K	Vapor or sublimation pressure, kPa	uncertainty
384.2	0.00063	0.00012
392.7	0.00151	0.00022
393.2	0.00143	0.00021
403.5	0.00352	0.00052
413.2	0.00868	0.00132
422.8	0.0219	0.0028
423.2	0.0205	0.0027
431.2	0.0368	0.0044
431.2	0.0375	0.0045

System: (4-(methylimino)-2-pentanonato)(1,5-cyclooctadiene)iridium; phases: Crystal, Liquid, Air at 1 atmosphere
Property: Triple point temperature, K (Crystal); method: DSC
Triple point temperature, K	uncertainty
422.5	0.9

System: (4-(methylimino)-2-pentanonato)(1,5-cyclooctadiene)iridium; phases: Crystal, Liquid, Air at 1 atmosphere
Property: Molar enthalpy of transition or fusion, kJ/mol (Crystal); method: DSC
Molar enthalpy of transition or fusion, kJ/mol	uncertainty
25.9	0.7

System: (4-(methylimino)-2-pentanonato)(1,5-cyclooctadiene)iridium; phases: Crystal, Gas
Property: Vapor or sublimation pressure, kPa (Crystal); method: Transpiration method
Temperature, K	Vapor or sublimation pressure, kPa	uncertainty
383.2	0.00042	7e-05
392.8	0.00096	0.00013
403.5	0.0022	0.00029
407.2	0.00364	0.0005
413.2	0.00535	0.00069
413.2	0.0054	0.00069
418.2	0.00795	0.00096
420.2	0.00843	0.00093
