Measured thermophysical data. Determination of the energies of combustion and enthalpies of formation of nitrobenzenesulfonamides by rotating-bomb combustion calorimetry
Source: J. Chem. Thermodyn., 2010, 10.1016/j.jct.2009.10.003
Compound 1: sulfuric acid, H2O4S, InChI=1S/H2O4S/c1-5(2,3)4/h(H2,1,2,3,4)
Compound 2: carbon dioxide, CO2, InChI=1S/CO2/c2-1-3
Compound 3: nitrogen, N2, InChI=1S/N2/c1-2
Compound 4: water, H2O, InChI=1S/H2O/h1H2
Compound 5: oxygen, O2, InChI=1S/O2/c1-2
Compound 6: sulfur, S, InChI=1S/S
Compound 7: hydrogen, H2, InChI=1S/H2/h1H
Compound 8: graphite, C
Compound 9: 2-nitrobenzenesulfonamide, C6H6N2O4S, InChI=1S/C6H6N2O4S/c7-13(11,12)6-4-2-1-3-5(6)8(9)10/h1-4H,(H2,7,11,12), purity 99%
Compound 10: 3-nitrobenzenesulfonamide, C6H6N2O4S, InChI=1S/C6H6N2O4S/c7-13(11,12)6-3-1-2-5(4-6)8(9)10/h1-4H,(H2,7,11,12), purity 99%
Compound 11: 4-nitrobenzenesulfonamide, C6H6N2O4S, InChI=1S/C6H6N2O4S/c7-13(11,12)6-3-1-5(2-4-6)8(9)10/h1-4H,(H2,7,11,12), purity 97%

System: 2-nitrobenzenesulfonamide; phases: Crystal, Liquid, Air at 1 atmosphere
Property: Molar enthalpy of transition or fusion, kJ/mol (Crystal); method: DSC
Molar enthalpy of transition or fusion, kJ/mol	uncertainty
28.32	0.65

System: 2-nitrobenzenesulfonamide; phases: Crystal, Liquid, Air at 1 atmosphere
Property: Normal melting temperature, K (Crystal); method: DTA
Normal melting temperature, K	uncertainty
463.07	0.39

System: 2-nitrobenzenesulfonamide; phases: Liquid
Property: Molar heat capacity at constant pressure, J/K/mol (Liquid); method: Small sample (50 mg) DSC
Temperature, K	Pressure, kPa	Molar heat capacity at constant pressure, J/K/mol	uncertainty
298.15	101.325	179.539696962708	8.49193464

System: 3-nitrobenzenesulfonamide; phases: Crystal, Liquid, Air at 1 atmosphere
Property: Molar enthalpy of transition or fusion, kJ/mol (Crystal); method: DSC
Molar enthalpy of transition or fusion, kJ/mol	uncertainty
31.47	0.74

System: 3-nitrobenzenesulfonamide; phases: Crystal, Liquid, Air at 1 atmosphere
Property: Normal melting temperature, K (Crystal); method: DTA
Normal melting temperature, K	uncertainty
437.15	0.39

System: 3-nitrobenzenesulfonamide; phases: Liquid
Property: Molar heat capacity at constant pressure, J/K/mol (Liquid); method: Small sample (50 mg) DSC
Temperature, K	Pressure, kPa	Molar heat capacity at constant pressure, J/K/mol	uncertainty
298.15	101.325	199.9607981016	8.49193464

System: 4-nitrobenzenesulfonamide; phases: Crystal, Liquid, Air at 1 atmosphere
Property: Molar enthalpy of transition or fusion, kJ/mol (Crystal); method: DSC
Molar enthalpy of transition or fusion, kJ/mol	uncertainty
29.77	0.65

System: 4-nitrobenzenesulfonamide; phases: Crystal, Liquid, Air at 1 atmosphere
Property: Normal melting temperature, K (Crystal); method: DTA
Normal melting temperature, K	uncertainty
453.61	0.39

System: 4-nitrobenzenesulfonamide; phases: Liquid
Property: Molar heat capacity at constant pressure, J/K/mol (Liquid); method: Small sample (50 mg) DSC
Temperature, K	Pressure, kPa	Molar heat capacity at constant pressure, J/K/mol	uncertainty
298.15	101.325	219.98154496	12.5397970539951

Reaction: -1 2-nitrobenzenesulfonamide + 1 sulfuric acid + 6 carbon dioxide + 1 nitrogen + 2 water + -7 oxygen
Property: Specific internal energy of reaction at constant volume, J/g
-17208

Reaction: -1 3-nitrobenzenesulfonamide + 1 sulfuric acid + 6 carbon dioxide + 1 nitrogen + 2 water + -7 oxygen
Property: Specific internal energy of reaction at constant volume, J/g
-17084.1

Reaction: -1 4-nitrobenzenesulfonamide + 1 sulfuric acid + 6 carbon dioxide + 1 nitrogen + 2 water + -7 oxygen
Property: Specific internal energy of reaction at constant volume, J/g
-17064.4

Reaction: 1 2-nitrobenzenesulfonamide + -1 sulfur + -3 hydrogen + -1 nitrogen + -6 graphite + -2 oxygen
Property: Molar enthalpy of reaction, kJ/mol
-341.3

Reaction: 1 3-nitrobenzenesulfonamide + -1 sulfur + -3 hydrogen + -1 nitrogen + -6 graphite + -2 oxygen
Property: Molar enthalpy of reaction, kJ/mol
-366.3

Reaction: 1 4-nitrobenzenesulfonamide + -1 sulfur + -3 hydrogen + -1 nitrogen + -6 graphite + -2 oxygen
Property: Molar enthalpy of reaction, kJ/mol
-370.4
