Measured thermophysical data. Isobaric, isothermal theoretical investigation and examination of different prediction equations on some physicochemical properties in PEG liquid polymer system
Source: J. Chem. Thermodyn., 2014, 10.1016/j.jct.2013.09.006
Compound 1: ethanol, C2H6O, InChI=1S/C2H6O/c1-2-3/h3H,2H2,1H3, purity 99.68%

System: ethanol; phases: Liquid
Fixed: Pressure, kPa = 101.325
Property: Mass density, kg/m3 (Liquid); method: Vibrating tube method
Temperature, K	Mass density, kg/m3	uncertainty
298.15	785.9	1.8
303.15	780.2	1.8
308.15	776.5	1.8

System: ethanol; phases: Liquid
Fixed: Pressure, kPa = 101.325
Property: Viscosity, Pa*s (Liquid); method: Capillary tube (Ostwald; Ubbelohde) method
Temperature, K	Viscosity, Pa*s	uncertainty
298.15	0.00109	2e-05
303.15	0.00095	2e-05
308.15	0.00087	2e-05

System: ethanol; phases: Liquid
Fixed: Pressure, kPa = 101.325
Property: Refractive index (Na D-line) (Liquid); method: Standard Abbe refractometry
Temperature, K	Refractive index (Na D-line)	uncertainty
298.15	1.3593	0.0014
303.15	1.3573	0.0014
308.15	1.3556	0.0014
