Measured thermophysical data. Densities, sound velocities, and refractive indexes of (tetralin + n-decane) and thermodynamic modeling by Prigogine-Flory-Patterson model
Source: J. Chem. Thermodyn., 2012, 10.1016/j.jct.2011.09.001
Compound 1: 1,2,3,4-tetrahydronaphthalene, C10H12, InChI=1S/C10H12/c1-2-6-10-8-4-3-7-9(10)5-1/h1-2,5-6H,3-4,7-8H2, purity 99%
Compound 2: decane, C10H22, InChI=1S/C10H22/c1-3-5-7-9-10-8-6-4-2/h3-10H2,1-2H3, purity 99%

System: 1,2,3,4-tetrahydronaphthalene; phases: Liquid
Fixed: Pressure, kPa = 101.325
Property: Refractive index (Na D-line) (Liquid); method: Standard Abbe refractometry
Temperature, K	Refractive index (Na D-line)	uncertainty
293.15	1.5414	0.0005
303.15	1.5367	0.0005
313.15	1.5321	0.0005
323.15	1.5274	0.0005
333.15	1.5228	0.0005
343.15	1.518	0.0005

System: 1,2,3,4-tetrahydronaphthalene; phases: Liquid
Fixed: Pressure, kPa = 101
Property: Speed of sound, m/s (Liquid); method: Sing-around technique in a fixed-path interferometer
Temperature, K	Speed of sound, m/s	uncertainty
293.15	1489.5	1.3
303.15	1450.1	1.2
313.15	1411.5	1.2
323.15	1373.6	1.2
333.15	1336.4	1.2
343.15	1299.8	1.2

System: 1,2,3,4-tetrahydronaphthalene; phases: Liquid
Fixed: Pressure, kPa = 101
Property: Mass density, kg/m3 (Liquid); method: Vibrating tube method
Temperature, K	Mass density, kg/m3	uncertainty
293.15	969.5	0.2
303.15	961.6	0.2
313.15	953.7	0.2
323.15	945.7	0.2
333.15	937.8	0.2
343.15	929.8	0.2

System: decane; phases: Liquid
Fixed: Pressure, kPa = 101.325
Property: Refractive index (Na D-line) (Liquid); method: Standard Abbe refractometry
Temperature, K	Refractive index (Na D-line)	uncertainty
293.15	1.4123	0.0005
303.15	1.4079	0.0005
313.15	1.4033	0.0005
323.15	1.3987	0.0005
333.15	1.3942	0.0005
343.15	1.3893	0.0005

System: decane; phases: Liquid
Fixed: Pressure, kPa = 101
Property: Speed of sound, m/s (Liquid); method: Sing-around technique in a fixed-path interferometer
Temperature, K	Speed of sound, m/s	uncertainty
293.15	1254.6	1.2
303.15	1215.1	1.2
313.15	1176.1	1.2
323.15	1137.6	1.2
333.15	1099.8	1.2
343.15	1062.3	1.2

System: decane; phases: Liquid
Fixed: Pressure, kPa = 101
Property: Mass density, kg/m3 (Liquid); method: Vibrating tube method
Temperature, K	Mass density, kg/m3	uncertainty
293.15	730.1	0.2
303.15	722.6	0.3
313.15	714.9	0.3
323.15	707.3	0.3
333.15	699.5	0.3
343.15	691.8	0.3

System: 1,2,3,4-tetrahydronaphthalene + decane; phases: Liquid
Fixed: Pressure, kPa = 101
Property: Refractive index (Na D-line) (Liquid); method: Standard Abbe refractometry
Temperature, K	Mole fraction of 1,2,3,4-tetrahydronaphthalene	Refractive index (Na D-line)	uncertainty
293.15	0	1.4123	0.0005
293.15	0.1008	1.4216	0.0005
293.15	0.2034	1.4319	0.0005
293.15	0.3	1.4422	0.0005
293.15	0.401	1.4535	0.0005
293.15	0.494	1.4648	0.0005
293.15	0.5949	1.4778	0.0005
293.15	0.7009	1.4925	0.0005
293.15	0.7974	1.5071	0.0005
293.15	0.8997	1.5239	0.0005
293.15	1	1.5414	0.0005
303.15	0	1.4079	0.0005
303.15	0.1008	1.4171	0.0005
303.15	0.2034	1.4274	0.0005
303.15	0.3	1.4376	0.0005
303.15	0.401	1.449	0.0005
303.15	0.494	1.4602	0.0005
303.15	0.5949	1.4733	0.0005
303.15	0.7009	1.488	0.0005
303.15	0.7974	1.5026	0.0005
303.15	0.8997	1.5193	0.0005
303.15	1	1.5367	0.0005
313.15	0	1.4033	0.0005
313.15	0.1008	1.4126	0.0005
313.15	0.2034	1.4229	0.0005
313.15	0.3	1.4331	0.0005
313.15	0.401	1.4445	0.0005
313.15	0.494	1.4556	0.0005
313.15	0.5949	1.4688	0.0005
313.15	0.7009	1.4835	0.0005
313.15	0.7974	1.498	0.0005
313.15	0.8997	1.5148	0.0005
313.15	1	1.5321	0.0005
323.15	0	1.3987	0.0005
323.15	0.1008	1.4081	0.0005
323.15	0.2034	1.4183	0.0005
323.15	0.3	1.4285	0.0005
323.15	0.401	1.4399	0.0005
323.15	0.494	1.4511	0.0005
323.15	0.5949	1.4642	0.0005
323.15	0.7009	1.479	0.0005
323.15	0.7974	1.4933	0.0005
323.15	0.8997	1.5102	0.0005
323.15	1	1.5274	0.0005
333.15	0	1.3942	0.0005
333.15	0.1008	1.4035	0.0005
333.15	0.2034	1.4137	0.0005
333.15	0.3	1.4238	0.0005
333.15	0.401	1.4355	0.0005
333.15	0.494	1.4463	0.0005
333.15	0.5949	1.4597	0.0005
333.15	0.7009	1.4744	0.0005
333.15	0.7974	1.4887	0.0005
333.15	0.8997	1.5055	0.0005
333.15	1	1.5228	0.0005
343.15	0	1.3893	0.0005
343.15	0.1008	1.3988	0.0005
343.15	0.2034	1.4092	0.0005
343.15	0.3	1.4192	0.0005
343.15	0.401	1.4308	0.0005
343.15	0.494	1.4418	0.0005
343.15	0.5949	1.4549	0.0005
343.15	0.7009	1.4697	0.0005
343.15	0.7974	1.4841	0.0005
343.15	0.8997	1.5008	0.0005
343.15	1	1.518	0.0005

System: 1,2,3,4-tetrahydronaphthalene + decane; phases: Liquid
Fixed: Pressure, kPa = 101
Property: Speed of sound, m/s (Liquid); method: Sing-around technique in a fixed-path interferometer
Temperature, K	Mole fraction of 1,2,3,4-tetrahydronaphthalene	Speed of sound, m/s	uncertainty
293.15	0	1254.6	1.2
293.15	0.1008	1269.3	1.2
293.15	0.2034	1285.2	1.2
293.15	0.3	1302.2	1.2
293.15	0.401	1320.2	1.2
293.15	0.494	1340.6	1.2
293.15	0.5949	1363.5	1.2
293.15	0.7009	1391.2	1.2
293.15	0.7974	1418.8	1.2
293.15	0.8997	1452.7	1.2
293.15	1	1489.5	1.3
303.15	0	1215.1	1.2
303.15	0.1008	1230	1.2
303.15	0.2034	1246.1	1.2
303.15	0.3	1263.3	1.2
303.15	0.401	1281.4	1.2
303.15	0.494	1301.9	1.2
303.15	0.5949	1324.9	1.2
303.15	0.7009	1352.5	1.2
303.15	0.7974	1380.1	1.2
303.15	0.8997	1413.8	1.2
303.15	1	1450.1	1.2
313.15	0	1176.1	1.2
313.15	0.1008	1191.3	1.2
313.15	0.2034	1207.6	1.2
313.15	0.3	1224.9	1.2
313.15	0.401	1243.1	1.2
313.15	0.494	1263.8	1.2
313.15	0.5949	1286.8	1.2
313.15	0.7009	1314.5	1.2
313.15	0.7974	1342.1	1.2
313.15	0.8997	1375.5	1.2
313.15	1	1411.5	1.2
323.15	0	1137.6	1.2
323.15	0.1008	1153.1	1.2
323.15	0.2034	1169.6	1.2
323.15	0.3	1187.1	1.2
323.15	0.401	1205.4	1.2
323.15	0.494	1226.2	1.2
323.15	0.5949	1249.3	1.2
323.15	0.7009	1277.1	1.2
323.15	0.7974	1304.6	1.2
323.15	0.8997	1337.9	1.2
323.15	1	1373.6	1.2
333.15	0	1099.8	1.2
333.15	0.1008	1115.5	1.2
333.15	0.2034	1132.1	1.2
333.15	0.3	1149.8	1.2
333.15	0.401	1168.2	1.2
333.15	0.494	1189.2	1.2
333.15	0.5949	1212.4	1.2
333.15	0.7009	1240.2	1.2
333.15	0.7974	1267.8	1.2
333.15	0.8997	1300.9	1.2
333.15	1	1336.4	1.2
343.15	0	1062.3	1.2
343.15	0.1008	1078.4	1.2
343.15	0.2034	1095.2	1.2
343.15	0.3	1113.2	1.2
343.15	0.401	1131.6	1.2
343.15	0.494	1152.9	1.2
343.15	0.5949	1176.1	1.2
343.15	0.7009	1204.1	1.2
343.15	0.7974	1231.5	1.2
343.15	0.8997	1264.7	1.2
343.15	1	1299.8	1.2

System: 1,2,3,4-tetrahydronaphthalene + decane; phases: Liquid
Fixed: Pressure, kPa = 101
Property: Mass density, kg/m3 (Liquid); method: Vibrating tube method
Temperature, K	Mole fraction of 1,2,3,4-tetrahydronaphthalene	Mass density, kg/m3	uncertainty
293.15	0	730.1	0.2
293.15	0.1008	747.8	0.3
293.15	0.2034	766.8	0.3
293.15	0.3	786.3	0.3
293.15	0.401	807.5	0.3
293.15	0.494	828.5	0.2
293.15	0.5949	852.8	0.2
293.15	0.7009	880.2	0.2
293.15	0.7974	907	0.3
293.15	0.8997	937.9	0.3
293.15	1	969.5	0.2
303.15	0	722.6	0.3
303.15	0.1008	740.2	0.3
303.15	0.2034	759.1	0.3
303.15	0.3	778.6	0.3
303.15	0.401	799.8	0.3
303.15	0.494	820.8	0.3
303.15	0.5949	845.1	0.2
303.15	0.7009	872.4	0.2
303.15	0.7974	899.1	0.3
303.15	0.8997	930	0.3
303.15	1	961.6	0.2
313.15	0	714.9	0.3
313.15	0.1008	732.6	0.3
313.15	0.2034	751.5	0.3
313.15	0.3	770.9	0.3
313.15	0.401	792.1	0.3
313.15	0.494	812.9	0.3
313.15	0.5949	837.3	0.3
313.15	0.7009	864.7	0.2
313.15	0.7974	891.4	0.3
313.15	0.8997	922.1	0.3
313.15	1	953.7	0.2
323.15	0	707.3	0.3
323.15	0.1008	724.9	0.3
323.15	0.2034	743.8	0.3
323.15	0.3	763.2	0.3
323.15	0.401	784.3	0.3
323.15	0.494	805.2	0.3
323.15	0.5949	829.5	0.3
323.15	0.7009	856.8	0.3
323.15	0.7974	883.6	0.3
323.15	0.8997	914.2	0.3
323.15	1	945.7	0.2
333.15	0	699.5	0.3
333.15	0.1008	717.2	0.3
333.15	0.2034	736	0.3
333.15	0.3	755.4	0.3
333.15	0.401	776.5	0.3
333.15	0.494	797.3	0.3
333.15	0.5949	821.6	0.3
333.15	0.7009	849	0.3
333.15	0.7974	875.7	0.3
333.15	0.8997	906.3	0.3
333.15	1	937.8	0.2
343.15	0	691.8	0.3
343.15	0.1008	709.3	0.3
343.15	0.2034	728.2	0.3
343.15	0.3	747.6	0.3
343.15	0.401	768.7	0.3
343.15	0.494	789.5	0.3
343.15	0.5949	813.7	0.3
343.15	0.7009	841.1	0.3
343.15	0.7974	867.7	0.3
343.15	0.8997	898.4	0.3
343.15	1	929.8	0.2

System: 1,2,3,4-tetrahydronaphthalene + decane; phases: Liquid
Fixed: Pressure, kPa = 101
Property: Excess molar volume, m3/mol (Liquid); method: Calculated with densities of this investigation
Temperature, K	Mole fraction of 1,2,3,4-tetrahydronaphthalene	Excess molar volume, m3/mol	uncertainty
293.15	0	0	1e-08
293.15	0.1008	-7e-08	2e-08
293.15	0.2034	-8e-08	2e-08
293.15	0.3	-2e-07	2e-08
293.15	0.401	-2.1e-07	2e-08
293.15	0.494	-2.4e-07	2e-08
293.15	0.5949	-2.6e-07	2e-08
293.15	0.7009	-2.4e-07	2e-08
293.15	0.7974	-2e-07	2e-08
293.15	0.8997	-1.9e-07	2e-08
293.15	1	0	1e-08
303.15	0	0	1e-08
303.15	0.1008	-8e-08	2e-08
303.15	0.2034	-1e-07	2e-08
303.15	0.3	-2.3e-07	2e-08
303.15	0.401	-2.4e-07	2e-08
303.15	0.494	-2.7e-07	2e-08
303.15	0.5949	-2.9e-07	2e-08
303.15	0.7009	-2.7e-07	2e-08
303.15	0.7974	-2.2e-07	2e-08
303.15	0.8997	-2e-07	2e-08
303.15	1	0	1e-08
313.15	0	0	1e-08
313.15	0.1008	-9e-08	2e-08
313.15	0.2034	-1.2e-07	2e-08
313.15	0.3	-2.6e-07	2e-08
313.15	0.401	-2.7e-07	2e-08
313.15	0.494	-2.8e-07	2e-08
313.15	0.5949	-3.3e-07	2e-08
313.15	0.7009	-3e-07	2e-08
313.15	0.7974	-2.6e-07	2e-08
313.15	0.8997	-2.2e-07	2e-08
313.15	1	0	1e-08
323.15	0	0	1e-08
323.15	0.1008	-1e-07	2e-08
323.15	0.2034	-1.4e-07	2e-08
323.15	0.3	-2.9e-07	2e-08
323.15	0.401	-3e-07	2e-08
323.15	0.494	-3.2e-07	2e-08
323.15	0.5949	-3.5e-07	2e-08
323.15	0.7009	-3.4e-07	2e-08
323.15	0.7974	-2.9e-07	2e-08
323.15	0.8997	-2.3e-07	2e-08
323.15	1	0	1e-08
333.15	0	0	1e-08
333.15	0.1008	-1.2e-07	2e-08
333.15	0.2034	-1.7e-07	2e-08
333.15	0.3	-3.2e-07	2e-08
333.15	0.401	-3.4e-07	2e-08
333.15	0.494	-3.6e-07	2e-08
333.15	0.5949	-3.8e-07	2e-08
333.15	0.7009	-3.7e-07	2e-08
333.15	0.7974	-3.2e-07	2e-08
333.15	0.8997	-2.5e-07	2e-08
333.15	1	0	1e-08
343.15	0	0	1e-08
343.15	0.1008	-1.3e-07	2e-08
343.15	0.2034	-1.9e-07	2e-08
343.15	0.3	-3.5e-07	2e-08
343.15	0.401	-3.7e-07	2e-08
343.15	0.494	-4e-07	2e-08
343.15	0.5949	-4.2e-07	2e-08
343.15	0.7009	-4.1e-07	2e-08
343.15	0.7974	-3.4e-07	2e-08
343.15	0.8997	-2.7e-07	2e-08
343.15	1	0	1e-08
