Measured thermophysical data. Volumetric properties of aqueous solution of lithium tetraborate from 283.15 to 363.15 K at 101.325 kPa
Source: J. Chem. Thermodyn., 2018, 10.1016/j.jct.2018.01.018
Compound 1: water, H2O, InChI=1S/H2O/h1H2
Compound 2: lithium borate, B4Li2O7, InChI=1S/B4O7.2Li/c5-3-7-1-8-4(6,11-3)10-2-9-3;;/q-2;2*+1, purity 99%

System: water; phases: Liquid
Fixed: Pressure, kPa = 101.325
Property: Mass density, kg/m3 (Liquid); method: Vibrating tube method
Temperature, K	Mass density, kg/m3	uncertainty
279.15	999.97	2.8
289.15	998.96	2.8
299.15	996.8	2.8
309.15	993.69	2.8
319.15	989.79	2.8
329.15	985.2	2.8
339.15	979.99	2.8
349.15	974.22	2.8
359.15	967.96	2.8

System: water + lithium borate; phases: Liquid
Fixed: Pressure, kPa = 101.325
Property: Mass density, kg/m3 (Liquid); method: Vibrating tube method
Temperature, K	Molality, mol/kg of lithium borate	Mass density, kg/m3	uncertainty
283.15	0	999.37	2.8
288.15	0	998.81	2.8
293.15	0	997.96	2.8
298.15	0	996.86	2.8
303.15	0	995.54	2.8
308.15	0	994.01	2.8
313.15	0	992.28	2.8
318.15	0	990.37	2.8
323.15	0	988.3	2.8
328.15	0	986.07	2.8
333.15	0	983.68	2.8
338.15	0	981.16	2.8
343.15	0	978.51	2.8
348.15	0	975.69	2.8
353.15	0	972.8	2.8
358.15	0	969.77	2.8
363.15	0	966.67	2.8
283.15	0.12151	1018.81	2.8
283.15	0.10612	1016.34	2.8
283.15	0.0954	1014.82	2.8
283.15	0.08169	1012.71	2.8
283.15	0.07231	1011.3	2.8
283.15	0.06068	1009.49	2.8
283.15	0.04792	1007.54	2.8
283.15	0.03583	1005.64	2.8
283.15	0.02529	1004	2.8
283.15	0.0118	1001.8	2.8
288.15	0.12151	1017.98	2.8
288.15	0.10612	1015.54	2.8
288.15	0.0954	1014.03	2.8
288.15	0.08169	1011.94	2.8
288.15	0.07231	1010.55	2.8
288.15	0.06068	1008.76	2.8
288.15	0.04792	1006.83	2.8
288.15	0.03583	1004.96	2.8
288.15	0.02529	1003.33	2.8
288.15	0.0118	1001.17	2.8
293.15	0.12151	1016.89	2.8
293.15	0.10612	1014.47	2.8
293.15	0.0954	1012.97	2.8
293.15	0.08169	1010.91	2.8
293.15	0.07231	1009.53	2.8
293.15	0.06068	1007.75	2.8
293.15	0.04792	1005.84	2.8
293.15	0.03583	1003.99	2.8
293.15	0.02529	1002.37	2.8
293.15	0.0118	1000.24	2.8
298.15	0.12151	1015.57	2.8
298.15	0.10612	1013.16	2.8
298.15	0.0954	1011.68	2.8
298.15	0.08169	1009.63	2.8
298.15	0.07231	1008.26	2.8
298.15	0.06068	1006.5	2.8
298.15	0.04792	1004.6	2.8
298.15	0.03583	1002.76	2.8
298.15	0.02529	1001.16	2.8
298.15	0.0118	999.05	2.8
303.15	0.12151	1014.03	2.8
303.15	0.10612	1011.64	2.8
303.15	0.0954	1010.16	2.8
303.15	0.08169	1008.13	2.8
303.15	0.07231	1006.77	2.8
303.15	0.06068	1005.02	2.8
303.15	0.04792	1003.13	2.8
303.15	0.03583	1001.31	2.8
303.15	0.02529	999.72	2.8
303.15	0.0118	997.63	2.8
308.15	0.12151	1012.29	2.8
308.15	0.10612	1009.91	2.8
308.15	0.0954	1008.45	2.8
308.15	0.08169	1006.42	2.8
308.15	0.07231	1005.07	2.8
308.15	0.06068	1003.33	2.8
308.15	0.04792	1001.46	2.8
308.15	0.03583	999.64	2.8
308.15	0.02529	998.07	2.8
308.15	0.0118	995.99	2.8
313.15	0.12151	1010.37	2.8
313.15	0.10612	1008	2.8
313.15	0.0954	1006.54	2.8
313.15	0.08169	1004.52	2.8
313.15	0.07231	1003.18	2.8
313.15	0.06068	1001.45	2.8
313.15	0.04792	999.59	2.8
313.15	0.03583	997.78	2.8
313.15	0.02529	996.21	2.8
313.15	0.0118	994.16	2.8
318.15	0.12151	1008.27	2.8
318.15	0.10612	1005.91	2.8
318.15	0.0954	1004.46	2.8
318.15	0.08169	1002.45	2.8
318.15	0.07231	1001.11	2.8
318.15	0.06068	999.39	2.8
318.15	0.04792	997.54	2.8
318.15	0.03583	995.74	2.8
318.15	0.02529	994.18	2.8
318.15	0.0118	992.13	2.8
323.15	0.12151	1006.02	2.8
323.15	0.10612	1003.66	2.8
323.15	0.0954	1002.22	2.8
323.15	0.08169	1000.22	2.8
323.15	0.07231	998.88	2.8
323.15	0.06068	997.16	2.8
323.15	0.04792	995.32	2.8
323.15	0.03583	993.53	2.8
323.15	0.02529	991.98	2.8
323.15	0.0118	989.94	2.8
328.15	0.12151	1003.61	2.8
328.15	0.10612	1001.26	2.8
328.15	0.0954	999.82	2.8
328.15	0.08169	997.82	2.8
328.15	0.07231	996.49	2.8
328.15	0.06068	994.78	2.8
328.15	0.04792	992.94	2.8
328.15	0.03583	991.16	2.8
328.15	0.02529	989.61	2.8
328.15	0.0118	987.58	2.8
333.15	0.12151	1001.05	2.8
333.15	0.10612	998.71	2.8
333.15	0.0954	997.27	2.8
333.15	0.08169	995.28	2.8
333.15	0.07231	993.95	2.8
333.15	0.06068	992.24	2.8
333.15	0.04792	990.41	2.8
333.15	0.03583	988.63	2.8
333.15	0.02529	987.09	2.8
333.15	0.0118	985.07	2.8
338.15	0.12151	998.36	2.8
338.15	0.10612	996.02	2.8
338.15	0.0954	994.59	2.8
338.15	0.08169	992.6	2.8
338.15	0.07231	991.28	2.8
338.15	0.06068	989.57	2.8
338.15	0.04792	987.74	2.8
338.15	0.03583	985.96	2.8
338.15	0.02529	984.43	2.8
338.15	0.0118	982.42	2.8
343.15	0.12151	995.53	2.8
343.15	0.10612	993.2	2.8
343.15	0.0954	991.77	2.8
343.15	0.08169	989.78	2.8
343.15	0.07231	988.46	2.8
343.15	0.06068	986.76	2.8
343.15	0.04792	984.93	2.8
343.15	0.03583	983.16	2.8
343.15	0.02529	981.62	2.8
343.15	0.0118	979.62	2.8
348.15	0.12151	992.58	2.8
348.15	0.10612	990.25	2.8
348.15	0.0954	988.82	2.8
348.15	0.08169	986.83	2.8
348.15	0.07231	985.51	2.8
348.15	0.06068	983.81	2.8
348.15	0.04792	981.98	2.8
348.15	0.03583	980.02	2.8
348.15	0.02529	978.69	2.8
348.15	0.0118	976.68	2.8
353.15	0.12151	989.5	2.8
353.15	0.10612	987.17	2.8
353.15	0.0954	985.74	2.8
353.15	0.08169	983.76	2.8
353.15	0.07231	982.44	2.8
353.15	0.06068	980.74	2.8
353.15	0.04792	978.92	2.8
353.15	0.03583	977.15	2.8
353.15	0.02529	975.62	2.8
353.15	0.0118	973.62	2.8
358.15	0.12151	986.3	2.8
358.15	0.10612	983.98	2.8
358.15	0.0954	982.55	2.8
358.15	0.08169	980.57	2.8
358.15	0.07231	979.25	2.8
358.15	0.06068	977.55	2.8
358.15	0.04792	975.73	2.8
358.15	0.03583	973.96	2.8
358.15	0.02529	972.44	2.8
358.15	0.0118	970.43	2.8
363.15	0.12151	982.85	2.8
363.15	0.10612	980.67	2.8
363.15	0.0954	979.24	2.8
363.15	0.08169	977.26	2.8
363.15	0.07231	975.94	2.8
363.15	0.06068	974.24	2.8
363.15	0.04792	972.42	2.8
363.15	0.03583	970.66	2.8
363.15	0.02529	969.13	2.8
363.15	0.0118	967.14	2.8
