Measured thermophysical data. Thermodynamic properties of ammonium magnesium sulfate hexahydrate (NH4)2Mg(SO4)2*6H2O
Source: J. Chem. Thermodyn., 2018, 10.1016/j.jct.2017.11.016
Compound 1: diammonium magnesium sulfate hexahydrate, H20MgN2O14S2, InChI=1S/Mg.2H3N.2H2O4S.6H2O/c;;;2*1-5(2,3)4;;;;;;/h;2*1H3;2*(H2,1,2,3,4);6*1H2/q+2;;;;;;;;;;/p-2, purity 99.8%
Compound 2: water, H2O, InChI=1S/H2O/h1H2, purity 99.8%

System: diammonium magnesium sulfate hexahydrate; phases: Crystal, Liquid
Property: Solid-liquid equilibrium temperature, K (Crystal); method: DTA
Pressure, kPa	Solid-liquid equilibrium temperature, K	uncertainty
10000	405	1

System: diammonium magnesium sulfate hexahydrate; phases: Crystal
Fixed: Pressure, kPa = 101.325
Property: Molar heat capacity at constant pressure, J/K/mol (Crystal); method: Small (less than 1 g) adiabatic calorimetry
Temperature, K	Molar heat capacity at constant pressure, J/K/mol	uncertainty
5	0.41572299	0.0249433794
10	1.3552569474	0.041572299
15	5.903266458	0.166289196
20	13.885147866	0.249433794
25	24.11193342	0.83144598
30	35.75217714	0.83144598
35	48.22386684	0.83144598
40	61.52700252	0.83144598
45	74.8301382	1.66289196
50	88.13327388	1.66289196
55	101.43640956	1.66289196
60	114.73954524	1.66289196
65	128.04268092	1.66289196
70	140.51437062	2.49433794
75	152.98606032	2.49433794
80	164.62630404	2.49433794
90	187.90679148	0.83144598
100	209.52438696	0.83144598
110	230.31053646	0.83144598
120	249.433794	0.83144598
130	267.72560556	1.66289196
140	285.18597114	1.66289196
150	300.98344476	1.66289196
160	316.78091838	1.66289196
170	332.578392	1.66289196
180	346.71297366	1.66289196
190	361.6790013	1.66289196
200	375.81358296	1.66289196
210	389.94816462	1.66289196
220	404.08274628	1.66289196
230	418.21732794	1.66289196
240	431.52046362	1.66289196
250	444.8235993	1.66289196
260	458.12673498	1.66289196
270	471.42987066	2.49433794
280	484.73300634	2.49433794
290	496.37325006	2.49433794
298.15	506.35060182	2.49433794
300	508.84493976	2.49433794
310	520.48518348	2.49433794
320	532.95687318	2.49433794

System: diammonium magnesium sulfate hexahydrate; phases: Crystal
Fixed: Pressure, kPa = 101.325
Property: Molar enthalpy function {Hm(T)-Hm(0)}/T, J/K/mol (Crystal); method: Small (less than 1 g) adiabatic calorimetry
Temperature, K	Molar enthalpy function {Hm(T)-Hm(0)}/T, J/K/mol	uncertainty
5	0.1330313568	0.0166289196
10	0.4406663694	0.0249433794
15	1.413458166	0.083144598
20	3.32578392	0.83144598
25	6.65156784	0.83144598
30	9.97735176	0.83144598
35	14.96602764	0.83144598
40	19.95470352	0.83144598
45	24.9433794	0.83144598
50	30.76350126	0.83144598
55	36.58362312	0.83144598
60	42.40374498	0.83144598
65	48.22386684	0.83144598
70	54.87543468	0.83144598
75	60.69555654	0.83144598
80	67.34712438	0.83144598
90	78.9873681	0.83144598
100	91.4590578	0.83144598
110	103.09930152	0.83144598
120	113.90809926	0.83144598
130	125.54834298	0.83144598
140	136.35714072	0.83144598
150	146.33449248	0.83144598
160	157.14329022	0.83144598
170	166.289196	0.83144598
180	176.26654776	0.83144598
190	185.41245354	0.83144598
200	194.55835932	0.83144598
210	203.7042651	0.83144598
220	212.85017088	0.83144598
230	221.16463068	0.83144598
240	229.47909048	0.83144598
250	237.79355028	0.83144598
260	246.10801008	0.83144598
270	254.42246988	0.83144598
280	261.9054837	1.66289196
290	270.2199435	1.66289196
298.15	276.87151134	1.66289196
300	277.70295732	1.66289196
310	285.18597114	1.66289196
320	293.50043094	1.66289196

System: diammonium magnesium sulfate hexahydrate; phases: Crystal
Fixed: Pressure, kPa = 101.325
Property: Molar entropy, J/K/mol (Crystal); method: Small (less than 1 g) adiabatic calorimetry
Temperature, K	Molar entropy, J/K/mol	uncertainty
5	0.166289196	0.083144598
10	0.665156784	0.083144598
15	1.66289196	0.83144598
20	4.98867588	0.83144598
25	9.14590578	0.83144598
30	14.13458166	0.83144598
35	20.7861495	0.83144598
40	27.43771734	0.83144598
45	35.75217714	0.83144598
50	44.06663694	0.83144598
55	53.21254272	1.66289196
60	62.3584485	1.66289196
65	72.33580026	1.66289196
70	82.31315202	1.66289196
75	92.29050378	2.49433794
80	103.09930152	2.49433794
90	123.88545102	0.83144598
100	144.67160052	0.83144598
110	165.45775002	1.66289196
120	186.24389952	1.66289196
130	207.03004902	1.66289196
140	227.81619852	1.66289196
150	247.77090204	1.66289196
160	267.72560556	1.66289196
170	287.68030908	1.66289196
180	306.80356662	2.49433794
190	325.92682416	2.49433794
200	345.0500817	2.49433794
210	363.34189326	2.49433794
220	381.63370482	2.49433794
230	399.92551638	2.49433794
240	418.21732794	2.49433794
250	436.5091395	2.49433794
260	453.96950508	3.32578392
270	471.42987066	3.32578392
280	488.89023624	3.32578392
290	506.35060182	3.32578392
298.15	519.6537375	3.32578392
300	522.97952142	3.32578392
310	539.60844102	3.32578392
320	556.23736062	3.32578392

System: diammonium magnesium sulfate hexahydrate; phases: Crystal
Fixed: Pressure, kPa = 101.3
Property: Molar heat capacity at constant pressure, J/K/mol (Crystal); method: Small (less than 1 g) adiabatic calorimetry
Temperature, K	Molar heat capacity at constant pressure, J/K/mol	uncertainty
8.21	0.7815592212	0.0249433794
8.53	0.873018279	0.0249433794
9.74	1.2554834298	0.0332578392
10.38	1.538175063	0.041572299
10.82	1.7959233168	0.041572299
11.24	2.0453571108	0.0498867588
11.65	2.3114198244	0.0582012186
12.06	2.6938849752	0.0582012186
12.45	3.0181489074	0.0665156784
12.84	3.4006140582	0.0748301382
13.26	3.8579093472	0.083144598
13.64	4.1821732794	0.0914590578
14.02	4.7226131664	0.0997735176
14.4	5.196537375	0.1080879774
14.77	5.612260365	0.1164024372
15.15	6.1028134932	0.124716897
15.51	6.568423242	0.124716897
15.88	7.06729083	0.1330313568
16.25	7.5827873376	0.1496602764
16.61	8.0151392472	0.1496602764
17.33	9.2872515966	0.1746036558
17.69	9.9440939208	0.1829181156
18.05	10.517791647	0.1912325754
18.42	10.9667724762	0.1995470352
18.77	11.5487846622	0.207861495
19.14	12.2305703658	0.2244904146
19.49	12.9206705292	0.2328048744
19.85	13.5858273132	0.2411193342
20.58	15.0408577782	0.2660627136
21.35	16.4460014844	0.291006093
22.12	17.9841765474	0.3159494724
22.88	19.5306660702	0.3408928518
23.64	20.994010995	0.3575217714
24.4	22.6818463344	0.3824651508
25.15	24.0620466612	0.4074085302
25.9	25.8662844378	0.4323519096
26.64	27.7619812722	0.4656097488
27.39	28.9509490236	0.4822386684
28.13	31.4619158832	0.5154965076
28.88	32.8753740492	0.540439887
29.62	34.9124167002	0.5653832664
30.36	36.5753086602	0.582012186
31.1	37.9887668262	0.6069555654
31.84	39.9759227184	0.6402134046
32.59	42.0961099674	0.6734712438
33.33	43.7922597666	0.6984146232
34.07	45.5964975432	0.7233580026
34.8	47.2344461238	0.748301382
35.54	49.6622683854	0.789873681
36.27	51.3334748052	0.8148170604
37.01	52.8051341898	0.83144598
37.74	54.8920635996	0.8647038192
38.47	56.6796724566	0.8896471986
39.21	58.5836837508	0.9229050378
39.94	61.0863361506	0.9644773368
40.67	63.1316932614	0.9894207162
41.4	65.1188491536	1.0226785554
42.14	66.6237663774	1.0476219348
42.87	68.9102428224	1.080879774
43.6	70.7394239784	1.1058231534
44.34	72.3690580992	1.1390809926
45.07	74.788565901	1.1723388318
45.8	76.3849421826	1.1972822112
46.53	78.9291668814	1.2388545102
47.27	80.3675684268	1.2554834298
48	82.3380953994	1.288741269
48.73	85.2897286284	1.330313568
49.46	86.8777904502	1.3552569474
50.19	88.4824811916	1.3802003268
50.92	90.4446937044	1.413458166
51.65	91.8914097096	1.4384015454
52.38	93.9783391194	1.4716593846
53.11	97.1045760042	1.5132316836
53.84	98.8672414818	1.538175063
54.57	100.3056430272	1.5631184424
55.3	102.891440025	1.6046907414
56.03	104.097036696	1.621319661
56.76	106.6911481536	1.66289196
57.49	108.420555792	1.6878353394
58.22	110.3162526264	1.7210931786
58.95	112.2701506794	1.746036558
59.67	114.0161872374	1.7792943972
60.4	115.6707647376	1.8042377766
61.13	117.6745495494	1.829181156
61.85	119.7448500396	1.8624389952
62.58	121.4493142986	1.8873823746
63.31	122.8710869244	1.912325754
64.03	125.049475392	1.9455835932
64.75	127.128090342	1.9788414324
65.48	129.040416096	2.0037848118
66.2	129.955006674	2.0204137314
66.92	132.3412566366	2.0536715706
67.65	133.9376329182	2.07861495
68.37	136.4901720768	2.120187249
69.1	137.6708253684	2.1368161686
69.82	139.8658427556	2.1700740078
70.69	142.010973384	2.203331847
71.72	144.2475630702	2.244904146
72.74	147.2823408972	2.286476445
73.76	149.8515089754	2.328048744
74.79	151.9716962244	2.3613065832
75.81	155.729832054	2.4195078018
76.84	157.8999060618	2.452765641
77.86	159.7457161374	2.4777090204
78.89	162.5560035498	2.5192813194
79.91	165.3247186632	2.5691680782
80.93	168.2347795932	0.8397604398
81.96	170.86214889	0.8480748996
82.98	173.0821096566	0.8563893594
84.01	174.7366871568	0.8647038192
85.19	176.26654776	0.873018279
86.14	178.9936905744	0.8896471986
87.1	180.8893874088	0.8979616584
89	184.6475232384	0.914590578
89.94	186.6346791306	0.9229050378
90.89	189.611255739	0.8896471986
91.83	191.9143611036	0.8979616584
93.7	195.3981197598	0.9062761182
95.51	199.4805195216	0.9229050378
96.44	201.9415996224	0.9395339574
97.37	204.0035856528	0.9478484172
98.29	205.5833330148	0.9478484172
99.22	207.1464514572	0.956162877
100.14	210.1562859048	0.9727917966
101.06	211.1373921612	0.9727917966
101.96	213.2409504906	0.9811062564
102.86	215.261364222	0.9894207162
104.66	218.8947831546	1.0060496358
105.55	221.3226054162	1.0143640956
106.44	222.661233444	1.0226785554
107.33	223.9749180924	1.0226785554
108.22	226.1782499394	1.039307475
109.02	228.1404624522	1.0476219348
109.9	230.6930016108	1.0559363946
110.78	231.1336679802	1.0559363946
111.66	233.3369998272	1.0642508544
112.53	235.4073003174	1.0725653142
113.41	236.9537898402	1.080879774
114.28	238.1344431318	1.080879774
115.15	240.080026725	1.0891942338
116.02	242.4163899288	1.1058231534
116.88	242.6076225042	1.1058231534
117.74	245.1851050422	1.1141376132
118.6	246.9727138992	1.122452073
119.46	247.6378706832	1.122452073
120.31	249.8162591508	1.1307665328
121.16	251.9198174802	1.1390809926
122.01	253.5411371412	1.1473954524
122.75	254.8631362494	1.1557099122
123.6	256.5093992898	1.1557099122
124.44	257.581964604	1.164024372
125.28	260.2342772802	1.1723388318
126.11	261.2236979964	1.1806532916
126.94	262.8034453584	1.1889677514
127.78	264.4746517782	1.1889677514
128.61	265.7384496678	1.1972822112
129.44	267.7339200198	1.205596671
130.27	268.2993032862	1.205596671
131.1	270.7271255478	1.2222255906
131.92	271.4754269298	1.2222255906
132.75	272.7059669802	1.2305400504
133.56	274.8510976086	1.2388545102
134.38	276.372643752	1.2388545102
135.2	277.6946428602	1.24716897
135.87	278.6009189784	1.24716897
136.66	279.9561759258	1.2554834298
137.45	281.111885838	1.2637978896
138.24	282.2675957502	1.2637978896
139.05	284.146663665	1.2721123494
139.85	285.2608012782	1.2804268092
140.65	287.0234667558	1.288741269
141.45	287.6221078614	1.288741269
142.24	289.3348865802	1.2970557288
143.82	292.5276391434	1.3053701886
144.61	294.1323298848	1.3136846484
145.4	294.7226565306	1.3136846484
146.18	295.745335086	1.3219991082
146.96	297.7906921968	1.330313568
147.74	297.907094634	1.330313568
148.35	298.7052827748	1.330313568
149.13	299.3371817196	1.3386280278
149.9	301.8065762802	1.3469424876
150.67	302.7211668582	1.3469424876
152.2	304.5254046348	1.3552569474
152.96	306.6539063436	1.3635714072
154.48	308.965326168	1.371885867
155.24	309.1565587434	1.371885867
155.99	311.3931484296	1.3885147866
158.25	314.2366936812	1.3968292464
159.71	317.1883269102	1.4051437062
160.26	317.3961884052	1.413458166
160.99	318.6350429154	1.413458166
161.73	320.5889409684	1.4217726258
163.16	322.2019461696	1.4300870856
163.89	322.0107135942	1.4300870856
164.61	324.0311273256	1.4384015454
165.33	324.5299949136	1.4384015454
166.06	325.8603084816	1.4467160052
166.77	326.2344591726	1.4467160052
167.49	327.4151124642	1.455030465
168.2	329.169463482	1.455030465
168.91	330.6411228666	1.4633449248
169.62	330.9737012586	1.4633449248
170.33	331.081789236	1.4633449248
171	332.6781655176	1.4716593846
171.48	334.2246550404	1.4799738444
172.18	335.0145287214	1.4799738444
172.87	336.1702386336	1.4882883042
174.26	337.6668413976	1.496602764
174.95	339.0886140234	1.496602764
175.63	340.0447769004	1.5049172238
176.32	341.3418326292	1.5049172238
177	342.722032956	1.5132316836
177.67	343.2458439234	1.5132316836
178.35	343.4952777174	1.5132316836
179.02	344.5761574914	1.5215461434
179.69	346.6215146022	1.5298606032
180.35	347.3116147656	1.5298606032
181.02	348.2262053436	1.538175063
181.68	349.1075380824	1.538175063
182.74	350.1468455574	1.5464895228
183.39	350.9782915374	1.5464895228
184.04	351.5852471028	1.5464895228
184.69	352.5663533592	1.5548039826
185.33	353.8052078694	1.5631184424
185.97	354.777999666	1.5631184424
186.58	356.6820109602	1.5714329022
187.22	357.272337606	1.5714329022
187.85	357.147620709	1.5714329022
188.48	358.4862487368	1.579747362
189.11	361.2383349306	1.5880618218
189.74	361.2965361492	1.5880618218
190.36	361.720573599	1.5880618218
190.99	362.3774159232	1.5963762816
191.6	363.3086354208	1.5963762816
191.94	364.1650247802	1.6046907414
192.55	365.1793888758	1.6046907414
193.16	366.5762181222	1.6130052012
193.77	367.1083435494	1.6130052012
194.38	368.2307956224	1.621319661
194.99	368.6964053712	1.621319661
195.59	369.6026814894	1.621319661
196.19	370.5422154468	1.6296341208
196.78	371.988931452	1.6379485806
197.38	372.0221892912	1.6379485806
197.97	373.402389618	1.6379485806
198.56	374.1257476206	1.6462630404
199.15	374.815847784	1.6462630404
199.73	375.9881866158	1.6545775002
201.32	377.0856953094	1.6545775002
202.5	379.3638572946	1.66289196
204	380.261818953	1.6712064198
205.49	383.8702945062	1.6795208796
206.97	385.458356328	1.6878353394
208.44	388.1023545444	1.704464259
209.91	389.8733344818	1.704464259
211.37	392.2429555248	1.7210931786
212.82	394.3465138542	1.7294076384
214.26	396.225581769	1.7377220982
215.69	398.1046496838	1.7377220982
217.12	400.258094772	1.7543510178
218.54	402.2785085034	1.7626654776
219.95	404.373752373	1.7709799374
221.36	406.3775371848	1.7792943972
222.75	408.323120778	1.787608857
224.14	410.1024151752	1.787608857
225.12	411.690476997	1.7959233168
226.49	413.6942618088	1.8042377766
227.86	415.1160344346	1.8125522364
229.21	416.9951023494	1.8208666962
230.56	418.8658558044	1.829181156
231.89	420.6202068222	1.8374956158
233.22	421.95883485	1.8374956158
234.54	423.538582212	1.8458100756
235.85	426.2906684058	1.8541245354
237.15	427.8537868482	1.8624389952
238.43	429.566565567	1.870753455
239.7	431.271029826	1.8790679148
240.96	433.1500977408	1.8873823746
242.22	435.0790524144	1.8956968344
243.46	437.1160950654	1.9040112942
244.7	438.9286473018	1.912325754
245.35	439.0783075782	1.912325754
246.57	440.9324321136	1.9206402138
247.78	442.5870096138	1.9289546736
248.98	444.4411341492	1.9289546736
250.17	446.07076827	1.9372691334
251.36	448.2158988984	1.9455835932
252.53	449.0722882578	1.953898053
253.7	450.560576562	1.953898053
254.85	452.514474615	1.9622125128
256	454.0193918388	1.9705269726
257.13	455.673969339	1.9788414324
258.26	456.713276814	1.9788414324
259.38	458.2181940378	1.9871558922
260.49	459.5568220656	1.995470352
261.59	460.828934415	2.0037848118
263.14	462.5999143524	2.0037848118
264.21	464.4374099682	2.0120992716
265.28	465.069308913	2.0204137314
266.33	466.9566912876	2.0287281912
267.38	468.6777844662	2.0287281912
268.41	469.184966514	2.037042651
269.43	471.2552670042	2.0453571108
270.45	471.9121093284	2.0453571108
271.46	473.2341084366	2.0536715706
272.45	475.0300317534	2.0619860304
273.43	475.6868740776	2.0619860304
274.41	476.1524838264	2.0619860304
275.37	478.1063818794	2.0703004902
276.33	479.5614123444	2.07861495
277.18	480.57577644	2.07861495
278.12	482.0557502844	2.0869294098
279.24	482.9620264026	2.0869294098
280.16	483.6853844052	2.0952438696
281.06	484.9574967546	2.0952438696
281.95	485.9302885512	2.1035583294
282.84	487.7178974082	2.1118727892
283.71	488.4911421696	2.1118727892
284.58	490.095832911	2.120187249
285.44	490.9023355116	2.120187249
286.28	492.4072527354	2.1285017088
287.02	492.423881655	2.1285017088
287.85	493.7458807632	2.1368161686
288.67	494.5191255246	2.1368161686
289.48	495.4503450222	2.1451306284
291.02	497.412557535	2.1534450882
291.8	498.5183806884	2.1534450882
292.57	498.9424181382	2.1534450882
293.33	499.3747700478	2.161759548
294.07	501.7859633898	2.1700740078
295.55	502.19337192	2.1700740078
296.27	503.6234590056	2.1783884676
296.98	505.7020739556	2.1867029274
297.69	505.7519607144	2.1867029274
298.38	505.8351053124	2.1867029274
299.07	507.0490164432	2.1867029274
299.74	508.1714685162	2.1950173872
300.41	508.8199963806	2.1950173872
301.07	510.715693215	2.203331847
301.57	510.8237811924	2.203331847
301.72	510.7489510542	2.203331847
302.21	511.4556801372	2.2116463068
302.69	512.1457803006	2.2116463068
303.49	512.2289248986	2.2116463068
303.96	513.3181191324	2.2199607666
304.42	514.498772424	2.2199607666
304.88	514.1578795722	2.2199607666
305.32	514.6318037808	2.2199607666
305.76	515.2553882658	2.2282752264
306.19	516.3778403388	2.2282752264
306.61	517.866128643	2.2365896862
306.88	517.3340032158	2.2365896862
307.29	517.741411746	2.2365896862
307.37	516.9598525248	2.2282752264
307.77	519.5872218216	2.244904146
308.01	518.7308324622	2.2365896862
308.4	519.1881277512	2.2365896862
308.78	518.9303794974	2.2365896862
309.15	520.817761872	2.244904146
309.36	519.9198002136	2.244904146
309.73	520.5350702388	2.244904146
310.08	520.0528315704	2.244904146
310.42	520.859334171	2.244904146
310.76	521.9069561058	2.2532186058
311.09	522.0566163822	2.2532186058
311.42	522.7966033044	2.2532186058
311.75	523.39524441	2.2615330656
311.81	522.9046912818	2.2532186058
312.12	523.39524441	2.2615330656
312.42	523.1624395356	2.2532186058
312.72	523.8109674	2.2615330656
313.01	524.4594952644	2.2615330656
313.3	524.4179229654	2.2615330656
313.57	525.182853267	2.2615330656
313.85	525.0747652896	2.2615330656
314.11	526.346877639	2.2698475254
314.38	526.1889029028	2.2698475254
314.64	526.4549656164	2.2698475254
314.89	526.6877704908	2.2698475254
315.13	526.637883732	2.2698475254
315.33	527.1201224004	2.2698475254
315.56	527.5441598502	2.2781619852
315.78	528.467064888	2.2781619852
315.84	527.5358453904	2.2781619852

System: diammonium magnesium sulfate hexahydrate + water; phases: Liquid
Property: Molar enthalpy of solution, kJ/mol (Liquid); method: ISOPERIBOL
Mass fraction of diammonium magnesium sulfate hexahydrate	Pressure, kPa	Temperature, K	Molar enthalpy of solution, kJ/mol	uncertainty
0.00135	101.3	298.15	40.62	0.44
