Measured thermophysical data. Solubilities in aqueous solutions of the sodium salts of succinic and glutaric acid with and without ammonium sulfate
Source: J. Chem. Thermodyn., 2018, 10.1016/j.jct.2018.06.002
Compound 1: monosodium butanediate, C4H5NaO4, InChI=1S/C4H6O4.Na/c5-3(6)1-2-4(7)8;/h1-2H2,(H,5,6)(H,7,8);/q;+1/p-1
Compound 2: disodium succinate, C4H4Na2O4, InChI=1S/C4H6O4.2Na/c5-3(6)1-2-4(7)8;;/h1-2H2,(H,5,6)(H,7,8);;/q;2*+1/p-2
Compound 3: sodium 4-carboxybutanoate, C5H7NaO4, InChI=1S/C5H8O4.Na/c6-4(7)2-1-3-5(8)9;/h1-3H2,(H,6,7)(H,8,9);/q;+1/p-1
Compound 4: disodium pentanedioate, C5H6Na2O4, InChI=1S/C5H8O4.2Na/c6-4(7)2-1-3-5(8)9;;/h1-3H2,(H,6,7)(H,8,9);;/q;2*+1/p-2
Compound 5: ammonium sulfate, H8N2O4S, InChI=1S/2H3N.H2O4S/c;;1-5(2,3)4/h2*1H3;(H2,1,2,3,4), purity 99%
Compound 6: water, H2O, InChI=1S/H2O/h1H2, purity 99.8%

System: monosodium butanediate + water; phases: Crystal, Crystal of intercomponent compound 1, Liquid, Air at 1 atmosphere
Property: Eutectic temperature, K (Crystal); method: DTA
Eutectic temperature, K	uncertainty
265.3	1

System: monosodium butanediate + water; phases: Liquid, Crystal
Fixed: Pressure, kPa = 99.2
Property: Solid-liquid equilibrium temperature, K (Liquid); method: DTA
Mass fraction of monosodium butanediate	Solid-liquid equilibrium temperature, K	uncertainty
0.05	273.3	1
0.1	271.3	1
0.15	269.8	1
0.15	269.4	1
0.2004	264.9	1

System: monosodium butanediate + water; phases: Liquid, Crystal of intercomponent compound 1
Fixed: Pressure, kPa = 99.5
Property: Solid-liquid equilibrium temperature, K (Liquid); method: DTA
Mass fraction of monosodium butanediate	Solid-liquid equilibrium temperature, K	uncertainty
0.2004	264.9	1.1
0.25	290.2	1.1

System: disodium succinate + water; phases: Crystal, Crystal of intercomponent compound 1, Liquid, Air at 1 atmosphere
Property: Eutectic temperature, K (Crystal); method: DTA
Eutectic temperature, K	uncertainty
264.3	1

System: disodium succinate + water; phases: Liquid, Crystal
Fixed: Pressure, kPa = 99.2
Property: Solid-liquid equilibrium temperature, K (Liquid); method: DTA
Mass fraction of disodium succinate	Solid-liquid equilibrium temperature, K	uncertainty
0.0497	273.3	1
0.0998	271.2	1
0.1501	268.8	1

System: disodium succinate + water; phases: Liquid, Crystal of intercomponent compound 1
Fixed: Pressure, kPa = 99.2
Property: Solid-liquid equilibrium temperature, K (Liquid); method: DTA
Mass fraction of disodium succinate	Solid-liquid equilibrium temperature, K	uncertainty
0.1998	264.5	3
0.2499	299.3	3
0.2699	300.6	3
0.2999	310.9	3
0.32	315.2	3
0.35	318.9	3
0.37	326.4	3

System: sodium 4-carboxybutanoate + water; phases: Crystal, Crystal of intercomponent compound 1, Liquid, Air at 1 atmosphere
Property: Eutectic temperature, K (Crystal); method: DTA
Eutectic temperature, K	uncertainty
266.2	1

System: sodium 4-carboxybutanoate + water; phases: Liquid, Crystal
Fixed: Pressure, kPa = 99.2
Property: Solid-liquid equilibrium temperature, K (Liquid); method: DTA
Mass fraction of sodium 4-carboxybutanoate	Solid-liquid equilibrium temperature, K	uncertainty
0.05	273.1	1
0.1	271.3	1
0.15	269.8	1
0.2	268.1	1

System: sodium 4-carboxybutanoate + water; phases: Liquid, Crystal of intercomponent compound 1
Fixed: Pressure, kPa = 99.2
Property: Solid-liquid equilibrium temperature, K (Liquid); method: DTA
Mass fraction of sodium 4-carboxybutanoate	Solid-liquid equilibrium temperature, K	uncertainty
0.25	266.4	1
0.25	267.3	1
0.275	283.1	1
0.3	290.6	1
0.3	290.7	1
0.325	297.2	1
0.35	301.8	1
0.375	305.5	1

System: disodium pentanedioate + water; phases: Liquid, Crystal
Fixed: Pressure, kPa = 99.2
Property: Solid-liquid equilibrium temperature, K (Liquid); method: DTA
Mass fraction of disodium pentanedioate	Solid-liquid equilibrium temperature, K	uncertainty
0.05	272.7	1
0.1	270.5	1
0.15	267.7	1
0.2	264.2	1
0.25	260.3	1
0.3	254.5	1
0.35	247.4	1
0.35	246.3	1
0.38	242.3	1

System: monosodium butanediate + ammonium sulfate + water; phases: Liquid, Crystal
Fixed: Pressure, kPa = 99.2
Property: Solid-liquid equilibrium temperature, K (Liquid); method: DTA
Mass fraction of ammonium sulfate	Mass fraction of monosodium butanediate	Solid-liquid equilibrium temperature, K	uncertainty
0.1	0.0251	270.1	1
0.1	0.0501	269.5	1
0.1001	0.0751	268.2	1
0.2	0.0251	265.9	1
0.2	0.0501	264.6	1
0.3	0.025	259.9	1

System: monosodium butanediate + ammonium sulfate + water; phases: Liquid, Crystal
Fixed: Mass fraction of ammonium sulfate = 0.1
Fixed: Pressure, kPa = 99.2
Property: Solid-liquid equilibrium temperature, K (Liquid); method: DTA
Mass fraction of monosodium butanediate	Solid-liquid equilibrium temperature, K	uncertainty
0.25	292.9	1
0.275	295.5	1
0.3	297	1
0.33	301.3	1
0.35	302.8	1

System: monosodium butanediate + ammonium sulfate + water; phases: Liquid, Crystal
Fixed: Pressure, kPa = 99.2
Property: Solid-liquid equilibrium temperature, K (Liquid); method: DTA
Mass fraction of ammonium sulfate	Mass fraction of monosodium butanediate	Solid-liquid equilibrium temperature, K	uncertainty
0.3	0.05	262.1	1.1
0.3	0.075	276	1
0.3	0.1	283.1	1
0.3	0.125	287.7	1
0.3999	0.025	264.4	1.1
0.4	0.05	281.6	1
0.4	0.075	288.4	1
0.4	0.09	291.6	1.1
0.4	0.1	306.3	1.5

System: monosodium butanediate + ammonium sulfate + water; phases: Liquid, Crystal of intercomponent compound 1
Fixed: Pressure, kPa = 99.2
Property: Solid-liquid equilibrium temperature, K (Liquid); method: DTA
Mass fraction of ammonium sulfate	Mass fraction of monosodium butanediate	Solid-liquid equilibrium temperature, K	uncertainty
0.1	0.1	275.3	1
0.1	0.15	284.2	1
0.1	0.2	290.5	1
0.2	0.075	264.2	1
0.2	0.1	272.2	1
0.2	0.15	282.3	1
0.2	0.2	287.9	1
0.2	0.25	290.8	1
0.2	0.275	290.3	1
0.2	0.3	291.5	1
0.3	0.15	291.9	1
0.3	0.2	310.8	1
0.3	0.25	332.8	1.1

System: disodium succinate + ammonium sulfate + water; phases: Liquid, Crystal
Fixed: Pressure, kPa = 99.2
Property: Solid-liquid equilibrium temperature, K (Liquid); method: DTA
Mass fraction of ammonium sulfate	Mass fraction of disodium succinate	Solid-liquid equilibrium temperature, K	uncertainty
0.1	0.0251	270	1
0.1	0.05	269.1	1
0.2	0.0251	265.9	1
0.2001	0.0501	264.1	1
0.3	0.025	259.7	1
0.3	0.04	258.6	1
0.4	0.025	254.9	1

System: disodium succinate + ammonium sulfate + water; phases: Liquid, Crystal of intercomponent compound 1
Fixed: Pressure, kPa = 99.2
Property: Solid-liquid equilibrium temperature, K (Liquid); method: DTA
Mass fraction of ammonium sulfate	Mass fraction of disodium succinate	Solid-liquid equilibrium temperature, K	uncertainty
0.1	0.075	278.9	1
0.1	0.1	284.9	1
0.1	0.15	290.3	1
0.1	0.2	293.5	1
0.2	0.0751	276.7	1
0.2	0.1	284.7	1
0.2	0.1251	288.5	1
0.2	0.15	291.6	1
0.2	0.175	291.7	1
0.2	0.2	292.5	1
0.2	0.21	293.4	1
0.2	0.225	293.7	1
0.3	0.05	275.3	1
0.3	0.075	276.7	1
0.3	0.09	281.9	1
0.3	0.1001	293.2	1
0.3	0.125	305.5	1
0.3	0.1501	315.7	1
0.4	0.0501	280.9	1
0.4	0.06	293.1	1
0.4	0.075	304.8	1
0.4	0.09	309.5	1
0.4	0.1	313.9	1
0.4	0.11	317.7	1

System: disodium succinate + ammonium sulfate + water; phases: Liquid, Crystal of intercomponent compound 2
Fixed: Mass fraction of ammonium sulfate = 0.1
Fixed: Pressure, kPa = 99.2
Property: Solid-liquid equilibrium temperature, K (Liquid); method: DTA
Mass fraction of disodium succinate	Solid-liquid equilibrium temperature, K	uncertainty
0.25	296	1
0.275	303.3	1
0.3	304.4	1

System: sodium 4-carboxybutanoate + ammonium sulfate + water; phases: Liquid, Crystal
Fixed: Pressure, kPa = 99.2
Property: Solid-liquid equilibrium temperature, K (Liquid); method: DTA
Mass fraction of ammonium sulfate	Mass fraction of sodium 4-carboxybutanoate	Solid-liquid equilibrium temperature, K	uncertainty
0.1	0.0251	270.2	1
0.1	0.0501	269.4	1
0.1	0.0751	268.7	1
0.2	0.025	266.1	1
0.2	0.0501	264.9	1
0.2	0.075	263.4	1
0.3	0.025	260.1	1
0.3	0.05	258.9	1
0.4	0.025	261.2	1

System: sodium 4-carboxybutanoate + ammonium sulfate + water; phases: Liquid, Crystal of intercomponent compound 1
Fixed: Pressure, kPa = 99.2
Property: Solid-liquid equilibrium temperature, K (Liquid); method: DTA
Mass fraction of ammonium sulfate	Mass fraction of sodium 4-carboxybutanoate	Solid-liquid equilibrium temperature, K	uncertainty
0.1	0.1001	274.2	1
0.1	0.15	282.9	1
0.1	0.2	289	1
0.2	0.1	273.1	1
0.2	0.125	278.5	1
0.2	0.15	282.1	1
0.2	0.1801	286	1
0.2	0.2001	286.7	1
0.2	0.225	298.6	1
0.2	0.25	307	1
0.2	0.275	314.8	1
0.2	0.3	320.4	1

System: sodium 4-carboxybutanoate + ammonium sulfate + water; phases: Liquid, Crystal of intercomponent compound 2
Fixed: Mass fraction of ammonium sulfate = 0.1
Fixed: Pressure, kPa = 99.2
Property: Solid-liquid equilibrium temperature, K (Liquid); method: DTA
Mass fraction of sodium 4-carboxybutanoate	Solid-liquid equilibrium temperature, K	uncertainty
0.25	291.9	1
0.3	296.5	1
0.35	299.7	1

System: sodium 4-carboxybutanoate + ammonium sulfate + water; phases: Liquid, Crystal of intercomponent compound 3
Fixed: Pressure, kPa = 99.2
Property: Solid-liquid equilibrium temperature, K (Liquid); method: DTA
Mass fraction of ammonium sulfate	Mass fraction of sodium 4-carboxybutanoate	Solid-liquid equilibrium temperature, K	uncertainty
0.3	0.075	268.1	1
0.3	0.1	282.3	1
0.3	0.125	285.7	1
0.3	0.15	292	1
0.3	0.175	308.6	1
0.3	0.2	317.9	1
0.3	0.225	323	1
0.3	0.25	332.8	1
0.4	0.04	267.5	1
0.4	0.05	280.6	1
0.4	0.06	285.2	1
0.4	0.075	292.4	1
0.4	0.09	296.7	1

System: disodium pentanedioate + ammonium sulfate + water; phases: Liquid, Crystal
Fixed: Pressure, kPa = 99.2
Property: Solid-liquid equilibrium temperature, K (Liquid); method: DTA
Mass fraction of ammonium sulfate	Mass fraction of disodium pentanedioate	Solid-liquid equilibrium temperature, K	uncertainty
0.1	0.025	269.9	1
0.2	0.025	265.6	1
0.3	0.025	259.5	1
0.4	0.01	255.8	1

System: disodium pentanedioate + ammonium sulfate + water; phases: Liquid, Crystal of intercomponent compound 1
Fixed: Pressure, kPa = 99.2
Property: Solid-liquid equilibrium temperature, K (Liquid); method: DTA
Mass fraction of ammonium sulfate	Mass fraction of disodium pentanedioate	Solid-liquid equilibrium temperature, K	uncertainty
0.1	0.05	272.3	1
0.1	0.075	281.2	1
0.1	0.1	285.6	1
0.2	0.05	270.3	1
0.2	0.075	281	1
0.2	0.1	285.4	1
0.2	0.125	288	1
0.2	0.15	290.8	1
0.2	0.175	293.2	1
0.2	0.2	294.1	1
0.3	0.05	268.2	1
0.3	0.075	278.4	1
0.3	0.09	295.7	1
0.3	0.1	306.5	1
0.3	0.11	310	1
0.3	0.125	315	1
0.3	0.15	328	1
0.4	0.0151	281.5	1
0.4	0.025	287.3	1
0.4	0.03	297.4	1
0.4	0.04	302.3	1
0.4	0.04	301.5	1
0.4	0.05	317	1
0.4	0.06	318.3	1
0.4	0.07	329.5	1

System: disodium pentanedioate + ammonium sulfate + water; phases: Liquid, Crystal of intercomponent compound 2
Fixed: Mass fraction of ammonium sulfate = 0.1
Fixed: Pressure, kPa = 99.2
Property: Solid-liquid equilibrium temperature, K (Liquid); method: DTA
Mass fraction of disodium pentanedioate	Solid-liquid equilibrium temperature, K	uncertainty
0.05	272.3	1
0.075	281.2	1
0.1	285.6	1
0.15	290.2	1
0.2	296.2	1
0.25	299.1	1
