Measured thermophysical data. Solid-liquid phase equilibria of stearic acid and dicarboxylic acids binary mixtures as low temperature thermal energy storage materials
Source: J. Chem. Thermodyn., 2018, 10.1016/j.jct.2018.01.008
Compound 1: octadecanoic acid, C18H36O2, InChI=1S/C18H36O2/c1-2-3-4-5-6-7-8-9-10-11-12-13-14-15-16-17-18(19)20/h2-17H2,1H3,(H,19,20), purity 98%
Compound 2: 1,6-hexanedioic acid, C6H10O4, InChI=1S/C6H10O4/c7-5(8)3-1-2-4-6(9)10/h1-4H2,(H,7,8)(H,9,10), purity 99.5%
Compound 3: 1,8-octanedioic acid, C8H14O4, InChI=1S/C8H14O4/c9-7(10)5-3-1-2-4-6-8(11)12/h1-6H2,(H,9,10)(H,11,12), purity 99%
Compound 4: 1,10-decanedioic acid, C10H18O4, InChI=1S/C10H18O4/c11-9(12)7-5-3-1-2-4-6-8-10(13)14/h1-8H2,(H,11,12)(H,13,14), purity 99%

System: octadecanoic acid; phases: Crystal, Liquid, Air at 1 atmosphere
Property: Molar enthalpy of transition or fusion, kJ/mol (Crystal); method: DSC
Molar enthalpy of transition or fusion, kJ/mol	uncertainty
57.1201850196	5.8147147856

System: octadecanoic acid; phases: Crystal, Liquid, Air at 1 atmosphere
Property: Normal melting temperature, K (Crystal); method: DTA
Normal melting temperature, K	uncertainty
342	2.03

System: 1,6-hexanedioic acid; phases: Crystal, Liquid, Air at 1 atmosphere
Property: Molar enthalpy of transition or fusion, kJ/mol (Crystal); method: DSC
Molar enthalpy of transition or fusion, kJ/mol	uncertainty
35.849897772	3.65353

System: 1,6-hexanedioic acid; phases: Crystal, Liquid, Air at 1 atmosphere
Property: Normal melting temperature, K (Crystal); method: DTA
Normal melting temperature, K	uncertainty
423.32	2.03

System: 1,8-octanedioic acid; phases: Crystal 1, Liquid, Air at 1 atmosphere
Property: Molar enthalpy of transition or fusion, kJ/mol (Crystal 1); method: DSC
Molar enthalpy of transition or fusion, kJ/mol	uncertainty
29.055619248	2.9647880072

System: 1,8-octanedioic acid; phases: Crystal 2, Crystal 1, Air at 1 atmosphere
Property: Triple point temperature, K (Crystal 2); method: DSC
Triple point temperature, K	uncertainty
405.59	2.12

System: 1,8-octanedioic acid; phases: Crystal 1, Liquid, Air at 1 atmosphere
Property: Normal melting temperature, K (Crystal 1); method: DTA
Normal melting temperature, K	uncertainty
413.78	2.03

System: 1,8-octanedioic acid; phases: Crystal 2, Crystal 1, Air at 1 atmosphere
Property: Molar enthalpy of transition or fusion, kJ/mol (Crystal 2); method: DSC
Molar enthalpy of transition or fusion, kJ/mol	uncertainty
8.6679113536	0.897100954

System: 1,10-decanedioic acid; phases: Crystal, Liquid, Air at 1 atmosphere
Property: Molar enthalpy of transition or fusion, kJ/mol (Crystal); method: DSC
Molar enthalpy of transition or fusion, kJ/mol	uncertainty
44.5227690528	4.5343893984

System: 1,10-decanedioic acid; phases: Crystal, Liquid, Air at 1 atmosphere
Property: Normal melting temperature, K (Crystal); method: DTA
Normal melting temperature, K	uncertainty
404.9	2.03

System: octadecanoic acid + 1,6-hexanedioic acid; phases: Crystal, Crystal, Liquid, Air at 1 atmosphere
Property: Eutectic temperature, K (Crystal); method: DTA
Eutectic temperature, K	uncertainty
339.77	2.03

System: octadecanoic acid + 1,6-hexanedioic acid; phases: Liquid, Crystal
Fixed: Pressure, kPa = 77
Property: Solid-liquid equilibrium temperature, K (Liquid); method: DTA
Mole fraction of octadecanoic acid	Solid-liquid equilibrium temperature, K	uncertainty
0	423.32	2.03
0.054	424.24	2.03
0.114	422.88	2.03
0.18	422.5	2.03
0.255	422.23	2.03
0.339	421.58	2.03
0.435	421.4	2.03
0.545	420.07	2.03
0.673	415.15	2.03
0.822	405.01	2.03
0.855	399.84	2.03
0.889	385.75	2.03
0.925	340	2.03

System: octadecanoic acid + 1,6-hexanedioic acid; phases: Liquid, Crystal
Fixed: Pressure, kPa = 77
Property: Solid-liquid equilibrium temperature, K (Liquid); method: DTA
Mole fraction of octadecanoic acid	Solid-liquid equilibrium temperature, K	uncertainty
0.962	340.6	2.03
1	342	2.03

System: octadecanoic acid + 1,6-hexanedioic acid; phases: Crystal of unknown type
Property: Thermal conductivity, W/m/K (Crystal of unknown type); method: Transient plane heat source method
Mole fraction of octadecanoic acid	Pressure, kPa	Temperature, K	Thermal conductivity, W/m/K	uncertainty
0.962	77	298.15	0.1439	0.0106

System: octadecanoic acid + 1,8-octanedioic acid; phases: Crystal, Crystal 2, Liquid, Air at 1 atmosphere
Property: Eutectic temperature, K (Crystal); method: DTA
Eutectic temperature, K	uncertainty
339.55	2.03

System: octadecanoic acid + 1,8-octanedioic acid; phases: Liquid, Crystal 1
Fixed: Pressure, kPa = 77
Property: Solid-liquid equilibrium temperature, K (Liquid); method: DTA
Mole fraction of octadecanoic acid	Solid-liquid equilibrium temperature, K	uncertainty
0	413.78	2.03
0.064	413.03	2.03
0.133	410.79	2.03
0.208	409	2.03
0.29	406.57	2.03
0.38	406.46	2.03

System: octadecanoic acid + 1,8-octanedioic acid; phases: Liquid, Crystal
Fixed: Pressure, kPa = 77
Property: Solid-liquid equilibrium temperature, K (Liquid); method: DTA
Mole fraction of octadecanoic acid	Solid-liquid equilibrium temperature, K	uncertainty
0.936	339.52	2.03
0.968	339.85	2.07
1	342	2.03

System: octadecanoic acid + 1,8-octanedioic acid; phases: Liquid, Crystal 2
Fixed: Pressure, kPa = 77
Property: Solid-liquid equilibrium temperature, K (Liquid); method: DTA
Mole fraction of octadecanoic acid	Solid-liquid equilibrium temperature, K	uncertainty
0.479	404.42	2.03
0.588	400.07	2.03
0.71	392.88	2.03
0.846	368.74	2.03
0.876	355.96	2.03
0.906	345.33	2.03

System: octadecanoic acid + 1,8-octanedioic acid; phases: Crystal of unknown type
Property: Thermal conductivity, W/m/K (Crystal of unknown type); method: Transient plane heat source method
Mole fraction of octadecanoic acid	Pressure, kPa	Temperature, K	Thermal conductivity, W/m/K	uncertainty
0.936	77	298.15	0.172	0.0126

System: octadecanoic acid + 1,10-decanedioic acid; phases: Crystal, Crystal, Liquid, Air at 1 atmosphere
Property: Eutectic temperature, K (Crystal); method: DTA
Eutectic temperature, K	uncertainty
339.18	2.03

System: octadecanoic acid + 1,10-decanedioic acid; phases: Liquid, Crystal
Fixed: Pressure, kPa = 77
Property: Solid-liquid equilibrium temperature, K (Liquid); method: DTA
Mole fraction of octadecanoic acid	Solid-liquid equilibrium temperature, K	uncertainty
0	404.9	2.03
0.073	404.39	2.03
0.151	402.26	2.03
0.234	400.38	2.03
0.322	398.27	2.03
0.416	395.62	2.03
0.516	392.63	2.03
0.624	388.78	2.03
0.74	366.36	2.03
0.865	354.25	2.03
0.891	349.35	2.03
0.918	344.49	2.03

System: octadecanoic acid + 1,10-decanedioic acid; phases: Liquid, Crystal
Fixed: Pressure, kPa = 77
Property: Solid-liquid equilibrium temperature, K (Liquid); method: DTA
Mole fraction of octadecanoic acid	Solid-liquid equilibrium temperature, K	uncertainty
0.945	340.23	2.03
0.972	340.26	2.06
1	342	2.03

System: octadecanoic acid + 1,10-decanedioic acid; phases: Crystal of unknown type
Property: Thermal conductivity, W/m/K (Crystal of unknown type); method: Transient plane heat source method
Mole fraction of octadecanoic acid	Pressure, kPa	Temperature, K	Thermal conductivity, W/m/K	uncertainty
0.945	77	298.15	0.1802	0.0132
