Measured thermophysical data. Liquid-liquid phase equilibrium and heat capacity of binary solution {2-propanol + 1-octyl-3-methylimidazolium hexafluorophosphate}
Source: J. Chem. Thermodyn., 2017, 10.1016/j.jct.2016.10.047
Compound 1: 1-octyl-3-methylimidazolium hexafluorophosphate, C12H23F6N2P, InChI=1S/C12H23N2.F6P/c1-3-4-5-6-7-8-9-14-11-10-13(2)12-14;1-7(2,3,4,5)6/h10-12H,3-9H2,1-2H3;/q+1;-1, purity 99%
Compound 2: propan-2-ol, C3H8O, InChI=1S/C3H8O/c1-3(2)4/h3-4H,1-2H3, purity 99.5%

System: 1-octyl-3-methylimidazolium hexafluorophosphate; phases: Liquid
Fixed: Pressure, kPa = 94
Fixed: Wavelength, nm = 632.8
Property: Refractive index (other wavelength) (Liquid); method: minimum deviation method
Temperature, K	Refractive index (other wavelength)	uncertainty
298.186	1.4215	0.0003
304.197	1.4199	0.0003
310.251	1.4183	0.0003
300.196	1.421	0.0003
306.222	1.4193	0.0003
312.243	1.4178	0.0003
302.192	1.4204	0.0003
308.236	1.4188	0.0003

System: propan-2-ol; phases: Liquid
Fixed: Pressure, kPa = 94
Fixed: Wavelength, nm = 632.8
Property: Refractive index (other wavelength) (Liquid); method: minimum deviation method
Temperature, K	Refractive index (other wavelength)	uncertainty
298.206	1.3736	0.0002
304.243	1.371	0.0002
310.242	1.3684	0.0002
300.173	1.3728	0.0002
306.217	1.3701	0.0002
312.201	1.3675	0.0002
302.197	1.3719	0.0002
308.223	1.3693	0.0002

System: propan-2-ol + 1-octyl-3-methylimidazolium hexafluorophosphate; phases: Liquid mixture 1, Liquid mixture 2, Air at 1 atmosphere
Property: Upper consolute composition: mole fraction of 1-octyl-3-methylimidazolium hexafluorophosphate (Liquid mixture 1); method: "equal volume" method
Upper consolute composition: mole fraction of 1-octyl-3-methylimidazolium hexafluorophosphate	uncertainty
0.08	0.002

System: propan-2-ol + 1-octyl-3-methylimidazolium hexafluorophosphate; phases: Liquid mixture 1, Liquid mixture 2, Air at 1 atmosphere
Property: Upper consolute temperature, K (Liquid mixture 1); method: VISOBS
Upper consolute temperature, K	uncertainty
310.472	0.387

System: propan-2-ol + 1-octyl-3-methylimidazolium hexafluorophosphate; phases: Liquid mixture 1, Liquid mixture 2
Fixed: Pressure, kPa = 93
Fixed: Wavelength, nm = 632.8
Property: Refractive index (other wavelength) (Liquid mixture 1); method: minimum deviation method
Temperature, K	Refractive index (other wavelength)	uncertainty
310.467	1.3799	0.0013
310.462	1.3796	0.0011
310.458	1.3795	0.0009
310.453	1.3794	0.0009
310.449	1.3792	0.0008
310.442	1.379	0.0007
310.438	1.3788	0.0006
310.427	1.3786	0.0009
310.419	1.3785	0.0008
310.406	1.3784	0.0006
310.391	1.3782	0.0005
310.377	1.378	0.0005
310.354	1.3778	0.0005
310.331	1.3776	0.0004
310.302	1.3774	0.0004
310.275	1.3772	0.0004
310.24	1.377	0.0003
310.199	1.3768	0.0003
310.158	1.3766	0.0003
310.099	1.3764	0.0003
310.026	1.3761	0.0003
309.937	1.3759	0.0003
309.838	1.3757	0.0003
309.72	1.3754	0.0003
309.597	1.3752	0.0003
309.453	1.375	0.0003
309.3	1.3748	0.0003
309.127	1.3747	0.0003
308.944	1.3745	0.0003
308.75	1.3743	0.0003
308.542	1.3742	0.0003
308.326	1.3741	0.0003
308.085	1.374	0.0003
307.818	1.3738	0.0003
307.516	1.3739	0.0003
307.182	1.3738	0.0003
306.801	1.3737	0.0003
306.362	1.3737	0.0003
305.857	1.3736	0.0003
305.283	1.3737	0.0003
304.665	1.3738	0.0003
303.825	1.3739	0.0003
302.95	1.374	0.0003
301.881	1.3743	0.0003
300.831	1.3746	0.0003

System: propan-2-ol + 1-octyl-3-methylimidazolium hexafluorophosphate; phases: Liquid mixture 2, Liquid mixture 1
Fixed: Pressure, kPa = 93
Fixed: Wavelength, nm = 632.8
Property: Refractive index (other wavelength) (Liquid mixture 2); method: minimum deviation method
Temperature, K	Refractive index (other wavelength)	uncertainty
310.467	1.3824	0.0015
310.462	1.3828	0.0012
310.458	1.3829	0.001
310.453	1.3831	0.001
310.449	1.3833	0.0009
310.442	1.3835	0.0008
310.438	1.3838	0.0006
310.427	1.3839	0.001
310.419	1.3841	0.0009
310.406	1.3842	0.0007
310.391	1.3845	0.0005
310.377	1.3846	0.0005
310.354	1.3849	0.0005
310.331	1.3851	0.0005
310.302	1.3853	0.0004
310.275	1.3856	0.0004
310.24	1.3859	0.0004
310.199	1.3861	0.0004
310.158	1.3864	0.0003
310.099	1.3867	0.0003
310.026	1.387	0.0003
309.937	1.3874	0.0003
309.838	1.3879	0.0003
309.72	1.3882	0.0003
309.597	1.3887	0.0003
309.453	1.3891	0.0003
309.3	1.3895	0.0003
309.127	1.39	0.0003
308.944	1.3904	0.0003
308.75	1.3909	0.0003
308.542	1.3913	0.0003
308.326	1.3917	0.0003
308.085	1.3922	0.0003
307.818	1.3927	0.0003
307.516	1.3932	0.0003
307.182	1.3938	0.0003
306.801	1.3943	0.0003
306.362	1.3949	0.0003
305.857	1.3956	0.0003
305.283	1.3964	0.0003
304.665	1.3971	0.0003
303.825	1.3981	0.0003
302.95	1.399	0.0003
301.881	1.4001	0.0003
300.831	1.4011	0.0003

System: propan-2-ol + 1-octyl-3-methylimidazolium hexafluorophosphate; phases: Liquid mixture 1, Liquid mixture 2
Fixed: Pressure, kPa = 93
Property: Mole fraction of 1-octyl-3-methylimidazolium hexafluorophosphate (Liquid mixture 1); method: Index of refraction calibration data
Temperature, K	Mole fraction of 1-octyl-3-methylimidazolium hexafluorophosphate	uncertainty
310.467	0.071	0.01
310.462	0.069	0.009
310.458	0.068	0.008
310.453	0.067	0.008
310.449	0.066	0.008
310.442	0.065	0.007
310.438	0.063	0.006
310.427	0.062	0.007
310.419	0.06	0.007
310.406	0.059	0.006
310.391	0.058	0.005
310.377	0.057	0.005
310.354	0.056	0.005
310.331	0.055	0.005
310.302	0.053	0.005
310.275	0.052	0.005
310.24	0.051	0.004
310.199	0.049	0.004
310.158	0.048	0.004
310.099	0.046	0.004
310.026	0.045	0.004
309.937	0.043	0.004
309.838	0.041	0.004
309.72	0.039	0.004
309.597	0.037	0.004
309.453	0.035	0.004
309.3	0.034	0.004
309.127	0.033	0.004
308.944	0.031	0.004
308.75	0.029	0.004
308.542	0.028	0.004
308.326	0.027	0.004
308.085	0.026	0.004
307.818	0.024	0.004
307.516	0.024	0.004
307.182	0.022	0.004
306.801	0.021	0.004
306.362	0.02	0.004
305.857	0.018	0.004
305.283	0.017	0.004
304.665	0.016	0.004
303.825	0.015	0.004
302.95	0.013	0.004
301.881	0.012	0.004
300.831	0.011	0.004

System: propan-2-ol + 1-octyl-3-methylimidazolium hexafluorophosphate; phases: Liquid mixture 2, Liquid mixture 1
Fixed: Pressure, kPa = 93
Property: Mole fraction of 1-octyl-3-methylimidazolium hexafluorophosphate (Liquid mixture 2); method: Index of refraction calibration data
Temperature, K	Mole fraction of 1-octyl-3-methylimidazolium hexafluorophosphate	uncertainty
310.467	0.089	0.012
310.462	0.092	0.01
310.458	0.094	0.008
310.453	0.095	0.008
310.449	0.097	0.007
310.442	0.098	0.007
310.438	0.099	0.007
310.427	0.1	0.009
310.419	0.102	0.008
310.406	0.103	0.007
310.391	0.105	0.006
310.377	0.106	0.006
310.354	0.109	0.006
310.331	0.111	0.006
310.302	0.113	0.005
310.275	0.115	0.005
310.24	0.117	0.005
310.199	0.119	0.005
310.158	0.121	0.005
310.099	0.124	0.005
310.026	0.126	0.005
309.937	0.13	0.005
309.838	0.133	0.005
309.72	0.135	0.005
309.597	0.139	0.005
309.453	0.144	0.005
309.3	0.147	0.005
309.127	0.152	0.005
308.944	0.155	0.005
308.75	0.159	0.005
308.542	0.163	0.005
308.326	0.166	0.005
308.085	0.171	0.005
307.818	0.175	0.006
307.516	0.18	0.006
307.182	0.185	0.006
306.801	0.189	0.006
306.362	0.195	0.006
305.857	0.201	0.006
305.283	0.209	0.006
304.665	0.215	0.006
303.825	0.224	0.006
302.95	0.232	0.006
301.881	0.243	0.007
300.831	0.252	0.007

System: propan-2-ol + 1-octyl-3-methylimidazolium hexafluorophosphate; phases: Liquid
Fixed: Pressure, kPa = 94
Fixed: Wavelength, nm = 632.8
Property: Refractive index (other wavelength) (Liquid); method: minimum deviation method
Mole fraction of 1-octyl-3-methylimidazolium hexafluorophosphate	Temperature, K	Refractive index (other wavelength)	uncertainty
0	298.206	1.3736	0.0002
0	304.243	1.371	0.0002
0	310.242	1.3684	0.0002
0	300.173	1.3728	0.0002
0	306.217	1.3701	0.0002
0	312.201	1.3675	0.0002
0	302.197	1.3719	0.0002
0	308.223	1.3693	0.0002
0.1	310.49	1.3838	0.0003
0.1	313.521	1.3826	0.0003
0.1	311.504	1.3834	0.0003
0.1	314.54	1.3822	0.0003
0.1	312.491	1.383	0.0003
0.1	315.578	1.3818	0.0003
0.2	309.471	1.3938	0.0003
0.2	312.469	1.3927	0.0003
0.2	315.578	1.3916	0.0003
0.2	310.446	1.3934	0.0003
0.2	313.488	1.3924	0.0003
0.2	311.476	1.3931	0.0003
0.2	314.48	1.392	0.0003
0.3	307.407	1.4009	0.0003
0.3	310.419	1.3999	0.0003
0.3	313.426	1.399	0.0003
0.3	308.401	1.4006	0.0003
0.3	311.464	1.3996	0.0003
0.3	314.463	1.3986	0.0003
0.3	309.387	1.4003	0.0003
0.3	312.403	1.3993	0.0003
0.4	307.296	1.4056	0.0003
0.4	310.361	1.4047	0.0003
0.4	313.349	1.4038	0.0003
0.4	308.292	1.4053	0.0003
0.4	311.363	1.4044	0.0003
0.4	314.388	1.4035	0.0003
0.4	309.354	1.405	0.0003
0.4	312.374	1.4041	0.0003
0.5	307.22	1.4091	0.0003
0.5	310.254	1.4082	0.0003
0.5	313.26	1.4073	0.0003
0.5	308.214	1.4088	0.0003
0.5	311.237	1.4079	0.0003
0.5	314.266	1.407	0.0003
0.5	309.224	1.4085	0.0003
0.5	312.247	1.4076	0.0003
0.601	307.286	1.4119	0.0003
0.601	310.241	1.411	0.0003
0.601	313.206	1.4101	0.0003
0.601	308.211	1.4116	0.0003
0.601	311.225	1.4107	0.0003
0.601	314.225	1.4098	0.0003
0.601	309.239	1.4113	0.0003
0.601	312.239	1.4104	0.0003
0.699	307.304	1.4141	0.0003
0.699	310.313	1.4132	0.0003
0.699	313.372	1.4124	0.0003
0.699	308.193	1.4138	0.0003
0.699	311.253	1.413	0.0003
0.699	314.225	1.4121	0.0003
0.699	309.268	1.4135	0.0003
0.699	312.261	1.4127	0.0003
0.8	307.217	1.4159	0.0003
0.8	310.252	1.4151	0.0003
0.8	313.248	1.4143	0.0003
0.8	308.249	1.4156	0.0003
0.8	311.264	1.4148	0.0003
0.8	314.291	1.414	0.0003
0.8	309.24	1.4154	0.0003
0.8	312.223	1.4146	0.0003
0.901	307.28	1.4177	0.0003
0.901	310.34	1.4168	0.0003
0.901	313.26	1.416	0.0003
0.901	308.234	1.4174	0.0003
0.901	311.25	1.4166	0.0003
0.901	314.291	1.4157	0.0003
0.901	309.245	1.4171	0.0003
0.901	312.347	1.4163	0.0003
1	298.186	1.4215	0.0003
1	304.197	1.4199	0.0003
1	310.251	1.4183	0.0003
1	300.196	1.421	0.0003
1	306.222	1.4193	0.0003
1	312.243	1.4178	0.0003
1	302.192	1.4204	0.0003
1	308.236	1.4188	0.0003

System: propan-2-ol + 1-octyl-3-methylimidazolium hexafluorophosphate; phases: Liquid
Fixed: Pressure, kPa = 102.6
Fixed: Mole fraction of 1-octyl-3-methylimidazolium hexafluorophosphate = 0.08
Property: Heat capacity at constant pressure per volume, J/K/m3 (Liquid); method: DSC
Temperature, K	Heat capacity at constant pressure per volume, J/K/m3	uncertainty
338.912	2241000	87000
338.57	2254000	87000
338.231	2251000	87000
337.893	2251000	87000
337.556	2248000	87000
337.216	2247000	87000
336.879	2246000	87000
336.54	2243000	87000
336.203	2244000	87000
335.864	2242000	87000
335.526	2243000	87000
335.188	2243000	87000
334.851	2240000	87000
334.512	2241000	87000
334.174	2241000	87000
333.836	2241000	87000
333.498	2240000	87000
333.16	2239000	87000
332.822	2240000	87000
332.484	2241000	87000
332.146	2241000	87000
331.808	2239000	87000
331.47	2242000	87000
331.131	2237000	87000
330.794	2241000	87000
330.456	2241000	87000
330.117	2240000	87000
329.78	2240000	87000
329.442	2240000	87000
329.103	2240000	87000
328.765	2240000	87000
328.428	2240000	87000
328.089	2239000	87000
327.751	2240000	87000
327.413	2241000	87000
327.075	2239000	87000
326.737	2240000	87000
326.399	2239000	87000
326.061	2239000	87000
325.724	2238000	87000
325.385	2240000	87000
325.047	2240000	87000
324.709	2239000	87000
324.371	2239000	87000
324.033	2239000	87000
323.695	2240000	88000
323.357	2240000	88000
323.019	2240000	88000
322.681	2240000	88000
322.343	2241000	88000
322.005	2240000	88000
321.667	2240000	88000
321.329	2240000	88000
320.99	2241000	88000
320.652	2241000	88000
320.314	2240000	88000
319.977	2241000	88000
319.639	2242000	88000
319.3	2241000	88000
318.839	2249000	91000
318.627	2234000	89000
318.415	2245000	91000
318.202	2249000	91000
317.99	2242000	91000
317.778	2253000	91000
317.566	2246000	91000
317.353	2241000	91000
317.141	2256000	91000
316.929	2245000	91000
316.717	2243000	91000
316.504	2255000	91000
316.292	2248000	91000
316.079	2265000	91000
315.867	2264000	91000
315.655	2262000	91000
315.442	2255000	91000
315.23	2257000	91000
315.018	2254000	91000
314.806	2253000	91000
314.593	2263000	92000
314.381	2249000	91000
314.169	2265000	92000
313.957	2249000	91000
313.744	2270000	93000
313.532	2277000	93000
313.32	2266000	92000
313.108	2279000	93000
312.895	2268000	92000
312.683	2283000	93000
312.47	2282000	93000
312.259	2283000	93000
312.046	2291000	94000
311.834	2289000	94000
311.622	2301000	94000
311.409	2300000	94000
311.197	2313000	95000
310.985	2348000	115000
310.773	2578000	119000
310.56	2543000	111000
310.348	2486000	107000
310.136	2474000	105000
309.923	2498000	107000
309.711	2492000	106000
309.499	2458000	105000
309.287	2462000	105000
309.074	2429000	103000
308.862	2437000	103000
308.65	2426000	103000
308.437	2417000	102000
308.225	2403000	101000
308.013	2407000	102000
307.8	2406000	102000
307.588	2387000	101000
307.376	2371000	100000
307.164	2393000	100000
306.952	2378000	100000
306.739	2371000	100000
306.527	2376000	100000
306.314	2360000	99000
306.102	2358000	99000
