Measured thermophysical data. Volumetric and transport properties of binary liquid mixtures with 1-ethyl-3-methylimidazolium ethyl sulfate as candidate solvents for regenerative flue gas desulfurization processes
Source: J. Chem. Thermodyn., 2018, 10.1016/j.jct.2017.12.023
Compound 1: 1-ethyl-3-methylimidazolium ethyl sulfate, C8H16N2O4S, InChI=1S/C6H11N2.C2H6O4S/c1-3-8-5-4-7(2)6-8;1-2-6-7(3,4)5/h4-6H,3H2,1-2H3;2H2,1H3,(H,3,4,5)/q+1;/p-1, purity 99%
Compound 2: N-methylpyrrolidone, C5H9NO, InChI=1S/C5H9NO/c1-6-4-2-3-5(6)7/h2-4H2,1H3, purity 99%
Compound 3: hexan-1-ol, C6H14O, InChI=1S/C6H14O/c1-2-3-4-5-6-7/h7H,2-6H2,1H3, purity 99%

System: 1-ethyl-3-methylimidazolium ethyl sulfate; phases: Liquid
Fixed: Pressure, kPa = 101.325
Property: Thermal conductivity, W/m/K (Liquid); method: THOTW
Temperature, K	Thermal conductivity, W/m/K	uncertainty
303.15	0.1808	0.0073
308.15	0.18	0.0072
313.15	0.1795	0.0072
318.15	0.1787	0.0072
323.15	0.178	0.0072

System: 1-ethyl-3-methylimidazolium ethyl sulfate; phases: Liquid
Fixed: Pressure, kPa = 100
Property: Mass density, kg/m3 (Liquid); method: Vibrating tube method
Temperature, K	Mass density, kg/m3	uncertainty
288.15	1243.07	1.55
293.15	1239.66	1.55
298.15	1236.27	1.55
303.15	1232.87	1.55
308.15	1229.49	1.55
313.15	1226.13	1.55
318.15	1222.79	1.55
323.15	1219.46	1.55
328.15	1216.16	1.55
333.15	1212.86	1.54

System: 1-ethyl-3-methylimidazolium ethyl sulfate; phases: Liquid
Fixed: Pressure, kPa = 100
Property: Viscosity, Pa*s (Liquid); method: Concentric cylinders viscometry
Temperature, K	Viscosity, Pa*s	uncertainty
288.15	0.15555	0.00271
293.15	0.11788	0.00175
298.15	0.091256	0.001166
303.15	0.072099	0.000815
308.15	0.057985	0.000609
313.15	0.047259	0.000507
318.15	0.039254	0.000421
323.15	0.032937	0.000353
328.15	0.027957	0.0003
333.15	0.024089	0.000259

System: 1-ethyl-3-methylimidazolium ethyl sulfate; phases: Liquid
Fixed: Pressure, kPa = 100
Property: Refractive index (Na D-line) (Liquid); method: Standard Abbe refractometry
Temperature, K	Refractive index (Na D-line)	uncertainty
288.15	1.48155	0.00069
293.15	1.48018	0.00069
298.15	1.47882	0.00069
303.15	1.47746	0.00069
308.15	1.47611	0.00069
313.15	1.47474	0.00069
318.15	1.47341	0.00069
323.15	1.47206	0.00069
328.15	1.47075	0.00069
333.15	1.46943	0.00069

System: hexan-1-ol; phases: Liquid
Fixed: Pressure, kPa = 100
Property: Mass density, kg/m3 (Liquid); method: Vibrating tube method
Temperature, K	Mass density, kg/m3	uncertainty
288.15	822.26	1.52
293.15	818.69	1.52
298.15	815.11	1.52
303.15	811.51	1.52
308.15	807.88	1.52
313.15	804.23	1.52
318.15	800.56	1.52
323.15	796.85	1.52

System: hexan-1-ol; phases: Liquid
Fixed: Pressure, kPa = 100
Property: Viscosity, Pa*s (Liquid); method: Concentric cylinders viscometry
Temperature, K	Viscosity, Pa*s	uncertainty
288.15	0.0062972	6.84e-05
293.15	0.0053238	5.8e-05
298.15	0.0045296	4.95e-05
303.15	0.003889	4.27e-05
308.15	0.0033548	3.7e-05
313.15	0.0029116	3.22e-05
318.15	0.0025408	2.83e-05
323.15	0.002251	2.52e-05

System: hexan-1-ol; phases: Liquid
Fixed: Pressure, kPa = 100
Property: Refractive index (Na D-line) (Liquid); method: Standard Abbe refractometry
Temperature, K	Refractive index (Na D-line)	uncertainty
288.15	1.41986	0.00069
293.15	1.4179	0.00069
298.15	1.41591	0.00069
303.15	1.41386	0.00069
308.15	1.41182	0.00069
313.15	1.40981	0.00069
318.15	1.40779	0.00069
323.15	1.40574	0.00069

System: 1-ethyl-3-methylimidazolium ethyl sulfate + N-methylpyrrolidone; phases: Liquid
Fixed: Pressure, kPa = 100
Property: Mass density, kg/m3 (Liquid); method: Vibrating tube method
Temperature, K	Mole fraction of 1-ethyl-3-methylimidazolium ethyl sulfate	Mass density, kg/m3	uncertainty
288.15	0	1037.3	1.52
288.15	0.1009	1079.2	1.53
288.15	0.2012	1111.89	1.53
288.15	0.3021	1138.72	1.53
288.15	0.4012	1160.76	1.54
288.15	0.4973	1178.79	1.54
288.15	0.596	1194.97	1.54
288.15	0.6998	1209.56	1.54
288.15	0.7961	1221.74	1.55
288.15	0.8821	1231.55	1.55
288.15	1	1243.07	1.55
293.15	0	1032.84	1.52
293.15	0.1009	1074.95	1.52
293.15	0.2012	1107.79	1.53
293.15	0.3021	1134.75	1.53
293.15	0.4012	1156.89	1.54
293.15	0.4973	1175.02	1.54
293.15	0.596	1191.28	1.54
293.15	0.6998	1205.95	1.54
293.15	0.7961	1218.2	1.55
293.15	0.8821	1228.07	1.55
293.15	1	1239.66	1.55
298.15	0	1028.38	1.52
298.15	0.1009	1070.72	1.52
298.15	0.2012	1103.71	1.53
298.15	0.3021	1130.79	1.53
298.15	0.4012	1153.04	1.53
298.15	0.4973	1171.26	1.54
298.15	0.596	1187.6	1.54
298.15	0.6998	1202.35	1.54
298.15	0.7961	1214.66	1.55
298.15	0.8821	1224.59	1.55
298.15	1	1236.27	1.55
303.15	0	1023.93	1.52
303.15	0.1009	1066.49	1.52
303.15	0.2012	1099.65	1.53
303.15	0.3021	1126.85	1.53
303.15	0.4012	1149.22	1.53
303.15	0.4973	1167.52	1.54
303.15	0.596	1183.95	1.54
303.15	0.6998	1198.77	1.54
303.15	0.7961	1211.15	1.54
303.15	0.8821	1221.13	1.55
303.15	1	1232.87	1.55
308.15	0	1019.46	1.52
308.15	0.1009	1062.28	1.52
308.15	0.2012	1095.59	1.53
308.15	0.3021	1122.93	1.53
308.15	0.4012	1145.41	1.53
308.15	0.4973	1163.8	1.54
308.15	0.596	1180.31	1.54
308.15	0.6998	1195.21	1.54
308.15	0.7961	1207.65	1.54
308.15	0.8821	1217.69	1.55
308.15	1	1229.49	1.55
313.15	0	1015	1.52
313.15	0.1009	1058.09	1.52
313.15	0.2012	1091.55	1.53
313.15	0.3021	1119.03	1.53
313.15	0.4012	1141.61	1.53
313.15	0.4973	1160.1	1.54
313.15	0.596	1176.69	1.54
313.15	0.6998	1191.67	1.54
313.15	0.7961	1204.17	1.54
313.15	0.8821	1214.27	1.55
313.15	1	1226.13	1.55
318.15	0	1010.53	1.52
318.15	0.1009	1053.91	1.52
318.15	0.2012	1087.53	1.53
318.15	0.3021	1115.14	1.53
318.15	0.4012	1137.84	1.53
318.15	0.4973	1156.42	1.54
318.15	0.596	1173.09	1.54
318.15	0.6998	1188.15	1.54
318.15	0.7961	1200.71	1.54
318.15	0.8821	1210.86	1.54
318.15	1	1222.79	1.55
323.15	0	1006.06	1.52
323.15	0.1009	1049.74	1.52
323.15	0.2012	1083.52	1.53
323.15	0.3021	1111.25	1.53
323.15	0.4012	1134.08	1.53
323.15	0.4973	1152.75	1.53
323.15	0.596	1169.51	1.54
323.15	0.6998	1184.64	1.54
323.15	0.7961	1197.26	1.54
323.15	0.8821	1207.47	1.54
323.15	1	1219.46	1.55
328.15	0	1001.58	1.51
328.15	0.1009	1045.59	1.52
328.15	0.2012	1079.52	1.52
328.15	0.3021	1107.38	1.53
328.15	0.4012	1130.34	1.53
328.15	0.4973	1149.1	1.53
328.15	0.596	1165.95	1.54
328.15	0.6998	1181.15	1.54
328.15	0.7961	1193.83	1.54
328.15	0.8821	1204.1	1.54
328.15	1	1216.16	1.55
333.15	0	997.1	1.51
333.15	0.1009	1041.42	1.52
333.15	0.2012	1075.53	1.52
333.15	0.3021	1103.53	1.53
333.15	0.4012	1126.61	1.53
333.15	0.4973	1145.47	1.53
333.15	0.596	1162.4	1.54
333.15	0.6998	1177.67	1.54
333.15	0.7961	1190.42	1.54
333.15	0.8821	1200.75	1.54
333.15	1	1212.86	1.54

System: 1-ethyl-3-methylimidazolium ethyl sulfate + N-methylpyrrolidone; phases: Liquid
Fixed: Pressure, kPa = 100
Property: Viscosity, Pa*s (Liquid); method: Concentric cylinders viscometry
Temperature, K	Mole fraction of 1-ethyl-3-methylimidazolium ethyl sulfate	Viscosity, Pa*s	uncertainty
288.15	0	0.0019896	2.25e-05
288.15	0.1009	0.0039918	4.42e-05
288.15	0.2012	0.0073127	7.98e-05
288.15	0.3021	0.012416	0.000135
288.15	0.4012	0.019707	0.000213
288.15	0.4973	0.029142	0.000314
288.15	0.596	0.042088	0.000453
288.15	0.6998	0.05932	0.000627
288.15	0.7961	0.078998	0.000935
288.15	0.8821	0.10425	0.00144
288.15	1	0.15555	0.00271
293.15	0	0.0018232	2.07e-05
293.15	0.1009	0.0035542	3.93e-05
293.15	0.2012	0.0063376	6.91e-05
293.15	0.3021	0.010511	0.000114
293.15	0.4012	0.016359	0.000177
293.15	0.4973	0.02379	0.000256
293.15	0.596	0.033702	0.000363
293.15	0.6998	0.046725	0.000502
293.15	0.7961	0.06157	0.000658
293.15	0.8821	0.080248	0.000957
293.15	1	0.11788	0.00175
298.15	0	0.0016795	1.92e-05
298.15	0.1009	0.0032105	3.56e-05
298.15	0.2012	0.0056367	6.16e-05
298.15	0.3021	0.0091813	9.95e-05
298.15	0.4012	0.014031	0.000151
298.15	0.4973	0.020081	0.000216
298.15	0.596	0.027951	0.000301
298.15	0.6998	0.038077	0.000409
298.15	0.7961	0.049397	0.000531
298.15	0.8821	0.063391	0.000683
298.15	1	0.091256	0.001166
303.15	0	0.0015546	1.79e-05
303.15	0.1009	0.0029078	3.24e-05
303.15	0.2012	0.0050098	5.48e-05
303.15	0.3021	0.0080259	8.71e-05
303.15	0.4012	0.01206	0.00013
303.15	0.4973	0.017002	0.000183
303.15	0.596	0.023376	0.000251
303.15	0.6998	0.031461	0.000338
303.15	0.7961	0.040334	0.000433
303.15	0.8821	0.0511	0.000529
303.15	1	0.072099	0.000815
308.15	0	0.0014443	1.67e-05
308.15	0.1009	0.0026487	2.96e-05
308.15	0.2012	0.0044879	4.92e-05
308.15	0.3021	0.0070705	7.68e-05
308.15	0.4012	0.010474	0.000113
308.15	0.4973	0.01456	0.000157
308.15	0.596	0.019809	0.000213
308.15	0.6998	0.026217	0.000282
308.15	0.7961	0.033299	0.000358
308.15	0.8821	0.041584	0.000447
308.15	1	0.057985	0.000609
313.15	0	0.0013464	1.57e-05
313.15	0.1009	0.0024317	2.73e-05
313.15	0.2012	0.0040135	4.41e-05
313.15	0.3021	0.0062305	6.78e-05
313.15	0.4012	0.0091135	9.86e-05
313.15	0.4973	0.012501	0.000135
313.15	0.596	0.016759	0.00018
313.15	0.6998	0.022041	0.000237
313.15	0.7961	0.027717	0.000298
313.15	0.8821	0.034424	0.00037
313.15	1	0.047259	0.000507
318.15	0	0.0012593	1.48e-05
318.15	0.1009	0.0022306	2.51e-05
318.15	0.2012	0.0036683	4.04e-05
318.15	0.3021	0.0056147	6.12e-05
318.15	0.4012	0.0081129	8.79e-05
318.15	0.4973	0.010998	0.000119
318.15	0.596	0.014571	0.000157
318.15	0.6998	0.018931	0.000204
318.15	0.7961	0.023585	0.000253
318.15	0.8821	0.029	0.000312
318.15	1	0.039254	0.000421
323.15	0	0.0011816	1.4e-05
323.15	0.1009	0.0020614	2.33e-05
323.15	0.2012	0.0033443	3.69e-05
323.15	0.3021	0.0050532	5.52e-05
323.15	0.4012	0.0072158	7.83e-05
323.15	0.4973	0.0096781	0.0001046
323.15	0.596	0.012698	0.000137
323.15	0.6998	0.016344	0.000176
323.15	0.7961	0.020196	0.000217
323.15	0.8821	0.024628	0.000265
323.15	1	0.032937	0.000353
328.15	0	0.0011099	1.32e-05
328.15	0.1009	0.0019123	2.17e-05
328.15	0.2012	0.0030636	3.39e-05
328.15	0.3021	0.0045751	5.01e-05
328.15	0.4012	0.0064583	7.02e-05
328.15	0.4973	0.0085854	9.29e-05
328.15	0.596	0.011156	0.00012
328.15	0.6998	0.014231	0.000153
328.15	0.7961	0.017463	0.000188
328.15	0.8821	0.021135	0.000227
328.15	1	0.027957	0.0003
333.15	0	0.0010427	1.25e-05
333.15	0.1009	0.0017821	2.03e-05
333.15	0.2012	0.0028043	3.12e-05
333.15	0.3021	0.0041536	4.55e-05
333.15	0.4012	0.0058075	6.32e-05
333.15	0.4973	0.0076814	8.32e-05
333.15	0.596	0.0098925	0.0001068
333.15	0.6998	0.012514	0.000135
333.15	0.7961	0.01527	0.000164
333.15	0.8821	0.018357	0.000197
333.15	1	0.024089	0.000259

System: 1-ethyl-3-methylimidazolium ethyl sulfate + N-methylpyrrolidone; phases: Liquid
Fixed: Pressure, kPa = 100
Property: Refractive index (Na D-line) (Liquid); method: Standard Abbe refractometry
Temperature, K	Mole fraction of 1-ethyl-3-methylimidazolium ethyl sulfate	Refractive index (Na D-line)	uncertainty
288.15	0	1.47166	0.00069
288.15	0.1009	1.47616	0.00069
288.15	0.2012	1.47863	0.00069
288.15	0.3021	1.47981	0.00069
288.15	0.4012	1.48047	0.00069
288.15	0.4973	1.48086	0.00069
288.15	0.596	1.48094	0.00069
288.15	0.6998	1.48099	0.00069
288.15	0.7961	1.48127	0.00069
288.15	0.8821	1.48147	0.00069
288.15	1	1.48155	0.00069
293.15	0	1.46952	0.00069
293.15	0.1009	1.47418	0.00069
293.15	0.2012	1.47679	0.00069
293.15	0.3021	1.47807	0.00069
293.15	0.4012	1.47881	0.00069
293.15	0.4973	1.47925	0.00069
293.15	0.596	1.47939	0.00069
293.15	0.6998	1.47951	0.00069
293.15	0.7961	1.47983	0.00069
293.15	0.8821	1.48006	0.00069
293.15	1	1.48018	0.00069
298.15	0	1.46736	0.00069
298.15	0.1009	1.47223	0.00069
298.15	0.2012	1.47496	0.00069
298.15	0.3021	1.47633	0.00069
298.15	0.4012	1.47714	0.00069
298.15	0.4973	1.47766	0.00069
298.15	0.596	1.47787	0.00069
298.15	0.6998	1.47804	0.00069
298.15	0.7961	1.47841	0.00069
298.15	0.8821	1.47867	0.00069
298.15	1	1.47882	0.00069
303.15	0	1.4652	0.00069
303.15	0.1009	1.47026	0.00069
303.15	0.2012	1.47313	0.00069
303.15	0.3021	1.4746	0.00069
303.15	0.4012	1.47547	0.00069
303.15	0.4973	1.47608	0.00069
303.15	0.596	1.47635	0.00069
303.15	0.6998	1.47659	0.00069
303.15	0.7961	1.47701	0.00069
303.15	0.8821	1.47728	0.00069
303.15	1	1.47746	0.00069
308.15	0	1.46306	0.00069
308.15	0.1009	1.46833	0.00069
308.15	0.2012	1.4713	0.00069
308.15	0.3021	1.47285	0.00069
308.15	0.4012	1.47384	0.00069
308.15	0.4973	1.47453	0.00069
308.15	0.596	1.47488	0.00069
308.15	0.6998	1.47517	0.00069
308.15	0.7961	1.47561	0.00069
308.15	0.8821	1.47592	0.00069
308.15	1	1.47611	0.00069
313.15	0	1.46095	0.00069
313.15	0.1009	1.46634	0.00069
313.15	0.2012	1.46948	0.00069
313.15	0.3021	1.47118	0.00069
313.15	0.4012	1.47225	0.00069
313.15	0.4973	1.473	0.00069
313.15	0.596	1.47343	0.00069
313.15	0.6998	1.47375	0.00069
313.15	0.7961	1.47423	0.00069
313.15	0.8821	1.47453	0.00069
313.15	1	1.47474	0.00069
318.15	0	1.45891	0.00069
318.15	0.1009	1.4644	0.00069
318.15	0.2012	1.46772	0.00069
318.15	0.3021	1.4695	0.00069
318.15	0.4012	1.47069	0.00069
318.15	0.4973	1.47143	0.00069
318.15	0.596	1.47195	0.00069
318.15	0.6998	1.47229	0.00069
318.15	0.7961	1.47284	0.00069
318.15	0.8821	1.47317	0.00069
318.15	1	1.47341	0.00069
323.15	0	1.4568	0.00069
323.15	0.1009	1.46246	0.00069
323.15	0.2012	1.4659	0.00069
323.15	0.3021	1.46777	0.00069
323.15	0.4012	1.46906	0.00069
323.15	0.4973	1.46985	0.00069
323.15	0.596	1.47045	0.00069
323.15	0.6998	1.47084	0.00069
323.15	0.7961	1.47143	0.00069
323.15	0.8821	1.4718	0.00069
323.15	1	1.47206	0.00069
328.15	0	1.45473	0.00069
328.15	0.1009	1.46054	0.00069
328.15	0.2012	1.46409	0.00069
328.15	0.3021	1.46607	0.00069
328.15	0.4012	1.46742	0.00069
328.15	0.4973	1.46828	0.00069
328.15	0.596	1.46895	0.00069
328.15	0.6998	1.46939	0.00069
328.15	0.7961	1.47005	0.00069
328.15	0.8821	1.47044	0.00069
328.15	1	1.47075	0.00069
333.15	0	1.45267	0.00069
333.15	0.1009	1.45863	0.00069
333.15	0.2012	1.46232	0.00069
333.15	0.3021	1.46438	0.00069
333.15	0.4012	1.46584	0.00069
333.15	0.4973	1.46677	0.00069
333.15	0.596	1.46746	0.00069
333.15	0.6998	1.46794	0.00069
333.15	0.7961	1.46865	0.00069
333.15	0.8821	1.4691	0.00069
333.15	1	1.46943	0.00069

System: 1-ethyl-3-methylimidazolium ethyl sulfate + hexan-1-ol; phases: Liquid
Fixed: Pressure, kPa = 100
Property: Mass density, kg/m3 (Liquid); method: Vibrating tube method
Temperature, K	Mole fraction of 1-ethyl-3-methylimidazolium ethyl sulfate	Mass density, kg/m3	uncertainty
288.15	0	822.26	1.52
288.15	0.1016	883.62	1.52
288.15	0.2016	938.59	1.52
288.15	0.3005	988.2	1.52
288.15	0.3989	1033.38	1.52
288.15	0.4975	1075.01	1.53
288.15	0.5956	1113.22	1.53
288.15	0.6647	1138.48	1.53
288.15	0.7947	1182.52	1.54
288.15	0.897	1214.13	1.55
288.15	1	1243.07	1.55
293.15	0	818.69	1.52
293.15	0.1016	880.04	1.52
293.15	0.2016	935.01	1.52
293.15	0.3005	984.62	1.52
293.15	0.3989	1029.83	1.52
293.15	0.4975	1071.48	1.52
293.15	0.5956	1109.72	1.53
293.15	0.6647	1135	1.53
293.15	0.7947	1179.07	1.54
293.15	0.897	1210.7	1.55
293.15	1	1239.66	1.55
298.15	0	815.11	1.52
298.15	0.1016	876.47	1.52
298.15	0.2016	931.44	1.52
298.15	0.3005	981.06	1.52
298.15	0.3989	1026.28	1.52
298.15	0.4975	1067.96	1.52
298.15	0.5956	1106.23	1.53
298.15	0.6647	1131.53	1.53
298.15	0.7947	1175.63	1.54
298.15	0.897	1207.28	1.55
298.15	1	1236.27	1.55
303.15	0	811.51	1.52
303.15	0.1016	872.88	1.52
303.15	0.2016	927.87	1.52
303.15	0.3005	977.51	1.52
303.15	0.3989	1022.76	1.52
303.15	0.4975	1064.47	1.52
303.15	0.5956	1102.76	1.53
303.15	0.6647	1128.08	1.53
303.15	0.7947	1172.21	1.54
303.15	0.897	1203.87	1.54
303.15	1	1232.87	1.55
308.15	0	807.88	1.52
308.15	0.1016	869.3	1.52
308.15	0.2016	924.31	1.52
308.15	0.3005	973.98	1.52
308.15	0.3989	1019.25	1.52
308.15	0.4975	1060.99	1.52
308.15	0.5956	1099.3	1.53
308.15	0.6647	1124.65	1.53
308.15	0.7947	1168.81	1.54
308.15	0.897	1200.48	1.54
308.15	1	1229.49	1.55
313.15	0	804.23	1.52
313.15	0.1016	865.72	1.52
313.15	0.2016	920.76	1.52
313.15	0.3005	970.44	1.52
313.15	0.3989	1015.75	1.52
313.15	0.4975	1057.52	1.52
313.15	0.5956	1095.87	1.53
313.15	0.6647	1121.24	1.53
313.15	0.7947	1165.42	1.54
313.15	0.897	1197.11	1.54
313.15	1	1226.13	1.55
318.15	0	800.56	1.52
318.15	0.1016	862.11	1.52
318.15	0.2016	917.2	1.52
318.15	0.3005	966.93	1.52
318.15	0.3989	1012.26	1.52
318.15	0.4975	1054.07	1.52
318.15	0.5956	1092.45	1.53
318.15	0.6647	1117.84	1.53
318.15	0.7947	1162.05	1.54
318.15	0.897	1193.76	1.54
318.15	1	1222.79	1.55
323.15	0	796.85	1.52
323.15	0.1016	858.5	1.52
323.15	0.2016	913.65	1.52
323.15	0.3005	963.42	1.52
323.15	0.3989	1008.79	1.52
323.15	0.4975	1050.64	1.52
323.15	0.5956	1089.05	1.53
323.15	0.6647	1114.46	1.53
323.15	0.7947	1158.7	1.54
323.15	0.897	1190.42	1.54
323.15	1	1219.46	1.55

System: 1-ethyl-3-methylimidazolium ethyl sulfate + hexan-1-ol; phases: Liquid
Fixed: Pressure, kPa = 100
Property: Viscosity, Pa*s (Liquid); method: Concentric cylinders viscometry
Temperature, K	Mole fraction of 1-ethyl-3-methylimidazolium ethyl sulfate	Viscosity, Pa*s	uncertainty
288.15	0	0.0062972	6.84e-05
288.15	0.1016	0.0093528	0.0001013
288.15	0.2016	0.013298	0.000144
288.15	0.3005	0.018782	0.000203
288.15	0.3989	0.026422	0.000285
288.15	0.4975	0.036709	0.000395
288.15	0.5956	0.050201	0.000519
288.15	0.6647	0.061573	0.000658
288.15	0.7947	0.090117	0.001144
288.15	0.897	0.11732	0.00174
288.15	1	0.15555	0.00271
293.15	0	0.0053238	5.8e-05
293.15	0.1016	0.0078852	8.55e-05
293.15	0.2016	0.011155	0.000121
293.15	0.3005	0.015653	0.000169
293.15	0.3989	0.021793	0.000235
293.15	0.4975	0.029929	0.000322
293.15	0.5956	0.040239	0.000433
293.15	0.6647	0.048863	0.000525
293.15	0.7947	0.069759	0.000779
293.15	0.897	0.090214	0.001146
293.15	1	0.11788	0.00175
298.15	0	0.0045296	4.95e-05
298.15	0.1016	0.0068254	7.42e-05
298.15	0.2016	0.0096397	0.0001043
298.15	0.3005	0.013444	0.000145
298.15	0.3989	0.018545	0.0002
298.15	0.4975	0.025035	0.000269
298.15	0.5956	0.033313	0.000358
298.15	0.6647	0.040056	0.00043
298.15	0.7947	0.055987	0.000585
298.15	0.897	0.071036	0.000799
298.15	1	0.091256	0.001166
303.15	0	0.003889	4.27e-05
303.15	0.1016	0.0059176	6.44e-05
303.15	0.2016	0.0083126	9.01e-05
303.15	0.3005	0.011557	0.000125
303.15	0.3989	0.015798	0.00017
303.15	0.4975	0.021174	0.000228
303.15	0.5956	0.027851	0.000299
303.15	0.6647	0.033139	0.000356
303.15	0.7947	0.045597	0.00049
303.15	0.897	0.057049	0.000598
303.15	1	0.072099	0.000815
308.15	0	0.0033548	3.7e-05
308.15	0.1016	0.0051531	5.63e-05
308.15	0.2016	0.007242	7.86e-05
308.15	0.3005	0.010013	0.000108
308.15	0.3989	0.013598	0.000147
308.15	0.4975	0.018016	0.000194
308.15	0.5956	0.023465	0.000252
308.15	0.6647	0.027767	0.000298
308.15	0.7947	0.037671	0.000405
308.15	0.897	0.046512	0.000499
308.15	1	0.057985	0.000609
313.15	0	0.0029116	3.22e-05
313.15	0.1016	0.0044749	4.9e-05
313.15	0.2016	0.0062958	6.85e-05
313.15	0.3005	0.0086704	9.39e-05
313.15	0.3989	0.011701	0.000126
313.15	0.4975	0.015404	0.000166
313.15	0.5956	0.019839	0.000213
313.15	0.6647	0.023343	0.000251
313.15	0.7947	0.031228	0.000335
313.15	0.897	0.038326	0.000411
313.15	1	0.047259	0.000507
318.15	0	0.0025408	2.83e-05
318.15	0.1016	0.0039753	4.37e-05
318.15	0.2016	0.0055928	6.09e-05
318.15	0.3005	0.007683	8.33e-05
318.15	0.3989	0.010304	0.000111
318.15	0.4975	0.013436	0.000145
318.15	0.5956	0.017166	0.000185
318.15	0.6647	0.020056	0.000216
318.15	0.7947	0.026509	0.000285
318.15	0.897	0.032184	0.000346
318.15	1	0.039254	0.000421
323.15	0	0.002251	2.52e-05
323.15	0.1016	0.0035663	3.93e-05
323.15	0.2016	0.0049592	5.41e-05
323.15	0.3005	0.0068414	7.42e-05
323.15	0.3989	0.0091266	9.87e-05
323.15	0.4975	0.011855	0.000128
323.15	0.5956	0.014985	0.000161
323.15	0.6647	0.01741	0.000187
323.15	0.7947	0.022644	0.000243
323.15	0.897	0.027411	0.000294
323.15	1	0.032937	0.000354

System: 1-ethyl-3-methylimidazolium ethyl sulfate + hexan-1-ol; phases: Liquid
Fixed: Pressure, kPa = 100
Property: Refractive index (Na D-line) (Liquid); method: Standard Abbe refractometry
Temperature, K	Mole fraction of 1-ethyl-3-methylimidazolium ethyl sulfate	Refractive index (Na D-line)	uncertainty
288.15	0	1.41986	0.00069
288.15	0.1016	1.42855	0.00069
288.15	0.2016	1.43639	0.00069
288.15	0.3005	1.44364	0.00069
288.15	0.3989	1.45017	0.00069
288.15	0.4975	1.45653	0.00069
288.15	0.5956	1.46223	0.00069
288.15	0.6647	1.46592	0.00069
288.15	0.7947	1.47274	0.00069
288.15	0.897	1.47731	0.00069
288.15	1	1.48155	0.00069
293.15	0	1.4179	0.00069
293.15	0.1016	1.42666	0.00069
293.15	0.2016	1.4346	0.00069
293.15	0.3005	1.44194	0.00069
293.15	0.3989	1.44856	0.00069
293.15	0.4975	1.45499	0.00069
293.15	0.5956	1.46075	0.00069
293.15	0.6647	1.46447	0.00069
293.15	0.7947	1.47132	0.00069
293.15	0.897	1.47593	0.00069
293.15	1	1.48018	0.00069
298.15	0	1.41591	0.00069
298.15	0.1016	1.42478	0.00069
298.15	0.2016	1.43283	0.00069
298.15	0.3005	1.44025	0.00069
298.15	0.3989	1.44701	0.00069
298.15	0.4975	1.45346	0.00069
298.15	0.5956	1.45927	0.00069
298.15	0.6647	1.46303	0.00069
298.15	0.7947	1.4699	0.00069
298.15	0.897	1.47456	0.00069
298.15	1	1.47882	0.00069
303.15	0	1.41386	0.00069
303.15	0.1016	1.4229	0.00069
303.15	0.2016	1.43107	0.00069
303.15	0.3005	1.43858	0.00069
303.15	0.3989	1.44545	0.00069
303.15	0.4975	1.45193	0.00069
303.15	0.5956	1.4578	0.00069
303.15	0.6647	1.4616	0.00069
303.15	0.7947	1.46848	0.00069
303.15	0.897	1.4732	0.00069
303.15	1	1.47746	0.00069
308.15	0	1.41182	0.00069
308.15	0.1016	1.42103	0.00069
308.15	0.2016	1.42932	0.00069
308.15	0.3005	1.43692	0.00069
308.15	0.3989	1.44387	0.00069
308.15	0.4975	1.4504	0.00069
308.15	0.5956	1.45631	0.00069
308.15	0.6647	1.46017	0.00069
308.15	0.7947	1.46706	0.00069
308.15	0.897	1.47182	0.00069
308.15	1	1.47611	0.00069
313.15	0	1.40981	0.00069
313.15	0.1016	1.41917	0.00069
313.15	0.2016	1.42758	0.00069
313.15	0.3005	1.43525	0.00069
313.15	0.3989	1.44225	0.00069
313.15	0.4975	1.44886	0.00069
313.15	0.5956	1.45481	0.00069
313.15	0.6647	1.45872	0.00069
313.15	0.7947	1.46564	0.00069
313.15	0.897	1.47044	0.00069
313.15	1	1.47474	0.00069
318.15	0	1.40779	0.00069
318.15	0.1016	1.41729	0.00069
318.15	0.2016	1.42582	0.00069
318.15	0.3005	1.43358	0.00069
318.15	0.3989	1.44065	0.00069
318.15	0.4975	1.44735	0.00069
318.15	0.5956	1.45333	0.00069
318.15	0.6647	1.45726	0.00069
318.15	0.7947	1.46423	0.00069
318.15	0.897	1.46907	0.00069
318.15	1	1.47341	0.00069
323.15	0	1.40574	0.00069
323.15	0.1016	1.41543	0.00069
323.15	0.2016	1.42407	0.00069
323.15	0.3005	1.43195	0.00069
323.15	0.3989	1.4391	0.00069
323.15	0.4975	1.44582	0.00069
323.15	0.5956	1.45184	0.00069
323.15	0.6647	1.45582	0.00069
323.15	0.7947	1.46285	0.00069
323.15	0.897	1.46769	0.00069
323.15	1	1.47206	0.00069
