Measured thermophysical data. (Liquid + liquid) equilibria for ternary mixtures of (ethylene glycol + toluene + n-octane)
Source: J. Chem. Thermodyn., 2008, 10.1016/j.jct.2008.03.014
Compound 1: 1,2-ethanediol, C2H6O2, InChI=1S/C2H6O2/c3-1-2-4/h3-4H,1-2H2
Compound 2: toluene, C7H8, InChI=1S/C7H8/c1-7-5-3-2-4-6-7/h2-6H,1H3
Compound 3: octane, C8H18, InChI=1S/C8H18/c1-3-5-7-8-6-4-2/h3-8H2,1-2H3

System: 1,2-ethanediol + toluene + octane; phases: Liquid mixture 1, Liquid mixture 2
Fixed: Pressure, kPa = 101
Property: Mole fraction of 1,2-ethanediol (Liquid mixture 1); method: Chromatography
Property: Mole fraction of 1,2-ethanediol (Liquid mixture 2); method: Chromatography
Property: Mole fraction of toluene (Liquid mixture 2); method: Chromatography
Temperature, K	Mole fraction of toluene	Mole fraction of 1,2-ethanediol	uncertainty	Mole fraction of 1,2-ethanediol	uncertainty	Mole fraction of toluene	uncertainty
295.15	0.279	0.0025	0.002	0.9333	0.0029	0.062	
295.15	0.3618	0.0046	0.002	0.9048	0.0029	0.0901	
295.15	0.4752	0.0076	0.002	0.8683	0.003	0.1261	
295.15	0.5308	0.0077	0.002	0.8532	0.003	0.1412	
295.15	0.6715	0.0077	0.002	0.8145	0.0031	0.1798	
295.15	0.7736	0.0084	0.002	0.783	0.0032	0.211	
301.15	0.2853	0.0068	0.002	0.9167	0.0029	0.0762	
301.15	0.3655	0.0078	0.002	0.8925	0.003	0.1002	
301.15	0.4901	0.0082	0.002	0.8497	0.0031	0.1422	
301.15	0.5129	0.0088	0.002	0.8405	0.0031	0.1512	
301.15	0.6812	0.0089	0.002	0.7863	0.0032	0.2051	
301.15	0.751	0.0095	0.002	0.75	0.0033	0.2412	
307.13	0.2294	0.0067	0.002	0.9295	0.0029	0.0622	
307.13	0.3278	0.0069	0.002	0.8914	0.003	0.0992	
307.13	0.4387	0.0074	0.002	0.858	0.003	0.1317	
307.13	0.5006	0.0081	0.002	0.827	0.003	0.1611	
307.13	0.6103	0.0085	0.002	0.7907	0.0032	0.1966	
307.13	0.7002	0.0095	0.002	0.7568	0.0034	0.2291	
