Measured thermophysical data. Standard molar enthalpies of formation of three methyl-pyrazole derivatives
Source: J. Chem. Thermodyn., 2012, 10.1016/j.jct.2011.10.007
Compound 1: carbon dioxide, CO2, InChI=1S/CO2/c2-1-3
Compound 2: nitrogen, N2, InChI=1S/N2/c1-2
Compound 3: water, H2O, InChI=1S/H2O/h1H2
Compound 4: oxygen, O2, InChI=1S/O2/c1-2
Compound 5: hydrogen, H2, InChI=1S/H2/h1H
Compound 6: graphite, C
Compound 7: 3-methyl-1-pyrazolecarboxamide, C5H7N3O, InChI=1S/C5H7N3O/c1-4-2-3-8(7-4)5(6)9/h2-3H,1H3,(H2,6,9), purity 97%
Compound 8: 3-methyl-3-pyrazoline-5-one, C4H6N2O, InChI=1S/C4H6N2O/c1-3-2-4(7)6-5-3/h2H,1H3,(H2,5,6,7), purity 98%
Compound 9: 4-methyl-2-pyrazoline-5-one, C4H6N2O, InChI=1S/C4H6N2O/c1-3-2-5-6-4(3)7/h2-3H,1H3,(H,6,7), purity 98%

System: 3-methyl-1-pyrazolecarboxamide; phases: Crystal, Gas
Property: Molar enthalpy of vaporization or sublimation, kJ/mol (Crystal); method: Derived by Second law
Temperature, K	Molar enthalpy of vaporization or sublimation, kJ/mol	uncertainty
298.15	93.5	2.6

System: 3-methyl-1-pyrazolecarboxamide; phases: Crystal, Gas
Property: Vapor or sublimation pressure, kPa (Crystal); method: Calculated from knudsen effusion weight loss
Temperature, K	Vapor or sublimation pressure, kPa	uncertainty
290.15	9.09e-05	4.6e-06
290.15	8.57e-05	4.3e-06
292.13	0.0001175	5.9e-06
292.13	0.0001107	5.6e-06
292.13	0.0001074	5.4e-06
294.13	0.0001445	7.2e-06
294.13	0.0001361	6.8e-06
294.13	0.0001329	6.7e-06
296.15	0.0001904	9.5e-06
296.15	0.0001859	9.3e-06
296.15	0.0001823	9.1e-06
298.15	0.0002285	1.15e-05
298.15	0.0002242	1.12e-05
298.15	0.000223	1.12e-05
300.14	0.0003314	1.66e-05
300.14	0.0003017	1.51e-05
302.14	0.0004105	2.06e-05
302.14	0.000386	1.93e-05
302.14	0.000412	2.06e-05
304.15	0.0005036	2.52e-05
304.15	0.0004749	2.38e-05
306.14	0.0007025	3.52e-05
306.14	0.0006625	3.32e-05
306.14	0.000636	3.19e-05
308.15	0.000824	4.13e-05
308.15	0.0007932	3.97e-05
308.15	0.0007206	3.61e-05
310.15	0.0011125	0.0001139
310.15	0.0010522	0.0001064
310.15	0.0009944	4.98e-05

System: 3-methyl-3-pyrazoline-5-one; phases: Crystal, Gas
Property: Molar enthalpy of vaporization or sublimation, kJ/mol (Crystal); method: Derived by Second law
Temperature, K	Molar enthalpy of vaporization or sublimation, kJ/mol	uncertainty
298.15	111.41	1.88

System: 3-methyl-3-pyrazoline-5-one; phases: Crystal, Gas
Property: Vapor or sublimation pressure, kPa (Crystal); method: Calculated from knudsen effusion weight loss
Temperature, K	Vapor or sublimation pressure, kPa	uncertainty
348.117	0.0001178	5.9e-06
348.117	0.0001102	5.5e-06
348.117	0.0001144	5.7e-06
350.189	0.0001434	7.2e-06
350.189	0.0001482	7.4e-06
350.189	0.0001433	7.2e-06
352.168	0.0001748	8.8e-06
352.168	0.0001744	8.7e-06
352.168	0.0001713	8.6e-06
354.177	0.0002128	1.07e-05
354.177	0.00021	1.05e-05
354.177	0.0002147	1.08e-05
356.183	0.0002646	1.33e-05
356.183	0.0002779	1.39e-05
356.183	0.0002601	1.3e-05
358.164	0.0003289	1.65e-05
358.164	0.0003207	1.61e-05
358.164	0.0003201	1.6e-05
360.094	0.0003965	1.99e-05
360.094	0.0003909	1.96e-05
360.094	0.000404	2.02e-05
362.144	0.000518	2.59e-05
362.144	0.0004894	2.45e-05
362.144	0.0004832	2.42e-05
364.161	0.0006235	3.12e-05
364.161	0.0005978	2.99e-05
364.161	0.0005803	2.9e-05
366.119	0.0007172	3.59e-05
366.119	0.0007183	3.59e-05
366.119	0.0007129	3.57e-05
368.168	0.0008708	4.36e-05
368.168	0.0008829	4.42e-05
368.168	0.0008793	4.4e-05
370.153	0.0010545	0.0001067
370.153	0.0010449	0.0001055
370.153	0.0010557	0.0001068

System: 4-methyl-2-pyrazoline-5-one; phases: Crystal, Gas
Property: Molar enthalpy of vaporization or sublimation, kJ/mol (Crystal); method: Derived by Second law
Temperature, K	Molar enthalpy of vaporization or sublimation, kJ/mol	uncertainty
298.15	111.8	3.5

System: 4-methyl-2-pyrazoline-5-one; phases: Crystal, Gas
Property: Vapor or sublimation pressure, kPa (Crystal); method: Calculated from knudsen effusion weight loss
Temperature, K	Vapor or sublimation pressure, kPa	uncertainty
346.072	8.46e-05	4.2e-06
346.072	7.5e-05	3.8e-06
346.072	7.13e-05	3.6e-06
348.114	0.0001085	5.4e-06
348.114	9.43e-05	4.7e-06
348.114	9.33e-05	4.7e-06
350.176	0.0001276	6.4e-06
350.176	0.0001159	5.8e-06
350.176	0.0001117	5.6e-06
352.074	0.0001545	7.7e-06
352.074	0.000142	7.1e-06
352.074	0.0001392	7e-06
354.106	0.0001985	9.9e-06
354.106	0.0001729	8.7e-06
354.106	0.0001702	8.5e-06
356.173	0.0002417	1.21e-05
356.173	0.0002183	1.09e-05
356.173	0.0002131	1.07e-05
358.078	0.0002936	1.47e-05
358.078	0.0002655	1.33e-05
358.078	0.0002617	1.31e-05
360.115	0.0003601	1.8e-05
360.115	0.0003266	1.64e-05
360.115	0.0003228	1.62e-05
362.167	0.0004494	2.25e-05
362.167	0.0003792	1.9e-05
362.167	0.0003937	1.97e-05
364.082	0.0005382	2.69e-05
364.082	0.0004933	2.47e-05
364.082	0.0004732	2.37e-05
366.114	0.0006644	3.33e-05
366.114	0.0006049	3.03e-05
366.114	0.0005771	2.89e-05
368.168	0.0008047	4.03e-05
368.168	0.0007363	3.68e-05
368.168	0.0007045	3.52e-05

Reaction: -1 3-methyl-1-pyrazolecarboxamide + 5 carbon dioxide + 1.5 nitrogen + 3.5 water + -6.25 oxygen
Property: Specific internal energy of reaction at constant volume, J/g
-22475.4

Reaction: -1 3-methyl-3-pyrazoline-5-one + 4 carbon dioxide + 1 nitrogen + 3 water + -5 oxygen
Property: Specific internal energy of reaction at constant volume, J/g
-23248.4

Reaction: -1 4-methyl-2-pyrazoline-5-one + 4 carbon dioxide + 1 nitrogen + 3 water + -5 oxygen
Property: Specific internal energy of reaction at constant volume, J/g
-23304.5

Reaction: 1 3-methyl-1-pyrazolecarboxamide + -3.5 hydrogen + -1.5 nitrogen + -5 graphite + -.5 oxygen
Property: Molar enthalpy of reaction, kJ/mol
-156.3

Reaction: 1 3-methyl-3-pyrazoline-5-one + -3 hydrogen + -1 nitrogen + -4 graphite + -.5 oxygen
Property: Molar enthalpy of reaction, kJ/mol
-150.8

Reaction: 1 4-methyl-2-pyrazoline-5-one + -3 hydrogen + -1 nitrogen + -4 graphite + -.5 oxygen
Property: Molar enthalpy of reaction, kJ/mol
-145.3
