Measured thermophysical data. Experimental and theoretical study of the dissociation enthalpy of the N-O bond on 2-hydroxypyridine N-oxide: theoretical analysis of the energetics of the N-O bond for hydroxypyrydine N-oxide isomers
Source: J. Chem. Thermodyn., 2004, 10.1016/j.jct.2003.10.001
Compound 1: carbon dioxide, CO2, InChI=1S/CO2/c2-1-3
Compound 2: nitrogen, N2, InChI=1S/N2/c1-2
Compound 3: water, H2O, InChI=1S/H2O/h1H2
Compound 4: oxygen, O2, InChI=1S/O2/c1-2
Compound 5: 2-hydroxypyridine-N-oxide, C5H5NO2, InChI=1S/C5H5NO2/c7-5-3-1-2-4-6(5)8/h1-4,7H

System: 2-hydroxypyridine-N-oxide; phases: Gas
Property: Molar enthalpy, kJ/mol (Gas); method: OTHER
Temperature, K	Pressure, kPa	Molar enthalpy, kJ/mol	uncertainty
298.15	100	100.8	2.8

Reaction: -1 2-hydroxypyridine-N-oxide + 5 carbon dioxide + .5 nitrogen + 2.5 water + -5.25 oxygen
Property: Specific internal energy of reaction at constant volume, J/g
-22358.2
