Measured thermophysical data. Volumetric and viscometric studies of urea in binary aqueous solutions of glucose at different temperatures
Source: J. Chem. Thermodyn., 2010, 10.1016/j.jct.2009.08.013
Compound 1: urea, CH4N2O, InChI=1S/CH4N2O/c2-1(3)4/h(H4,2,3,4), purity 99%
Compound 2: D-glucose, C6H12O6, InChI=1S/C6H12O6/c7-1-3(9)5(11)6(12)4(10)2-8/h1,3-6,8-12H,2H2/t3-,4+,5+,6+/m0/s1, purity 99%
Compound 3: water, H2O, InChI=1S/H2O/h1H2, purity 99.8%

System: D-glucose + urea + water; phases: Liquid
Fixed: Pressure, kPa = 101
Property: Viscosity, Pa*s (Liquid); method: Capillary tube (Ostwald; Ubbelohde) method
Temperature, K	Molality, mol/kg of urea	Solvent: Mass fraction of D-glucose	Viscosity, Pa*s	uncertainty
298.15	0	0.01	0.0009147	7.9e-06
298.15	0	0.025	0.0009497	8.2e-06
298.15	0	0.05	0.0010097	1.04e-05
298.15	0.005	0.05	0.0010394	1.05e-05
298.15	0.05	0.025	0.0009619	8.2e-06
298.15	0.0502	0.01	0.0009227	8.1e-06
298.15	0.1	0.01	0.0009234	8.1e-06
298.15	0.1008	0.025	0.0009645	8.5e-06
298.15	0.1009	0.05	0.0010414	8.9e-06
298.15	0.15	0.025	0.0009667	8.5e-06
298.15	0.15	0.05	0.0010439	8.9e-06
298.15	0.1505	0.01	0.0009255	8.1e-06
298.15	0.2	0.025	0.0009695	8.5e-06
298.15	0.2003	0.01	0.0009304	8.1e-06
298.15	0.201	0.05	0.0010459	8.9e-06
298.15	0.25	0.05	0.0010489	8.8e-06
298.15	0.2506	0.01	0.0009316	8.3e-06
298.15	0.2536	0.025	0.0009781	8.5e-06
298.15	0.3	0.05	0.0010527	8.8e-06
298.15	0.3008	0.01	0.0009323	8.5e-06
298.15	0.3043	0.025	0.0009868	8.6e-06
303.15	0	0.01	0.0008239	7.3e-06
303.15	0	0.025	0.000849	7.6e-06
303.15	0	0.05	0.0009039	8.9e-06
303.15	0.005	0.05	0.0009283	1e-05
303.15	0.05	0.025	0.0008578	7.6e-06
303.15	0.0502	0.01	0.00083	7.4e-06
303.15	0.1	0.01	0.0008311	7.4e-06
303.15	0.1008	0.025	0.0008606	7.8e-06
303.15	0.1009	0.05	0.0009334	8.3e-06
303.15	0.15	0.025	0.0008645	7.8e-06
303.15	0.15	0.05	0.0009376	8.3e-06
303.15	0.1505	0.01	0.0008332	7.4e-06
303.15	0.2	0.025	0.0008674	7.8e-06
303.15	0.2003	0.01	0.0008352	7.5e-06
303.15	0.201	0.05	0.0009389	8.3e-06
303.15	0.25	0.05	0.0009397	8.3e-06
303.15	0.2506	0.01	0.0008362	7.5e-06
303.15	0.2536	0.025	0.0008724	7.8e-06
303.15	0.3	0.05	0.0009408	8.3e-06
303.15	0.3008	0.01	0.000839	7.5e-06
303.15	0.3043	0.025	0.0008746	7.8e-06
308.15	0	0.01	0.0007381	6.8e-06
308.15	0	0.025	0.0007614	7e-06
308.15	0	0.05	0.0008118	8.1e-06
308.15	0.005	0.05	0.0008346	9.4e-06
308.15	0.05	0.025	0.0007729	7.1e-06
308.15	0.0502	0.01	0.0007456	6.9e-06
308.15	0.1	0.01	0.0007477	6.9e-06
308.15	0.1008	0.025	0.0007751	7.2e-06
308.15	0.1009	0.05	0.0008367	7.7e-06
308.15	0.15	0.025	0.0007808	7.3e-06
308.15	0.15	0.05	0.0008407	7.7e-06
308.15	0.1505	0.01	0.0007495	7e-06
308.15	0.2	0.025	0.0007841	7.3e-06
308.15	0.2003	0.01	0.0007502	7e-06
308.15	0.201	0.05	0.0008441	7.7e-06
308.15	0.25	0.05	0.0008456	7.6e-06
308.15	0.2506	0.01	0.0007561	7.1e-06
308.15	0.2536	0.025	0.0007908	7.3e-06
308.15	0.3	0.05	0.0008518	7.7e-06
308.15	0.3008	0.01	0.0007579	7.1e-06
308.15	0.3043	0.025	0.0007928	7.3e-06
313.15	0	0.01	0.0006709	6.5e-06
313.15	0	0.025	0.0006944	6.6e-06
313.15	0	0.05	0.0007375	8.1e-06
313.15	0.005	0.05	0.0007587	8.2e-06
313.15	0.05	0.025	0.0006989	6.7e-06
313.15	0.0502	0.01	0.0006766	6.6e-06
313.15	0.1	0.01	0.0006787	6.6e-06
313.15	0.1008	0.025	0.0007034	6.8e-06
313.15	0.1009	0.05	0.0007596	7.2e-06
313.15	0.15	0.025	0.0007077	6.8e-06
313.15	0.15	0.05	0.0007627	7.1e-06
313.15	0.1505	0.01	0.0006824	6.6e-06
313.15	0.2	0.025	0.0007097	6.8e-06
313.15	0.2003	0.01	0.0006837	6.6e-06
313.15	0.201	0.05	0.0007659	7.2e-06
313.15	0.25	0.05	0.0007689	7.1e-06
313.15	0.2506	0.01	0.0006885	6.7e-06
313.15	0.2536	0.025	0.0007179	6.9e-06
313.15	0.3	0.05	0.000775	7.1e-06
313.15	0.3008	0.01	0.0006896	6.8e-06
313.15	0.3043	0.025	0.000725	6.9e-06

System: D-glucose + urea + water; phases: Liquid
Fixed: Pressure, kPa = 101
Property: Mass density, kg/m3 (Liquid); method: Pycnometric method
Temperature, K	Molality, mol/kg of urea	Solvent: Mass fraction of D-glucose	Mass density, kg/m3	uncertainty
298.15	0	0.01	1002.4	0.5
298.15	0	0.025	1006	0.5
298.15	0	0.05	1013.7	5
298.15	0.005	0.05	1038.7	5
298.15	0.05	0.025	1015.7	0.5
298.15	0.0502	0.01	1009.4	0.7
298.15	0.1	0.01	1009.7	0.6
298.15	0.1008	0.025	1015.9	0.9
298.15	0.1009	0.05	1039	1
298.15	0.15	0.025	1016.2	0.9
298.15	0.15	0.05	1040.4	1
298.15	0.1505	0.01	1010.1	0.5
298.15	0.2	0.025	1016.6	0.9
298.15	0.2003	0.01	1011.6	0.5
298.15	0.201	0.05	1040.9	1
298.15	0.25	0.05	1041.1	1
298.15	0.2506	0.01	1011.8	0.5
298.15	0.2536	0.025	1017.1	0.9
298.15	0.3	0.05	1041.4	1
298.15	0.3008	0.01	1011.9	0.6
298.15	0.3043	0.025	1018.3	0.9
303.15	0	0.01	1001.2	0.5
303.15	0	0.025	1004.5	0.5
303.15	0	0.05	1012.1	5
303.15	0.005	0.05	1037.1	5.1
303.15	0.05	0.025	1013.4	0.5
303.15	0.0502	0.01	1007.9	0.6
303.15	0.1	0.01	1008.5	0.5
303.15	0.1008	0.025	1013.8	0.9
303.15	0.1009	0.05	1037.7	1
303.15	0.15	0.025	1014.2	0.9
303.15	0.15	0.05	1038.7	1.1
303.15	0.1505	0.01	1009.2	0.5
303.15	0.2	0.025	1014.9	0.9
303.15	0.2003	0.01	1010.1	0.5
303.15	0.201	0.05	1039.4	1.1
303.15	0.25	0.05	1039.7	1.1
303.15	0.2506	0.01	1010.2	0.5
303.15	0.2536	0.025	1015.5	0.9
303.15	0.3	0.05	1039.9	1
303.15	0.3008	0.01	1011	0.5
303.15	0.3043	0.025	1016.6	0.9
308.15	0	0.01	1000.4	0.5
308.15	0	0.025	1003.2	0.5
308.15	0	0.05	1010.9	5.2
308.15	0.005	0.05	1036.7	5.2
308.15	0.05	0.025	1012.3	0.5
308.15	0.0502	0.01	1007.1	0.6
308.15	0.1	0.01	1008.2	0.5
308.15	0.1008	0.025	1012.7	0.9
308.15	0.1009	0.05	1037	1.1
308.15	0.15	0.025	1013.1	0.9
308.15	0.15	0.05	1037.6	1.1
308.15	0.1505	0.01	1009.1	0.5
308.15	0.2	0.025	1013.8	0.9
308.15	0.2003	0.01	1009.8	0.5
308.15	0.201	0.05	1038.5	1.1
308.15	0.25	0.05	1039.2	1.1
308.15	0.2506	0.01	1010	0.5
308.15	0.2536	0.025	1014.6	0.9
308.15	0.3	0.05	1038.9	1
308.15	0.3008	0.01	1010.8	0.5
308.15	0.3043	0.025	1015.5	0.9
313.15	0	0.01	999.5	0.5
313.15	0	0.025	1002	0.5
313.15	0	0.05	1010.1	5.3
313.15	0.005	0.05	1036.6	5.3
313.15	0.05	0.025	1011.7	0.4
313.15	0.0502	0.01	1007.1	0.6
313.15	0.1	0.01	1008	0.5
313.15	0.1008	0.025	1012.1	0.9
313.15	0.1009	0.05	1036.6	1.1
313.15	0.15	0.025	1012.6	0.9
313.15	0.15	0.05	1037.2	1.1
313.15	0.1505	0.01	1009.2	0.5
313.15	0.2	0.025	1013.6	0.9
313.15	0.2003	0.01	1009.5	0.5
313.15	0.201	0.05	1038.8	1.1
313.15	0.25	0.05	1039.1	1.1
313.15	0.2506	0.01	1010.1	0.5
313.15	0.2536	0.025	1014.3	0.9
313.15	0.3	0.05	1039.2	1
313.15	0.3008	0.01	1010.6	0.5
313.15	0.3043	0.025	1015.3	0.9
