Measured thermophysical data. Thermal behaviour of nitrogen oxides relevant to oxidative denitrogenation
Source: J. Chem. Thermodyn., 2019, 10.1016/j.jct.2019.04.014
Compound 1: pyridine N-oxide, C5H5NO, InChI=1S/C5H5NO/c7-6-4-2-1-3-5-6/h1-5H, purity 95%
Compound 2: 2-mercaptopyridine N-oxide, C5H5NOS, InChI=1S/C5H5NOS/c7-6-4-2-1-3-5(6)8/h1-4,8H, purity 99%
Compound 3: 3-hydroxypyridine-N-oxide, C5H5NO2, InChI=1S/C5H5NO2/c7-5-2-1-3-6(8)4-5/h1-4,7H, purity 99%
Compound 4: 4-nitropyridine N-oxide, C5H4N2O3, InChI=1S/C5H4N2O3/c8-6-3-1-5(2-4-6)7(9)10/h1-4H, purity 97%
Compound 5: 3-picoline N-oxide, C6H7NO, InChI=1S/C6H7NO/c1-6-3-2-4-7(8)5-6/h2-5H,1H3, purity 98%
Compound 6: 4-methylpyridine-N-oxide, C6H7NO, InChI=1S/C6H7NO/c1-6-2-4-7(8)5-3-6/h2-5H,1H3, purity 98%
Compound 7: picolinic acid N-oxide, C6H5NO3, InChI=1S/C6H5NO3/c8-6(9)5-3-1-2-4-7(5)10/h1-4H,(H,8,9), purity 97%
Compound 8: 3-pyridinecarboxylic acid N-oxide, C6H5NO3, InChI=1S/C6H5NO3/c8-6(9)5-2-1-3-7(10)4-5/h1-4H,(H,8,9), purity 99%
Compound 9: 4-pyridinecarboxylic acid N-oxide, C6H5NO3, InChI=1S/C6H5NO3/c8-6(9)5-1-3-7(10)4-2-5/h1-4H,(H,8,9), purity 99%
Compound 10: nicotinamide N-oxide, C6H6N2O2, InChI=1S/C6H6N2O2/c7-6(9)5-2-1-3-8(10)4-5/h1-4H,(H2,7,9), purity 98%
Compound 11: 3,5-dimethylpyridine N-oxide, C7H9NO, InChI=1S/C7H9NO/c1-6-3-7(2)5-8(9)4-6/h3-5H,1-2H3, purity 97%
Compound 12: quinoline 1-oxide, C9H7NO, InChI=1S/C9H7NO/c11-10-7-3-5-8-4-1-2-6-9(8)10/h1-7H, purity 97%
Compound 13: benzoic acid, C7H6O2, InChI=1S/C7H6O2/c8-7(9)6-4-2-1-3-5-6/h1-5H,(H,8,9), purity 99.5%

System: pyridine N-oxide; phases: Crystal, Liquid, Air at 1 atmosphere
Property: Normal melting temperature, K (Crystal); method: DTA
Normal melting temperature, K	uncertainty
336.95	8.2

System: pyridine N-oxide; phases: Crystal, Liquid, Air at 1 atmosphere
Property: Molar enthalpy of transition or fusion, kJ/mol (Crystal); method: DSC
Molar enthalpy of transition or fusion, kJ/mol	uncertainty
9.681112812	3.89907294

System: pyridine N-oxide; phases: Liquid, Gas
Property: Boiling temperature at pressure P, K (Liquid); method: DSC
Pressure, kPa	Boiling temperature at pressure P, K	uncertainty
94.4	540.75	29.2

System: pyridine N-oxide; phases: Liquid, Gas
Property: Vapor or sublimation pressure, kPa (Liquid); method: Determined from thermal gravimetric analysis data
Temperature, K	Vapor or sublimation pressure, kPa	uncertainty
425.15	2.5	0.55
427.15	2.66	0.54
433.15	3.33	0.59
435.15	3.59	0.64
440.15	4.28	0.73
443.15	4.86	1.01
445.15	5.22	0.9
447.15	5.5	0.9
450.15	6.19	0.99
453.15	6.84	1.1
455.15	7.36	1.15
457.15	7.89	2.33
460.15	8.88	1.45
463.15	9.76	1.55
465.15	10.41	1.65
467.15	11.15	1.74
470.15	12.44	2.05
473.15	13.57	2.12
475.15	14.4	2.27
477.15	15.28	2.44
480.15	16.58	2.57

System: 2-mercaptopyridine N-oxide; phases: Crystal, Liquid, Air at 1 atmosphere
Property: Normal melting temperature, K (Crystal); method: DTA
Normal melting temperature, K	uncertainty
344.35	5.2

System: 2-mercaptopyridine N-oxide; phases: Crystal, Liquid, Air at 1 atmosphere
Property: Molar enthalpy of transition or fusion, kJ/mol (Crystal); method: DSC
Molar enthalpy of transition or fusion, kJ/mol	uncertainty
13.301494564	3.853109802

System: 3-hydroxypyridine-N-oxide; phases: Crystal, Liquid, Air at 1 atmosphere
Property: Normal melting temperature, K (Crystal); method: DTA
Normal melting temperature, K	uncertainty
462.85	6.2

System: 3-hydroxypyridine-N-oxide; phases: Crystal, Liquid, Air at 1 atmosphere
Property: Molar enthalpy of transition or fusion, kJ/mol (Crystal); method: DSC
Molar enthalpy of transition or fusion, kJ/mol	uncertainty
18.809016682	5.143871662

System: 4-nitropyridine N-oxide; phases: Crystal, Liquid, Air at 1 atmosphere
Property: Normal melting temperature, K (Crystal); method: DTA
Normal melting temperature, K	uncertainty
433.95	5

System: 4-nitropyridine N-oxide; phases: Crystal, Liquid, Air at 1 atmosphere
Property: Molar enthalpy of transition or fusion, kJ/mol (Crystal); method: DSC
Molar enthalpy of transition or fusion, kJ/mol	uncertainty
17.484098112	4.328995446

System: 3-picoline N-oxide; phases: Crystal, Liquid, Air at 1 atmosphere
Property: Normal melting temperature, K (Crystal); method: DTA
Normal melting temperature, K	uncertainty
310.25	8.2

System: 3-picoline N-oxide; phases: Crystal, Liquid, Air at 1 atmosphere
Property: Molar enthalpy of transition or fusion, kJ/mol (Crystal); method: DSC
Molar enthalpy of transition or fusion, kJ/mol	uncertainty
10.541563872	2.138868032

System: 3-picoline N-oxide; phases: Liquid, Gas
Property: Boiling temperature at pressure P, K (Liquid); method: DSC
Pressure, kPa	Boiling temperature at pressure P, K	uncertainty
94.4	556.95	12.1

System: 3-picoline N-oxide; phases: Liquid, Gas
Property: Vapor or sublimation pressure, kPa (Liquid); method: Determined from thermal gravimetric analysis data
Temperature, K	Vapor or sublimation pressure, kPa	uncertainty
433.15	4.26	1.05
435.15	4.48	1.11
440.15	5.4	1.17
443.15	5.93	1
445.15	6.29	1.27
447.15	6.89	1.03
450.15	7.47	0.67
453.15	8.23	1.11
455.15	8.91	0.95
457.15	9.28	1.25
460.15	10.15	1.05
463.15	10.93	1.07
465.15	11.69	1.07
467.15	12.28	1.09
470.15	13.42	1.12
473.15	14.64	1.35
475.15	15.17	1.38
477.15	16.14	1.27
480.15	17.37	1.36
483.15	18.4	1.44
485.15	19.19	1.51
487.15	20.28	1.78
490.15	21.69	2.11
493.15	23.24	2.53
495.15	24.75	3
497.15	25.56	3.19
500.15	27.36	3.94
503.15	29.43	4.54
505.15	31	5.44
507.15	32.53	6.01
510.15	35.18	7.09
513.15	37.62	8.02
515.15	38.66	8.46
517.15	40.64	8.84

System: 4-methylpyridine-N-oxide; phases: Crystal, Liquid, Air at 1 atmosphere
Property: Normal melting temperature, K (Crystal); method: DTA
Normal melting temperature, K	uncertainty
457.75	4.8

System: 4-methylpyridine-N-oxide; phases: Crystal, Liquid, Air at 1 atmosphere
Property: Molar enthalpy of transition or fusion, kJ/mol (Crystal); method: DSC
Molar enthalpy of transition or fusion, kJ/mol	uncertainty
18.889696752	3.688456096

System: 4-methylpyridine-N-oxide; phases: Liquid, Gas
Property: Boiling temperature at pressure P, K (Liquid); method: DSC
Pressure, kPa	Boiling temperature at pressure P, K	uncertainty
94.4	560.45	6.8

System: picolinic acid N-oxide; phases: Crystal, Liquid, Air at 1 atmosphere
Property: Normal melting temperature, K (Crystal); method: DTA
Normal melting temperature, K	uncertainty
436.95	5.4

System: picolinic acid N-oxide; phases: Crystal, Liquid, Air at 1 atmosphere
Property: Molar enthalpy of transition or fusion, kJ/mol (Crystal); method: DSC
Molar enthalpy of transition or fusion, kJ/mol	uncertainty
30.172707396	13.28489422

System: picolinic acid N-oxide; phases: Liquid, Gas
Property: Boiling temperature at pressure P, K (Liquid); method: DSC
Pressure, kPa	Boiling temperature at pressure P, K	uncertainty
94.4	540.75	10.3

System: 3-pyridinecarboxylic acid N-oxide; phases: Crystal, Liquid, Air at 1 atmosphere
Property: Normal melting temperature, K (Crystal); method: DTA
Normal melting temperature, K	uncertainty
531.45	4.6

System: 3-pyridinecarboxylic acid N-oxide; phases: Crystal, Liquid, Gas
Property: Molar enthalpy of transition or fusion, kJ/mol (Crystal); method: DSC
Molar enthalpy of transition or fusion, kJ/mol	uncertainty
23.551126612	4.03415636

System: 3-pyridinecarboxylic acid N-oxide; phases: Liquid
Property: Molar enthalpy, kJ/mol (Liquid); method: DSC
Temperature, K	Pressure, kPa	Molar enthalpy, kJ/mol	uncertainty
531.45	5000	23.551126612	4.089799896

System: 4-pyridinecarboxylic acid N-oxide; phases: Crystal, Liquid, Air at 1 atmosphere
Property: Normal melting temperature, K (Crystal); method: DTA
Normal melting temperature, K	uncertainty
541.65	4.4

System: 4-pyridinecarboxylic acid N-oxide; phases: Crystal, Liquid, Air at 1 atmosphere
Property: Molar enthalpy of transition or fusion, kJ/mol (Crystal); method: DSC
Molar enthalpy of transition or fusion, kJ/mol	uncertainty
24.107561972	6.412917524

System: nicotinamide N-oxide; phases: Crystal, Liquid, Air at 1 atmosphere
Property: Normal melting temperature, K (Crystal); method: DTA
Normal melting temperature, K	uncertainty
562.65	7.8

System: 3,5-dimethylpyridine N-oxide; phases: Crystal, Liquid, Air at 1 atmosphere
Property: Normal melting temperature, K (Crystal); method: DTA
Normal melting temperature, K	uncertainty
374.45	4.4

System: 3,5-dimethylpyridine N-oxide; phases: Crystal, Liquid, Air at 1 atmosphere
Property: Molar enthalpy of transition or fusion, kJ/mol (Crystal); method: DSC
Molar enthalpy of transition or fusion, kJ/mol	uncertainty
12.37682625	1.31773175

System: 3,5-dimethylpyridine N-oxide; phases: Liquid, Gas
Property: Boiling temperature at pressure P, K (Liquid); method: DSC
Pressure, kPa	Boiling temperature at pressure P, K	uncertainty
94.4	564.85	6

System: quinoline 1-oxide; phases: Crystal, Liquid, Air at 1 atmosphere
Property: Normal melting temperature, K (Crystal); method: DTA
Normal melting temperature, K	uncertainty
328.55	4.4

System: quinoline 1-oxide; phases: Crystal, Liquid, Air at 1 atmosphere
Property: Molar enthalpy of transition or fusion, kJ/mol (Crystal); method: DSC
Molar enthalpy of transition or fusion, kJ/mol	uncertainty
10.23364041	1.59673822

System: benzoic acid; phases: Crystal, Liquid, Air at 1 atmosphere
Property: Normal melting temperature, K (Crystal); method: DTA
Normal melting temperature, K	uncertainty
394.75	1.1
