Measured thermophysical data. Volumetric, acoustic and viscometric studies of solute-solute and solute-solvent interactions of isoniazid in aqueous-glucose/sucrose solutions at temperatures from 293.15 K to 318.15 K
Source: J. Chem. Thermodyn., 2019, 10.1016/j.jct.2019.01.024
Compound 1: D-glucose, C6H12O6, InChI=1S/C6H12O6/c7-1-3(9)5(11)6(12)4(10)2-8/h1,3-6,8-12H,2H2/t3-,4+,5+,6+/m0/s1, purity 99.9%
Compound 2: D-sucrose, C12H22O11, InChI=1S/C12H22O11/c13-1-4-6(16)8(18)9(19)11(21-4)23-12(3-15)10(20)7(17)5(2-14)22-12/h4-11,13-20H,1-3H2/t4-,5-,6-,7-,8+,9-,10+,11-,12+/m1/s1, purity 99.9%
Compound 3: isonicotinic acid hydrazide, C6H7N3O, InChI=1S/C6H7N3O/c7-9-6(10)5-1-3-8-4-2-5/h1-4H,7H2,(H,9,10), purity 99%
Compound 4: water, H2O, InChI=1S/H2O/h1H2

System: isonicotinic acid hydrazide + D-glucose + water; phases: Liquid
Fixed: Pressure, kPa = 101
Property: Mass density, kg/m3 (Liquid); method: Vibrating tube method
Solvent: Mass fraction of D-glucose	Temperature, K	Molality, mol/kg of isonicotinic acid hydrazide	Mass density, kg/m3	uncertainty
0	293.15	0	998.24	0.3
0	293.15	0.0255	999.11	0.3
0	293.15	0.0494	999.92	0.3
0	293.15	0.0754	1000.8	0.3
0	293.15	0.1	1001.64	0.3
0	293.15	0.1253	1002.5	0.3
0	293.15	0.15	1003.35	0.31
0	293.15	0.2002	1005.07	0.31
0	293.15	0.2492	1006.75	0.31
0	293.15	0.3001	1008.5	0.31
0	293.15	0.3489	1010.18	0.31
0	293.15	0.4003	1011.96	0.31
0	298.15	0	997.07	0.3
0	298.15	0.0255	997.93	0.3
0	298.15	0.0494	998.74	0.3
0	298.15	0.0754	999.61	0.3
0	298.15	0.1	1000.45	0.3
0	298.15	0.1253	1001.3	0.3
0	298.15	0.15	1002.14	0.3
0	298.15	0.2002	1003.84	0.31
0	298.15	0.2492	1005.51	0.31
0	298.15	0.3001	1007.25	0.31
0	298.15	0.3489	1008.91	0.31
0	298.15	0.4003	1010.67	0.31
0	303.15	0	995.68	0.31
0	303.15	0.0255	996.53	0.3
0	303.15	0.0494	997.34	0.3
0	303.15	0.0754	998.21	0.3
0	303.15	0.1	999.03	0.3
0	303.15	0.1253	999.88	0.3
0	303.15	0.15	1000.71	0.3
0	303.15	0.2002	1002.4	0.3
0	303.15	0.2492	1004.05	0.31
0	303.15	0.3001	1005.77	0.31
0	303.15	0.3489	1007.42	0.31
0	303.15	0.4003	1009.16	0.31
0	308.15	0	994.07	0.31
0	308.15	0.0255	994.92	0.31
0	308.15	0.0494	995.72	0.31
0	308.15	0.0754	996.58	0.3
0	308.15	0.1	997.4	0.3
0	308.15	0.1253	998.25	0.3
0	308.15	0.15	999.08	0.3
0	308.15	0.2002	1000.75	0.3
0	308.15	0.2492	1002.39	0.3
0	308.15	0.3001	1004.1	0.31
0	308.15	0.3489	1005.74	0.31
0	308.15	0.4003	1007.46	0.31
0	313.15	0	992.25	0.31
0	313.15	0.0255	993.1	0.31
0	313.15	0.0494	993.89	0.31
0	313.15	0.0754	994.75	0.31
0	313.15	0.1	995.57	0.31
0	313.15	0.1253	996.41	0.31
0	313.15	0.15	997.23	0.3
0	313.15	0.2002	998.9	0.3
0	313.15	0.2492	1000.53	0.3
0	313.15	0.3001	1002.22	0.3
0	313.15	0.3489	1003.84	0.31
0	313.15	0.4003	1005.55	0.31
0	318.15	0	990.24	0.31
0	318.15	0.0255	991.08	0.31
0	318.15	0.0494	991.87	0.31
0	318.15	0.0754	992.73	0.31
0	318.15	0.1	993.54	0.31
0	318.15	0.1253	994.38	0.31
0	318.15	0.15	995.19	0.31
0	318.15	0.2002	996.85	0.3
0	318.15	0.2492	998.46	0.3
0	318.15	0.3001	1000.14	0.3
0	318.15	0.3489	1001.75	0.3
0	318.15	0.4003	1003.44	0.31
0.05	293.15	0	1016.29	0.31
0.05	293.15	0.0249	1017.05	0.31
0.05	293.15	0.0495	1017.8	0.31
0.05	293.15	0.0754	1018.59	0.31
0.05	293.15	0.1038	1019.47	0.31
0.05	293.15	0.1269	1020.18	0.31
0.05	293.15	0.1515	1020.94	0.31
0.05	293.15	0.2015	1022.5	0.31
0.05	293.15	0.2513	1024.07	0.31
0.05	293.15	0.3017	1025.67	0.31
0.05	293.15	0.351	1027.24	0.31
0.05	293.15	0.4003	1028.82	0.31
0.05	298.15	0	1014.69	0.31
0.05	298.15	0.0249	1015.44	0.31
0.05	298.15	0.0495	1016.19	0.31
0.05	298.15	0.0754	1016.98	0.31
0.05	298.15	0.1038	1017.85	0.31
0.05	298.15	0.1269	1018.55	0.31
0.05	298.15	0.1515	1019.31	0.31
0.05	298.15	0.2015	1020.86	0.31
0.05	298.15	0.2513	1022.41	0.31
0.05	298.15	0.3017	1023.99	0.31
0.05	298.15	0.351	1025.55	0.31
0.05	298.15	0.4003	1027.11	0.31
0.05	303.15	0	1013.08	0.31
0.05	303.15	0.0249	1013.83	0.31
0.05	303.15	0.0495	1014.57	0.31
0.05	303.15	0.0754	1015.35	0.31
0.05	303.15	0.1038	1016.22	0.31
0.05	303.15	0.1269	1016.92	0.31
0.05	303.15	0.1515	1017.67	0.31
0.05	303.15	0.2015	1019.2	0.31
0.05	303.15	0.2513	1020.74	0.31
0.05	303.15	0.3017	1022.3	0.31
0.05	303.15	0.351	1023.83	0.31
0.05	303.15	0.4003	1025.38	0.31
0.05	308.15	0	1011.47	0.31
0.05	308.15	0.0249	1012.22	0.31
0.05	308.15	0.0495	1012.95	0.31
0.05	308.15	0.0754	1013.73	0.31
0.05	308.15	0.1038	1014.59	0.31
0.05	308.15	0.1269	1015.28	0.31
0.05	308.15	0.1515	1016.03	0.31
0.05	308.15	0.2015	1017.55	0.31
0.05	308.15	0.2513	1019.07	0.31
0.05	308.15	0.3017	1020.61	0.31
0.05	308.15	0.351	1022.13	0.31
0.05	308.15	0.4003	1023.67	0.31
0.05	313.15	0	1009.85	0.31
0.05	313.15	0.0249	1010.59	0.31
0.05	313.15	0.0495	1011.33	0.31
0.05	313.15	0.0754	1012.1	0.31
0.05	313.15	0.1038	1012.95	0.31
0.05	313.15	0.1269	1013.64	0.31
0.05	313.15	0.1515	1014.38	0.31
0.05	313.15	0.2015	1015.89	0.31
0.05	313.15	0.2513	1017.39	0.31
0.05	313.15	0.3017	1018.92	0.31
0.05	313.15	0.351	1020.43	0.31
0.05	313.15	0.4003	1021.94	0.31
0.05	318.15	0	1008.21	0.31
0.05	318.15	0.0249	1008.95	0.31
0.05	318.15	0.0495	1009.68	0.31
0.05	318.15	0.0754	1010.45	0.31
0.05	318.15	0.1038	1011.29	0.31
0.05	318.15	0.1269	1011.98	0.31
0.05	318.15	0.1515	1012.72	0.31
0.05	318.15	0.2015	1014.21	0.31
0.05	318.15	0.2513	1015.7	0.31
0.05	318.15	0.3017	1017.22	0.31
0.05	318.15	0.351	1018.71	0.31
0.05	318.15	0.4003	1020.2	0.31
0.1	293.15	0	1034.79	0.31
0.1	293.15	0.025	1035.46	0.31
0.1	293.15	0.0499	1036.13	0.31
0.1	293.15	0.0749	1036.81	0.31
0.1	293.15	0.1	1037.49	0.31
0.1	293.15	0.1249	1038.17	0.31
0.1	293.15	0.1502	1038.86	0.31
0.1	293.15	0.1928	1040.04	0.31
0.1	293.15	0.2499	1041.62	0.31
0.1	293.15	0.2999	1043.02	0.31
0.1	293.15	0.3499	1044.43	0.31
0.1	293.15	0.3998	1045.85	0.31
0.1	298.15	0	1033.15	0.31
0.1	298.15	0.025	1033.82	0.31
0.1	298.15	0.0499	1034.48	0.31
0.1	298.15	0.0749	1035.16	0.31
0.1	298.15	0.1	1035.83	0.31
0.1	298.15	0.1249	1036.51	0.31
0.1	298.15	0.1502	1037.2	0.31
0.1	298.15	0.1928	1038.36	0.31
0.1	298.15	0.2499	1039.93	0.31
0.1	298.15	0.2999	1041.32	0.31
0.1	298.15	0.3499	1042.71	0.31
0.1	298.15	0.3998	1044.11	0.31
0.1	303.15	0	1031.5	0.31
0.1	303.15	0.025	1032.16	0.31
0.1	303.15	0.0499	1032.83	0.31
0.1	303.15	0.0749	1033.5	0.31
0.1	303.15	0.1	1034.17	0.31
0.1	303.15	0.1249	1034.84	0.31
0.1	303.15	0.1502	1035.52	0.31
0.1	303.15	0.1928	1036.67	0.31
0.1	303.15	0.2499	1038.22	0.31
0.1	303.15	0.2999	1039.59	0.31
0.1	303.15	0.3499	1040.97	0.31
0.1	303.15	0.3998	1042.36	0.31
0.1	308.15	0	1029.84	0.31
0.1	308.15	0.025	1030.5	0.31
0.1	308.15	0.0499	1031.16	0.31
0.1	308.15	0.0749	1031.82	0.31
0.1	308.15	0.1	1032.49	0.31
0.1	308.15	0.1249	1033.16	0.31
0.1	308.15	0.1502	1033.83	0.31
0.1	308.15	0.1928	1034.98	0.31
0.1	308.15	0.2499	1036.52	0.31
0.1	308.15	0.2999	1037.87	0.31
0.1	308.15	0.3499	1039.23	0.31
0.1	308.15	0.3998	1040.6	0.31
0.1	313.15	0	1028.17	0.31
0.1	313.15	0.025	1028.83	0.31
0.1	313.15	0.0499	1029.48	0.31
0.1	313.15	0.0749	1030.14	0.31
0.1	313.15	0.1	1030.81	0.31
0.1	313.15	0.1249	1031.47	0.31
0.1	313.15	0.1502	1032.14	0.31
0.1	313.15	0.1928	1033.27	0.31
0.1	313.15	0.2499	1034.79	0.31
0.1	313.15	0.2999	1036.14	0.31
0.1	313.15	0.3499	1037.48	0.31
0.1	313.15	0.3998	1038.83	0.31
0.1	318.15	0	1026.48	0.31
0.1	318.15	0.025	1027.14	0.31
0.1	318.15	0.0499	1027.79	0.31
0.1	318.15	0.0749	1028.45	0.31
0.1	318.15	0.1	1029.11	0.31
0.1	318.15	0.1249	1029.76	0.31
0.1	318.15	0.1502	1030.43	0.31
0.1	318.15	0.1928	1031.55	0.31
0.1	318.15	0.2499	1033.06	0.31
0.1	318.15	0.2999	1034.39	0.31
0.1	318.15	0.3499	1035.72	0.31
0.1	318.15	0.3998	1037.05	0.31

System: isonicotinic acid hydrazide + D-glucose + water; phases: Liquid
Fixed: Pressure, kPa = 101
Fixed: Frequency, MHz = 3
Property: Speed of sound, m/s (Liquid); method: Single path-length method
Solvent: Mass fraction of D-glucose	Temperature, K	Molality, mol/kg of isonicotinic acid hydrazide	Speed of sound, m/s	uncertainty
0	293.15	0	1483.6	7
0	293.15	0.0255	1485.3	7
0	293.15	0.0494	1486.9	7
0	293.15	0.0754	1488.6	7
0	293.15	0.1253	1491.8	7
0	293.15	0.15	1493.4	7
0	293.15	0.2002	1496.5	7
0	293.15	0.2492	1499.4	7
0	293.15	0.3001	1502.4	7
0	293.15	0.3489	1505.1	7
0	293.15	0.4003	1507.9	7
0	298.15	0	1496.9	7
0	298.15	0.0255	1498.6	7
0	298.15	0.0494	1500.2	7
0	298.15	0.0754	1501.9	7
0	298.15	0.1253	1505.1	7
0	298.15	0.15	1506.6	7
0	298.15	0.2002	1509.7	7
0	298.15	0.2492	1512.6	7
0	298.15	0.3001	1515.6	7
0	298.15	0.3489	1518.4	7
0	298.15	0.4003	1521.3	7
0	303.15	0	1508.4	7
0	303.15	0.0255	1510.1	7
0	303.15	0.0494	1511.6	7
0	303.15	0.0754	1513.3	7
0	303.15	0.1253	1516.4	7
0	303.15	0.15	1517.9	7
0	303.15	0.2002	1521	7
0	303.15	0.2492	1523.9	7
0	303.15	0.3001	1526.9	7
0	303.15	0.3489	1529.7	7
0	303.15	0.4003	1532.6	7
0	308.15	0	1519.8	7
0	308.15	0.0255	1521.4	7
0	308.15	0.0494	1522.9	7
0	308.15	0.0754	1524.5	7
0	308.15	0.1253	1527.6	7
0	308.15	0.15	1529.1	7
0	308.15	0.2002	1532.2	7
0	308.15	0.2492	1535.1	7
0	308.15	0.3001	1538.1	7
0	308.15	0.3489	1540.9	7
0	308.15	0.4003	1543.8	7
0	313.15	0	1526.8	7
0	313.15	0.0255	1528.4	7
0	313.15	0.0494	1529.8	7
0	313.15	0.0754	1531.4	7
0	313.15	0.1253	1534.4	7
0	313.15	0.15	1535.8	7
0	313.15	0.2002	1538.8	7
0	313.15	0.2492	1541.7	7
0	313.15	0.3001	1544.6	7
0	313.15	0.3489	1547.3	7
0	313.15	0.4003	1550.2	7
0	318.15	0	1533	7
0	318.15	0.0255	1534.5	7
0	318.15	0.0494	1535.9	7
0	318.15	0.0754	1537.4	7
0	318.15	0.1253	1540.3	7
0	318.15	0.15	1541.7	7
0	318.15	0.2002	1544.5	7
0	318.15	0.2492	1547.3	7
0	318.15	0.3001	1550.2	7
0	318.15	0.3489	1552.9	7
0	318.15	0.4003	1555.7	7
0.05	293.15	0	1499.7	7
0.05	293.15	0.0249	1501.3	7
0.05	293.15	0.0495	1502.9	7
0.05	293.15	0.0754	1504.5	7
0.05	293.15	0.1038	1506.2	7
0.05	293.15	0.1269	1507.5	7
0.05	293.15	0.1515	1508.9	7
0.05	293.15	0.2015	1511.6	7
0.05	293.15	0.2513	1514	7
0.05	293.15	0.3017	1516.2	7
0.05	293.15	0.351	1518.3	7
0.05	293.15	0.4003	1520.1	7
0.05	298.15	0	1514.3	7
0.05	298.15	0.0249	1515.9	7
0.05	298.15	0.0495	1517.5	7
0.05	298.15	0.0754	1519.1	7
0.05	298.15	0.1038	1520.7	7
0.05	298.15	0.1269	1522.1	7
0.05	298.15	0.1515	1523.4	7
0.05	298.15	0.2015	1526	7
0.05	298.15	0.2513	1528.5	7
0.05	298.15	0.3017	1530.8	7
0.05	298.15	0.351	1532.7	7
0.05	298.15	0.4003	1534.5	7
0.05	303.15	0	1525.1	7
0.05	303.15	0.0249	1526.7	7
0.05	303.15	0.0495	1528.2	7
0.05	303.15	0.0754	1529.8	7
0.05	303.15	0.1038	1531.4	7
0.05	303.15	0.1269	1532.7	7
0.05	303.15	0.1515	1534	7
0.05	303.15	0.2015	1536.6	7
0.05	303.15	0.2513	1539	7
0.05	303.15	0.3017	1541.2	7
0.05	303.15	0.351	1543.1	7
0.05	303.15	0.4003	1544.8	7
0.05	308.15	0	1535.7	7
0.05	308.15	0.0249	1537.2	7
0.05	308.15	0.0495	1538.7	7
0.05	308.15	0.0754	1540.2	7
0.05	308.15	0.1038	1541.9	7
0.05	308.15	0.1269	1543.1	7
0.05	308.15	0.1515	1544.5	7
0.05	308.15	0.2015	1547	7
0.05	308.15	0.2513	1549.3	7
0.05	308.15	0.3017	1551.4	7
0.05	308.15	0.351	1553.3	7
0.05	308.15	0.4003	1555	7
0.05	313.15	0	1545.6	7
0.05	313.15	0.0249	1547.1	7
0.05	313.15	0.0495	1548.6	7
0.05	313.15	0.0754	1550	7
0.05	313.15	0.1038	1551.6	7
0.05	313.15	0.1269	1552.8	7
0.05	313.15	0.1515	1554.1	7
0.05	313.15	0.2015	1556.5	7
0.05	313.15	0.2513	1558.8	7
0.05	313.15	0.3017	1560.9	7
0.05	313.15	0.351	1562.7	7
0.05	313.15	0.4003	1564.3	7
0.05	318.15	0	1554.5	7
0.05	318.15	0.0249	1556	7
0.05	318.15	0.0495	1557.4	7
0.05	318.15	0.0754	1558.8	7
0.05	318.15	0.1038	1560.3	7
0.05	318.15	0.1269	1561.5	7
0.05	318.15	0.1515	1562.7	7
0.05	318.15	0.2015	1565.1	7
0.05	318.15	0.2513	1567.3	7
0.05	318.15	0.3017	1569.3	7
0.05	318.15	0.351	1571	7
0.05	318.15	0.4003	1572.6	7
0.1	293.15	0	1521.4	7
0.1	293.15	0.025	1522.9	7
0.1	293.15	0.0499	1524.4	7
0.1	293.15	0.0749	1525.8	7
0.1	293.15	0.1	1527.3	7
0.1	293.15	0.1249	1528.6	7
0.1	293.15	0.1502	1529.9	7
0.1	293.15	0.1928	1532	7
0.1	293.15	0.2499	1534.6	7
0.1	293.15	0.2999	1536.6	7
0.1	293.15	0.3499	1538.4	7
0.1	293.15	0.3998	1540	7
0.1	298.15	0	1530.6	7
0.1	298.15	0.025	1532.1	7
0.1	298.15	0.0499	1533.6	7
0.1	298.15	0.0749	1535	7
0.1	298.15	0.1	1536.4	7
0.1	298.15	0.1249	1537.7	7
0.1	298.15	0.1502	1539	7
0.1	298.15	0.1928	1541	7
0.1	298.15	0.2499	1543.6	7
0.1	298.15	0.2999	1545.6	7
0.1	298.15	0.3499	1547.4	7
0.1	298.15	0.3998	1549	7
0.1	303.15	0	1540.3	7
0.1	303.15	0.025	1541.8	7
0.1	303.15	0.0499	1543.2	7
0.1	303.15	0.0749	1544.6	7
0.1	303.15	0.1	1546	7
0.1	303.15	0.1249	1547.3	7
0.1	303.15	0.1502	1548.6	7
0.1	303.15	0.1928	1550.6	7
0.1	303.15	0.2499	1553.1	7
0.1	303.15	0.2999	1555.1	7
0.1	303.15	0.3499	1556.9	7
0.1	303.15	0.3998	1558.5	7
0.1	308.15	0	1550.2	7
0.1	308.15	0.025	1551.7	7
0.1	308.15	0.0499	1553.1	7
0.1	308.15	0.0749	1554.5	7
0.1	308.15	0.1	1555.8	7
0.1	308.15	0.1249	1557.1	7
0.1	308.15	0.1502	1558.4	7
0.1	308.15	0.1928	1560.4	7
0.1	308.15	0.2499	1562.9	7
0.1	308.15	0.2999	1564.9	7
0.1	308.15	0.3499	1566.6	7
0.1	308.15	0.3998	1568.2	7
0.1	313.15	0	1559.9	7
0.1	313.15	0.025	1561.4	7
0.1	313.15	0.0499	1562.8	7
0.1	313.15	0.0749	1564.1	7
0.1	313.15	0.1	1565.5	7
0.1	313.15	0.1249	1566.7	7
0.1	313.15	0.1502	1568	7
0.1	313.15	0.1928	1570	7
0.1	313.15	0.2499	1572.4	7
0.1	313.15	0.2999	1574.4	7
0.1	313.15	0.3499	1576.2	7
0.1	313.15	0.3998	1577.7	7
0.1	318.15	0	1568.4	7
0.1	318.15	0.025	1569.8	7
0.1	318.15	0.0499	1571.2	7
0.1	318.15	0.0749	1572.5	7
0.1	318.15	0.1	1573.8	7
0.1	318.15	0.1249	1575.1	7
0.1	318.15	0.1502	1576.3	7
0.1	318.15	0.1928	1578.3	7
0.1	318.15	0.2499	1580.7	7
0.1	318.15	0.2999	1582.6	7
0.1	318.15	0.3499	1584.4	7
0.1	318.15	0.3998	1585.9	7

System: isonicotinic acid hydrazide + D-glucose + water; phases: Liquid
Fixed: Pressure, kPa = 101
Property: Viscosity, Pa*s (Liquid); method: Falling or rolling sphere viscometry
Solvent: Mass fraction of D-glucose	Temperature, K	Molality, mol/kg of isonicotinic acid hydrazide	Viscosity, Pa*s	uncertainty
0	293.15	0	0.0010019	6.06e-05
0	293.15	0.0255	0.0010061	6.08e-05
0	293.15	0.0494	0.0010117	6.12e-05
0	293.15	0.0754	0.0010179	6.15e-05
0	293.15	0.1	0.0010239	6.19e-05
0	293.15	0.1253	0.0010303	6.23e-05
0	293.15	0.15	0.0010366	6.27e-05
0	293.15	0.2002	0.0010492	6.34e-05
0	293.15	0.2492	0.0010618	6.42e-05
0	293.15	0.3001	0.0010753	6.5e-05
0	293.15	0.3489	0.0010883	6.58e-05
0	293.15	0.4003	0.0011015	6.66e-05
0	298.15	0	0.0008903	5.38e-05
0	298.15	0.0255	0.0008937	5.4e-05
0	298.15	0.0494	0.0008984	5.43e-05
0	298.15	0.0754	0.0009036	5.46e-05
0	298.15	0.1	0.0009086	5.49e-05
0	298.15	0.1253	0.0009138	5.52e-05
0	298.15	0.15	0.0009191	5.56e-05
0	298.15	0.2002	0.0009298	5.62e-05
0	298.15	0.2492	0.0009401	5.68e-05
0	298.15	0.3001	0.000951	5.75e-05
0	298.15	0.3489	0.0009616	5.81e-05
0	298.15	0.4003	0.0009729	5.88e-05
0	303.15	0	0.0007973	4.82e-05
0	303.15	0.0255	0.0008001	4.84e-05
0	303.15	0.0494	0.000804	4.86e-05
0	303.15	0.0754	0.0008084	4.89e-05
0	303.15	0.1	0.0008125	4.91e-05
0	303.15	0.1253	0.0008169	4.94e-05
0	303.15	0.15	0.0008213	4.96e-05
0	303.15	0.2002	0.0008301	5.02e-05
0	303.15	0.2492	0.0008389	5.07e-05
0	303.15	0.3001	0.0008482	5.13e-05
0	303.15	0.3489	0.0008571	5.18e-05
0	303.15	0.4003	0.0008661	5.24e-05
0	308.15	0	0.000719	4.35e-05
0	308.15	0.0255	0.0007213	4.36e-05
0	308.15	0.0494	0.0007246	4.38e-05
0	308.15	0.0754	0.0007282	4.4e-05
0	308.15	0.1	0.0007317	4.42e-05
0	308.15	0.1253	0.0007353	4.44e-05
0	308.15	0.15	0.0007389	4.47e-05
0	308.15	0.2002	0.0007463	4.51e-05
0	308.15	0.2492	0.0007537	4.56e-05
0	308.15	0.3001	0.0007612	4.6e-05
0	308.15	0.3489	0.0007687	4.65e-05
0	308.15	0.4003	0.0007765	4.69e-05
0	313.15	0	0.0006526	3.95e-05
0	313.15	0.0255	0.0006545	3.96e-05
0	313.15	0.0494	0.0006572	3.97e-05
0	313.15	0.0754	0.0006602	3.99e-05
0	313.15	0.1	0.0006632	4.01e-05
0	313.15	0.1253	0.0006663	4.03e-05
0	313.15	0.15	0.0006693	4.05e-05
0	313.15	0.2002	0.0006756	4.08e-05
0	313.15	0.2492	0.0006818	4.12e-05
0	313.15	0.3001	0.0006882	4.16e-05
0	313.15	0.3489	0.0006944	4.2e-05
0	313.15	0.4003	0.0007007	4.24e-05
0	318.15	0	0.0005972	3.61e-05
0	318.15	0.0255	0.0005987	3.62e-05
0	318.15	0.0494	0.0006009	3.63e-05
0	318.15	0.0754	0.0006034	3.65e-05
0	318.15	0.1	0.0006058	3.66e-05
0	318.15	0.1253	0.0006084	3.68e-05
0	318.15	0.15	0.000611	3.69e-05
0	318.15	0.2002	0.0006163	3.73e-05
0	318.15	0.2492	0.0006215	3.76e-05
0	318.15	0.3001	0.0006268	3.79e-05
0	318.15	0.3489	0.0006321	3.82e-05
0	318.15	0.4003	0.0006375	3.85e-05
0.05	293.15	0	0.0011757	7.11e-05
0.05	293.15	0.0249	0.0011818	7.14e-05
0.05	293.15	0.0495	0.0011895	7.19e-05
0.05	293.15	0.0754	0.001198	7.24e-05
0.05	293.15	0.1038	0.0012074	7.3e-05
0.05	293.15	0.1269	0.0012152	7.35e-05
0.05	293.15	0.1515	0.0012235	7.4e-05
0.05	293.15	0.2015	0.0012405	7.5e-05
0.05	293.15	0.2513	0.0012576	7.6e-05
0.05	293.15	0.3017	0.0012748	7.71e-05
0.05	293.15	0.351	0.0012916	7.81e-05
0.05	293.15	0.4003	0.0013088	7.91e-05
0.05	298.15	0	0.0009767	5.9e-05
0.05	298.15	0.0249	0.0009814	5.93e-05
0.05	298.15	0.0495	0.0009874	5.97e-05
0.05	298.15	0.0754	0.0009939	6.01e-05
0.05	298.15	0.1038	0.0010011	6.05e-05
0.05	298.15	0.1269	0.0010071	6.09e-05
0.05	298.15	0.1515	0.0010137	6.13e-05
0.05	298.15	0.2015	0.0010269	6.21e-05
0.05	298.15	0.2513	0.0010402	6.29e-05
0.05	298.15	0.3017	0.0010536	6.37e-05
0.05	298.15	0.351	0.0010669	6.45e-05
0.05	298.15	0.4003	0.0010799	6.53e-05
0.05	303.15	0	0.0008605	5.2e-05
0.05	303.15	0.0249	0.0008643	5.22e-05
0.05	303.15	0.0495	0.0008692	5.25e-05
0.05	303.15	0.0754	0.0008745	5.29e-05
0.05	303.15	0.1038	0.0008805	5.32e-05
0.05	303.15	0.1269	0.0008854	5.35e-05
0.05	303.15	0.1515	0.0008908	5.38e-05
0.05	303.15	0.2015	0.0009017	5.45e-05
0.05	303.15	0.2513	0.0009126	5.52e-05
0.05	303.15	0.3017	0.0009236	5.58e-05
0.05	303.15	0.351	0.0009343	5.65e-05
0.05	303.15	0.4003	0.0009449	5.71e-05
0.05	308.15	0	0.0007697	4.65e-05
0.05	308.15	0.0249	0.0007728	4.67e-05
0.05	308.15	0.0495	0.0007768	4.7e-05
0.05	308.15	0.0754	0.0007812	4.72e-05
0.05	308.15	0.1038	0.0007862	4.75e-05
0.05	308.15	0.1269	0.0007903	4.78e-05
0.05	308.15	0.1515	0.0007947	4.8e-05
0.05	308.15	0.2015	0.0008036	4.86e-05
0.05	308.15	0.2513	0.0008127	4.91e-05
0.05	308.15	0.3017	0.0008218	4.97e-05
0.05	308.15	0.351	0.0008308	5.02e-05
0.05	308.15	0.4003	0.0008394	5.07e-05
0.05	313.15	0	0.0006945	4.2e-05
0.05	313.15	0.0249	0.000697	4.21e-05
0.05	313.15	0.0495	0.0007004	4.23e-05
0.05	313.15	0.0754	0.0007041	4.26e-05
0.05	313.15	0.1038	0.0007083	4.28e-05
0.05	313.15	0.1269	0.0007117	4.3e-05
0.05	313.15	0.1515	0.0007154	4.32e-05
0.05	313.15	0.2015	0.0007228	4.37e-05
0.05	313.15	0.2513	0.0007302	4.41e-05
0.05	313.15	0.3017	0.0007378	4.46e-05
0.05	313.15	0.351	0.0007453	4.51e-05
0.05	313.15	0.4003	0.0007527	4.55e-05
0.05	318.15	0	0.0006334	3.83e-05
0.05	318.15	0.0249	0.0006355	3.84e-05
0.05	318.15	0.0495	0.0006384	3.86e-05
0.05	318.15	0.0754	0.0006415	3.88e-05
0.05	318.15	0.1038	0.000645	3.9e-05
0.05	318.15	0.1269	0.0006479	3.92e-05
0.05	318.15	0.1515	0.000651	3.94e-05
0.05	318.15	0.2015	0.0006572	3.97e-05
0.05	318.15	0.2513	0.0006636	4.01e-05
0.05	318.15	0.3017	0.00067	4.05e-05
0.05	318.15	0.351	0.0006763	4.09e-05
0.05	318.15	0.4003	0.0006826	4.13e-05
0.1	293.15	0	0.0013568	8.2e-05
0.1	293.15	0.025	0.0013652	8.25e-05
0.1	293.15	0.0499	0.0013751	8.31e-05
0.1	293.15	0.0749	0.0013856	8.38e-05
0.1	293.15	0.1	0.0013963	8.44e-05
0.1	293.15	0.1249	0.001407	8.5e-05
0.1	293.15	0.1502	0.001418	8.57e-05
0.1	293.15	0.1928	0.0014365	8.68e-05
0.1	293.15	0.2499	0.0014615	8.83e-05
0.1	293.15	0.2999	0.0014834	8.97e-05
0.1	293.15	0.3499	0.001506	9.1e-05
0.1	293.15	0.3998	0.0015285	9.24e-05
0.1	298.15	0	0.0011196	6.77e-05
0.1	298.15	0.025	0.001126	6.81e-05
0.1	298.15	0.0499	0.0011337	6.85e-05
0.1	298.15	0.0749	0.0011417	6.9e-05
0.1	298.15	0.1	0.00115	6.95e-05
0.1	298.15	0.1249	0.0011582	7e-05
0.1	298.15	0.1502	0.0011667	7.05e-05
0.1	298.15	0.1928	0.0011813	7.14e-05
0.1	298.15	0.2499	0.0012007	7.26e-05
0.1	298.15	0.2999	0.001218	7.36e-05
0.1	298.15	0.3499	0.001235	7.47e-05
0.1	298.15	0.3998	0.0012522	7.57e-05
0.1	303.15	0	0.0009907	5.99e-05
0.1	303.15	0.025	0.0009959	6.02e-05
0.1	303.15	0.0499	0.0010022	6.06e-05
0.1	303.15	0.0749	0.0010088	6.1e-05
0.1	303.15	0.1	0.0010156	6.14e-05
0.1	303.15	0.1249	0.0010225	6.18e-05
0.1	303.15	0.1502	0.0010295	6.22e-05
0.1	303.15	0.1928	0.0010416	6.3e-05
0.1	303.15	0.2499	0.0010573	6.39e-05
0.1	303.15	0.2999	0.0010719	6.48e-05
0.1	303.15	0.3499	0.001086	6.56e-05
0.1	303.15	0.3998	0.0011003	6.65e-05
0.1	308.15	0	0.0008844	5.35e-05
0.1	308.15	0.025	0.0008886	5.37e-05
0.1	308.15	0.0499	0.0008939	5.4e-05
0.1	308.15	0.0749	0.0008994	5.44e-05
0.1	308.15	0.1	0.0009051	5.47e-05
0.1	308.15	0.1249	0.0009107	5.5e-05
0.1	308.15	0.1502	0.0009167	5.54e-05
0.1	308.15	0.1928	0.0009266	5.6e-05
0.1	308.15	0.2499	0.0009397	5.68e-05
0.1	308.15	0.2999	0.0009514	5.75e-05
0.1	308.15	0.3499	0.0009633	5.82e-05
0.1	308.15	0.3998	0.0009754	5.9e-05
0.1	313.15	0	0.0007901	4.78e-05
0.1	313.15	0.025	0.0007935	4.8e-05
0.1	313.15	0.0499	0.0007979	4.82e-05
0.1	313.15	0.0749	0.0008024	4.85e-05
0.1	313.15	0.1	0.0008071	4.88e-05
0.1	313.15	0.1249	0.0008118	4.91e-05
0.1	313.15	0.1502	0.0008167	4.94e-05
0.1	313.15	0.1928	0.0008248	4.99e-05
0.1	313.15	0.2499	0.0008356	5.05e-05
0.1	313.15	0.2999	0.0008456	5.11e-05
0.1	313.15	0.3499	0.0008553	5.17e-05
0.1	313.15	0.3998	0.0008652	5.23e-05
0.1	318.15	0	0.0007223	4.37e-05
0.1	318.15	0.025	0.0007251	4.38e-05
0.1	318.15	0.0499	0.0007288	4.41e-05
0.1	318.15	0.0749	0.0007326	4.43e-05
0.1	318.15	0.1	0.0007366	4.45e-05
0.1	318.15	0.1249	0.0007405	4.48e-05
0.1	318.15	0.1502	0.0007445	4.5e-05
0.1	318.15	0.1928	0.0007514	4.54e-05
0.1	318.15	0.2499	0.0007605	4.6e-05
0.1	318.15	0.2999	0.0007687	4.65e-05
0.1	318.15	0.3499	0.0007769	4.7e-05
0.1	318.15	0.3998	0.0007852	4.75e-05

System: isonicotinic acid hydrazide + D-sucrose + water; phases: Liquid
Fixed: Pressure, kPa = 101
Property: Mass density, kg/m3 (Liquid); method: Vibrating tube method
Solvent: Mass fraction of D-sucrose	Temperature, K	Molality, mol/kg of isonicotinic acid hydrazide	Mass density, kg/m3	uncertainty
0	293.15	0	998.24	0.31
0	293.15	0.0255	999.11	0.31
0	293.15	0.0494	999.92	0.31
0	293.15	0.0754	1000.8	0.31
0	293.15	0.1	1001.64	0.31
0	293.15	0.1253	1002.5	0.31
0	293.15	0.15	1003.35	0.31
0	293.15	0.2002	1005.07	0.31
0	293.15	0.2492	1006.75	0.31
0	293.15	0.3001	1008.5	0.31
0	293.15	0.3489	1010.18	0.31
0	293.15	0.4003	1011.96	0.31
0	298.15	0	997.07	0.31
0	298.15	0.0255	997.93	0.31
0	298.15	0.0494	998.74	0.31
0	298.15	0.0754	999.61	0.31
0	298.15	0.1	1000.45	0.31
0	298.15	0.1253	1001.3	0.31
0	298.15	0.15	1002.14	0.31
0	298.15	0.2002	1003.84	0.31
0	298.15	0.2492	1005.51	0.31
0	298.15	0.3001	1007.25	0.31
0	298.15	0.3489	1008.91	0.31
0	298.15	0.4003	1010.67	0.31
0	303.15	0	995.68	0.31
0	303.15	0.0255	996.53	0.31
0	303.15	0.0494	997.34	0.31
0	303.15	0.0754	998.21	0.31
0	303.15	0.1	999.03	0.31
0	303.15	0.1253	999.88	0.31
0	303.15	0.15	1000.71	0.31
0	303.15	0.2002	1002.4	0.31
0	303.15	0.2492	1004.05	0.31
0	303.15	0.3001	1005.77	0.31
0	303.15	0.3489	1007.42	0.31
0	303.15	0.4003	1009.16	0.31
0	308.15	0	994.07	0.31
0	308.15	0.0255	994.92	0.31
0	308.15	0.0494	995.72	0.31
0	308.15	0.0754	996.58	0.31
0	308.15	0.1	997.4	0.31
0	308.15	0.1253	998.25	0.31
0	308.15	0.15	999.08	0.31
0	308.15	0.2002	1000.75	0.31
0	308.15	0.2492	1002.39	0.31
0	308.15	0.3001	1004.1	0.31
0	308.15	0.3489	1005.74	0.31
0	308.15	0.4003	1007.46	0.31
0	313.15	0	992.25	0.31
0	313.15	0.0255	993.1	0.31
0	313.15	0.0494	993.89	0.31
0	313.15	0.0754	994.75	0.31
0	313.15	0.1	995.57	0.31
0	313.15	0.1253	996.41	0.31
0	313.15	0.15	997.23	0.31
0	313.15	0.2002	998.9	0.31
0	313.15	0.2492	1000.53	0.31
0	313.15	0.3001	1002.22	0.31
0	313.15	0.3489	1003.84	0.31
0	313.15	0.4003	1005.55	0.31
0	318.15	0	990.24	0.31
0	318.15	0.0255	991.08	0.31
0	318.15	0.0494	991.87	0.31
0	318.15	0.0754	992.73	0.31
0	318.15	0.1	993.54	0.31
0	318.15	0.1253	994.38	0.31
0	318.15	0.15	995.19	0.31
0	318.15	0.2002	996.85	0.31
0	318.15	0.2492	998.46	0.31
0	318.15	0.3001	1000.14	0.31
0	318.15	0.3489	1001.75	0.31
0	318.15	0.4003	1003.44	0.31
0.05	293.15	0	1018.91	0.31
0.05	293.15	0.0249	1019.61	0.31
0.05	293.15	0.0495	1020.31	0.31
0.05	293.15	0.0754	1021.06	0.31
0.05	293.15	0.1038	1021.88	0.31
0.05	293.15	0.1269	1022.56	0.31
0.05	293.15	0.1515	1023.28	0.31
0.05	293.15	0.2015	1024.77	0.31
0.05	293.15	0.2513	1026.27	0.31
0.05	293.15	0.3017	1027.82	0.31
0.05	293.15	0.351	1029.35	0.31
0.05	293.15	0.4003	1030.91	0.31
0.05	298.15	0	1017.19	0.31
0.05	298.15	0.0249	1017.89	0.31
0.05	298.15	0.0495	1018.58	0.31
0.05	298.15	0.0754	1019.31	0.31
0.05	298.15	0.1038	1020.13	0.31
0.05	298.15	0.1269	1020.79	0.31
0.05	298.15	0.1515	1021.51	0.31
0.05	298.15	0.2015	1022.97	0.31
0.05	298.15	0.2513	1024.46	0.31
0.05	298.15	0.3017	1025.98	0.31
0.05	298.15	0.351	1027.48	0.31
0.05	298.15	0.4003	1029.01	0.31
0.05	303.15	0	1015.45	0.31
0.05	303.15	0.0249	1016.14	0.31
0.05	303.15	0.0495	1016.82	0.31
0.05	303.15	0.0754	1017.55	0.31
0.05	303.15	0.1038	1018.35	0.31
0.05	303.15	0.1269	1019	0.31
0.05	303.15	0.1515	1019.71	0.31
0.05	303.15	0.2015	1021.15	0.31
0.05	303.15	0.2513	1022.61	0.31
0.05	303.15	0.3017	1024.11	0.31
0.05	303.15	0.351	1025.6	0.31
0.05	303.15	0.4003	1027.1	0.31
0.05	308.15	0	1013.72	0.31
0.05	308.15	0.0249	1014.4	0.31
0.05	308.15	0.0495	1015.08	0.31
0.05	308.15	0.0754	1015.79	0.31
0.05	308.15	0.1038	1016.58	0.31
0.05	308.15	0.1269	1017.23	0.31
0.05	308.15	0.1515	1017.92	0.31
0.05	308.15	0.2015	1019.35	0.31
0.05	308.15	0.2513	1020.78	0.31
0.05	308.15	0.3017	1022.26	0.31
0.05	308.15	0.351	1023.72	0.31
0.05	308.15	0.4003	1025.2	0.31
0.05	313.15	0	1011.98	0.31
0.05	313.15	0.0249	1012.65	0.31
0.05	313.15	0.0495	1013.32	0.31
0.05	313.15	0.0754	1014.03	0.31
0.05	313.15	0.1038	1014.8	0.31
0.05	313.15	0.1269	1015.44	0.31
0.05	313.15	0.1515	1016.13	0.31
0.05	313.15	0.2015	1017.53	0.31
0.05	313.15	0.2513	1018.95	0.31
0.05	313.15	0.3017	1020.4	0.31
0.05	313.15	0.351	1021.84	0.31
0.05	313.15	0.4003	1023.29	0.31
0.05	318.15	0	1010.23	0.31
0.05	318.15	0.0249	1010.9	0.31
0.05	318.15	0.0495	1011.55	0.31
0.05	318.15	0.0754	1012.25	0.31
0.05	318.15	0.1038	1013.02	0.31
0.05	318.15	0.1269	1013.65	0.31
0.05	318.15	0.1515	1014.32	0.31
0.05	318.15	0.2015	1015.71	0.31
0.05	318.15	0.2513	1017.1	0.31
0.05	318.15	0.3017	1018.53	0.31
0.05	318.15	0.351	1019.94	0.31
0.05	318.15	0.4003	1021.36	0.31
0.1	293.15	0	1039.28	0.31
0.1	293.15	0.0243	1039.87	0.31
0.1	293.15	0.0527	1040.57	0.31
0.1	293.15	0.0756	1041.14	0.31
0.1	293.15	0.1025	1041.82	0.31
0.1	293.15	0.1251	1042.39	0.31
0.1	293.15	0.1499	1043.03	0.31
0.1	293.15	0.2009	1044.37	0.31
0.1	293.15	0.2498	1045.67	0.31
0.1	293.15	0.2993	1047.02	0.31
0.1	293.15	0.3498	1048.43	0.31
0.1	293.15	0.3991	1049.82	0.31
0.1	298.15	0	1037.45	0.31
0.1	298.15	0.0243	1038.04	0.31
0.1	298.15	0.0527	1038.73	0.31
0.1	298.15	0.0756	1039.29	0.31
0.1	298.15	0.1025	1039.96	0.31
0.1	298.15	0.1251	1040.53	0.31
0.1	298.15	0.1499	1041.15	0.31
0.1	298.15	0.2009	1042.46	0.31
0.1	298.15	0.2498	1043.74	0.31
0.1	298.15	0.2993	1045.06	0.31
0.1	298.15	0.3498	1046.43	0.31
0.1	298.15	0.3991	1047.78	0.31
0.1	303.15	0	1035.61	0.31
0.1	303.15	0.0243	1036.19	0.31
0.1	303.15	0.0527	1036.88	0.31
0.1	303.15	0.0756	1037.43	0.31
0.1	303.15	0.1025	1038.09	0.31
0.1	303.15	0.1251	1038.65	0.31
0.1	303.15	0.1499	1039.26	0.31
0.1	303.15	0.2009	1040.55	0.31
0.1	303.15	0.2498	1041.8	0.31
0.1	303.15	0.2993	1043.09	0.31
0.1	303.15	0.3498	1044.42	0.31
0.1	303.15	0.3991	1045.74	0.31
0.1	308.15	0	1033.76	0.31
0.1	308.15	0.0243	1034.34	0.31
0.1	308.15	0.0527	1035.01	0.31
0.1	308.15	0.0756	1035.56	0.31
0.1	308.15	0.1025	1036.21	0.31
0.1	308.15	0.1251	1036.76	0.31
0.1	308.15	0.1499	1037.36	0.31
0.1	308.15	0.2009	1038.63	0.31
0.1	308.15	0.2498	1039.85	0.31
0.1	308.15	0.2993	1041.11	0.31
0.1	308.15	0.3498	1042.41	0.31
0.1	308.15	0.3991	1043.69	0.31
0.1	313.15	0	1031.93	0.31
0.1	313.15	0.0243	1032.5	0.31
0.1	313.15	0.0527	1033.17	0.31
0.1	313.15	0.0756	1033.71	0.31
0.1	313.15	0.1025	1034.35	0.31
0.1	313.15	0.1251	1034.89	0.31
0.1	313.15	0.1499	1035.48	0.31
0.1	313.15	0.2009	1036.72	0.31
0.1	313.15	0.2498	1037.92	0.31
0.1	313.15	0.2993	1039.14	0.31
0.1	313.15	0.3498	1040.41	0.31
0.1	313.15	0.3991	1041.66	0.31
0.1	318.15	0	1030.09	0.31
0.1	318.15	0.0243	1030.66	0.31
0.1	318.15	0.0527	1031.31	0.31
0.1	318.15	0.0756	1031.85	0.31
0.1	318.15	0.1025	1032.48	0.31
0.1	318.15	0.1251	1033.01	0.31
0.1	318.15	0.1499	1033.59	0.31
0.1	318.15	0.2009	1034.81	0.31
0.1	318.15	0.2498	1035.98	0.31
0.1	318.15	0.2993	1037.18	0.31
0.1	318.15	0.3498	1038.41	0.31
0.1	318.15	0.3991	1039.62	0.31

System: isonicotinic acid hydrazide + D-sucrose + water; phases: Liquid
Fixed: Pressure, kPa = 101
Fixed: Frequency, MHz = 3
Property: Speed of sound, m/s (Liquid); method: Single path-length method
Solvent: Mass fraction of D-sucrose	Temperature, K	Molality, mol/kg of isonicotinic acid hydrazide	Speed of sound, m/s	uncertainty
0	293.15	0	1483.6	7
0	293.15	0.0255	1485.3	7
0	293.15	0.0494	1486.9	7
0	293.15	0.0754	1488.6	7
0	293.15	0.1253	1491.8	7
0	293.15	0.15	1493.4	7
0	293.15	0.2002	1496.5	7
0	293.15	0.2492	1499.4	7
0	293.15	0.3001	1502.4	7
0	293.15	0.3489	1505.1	7
0	293.15	0.4003	1507.9	7
0	298.15	0	1496.9	7
0	298.15	0.0255	1498.6	7
0	298.15	0.0494	1500.2	7
0	298.15	0.0754	1501.9	7
0	298.15	0.1253	1505.1	7
0	298.15	0.15	1506.6	7
0	298.15	0.2002	1509.7	7
0	298.15	0.2492	1512.6	7
0	298.15	0.3001	1515.6	7
0	298.15	0.3489	1518.4	7
0	298.15	0.4003	1521.3	7
0	303.15	0	1508.4	7
0	303.15	0.0255	1510.1	7
0	303.15	0.0494	1511.6	7
0	303.15	0.0754	1513.3	7
0	303.15	0.1253	1516.4	7
0	303.15	0.15	1517.9	7
0	303.15	0.2002	1521	7
0	303.15	0.2492	1523.9	7
0	303.15	0.3001	1526.9	7
0	303.15	0.3489	1529.7	7
0	303.15	0.4003	1532.6	7
0	308.15	0	1519.8	7
0	308.15	0.0255	1521.4	7
0	308.15	0.0494	1522.9	7
0	308.15	0.0754	1524.5	7
0	308.15	0.1253	1527.6	7
0	308.15	0.15	1529.1	7
0	308.15	0.2002	1532.2	7
0	308.15	0.2492	1535.1	7
0	308.15	0.3001	1538.1	7
0	308.15	0.3489	1540.9	7
0	308.15	0.4003	1543.8	7
0	313.15	0	1526.8	7
0	313.15	0.0255	1528.4	7
0	313.15	0.0494	1529.8	7
0	313.15	0.0754	1531.4	7
0	313.15	0.1253	1534.4	7
0	313.15	0.15	1535.8	7
0	313.15	0.2002	1538.8	7
0	313.15	0.2492	1541.7	7
0	313.15	0.3001	1544.6	7
0	313.15	0.3489	1547.3	7
0	313.15	0.4003	1550.2	7
0	318.15	0	1533	7
0	318.15	0.0255	1534.5	7
0	318.15	0.0494	1535.9	7
0	318.15	0.0754	1537.4	7
0	318.15	0.1253	1540.3	7
0	318.15	0.15	1541.7	7
0	318.15	0.2002	1544.5	7
0	318.15	0.2492	1547.3	7
0	318.15	0.3001	1550.2	7
0	318.15	0.3489	1552.9	7
0	318.15	0.4003	1555.7	7
0.05	293.15	0	1501.4	7
0.05	293.15	0.0249	1502.7	7
0.05	293.15	0.0495	1503.9	7
0.05	293.15	0.0754	1505.2	7
0.05	293.15	0.1038	1506.5	7
0.05	293.15	0.1269	1507.5	7
0.05	293.15	0.1515	1508.6	7
0.05	293.15	0.2015	1510.6	7
0.05	293.15	0.2513	1512.3	7
0.05	293.15	0.3017	1514	7
0.05	293.15	0.351	1515.3	7
0.05	293.15	0.4003	1516.5	7
0.05	298.15	0	1516.5	7
0.05	298.15	0.0249	1517.8	7
0.05	298.15	0.0495	1519.1	7
0.05	298.15	0.0754	1520.3	7
0.05	298.15	0.1038	1521.6	7
0.05	298.15	0.1269	1522.7	7
0.05	298.15	0.1515	1523.7	7
0.05	298.15	0.2015	1525.7	7
0.05	298.15	0.2513	1527.4	7
0.05	298.15	0.3017	1529	7
0.05	298.15	0.351	1530.4	7
0.05	298.15	0.4003	1531.6	7
0.05	303.15	0	1526.6	7
0.05	303.15	0.0249	1527.9	7
0.05	303.15	0.0495	1529.1	7
0.05	303.15	0.0754	1530.4	7
0.05	303.15	0.1038	1531.7	7
0.05	303.15	0.1269	1532.7	7
0.05	303.15	0.1515	1533.7	7
0.05	303.15	0.2015	1535.7	7
0.05	303.15	0.2513	1537.5	7
0.05	303.15	0.3017	1539.1	7
0.05	303.15	0.351	1540.4	7
0.05	303.15	0.4003	1541.6	7
0.05	308.15	0	1537.7	7
0.05	308.15	0.0249	1539	7
0.05	308.15	0.0495	1540.2	7
0.05	308.15	0.0754	1541.5	7
0.05	308.15	0.1038	1542.8	7
0.05	308.15	0.1269	1543.8	7
0.05	308.15	0.1515	1544.8	7
0.05	308.15	0.2015	1546.8	7
0.05	308.15	0.2513	1548.5	7
0.05	308.15	0.3017	1550.1	7
0.05	308.15	0.351	1551.5	7
0.05	308.15	0.4003	1552.6	7
0.05	313.15	0	1547.7	7
0.05	313.15	0.0249	1549	7
0.05	313.15	0.0495	1550.2	7
0.05	313.15	0.0754	1551.4	7
0.05	313.15	0.1038	1552.7	7
0.05	313.15	0.1269	1553.7	7
0.05	313.15	0.1515	1554.7	7
0.05	313.15	0.2015	1556.6	7
0.05	313.15	0.2513	1558.4	7
0.05	313.15	0.3017	1560	7
0.05	313.15	0.351	1561.4	7
0.05	313.15	0.4003	1562.5	7
0.05	318.15	0	1557.2	7
0.05	318.15	0.0249	1558.5	7
0.05	318.15	0.0495	1559.6	7
0.05	318.15	0.0754	1560.8	7
0.05	318.15	0.1038	1562.1	7
0.05	318.15	0.1269	1563.1	7
0.05	318.15	0.1515	1564.1	7
0.05	318.15	0.2015	1566	7
0.05	318.15	0.2513	1567.7	7
0.05	318.15	0.3017	1569.2	7
0.05	318.15	0.351	1570.6	7
0.05	318.15	0.4003	1571.7	7
0.1	293.15	0	1522.5	7
0.1	293.15	0.0243	1523.5	7
0.1	293.15	0.0527	1524.6	7
0.1	293.15	0.0756	1525.4	7
0.1	293.15	0.1025	1526.4	7
0.1	293.15	0.1251	1527.2	7
0.1	293.15	0.1499	1528	7
0.1	293.15	0.2009	1529.5	7
0.1	293.15	0.2498	1530.8	7
0.1	293.15	0.2993	1532	7
0.1	293.15	0.3498	1533	7
0.1	293.15	0.3991	1533.8	7
0.1	298.15	0	1531.8	7
0.1	298.15	0.0243	1532.8	7
0.1	298.15	0.0527	1533.9	7
0.1	298.15	0.0756	1534.7	7
0.1	298.15	0.1025	1535.7	7
0.1	298.15	0.1251	1536.4	7
0.1	298.15	0.1499	1537.2	7
0.1	298.15	0.2009	1538.7	7
0.1	298.15	0.2498	1540	7
0.1	298.15	0.2993	1541.2	7
0.1	298.15	0.3498	1542.2	7
0.1	298.15	0.3991	1543	7
0.1	303.15	0	1541.8	7
0.1	303.15	0.0243	1542.8	7
0.1	303.15	0.0527	1543.8	7
0.1	303.15	0.0756	1544.7	7
0.1	303.15	0.1025	1545.6	7
0.1	303.15	0.1251	1546.3	7
0.1	303.15	0.1499	1547.1	7
0.1	303.15	0.2009	1548.6	7
0.1	303.15	0.2498	1549.9	7
0.1	303.15	0.2993	1551	7
0.1	303.15	0.3498	1552.1	7
0.1	303.15	0.3991	1552.9	7
0.1	308.15	0	1551.6	7
0.1	308.15	0.0243	1552.5	7
0.1	308.15	0.0527	1553.6	7
0.1	308.15	0.0756	1554.4	7
0.1	308.15	0.1025	1555.3	7
0.1	308.15	0.1251	1556.1	7
0.1	308.15	0.1499	1556.8	7
0.1	308.15	0.2009	1558.3	7
0.1	308.15	0.2498	1559.6	7
0.1	308.15	0.2993	1560.8	7
0.1	308.15	0.3498	1561.8	7
0.1	308.15	0.3991	1562.7	7
0.1	313.15	0	1561.8	7
0.1	313.15	0.0243	1562.7	7
0.1	313.15	0.0527	1563.7	7
0.1	313.15	0.0756	1564.5	7
0.1	313.15	0.1025	1565.4	7
0.1	313.15	0.1251	1566.2	7
0.1	313.15	0.1499	1566.9	7
0.1	313.15	0.2009	1568.4	7
0.1	313.15	0.2498	1569.6	7
0.1	313.15	0.2993	1570.8	7
0.1	313.15	0.3498	1571.9	7
0.1	313.15	0.3991	1572.8	7
0.1	318.15	0	1570.9	7
0.1	318.15	0.0243	1571.8	7
0.1	318.15	0.0527	1572.8	7
0.1	318.15	0.0756	1573.6	7
0.1	318.15	0.1025	1574.4	7
0.1	318.15	0.1251	1575.1	7
0.1	318.15	0.1499	1575.9	7
0.1	318.15	0.2009	1577.3	7
0.1	318.15	0.2498	1578.6	7
0.1	318.15	0.2993	1579.7	7
0.1	318.15	0.3498	1580.7	7
0.1	318.15	0.3991	1581.6	7

System: isonicotinic acid hydrazide + D-sucrose + water; phases: Liquid
Fixed: Pressure, kPa = 101
Property: Viscosity, Pa*s (Liquid); method: Falling or rolling sphere viscometry
Solvent: Mass fraction of D-sucrose	Temperature, K	Molality, mol/kg of isonicotinic acid hydrazide	Viscosity, Pa*s	uncertainty
0	293.15	0	0.0010019	6.06e-05
0	293.15	0.0255	0.0010061	6.08e-05
0	293.15	0.0494	0.0010117	6.12e-05
0	293.15	0.0754	0.0010179	6.15e-05
0	293.15	0.1	0.0010239	6.19e-05
0	293.15	0.1253	0.0010303	6.23e-05
0	293.15	0.15	0.0010366	6.27e-05
0	293.15	0.2002	0.0010492	6.34e-05
0	293.15	0.2492	0.0010618	6.42e-05
0	293.15	0.3001	0.0010753	6.5e-05
0	293.15	0.3489	0.0010883	6.58e-05
0	293.15	0.4003	0.0011015	6.66e-05
0	298.15	0	0.0008903	5.38e-05
0	298.15	0.0255	0.0008937	5.4e-05
0	298.15	0.0494	0.0008984	5.43e-05
0	298.15	0.0754	0.0009036	5.46e-05
0	298.15	0.1	0.0009086	5.49e-05
0	298.15	0.1253	0.0009138	5.52e-05
0	298.15	0.15	0.0009191	5.56e-05
0	298.15	0.2002	0.0009298	5.62e-05
0	298.15	0.2492	0.0009401	5.68e-05
0	298.15	0.3001	0.000951	5.75e-05
0	298.15	0.3489	0.0009616	5.81e-05
0	298.15	0.4003	0.0009729	5.88e-05
0	303.15	0	0.0007973	4.82e-05
0	303.15	0.0255	0.0008001	4.84e-05
0	303.15	0.0494	0.000804	4.86e-05
0	303.15	0.0754	0.0008084	4.89e-05
0	303.15	0.1	0.0008125	4.91e-05
0	303.15	0.1253	0.0008169	4.94e-05
0	303.15	0.15	0.0008213	4.97e-05
0	303.15	0.2002	0.0008301	5.02e-05
0	303.15	0.2492	0.0008389	5.07e-05
0	303.15	0.3001	0.0008482	5.13e-05
0	303.15	0.3489	0.0008571	5.18e-05
0	303.15	0.4003	0.0008661	5.24e-05
0	308.15	0	0.000719	4.35e-05
0	308.15	0.0255	0.0007213	4.36e-05
0	308.15	0.0494	0.0007246	4.38e-05
0	308.15	0.0754	0.0007282	4.4e-05
0	308.15	0.1	0.0007317	4.42e-05
0	308.15	0.1253	0.0007353	4.45e-05
0	308.15	0.15	0.0007389	4.47e-05
0	308.15	0.2002	0.0007463	4.51e-05
0	308.15	0.2492	0.0007537	4.56e-05
0	308.15	0.3001	0.0007612	4.6e-05
0	308.15	0.3489	0.0007687	4.65e-05
0	308.15	0.4003	0.0007765	4.69e-05
0	313.15	0	0.0006526	3.95e-05
0	313.15	0.0255	0.0006545	3.96e-05
0	313.15	0.0494	0.0006572	3.97e-05
0	313.15	0.0754	0.0006602	3.99e-05
0	313.15	0.1	0.0006632	4.01e-05
0	313.15	0.1253	0.0006663	4.03e-05
0	313.15	0.15	0.0006693	4.05e-05
0	313.15	0.2002	0.0006756	4.08e-05
0	313.15	0.2492	0.0006818	4.12e-05
0	313.15	0.3001	0.0006882	4.16e-05
0	313.15	0.3489	0.0006944	4.2e-05
0	313.15	0.4003	0.0007007	4.24e-05
0	318.15	0	0.0005972	3.61e-05
0	318.15	0.0255	0.0005987	3.62e-05
0	318.15	0.0494	0.0006009	3.63e-05
0	318.15	0.0754	0.0006034	3.65e-05
0	318.15	0.1	0.0006058	3.66e-05
0	318.15	0.1253	0.0006084	3.68e-05
0	318.15	0.15	0.000611	3.69e-05
0	318.15	0.2002	0.0006163	3.73e-05
0	318.15	0.2492	0.0006215	3.76e-05
0	318.15	0.3001	0.0006268	3.79e-05
0	318.15	0.3489	0.0006321	3.82e-05
0	318.15	0.4003	0.0006375	3.85e-05
0.05	293.15	0	0.0012137	7.34e-05
0.05	293.15	0.0249	0.0012222	7.39e-05
0.05	293.15	0.0495	0.0012315	7.44e-05
0.05	293.15	0.0754	0.0012414	7.5e-05
0.05	293.15	0.1038	0.0012524	7.57e-05
0.05	293.15	0.1269	0.0012614	7.63e-05
0.05	293.15	0.1515	0.0012712	7.68e-05
0.05	293.15	0.2015	0.0012908	7.8e-05
0.05	293.15	0.2513	0.0013102	7.92e-05
0.05	293.15	0.3017	0.00133	8.04e-05
0.05	293.15	0.351	0.0013494	8.16e-05
0.05	293.15	0.4003	0.0013697	8.28e-05
0.05	298.15	0	0.001011	6.11e-05
0.05	298.15	0.0249	0.0010174	6.15e-05
0.05	298.15	0.0495	0.0010245	6.19e-05
0.05	298.15	0.0754	0.0010322	6.24e-05
0.05	298.15	0.1038	0.0010407	6.29e-05
0.05	298.15	0.1269	0.0010477	6.33e-05
0.05	298.15	0.1515	0.0010548	6.38e-05
0.05	298.15	0.2015	0.0010701	6.47e-05
0.05	298.15	0.2513	0.0010851	6.56e-05
0.05	298.15	0.3017	0.0011003	6.65e-05
0.05	298.15	0.351	0.0011152	6.74e-05
0.05	298.15	0.4003	0.0011305	6.83e-05
0.05	303.15	0	0.0009129	5.52e-05
0.05	303.15	0.0249	0.0009181	5.55e-05
0.05	303.15	0.0495	0.0009241	5.59e-05
0.05	303.15	0.0754	0.0009306	5.63e-05
0.05	303.15	0.1038	0.0009377	5.67e-05
0.05	303.15	0.1269	0.0009435	5.7e-05
0.05	303.15	0.1515	0.0009497	5.74e-05
0.05	303.15	0.2015	0.0009624	5.82e-05
0.05	303.15	0.2513	0.0009749	5.89e-05
0.05	303.15	0.3017	0.0009878	5.97e-05
0.05	303.15	0.351	0.0009997	6.04e-05
0.05	303.15	0.4003	0.0010118	6.12e-05
0.05	308.15	0	0.0008285	5.01e-05
0.05	308.15	0.0249	0.0008326	5.03e-05
0.05	308.15	0.0495	0.0008376	5.06e-05
0.05	308.15	0.0754	0.0008429	5.1e-05
0.05	308.15	0.1038	0.0008489	5.13e-05
0.05	308.15	0.1269	0.0008536	5.16e-05
0.05	308.15	0.1515	0.0008587	5.19e-05
0.05	308.15	0.2015	0.0008692	5.25e-05
0.05	308.15	0.2513	0.0008797	5.32e-05
0.05	308.15	0.3017	0.0008902	5.38e-05
0.05	308.15	0.351	0.0009003	5.44e-05
0.05	308.15	0.4003	0.0009105	5.5e-05
0.05	313.15	0	0.0007457	4.51e-05
0.05	313.15	0.0249	0.0007489	4.53e-05
0.05	313.15	0.0495	0.0007529	4.55e-05
0.05	313.15	0.0754	0.0007573	4.58e-05
0.05	313.15	0.1038	0.0007621	4.61e-05
0.05	313.15	0.1269	0.000766	4.63e-05
0.05	313.15	0.1515	0.0007702	4.66e-05
0.05	313.15	0.2015	0.0007788	4.71e-05
0.05	313.15	0.2513	0.0007874	4.76e-05
0.05	313.15	0.3017	0.000796	4.81e-05
0.05	313.15	0.351	0.0008042	4.86e-05
0.05	313.15	0.4003	0.0008129	4.91e-05
0.05	318.15	0	0.0006946	4.2e-05
0.05	318.15	0.0249	0.0006971	4.21e-05
0.05	318.15	0.0495	0.0007005	4.23e-05
0.05	318.15	0.0754	0.0007041	4.26e-05
0.05	318.15	0.1038	0.000708	4.28e-05
0.05	318.15	0.1269	0.0007114	4.3e-05
0.05	318.15	0.1515	0.0007148	4.32e-05
0.05	318.15	0.2015	0.0007222	4.37e-05
0.05	318.15	0.2513	0.0007293	4.41e-05
0.05	318.15	0.3017	0.0007366	4.45e-05
0.05	318.15	0.351	0.0007437	4.5e-05
0.05	318.15	0.4003	0.0007506	4.54e-05
0.1	293.15	0	0.0013765	8.32e-05
0.1	293.15	0.0243	0.0013876	8.39e-05
0.1	293.15	0.0527	0.0014016	8.47e-05
0.1	293.15	0.0756	0.001413	8.54e-05
0.1	293.15	0.1025	0.0014263	8.62e-05
0.1	293.15	0.1251	0.0014375	8.69e-05
0.1	293.15	0.1499	0.0014496	8.76e-05
0.1	293.15	0.2009	0.0014755	8.92e-05
0.1	293.15	0.2498	0.0014994	9.06e-05
0.1	293.15	0.2993	0.0015246	9.22e-05
0.1	293.15	0.3498	0.00155	9.37e-05
0.1	293.15	0.3991	0.0015754	9.52e-05
0.1	298.15	0	0.0011832	7.15e-05
0.1	298.15	0.0243	0.0011919	7.21e-05
0.1	298.15	0.0527	0.001203	7.27e-05
0.1	298.15	0.0756	0.001212	7.33e-05
0.1	298.15	0.1025	0.0012226	7.39e-05
0.1	298.15	0.1251	0.0012319	7.45e-05
0.1	298.15	0.1499	0.0012418	7.51e-05
0.1	298.15	0.2009	0.0012623	7.63e-05
0.1	298.15	0.2498	0.0012821	7.75e-05
0.1	298.15	0.2993	0.001302	7.87e-05
0.1	298.15	0.3498	0.0013222	7.99e-05
0.1	298.15	0.3991	0.0013415	8.11e-05
0.1	303.15	0	0.0010606	6.41e-05
0.1	303.15	0.0243	0.0010676	6.45e-05
0.1	303.15	0.0527	0.0010769	6.51e-05
0.1	303.15	0.0756	0.0010842	6.55e-05
0.1	303.15	0.1025	0.0010932	6.61e-05
0.1	303.15	0.1251	0.0011006	6.65e-05
0.1	303.15	0.1499	0.0011086	6.7e-05
0.1	303.15	0.2009	0.0011255	6.8e-05
0.1	303.15	0.2498	0.001142	6.9e-05
0.1	303.15	0.2993	0.0011586	7e-05
0.1	303.15	0.3498	0.0011752	7.1e-05
0.1	303.15	0.3991	0.0011911	7.2e-05
0.1	308.15	0	0.0009614	5.81e-05
0.1	308.15	0.0243	0.000967	5.85e-05
0.1	308.15	0.0527	0.0009746	5.89e-05
0.1	308.15	0.0756	0.0009807	5.93e-05
0.1	308.15	0.1025	0.0009881	5.97e-05
0.1	308.15	0.1251	0.0009942	6.01e-05
0.1	308.15	0.1499	0.001001	6.05e-05
0.1	308.15	0.2009	0.0010152	6.14e-05
0.1	308.15	0.2498	0.0010286	6.22e-05
0.1	308.15	0.2993	0.0010421	6.3e-05
0.1	308.15	0.3498	0.001056	6.38e-05
0.1	308.15	0.3991	0.0010693	6.46e-05
0.1	313.15	0	0.0008804	5.32e-05
0.1	313.15	0.0243	0.0008849	5.35e-05
0.1	313.15	0.0527	0.0008911	5.39e-05
0.1	313.15	0.0756	0.0008964	5.42e-05
0.1	313.15	0.1025	0.0009025	5.46e-05
0.1	313.15	0.1251	0.0009076	5.49e-05
0.1	313.15	0.1499	0.0009132	5.52e-05
0.1	313.15	0.2009	0.0009248	5.59e-05
0.1	313.15	0.2498	0.0009362	5.66e-05
0.1	313.15	0.2993	0.0009477	5.73e-05
0.1	313.15	0.3498	0.000959	5.8e-05
0.1	313.15	0.3991	0.00097	5.86e-05
0.1	318.15	0	0.0008179	4.94e-05
0.1	318.15	0.0243	0.0008216	4.97e-05
0.1	318.15	0.0527	0.0008267	5e-05
0.1	318.15	0.0756	0.0008309	5.02e-05
0.1	318.15	0.1025	0.000836	5.05e-05
0.1	318.15	0.1251	0.0008402	5.08e-05
0.1	318.15	0.1499	0.0008448	5.11e-05
0.1	318.15	0.2009	0.0008545	5.17e-05
0.1	318.15	0.2498	0.0008642	5.22e-05
0.1	318.15	0.2993	0.0008738	5.28e-05
0.1	318.15	0.3498	0.0008837	5.34e-05
0.1	318.15	0.3991	0.0008933	5.4e-05

System: isonicotinic acid hydrazide + water; phases: Liquid
Fixed: Pressure, kPa = 101
Property: Mass density, kg/m3 (Liquid); method: Vibrating tube method
Temperature, K	Molality, mol/kg of isonicotinic acid hydrazide	Mass density, kg/m3	uncertainty
293.15	0.0255	999.11	0.3
293.15	0.0494	999.92	0.3
293.15	0.0754	1000.8	0.3
293.15	0.1	1001.64	0.3
293.15	0.1253	1002.5	0.3
293.15	0.15	1003.35	0.31
293.15	0.2002	1005.07	0.31
293.15	0.2492	1006.75	0.31
293.15	0.3001	1008.5	0.31
293.15	0.3489	1010.18	0.31
293.15	0.4003	1011.96	0.31
298.15	0.0255	997.93	0.3
298.15	0.0494	998.74	0.3
298.15	0.0754	999.61	0.3
298.15	0.1	1000.45	0.3
298.15	0.1253	1001.3	0.3
298.15	0.15	1002.14	0.3
298.15	0.2002	1003.84	0.31
298.15	0.2492	1005.51	0.31
298.15	0.3001	1007.25	0.31
298.15	0.3489	1008.91	0.31
298.15	0.4003	1010.67	0.31
303.15	0.0255	996.53	0.3
303.15	0.0494	997.34	0.3
303.15	0.0754	998.21	0.3
303.15	0.1	999.03	0.3
303.15	0.1253	999.88	0.3
303.15	0.15	1000.71	0.3
303.15	0.2002	1002.4	0.3
303.15	0.2492	1004.05	0.31
303.15	0.3001	1005.77	0.31
303.15	0.3489	1007.42	0.31
303.15	0.4003	1009.16	0.31
308.15	0.0255	994.92	0.31
308.15	0.0494	995.72	0.31
308.15	0.0754	996.58	0.3
308.15	0.1	997.4	0.3
308.15	0.1253	998.25	0.3
308.15	0.15	999.08	0.3
308.15	0.2002	1000.75	0.3
308.15	0.2492	1002.39	0.3
308.15	0.3001	1004.1	0.31
308.15	0.3489	1005.74	0.31
308.15	0.4003	1007.46	0.31
313.15	0.0255	993.1	0.31
313.15	0.0494	993.89	0.31
313.15	0.0754	994.75	0.31
313.15	0.1	995.57	0.31
313.15	0.1253	996.41	0.31
313.15	0.15	997.23	0.3
313.15	0.2002	998.9	0.3
313.15	0.2492	1000.53	0.3
313.15	0.3001	1002.22	0.3
313.15	0.3489	1003.84	0.31
313.15	0.4003	1005.55	0.31
318.15	0.0255	991.08	0.31
318.15	0.0494	991.87	0.31
318.15	0.0754	992.73	0.31
318.15	0.1	993.54	0.31
318.15	0.1253	994.38	0.31
318.15	0.15	995.19	0.31
318.15	0.2002	996.85	0.3
318.15	0.2492	998.46	0.3
318.15	0.3001	1000.14	0.3
318.15	0.3489	1001.75	0.3
318.15	0.4003	1003.44	0.31
293.15	0	998.24	0.3
298.15	0	997.07	0.3
303.15	0	995.68	0.31
308.15	0	994.07	0.31
313.15	0	992.25	0.31
318.15	0	990.24	0.31

System: isonicotinic acid hydrazide + water; phases: Liquid
Fixed: Pressure, kPa = 101
Fixed: Frequency, MHz = 3
Property: Speed of sound, m/s (Liquid); method: Single path-length method
Temperature, K	Molality, mol/kg of isonicotinic acid hydrazide	Speed of sound, m/s	uncertainty
293.15	0.0255	1485.3	7
293.15	0.0494	1486.9	7
293.15	0.0754	1488.6	7
293.15	0.1253	1491.8	7
293.15	0.15	1493.4	7
293.15	0.2002	1496.5	7
293.15	0.2492	1499.4	7
293.15	0.3001	1502.4	7
293.15	0.3489	1505.1	7
293.15	0.4003	1507.9	7
298.15	0.0255	1498.6	7
298.15	0.0494	1500.2	7
298.15	0.0754	1501.9	7
298.15	0.1253	1505.1	7
298.15	0.15	1506.6	7
298.15	0.2002	1509.7	7
298.15	0.2492	1512.6	7
298.15	0.3001	1515.6	7
298.15	0.3489	1518.4	7
298.15	0.4003	1521.3	7
303.15	0.0255	1510.1	7
303.15	0.0494	1511.6	7
303.15	0.0754	1513.3	7
303.15	0.1253	1516.4	7
303.15	0.15	1517.9	7
303.15	0.2002	1521	7
303.15	0.2492	1523.9	7
303.15	0.3001	1526.9	7
303.15	0.3489	1529.7	7
303.15	0.4003	1532.6	7
308.15	0.0255	1521.4	7
308.15	0.0494	1522.9	7
308.15	0.0754	1524.5	7
308.15	0.1253	1527.6	7
308.15	0.15	1529.1	7
308.15	0.2002	1532.2	7
308.15	0.2492	1535.1	7
308.15	0.3001	1538.1	7
308.15	0.3489	1540.9	7
308.15	0.4003	1543.8	7
313.15	0.0255	1528.4	7
313.15	0.0494	1529.8	7
313.15	0.0754	1531.4	7
313.15	0.1253	1534.4	7
313.15	0.15	1535.8	7
313.15	0.2002	1538.8	7
313.15	0.2492	1541.7	7
313.15	0.3001	1544.6	7
313.15	0.3489	1547.3	7
313.15	0.4003	1550.2	7
318.15	0.0255	1534.5	7
318.15	0.0494	1535.9	7
318.15	0.0754	1537.4	7
318.15	0.1253	1540.3	7
318.15	0.15	1541.7	7
318.15	0.2002	1544.5	7
318.15	0.2492	1547.3	7
318.15	0.3001	1550.2	7
318.15	0.3489	1552.9	7
318.15	0.4003	1555.7	7
293.15	0	1483.6	7
298.15	0	1496.9	7
303.15	0	1508.4	7
308.15	0	1519.8	7
313.15	0	1526.8	7
318.15	0	1533	7

System: isonicotinic acid hydrazide + water; phases: Liquid
Fixed: Pressure, kPa = 101
Property: Viscosity, Pa*s (Liquid); method: Falling or rolling sphere viscometry
Temperature, K	Molality, mol/kg of isonicotinic acid hydrazide	Viscosity, Pa*s	uncertainty
293.15	0.0255	0.0010061	6.08e-05
293.15	0.0494	0.0010117	6.12e-05
293.15	0.0754	0.0010179	6.15e-05
293.15	0.1	0.0010239	6.19e-05
293.15	0.1253	0.0010303	6.23e-05
293.15	0.15	0.0010366	6.27e-05
293.15	0.2002	0.0010492	6.34e-05
293.15	0.2492	0.0010618	6.42e-05
293.15	0.3001	0.0010753	6.5e-05
293.15	0.3489	0.0010883	6.58e-05
293.15	0.4003	0.0011015	6.66e-05
298.15	0.0255	0.0008937	5.4e-05
298.15	0.0494	0.0008984	5.43e-05
298.15	0.0754	0.0009036	5.46e-05
298.15	0.1	0.0009086	5.49e-05
298.15	0.1253	0.0009138	5.52e-05
298.15	0.15	0.0009191	5.56e-05
298.15	0.2002	0.0009298	5.62e-05
298.15	0.2492	0.0009401	5.68e-05
298.15	0.3001	0.000951	5.75e-05
298.15	0.3489	0.0009616	5.81e-05
298.15	0.4003	0.0009729	5.88e-05
303.15	0.0255	0.0008001	4.84e-05
303.15	0.0494	0.000804	4.86e-05
303.15	0.0754	0.0008084	4.89e-05
303.15	0.1	0.0008125	4.91e-05
303.15	0.1253	0.0008169	4.94e-05
303.15	0.15	0.0008213	4.96e-05
303.15	0.2002	0.0008301	5.02e-05
303.15	0.2492	0.0008389	5.07e-05
303.15	0.3001	0.0008482	5.13e-05
303.15	0.3489	0.0008571	5.18e-05
303.15	0.4003	0.0008661	5.24e-05
308.15	0.0255	0.0007213	4.36e-05
308.15	0.0494	0.0007246	4.38e-05
308.15	0.0754	0.0007282	4.4e-05
308.15	0.1	0.0007317	4.42e-05
308.15	0.1253	0.0007353	4.44e-05
308.15	0.15	0.0007389	4.47e-05
308.15	0.2002	0.0007463	4.51e-05
308.15	0.2492	0.0007537	4.56e-05
308.15	0.3001	0.0007612	4.6e-05
308.15	0.3489	0.0007687	4.65e-05
308.15	0.4003	0.0007765	4.69e-05
313.15	0.0255	0.0006545	3.96e-05
313.15	0.0494	0.0006572	3.97e-05
313.15	0.0754	0.0006602	3.99e-05
313.15	0.1	0.0006632	4.01e-05
313.15	0.1253	0.0006663	4.03e-05
313.15	0.15	0.0006693	4.05e-05
313.15	0.2002	0.0006756	4.08e-05
313.15	0.2492	0.0006818	4.12e-05
313.15	0.3001	0.0006882	4.16e-05
313.15	0.3489	0.0006944	4.2e-05
313.15	0.4003	0.0007007	4.24e-05
318.15	0.0255	0.0005987	3.62e-05
318.15	0.0494	0.0006009	3.63e-05
318.15	0.0754	0.0006034	3.65e-05
318.15	0.1	0.0006058	3.66e-05
318.15	0.1253	0.0006084	3.68e-05
318.15	0.15	0.000611	3.69e-05
318.15	0.2002	0.0006163	3.73e-05
318.15	0.2492	0.0006215	3.76e-05
318.15	0.3001	0.0006268	3.79e-05
318.15	0.3489	0.0006321	3.82e-05
318.15	0.4003	0.0006375	3.85e-05
293.15	0	0.0010019	6.06e-05
298.15	0	0.0008903	5.38e-05
303.15	0	0.0007973	4.82e-05
308.15	0	0.000719	4.35e-05
313.15	0	0.0006526	3.95e-05
318.15	0	0.0005972	3.61e-05
