Measured thermophysical data. Solubility of proline-leucine dipeptide in water and in aqueous sodium chloride solutions from T = (288.15 to 313.15) K
Source: J. Chem. Thermodyn., 2006, 10.1016/j.jct.2005.05.009
Compound 1: proline-leucine, C11H20N2O3, InChI=1S/C11H20N2O3/c1-7(2)6-9(11(15)16)13-10(14)8-4-3-5-12-8/h7-9,12H,3-6H2,1-2H3,(H,13,14)(H,15,16)/t8-,9-/m0/s1, purity 99%
Compound 2: sodium chloride, ClNa, InChI=1S/ClH.Na/h1H;/q;+1/p-1, purity 99.5%
Compound 3: water, H2O, InChI=1S/H2O/h1H2

System: sodium chloride + water + proline-leucine; phases: Liquid, Crystal
Fixed: Pressure, kPa = 1013
Property: Molality, mol/kg of proline-leucine (Liquid); method: interpolation on a calibration surface - density versus molality of NaCl and molality of Proline-Leucine
Solvent: Molality, mol/kg of sodium chloride	Temperature, K	Molality, mol/kg of proline-leucine	uncertainty
0	288.15	0.0122	0.0002
0	298.15	0.0127	0.0002
0	308.15	0.0137	0.0002
0	313.15	0.014	0.0002
0.1004	288.15	0.0123	0.0002
0.1004	313.15	0.0147	0.0002
0.1006	298.15	0.0129	0.0002
0.1007	308.15	0.0139	0.0002
0.2523	298.15	0.0132	0.0002
0.2523	313.15	0.0155	0.0002
0.2525	308.15	0.0146	0.0002
0.2526	288.15	0.0124	0.0002
0.5063	288.15	0.0127	0.0002
0.5063	313.15	0.0162	0.0002
0.5067	298.15	0.0134	0.0002
0.507	308.15	0.0148	0.0002
0.7645	298.15	0.0133	0.0002
0.7646	288.15	0.0126	0.0002
0.7651	308.15	0.0148	0.0002
0.7654	313.15	0.0162	0.0002
1.0219	298.15	0.0129	0.0002
1.0228	308.15	0.0143	0.0002
1.0234	313.15	0.0158	0.0002
1.0239	288.15	0.0122	0.0002

System: sodium chloride + water + proline-leucine; phases: Liquid, Crystal
Fixed: Pressure, kPa = 101
Property: Mass density, kg/m3 (Liquid); method: VIBTUB:UFactor:4
Solvent: Molality, mol/kg of sodium chloride	Temperature, K	Mass density, kg/m3	uncertainty
0	288.15	990.77	0.3
0	298.15	990.79	0.3
0	308.15	990.84	0.3
0	313.15	990.85	0.3
0.1004	288.15	994.8	0.3
0.1004	313.15	994.9	0.3
0.1006	298.15	994.83	0.3
0.1007	308.15	994.88	0.3
0.2523	298.15	1000.8	0.3
0.2523	313.15	1000.88	0.3
0.2525	308.15	1000.86	0.3
0.2526	288.15	1000.78	0.3
0.5063	288.15	1010.51	0.31
0.5063	313.15	1010.63	0.31
0.5067	298.15	1010.55	0.31
0.507	308.15	1010.61	0.31
0.7645	298.15	1020.19	0.31
0.7646	288.15	1020.16	0.31
0.7651	308.15	1020.28	0.31
0.7654	313.15	1020.35	0.31
1.0218	298.15	1029.63	0.32
1.0228	308.15	1029.74	0.32
1.0234	313.15	1029.85	0.32
1.0239	288.15	1029.67	0.32
