Measured thermophysical data. Thermochemical study of some chloro and bromo alkyl substituted phthalimides: Structural energetic correlations
Source: J. Chem. Thermodyn., 2007, 10.1016/j.jct.2007.03.009
Compound 1: hydrogen bromide, BrH, InChI=1S/BrH/h1H
Compound 2: carbon dioxide, CO2, InChI=1S/CO2/c2-1-3
Compound 3: nitrogen, N2, InChI=1S/N2/c1-2
Compound 4: water, H2O, InChI=1S/H2O/h1H2
Compound 5: oxygen, O2, InChI=1S/O2/c1-2
Compound 6: hydrogen chloride, ClH, InChI=1S/ClH/h1H
Compound 7: N-(chloromethyl)phthalimide, C9H6ClNO2, InChI=1S/C9H6ClNO2/c10-5-11-8(12)6-3-1-2-4-7(6)9(11)13/h1-4H,5H2, purity 98%
Compound 8: N-(2-bromoethyl)phthalimide, C10H8BrNO2, InChI=1S/C10H8BrNO2/c11-5-6-12-9(13)7-3-1-2-4-8(7)10(12)14/h1-4H,5-6H2, purity 98%
Compound 9: N-(3-bromopropyl)phthalimide, C11H10BrNO2, InChI=1S/C11H10BrNO2/c12-6-3-7-13-10(14)8-4-1-2-5-9(8)11(13)15/h1-2,4-5H,3,6-7H2, purity 98%
Compound 10: N-(2-chloroethyl)phthalimide, C10H8ClNO2, InChI=1S/C10H8ClNO2/c11-5-6-12-9(13)7-3-1-2-4-8(7)10(12)14/h1-4H,5-6H2, purity 98%

System: N-(chloromethyl)phthalimide; phases: Crystal, Liquid, Air at 1 atmosphere
Property: Normal melting temperature, K (Crystal); method: DTA
Normal melting temperature, K	uncertainty
406.6	0.5

System: N-(chloromethyl)phthalimide; phases: Liquid
Property: Mass density, kg/m3 (Liquid); method: masses and of the volumes of pellets.
Temperature, K	Pressure, kPa	Mass density, kg/m3	uncertainty
298	101.325	1081	22

System: N-(chloromethyl)phthalimide; phases: Crystal, Gas
Property: Vapor or sublimation pressure, kPa (Crystal); method: KNUDSEN:flow
Temperature, K	Vapor or sublimation pressure, kPa	uncertainty
323.27	0.000111	2e-05
323.27	0.000111	2e-05
323.27	0.000106	2e-05
325.24	0.000138	2.1e-05
325.24	0.000137	2.1e-05
325.24	0.000132	2.1e-05
327.12	0.000171	2.1e-05
327.12	0.000168	2.1e-05
327.12	0.000169	2.1e-05
329.26	0.00022	2.1e-05
329.26	0.000218	2.1e-05
329.26	0.000207	2.1e-05
331.23	0.000282	2.2e-05
331.23	0.00027	2.2e-05
331.23	0.000262	2.2e-05
333.11	0.00033	2.3e-05
333.11	0.000328	2.3e-05
333.11	0.000329	2.3e-05
335.12	0.00042	2.5e-05
335.12	0.000413	2.5e-05
335.12	0.000402	2.5e-05
337.26	0.000534	2.8e-05
337.26	0.000519	2.7e-05
337.26	0.000507	2.7e-05
339.12	0.000648	3e-05
339.12	0.000644	3e-05
339.12	0.000618	3e-05
341.22	0.000835	3.6e-05
341.22	0.000801	3.5e-05
341.22	0.00077	3.4e-05
343.25	0.001007	4.1e-05
343.25	0.000989	4e-05
343.25	0.000946	3.9e-05

System: N-(chloromethyl)phthalimide; phases: Gas
Property: Molar enthalpy, kJ/mol (Gas); method: Sublimation drop calorimetry
Temperature, K	Pressure, kPa	Molar enthalpy, kJ/mol	uncertainty
416.5	101.3	125.42	2.2

System: N-(2-bromoethyl)phthalimide; phases: Crystal, Liquid, Air at 1 atmosphere
Property: Normal melting temperature, K (Crystal); method: DTA
Normal melting temperature, K	uncertainty
354.6	0.5

System: N-(2-bromoethyl)phthalimide; phases: Liquid
Property: Mass density, kg/m3 (Liquid); method: masses and of the volumes of pellets.
Temperature, K	Pressure, kPa	Mass density, kg/m3	uncertainty
298	101.325	1323	26

System: N-(2-bromoethyl)phthalimide; phases: Gas
Property: Molar enthalpy, kJ/mol (Gas); method: Sublimation drop calorimetry
Temperature, K	Pressure, kPa	Molar enthalpy, kJ/mol	uncertainty
406.3	101.3	131.18	2.06

System: N-(3-bromopropyl)phthalimide; phases: Crystal, Liquid, Air at 1 atmosphere
Property: Normal melting temperature, K (Crystal); method: DTA
Normal melting temperature, K	uncertainty
345.9	0.5

System: N-(3-bromopropyl)phthalimide; phases: Liquid
Property: Mass density, kg/m3 (Liquid); method: masses and of the volumes of pellets.
Temperature, K	Pressure, kPa	Mass density, kg/m3	uncertainty
298	101.325	1051	21

System: N-(3-bromopropyl)phthalimide; phases: Gas
Property: Molar enthalpy, kJ/mol (Gas); method: Sublimation drop calorimetry
Temperature, K	Pressure, kPa	Molar enthalpy, kJ/mol	uncertainty
406.3	101.3	141.28	1.96

System: N-(2-chloroethyl)phthalimide; phases: Crystal, Liquid, Air at 1 atmosphere
Property: Normal melting temperature, K (Crystal); method: DTA
Normal melting temperature, K	uncertainty
355.9	0.5

System: N-(2-chloroethyl)phthalimide; phases: Liquid
Property: Mass density, kg/m3 (Liquid); method: masses and of the volumes of pellets.
Temperature, K	Pressure, kPa	Mass density, kg/m3	uncertainty
298	101.325	1218	24

System: N-(2-chloroethyl)phthalimide; phases: Gas
Property: Molar enthalpy, kJ/mol (Gas); method: Sublimation drop calorimetry
Temperature, K	Pressure, kPa	Molar enthalpy, kJ/mol	uncertainty
391	101.3	117.25	9

Reaction: -1 N-(2-bromoethyl)phthalimide + 1 hydrogen bromide + 10 carbon dioxide + .5 nitrogen + 3.5 water + -10.75 oxygen
Property: Specific internal energy of reaction at constant volume, J/g
-18501.6

Reaction: -1 N-(3-bromopropyl)phthalimide + 1 hydrogen bromide + 11 carbon dioxide + .5 nitrogen + 4.5 water + -12.25 oxygen
Property: Specific internal energy of reaction at constant volume, J/g
-19965.8

Reaction: 1 hydrogen chloride + -1 N-(chloromethyl)phthalimide + 9 carbon dioxide + .5 nitrogen + 2.5 water + -9.25 oxygen
Property: Specific internal energy of reaction at constant volume, J/g
-20720.1

Reaction: -1 N-(2-chloroethyl)phthalimide + 1 hydrogen chloride + 10 carbon dioxide + .5 nitrogen + 3.5 water + -10.75 oxygen
Property: Specific internal energy of reaction at constant volume, J/g
-22479.3
