Measured thermophysical data. Development of a thermodynamic model for the Li2CO3-NaCl-Na2SO4-H2O system and its application
Source: J. Chem. Thermodyn., 2018, 10.1016/j.jct.2018.03.027
Compound 1: lithium carbonate, CLi2O3, InChI=1S/CH2O3.2Li/c2-1(3)4;;/h(H2,2,3,4);;/q;2*+1/p-2, purity 99.9%
Compound 2: sodium sulfate, Na2O4S, InChI=1S/2Na.H2O4S/c;;1-5(2,3)4/h;;(H2,1,2,3,4)/q2*+1;/p-2, purity 99.5%
Compound 3: sodium chloride, ClNa, InChI=1S/ClH.Na/h1H;/q;+1/p-1, purity 99%
Compound 4: water, H2O, InChI=1S/H2O/h1H2, purity 99.9%

System: lithium carbonate + water; phases: Liquid, Crystal
Fixed: Pressure, kPa = 100
Property: Molality, mol/kg of lithium carbonate (Liquid); method: atomic emission spectroscopy ICP-AES and ion chromatography ICS-3000
Temperature, K	Molality, mol/kg of lithium carbonate	uncertainty
283.15	0.1933	0.0077
298.15	0.1738	0.007
303.15	0.1676	0.0067
313.15	0.1558	0.0062
323.15	0.1454	0.0058
333.15	0.1352	0.0054
343.15	0.1251	0.005
353.15	0.1149	0.0046
363.15	0.106	0.0042
368.15	0.1015	0.0041

System: lithium carbonate + water; phases: Liquid
Fixed: Pressure, kPa = 100
Property: Mass density, kg/m3 (Liquid); method: Pycnometric method
Temperature, K	Molality, mol/kg of lithium carbonate	Mass density, kg/m3	uncertainty
283.15	0.1933	1007.2	4
298.15	0.1738	1003.8	4
303.15	0.1676	1002.2	4
313.15	0.1558	998.3	4
323.15	0.1454	993.7	4
333.15	0.1352	988.5	4
343.15	0.1251	982.6	4
353.15	0.1149	976.2	4
363.15	0.106	969.4	4
368.15	0.1015	965.2	4

System: lithium carbonate + sodium chloride + water; phases: Liquid, Crystal
Fixed: Pressure, kPa = 100
Property: Molality, mol/kg of lithium carbonate (Liquid); method: atomic emission spectroscopy ICP-AES and ion chromatography ICS-3000
Temperature, K	Molality, mol/kg of sodium chloride	Molality, mol/kg of lithium carbonate	uncertainty
298.15	0	0.1738	0.007
298.15	0.5047	0.1969	0.0079
298.15	0.7095	0.2026	0.0081
298.15	1.0212	0.203	0.0081
298.15	1.5492	0.2009	0.0081
298.15	2.0918	0.1951	0.0079
298.15	3.207	0.1795	0.0075
298.15	4.3729	0.1595	0.0072
298.15	5.5908	0.1334	0.0071
298.15	6.1092	0.1233	0.0062
313.15	0	0.1558	0.0062
313.15	0.5056	0.1722	0.0069
313.15	0.7109	0.1761	0.0071
313.15	1.0222	0.1795	0.0072
313.15	1.5503	0.1786	0.0072
313.15	2.0898	0.1746	0.0071
313.15	3.2058	0.1612	0.0067
313.15	4.3738	0.1438	0.0064
313.15	5.5972	0.1221	0.0064
313.15	6.179	0.1099	0.0055
323.15	0	0.1454	0.0058
323.15	0.5065	0.162	0.0065
323.15	0.7123	0.1668	0.0067
323.15	1.0236	0.1699	0.0068
323.15	1.5517	0.1677	0.0067
323.15	2.0913	0.164	0.0066
323.15	3.2073	0.1512	0.0063
323.15	4.3756	0.1337	0.0061
323.15	5.5985	0.1126	0.006
323.15	6.229	0.1003	0.005
343.15	0	0.1251	0.005
343.15	0.5038	0.1419	0.0057
343.15	0.7107	0.1464	0.0059
343.15	1.0216	0.1497	0.006
343.15	1.5496	0.1495	0.006
343.15	2.0894	0.1463	0.0059
343.15	3.2049	0.1355	0.0056
343.15	4.373	0.1208	0.0053
343.15	5.5963	0.105	0.0051
343.15	6.3085	0.0957	0.0048
363.15	0	0.106	0.0042
363.15	0.5063	0.1209	0.0049
363.15	0.7117	0.1248	0.005
363.15	1.0229	0.1296	0.0052
363.15	1.551	0.1339	0.0054
363.15	2.0906	0.1327	0.0053
363.15	3.2065	0.1252	0.0051
363.15	4.3747	0.1149	0.0049
363.15	5.5981	0.1027	0.0047
363.15	6.4827	0.0935	0.0047

System: lithium carbonate + sodium chloride + water; phases: Liquid
Fixed: Pressure, kPa = 100
Property: Mass density, kg/m3 (Liquid); method: Pycnometric method
Temperature, K	Molality, mol/kg of sodium chloride	Molality, mol/kg of lithium carbonate	Mass density, kg/m3	uncertainty
298.15	0	0.1738	1003.8	4
298.15	0.5047	0.1969	1032.5	4
298.15	0.7095	0.2026	1040.3	4
298.15	1.0212	0.203	1051.4	4
298.15	1.5492	0.2009	1069.7	4.1
298.15	2.0918	0.1951	1087.7	4.1
298.15	3.207	0.1795	1123.5	4.3
298.15	4.3729	0.1595	1159.1	4.5
298.15	5.5908	0.1334	1194.3	4.8
298.15	6.1092	0.1233	1207.2	4.1
313.15	0	0.1558	998.3	4
313.15	0.5056	0.1722	1025.4	4
313.15	0.7109	0.1761	1032.9	4
313.15	1.0222	0.1795	1044	4
313.15	1.5503	0.1786	1062	4.1
313.15	2.0898	0.1746	1079.7	4.1
313.15	3.2058	0.1612	1114.9	4.3
313.15	4.3738	0.1438	1149.7	4.5
313.15	5.5972	0.1221	1184.3	4.8
313.15	6.179	0.1099	1198.6	4.1
323.15	0	0.1454	993.7	4
323.15	0.5065	0.162	1020.2	4
323.15	0.7123	0.1668	1027.7	4
323.15	1.0236	0.1699	1038.7	4
323.15	1.5517	0.1677	1056.5	4.1
323.15	2.0913	0.164	1074.1	4.1
323.15	3.2073	0.1512	1109	4.3
323.15	4.3756	0.1337	1143.6	4.5
323.15	5.5985	0.1126	1178	4.8
323.15	6.229	0.1003	1193.9	4.1
343.15	0	0.1251	982.6	4
343.15	0.5038	0.1419	1006.6	4
343.15	0.7107	0.1464	1014.3	4
343.15	1.0216	0.1497	1025.5	4
343.15	1.5496	0.1495	1043.8	4.1
343.15	2.0894	0.1463	1062	4.1
343.15	3.2049	0.1355	1098	4.3
343.15	4.373	0.1208	1132.8	4.5
343.15	5.5963	0.105	1166.1	4.8
343.15	6.3085	0.0957	1186.9	4.1
363.15	0	0.106	969.4	4
363.15	0.5063	0.1209	991.8	4
363.15	0.7117	0.1248	999.5	4
363.15	1.0229	0.1296	1011	4
363.15	1.551	0.1339	1029.8	4.1
363.15	2.0906	0.1327	1048.3	4.1
363.15	3.2065	0.1252	1085	4.3
363.15	4.3747	0.1149	1121.7	4.5
363.15	5.5981	0.1027	1158.3	4.8
363.15	6.4827	0.0935	1185.4	4.1

System: lithium carbonate + sodium chloride + water; phases: Liquid, Crystal
Fixed: Pressure, kPa = 100
Property: Molality, mol/kg of sodium chloride (Liquid); method: atomic emission spectroscopy ICP-AES and ion chromatography ICS-3000
Temperature, K	Molality, mol/kg of lithium carbonate	Molality, mol/kg of sodium chloride	uncertainty
298.15	0.1233	6.1092	0.3057
313.15	0.1099	6.179	0.3092
323.15	0.1003	6.229	0.3117
343.15	0.0957	6.3085	0.3157
363.15	0.0935	6.4827	0.3244

System: lithium carbonate + sodium sulfate + water; phases: Liquid, Crystal
Fixed: Pressure, kPa = 100
Property: Molality, mol/kg of lithium carbonate (Liquid); method: atomic emission spectroscopy ICP-AES and ion chromatography ICS-3000
Temperature, K	Molality, mol/kg of sodium sulfate	Molality, mol/kg of lithium carbonate	uncertainty
298.15	0	0.1738	0.007
298.15	0.2515	0.2194	0.0089
298.15	0.5015	0.248	0.0101
298.15	0.7516	0.2668	0.0109
298.15	1.0016	0.28	0.0114
298.15	1.2516	0.2893	0.0117
298.15	1.5018	0.296	0.012
313.15	0	0.1558	0.0062
313.15	0.2493	0.1973	0.008
313.15	0.4992	0.2267	0.0093
313.15	0.7492	0.2449	0.01
313.15	0.9992	0.2576	0.0105
313.15	1.2491	0.2672	0.0108
313.15	1.4991	0.2738	0.0111
313.15	1.7491	0.2788	0.0112
313.15	1.9991	0.2812	0.0113
323.15	0	0.1454	0.0058
323.15	0.2508	0.182	0.0074
323.15	0.4992	0.2101	0.0086
323.15	0.7492	0.2289	0.0094
323.15	1.0008	0.243	0.0099
323.15	1.2509	0.2525	0.0102
323.15	1.5009	0.2588	0.0104
323.15	1.7491	0.2627	0.0106
323.15	1.9991	0.2649	0.0107
343.15	0	0.1251	0.005
343.15	0.2496	0.1601	0.0065
343.15	0.4996	0.1885	0.0078
343.15	0.7504	0.209	0.0086
343.15	0.9996	0.2232	0.0091
343.15	1.2496	0.2326	0.0094
343.15	1.4933	0.2385	0.0096
343.15	1.7495	0.2429	0.0098
343.15	1.9996	0.2454	0.0099
363.15	0	0.106	0.0042
363.15	0.2493	0.1388	0.0057
363.15	0.4984	0.1664	0.0069
363.15	0.7484	0.187	0.0078
363.15	0.9983	0.2023	0.0084
363.15	1.2483	0.2124	0.0087
363.15	1.4982	0.2189	0.0089
363.15	1.7481	0.2231	0.009
363.15	1.9981	0.2252	0.009

System: lithium carbonate + sodium sulfate + water; phases: Liquid
Fixed: Pressure, kPa = 100
Property: Mass density, kg/m3 (Liquid); method: Pycnometric method
Temperature, K	Molality, mol/kg of sodium sulfate	Molality, mol/kg of lithium carbonate	Mass density, kg/m3	uncertainty
298.15	0	0.1738	1003.8	4
298.15	0.2515	0.2194	1045.8	4
298.15	0.5015	0.248	1082	4
298.15	0.7516	0.2668	1116.4	4
298.15	1.0016	0.28	1148.2	4
298.15	1.2516	0.2893	1176.6	4.1
298.15	1.5018	0.296	1204.9	4.1
313.15	0	0.1558	998.3	4
313.15	0.2493	0.1973	1039.6	4
313.15	0.4992	0.2267	1075.9	4
313.15	0.7492	0.2449	1110.1	4
313.15	0.9992	0.2576	1141.9	4
313.15	1.2491	0.2672	1170.4	4.1
313.15	1.4991	0.2738	1198.7	4.1
313.15	1.7491	0.2788	1224.9	4.1
313.15	1.9991	0.2812	1252.1	4.1
323.15	0	0.1454	993.7	4
323.15	0.2508	0.182	1034.3	4
323.15	0.4992	0.2101	1070	4
323.15	0.7492	0.2289	1104	4
323.15	1.0008	0.243	1135.6	4
323.15	1.2509	0.2525	1163.8	4.1
323.15	1.5009	0.2588	1191.9	4.1
323.15	1.7491	0.2627	1217.8	4.1
323.15	1.9991	0.2649	1244.7	4.1
343.15	0	0.1251	982.6	4
343.15	0.2496	0.1601	1022.8	4
343.15	0.4996	0.1885	1057.8	4
343.15	0.7504	0.209	1091.3	4
343.15	0.9996	0.2232	1122.4	4
343.15	1.2496	0.2326	1150.1	4.1
343.15	1.4933	0.2385	1177.8	4.1
343.15	1.7495	0.2429	1203.5	4.1
343.15	1.9996	0.2454	1230.2	4.1
363.15	0	0.106	969.4	4
363.15	0.2493	0.1388	1010.6	4
363.15	0.4984	0.1664	1044.8	4
363.15	0.7484	0.187	1077.7	4
363.15	0.9983	0.2023	1108.3	4
363.15	1.2483	0.2124	1135.7	4.1
363.15	1.4982	0.2189	1163	4.1
363.15	1.7481	0.2231	1188.4	4.1
363.15	1.9981	0.2252	1214.9	4.1
