Measured thermophysical data. Thermodynamic investigation of methyl salicylate/1-pentanol binary system in the temperature range from 278.15 K to 303.15 K
Source: J. Chem. Thermodyn., 2007, 10.1016/j.jct.2007.01.008
Compound 1: pentan-3-one, C5H10O, InChI=1S/C5H10O/c1-3-5(6)4-2/h3-4H2,1-2H3, purity 99.8%
Compound 2: tetrabutylammonium tetraphenylborate(1-), C40H56BN, InChI=1S/C24H20B.C16H36N/c1-5-13-21(14-6-1)25(22-15-7-2-8-16-22,23-17-9-3-10-18-23)24-19-11-4-12-20-24;1-5-9-13-17(14-10-6-2,15-11-7-3)16-12-8-4/h1-20H;5-16H2,1-4H3/q-1;+1, purity 98%

System: pentan-3-one; phases: Liquid, Gas
Property: Surface tension liquid-gas, N/m (Liquid); method: Ring tensiometer
Temperature, K	Surface tension liquid-gas, N/m	uncertainty
283.15	0.0265	0.0004
285.15	0.0263	0.0004
287.15	0.0261	0.0004
289.15	0.026	0.0004
291.15	0.0258	0.0004
293.15	0.0256	0.0004
295.15	0.0254	0.0004
297.15	0.0252	0.0004
299.15	0.025	0.0004
301.15	0.0248	0.0004
303.15	0.0246	0.0004
305.15	0.0244	0.0004
307.15	0.0242	0.0004
309.15	0.024	0.0004
311.15	0.0238	0.0004
313.15	0.0236	0.0004
315.15	0.0234	0.0004
317.15	0.0233	0.0004
319.15	0.0231	0.0004
321.15	0.0229	0.0003
323.15	0.0227	0.0003
325.15	0.0225	0.0003
327.15	0.0223	0.0003
329.15	0.0221	0.0003

System: pentan-3-one; phases: Liquid
Fixed: Pressure, kPa = 101.325
Property: Viscosity, Pa*s (Liquid); method: Capillary tube (Ostwald; Ubbelohde) method
Temperature, K	Viscosity, Pa*s	uncertainty
283.15	0.000515	4e-06
285.15	0.000507	4e-06
287.15	0.000499	4e-06
289.15	0.000492	4e-06
291.15	0.000484	3e-06
292.15	0.00048	3e-06
293.15	0.000476	3e-06
295.15	0.000468	3e-06
297.15	0.00046	3e-06
298.15	0.000458	3e-06
299.15	0.000453	3e-06
301.15	0.000445	3e-06
303.15	0.000437	3e-06
305.15	0.000429	3e-06
307.15	0.000421	3e-06
309.15	0.000414	3e-06
311.15	0.000406	3e-06
313.15	0.000398	3e-06
315.15	0.00039	3e-06
317.15	0.000382	3e-06
319.15	0.000375	3e-06
321.15	0.000367	3e-06
323.15	0.000359	3e-06
325.15	0.000351	3e-06
327.15	0.000343	3e-06
329.15	0.000336	3e-06

System: pentan-3-one; phases: Liquid
Fixed: Pressure, kPa = 101.325
Property: Mass density, kg/m3 (Liquid); method: Vibrating tube method
Temperature, K	Mass density, kg/m3	uncertainty
283.15	824.27	0.11
285.15	822.28	0.11
287.15	820.3	0.11
289.15	818.31	0.11
291.15	816.33	0.11
293.15	814.34	0.11
295.15	812.36	0.11
297.15	810.37	0.11
298.15	809.25	0.11
298.15	810.86	0.11
299.15	808.39	0.11
301.15	806.4	0.11
303.15	804.42	0.11
305.15	802.43	0.12
307.15	800.45	0.12
309.15	798.46	0.12
311.15	796.48	0.12
313.15	794.49	0.12
315.15	792.51	0.12
317.15	790.52	0.12
319.15	788.54	0.12
321.15	786.55	0.12
323.15	784.57	0.12
325.15	782.59	0.12
327.15	780.6	0.12
329.15	778.62	0.12

System: pentan-3-one + tetrabutylammonium tetraphenylborate(1-); phases: Liquid
Fixed: Pressure, kPa = 101
Property: Molar conductivity, S*m2/mol (Liquid); method: Alternating current cell with electrodes
Temperature, K	Amount concentration (molarity), mol/dm3 of tetrabutylammonium tetraphenylborate(1-)	Molar conductivity, S*m2/mol	uncertainty
283.15	0.215	0.00791	1.6e-05
283.15	0.4227	0.007756	1.6e-05
283.15	0.5792	0.007674	1.5e-05
283.15	0.7423	0.007515	1.5e-05
283.15	0.8989	0.007433	1.5e-05
283.15	1.067	0.007316	1.5e-05
283.15	1.1699	0.007286	1.5e-05
283.15	1.2795	0.007213	1.4e-05
283.15	1.366	0.007173	1.4e-05
283.15	1.502	0.007093	1.4e-05
285.15	0.2145	0.008186	1.6e-05
285.15	0.4216	0.007982	1.6e-05
285.15	0.5778	0.007864	1.6e-05
285.15	0.7405	0.007696	1.5e-05
285.15	0.8967	0.007628	1.5e-05
285.15	1.0644	0.007493	1.5e-05
285.15	1.1671	0.007475	1.5e-05
285.15	1.2764	0.007385	1.5e-05
285.15	1.3627	0.007349	1.5e-05
285.15	1.4983	0.007256	1.5e-05
287.15	0.214	0.0084	1.7e-05
287.15	0.4206	0.008173	1.6e-05
287.15	0.5764	0.008021	1.6e-05
287.15	0.7387	0.007888	1.6e-05
287.15	0.8945	0.007811	1.6e-05
287.15	1.0618	0.007669	1.5e-05
287.15	1.1643	0.007655	1.5e-05
287.15	1.2733	0.007554	1.5e-05
287.15	1.3594	0.007523	1.5e-05
287.15	1.4947	0.007432	1.5e-05
289.15	0.2135	0.008592	1.7e-05
289.15	0.4196	0.008369	1.7e-05
289.15	0.575	0.008222	1.6e-05
289.15	0.7369	0.008076	1.6e-05
289.15	0.8923	0.007995	1.6e-05
289.15	1.0592	0.007851	1.6e-05
289.15	1.1614	0.007832	1.6e-05
289.15	1.2702	0.007734	1.6e-05
289.15	1.3561	0.0077	1.5e-05
289.15	1.491	0.007593	1.5e-05
291.15	0.2129	0.008765	1.8e-05
291.15	0.4186	0.008551	1.7e-05
291.15	0.5736	0.008415	1.7e-05
291.15	0.7351	0.008261	1.7e-05
291.15	0.8901	0.008174	1.6e-05
291.15	1.0566	0.008037	1.6e-05
291.15	1.1586	0.008003	1.6e-05
291.15	1.2671	0.007912	1.6e-05
291.15	1.3528	0.007878	1.6e-05
291.15	1.4874	0.00777	1.6e-05
293.15	0.2124	0.008938	1.8e-05
293.15	0.4175	0.008733	1.8e-05
293.15	0.5722	0.008602	1.7e-05
293.15	0.7333	0.008456	1.7e-05
293.15	0.888	0.008352	1.7e-05
293.15	1.054	0.008227	1.6e-05
293.15	1.1557	0.008179	1.6e-05
293.15	1.264	0.008096	1.6e-05
293.15	1.3494	0.008054	1.6e-05
293.15	1.4837	0.007944	1.6e-05
295.15	0.1748	0.009156	1.8e-05
295.15	0.3645	0.009068	1.8e-05
295.15	0.5583	0.008984	1.8e-05
295.15	0.7214	0.008875	1.8e-05
295.15	0.8654	0.008776	1.8e-05
295.15	0.9894	0.008699	1.7e-05
295.15	1.0956	0.008639	1.7e-05
295.15	1.1841	0.008596	1.7e-05
295.15	1.2608	0.00856	1.7e-05
295.15	1.3572	0.008521	1.7e-05
297.15	0.1744	0.009349	1.9e-05
297.15	0.3636	0.009249	1.9e-05
297.15	0.557	0.009193	1.8e-05
297.15	0.7196	0.009078	1.8e-05
297.15	0.8633	0.008972	1.8e-05
297.15	0.9869	0.008897	1.8e-05
297.15	1.0929	0.008829	1.8e-05
297.15	1.1812	0.008791	1.8e-05
297.15	1.2577	0.008751	1.8e-05
297.15	1.3538	0.008711	1.7e-05
299.15	0.1739	0.009581	1.9e-05
299.15	0.3627	0.009468	1.9e-05
299.15	0.5556	0.009393	1.9e-05
299.15	0.7178	0.009266	1.9e-05
299.15	0.8611	0.009166	1.8e-05
299.15	0.9845	0.009084	1.8e-05
299.15	1.0902	0.009022	1.8e-05
299.15	1.1782	0.00897	1.8e-05
299.15	1.2546	0.008942	1.8e-05
299.15	1.3505	0.008886	1.8e-05
301.15	0.1735	0.009795	2e-05
301.15	0.3618	0.009683	1.9e-05
301.15	0.5542	0.009598	1.9e-05
301.15	0.716	0.009469	1.9e-05
301.15	0.859	0.009364	1.9e-05
301.15	0.9821	0.009278	1.9e-05
301.15	1.0875	0.009214	1.8e-05
301.15	1.1753	0.009162	1.8e-05
301.15	1.2515	0.009141	1.8e-05
301.15	1.3471	0.009078	1.8e-05
303.15	0.1731	0.01001	2e-05
303.15	0.3609	0.009904	2e-05
303.15	0.5528	0.009804	2e-05
303.15	0.7143	0.009679	1.9e-05
303.15	0.8569	0.009563	1.9e-05
303.15	0.9796	0.009489	1.9e-05
303.15	1.0848	0.009414	1.9e-05
303.15	1.1724	0.009356	1.9e-05
303.15	1.2484	0.00933	1.9e-05
303.15	1.3438	0.009273	1.9e-05
305.15	0.1221	0.010124	2e-05
305.15	0.224	0.009983	2e-05
305.15	0.305	0.00986	2e-05
305.15	0.3707	0.00974	1.9e-05
305.15	0.4442	0.00963	1.9e-05
305.15	0.494	0.009568	1.9e-05
305.15	0.5407	0.009507	1.9e-05
305.15	0.5819	0.009467	1.9e-05
305.15	0.656	0.009379	1.9e-05
305.15	0.7558	0.009251	1.9e-05
307.15	0.1218	0.010348	2.1e-05
307.15	0.2235	0.010189	2e-05
307.15	0.3042	0.010074	2e-05
307.15	0.3698	0.009982	2e-05
307.15	0.4431	0.009914	2e-05
307.15	0.4927	0.009849	2e-05
307.15	0.5394	0.009787	2e-05
307.15	0.5804	0.009748	2e-05
307.15	0.6543	0.009657	1.9e-05
307.15	0.7539	0.009549	1.9e-05
309.15	0.1215	0.010506	2.1e-05
309.15	0.2229	0.010395	2.1e-05
309.15	0.3035	0.010308	2.1e-05
309.15	0.3689	0.010225	2e-05
309.15	0.442	0.010147	2e-05
309.15	0.4915	0.010058	2e-05
309.15	0.538	0.010025	2e-05
309.15	0.579	0.009959	2e-05
309.15	0.6527	0.009891	2e-05
309.15	0.7521	0.009751	2e-05
311.15	0.1212	0.01077	2.2e-05
311.15	0.2224	0.010653	2.1e-05
311.15	0.3027	0.010539	2.1e-05
311.15	0.368	0.010479	2.1e-05
311.15	0.4409	0.010381	2.1e-05
311.15	0.4903	0.010297	2.1e-05
311.15	0.5367	0.010243	2.1e-05
311.15	0.5775	0.010175	2e-05
311.15	0.6511	0.010103	2e-05
311.15	0.7502	0.009963	2e-05
313.15	0.1209	0.010988	2.2e-05
313.15	0.2218	0.010862	2.2e-05
313.15	0.3019	0.010779	2.2e-05
313.15	0.367	0.010684	2.1e-05
313.15	0.4398	0.01059	2.1e-05
313.15	0.489	0.010499	2.1e-05
313.15	0.5353	0.010462	2.1e-05
313.15	0.5761	0.010381	2.1e-05
313.15	0.6494	0.010288	2.1e-05
313.15	0.7483	0.010143	2e-05
315.15	0.1206	0.011206	2.2e-05
315.15	0.2213	0.011097	2.2e-05
315.15	0.3012	0.010978	2.2e-05
315.15	0.3661	0.010896	2.2e-05
315.15	0.4387	0.0108	2.2e-05
315.15	0.4878	0.01075	2.2e-05
315.15	0.534	0.010704	2.1e-05
315.15	0.5746	0.010667	2.1e-05
315.15	0.6478	0.010577	2.1e-05
315.15	0.7464	0.010462	2.1e-05
317.15	0.1203	0.011416	2.3e-05
317.15	0.2207	0.011308	2.3e-05
317.15	0.3004	0.011178	2.2e-05
317.15	0.3652	0.011116	2.2e-05
317.15	0.4376	0.011038	2.2e-05
317.15	0.4866	0.010966	2.2e-05
317.15	0.5326	0.010925	2.2e-05
317.15	0.5732	0.010893	2.2e-05
317.15	0.6462	0.01081	2.2e-05
317.15	0.7445	0.010704	2.1e-05
319.15	0.12	0.011665	2.3e-05
319.15	0.2201	0.011545	2.3e-05
319.15	0.2997	0.011436	2.3e-05
319.15	0.3643	0.011334	2.3e-05
319.15	0.4365	0.01125	2.3e-05
319.15	0.4854	0.011181	2.2e-05
319.15	0.5313	0.011137	2.2e-05
319.15	0.5717	0.011104	2.2e-05
319.15	0.6445	0.011027	2.2e-05
319.15	0.7426	0.010922	2.2e-05
321.15	0.0786	0.012069	2.4e-05
321.15	0.1493	0.012045	2.4e-05
321.15	0.2515	0.01201	2.4e-05
321.15	0.3301	0.011984	2.4e-05
321.15	0.4008	0.01196	2.4e-05
321.15	0.4873	0.011931	2.4e-05
321.15	0.5737	0.011902	2.4e-05
321.15	0.6602	0.011873	2.4e-05
321.15	0.7388	0.011846	2.4e-05
321.15	0.8802	0.011799	2.4e-05
323.15	0.0784	0.012264	2.5e-05
323.15	0.1489	0.012249	2.5e-05
323.15	0.2509	0.012227	2.4e-05
323.15	0.3292	0.01221	2.4e-05
323.15	0.3998	0.012194	2.4e-05
323.15	0.486	0.012176	2.4e-05
323.15	0.5723	0.012157	2.4e-05
323.15	0.6585	0.012138	2.4e-05
323.15	0.7369	0.012121	2.4e-05
323.15	0.878	0.01209	2.4e-05
325.15	0.0782	0.01248	2.5e-05
325.15	0.1486	0.012471	2.5e-05
325.15	0.2502	0.012458	2.5e-05
325.15	0.3284	0.012448	2.5e-05
325.15	0.3988	0.012439	2.5e-05
325.15	0.4848	0.012428	2.5e-05
325.15	0.5708	0.012417	2.5e-05
325.15	0.6568	0.012406	2.5e-05
325.15	0.735	0.012396	2.5e-05
325.15	0.8757	0.012378	2.5e-05
327.15	0.078	0.012764	2.6e-05
327.15	0.1482	0.012743	2.6e-05
327.15	0.2496	0.012713	2.5e-05
327.15	0.3276	0.012689	2.5e-05
327.15	0.3978	0.012668	2.5e-05
327.15	0.4835	0.012643	2.5e-05
327.15	0.5693	0.012617	2.5e-05
327.15	0.6551	0.012592	2.5e-05
327.15	0.7331	0.012568	2.5e-05
327.15	0.8735	0.012526	2.5e-05
329.15	0.0778	0.012962	2.6e-05
329.15	0.1478	0.012947	2.6e-05
329.15	0.2489	0.012924	2.6e-05
329.15	0.3267	0.012906	2.6e-05
329.15	0.3967	0.01289	2.6e-05
329.15	0.4823	0.012871	2.6e-05
329.15	0.5679	0.012851	2.6e-05
329.15	0.6534	0.012832	2.6e-05
329.15	0.7312	0.012814	2.6e-05
329.15	0.8712	0.012783	2.6e-05
