Measured thermophysical data. Determination and correlation of solubility of spironolactone form II in pure solvents and binary solvent mixtures
Source: J. Chem. Thermodyn., 2014, 10.1016/j.jct.2014.07.011
Compound 1: spironolactone, C24H32O4S, InChI=1S/C24H32O4S/c1-14(25)29-19-13-15-12-16(26)4-8-22(15,2)17-5-9-23(3)18(21(17)19)6-10-24(23)11-7-20(27)28-24/h12,17-19,21H,4-11,13H2,1-3H3/t17-,18-,19+,21+,22-,23-,24+/m0/s1
Compound 2: methanol, CH4O, InChI=1S/CH4O/c1-2/h2H,1H3, purity 99.5%
Compound 3: ethanol, C2H6O, InChI=1S/C2H6O/c1-2-3/h3H,2H2,1H3, purity 99.7%
Compound 4: propan-1-ol, C3H8O, InChI=1S/C3H8O/c1-2-3-4/h4H,2-3H2,1H3, purity 99.8%
Compound 5: propan-2-ol, C3H8O, InChI=1S/C3H8O/c1-3(2)4/h3-4H,1-2H3, purity 99.5%
Compound 6: butan-1-ol, C4H10O, InChI=1S/C4H10O/c1-2-3-4-5/h5H,2-4H2,1H3, purity 99%
Compound 7: ethyl acetate, C4H8O2, InChI=1S/C4H8O2/c1-3-6-4(2)5/h3H2,1-2H3, purity 99.5%

System: spironolactone; phases: Crystal, Liquid, Air at 1 atmosphere
Property: Normal melting temperature, K (Crystal); method: DTA
Normal melting temperature, K	uncertainty
481.57	1.06

System: spironolactone; phases: Crystal, Liquid, Air at 1 atmosphere
Property: Molar enthalpy of transition or fusion, kJ/mol (Crystal); method: DSC
Molar enthalpy of transition or fusion, kJ/mol	uncertainty
20.7704035728	1.3247068464

System: spironolactone + methanol; phases: Liquid, Crystal
Fixed: Pressure, kPa = 100
Property: Mole fraction of spironolactone (Liquid); method: Gravimetric method
Temperature, K	Mole fraction of spironolactone	uncertainty
278.85	0.0002022	2.03e-05
283.65	0.0002673	2.68e-05
288.55	0.0003557	3.56e-05
293.45	0.00041	4.11e-05
298.3	0.0006119	6.13e-05
303.15	0.0008131	8.14e-05
308.1	0.001037	0.000104
312.95	0.001389	0.000139
317.75	0.001822	0.000182

System: spironolactone + ethanol; phases: Liquid, Crystal
Fixed: Pressure, kPa = 100
Property: Mole fraction of spironolactone (Liquid); method: Gravimetric method
Temperature, K	Mole fraction of spironolactone	uncertainty
278.75	0.001699	0.00017
283.55	0.001965	0.000197
288.45	0.002378	0.000238
293.45	0.003102	0.000311
298.35	0.003941	0.000395
303.15	0.004906	0.000491
308.25	0.006061	0.000607
313.15	0.007705	0.000772
317.95	0.009749	0.000976

System: spironolactone + propan-1-ol; phases: Liquid, Crystal
Fixed: Pressure, kPa = 100
Property: Mole fraction of spironolactone (Liquid); method: Gravimetric method
Temperature, K	Mole fraction of spironolactone	uncertainty
278.4	0.00228	0.000228
283.65	0.002603	0.000261
288.35	0.003255	0.000326
293.25	0.003953	0.000396
298.15	0.004883	0.000489
303.05	0.006057	0.000606
307.95	0.007558	0.000757
312.9	0.009566	0.000958
318.35	0.01206	0.00121

System: spironolactone + propan-2-ol; phases: Liquid, Crystal
Fixed: Pressure, kPa = 100
Property: Mole fraction of spironolactone (Liquid); method: Gravimetric method
Temperature, K	Mole fraction of spironolactone	uncertainty
278.45	0.0009945	9.96e-05
283.55	0.001284	0.000129
288.4	0.001677	0.000168
293.25	0.002077	0.000208
298.2	0.002653	0.000266
303.05	0.003433	0.000344
307.95	0.00445	0.000446
312.9	0.005721	0.000573
317.55	0.007312	0.000732

System: spironolactone + butan-1-ol; phases: Liquid, Crystal
Fixed: Pressure, kPa = 100
Property: Mole fraction of spironolactone (Liquid); method: Gravimetric method
Temperature, K	Mole fraction of spironolactone	uncertainty
278.95	0.001937	0.000194
283.65	0.002367	0.000237
288.55	0.003093	0.00031
293.45	0.003955	0.000396
298.25	0.004692	0.00047
303.05	0.005812	0.000582
308.15	0.007323	0.000733
312.95	0.008979	0.000899
317.65	0.01104	0.00111

System: spironolactone + ethyl acetate; phases: Liquid, Crystal
Fixed: Pressure, kPa = 100
Property: Mole fraction of spironolactone (Liquid); method: Gravimetric method
Temperature, K	Mole fraction of spironolactone	uncertainty
278.85	0.01794	0.00179
283.65	0.01978	0.00198
288.55	0.02255	0.00226
293.45	0.02462	0.00246
298.3	0.02812	0.00281
303.15	0.03137	0.00314
308.1	0.03589	0.00359
312.95	0.04121	0.00412
317.75	0.04559	0.00456

System: spironolactone + methanol + ethyl acetate; phases: Liquid, Crystal
Fixed: Pressure, kPa = 100
Property: Mole fraction of spironolactone (Liquid); method: Gravimetric method
Solvent: Mole fraction of ethyl acetate	Temperature, K	Mole fraction of spironolactone	uncertainty
0	278.85	0.0002022	2.03e-05
0	283.65	0.0002673	2.68e-05
0	288.55	0.0003557	3.56e-05
0	293.45	0.00041	4.11e-05
0	298.3	0.0006119	6.13e-05
0	303.15	0.0008131	8.14e-05
0	308.1	0.001037	0.000104
0	312.95	0.001389	0.000139
0	317.75	0.001822	0.000182
0.1946	278.85	0.000675	7.86e-05
0.1946	283.65	0.0009346	0.0001069
0.1946	288.55	0.001227	0.000139
0.1946	293.45	0.001565	0.000178
0.1946	298.3	0.002064	0.000232
0.1946	303.15	0.002662	0.000298
0.1946	308.1	0.003481	0.000388
0.1946	312.95	0.004515	0.000502
0.1946	317.75	0.005665	0.000627
0.3833	278.85	0.001523	0.000185
0.3833	283.65	0.001964	0.000235
0.3833	288.55	0.002507	0.0003
0.3833	293.45	0.003152	0.000374
0.3833	298.3	0.004071	0.000482
0.3833	303.15	0.005178	0.000611
0.3833	308.1	0.006654	0.000779
0.3833	312.95	0.008538	0.000995
0.3833	317.75	0.01056	0.00123
0.5947	278.85	0.002503	0.00031
0.5947	283.65	0.00318	0.000397
0.5947	288.55	0.004076	0.000504
0.5947	293.45	0.00506	0.000637
0.5947	298.3	0.006533	0.00082
0.5947	303.15	0.008267	0.001053
0.5947	308.1	0.01049	0.00138
0.5947	312.95	0.01335	0.00179
0.5947	317.75	0.01658	0.00238
0.7976	278.85	0.003636	0.000687
0.7976	283.65	0.004715	0.000827
0.7976	288.55	0.005954	0.001007
0.7976	293.45	0.007632	0.001258
0.7976	298.3	0.009829	0.001561
0.7976	303.15	0.01274	0.00198
0.7976	308.1	0.017	0.00264
0.7976	312.95	0.02243	0.00345
0.7976	317.75	0.03038	0.00469
0.9059	278.85	0.006595	0.00384
0.9059	283.65	0.008176	0.004027
0.9059	288.55	0.009983	0.004464
0.9059	293.45	0.01222	0.00463
0.9059	298.3	0.01512	0.00505
0.9059	303.15	0.01883	0.00528
0.9059	308.1	0.0243	0.00558
0.9059	312.95	0.03092	0.00591
0.9059	317.75	0.04012	0.00574
1	278.85	0.01794	0.00179
1	283.65	0.01978	0.00198
1	288.55	0.02255	0.00226
1	293.45	0.02462	0.00246
1	298.3	0.02812	0.00281
1	303.15	0.03137	0.00314
1	308.1	0.03589	0.00359
1	312.95	0.04121	0.00412
1	317.75	0.04559	0.00456
