Measured thermophysical data. Solubility of CO2 in the ionic liquid [hmim][Tf2N]
Source: J. Chem. Thermodyn., 2006, 10.1016/j.jct.2006.01.013
Compound 1: carbon dioxide, CO2, InChI=1S/CO2/c2-1-3, purity 99.995%
Compound 2: 1-hexyl-3-methylimidazolium bis[(trifluoromethyl)sulfonyl]imide, C12H19F6N3O4S2, InChI=1S/C10H19N2.C2F6NO4S2/c1-3-4-5-6-7-12-9-8-11(2)10-12;3-1(4,5)14(10,11)9-15(12,13)2(6,7)8/h8-10H,3-7H2,1-2H3;/q+1;-1

System: 1-hexyl-3-methylimidazolium bis[(trifluoromethyl)sulfonyl]imide; phases: Liquid
Fixed: Pressure, kPa = 101.325
Property: Mass density, kg/m3 (Liquid); method: VIBTUB:UFactor:4
Temperature, K	Mass density, kg/m3	uncertainty
290.95	1378.1	0.8
292.95	1376.3	0.8
294.95	1374.4	0.8
296.95	1372.6	0.8
299	1370.8	0.8
301	1369	0.8
303	1367.2	0.8
305.05	1365.3	0.8
307.05	1363.5	0.8

System: carbon dioxide + 1-hexyl-3-methylimidazolium bis[(trifluoromethyl)sulfonyl]imide; phases: Liquid, Gas
Fixed: Molality, mol/kg of carbon dioxide = 0
Property: Henry's Law constant (molality scale), kPa*kg/mol of carbon dioxide (Liquid); method: Derived from solubility data
Temperature, K	Henry's Law constant (molality scale), kPa*kg/mol of carbon dioxide	uncertainty
293.15	1244	51
333.15	2356	67
373.2	3834	119
413.2	5474	172

System: carbon dioxide + 1-hexyl-3-methylimidazolium bis[(trifluoromethyl)sulfonyl]imide; phases: Liquid, Gas
Property: Vapor or sublimation pressure, kPa (Liquid); method: CCELL:UFactor:2
Temperature, K	Molality, mol/kg of carbon dioxide	Vapor or sublimation pressure, kPa	uncertainty
293.15	0.496	601	64
293.15	1.2181	1392	82
293.15	1.7814	1954	85
293.15	2.6295	2733	90
293.15	3.4283	3382	96
333.15	0.4914	1159	102
333.15	0.9834	2270	105
333.15	1.3389	2998	107
333.15	1.8588	4127	111
333.15	2.8215	6088	123
333.15	3.5047	7470	131
333.15	4.0587	8695	140
333.15	4.6574	9911	146
373.2	0.4872	1874	133
373.2	0.8653	3256	138
373.2	1.2157	4557	141
373.2	1.4858	5538	144
373.2	2.0775	7726	155
373.2	2.5935	9621	166
413.2	0.2459	1352	71
413.2	0.4762	2574	172
413.2	0.9669	5213	179
413.2	1.1253	6052	182
413.2	1.3925	7488	188
413.2	1.687	9086	195
