Measured thermophysical data. Isothermal vapour-liquid equilibrium data for binary systems of (CHF3 or C2F6) with (1-hexene or 3-methylpentane)
Source: J. Chem. Thermodyn., 2018, 10.1016/j.jct.2017.12.002
Compound 1: trifluoromethane, CHF3, InChI=1S/CHF3/c2-1(3)4/h1H
Compound 2: hexafluoroethane, C2F6, InChI=1S/C2F6/c3-1(4,5)2(6,7)8
Compound 3: hex-1-ene, C6H12, InChI=1S/C6H12/c1-3-5-6-4-2/h3H,1,4-6H2,2H3, purity 99%
Compound 4: 3-methylpentane, C6H14, InChI=1S/C6H14/c1-4-6(3)5-2/h6H,4-5H2,1-3H3, purity 99%

System: hex-1-ene; phases: Liquid
Fixed: Pressure, kPa = 101.325
Property: Mass density, kg/m3 (Liquid); method: Vibrating tube method
Temperature, K	Mass density, kg/m3	uncertainty
293.15	673.227	0.172
295.15	670.871	0.171
297.15	668.986	0.17
298.15	668.033	0.171
301.35	664.998	0.172

System: hex-1-ene; phases: Liquid
Fixed: Pressure, kPa = 101.325
Property: Refractive index (Na D-line) (Liquid); method: Standard Abbe refractometry
Temperature, K	Refractive index (Na D-line)	uncertainty
293.15	1.38796	0.00041
298.15	1.3851	0.00041

System: 3-methylpentane; phases: Liquid
Fixed: Pressure, kPa = 101.325
Property: Mass density, kg/m3 (Liquid); method: Vibrating tube method
Temperature, K	Mass density, kg/m3	uncertainty
293.15	664.225	0.174
295.15	662.39	0.18
297.15	660.589	0.175
298.15	659.736	0.176
298.6	659.308	0.177

System: 3-methylpentane; phases: Liquid
Fixed: Pressure, kPa = 101.325
Property: Refractive index (Na D-line) (Liquid); method: Standard Abbe refractometry
Temperature, K	Refractive index (Na D-line)	uncertainty
293.15	1.37654	0.00041
298.15	1.37387	0.00041

System: trifluoromethane + hex-1-ene; phases: Liquid, Gas
Property: Vapor or sublimation pressure, kPa (Liquid); method: Closed cell (Static) method
Mole fraction of trifluoromethane	Temperature, K	Vapor or sublimation pressure, kPa	uncertainty
0.042	293.08	927	33
0.073	293.08	1431	54
0.123	293.08	2019	49
0.184	293.08	2511	42
0.28	293.08	2958	39
0.325	293.07	3082	23
0.423	293.06	3258	17
0.549	293.08	3381	15
0.674	293.08	3491	16
0.756	293.07	3588	17
0.822	293.06	3707	20
0.931	293.07	3954	16
0.968	293.08	4080	16
0.033	303.17	875	39
0.058	303.18	1352	51
0.098	303.18	1980	44
0.215	303.17	3138	54
0.315	303.17	3624	35
0.431	303.16	3933	31
0.483	303.17	4032	19
0.624	303.17	4195	20
0.716	303.16	4335	22
0.795	303.16	4492	23
0.875	303.17	4708	25
0.936	303.18	4941	21
0.033	313.24	973	44
0.054	313.24	1436	38
0.103	313.27	2313	62
0.162	313.27	3112	68
0.228	313.27	3710	62
0.308	313.27	4224	45
0.418	313.27	4622	37
0.529	313.26	4887	28
0.662	313.23	5115	25
0.73	313.24	5254	27
0.809	313.24	5434	25
0.844	313.24	5514	23

System: trifluoromethane + hex-1-ene; phases: Gas, Liquid
Property: Mole fraction of trifluoromethane (Gas); method: Chromatography
Mole fraction of trifluoromethane	Temperature, K	Mole fraction of trifluoromethane	uncertainty
0.042	293.08	0.932	0.004
0.073	293.08	0.955	0.003
0.123	293.08	0.964	0.003
0.184	293.08	0.966	0.002
0.28	293.08	0.968	0.002
0.325	293.07	0.968	0.003
0.423	293.06	0.97	0.001
0.549	293.08	0.971	0.001
0.674	293.08	0.972	0.001
0.756	293.07	0.974	0.001
0.822	293.06	0.978	0.002
0.931	293.07	0.984	0.001
0.968	293.08	0.994	0.001
0.033	303.17	0.901	0.005
0.058	303.18	0.934	0.004
0.098	303.18	0.948	0.003
0.215	303.17	0.958	0.002
0.315	303.17	0.958	0.002
0.431	303.16	0.957	0.002
0.483	303.17	0.956	0.002
0.624	303.17	0.958	0.003
0.716	303.16	0.959	0.002
0.795	303.16	0.959	0.002
0.875	303.17	0.964	0.002
0.936	303.18	0.978	0.002
0.033	313.24	0.853	0.007
0.054	313.24	0.888	0.006
0.103	313.27	0.931	0.004
0.162	313.27	0.939	0.003
0.228	313.27	0.942	0.003
0.308	313.27	0.941	0.003
0.418	313.27	0.94	0.003
0.529	313.26	0.935	0.003
0.662	313.23	0.931	0.003
0.73	313.24	0.93	0.003
0.809	313.24	0.927	0.003
0.844	313.24	0.924	0.004

System: trifluoromethane + 3-methylpentane; phases: Liquid, Gas
Property: Vapor or sublimation pressure, kPa (Liquid); method: Closed cell (Static) method
Mole fraction of trifluoromethane	Temperature, K	Vapor or sublimation pressure, kPa	uncertainty
0.034	293.07	987	59
0.063	293.07	1552	106
0.068	293.09	1658	106
0.099	293.06	2080	74
0.147	293.06	2639	67
0.225	293.06	3143	36
0.416	293.09	3470	28
0.47	293.06	3514	13
0.618	293.08	3547	15
0.795	293.08	3682	16
0.868	293.08	3775	18
0.9	293.07	3854	21
0.948	293.07	3994	17
0.979	293.08	4105	16
0.027	303.17	784	53
0.056	303.17	1611	73
0.147	303.16	3082	103
0.241	303.16	3750	72
0.32	303.16	4039	29
0.488	303.17	4241	15
0.511	303.17	4258	48
0.687	303.16	4392	20
0.783	303.16	4514	24
0.872	303.17	4695	50
0.879	303.17	4733	44
0.933	303.17	4894	20
0.02	313.26	761	30
0.045	313.25	1485	78
0.079	313.25	2304	102
0.122	313.25	3050	94
0.209	313.24	4064	96
0.305	313.24	4638	58
0.43	313.25	4963	36
0.556	313.26	5134	27
0.757	313.25	5377	25
0.818	313.26	5499	25
0.868	313.27	5561	23
0.882	313.26	5611	32

System: trifluoromethane + 3-methylpentane; phases: Gas, Liquid
Property: Mole fraction of trifluoromethane (Gas); method: Chromatography
Mole fraction of trifluoromethane	Temperature, K	Mole fraction of trifluoromethane	uncertainty
0.034	293.07	0.903	0.008
0.063	293.07	0.947	0.006
0.068	293.09	0.952	0.006
0.099	293.06	0.951	0.005
0.147	293.06	0.966	0.003
0.225	293.06	0.969	0.002
0.416	293.09	0.97	0.002
0.47	293.06	0.965	0.002
0.618	293.08	0.971	0.002
0.795	293.08	0.974	0.002
0.868	293.08	0.977	0.003
0.9	293.07	0.98	0.001
0.948	293.07	0.982	0.002
0.979	293.08	0.994	0.001
0.027	303.17	0.904	0.007
0.056	303.17	0.936	0.004
0.147	303.16	0.956	0.003
0.241	303.16	0.956	0.003
0.32	303.16	0.955	0.004
0.488	303.17	0.956	0.003
0.511	303.17	0.954	0.005
0.687	303.16	0.956	0.003
0.783	303.16	0.954	0.003
0.872	303.17	0.956	0.008
0.879	303.17	0.959	0.008
0.933	303.17	0.975	0.002
0.02	313.26	0.861	0.008
0.045	313.25	0.915	0.007
0.079	313.25	0.934	0.004
0.122	313.25	0.943	0.004
0.209	313.24	0.944	0.004
0.305	313.24	0.939	0.004
0.43	313.25	0.936	0.004
0.556	313.26	0.932	0.004
0.757	313.25	0.924	0.005
0.818	313.26	0.921	0.005
0.868	313.27	0.921	0.006
0.882	313.26	0.882	0.021

System: hexafluoroethane + hex-1-ene; phases: Liquid, Gas
Property: Vapor or sublimation pressure, kPa (Liquid); method: Closed cell (Static) method
Mole fraction of hexafluoroethane	Temperature, K	Vapor or sublimation pressure, kPa	uncertainty
0.056	293.09	867	48
0.083	293.1	1190	35
0.11	293.1	1493	40
0.147	293.11	1832	30
0.196	293.1	2114	26
0.253	293.1	2338	20
0.32	293.1	2479	17
0.341	293.12	2506	12
0.863	293.1	2549	10
0.912	293.1	2624	11
0.944	293.11	2715	12
0.961	293.1	2815	15
0.054	303.13	965	58
0.08	303.14	1312	61
0.114	303.12	1692	70
0.158	303.13	2094	71
0.208	303.14	2440	60
0.287	303.14	2792	41
0.382	303.14	2980	29
0.423	303.13	3023	26
0.84	303.13	3075	13
0.9	303.13	3181	15
0.916	303.13	3229	28
0.968	303.12	3509	21
0.042	313.15	853	62
0.074	313.14	1349	70
0.116	313.14	1885	81
0.161	313.14	2355	74
0.244	313.11	2949	64
0.356	313.11	3399	36
0.506	313.13	3574	18
0.602	313.13	3590	12
0.606	313.15	3591	12
0.799	313.15	3624	13
0.862	313.15	3688	17
0.882	313.14	3718	14
0.921	313.14	3749	13
0.793	293.12	2506	9
0.749	303.13	3023	10

System: hexafluoroethane + hex-1-ene; phases: Gas, Liquid
Property: Mole fraction of hexafluoroethane (Gas); method: Chromatography
Mole fraction of hexafluoroethane	Temperature, K	Mole fraction of hexafluoroethane	uncertainty
0.056	293.09	0.973	0.003
0.083	293.1	0.973	0.007
0.11	293.1	0.981	0.002
0.147	293.11	0.98	0.005
0.196	293.1	0.974	0.004
0.253	293.1	0.976	0.003
0.32	293.1	0.979	0.002
0.341	293.12	0.978	0.002
0.863	293.1	0.981	0.004
0.912	293.1	0.982	0.004
0.944	293.11	0.986	0.003
0.961	293.1	0.982	0.004
0.054	303.13	0.96	0.007
0.08	303.14	0.969	0.005
0.114	303.12	0.969	0.004
0.158	303.13	0.975	0.004
0.208	303.14	0.975	0.004
0.287	303.14	0.969	0.005
0.382	303.14	0.969	0.002
0.423	303.13	0.969	0.002
0.84	303.13	0.969	0.003
0.9	303.13	0.969	0.007
0.916	303.13	0.975	0.005
0.968	303.12	0.98	0.004
0.042	313.15	0.933	0.01
0.074	313.14	0.957	0.006
0.116	313.14	0.964	0.004
0.161	313.14	0.966	0.004
0.244	313.11	0.959	0.006
0.356	313.11	0.953	0.007
0.506	313.13	0.95	0.008
0.602	313.13	0.954	0.012
0.606	313.15	0.952	0.011
0.799	313.15	0.951	0.008
0.862	313.15	0.954	0.007
0.882	313.14	0.969	0.007
0.921	313.14	0.978	0.003
0.793	293.12	0.978	0.002
0.749	303.13	0.969	0.002

System: hexafluoroethane + hex-1-ene; phases: Liquid mixture 1, Liquid mixture 2
Property: Mole fraction of hexafluoroethane (Liquid mixture 1); method: Chromatography
Temperature, K	Pressure, kPa	Mole fraction of hexafluoroethane	uncertainty
293.12	2506	0.341	0.007
303.13	3023	0.423	0.023

System: hexafluoroethane + hex-1-ene; phases: Liquid mixture 2, Liquid mixture 1
Property: Mole fraction of hexafluoroethane (Liquid mixture 2); method: Chromatography
Temperature, K	Pressure, kPa	Mole fraction of hexafluoroethane	uncertainty
293.12	2506	0.793	0.005
303.13	3023	0.749	0.013

System: hexafluoroethane + 3-methylpentane; phases: Liquid, Gas
Property: Vapor or sublimation pressure, kPa (Liquid); method: Closed cell (Static) method
Mole fraction of hexafluoroethane	Temperature, K	Vapor or sublimation pressure, kPa	uncertainty
0.061	293.09	895	55
0.085	293.09	1159	60
0.12	293.09	1483	50
0.171	293.09	1780	41
0.254	293.09	2093	39
0.348	293.09	2298	18
0.533	293.1	2410	12
0.635	293.1	2430	9
0.645	293.1	2432	9
0.853	293.09	2505	20
0.886	293.09	2569	17
0.935	293.1	2677	17
0.961	293.1	2786	17
0.971	293.11	2851	22
0.063	303.09	973	53
0.1	303.1	1350	55
0.146	303.1	1752	67
0.212	303.09	2176	53
0.308	303.08	2565	46
0.398	303.08	2762	27
0.482	303.08	2850	15
0.63	303.09	2919	12
0.823	303.11	3005	12
0.879	303.11	3088	18
0.919	303.1	3210	31
0.974	303.11	3547	38
0.061	313.11	975	53
0.094	313.11	1412	66
0.149	313.12	1949	78
0.208	313.12	2403	72
0.281	313.12	2817	61
0.379	313.12	3152	45
0.466	313.11	3315	22
0.616	313.1	3437	17
0.708	313.1	3495	17
0.862	313.12	3650	16
0.901	313.12	3787	25

System: hexafluoroethane + 3-methylpentane; phases: Gas, Liquid
Property: Mole fraction of hexafluoroethane (Gas); method: Chromatography
Mole fraction of hexafluoroethane	Temperature, K	Mole fraction of hexafluoroethane	uncertainty
0.061	293.09	0.951	0.01
0.085	293.09	0.977	0.007
0.12	293.09	0.978	0.006
0.171	293.09	0.983	0.002
0.254	293.09	0.983	0.003
0.348	293.09	0.982	0.004
0.533	293.1	0.975	0.007
0.635	293.1	0.975	0.008
0.645	293.1	0.978	0.006
0.853	293.09	0.98	0.005
0.886	293.09	0.979	0.006
0.935	293.1	0.986	0.003
0.961	293.1	0.984	0.002
0.971	293.11	0.987	0.003
0.063	303.09	0.96	0.007
0.1	303.1	0.971	0.005
0.146	303.1	0.974	0.004
0.212	303.09	0.976	0.004
0.308	303.08	0.975	0.007
0.398	303.08	0.97	0.004
0.482	303.08	0.971	0.005
0.63	303.09	0.973	0.004
0.823	303.11	0.97	0.005
0.879	303.11	0.974	0.005
0.919	303.1	0.983	0.003
0.974	303.11	0.992	0.003
0.061	313.11	0.947	0.009
0.094	313.11	0.971	0.005
0.149	313.12	0.966	0.005
0.208	313.12	0.967	0.004
0.281	313.12	0.967	0.004
0.379	313.12	0.964	0.006
0.466	313.11	0.96	0.006
0.616	313.1	0.959	0.007
0.708	313.1	0.954	0.008
0.862	313.12	0.949	0.009
0.901	313.12	0.949	0.008
