Measured thermophysical data. H2 solubility in methanol in the presence of CO2 and O2
Source: J. Chem. Thermodyn., 2012, 10.1016/j.jct.2012.03.021
Compound 1: methanol, CH4O, InChI=1S/CH4O/c1-2/h2H,1H3, purity 99.8%
Compound 2: hydrogen, H2, InChI=1S/H2/h1H, purity 99.999%
Compound 3: carbon dioxide, CO2, InChI=1S/CO2/c2-1-3, purity 99.99%

System: methanol + hydrogen; phases: Liquid, Gas
Fixed: Temperature, K = 278
Property: Amount concentration (molarity), mol/dm3 of hydrogen (Liquid); method: Calibrated commercial gas detector
Pressure, kPa of hydrogen	Amount concentration (molarity), mol/dm3 of hydrogen	uncertainty
370	0.0131	0.0005
370	0.0127	0.0003
390	0.0127	0.0007
400	0.0123	0.0005
790	0.0261	0.0001
790	0.0259	0.0001
810	0.0265	0.0012
820	0.026	0.0001
840	0.0283	0.0012
1190	0.0402	0.0001
1210	0.0395	0.0006
1220	0.0403	0.0001
1550	0.051	0.0007
1560	0.0521	0.0007

System: methanol + carbon dioxide + hydrogen; phases: Liquid, Gas
Property: Amount concentration (molarity), mol/dm3 of hydrogen (Liquid); method: Calibrated commercial gas sensor
Temperature, K	Pressure, kPa	Pressure, kPa of hydrogen	Amount concentration (molarity), mol/dm3 of hydrogen	uncertainty
288	1600	300	0.019	0.0014
288	1600	300	0.0192	0.0014
288	1870	570	0.0339	0.0018
288	1870	570	0.0346	0.0018
288	2160	860	0.0518	0.0017
288	2160	860	0.0524	0.0017
288	2400	1100	0.0662	0.0014
288	2400	1100	0.0661	0.0014
278	1420	320	0.0177	0.003
278	1440	370	0.018	0.003
278	1440	360	0.0181	0.0033
278	1710	610	0.0324	0.0021
278	1740	670	0.0337	0.0023
278	1740	660	0.0333	0.0035
278	2020	920	0.0493	0.0019
278	2060	990	0.0512	0.0016
278	2060	980	0.0509	0.0024
278	2300	1200	0.0636	0.0009
278	2340	1270	0.0661	0.0009
278	2340	1260	0.0665	0.0011
268	1130	310	0.0144	0.0008
268	1170	340	0.0153	0.0008
268	1430	610	0.0295	0.0035
268	1470	640	0.0322	0.0035
268	1670	850	0.0387	0.0043
268	1720	890	0.0437	0.0043
268	1910	1090	0.0544	0.0012
