Measured thermophysical data. PrhoT measurements and derived properties of liquid 1-alkanols
Source: J. Chem. Thermodyn., 2012, 10.1016/j.jct.2011.10.023
Compound 1: ethanol, C2H6O, InChI=1S/C2H6O/c1-2-3/h3H,2H2,1H3, purity 99.8%
Compound 2: propan-1-ol, C3H8O, InChI=1S/C3H8O/c1-2-3-4/h4H,2-3H2,1H3, purity 99%
Compound 3: butan-1-ol, C4H10O, InChI=1S/C4H10O/c1-2-3-4-5/h5H,2-4H2,1H3, purity 99.9%
Compound 4: pentan-1-ol, C5H12O, InChI=1S/C5H12O/c1-2-3-4-5-6/h6H,2-5H2,1H3, purity 99%
Compound 5: hexan-1-ol, C6H14O, InChI=1S/C6H14O/c1-2-3-4-5-6-7/h7H,2-6H2,1H3, purity 99%
Compound 6: heptan-1-ol, C7H16O, InChI=1S/C7H16O/c1-2-3-4-5-6-7-8/h8H,2-7H2,1H3, purity 98%
Compound 7: octan-1-ol, C8H18O, InChI=1S/C8H18O/c1-2-3-4-5-6-7-8-9/h9H,2-8H2,1H3, purity 99.5%
Compound 8: nonan-1-ol, C9H20O, InChI=1S/C9H20O/c1-2-3-4-5-6-7-8-9-10/h10H,2-9H2,1H3, purity 98%
Compound 9: decan-1-ol, C10H22O, InChI=1S/C10H22O/c1-2-3-4-5-6-7-8-9-10-11/h11H,2-10H2,1H3, purity 99%
Compound 10: 1-undecanol, C11H24O, InChI=1S/C11H24O/c1-2-3-4-5-6-7-8-9-10-11-12/h12H,2-11H2,1H3, purity 99%

System: ethanol; phases: Liquid
Property: Mass density, kg/m3 (Liquid); method: Vibrating tube method
Temperature, K	Pressure, kPa	Mass density, kg/m3	uncertainty
278.15	100	801.9	2.4
278.15	1000	802.7	2.4
278.15	5000	805.9	2.4
278.15	10000	809.9	2.4
278.15	15000	813.6	2.4
278.15	20000	817.2	2.4
278.15	25000	820.6	2.4
278.15	30000	824	2.4
278.15	35000	827.2	2.4
278.15	40000	830.3	2.4
278.15	45000	833.3	2.4
278.15	50000	836.3	2.4
278.15	55000	839.1	2.4
278.15	60000	841.8	2.4
288.15	100	793.4	2.4
288.15	1000	794.2	2.4
288.15	5000	797.6	2.4
288.15	10000	801.8	2.4
288.15	15000	805.8	2.4
288.15	20000	809.5	2.4
288.15	25000	813.1	2.4
288.15	30000	816.6	2.4
288.15	35000	819.9	2.4
288.15	40000	823.1	2.4
288.15	45000	826.3	2.4
288.15	50000	829.3	2.4
288.15	55000	832.3	2.4
288.15	60000	835	2.4
298.15	100	784.8	2.4
298.15	1000	785.6	2.4
298.15	5000	789.3	2.4
298.15	10000	793.6	2.4
298.15	15000	797.7	2.4
298.15	20000	801.7	2.4
298.15	25000	805.3	2.4
298.15	30000	809	2.4
298.15	35000	812.5	2.4
298.15	40000	815.9	2.4
298.15	45000	819.2	2.4
298.15	50000	822.3	2.4
298.15	55000	825.4	2.4
298.15	60000	828.1	2.4
308.15	100	776.1	2.4
308.15	1000	777	2.4
308.15	5000	780.9	2.4
308.15	10000	785.4	2.4
308.15	15000	789.7	2.4
308.15	20000	793.9	2.4
308.15	25000	797.8	2.4
308.15	30000	801.5	2.4
308.15	35000	805.2	2.4
308.15	40000	808.7	2.4
308.15	45000	812	2.4
308.15	50000	815.3	2.4
308.15	55000	818.5	2.4
308.15	60000	821.4	2.4
318.15	100	767.4	2.4
318.15	1000	768.3	2.4
318.15	5000	772.4	2.4
318.15	10000	777.2	2.4
318.15	15000	781.7	2.4
318.15	20000	786	2.4
318.15	25000	790.1	2.4
318.15	30000	794	2.4
318.15	35000	797.8	2.4
318.15	40000	801.4	2.4
318.15	45000	804.9	2.4
318.15	50000	808.3	2.4
318.15	55000	811.6	2.4
318.15	60000	814.6	2.5
328.15	100	758.4	2.4
328.15	1000	759.4	2.4
328.15	5000	763.7	2.4
328.15	10000	768.8	2.4
328.15	15000	773.6	2.4
328.15	20000	778.1	2.4
328.15	25000	782.4	2.4
328.15	30000	786.5	2.4
328.15	35000	790.4	2.4
328.15	40000	794.2	2.4
328.15	45000	797.8	2.4
328.15	50000	801.3	2.4
328.15	55000	804.7	2.4
328.15	60000	807.8	2.5
338.15	100	749.1	2.4
338.15	1000	750.2	2.4
338.15	5000	754.8	2.4
338.15	10000	760.1	2.4
338.15	15000	765.2	2.4
338.15	20000	769.9	2.4
338.15	25000	774.4	2.4
338.15	30000	778.7	2.4
338.15	35000	782.8	2.4
338.15	40000	786.7	2.4
338.15	45000	790.5	2.4
338.15	50000	794.1	2.4
338.15	55000	797.7	2.5
338.15	60000	800.8	2.5
348.15	100	739.5	2.4
348.15	1000	740.7	2.4
348.15	5000	745.6	2.4
348.15	10000	751.3	2.4
348.15	15000	756.6	2.4
348.15	20000	761.6	2.4
348.15	25000	766.4	2.4
348.15	30000	770.8	2.4
348.15	35000	775.1	2.4
348.15	40000	779.2	2.4
348.15	45000	783.1	2.4
348.15	50000	786.9	2.5
348.15	55000	790.5	2.5
348.15	60000	793.8	2.5
358.15	100	729.5	2.4
358.15	1000	730.7	2.4
358.15	5000	736	2.4
358.15	10000	742.1	2.4
358.15	15000	747.7	2.4
358.15	20000	753	2.4
358.15	25000	758	2.4
358.15	30000	762.8	2.4
358.15	35000	767.2	2.4
358.15	40000	771.5	2.4
358.15	45000	775.6	2.4
358.15	50000	779.5	2.5
358.15	55000	783.3	2.5
358.15	60000	786.7	2.5

System: propan-1-ol; phases: Liquid
Property: Mass density, kg/m3 (Liquid); method: Vibrating tube method
Temperature, K	Pressure, kPa	Mass density, kg/m3	uncertainty
278.15	100	815.7	2.4
278.15	1000	816.4	2.4
278.15	5000	819.4	2.4
278.15	10000	822.8	2.4
278.15	15000	826.2	2.4
278.15	20000	829.4	2.4
278.15	25000	832.6	2.4
278.15	30000	835.7	2.4
278.15	35000	838.6	2.4
278.15	40000	841.5	2.4
278.15	45000	844.3	2.4
278.15	50000	847.1	2.4
278.15	55000	849.7	2.5
278.15	60000	852.1	2.5
288.15	100	807.8	2.4
288.15	1000	808.5	2.4
288.15	5000	811.6	2.4
288.15	10000	815.3	2.4
288.15	15000	818.9	2.4
288.15	20000	822.3	2.4
288.15	25000	825.5	2.4
288.15	30000	828.7	2.4
288.15	35000	831.8	2.4
288.15	40000	834.7	2.4
288.15	45000	837.6	2.4
288.15	50000	840.4	2.5
288.15	55000	843.1	2.5
288.15	60000	845.6	2.5
298.15	100	799.8	2.4
298.15	1000	800.5	2.4
298.15	5000	803.8	2.4
298.15	10000	807.6	2.4
298.15	15000	811.4	2.4
298.15	20000	814.9	2.4
298.15	25000	818.3	2.4
298.15	30000	821.6	2.4
298.15	35000	824.8	2.4
298.15	40000	827.9	2.4
298.15	45000	830.9	2.4
298.15	50000	833.8	2.5
298.15	55000	836.6	2.5
298.15	60000	839.2	2.5
308.15	100	791.6	2.4
308.15	1000	792.4	2.4
308.15	5000	795.8	2.4
308.15	10000	800.1	2.4
308.15	15000	803.8	2.4
308.15	20000	807.5	2.4
308.15	25000	811.1	2.4
308.15	30000	814.5	2.4
308.15	35000	817.8	2.4
308.15	40000	821	2.4
308.15	45000	824.1	2.5
308.15	50000	827.1	2.5
308.15	55000	830	2.5
308.15	60000	832.7	2.5
318.15	100	783.4	2.4
318.15	1000	784.2	2.4
318.15	5000	787.9	2.4
318.15	10000	792.2	2.4
318.15	15000	796.3	2.4
318.15	20000	800.2	2.4
318.15	25000	803.9	2.4
318.15	30000	807.5	2.4
318.15	35000	810.9	2.4
318.15	40000	814.2	2.4
318.15	45000	817.5	2.5
318.15	50000	820.5	2.5
318.15	55000	823.6	2.5
318.15	60000	825.8	2.5
328.15	100	775	2.4
328.15	1000	775.9	2.4
328.15	5000	779.7	2.4
328.15	10000	784.2	2.4
328.15	15000	788.5	2.4
328.15	20000	792.6	2.4
328.15	25000	796.5	2.4
328.15	30000	800.2	2.4
328.15	35000	803.8	2.4
328.15	40000	807.2	2.5
328.15	45000	810.6	2.5
328.15	50000	813.8	2.5
328.15	55000	816.9	2.5
328.15	60000	819.8	2.5
338.15	100	766.3	2.4
338.15	1000	767.2	2.4
338.15	5000	771.3	2.4
338.15	10000	776.1	2.4
338.15	15000	780.6	2.4
338.15	20000	784.9	2.4
338.15	25000	789	2.4
338.15	30000	792.9	2.4
338.15	35000	796.6	2.4
338.15	40000	800.2	2.5
338.15	45000	803.7	2.5
338.15	50000	807	2.5
338.15	55000	810.3	2.5
338.15	60000	813.4	2.5
348.15	100	757.2	2.4
348.15	1000	758.3	2.4
348.15	5000	762.6	2.4
348.15	10000	767.7	2.4
348.15	15000	772.5	2.4
348.15	20000	777	2.4
348.15	25000	781.3	2.4
348.15	30000	785.4	2.4
348.15	35000	789.3	2.4
348.15	40000	793	2.5
348.15	45000	796.6	2.5
348.15	50000	800.1	2.5
348.15	55000	803.5	2.5
348.15	60000	806.5	2.5
358.15	100	747.7	2.4
358.15	1000	748.8	2.4
358.15	5000	753.5	2.4
358.15	10000	758.8	2.4
358.15	15000	764	2.4
358.15	20000	768.7	2.4
358.15	25000	773.3	2.4
358.15	30000	777.5	2.4
358.15	35000	781.6	2.5
358.15	40000	785.5	2.5
358.15	45000	789.3	2.5
358.15	50000	792.9	2.5
358.15	55000	796.4	2.5
358.15	60000	799.6	2.5

System: butan-1-ol; phases: Liquid
Property: Mass density, kg/m3 (Liquid); method: Vibrating tube method
Temperature, K	Pressure, kPa	Mass density, kg/m3	uncertainty
278.15	100	820.9	2.4
278.15	1000	821.6	2.4
278.15	5000	824.4	2.4
278.15	10000	827.7	2.4
278.15	15000	830.9	2.4
278.15	20000	834	2.4
278.15	25000	837	2.4
278.15	30000	839.9	2.4
278.15	35000	842.7	2.4
278.15	40000	845.4	2.4
278.15	45000	848.1	2.4
278.15	50000	850.7	2.4
278.15	55000	853.2	2.4
278.15	60000	855.6	2.4
288.15	100	813.5	2.4
288.15	1000	814.1	2.4
288.15	5000	817	2.4
288.15	10000	820.5	2.4
288.15	15000	823.9	2.4
288.15	20000	827.2	2.4
288.15	25000	830.3	2.4
288.15	30000	833.2	2.4
288.15	35000	836.2	2.4
288.15	40000	839	2.4
288.15	45000	841.7	2.4
288.15	50000	844.4	2.4
288.15	55000	846.8	2.4
288.15	60000	849.4	2.4
298.15	100	805.8	2.4
298.15	1000	806.6	2.4
298.15	5000	809.6	2.4
298.15	10000	813.3	2.4
298.15	15000	816.8	2.4
298.15	20000	820.2	2.4
298.15	25000	823.5	2.4
298.15	30000	826.6	2.4
298.15	35000	829.6	2.4
298.15	40000	832.6	2.4
298.15	45000	835.4	2.4
298.15	50000	838.2	2.4
298.15	55000	840.9	2.4
298.15	60000	843.3	2.4
308.15	100	798	2.4
308.15	1000	798.8	2.4
308.15	5000	802	2.4
308.15	10000	805.9	2.4
308.15	15000	809.5	2.4
308.15	20000	813	2.4
308.15	25000	816.4	2.4
308.15	30000	819.7	2.4
308.15	35000	822.8	2.4
308.15	40000	825.9	2.4
308.15	45000	828.8	2.4
308.15	50000	831.7	2.4
308.15	55000	834.5	2.4
308.15	60000	837	2.4
318.15	100	790.3	2.4
318.15	1000	791.1	2.4
318.15	5000	794.5	2.4
318.15	10000	798.5	2.4
318.15	15000	802.4	2.4
318.15	20000	805.6	2.4
318.15	25000	809.5	2.4
318.15	30000	812.9	2.4
318.15	35000	816.1	2.4
318.15	40000	819.3	2.4
318.15	45000	822.4	2.4
318.15	50000	825.3	2.4
318.15	55000	828.2	2.4
318.15	60000	830.9	2.4
328.15	100	782.3	2.4
328.15	1000	783.1	2.4
328.15	5000	786.7	2.4
328.15	10000	790.9	2.4
328.15	15000	795	2.4
328.15	20000	798.8	2.4
328.15	25000	802.4	2.4
328.15	30000	806	2.4
328.15	35000	809.4	2.4
328.15	40000	812.7	2.4
328.15	45000	815.8	2.4
328.15	50000	818.9	2.4
328.15	55000	821.8	2.4
328.15	60000	824.6	2.4
338.15	100	774	2.4
338.15	1000	774.9	2.4
338.15	5000	778.7	2.4
338.15	10000	783.2	2.4
338.15	15000	787.4	2.4
338.15	20000	791.4	2.4
338.15	25000	795.3	2.4
338.15	30000	799	2.4
338.15	35000	802.5	2.4
338.15	40000	805.9	2.4
338.15	45000	809.2	2.4
338.15	50000	812.4	2.4
338.15	55000	815.4	2.4
338.15	60000	818.4	2.4
348.15	100	765.6	2.4
348.15	1000	766.3	2.4
348.15	5000	770.5	2.4
348.15	10000	775.3	2.4
348.15	15000	779.8	2.4
348.15	20000	784	2.4
348.15	25000	788	2.4
348.15	30000	791.8	2.4
348.15	35000	795.6	2.4
348.15	40000	799.1	2.4
348.15	45000	802.5	2.4
348.15	50000	805.8	2.4
348.15	55000	809	2.4
348.15	60000	811.9	2.5
358.15	100	756.6	2.4
358.15	1000	757.7	2.4
358.15	5000	761.7	2.4
358.15	10000	767	2.4
358.15	15000	771.7	2.4
358.15	20000	776.2	2.4
358.15	25000	780.4	2.4
358.15	30000	784.4	2.4
358.15	35000	788.3	2.4
358.15	40000	792	2.4
358.15	45000	795.5	2.4
358.15	50000	799	2.4
358.15	55000	802.3	2.4
358.15	60000	805.3	2.5

System: pentan-1-ol; phases: Liquid
Property: Mass density, kg/m3 (Liquid); method: Vibrating tube method
Temperature, K	Pressure, kPa	Mass density, kg/m3	uncertainty
278.15	100	825.2	2.4
278.15	1000	825.8	2.4
278.15	5000	828.5	2.4
278.15	10000	831.6	2.4
278.15	15000	834.7	2.4
278.15	20000	837.6	2.4
278.15	25000	840.4	2.4
278.15	30000	843.2	2.4
278.15	35000	845.9	2.4
278.15	40000	848.6	2.4
278.15	45000	851.1	2.4
278.15	50000	853.6	2.4
278.15	55000	856.1	2.5
278.15	60000	858.4	2.5
288.15	100	818	2.4
288.15	1000	818.7	2.4
288.15	5000	821.5	2.4
288.15	10000	824.8	2.4
288.15	15000	828	2.4
288.15	20000	831.1	2.4
288.15	25000	834	2.4
288.15	30000	836.9	2.4
288.15	35000	839.7	2.4
288.15	40000	842.4	2.4
288.15	45000	845	2.4
288.15	50000	847.6	2.4
288.15	55000	850.1	2.5
288.15	60000	852.5	2.5
298.15	100	810.7	2.4
298.15	1000	811.3	2.4
298.15	5000	814.2	2.4
298.15	10000	817.7	2.4
298.15	15000	821	2.4
298.15	20000	824.3	2.4
298.15	25000	827.3	2.4
298.15	30000	830.3	2.4
298.15	35000	833.2	2.4
298.15	40000	836	2.4
298.15	45000	838.7	2.4
298.15	50000	841.4	2.5
298.15	55000	844	2.5
298.15	60000	846.4	2.5
308.15	100	803.3	2.4
308.15	1000	804	2.4
308.15	5000	807	2.4
308.15	10000	810.7	2.4
308.15	15000	814	2.4
308.15	20000	817.5	2.4
308.15	25000	820.7	2.4
308.15	30000	823.8	2.4
308.15	35000	826.8	2.4
308.15	40000	829.7	2.4
308.15	45000	832.5	2.4
308.15	50000	835.3	2.5
308.15	55000	838	2.5
308.15	60000	840.4	2.5
318.15	100	795.8	2.4
318.15	1000	796.6	2.4
318.15	5000	799.8	2.4
318.15	10000	803.6	2.4
318.15	15000	807.2	2.4
318.15	20000	810.7	2.4
318.15	25000	814	2.4
318.15	30000	817.3	2.4
318.15	35000	820.4	2.4
318.15	40000	823.4	2.4
318.15	45000	826.3	2.5
318.15	50000	829.1	2.5
318.15	55000	831.9	2.5
318.15	60000	834.6	2.5
328.15	100	788.2	2.4
328.15	1000	789	2.4
328.15	5000	792.3	2.4
328.15	10000	796.3	2.4
328.15	15000	800.1	2.4
328.15	20000	803.8	2.4
328.15	25000	807.2	2.4
328.15	30000	810.6	2.4
328.15	35000	813.8	2.4
328.15	40000	817	2.4
328.15	45000	820	2.5
328.15	50000	822.9	2.5
328.15	55000	825.8	2.5
328.15	60000	828.4	2.5
338.15	100	780.3	2.4
338.15	1000	781.2	2.4
338.15	5000	784.8	2.4
338.15	10000	788.9	2.4
338.15	15000	792.9	2.4
338.15	20000	796.7	2.4
338.15	25000	800.3	2.4
338.15	30000	803.8	2.4
338.15	35000	807.2	2.4
338.15	40000	810.5	2.4
338.15	45000	813.6	2.5
338.15	50000	816.6	2.5
338.15	55000	819.6	2.5
338.15	60000	822.5	2.5
348.15	100	772.3	2.4
348.15	1000	773.1	2.4
348.15	5000	776.9	2.4
348.15	10000	781.2	2.4
348.15	15000	785.5	2.4
348.15	20000	789.5	2.4
348.15	25000	793.3	2.4
348.15	30000	796.9	2.4
348.15	35000	800.4	2.4
348.15	40000	803.8	2.5
348.15	45000	807.1	2.5
348.15	50000	810.3	2.5
348.15	55000	813.3	2.5
348.15	60000	816.2	2.5
358.15	100	763.8	2.4
358.15	1000	764.8	2.4
358.15	5000	768.8	2.4
358.15	10000	773.5	2.4
358.15	15000	777.9	2.4
358.15	20000	782.1	2.4
358.15	25000	786.1	2.4
358.15	30000	789.9	2.4
358.15	35000	793.6	2.4
358.15	40000	797.1	2.5
358.15	45000	800.5	2.5
358.15	50000	803.8	2.5
358.15	55000	807	2.5
358.15	60000	810	2.5

System: hexan-1-ol; phases: Liquid
Property: Mass density, kg/m3 (Liquid); method: Vibrating tube method
Temperature, K	Pressure, kPa	Mass density, kg/m3	uncertainty
278.15	100	828.9	2.4
278.15	1000	829.5	2.4
278.15	5000	832	2.4
278.15	10000	835	2.4
278.15	15000	838	2.4
278.15	20000	840.8	2.4
278.15	25000	843.6	2.4
278.15	30000	846.3	2.4
278.15	35000	848.9	2.4
278.15	40000	851.4	2.4
278.15	45000	853.9	2.4
278.15	50000	856.3	2.4
278.15	55000	858.7	2.4
278.15	60000	860.9	2.5
288.15	100	822.1	2.4
288.15	1000	822.7	2.4
288.15	5000	825.3	2.4
288.15	10000	828.5	2.4
288.15	15000	831.6	2.4
288.15	20000	834.6	2.4
288.15	25000	837.4	2.4
288.15	30000	840.2	2.4
288.15	35000	842.9	2.4
288.15	40000	845.5	2.4
288.15	45000	848	2.4
288.15	50000	850.5	2.4
288.15	55000	853	2.5
288.15	60000	855.4	2.5
298.15	100	814.9	2.4
298.15	1000	815.6	2.4
298.15	5000	818.4	2.4
298.15	10000	821.7	2.4
298.15	15000	824.9	2.4
298.15	20000	828	2.4
298.15	25000	830.9	2.4
298.15	30000	833.8	2.4
298.15	35000	836.6	2.4
298.15	40000	839.4	2.4
298.15	45000	842	2.4
298.15	50000	844.6	2.5
298.15	55000	847.1	2.5
298.15	60000	849.6	2.5
308.15	100	807.8	2.4
308.15	1000	808.4	2.4
308.15	5000	811.4	2.4
308.15	10000	814.8	2.4
308.15	15000	818.2	2.4
308.15	20000	821.4	2.4
308.15	25000	824.5	2.4
308.15	30000	827.5	2.4
308.15	35000	830.3	2.4
308.15	40000	833.2	2.4
308.15	45000	835.9	2.4
308.15	50000	838.5	2.5
308.15	55000	841.1	2.5
308.15	60000	843.5	2.5
318.15	100	800.5	2.4
318.15	1000	801.2	2.4
318.15	5000	804.3	2.4
318.15	10000	807.9	2.4
318.15	15000	811.4	2.4
318.15	20000	814.7	2.4
318.15	25000	817.9	2.4
318.15	30000	821	2.4
318.15	35000	824	2.4
318.15	40000	826.9	2.4
318.15	45000	829.7	2.4
318.15	50000	832.4	2.5
318.15	55000	835.1	2.5
318.15	60000	837.7	2.5
328.15	100	793	2.4
328.15	1000	793.7	2.4
328.15	5000	797	2.4
328.15	10000	800.8	2.4
328.15	15000	804.4	2.4
328.15	20000	807.9	2.4
328.15	25000	811.2	2.4
328.15	30000	814.4	2.4
328.15	35000	817.6	2.4
328.15	40000	820.6	2.4
328.15	45000	823.5	2.5
328.15	50000	826.4	2.5
328.15	55000	829.1	2.5
328.15	60000	831.6	2.5
338.15	100	785.4	2.4
338.15	1000	786.2	2.4
338.15	5000	789.6	2.4
338.15	10000	793.6	2.4
338.15	15000	797.4	2.4
338.15	20000	801	2.4
338.15	25000	804.5	2.4
338.15	30000	807.9	2.4
338.15	35000	811.1	2.4
338.15	40000	814.2	2.4
338.15	45000	817.3	2.5
338.15	50000	820.2	2.5
338.15	55000	823.1	2.5
338.15	60000	825.7	2.5
348.15	100	777.6	2.4
348.15	1000	778.4	2.4
348.15	5000	782	2.4
348.15	10000	786.2	2.4
348.15	15000	790.2	2.4
348.15	20000	794.1	2.4
348.15	25000	797.6	2.4
348.15	30000	801.2	2.4
348.15	35000	804.6	2.4
348.15	40000	807.8	2.4
348.15	45000	811	2.5
348.15	50000	814	2.5
348.15	55000	817	2.5
348.15	60000	819.7	2.5
358.15	100	769.4	2.4
358.15	1000	770	2.4
358.15	5000	774.2	2.4
358.15	10000	778.6	2.4
358.15	15000	782.8	2.4
358.15	20000	786.9	2.4
358.15	25000	790.7	2.4
358.15	30000	794.3	2.4
358.15	35000	797.9	2.4
358.15	40000	801.3	2.5
358.15	45000	804.6	2.5
358.15	50000	807.7	2.5
358.15	55000	810.8	2.5
358.15	60000	813.5	2.5

System: heptan-1-ol; phases: Liquid
Property: Mass density, kg/m3 (Liquid); method: Vibrating tube method
Temperature, K	Pressure, kPa	Mass density, kg/m3	uncertainty
278.15	100	832.4	2.5
278.15	1000	833	2.5
278.15	5000	835.4	2.5
278.15	10000	838.3	2.5
278.15	15000	841.2	2.5
278.15	20000	843.9	2.5
278.15	25000	846.4	2.5
278.15	30000	849.2	2.5
278.15	35000	851.7	2.5
278.15	40000	854.2	2.5
278.15	45000	856.6	2.5
278.15	50000	859	2.6
278.15	55000	861.3	2.6
278.15	60000	863.4	2.6
288.15	100	825.5	2.5
288.15	1000	826.1	2.5
288.15	5000	828.6	2.5
288.15	10000	831.7	2.5
288.15	15000	834.7	2.5
288.15	20000	837.6	2.5
288.15	25000	840.4	2.5
288.15	30000	843.1	2.5
288.15	35000	845.7	2.5
288.15	40000	848.2	2.5
288.15	45000	850.7	2.5
288.15	50000	853.1	2.6
288.15	55000	855.5	2.6
288.15	60000	857.8	2.6
298.15	100	818.5	2.5
298.15	1000	819.1	2.5
298.15	5000	821.8	2.5
298.15	10000	824.9	2.5
298.15	15000	828.1	2.5
298.15	20000	831.1	2.5
298.15	25000	833.9	2.5
298.15	30000	836.7	2.5
298.15	35000	839.5	2.5
298.15	40000	842.1	2.5
298.15	45000	844.7	2.5
298.15	50000	847.2	2.6
298.15	55000	849.7	2.6
298.15	60000	852.1	2.6
308.15	100	811.4	2.5
308.15	1000	812.1	2.5
308.15	5000	814.7	2.5
308.15	10000	818.3	2.5
308.15	15000	821.5	2.5
308.15	20000	824.6	2.5
308.15	25000	827.6	2.5
308.15	30000	830.5	2.5
308.15	35000	833.3	2.5
308.15	40000	836	2.5
308.15	45000	838.7	2.6
308.15	50000	841.3	2.6
308.15	55000	843.8	2.6
308.15	60000	846.1	2.6
318.15	100	804.3	2.5
318.15	1000	805	2.5
318.15	5000	807.9	2.5
318.15	10000	811.4	2.5
318.15	15000	814.8	2.5
318.15	20000	818.1	2.5
318.15	25000	821.2	2.5
318.15	30000	824.2	2.5
318.15	35000	827.1	2.5
318.15	40000	829.9	2.5
318.15	45000	832.7	2.6
318.15	50000	835.4	2.6
318.15	55000	838	2.6
318.15	60000	840.4	2.6
328.15	100	797.1	2.5
328.15	1000	797.8	2.5
328.15	5000	800.9	2.5
328.15	10000	804.6	2.5
328.15	15000	808.1	2.5
328.15	20000	811.5	2.5
328.15	25000	814.7	2.5
328.15	30000	817.8	2.5
328.15	35000	820.8	2.5
328.15	40000	823.8	2.5
328.15	45000	826.6	2.6
328.15	50000	829.4	2.6
328.15	55000	832.1	2.6
328.15	60000	834.5	2.6
338.15	100	789.7	2.5
338.15	1000	790.4	2.5
338.15	5000	793.7	2.5
338.15	10000	797.5	2.5
338.15	15000	801.2	2.5
338.15	20000	804.7	2.5
338.15	25000	808.1	2.5
338.15	30000	811.4	2.5
338.15	35000	814.6	2.5
338.15	40000	817.5	2.5
338.15	45000	820.6	2.6
338.15	50000	823.4	2.6
338.15	55000	826.2	2.6
338.15	60000	828.7	2.6
348.15	100	782.1	2.5
348.15	1000	782.9	2.5
348.15	5000	786.3	2.5
348.15	10000	790.4	2.5
348.15	15000	794.2	2.5
348.15	20000	797.9	2.5
348.15	25000	801.4	2.5
348.15	30000	804.8	2.5
348.15	35000	808.1	2.5
348.15	40000	811.3	2.5
348.15	45000	814.3	2.6
348.15	50000	817.3	2.6
348.15	55000	820.2	2.6
348.15	60000	822.8	2.6
358.15	100	774.2	2.5
358.15	1000	775.1	2.5
358.15	5000	778.7	2.5
358.15	10000	783	2.5
358.15	15000	787.1	2.5
358.15	20000	790.9	2.5
358.15	25000	794.6	2.5
358.15	30000	798.2	2.5
358.15	35000	801.5	2.5
358.15	40000	804.9	2.5
358.15	45000	808.1	2.6
358.15	50000	811.1	2.6
358.15	55000	814.1	2.6
358.15	60000	816.9	2.6

System: octan-1-ol; phases: Liquid
Property: Mass density, kg/m3 (Liquid); method: Vibrating tube method
Temperature, K	Pressure, kPa	Mass density, kg/m3	uncertainty
278.15	100	835.2	2.4
278.15	1000	835.7	2.4
278.15	5000	838	2.4
278.15	10000	841	2.4
278.15	15000	843.7	2.4
278.15	20000	846.4	2.4
278.15	25000	849	2.4
278.15	30000	851.5	2.4
278.15	35000	854	2.4
278.15	40000	856.4	2.4
278.15	45000	858.8	2.4
278.15	50000	861.1	2.4
278.15	55000	863.4	2.4
278.15	60000	865.5	2.4
288.15	100	828.4	2.4
288.15	1000	829	2.4
288.15	5000	831.5	2.4
288.15	10000	834.4	2.4
288.15	15000	837.3	2.4
288.15	20000	840.1	2.4
288.15	25000	842.8	2.4
288.15	30000	845.5	2.4
288.15	35000	848	2.4
288.15	40000	850.5	2.4
288.15	45000	852.9	2.4
288.15	50000	855.3	2.4
288.15	55000	857.6	2.4
288.15	60000	859.8	2.4
298.15	100	821.4	2.4
298.15	1000	822	2.4
298.15	5000	824.6	2.4
298.15	10000	827.7	2.4
298.15	15000	830.7	2.4
298.15	20000	833.6	2.4
298.15	25000	836.4	2.4
298.15	30000	839.1	2.4
298.15	35000	841.8	2.4
298.15	40000	844.4	2.4
298.15	45000	846.9	2.4
298.15	50000	849.4	2.4
298.15	55000	851.7	2.4
298.15	60000	853.9	2.4
308.15	100	814.5	2.4
308.15	1000	815.1	2.4
308.15	5000	817.8	2.4
308.15	10000	821.1	2.4
308.15	15000	824.2	2.4
308.15	20000	827.2	2.4
308.15	25000	830.1	2.4
308.15	30000	833	2.4
308.15	35000	835.7	2.4
308.15	40000	838.4	2.4
308.15	45000	841	2.4
308.15	50000	843.5	2.4
308.15	55000	846	2.4
308.15	60000	848.2	2.4
318.15	100	807.5	2.4
318.15	1000	808.1	2.4
318.15	5000	811	2.4
318.15	10000	814.4	2.4
318.15	15000	817.7	2.4
318.15	20000	820.8	2.4
318.15	25000	823.8	2.4
318.15	30000	826.8	2.4
318.15	35000	829.6	2.4
318.15	40000	832.4	2.4
318.15	45000	835.1	2.4
318.15	50000	837.7	2.4
318.15	55000	840.3	2.4
318.15	60000	842.6	2.4
328.15	100	800.4	2.4
328.15	1000	801.1	2.4
328.15	5000	804.1	2.4
328.15	10000	807.7	2.4
328.15	15000	811.1	2.4
328.15	20000	814.4	2.4
328.15	25000	817.5	2.4
328.15	30000	820.5	2.4
328.15	35000	823.5	2.4
328.15	40000	826.4	2.4
328.15	45000	829.1	2.4
328.15	50000	831.9	2.4
328.15	55000	834.5	2.4
328.15	60000	836.9	2.4
338.15	100	793.2	2.4
338.15	1000	793.9	2.4
338.15	5000	796.9	2.4
338.15	10000	800.8	2.4
338.15	15000	804.4	2.4
338.15	20000	807.8	2.4
338.15	25000	811.1	2.4
338.15	30000	814.2	2.4
338.15	35000	817.3	2.4
338.15	40000	820.3	2.4
338.15	45000	823.1	2.4
338.15	50000	825.9	2.4
338.15	55000	828.7	2.4
338.15	60000	831.2	2.4
348.15	100	785.6	2.4
348.15	1000	786.4	2.4
348.15	5000	789.8	2.4
348.15	10000	793.6	2.4
348.15	15000	797.4	2.4
348.15	20000	801	2.4
348.15	25000	804.5	2.4
348.15	30000	807.8	2.4
348.15	35000	810.9	2.4
348.15	40000	814	2.4
348.15	45000	817	2.4
348.15	50000	819.9	2.4
348.15	55000	822.7	2.4
348.15	60000	825.5	2.5
358.15	100	778	2.4
358.15	1000	778.8	2.4
358.15	5000	782.3	2.4
358.15	10000	786.4	2.4
358.15	15000	790.4	2.4
358.15	20000	794.1	2.4
358.15	25000	797.7	2.4
358.15	30000	801.1	2.4
358.15	35000	804.5	2.4
358.15	40000	807.7	2.4
358.15	45000	810.8	2.4
358.15	50000	813.6	2.4
358.15	55000	816.7	2.4
358.15	60000	819.6	2.5

System: nonan-1-ol; phases: Liquid
Property: Mass density, kg/m3 (Liquid); method: Vibrating tube method
Temperature, K	Pressure, kPa	Mass density, kg/m3	uncertainty
278.15	100	836.9	2.5
278.15	1000	837.4	2.5
278.15	5000	839.7	2.5
278.15	10000	842.5	2.5
278.15	15000	845.1	2.5
278.15	20000	847.8	2.5
278.15	25000	850.3	2.5
278.15	30000	852.8	2.5
278.15	35000	855.3	2.5
278.15	40000	857.6	2.5
278.15	45000	859.9	2.5
278.15	50000	862.2	2.6
278.15	55000	864.4	2.6
278.15	60000	866.4	2.6
288.15	100	829.9	2.5
288.15	1000	830.5	2.5
288.15	5000	832.7	2.5
288.15	10000	835.9	2.5
288.15	15000	838.7	2.5
288.15	20000	841.4	2.5
288.15	25000	844	2.5
288.15	30000	846.6	2.5
288.15	35000	849.1	2.5
288.15	40000	851.6	2.5
288.15	45000	854	2.5
288.15	50000	856.3	2.6
288.15	55000	858.6	2.6
288.15	60000	860.7	2.6
298.15	100	823.2	2.5
298.15	1000	823.7	2.5
298.15	5000	826.3	2.5
298.15	10000	829.4	2.5
298.15	15000	832.3	2.5
298.15	20000	835.1	2.5
298.15	25000	837.9	2.5
298.15	30000	840.5	2.5
298.15	35000	843.1	2.5
298.15	40000	845.7	2.5
298.15	45000	848.1	2.5
298.15	50000	850.5	2.6
298.15	55000	852.9	2.6
298.15	60000	855	2.6
308.15	100	816.5	2.5
308.15	1000	817.1	2.5
308.15	5000	819.8	2.5
308.15	10000	822.9	2.5
308.15	15000	826	2.5
308.15	20000	828.9	2.5
308.15	25000	831.8	2.5
308.15	30000	834.5	2.5
308.15	35000	837.2	2.5
308.15	40000	839.8	2.5
308.15	45000	842.4	2.5
308.15	50000	844.8	2.6
308.15	55000	847.3	2.6
308.15	60000	849.3	2.6
318.15	100	809.8	2.5
318.15	1000	810.4	2.5
318.15	5000	813.2	2.5
318.15	10000	816.5	2.5
318.15	15000	819.7	2.5
318.15	20000	822.7	2.5
318.15	25000	825.6	2.5
318.15	30000	828.5	2.5
318.15	35000	831.3	2.5
318.15	40000	834	2.5
318.15	45000	836.6	2.6
318.15	50000	839.2	2.6
318.15	55000	841.7	2.6
318.15	60000	844	2.6
328.15	100	802.8	2.5
328.15	1000	803.4	2.5
328.15	5000	806.3	2.5
328.15	10000	809.8	2.5
328.15	15000	813.1	2.5
328.15	20000	816.3	2.5
328.15	25000	819.3	2.5
328.15	30000	822.3	2.5
328.15	35000	825.2	2.5
328.15	40000	828	2.5
328.15	45000	830.7	2.6
328.15	50000	833.4	2.6
328.15	55000	836	2.6
328.15	60000	838.3	2.6
338.15	100	795.7	2.5
338.15	1000	796.4	2.5
338.15	5000	799.4	2.5
338.15	10000	803	2.5
338.15	15000	806.5	2.5
338.15	20000	809.8	2.5
338.15	25000	813	2.5
338.15	30000	816.1	2.5
338.15	35000	819.1	2.5
338.15	40000	822	2.5
338.15	45000	824.8	2.6
338.15	50000	827.6	2.6
338.15	55000	830.2	2.6
338.15	60000	832.7	2.6
348.15	100	788.3	2.5
348.15	1000	788.9	2.5
348.15	5000	792.3	2.5
348.15	10000	796.1	2.5
348.15	15000	799.7	2.5
348.15	20000	803.2	2.5
348.15	25000	806.6	2.5
348.15	30000	809.8	2.5
348.15	35000	812.9	2.5
348.15	40000	815.9	2.5
348.15	45000	818.8	2.6
348.15	50000	821.6	2.6
348.15	55000	824.4	2.6
348.15	60000	826.7	2.6
358.15	100	780.9	2.5
358.15	1000	781.6	2.5
358.15	5000	785	2.5
358.15	10000	789	2.5
358.15	15000	792.9	2.5
358.15	20000	796.5	2.5
358.15	25000	799.9	2.5
358.15	30000	803.3	2.5
358.15	35000	806.6	2.5
358.15	40000	809.7	2.5
358.15	45000	812.8	2.6
358.15	50000	815.7	2.6
358.15	55000	818.6	2.6
358.15	60000	821.2	2.6

System: decan-1-ol; phases: Liquid
Property: Mass density, kg/m3 (Liquid); method: Vibrating tube method
Temperature, K	Pressure, kPa	Mass density, kg/m3	uncertainty
288.15	100	832.3	2.4
288.15	1000	832.8	2.4
288.15	5000	835.2	2.4
288.15	10000	838	2.4
288.15	15000	840.8	2.4
288.15	20000	843.5	2.4
288.15	25000	846.1	2.4
288.15	30000	848.6	2.4
288.15	35000	851.1	2.4
288.15	40000	853.5	2.4
288.15	45000	855.9	2.4
288.15	50000	858.2	2.4
288.15	55000	860.4	2.4
288.15	60000	862.7	2.5
298.15	100	825.5	2.4
298.15	1000	826	2.4
298.15	5000	828.5	2.4
298.15	10000	831.5	2.4
298.15	15000	834.4	2.4
298.15	20000	837.2	2.4
298.15	25000	839.8	2.4
298.15	30000	842.5	2.4
298.15	35000	845.1	2.4
298.15	40000	847.6	2.4
298.15	45000	850	2.4
298.15	50000	852.4	2.4
298.15	55000	854.7	2.5
298.15	60000	856.8	2.5
308.15	100	818.7	2.4
308.15	1000	819.3	2.4
308.15	5000	821.9	2.4
308.15	10000	825	2.4
308.15	15000	828	2.4
308.15	20000	830.9	2.4
308.15	25000	833.7	2.4
308.15	30000	836.4	2.4
308.15	35000	839.1	2.4
308.15	40000	841.7	2.4
308.15	45000	844.2	2.4
308.15	50000	846.6	2.4
308.15	55000	849	2.5
308.15	60000	851.2	2.5
318.15	100	811.9	2.4
318.15	1000	812.5	2.4
318.15	5000	815.3	2.4
318.15	10000	818.5	2.4
318.15	15000	821.7	2.4
318.15	20000	824.7	2.4
318.15	25000	827.6	2.4
318.15	30000	830.4	2.4
318.15	35000	833.2	2.4
318.15	40000	835.8	2.4
318.15	45000	838.5	2.4
318.15	50000	841	2.5
318.15	55000	843.4	2.5
318.15	60000	845.7	2.5
328.15	100	805	2.4
328.15	1000	805.7	2.4
328.15	5000	808.5	2.4
328.15	10000	811.9	2.4
328.15	15000	815.2	2.4
328.15	20000	818.3	2.4
328.15	25000	821.4	2.4
328.15	30000	824.3	2.4
328.15	35000	827.1	2.4
328.15	40000	829.9	2.4
328.15	45000	832.6	2.4
328.15	50000	835.2	2.5
328.15	55000	837.7	2.5
328.15	60000	840.2	2.5
338.15	100	798	2.4
338.15	1000	798.7	2.4
338.15	5000	801.7	2.4
338.15	10000	805.2	2.4
338.15	15000	808.7	2.4
338.15	20000	812	2.4
338.15	25000	815.1	2.4
338.15	30000	818.1	2.4
338.15	35000	821.1	2.4
338.15	40000	824	2.4
338.15	45000	826.7	2.5
338.15	50000	829.4	2.5
338.15	55000	832.1	2.5
338.15	60000	834.5	2.5
348.15	100	790.9	2.4
348.15	1000	791.6	2.4
348.15	5000	794.8	2.4
348.15	10000	798.5	2.4
348.15	15000	802	2.4
348.15	20000	805.5	2.4
348.15	25000	808.8	2.4
348.15	30000	811.9	2.4
348.15	35000	815	2.4
348.15	40000	817.9	2.4
348.15	45000	820.8	2.5
348.15	50000	823.6	2.5
348.15	55000	826.4	2.5
348.15	60000	829	2.5
358.15	100	783.6	2.4
358.15	1000	784.3	2.4
358.15	5000	787.6	2.4
358.15	10000	791.6	2.4
358.15	15000	795.3	2.4
358.15	20000	798.9	2.4
358.15	25000	802.3	2.4
358.15	30000	805.6	2.4
358.15	35000	808.8	2.4
358.15	40000	811.9	2.4
358.15	45000	814.8	2.5
358.15	50000	817.7	2.5
358.15	55000	820.5	2.5
358.15	60000	822.9	2.5

System: 1-undecanol; phases: Liquid
Property: Mass density, kg/m3 (Liquid); method: Vibrating tube method
Temperature, K	Pressure, kPa	Mass density, kg/m3	uncertainty
298.15	100	827.7	2.4
298.15	1000	828.2	2.4
298.15	5000	830.7	2.4
298.15	10000	833.6	2.4
298.15	15000	836.4	2.4
298.15	20000	839.2	2.4
298.15	25000	841.8	2.4
298.15	30000	844.4	2.4
298.15	35000	846.9	2.4
298.15	40000	849.4	2.4
298.15	45000	851.8	2.4
298.15	50000	854.2	2.4
298.15	55000	856.5	2.5
298.15	60000	858.7	2.5
308.15	100	820.9	2.4
308.15	1000	821.5	2.4
308.15	5000	824	2.4
308.15	10000	827.1	2.4
308.15	15000	830	2.4
308.15	20000	832.9	2.4
308.15	25000	835.6	2.4
308.15	30000	838.3	2.4
308.15	35000	840.9	2.4
308.15	40000	843.4	2.4
308.15	45000	845.9	2.4
308.15	50000	848.3	2.4
308.15	55000	850.7	2.5
308.15	60000	852.9	2.5
318.15	100	814.1	2.4
318.15	1000	814.7	2.4
318.15	5000	817.4	2.4
318.15	10000	820.6	2.4
318.15	15000	823.7	2.4
318.15	20000	826.6	2.4
318.15	25000	829.5	2.4
318.15	30000	832.3	2.4
318.15	35000	834.8	2.4
318.15	40000	837.6	2.4
318.15	45000	840.1	2.4
318.15	50000	842.6	2.5
318.15	55000	845.1	2.5
318.15	60000	847.3	2.5
328.15	100	807.4	2.4
328.15	1000	808	2.4
328.15	5000	810.8	2.4
328.15	10000	814.1	2.4
328.15	15000	817.3	2.4
328.15	20000	820.4	2.4
328.15	25000	823.3	2.4
328.15	30000	826.2	2.4
328.15	35000	829	2.4
328.15	40000	831.7	2.4
328.15	45000	834.4	2.4
328.15	50000	837	2.5
328.15	55000	839.5	2.5
328.15	60000	841.8	2.5
338.15	100	800.5	2.4
338.15	1000	801.1	2.4
338.15	5000	803.9	2.4
338.15	10000	807.3	2.4
338.15	15000	810.6	2.4
338.15	20000	813.8	2.4
338.15	25000	816.9	2.4
338.15	30000	819.9	2.4
338.15	35000	822.8	2.4
338.15	40000	825.6	2.4
338.15	45000	828.4	2.4
338.15	50000	831	2.5
338.15	55000	833.6	2.5
338.15	60000	836	2.5
348.15	100	793.3	2.4
348.15	1000	793.8	2.4
348.15	5000	797.1	2.4
348.15	10000	800.8	2.4
348.15	15000	804.3	2.4
348.15	20000	807.6	2.4
348.15	25000	810.8	2.4
348.15	30000	813.9	2.4
348.15	35000	816.9	2.4
348.15	40000	819.9	2.4
348.15	45000	822.7	2.5
348.15	50000	825.5	2.5
348.15	55000	828.1	2.5
348.15	60000	830.7	2.5
358.15	100	786	2.4
358.15	1000	786.8	2.4
358.15	5000	790	2.4
358.15	10000	793.9	2.4
358.15	15000	797.6	2.4
358.15	20000	801.1	2.4
358.15	25000	804.4	2.4
358.15	30000	807.7	2.4
358.15	35000	810.8	2.4
358.15	40000	813.9	2.4
358.15	45000	816.6	2.5
358.15	50000	819.6	2.5
358.15	55000	822.4	2.5
358.15	60000	824.9	2.5
