Measured thermophysical data. Apparent molar volumes and compressibilities of alkaline earth metal ions in methanol and dimethylsulfoxide
Source: J. Chem. Thermodyn., 2010, 10.1016/j.jct.2010.04.013
Compound 1: dimethyl sulfoxide, C2H6OS, InChI=1S/C2H6OS/c1-4(2)3/h1-2H3
Compound 2: beryllium 1,1,1-trifluoromethanesulfonate, C2BeF6O6S2, InChI=1S/2CHF3O3S.Be/c2*2-1(3,4)8(5,6)7;/h2*(H,5,6,7);/q;;+2/p-2
Compound 3: magnesium perchlorate, Cl2MgO8, InChI=1S/2ClHO4.Mg/c2*2-1(3,4)5;/h2*(H,2,3,4,5);/q;;+2/p-2
Compound 4: calcium diperchlorate, CaCl2O8, InChI=1S/Ca.2ClHO4/c;2*2-1(3,4)5/h;2*(H,2,3,4,5)/q+2;;/p-2
Compound 5: strontium perchlorate, Cl2O8Sr, InChI=1S/2ClHO4.Sr/c2*2-1(3,4)5;/h2*(H,2,3,4,5);/q;;+2/p-2
Compound 6: barium perchlorate, BaCl2O8, InChI=1S/Ba.2ClHO4/c;2*2-1(3,4)5/h;2*(H,2,3,4,5)/q+2;;/p-2
Compound 7: sodium trifluoromethanesulfonate, CF3NaO3S, InChI=1S/CHF3O3S.Na/c2-1(3,4)8(5,6)7;/h(H,5,6,7);/q;+1/p-1
Compound 8: methanol, CH4O, InChI=1S/CH4O/c1-2/h2H,1H3

System: dimethyl sulfoxide + beryllium 1,1,1-trifluoromethanesulfonate; phases: Liquid
Fixed: Pressure, kPa = 101
Property: Mass density, kg/m3 (Liquid); method: Vibrating tube method
Temperature, K	Molality, mol/kg of beryllium 1,1,1-trifluoromethanesulfonate	Mass density, kg/m3	uncertainty
293.15	0.01855	1103.222	0.227
293.15	0.0259	1104.417	0.228
293.15	0.03349	1105.653	0.229
293.15	0.0433	1107.25	0.229
293.15	0.0531	1108.837	0.231
293.15	0.06815	1111.297	0.233
293.15	0.08651	1114.3	0.235
293.15	0.1051	1117.363	0.237
293.15	0.1237	1120.429	0.24
293.15	0.1446	1123.893	0.243
293.15	0.1621	1126.817	0.245
293.15	0	1100.206	0.225
298.15	0.01855	1098.208	0.226
298.15	0.0259	1099.407	0.227
298.15	0.03349	1100.645	0.228
298.15	0.0433	1102.251	0.229
298.15	0.0531	1103.844	0.23
298.15	0.06815	1106.31	0.232
298.15	0.08651	1109.323	0.234
298.15	0.1051	1112.399	0.236
298.15	0.1237	1115.479	0.239
298.15	0.1446	1118.951	0.242
298.15	0.1621	1121.882	0.244
298.15	0	1095.181	0.225
303.15	0.01855	1093.195	0.226
303.15	0.0259	1094.398	0.226
303.15	0.03349	1095.639	0.227
303.15	0.0433	1097.253	0.228
303.15	0.0531	1098.852	0.229
303.15	0.06815	1101.328	0.231
303.15	0.08651	1104.35	0.233
303.15	0.1051	1107.437	0.235
303.15	0.1237	1110.524	0.238
303.15	0.1446	1114.012	0.241
303.15	0.1621	1116.951	0.243
303.15	0	1090.156	0.224
313.15	0.01855	1083.176	0.224
313.15	0.0259	1084.387	0.225
313.15	0.03349	1085.64	0.226
313.15	0.0433	1087.265	0.226
313.15	0.0531	1088.875	0.227
313.15	0.06815	1091.369	0.229
313.15	0.08651	1094.414	0.231
313.15	0.1051	1097.519	0.234
313.15	0.1237	1100.633	0.236
313.15	0.1446	1104.141	0.238
313.15	0.1621	1107.094	0.241
313.15	0	1080.11	0.223
323.15	0.01855	1073.158	0.223
323.15	0.0259	1074.381	0.223
323.15	0.03349	1075.64	0.224
323.15	0.0433	1077.273	0.225
323.15	0.0531	1078.904	0.226
323.15	0.06815	1081.415	0.228
323.15	0.08651	1084.484	0.23
323.15	0.1051	1087.609	0.232
323.15	0.1237	1090.747	0.234
323.15	0.1446	1094.27	0.236
323.15	0.1621	1097.238	0.239
323.15	0	1070.07	0.221
333.15	0.01855	1063.137	0.222
333.15	0.0259	1064.37	0.222
333.15	0.03349	1065.636	0.223
333.15	0.0433	1067.287	0.224
333.15	0.0531	1068.925	0.225
333.15	0.06815	1071.461	0.226
333.15	0.08651	1074.552	0.228
333.15	0.1051	1077.694	0.23
333.15	0.1237	1080.856	0.232
333.15	0.1446	1084.406	0.235
333.15	0.1621	1087.394	0.237
333.15	0	1060.026	0.22

System: dimethyl sulfoxide + beryllium 1,1,1-trifluoromethanesulfonate; phases: Liquid
Fixed: Pressure, kPa = 101
Fixed: Temperature, K = 298.15
Property: Speed of sound, m/s (Liquid); method: Pulse-echo method
Molality, mol/kg of beryllium 1,1,1-trifluoromethanesulfonate	Speed of sound, m/s	uncertainty
0.0259	1484.14	0.91
0.03349	1484.14	0.92
0.0433	1484.14	0.92
0.0531	1484.14	0.92
0.06815	1484.14	0.92
0.08651	1484.14	0.93
0.1051	1484.14	0.93
0.1237	1484.14	0.94
0.1446	1484.14	0.94
0.1621	1484.14	0.95

System: dimethyl sulfoxide + magnesium perchlorate; phases: Liquid
Fixed: Pressure, kPa = 101
Property: Mass density, kg/m3 (Liquid); method: Vibrating tube method
Temperature, K	Molality, mol/kg of magnesium perchlorate	Mass density, kg/m3	uncertainty
293.15	0.02171	1103.818	0.23
293.15	0.03119	1105.398	0.231
293.15	0.04163	1107.145	0.232
293.15	0.05295	1109.036	0.233
293.15	0.06473	1111.011	0.235
293.15	0.08226	1113.968	0.237
293.15	0.1041	1117.668	0.239
293.15	0.1277	1121.687	0.242
293.15	0.1481	1125.192	0.244
293.15	0.1734	1129.534	0.247
293.15	0.1952	1133.307	0.25
293.15	0	1100.209	0.228
298.15	0.02171	1098.81	0.229
298.15	0.03119	1100.396	0.23
298.15	0.04163	1102.148	0.231
298.15	0.05295	1104.043	0.232
298.15	0.06473	1106.032	0.234
298.15	0.08226	1109	0.236
298.15	0.1041	1112.714	0.238
298.15	0.1277	1116.745	0.241
298.15	0.1481	1120.266	0.244
298.15	0.1734	1124.625	0.246
298.15	0.1952	1128.405	0.249
298.15	0	1095.183	0.227
303.15	0.02171	1093.8	0.228
303.15	0.03119	1095.394	0.23
303.15	0.04163	1097.156	0.23
303.15	0.05295	1099.06	0.232
303.15	0.06473	1101.055	0.233
303.15	0.08226	1104.035	0.235
303.15	0.1041	1107.764	0.238
303.15	0.1277	1111.814	0.24
303.15	0.1481	1115.342	0.243
303.15	0.1734	1119.722	0.245
303.15	0.1952	1123.519	0.248
303.15	0	1090.16	0.227
313.15	0.02171	1083.792	0.227
313.15	0.03119	1085.401	0.229
313.15	0.04163	1087.179	0.229
313.15	0.05295	1089.099	0.23
313.15	0.06473	1091.113	0.232
313.15	0.08226	1094.117	0.234
313.15	0.1041	1097.876	0.236
313.15	0.1277	1101.958	0.239
313.15	0.1481	1105.516	0.241
313.15	0.1734	1109.942	0.244
313.15	0.1952	1113.765	0.246
313.15	0	1080.117	0.226
323.15	0.02171	1073.79	0.226
323.15	0.03119	1075.413	0.227
323.15	0.04163	1077.202	0.228
323.15	0.05295	1079.147	0.229
323.15	0.06473	1081.179	0.231
323.15	0.08226	1084.213	0.232
323.15	0.1041	1087.999	0.235
323.15	0.1277	1092.118	0.237
323.15	0.1481	1095.705	0.24
323.15	0.1734	1100.169	0.242
323.15	0.1952	1104.025	0.245
323.15	0	1070.075	0.225
333.15	0.02171	1063.78	0.226
333.15	0.03119	1065.424	0.227
333.15	0.04163	1067.233	0.227
333.15	0.05295	1069.191	0.228
333.15	0.06473	1071.246	0.23
333.15	0.08226	1074.306	0.231
333.15	0.1041	1078.124	0.234
333.15	0.1277	1082.286	0.236
333.15	0.1481	1085.903	0.238
333.15	0.1734	1090.393	0.241
333.15	0.1952	1094.303	0.244
333.15	0	1060.024	0.224

System: dimethyl sulfoxide + magnesium perchlorate; phases: Liquid
Fixed: Pressure, kPa = 101
Fixed: Temperature, K = 298.15
Property: Speed of sound, m/s (Liquid); method: Pulse-echo method
Molality, mol/kg of magnesium perchlorate	Speed of sound, m/s	uncertainty
0.03119	1486.84	1.32
0.04163	1487.7	1.32
0.05295	1488.69	1.32
0.06473	1489.66	1.33
0.08226	1491.14	1.33
0.1041	1492.99	1.33
0.1277	1494.85	1.34
0.1481	1496.71	1.34
0.1734	1498.83	1.34
0.1952	1500.82	1.34

System: dimethyl sulfoxide + calcium diperchlorate; phases: Liquid
Fixed: Pressure, kPa = 101
Property: Mass density, kg/m3 (Liquid); method: Vibrating tube method
Temperature, K	Molality, mol/kg of calcium diperchlorate	Mass density, kg/m3	uncertainty
293.15	0.01996	1103.639	0.234
293.15	0.02505	1104.52	0.235
293.15	0.03085	1105.516	0.235
293.15	0.03807	1106.766	0.236
293.15	0.0488	1108.623	0.237
293.15	0.06089	1110.719	0.239
293.15	0.07827	1113.744	0.241
293.15	0.1006	1117.659	0.244
293.15	0.1214	1121.332	0.246
293.15	0.1417	1124.916	0.248
293.15	0.1651	1129.074	0.252
293.15	0.1858	1132.789	0.254
293.15	0	1100.209	0.232
298.15	0.01996	1098.628	0.233
298.15	0.02505	1099.508	0.234
298.15	0.03085	1100.513	0.235
298.15	0.03807	1101.766	0.235
298.15	0.0488	1103.632	0.236
298.15	0.06089	1105.734	0.238
298.15	0.07827	1108.771	0.24
298.15	0.1006	1112.705	0.243
298.15	0.1214	1116.388	0.245
298.15	0.1417	1119.986	0.248
298.15	0.1651	1124.16	0.251
298.15	0.1858	1127.882	0.253
298.15	0	1095.183	0.231
303.15	0.01996	1093.618	0.232
303.15	0.02505	1094.502	0.233
303.15	0.03085	1095.51	0.234
303.15	0.03807	1096.767	0.235
303.15	0.0488	1098.642	0.235
303.15	0.06089	1100.74	0.237
303.15	0.07827	1103.805	0.24
303.15	0.1006	1107.748	0.242
303.15	0.1214	1111.447	0.244
303.15	0.1417	1115.059	0.247
303.15	0.1651	1119.252	0.25
303.15	0.1858	1122.986	0.252
303.15	0	1090.16	0.231
313.15	0.01996	1083.608	0.231
313.15	0.02505	1084.5	0.232
313.15	0.03085	1085.518	0.233
313.15	0.03807	1086.783	0.233
313.15	0.0488	1088.67	0.234
313.15	0.06089	1090.799	0.236
313.15	0.07827	1093.879	0.238
313.15	0.1006	1097.851	0.241
313.15	0.1214	1101.583	0.243
313.15	0.1417	1105.218	0.245
313.15	0.1651	1109.444	0.248
313.15	0.1858	1113.2	0.251
313.15	0	1080.117	0.23
323.15	0.01996	1073.596	0.23
323.15	0.02505	1074.495	0.231
323.15	0.03085	1075.522	0.232
323.15	0.03807	1076.8	0.232
323.15	0.0488	1078.704	0.234
323.15	0.06089	1080.855	0.235
323.15	0.07827	1083.962	0.237
323.15	0.1006	1087.966	0.239
323.15	0.1214	1091.73	0.241
323.15	0.1417	1095.39	0.244
323.15	0.1651	1099.65	0.247
323.15	0.1858	1103.446	0.249
323.15	0	1070.075	0.229
333.15	0.01996	1063.585	0.23
333.15	0.02505	1064.496	0.231
333.15	0.03085	1065.535	0.231
333.15	0.03807	1066.824	0.231
333.15	0.0488	1068.739	0.232
333.15	0.06089	1070.908	0.234
333.15	0.07827	1074.047	0.236
333.15	0.1006	1078.078	0.238
333.15	0.1214	1081.883	0.24
333.15	0.1417	1085.568	0.242
333.15	0.1651	1089.87	0.246
333.15	0.1858	1093.695	0.248
333.15	0	1060.024	0.229

System: dimethyl sulfoxide + calcium diperchlorate; phases: Liquid
Fixed: Pressure, kPa = 101
Fixed: Temperature, K = 298.15
Property: Speed of sound, m/s (Liquid); method: Pulse-echo method
Molality, mol/kg of calcium diperchlorate	Speed of sound, m/s	uncertainty
0.03085	1486.76	1.32
0.03807	1487.35	1.32
0.0488	1488.19	1.32
0.06089	1489.29	1.33
0.07827	1490.77	1.33
0.1006	1492.62	1.33
0.1214	1494.48	1.34
0.1417	1496.15	1.34
0.1651	1498.2	1.34
0.1858	1500.08	1.35

System: dimethyl sulfoxide + strontium perchlorate; phases: Liquid
Fixed: Pressure, kPa = 101
Property: Mass density, kg/m3 (Liquid); method: Vibrating tube method
Temperature, K	Molality, mol/kg of strontium perchlorate	Mass density, kg/m3	uncertainty
293.15	0.02541	1105.835	0.273
293.15	0.03174	1107.234	0.274
293.15	0.04183	1109.481	0.276
293.15	0.05362	1112.117	0.278
293.15	0.06535	1114.748	0.28
293.15	0.08369	1118.882	0.282
293.15	0.1061	1123.958	0.286
293.15	0.1303	1129.525	0.29
293.15	0.1512	1134.317	0.294
293.15	0.1771	1140.367	0.299
293.15	0.1981	1145.33	0.303
293.15	0	1100.216	0.271
298.15	0.02541	1100.82	0.272
298.15	0.03174	1102.224	0.274
298.15	0.04183	1104.476	0.275
298.15	0.05362	1107.12	0.277
298.15	0.06535	1109.753	0.279
298.15	0.08369	1113.894	0.281
298.15	0.1061	1118.979	0.286
298.15	0.1303	1124.563	0.289
298.15	0.1512	1129.36	0.29
298.15	0.1771	1135.426	0.298
298.15	0.1981	1140.394	0.302
298.15	0	1095.183	0.27
303.15	0.02541	1095.811	0.272
303.15	0.03174	1097.218	0.273
303.15	0.04183	1099.474	0.275
303.15	0.05362	1102.125	0.276
303.15	0.06535	1104.764	0.278
303.15	0.08369	1108.917	0.281
303.15	0.1061	1114.008	0.285
303.15	0.1303	1119.603	0.288
303.15	0.1512	1124.416	0.292
303.15	0.1771	1130.488	0.297
303.15	0.1981	1135.465	0.301
303.15	0	1090.168	0.27
313.15	0.02541	1085.8	0.271
313.15	0.03174	1087.213	0.272
313.15	0.04183	1089.48	0.274
313.15	0.05362	1092.144	0.275
313.15	0.06535	1094.787	0.277
313.15	0.08369	1098.956	0.279
313.15	0.1061	1104.075	0.283
313.15	0.1303	1109.687	0.287
313.15	0.1512	1114.52	0.291
313.15	0.1771	1120.62	0.296
313.15	0.1981	1125.615	0.299
313.15	0	1080.117	0.269
323.15	0.02541	1075.789	0.27
323.15	0.03174	1077.21	0.271
323.15	0.04183	1079.489	0.272
323.15	0.05362	1082.158	0.274
323.15	0.06535	1084.82	0.276
323.15	0.08369	1089.011	0.278
323.15	0.1061	1094.145	0.282
323.15	0.1303	1099.789	0.286
323.15	0.1512	1104.652	0.289
323.15	0.1771	1110.77	0.294
323.15	0.1981	1115.783	0.297
323.15	0	1070.079	0.268
333.15	0.02541	1065.77	0.269
333.15	0.03174	1067.202	0.27
333.15	0.04183	1069.484	0.271
333.15	0.05362	1072.175	0.273
333.15	0.06535	1074.854	0.275
333.15	0.08369	1079.067	0.277
333.15	0.1061	1084.225	0.281
333.15	0.1303	1089.89	0.285
333.15	0.1512	1094.781	0.288
333.15	0.1771	1100.923	0.292
333.15	0.1981	1105.957	0.296
333.15	0	1060.034	0.267

System: dimethyl sulfoxide + strontium perchlorate; phases: Liquid
Fixed: Pressure, kPa = 101
Fixed: Temperature, K = 298.15
Property: Speed of sound, m/s (Liquid); method: Pulse-echo method
Molality, mol/kg of strontium perchlorate	Speed of sound, m/s	uncertainty
0.03174	1485.69	1.32
0.04183	1486.14	1.32
0.05362	1486.71	1.33
0.06535	1487.3	1.3
0.08369	1488.18	1.33
0.1061	1489.29	1.34
0.1303	1490.4	1.3
0.1512	1491.51	1.34
0.1771	1492.62	1.35
0.1981	1493.74	1.35

System: dimethyl sulfoxide + barium perchlorate; phases: Liquid
Fixed: Pressure, kPa = 101
Property: Mass density, kg/m3 (Liquid); method: Vibrating tube method
Temperature, K	Molality, mol/kg of barium perchlorate	Mass density, kg/m3	uncertainty
293.15	0.03102	1108.567	0.313
293.15	0.04247	1111.677	0.315
293.15	0.05458	1114.985	0.317
293.15	0.06931	1119.028	0.319
293.15	0.08432	1123.184	0.322
293.15	0.1063	1129.311	0.325
293.15	0.1359	1137.669	0.329
293.15	0.1651	1146.055	0.333
293.15	0.191	1153.549	0.338
293.15	0.222	1162.698	0.343
293.15	0.25	1171.025	0.345
293.15	0	1100.209	0.311
298.15	0.03102	1103.547	0.312
298.15	0.04247	1106.66	0.315
298.15	0.05458	1109.973	0.316
298.15	0.06931	1114.015	0.318
298.15	0.08432	1118.171	0.321
298.15	0.1063	1124.305	0.324
298.15	0.1359	1132.665	0.329
298.15	0.1651	1141.059	0.333
298.15	0.191	1148.55	0.337
298.15	0.222	1157.706	0.342
298.15	0.25	1166.039	0.344
298.15	0	1095.183	0.311
303.15	0.03102	1098.53	0.311
303.15	0.04247	1101.645	0.314
303.15	0.05458	1104.954	0.316
303.15	0.06931	1109.004	0.318
303.15	0.08432	1113.162	0.32
303.15	0.1063	1119.302	0.324
303.15	0.1359	1127.67	0.328
303.15	0.1651	1136.069	0.332
303.15	0.191	1143.566	0.337
303.15	0.222	1152.72	0.341
303.15	0.25	1161.058	0.343
303.15	0	1090.16	0.31
313.15	0.03102	1088.506	0.31
313.15	0.04247	1091.628	0.313
313.15	0.05458	1094.944	0.314
313.15	0.06931	1098.998	0.316
313.15	0.08432	1103.168	0.319
313.15	0.1063	1109.317	0.322
313.15	0.1359	1117.695	0.326
313.15	0.1651	1126.1	0.33
313.15	0.191	1133.606	0.335
313.15	0.222	1142.766	0.339
313.15	0.25	1151.112	0.342
313.15	0	1080.117	0.309
323.15	0.03102	1078.49	0.309
323.15	0.04247	1081.619	0.312
323.15	0.05458	1084.942	0.313
323.15	0.06931	1089.006	0.315
323.15	0.08432	1093.183	0.318
323.15	0.1063	1099.338	0.321
323.15	0.1359	1107.733	0.325
323.15	0.1651	1116.151	0.329
323.15	0.191	1123.67	0.334
323.15	0.222	1132.839	0.338
323.15	0.25	1141.213	0.341
323.15	0	1070.075	0.308
333.15	0.03102	1068.469	0.309
333.15	0.04247	1071.607	0.311
333.15	0.05458	1074.941	0.312
333.15	0.06931	1079.014	0.314
333.15	0.08432	1083.197	0.317
333.15	0.1063	1089.367	0.32
333.15	0.1359	1097.778	0.324
333.15	0.1651	1106.21	0.328
333.15	0.191	1113.739	0.333
333.15	0.222	1122.925	0.337
333.15	0.25	1131.314	0.34
333.15	0	1060.024	0.307

System: dimethyl sulfoxide + barium perchlorate; phases: Liquid
Fixed: Pressure, kPa = 101
Fixed: Temperature, K = 298.15
Property: Speed of sound, m/s (Liquid); method: Pulse-echo method
Molality, mol/kg of barium perchlorate	Speed of sound, m/s	uncertainty
0.04247	1485.24	1.31
0.05458	1485.51	1.31
0.06931	1485.98	1.31
0.08432	1486.34	1.31
0.10627	1486.81	1.31
0.1359	1487.82	1.31
0.1651	1488.55	1.31
0.191	1489.29	1.31
0.222	1490.4	1.3
0.25	1491.51	1.3

System: dimethyl sulfoxide + sodium trifluoromethanesulfonate; phases: Liquid
Fixed: Pressure, kPa = 101
Property: Mass density, kg/m3 (Liquid); method: Vibrating tube method
Temperature, K	Molality, mol/kg of sodium trifluoromethanesulfonate	Mass density, kg/m3	uncertainty
293.15	0	1100.21	0.18
298.15	0	1095.178	0.179
303.15	0	1090.156	0.177
313.15	0	1080.112	0.219
323.15	0	1090.07	0.441
333.15	0	1080.026	0.682
293.15	0.02641	1102.592	0.182
298.15	0.02641	1097.565	0.181
303.15	0.02641	1092.547	0.182
313.15	0.02641	1082.51	0.176
323.15	0.02641	1072.475	0.604
333.15	0.02641	1062.439	0.575
298.15	0.0331	1098.17	0.18
293.15	0.0331	1103.198	0.183
303.15	0.0331	1093.52	0.18
313.15	0.0331	1083.114	0.176
323.15	0.0331	1073.082	0.174
333.15	0.0331	1063.047	0.171
298.15	0.04651	1099.382	0.182
303.15	0.04651	1094.366	0.174
293.15	0.04651	1104.41	0.183
313.15	0.04651	1084.333	0.177
323.15	0.04651	1074.305	0.175
333.15	0.04651	1064.266	0.172
303.15	0.06041	1095.617	0.181
298.15	0.06041	1100.636	0.183
313.15	0.06041	1085.59	0.178
293.15	0.06041	1105.664	0.184
323.15	0.06041	1075.563	0.176
333.15	0.06041	1065.533	0.173
313.15	0.0788	1087.268	0.18
298.15	0.0788	1102.307	0.184
303.15	0.0788	1097.291	0.183
323.15	0.0788	1077.245	0.177
293.15	0.0788	1107.335	0.186
333.15	0.0788	1067.21	0.174
313.15	0.09603	1088.837	0.181
323.15	0.09603	1078.812	0.178
298.15	0.09603	1103.878	0.185
303.15	0.09603	1098.864	0.184
333.15	0.09603	1068.788	0.175
293.15	0.09603	1108.908	0.187
313.15	0.1218	1091.194	0.183
298.15	0.1218	1106.23	0.188
323.15	0.1218	1081.174	0.18
293.15	0.1218	1111.257	0.189
303.15	0.1218	1101.216	0.186
333.15	0.1218	1071.158	0.177
303.15	0.1568	1104.447	0.189
313.15	0.1568	1094.416	0.185
323.15	0.1568	1084.401	0.182
293.15	0.1568	1114.49	0.192
298.15	0.1568	1109.453	0.19
333.15	0.1568	1074.387	0.179
313.15	0.1917	1097.636	0.188
323.15	0.1917	1087.623	0.185
303.15	0.1917	1107.659	0.191
298.15	0.1917	1112.676	0.193
293.15	0.1917	1117.713	0.195
333.15	0.1917	1077.615	0.182
313.15	0.2205	1100.316	0.19
298.15	0.2205	1115.357	0.195
303.15	0.2205	1110.329	0.194
323.15	0.2205	1090.305	0.187
333.15	0.2205	1080.298	0.184
293.15	0.2205	1120.388	0.197
323.15	0.2625	1094.219	0.19
293.15	0.2625	1124.33	0.2
303.15	0.2625	1114.265	0.197
298.15	0.2625	1119.296	0.199
333.15	0.2625	1084.206	0.187
313.15	0.2625	1104.236	0.193

System: dimethyl sulfoxide + sodium trifluoromethanesulfonate; phases: Liquid
Fixed: Pressure, kPa = 101
Fixed: Temperature, K = 298.15
Property: Speed of sound, m/s (Liquid); method: Pulse-echo method
Molality, mol/kg of sodium trifluoromethanesulfonate	Speed of sound, m/s	uncertainty
0.04651	1482.67	1.32
0.06041	1482.21	1.32
0.0788	1481.58	1.32
0.09603	1480.95	1.33
0.1218	1480.12	1.33
0.1568	1479.02	1.33
0.1917	1477.57	1.33
0.2205	1476.48	1.34
0.2625	1475.03	1.34
0.2925	1473.94	1.34

System: methanol + beryllium 1,1,1-trifluoromethanesulfonate; phases: Liquid
Fixed: Pressure, kPa = 101
Property: Mass density, kg/m3 (Liquid); method: Vibrating tube method
Temperature, K	Molality, mol/kg of beryllium 1,1,1-trifluoromethanesulfonate	Mass density, kg/m3	uncertainty
283.15	0.05456	809.901	0.221
283.15	0.06745	812.098	0.221
283.15	0.08472	815.041	0.221
283.15	0.1077	818.969	0.221
283.15	0.1249	821.918	0.221
283.15	0.1421	824.885	0.221
283.15	0.1594	827.866	0.222
283.15	0.177	830.948	0.223
283.15	0	800.552	0.223
288.15	0.05456	805.251	0.223
288.15	0.06745	807.453	0.222
288.15	0.08472	810.402	0.222
288.15	0.1077	814.336	0.222
288.15	0.1249	817.294	0.222
288.15	0.1421	820.267	0.222
288.15	0.1594	823.252	0.223
288.15	0.177	826.34	0.224
288.15	0	795.874	0.224
293.15	0.05456	800.58	0.224
293.15	0.06745	802.786	0.223
293.15	0.08472	805.745	0.223
293.15	0.1077	809.691	0.223
293.15	0.1249	812.65	0.223
293.15	0.1421	815.629	0.223
293.15	0.1594	818.621	0.224
293.15	0.177	821.715	0.225
293.15	0	791.179	0.226
298.15	0.05456	795.899	0.225
298.15	0.06745	798.111	0.224
298.15	0.08472	801.074	0.224
298.15	0.1077	805.032	0.224
298.15	0.1249	807.996	0.224
298.15	0.1421	810.983	0.224
298.15	0.1594	813.979	0.225
298.15	0.177	817.077	0.226
298.15	0	786.469	0.227
303.15	0.05456	791.207	0.226
303.15	0.06745	793.424	0.225
303.15	0.08472	796.384	0.225
303.15	0.1077	800.359	0.225
303.15	0.1249	803.329	0.225
303.15	0.1421	806.316	0.225
303.15	0.1594	809.325	0.226
303.15	0.177	812.425	0.226
303.15	0	781.742	0.228
308.15	0.05456	786.489	0.227
308.15	0.06745	788.711	0.226
308.15	0.08472	791.686	0.226
308.15	0.1077	795.664	0.226
308.15	0.1249	798.644	0.226
308.15	0.1421	801.638	0.226
308.15	0.1594	804.652	0.227
308.15	0.177	807.764	0.227
308.15	0	776.993	0.229
313.15	0.05456	781.742	0.228
313.15	0.06745	783.973	0.228
313.15	0.08472	786.956	0.227
313.15	0.1077	790.942	0.227
313.15	0.1249	793.931	0.228
313.15	0.1421	796.936	0.227
313.15	0.1594	799.953	0.228
313.15	0.177	803.073	0.229
313.15	0	772.216	0.23

System: methanol + beryllium 1,1,1-trifluoromethanesulfonate; phases: Liquid
Fixed: Pressure, kPa = 101
Fixed: Temperature, K = 298.15
Property: Speed of sound, m/s (Liquid); method: Pulse-echo method
Molality, mol/kg of beryllium 1,1,1-trifluoromethanesulfonate	Speed of sound, m/s	uncertainty
0.05456	1105.39	1.16
0.06745	1106.21	1.16
0.08472	1107.22	1.16
0.1077	1108.45	1.16
0.1249	1109.47	1.16
0.1421	1110.29	1.17
0.1594	1111.12	1.17
0.177	1111.94	1.17

System: methanol + magnesium perchlorate; phases: Liquid
Fixed: Pressure, kPa = 101
Property: Mass density, kg/m3 (Liquid); method: Vibrating tube method
Temperature, K	Molality, mol/kg of magnesium perchlorate	Mass density, kg/m3	uncertainty
283.15	0.05219	809.719	0.225
283.15	0.06927	812.714	0.225
283.15	0.08495	815.487	0.225
283.15	0.1015	818.369	0.224
283.15	0.1173	821.156	0.225
283.15	0.1339	824.082	0.225
283.15	0.1663	829.827	0.225
283.15	0.1999	835.828	0.225
283.15	0.2312	841.439	0.226
283.15	0.2628	847.212	0.227
283.15	0.2917	852.468	0.227
283.15	0.3234	858.304	0.227
283.15	0	800.542	0.227
288.15	0.05219	805.077	0.227
288.15	0.06927	808.079	0.226
288.15	0.08495	810.862	0.226
288.15	0.1015	813.747	0.225
288.15	0.1173	816.545	0.226
288.15	0.1339	819.477	0.226
288.15	0.1663	825.238	0.226
288.15	0.1999	831.249	0.226
288.15	0.2312	836.878	0.227
288.15	0.2628	842.663	0.228
288.15	0.2917	847.932	0.228
288.15	0.3234	853.784	0.228
288.15	0	795.864	0.228
293.15	0.05219	800.41	0.228
293.15	0.06927	803.422	0.228
293.15	0.08495	806.214	0.227
293.15	0.1015	809.112	0.226
293.15	0.1173	811.914	0.227
293.15	0.1339	814.852	0.227
293.15	0.1663	820.63	0.227
293.15	0.1999	826.659	0.227
293.15	0.2312	832.301	0.228
293.15	0.2628	838.096	0.229
293.15	0.2917	843.38	0.229
293.15	0.3234	849.245	0.229
293.15	0	791.17	0.229
298.15	0.05219	795.738	0.229
298.15	0.06927	798.76	0.229
298.15	0.08495	801.554	0.228
298.15	0.1015	804.466	0.227
298.15	0.1173	807.277	0.228
298.15	0.1339	810.224	0.228
298.15	0.1663	816.008	0.228
298.15	0.1999	822.059	0.228
298.15	0.2312	827.71	0.229
298.15	0.2628	833.522	0.23
298.15	0.2917	838.819	0.23
298.15	0.3234	844.698	0.23
298.15	0	786.46	0.231
303.15	0.05219	791.047	0.23
303.15	0.06927	794.077	0.23
303.15	0.08495	796.877	0.229
303.15	0.1015	799.801	0.229
303.15	0.1173	802.62	0.229
303.15	0.1339	805.578	0.229
303.15	0.1663	811.382	0.229
303.15	0.1999	817.443	0.229
303.15	0.2312	823.106	0.23
303.15	0.2628	828.937	0.231
303.15	0.2917	834.243	0.231
303.15	0.3234	840.139	0.231
303.15	0	781.735	0.232
308.15	0.05219	786.336	0.232
308.15	0.06927	789.377	0.231
308.15	0.08495	792.189	0.23
308.15	0.1015	795.117	0.23
308.15	0.1173	797.944	0.23
308.15	0.1339	800.91	0.23
308.15	0.1663	806.732	0.23
308.15	0.1999	812.807	0.23
308.15	0.2312	818.493	0.231
308.15	0.2628	824.333	0.231
308.15	0.2917	829.645	0.232
308.15	0.3234	835.559	0.232
308.15	0	776.985	0.233
313.15	0.05219	781.598	0.233
313.15	0.06927	784.647	0.232
313.15	0.08495	787.47	0.231
313.15	0.1015	790.405	0.231
313.15	0.1173	793.24	0.231
313.15	0.1339	796.216	0.231
313.15	0.1663	802.054	0.231
313.15	0.1999	808.147	0.231
313.15	0.2312	813.847	0.232
313.15	0.2628	819.703	0.232
313.15	0.2917	825.025	0.233
313.15	0.3234	830.96	0.233
313.15	0	772.206	0.235

System: methanol + magnesium perchlorate; phases: Liquid
Fixed: Pressure, kPa = 101
Fixed: Temperature, K = 298.15
Property: Speed of sound, m/s (Liquid); method: Pulse-echo method
Molality, mol/kg of magnesium perchlorate	Speed of sound, m/s	uncertainty
0.05219	1109.88	1.16
0.06927	1112.56	1.16
0.08495	1115.24	1.16
0.1015	1117.52	1.16
0.1173	1120.02	1.16
0.1339	1122.53	1.16
0.1663	1127.17	1.17
0.1999	1132.48	1.17
0.2312	1137.2	1.17
0.2628	1141.95	1.18
0.2917	1146.53	1.18
0.3234	1151.8	1.18

System: methanol + calcium diperchlorate; phases: Liquid
Fixed: Pressure, kPa = 101
Property: Mass density, kg/m3 (Liquid); method: Vibrating tube method
Temperature, K	Molality, mol/kg of calcium diperchlorate	Mass density, kg/m3	uncertainty
283.15	0.04342	808.441	0.23
283.15	0.05807	811.094	0.229
283.15	0.07009	813.264	0.229
283.15	0.08408	815.804	0.229
283.15	0.09795	818.319	0.229
283.15	0.1113	820.755	0.229
283.15	0.1396	825.906	0.229
283.15	0.1663	830.829	0.231
283.15	0.1921	835.646	0.232
283.15	0.2177	840.443	0.231
283.15	0.2427	845.09	0.231
283.15	0.269	850.052	0.232
283.15	0	800.54	0.232
288.15	0.04342	803.768	0.231
288.15	0.05807	806.419	0.23
288.15	0.07009	808.591	0.23
288.15	0.08408	811.129	0.23
288.15	0.09795	813.643	0.23
288.15	0.1113	816.078	0.23
288.15	0.1396	821.224	0.23
288.15	0.1663	826.145	0.231
288.15	0.1921	830.963	0.232
288.15	0.2177	835.754	0.231
288.15	0.2427	840.401	0.232
288.15	0.269	845.358	0.232
288.15	0	795.862	0.232
293.15	0.04342	799.077	0.232
293.15	0.05807	801.722	0.231
293.15	0.07009	803.899	0.231
293.15	0.08408	806.432	0.23
293.15	0.09795	808.941	0.231
293.15	0.1113	811.379	0.231
293.15	0.1396	816.525	0.231
293.15	0.1663	821.443	0.232
293.15	0.1921	826.254	0.233
293.15	0.2177	831.044	0.232
293.15	0.2427	835.687	0.232
293.15	0.269	840.641	0.232
293.15	0	791.168	0.233
298.15	0.04342	794.369	0.233
298.15	0.05807	797.014	0.231
298.15	0.07009	799.189	0.231
298.15	0.08408	801.724	0.231
298.15	0.09795	804.234	0.231
298.15	0.1113	806.668	0.231
298.15	0.1396	811.81	0.231
298.15	0.1663	816.722	0.233
298.15	0.1921	821.535	0.233
298.15	0.2177	826.321	0.233
298.15	0.2427	830.964	0.233
298.15	0.269	835.911	0.233
298.15	0	786.458	0.234
303.15	0.04342	789.647	0.233
303.15	0.05807	792.292	0.232
303.15	0.07009	794.463	0.232
303.15	0.08408	796.994	0.232
303.15	0.09795	799.508	0.232
303.15	0.1113	801.938	0.232
303.15	0.1396	807.078	0.232
303.15	0.1663	811.986	0.233
303.15	0.1921	816.796	0.234
303.15	0.2177	821.577	0.233
303.15	0.2427	826.212	0.233
303.15	0.269	831.162	0.234
303.15	0	781.732	0.235
308.15	0.04342	784.898	0.234
308.15	0.05807	787.544	0.233
308.15	0.07009	789.714	0.233
308.15	0.08408	792.241	0.232
308.15	0.09795	794.756	0.233
308.15	0.1113	797.181	0.233
308.15	0.1396	802.323	0.233
308.15	0.1663	807.224	0.234
308.15	0.1921	812.035	0.235
308.15	0.2177	816.812	0.234
308.15	0.2427	821.445	0.234
308.15	0.269	826.391	0.234
308.15	0	776.98	0.236
313.15	0.04342	780.124	0.235
313.15	0.05807	782.768	0.233
313.15	0.07009	784.937	0.233
313.15	0.08408	787.454	0.233
313.15	0.09795	789.975	0.233
313.15	0.1113	792.393	0.233
313.15	0.1396	797.541	0.233
313.15	0.1663	802.43	0.235
313.15	0.1921	807.248	0.235
313.15	0.2177	812.023	0.234
313.15	0.2427	816.651	0.234
313.15	0.269	821.596	0.235
313.15	0	772.203	0.236

System: methanol + calcium diperchlorate; phases: Liquid
Fixed: Pressure, kPa = 101
Fixed: Temperature, K = 298.15
Property: Speed of sound, m/s (Liquid); method: Pulse-echo method
Molality, mol/kg of calcium diperchlorate	Speed of sound, m/s	uncertainty
0.04342	1107.22	1.16
0.07009	1110.91	1.16
0.08408	1112.56	1.16
0.09795	1114.41	1.16
0.1113	1116.07	1.16
0.1396	1119.61	1.16
0.1663	1122.95	1.17
0.1921	1126.74	1.17
0.2177	1129.5	1.17
0.2427	1132.91	1.17
0.269	1136.33	1.18

System: methanol + strontium perchlorate; phases: Liquid
Fixed: Pressure, kPa = 101
Property: Mass density, kg/m3 (Liquid); method: Vibrating tube method
Temperature, K	Molality, mol/kg of strontium perchlorate	Mass density, kg/m3	uncertainty
283.15	0.06323	814.327	0.26
283.15	0.07864	817.708	0.26
283.15	0.09378	821.019	0.261
283.15	0.1093	824.484	0.262
283.15	0.1234	827.609	0.262
283.15	0.154	834.44	0.263
283.15	0.1834	841.064	0.265
283.15	0.2113	847.498	0.266
283.15	0.2388	853.778	0.269
283.15	0.266	860.252	0.273
283.15	0.2946	867.084	0.273
283.15	0	800.547	0.261
288.15	0.06323	809.615	0.261
288.15	0.07864	812.989	0.26
288.15	0.09378	816.297	0.262
288.15	0.1093	819.755	0.262
288.15	0.1234	822.874	0.262
288.15	0.154	829.692	0.263
288.15	0.1834	836.304	0.265
288.15	0.2113	842.723	0.266
288.15	0.2388	848.993	0.269
288.15	0.266	855.456	0.273
288.15	0.2946	862.275	0.273
288.15	0	795.856	0.261
293.15	0.06323	804.898	0.261
293.15	0.07864	808.269	0.26
293.15	0.09378	811.567	0.262
293.15	0.1093	815.021	0.263
293.15	0.1234	818.133	0.263
293.15	0.154	824.939	0.263
293.15	0.1834	831.54	0.266
293.15	0.2113	837.945	0.267
293.15	0.2388	844.206	0.269
293.15	0.266	850.654	0.273
293.15	0.2946	857.464	0.273
293.15	0	791.16	0.262
298.15	0.06323	800.168	0.262
298.15	0.07864	803.533	0.261
298.15	0.09378	806.826	0.262
298.15	0.1093	810.274	0.263
298.15	0.1234	813.381	0.263
298.15	0.154	820.172	0.263
298.15	0.1834	826.763	0.266
298.15	0.2113	833.161	0.267
298.15	0.2388	839.406	0.269
298.15	0.266	845.848	0.273
298.15	0.2946	852.642	0.273
298.15	0	786.447	0.262
303.15	0.06323	795.42	0.262
303.15	0.07864	798.779	0.261
303.15	0.09378	802.074	0.262
303.15	0.1093	805.504	0.263
303.15	0.1234	808.608	0.263
303.15	0.154	815.389	0.264
303.15	0.1834	821.965	0.266
303.15	0.2113	828.36	0.267
303.15	0.2388	834.589	0.27
303.15	0.266	841.026	0.274
303.15	0.2946	847.803	0.273
303.15	0	781.721	0.262
308.15	0.06323	790.66	0.263
308.15	0.07864	794.012	0.262
308.15	0.09378	797.297	0.263
308.15	0.1093	800.727	0.263
308.15	0.1234	803.819	0.264
308.15	0.154	810.594	0.264
308.15	0.1834	817.158	0.266
308.15	0.2113	823.539	0.267
308.15	0.2388	829.75	0.27
308.15	0.266	836.183	0.274
308.15	0.2946	842.939	0.273
308.15	0	776.973	0.263
313.15	0.06323	785.866	0.263
313.15	0.07864	789.214	0.262
313.15	0.09378	792.492	0.263
313.15	0.1093	795.92	0.264
313.15	0.1234	799.011	0.264
313.15	0.154	805.771	0.264
313.15	0.1834	812.326	0.267
313.15	0.2113	818.693	0.267
313.15	0.2388	824.9	0.27
313.15	0.266	831.317	0.274
313.15	0.2946	838.069	0.274
313.15	0	772.194	0.263

System: methanol + strontium perchlorate; phases: Liquid
Fixed: Pressure, kPa = 101
Fixed: Temperature, K = 298.15
Property: Speed of sound, m/s (Liquid); method: Pulse-echo method
Molality, mol/kg of strontium perchlorate	Speed of sound, m/s	uncertainty
0.06323	1108.04	1.16
0.07864	1109.68	1.16
0.09378	1111.12	1.16
0.1093	1112.56	1.16
0.1234	1114	1.16
0.154	1116.9	1.17
0.1834	1120.02	1.17
0.2113	1122.74	1.17
0.2388	1125.48	1.18
0.266	1128.23	1.18
0.2946	1131.41	1.18

System: methanol + barium perchlorate; phases: Liquid
Fixed: Pressure, kPa = 101
Property: Mass density, kg/m3 (Liquid); method: Vibrating tube method
Temperature, K	Molality, mol/kg of barium perchlorate	Mass density, kg/m3	uncertainty
283.15	0.04405	811.658	0.289
283.15	0.05789	815.181	0.289
283.15	0.07152	818.62	0.291
283.15	0.08565	822.272	0.292
283.15	0.09942	825.796	0.291
283.15	0.1123	829.125	0.294
283.15	0.1401	836.397	0.296
283.15	0.1665	843.399	0.297
283.15	0.1922	850.26	0.299
283.15	0.2169	856.95	0.303
283.15	0.2417	863.79	0.304
283.15	0	800.555	0.29
288.15	0.04405	806.964	0.289
288.15	0.05789	810.483	0.29
288.15	0.07152	813.919	0.291
288.15	0.08565	817.565	0.292
288.15	0.09942	821.081	0.291
288.15	0.1123	824.405	0.294
288.15	0.1401	831.665	0.296
288.15	0.1665	838.652	0.297
288.15	0.1922	845.49	0.299
288.15	0.2169	852.176	0.303
288.15	0.2417	859.009	0.304
288.15	0	795.877	0.29
293.15	0.04405	802.257	0.289
293.15	0.05789	805.768	0.29
293.15	0.07152	809.196	0.291
293.15	0.08565	812.834	0.292
293.15	0.09942	816.346	0.292
293.15	0.1123	819.663	0.294
293.15	0.1401	826.908	0.296
293.15	0.1665	833.885	0.298
293.15	0.1922	840.721	0.299
293.15	0.2169	847.385	0.303
293.15	0.2417	854.206	0.304
293.15	0	791.18	0.291
298.15	0.04405	797.534	0.29
298.15	0.05789	801.038	0.29
298.15	0.07152	804.461	0.291
298.15	0.08565	808.092	0.292
298.15	0.09942	811.597	0.292
298.15	0.1123	814.91	0.295
298.15	0.1401	822.143	0.296
298.15	0.1665	829.105	0.298
298.15	0.1922	835.928	0.299
298.15	0.2169	842.583	0.303
298.15	0.2417	849.387	0.304
298.15	0	786.468	0.291
303.15	0.04405	792.793	0.29
303.15	0.05789	796.29	0.29
303.15	0.07152	799.707	0.291
303.15	0.08565	803.33	0.292
303.15	0.09942	806.83	0.292
303.15	0.1123	810.139	0.295
303.15	0.1401	817.357	0.296
303.15	0.1665	824.3	0.298
303.15	0.1922	831.119	0.3
303.15	0.2169	837.763	0.303
303.15	0.2417	844.546	0.304
303.15	0	781.739	0.291
308.15	0.04405	788.031	0.29
308.15	0.05789	791.514	0.29
308.15	0.07152	794.928	0.292
308.15	0.08565	798.541	0.292
308.15	0.09942	802.029	0.292
308.15	0.1123	805.341	0.295
308.15	0.1401	812.546	0.296
308.15	0.1665	819.488	0.298
308.15	0.1922	826.278	0.3
308.15	0.2169	832.919	0.303
308.15	0.2417	839.692	0.304
308.15	0	776.993	0.292
313.15	0.04405	783.24	0.291
313.15	0.05789	786.709	0.29
313.15	0.07152	790.115	0.292
313.15	0.08565	793.738	0.293
313.15	0.09942	797.22	0.292
313.15	0.1123	800.51	0.295
313.15	0.1401	807.7	0.297
313.15	0.1665	814.642	0.298
313.15	0.1922	821.422	0.3
313.15	0.2169	828.046	0.303
313.15	0.2417	834.813	0.304
313.15	0	772.219	0.292

System: methanol + barium perchlorate; phases: Liquid
Fixed: Pressure, kPa = 101
Fixed: Temperature, K = 298.15
Property: Speed of sound, m/s (Liquid); method: Pulse-echo method
Molality, mol/kg of barium perchlorate	Speed of sound, m/s	uncertainty
0.04405	1104.78	1.15
0.05789	1105.8	1.15
0.07152	1106.82	1.15
0.09942	1108.66	1.15
0.1123	1109.68	1.16
0.1401	1111.73	1.16
0.1665	1113.17	1.16
0.1922	1115.24	1.16
0.2169	1116.9	1.16
0.2417	1118.56	1.16

System: methanol + sodium trifluoromethanesulfonate; phases: Liquid
Fixed: Pressure, kPa = 101
Property: Mass density, kg/m3 (Liquid); method: Vibrating tube method
Temperature, K	Molality, mol/kg of sodium trifluoromethanesulfonate	Mass density, kg/m3	uncertainty
283.15	0.04581	805.004	0.172
283.15	0.05858	806.247	0.172
283.15	0.07409	807.746	0.172
283.15	0.08825	809.117	0.171
283.15	0.1028	810.527	0.171
283.15	0.1172	811.93	0.171
283.15	0.1463	814.771	0.171
283.15	0.1743	817.509	0.171
283.15	0.2027	820.305	0.171
283.15	0.2301	823.038	0.171
283.15	0.2574	825.732	0.171
283.15	0.2861	828.58	0.17
283.15	0	800.544	0.173
288.15	0.04581	800.315	0.173
288.15	0.05858	801.557	0.173
288.15	0.07409	803.057	0.173
288.15	0.08825	804.427	0.172
288.15	0.1028	805.836	0.172
288.15	0.1172	807.238	0.172
288.15	0.1463	810.077	0.172
288.15	0.1743	812.812	0.172
288.15	0.2027	815.606	0.172
288.15	0.2301	818.338	0.172
288.15	0.2574	821.028	0.171
288.15	0.2861	823.872	0.171
288.15	0	795.854	0.174
293.15	0.04581	795.62	0.174
293.15	0.05858	796.863	0.174
293.15	0.07409	798.363	0.174
293.15	0.08825	799.733	0.173
293.15	0.1028	801.14	0.173
293.15	0.1172	802.543	0.173
293.15	0.1463	805.377	0.173
293.15	0.1743	808.112	0.173
293.15	0.2027	810.904	0.173
293.15	0.2301	813.634	0.173
293.15	0.2574	816.321	0.172
293.15	0.2861	819.161	0.172
293.15	0	791.158	0.175
298.15	0.04581	790.91	0.175
298.15	0.05858	792.154	0.175
298.15	0.07409	793.657	0.174
298.15	0.08825	795.022	0.174
298.15	0.1028	796.431	0.174
298.15	0.1172	797.833	0.174
298.15	0.1463	800.668	0.174
298.15	0.1743	803.401	0.174
298.15	0.2027	806.19	0.174
298.15	0.2301	808.917	0.174
298.15	0.2574	811.601	0.173
298.15	0.2861	814.439	0.173
298.15	0	786.447	0.176
303.15	0.04581	786.191	0.176
303.15	0.05858	787.428	0.176
303.15	0.07409	788.931	0.176
303.15	0.08825	790.305	0.175
303.15	0.1028	791.701	0.175
303.15	0.1172	793.105	0.175
303.15	0.1463	795.947	0.175
303.15	0.1743	798.671	0.175
303.15	0.2027	801.46	0.175
303.15	0.2301	804.185	0.175
303.15	0.2574	806.867	0.174
303.15	0.2861	809.7	0.174
303.15	0	781.714	0.177
308.15	0.04581	781.448	0.177
308.15	0.05858	782.688	0.177
308.15	0.07409	784.175	0.177
308.15	0.08825	785.561	0.177
308.15	0.1028	786.964	0.176
308.15	0.1172	788.352	0.176
308.15	0.1463	791.201	0.176
308.15	0.1743	793.913	0.176
308.15	0.2027	796.713	0.176
308.15	0.2301	799.436	0.175
308.15	0.2574	802.106	0.175
308.15	0.2861	804.938	0.175
308.15	0	776.97	0.178
313.15	0.04581	776.675	0.179
313.15	0.05858	777.918	0.178
313.15	0.07409	779.409	0.178
313.15	0.08825	780.79	0.178
313.15	0.1028	782.194	0.177
313.15	0.1172	783.59	0.177
313.15	0.1463	786.428	0.177
313.15	0.1743	789.143	0.177
313.15	0.2027	791.938	0.177
313.15	0.2301	794.66	0.176
313.15	0.2574	797.321	0.176
313.15	0.2861	800.15	0.176
313.15	0	772.195	0.179

System: methanol + sodium trifluoromethanesulfonate; phases: Liquid
Fixed: Pressure, kPa = 101
Fixed: Temperature, K = 298.15
Property: Speed of sound, m/s (Liquid); method: Pulse-echo method
Molality, mol/kg of sodium trifluoromethanesulfonate	Speed of sound, m/s	uncertainty
0.04581	1102.35	1.16
0.05858	1102.55	1.16
0.07409	1102.96	1.16
0.08825	1103.16	1.16
0.1028	1103.36	1.16
0.1172	1103.56	1.16
0.1463	1103.97	1.16
0.1743	1104.58	1.16
0.2027	1104.98	1.16
0.2301	1105.19	1.16
0.2574	1105.39	1.16
0.2861	1105.59	1.17
