Measured thermophysical data. Phase equilibrium data for ternary (carbon dioxide + dichloromethane + eugenol) and quaternary systems (carbon dioxide + dichloromethane + eugenol + poly-.epsilon.-caprolactone)
Source: J. Chem. Thermodyn., 2015, 10.1016/j.jct.2015.08.016
Compound 1: 2-hydroxy-5-allylanisole, C10H12O2, InChI=1S/C10H12O2/c1-3-4-8-5-6-9(11)10(7-8)12-2/h3,5-7,11H,1,4H2,2H3, purity 99%
Compound 2: dichloromethane, CH2Cl2, InChI=1S/CH2Cl2/c2-1-3/h1H2, purity 99.9%
Compound 3: carbon dioxide, CO2, InChI=1S/CO2/c2-1-3, purity 99.9%

System: dichloromethane + 2-hydroxy-5-allylanisole + carbon dioxide; phases: Liquid, Gas
Property: Vapor or sublimation pressure, kPa (Liquid); method: Closed cell (Static) method
Temperature, K	Mole fraction of carbon dioxide	Mole fraction of dichloromethane	Vapor or sublimation pressure, kPa	uncertainty
308.15	0.3337	0.3331	4700	210
313.15	0.3337	0.3331	4950	210
318.15	0.3337	0.3331	5340	210
323.15	0.3337	0.3331	5630	210
308.15	0.4361	0.2732	5830	210
313.15	0.4361	0.2732	6080	220
318.15	0.4361	0.2732	6650	230
323.15	0.4361	0.2732	7280	240
308.15	0.5375	0.2322	6520	210
313.15	0.5375	0.2322	6650	210
318.15	0.5375	0.2322	7100	240
323.15	0.5375	0.2322	7890	240
308.15	0.6683	0.1646	7070	220
313.15	0.6683	0.1646	7510	230
318.15	0.6683	0.1646	8270	250
323.15	0.6683	0.1646	8950	240
308.15	0.8188	0.0902	7810	260
313.15	0.8188	0.0902	8660	260
318.15	0.8188	0.0902	9400	300
323.15	0.8188	0.0902	10860	350
308.15	0.853	0.0728	8050	270
313.15	0.853	0.0728	8940	300
318.15	0.853	0.0728	10240	310
323.15	0.853	0.0728	11360	300
308.15	0.9046	0.0478	8660	350
313.15	0.9046	0.0478	10130	330
318.15	0.9046	0.0478	11190	320
323.15	0.9046	0.0478	12440	340
308.15	0.1427	0.7147	1230	200
313.15	0.1427	0.7147	1360	200
318.15	0.1427	0.7147	1450	200
323.15	0.1427	0.7147	1620	200
308.15	0.2001	0.6665	2130	200
313.15	0.2001	0.6665	2260	200
318.15	0.2001	0.6665	2390	200
323.15	0.2001	0.6665	2570	200
308.15	0.2799	0.6002	2700	200
313.15	0.2799	0.6002	2840	200
318.15	0.2799	0.6002	3080	200
323.15	0.2799	0.6002	3220	200
308.15	0.3962	0.5047	3740	210
313.15	0.3962	0.5047	3990	230
318.15	0.3962	0.5047	4830	220
323.15	0.3962	0.5047	4970	200
308.15	0.6001	0.3332	5340	230
313.15	0.6001	0.3332	5870	220
318.15	0.6001	0.3332	6190	220
323.15	0.6001	0.3332	6670	220
308.15	0.6572	0.2857	6030	230
313.15	0.6572	0.2857	6260	210
318.15	0.6572	0.2857	6720	220
323.15	0.6572	0.2857	7230	210
308.15	0.7598	0.2002	6560	230
313.15	0.7598	0.2002	7060	220
318.15	0.7598	0.2002	7550	220
323.15	0.7598	0.2002	7930	220
308.15	0.7997	0.167	6910	250
313.15	0.7997	0.167	7320	220
318.15	0.7997	0.167	7810	220
323.15	0.7997	0.167	8290	220
308.15	0.895	0.0867	7630	230
313.15	0.895	0.0867	8090	230
318.15	0.895	0.0867	8570	230
323.15	0.895	0.0867	9090	230
308.15	0.9438	0.0467	8080	230
313.15	0.9438	0.0467	8630	230
318.15	0.9438	0.0467	9020	240
323.15	0.9438	0.0467	9560	250
308.15	0.0831	0.8338	740	200
313.15	0.0831	0.8338	780	200
318.15	0.0831	0.8338	840	200
323.15	0.0831	0.8338	970	200
308.15	0.1195	0.8008	990	200
313.15	0.1195	0.8008	1130	200
318.15	0.1195	0.8008	1230	200
323.15	0.1195	0.8008	1320	200
308.15	0.1668	0.7617	1440	200
313.15	0.1668	0.7617	1610	200
318.15	0.1668	0.7617	1740	200
323.15	0.1668	0.7617	1880	200
308.15	0.266	0.6674	2420	200
313.15	0.266	0.6674	2580	200
318.15	0.266	0.6674	2790	210
323.15	0.266	0.6674	3040	210
308.15	0.4491	0.501	3910	220
313.15	0.4491	0.501	4340	210
318.15	0.4491	0.501	4590	210
323.15	0.4491	0.501	4900	210
308.15	0.512	0.4435	4430	210
313.15	0.512	0.4435	4810	210
318.15	0.512	0.4435	5150	210
323.15	0.512	0.4435	5500	210
308.15	0.635	0.3316	5110	220
313.15	0.635	0.3316	5560	220
318.15	0.635	0.3316	6120	220
323.15	0.635	0.3316	6510	220
308.15	0.6858	0.2856	5260	230
313.15	0.6858	0.2856	5790	220
318.15	0.6858	0.2856	6270	220
323.15	0.6858	0.2856	6740	220
308.15	0.8099	0.1736	6160	240
313.15	0.8099	0.1736	6810	240
318.15	0.8099	0.1736	7330	230
323.15	0.8099	0.1736	7890	230
308.15	0.8945	0.0965	6840	240
313.15	0.8945	0.0965	7380	250
318.15	0.8945	0.0965	8200	240
323.15	0.8945	0.0965	8620	220

System: dichloromethane + 2-hydroxy-5-allylanisole + carbon dioxide; phases: Gas, Liquid
Property: Vapor or sublimation pressure, kPa (Gas); method: Closed cell (Static) method
Temperature, K	Mole fraction of carbon dioxide	Mole fraction of dichloromethane	Vapor or sublimation pressure, kPa	uncertainty
308.15	0.9238	0.0377	8560	470
313.15	0.9238	0.0377	9930	320
318.15	0.9238	0.0377	11070	320
323.15	0.9238	0.0377	12430	320
308.15	0.9604	0.02	8340	320
313.15	0.9604	0.02	9640	320
318.15	0.9604	0.02	10850	310
323.15	0.9604	0.02	12020	310
308.15	0.9798	0.0103	8260	280
313.15	0.9798	0.0103	9260	290
318.15	0.9798	0.0103	10370	280
323.15	0.9798	0.0103	11240	270
