Measured thermophysical data. Partial molar volumes and viscosity B-coefficients for N,N'-ethylenebis(salicylideneiminato)-diaquochromium(III) chloride in methanolic solutions of 1-butyl-2,3-dimethylimidazolium tetrafluoroborate at T = (298.15, 308.15, and 318.15) K
Source: J. Chem. Thermodyn., 2014, 10.1016/j.jct.2013.09.018
Compound 1: N,N'-ethylenebis(salicylideneiminato)diaquachromium(III) chloride, C16H18ClCrN2O4, InChI=1S/C16H16N2O2.ClH.Cr.2H2O/c19-15-7-3-1-5-13(15)11-17-9-10-18-12-14-6-2-4-8-16(14)20;;;;/h1-8,11-12,19-20H,9-10H2;1H;;2*1H2/q;;+3;;/p-3/b17-11+,18-12+;;;;
Compound 2: 1-butyl-2,3-dimethylimidazolium tetrafluoroborate, C9H17BF4N2, InChI=1S/C9H17N2.BF4/c1-4-5-6-11-8-7-10(3)9(11)2;2-1(3,4)5/h7-8H,4-6H2,1-3H3;/q+1;-1, purity 98%
Compound 3: methanol, CH4O, InChI=1S/CH4O/c1-2/h2H,1H3, purity 99.8%

System: methanol; phases: Liquid
Fixed: Pressure, kPa = 101
Property: Mass density, kg/m3 (Liquid); method: Vibrating tube method
Temperature, K	Mass density, kg/m3	uncertainty
298.15	786.61	1.03
308.15	777.15	1.02
318.15	767.74	1.02

System: methanol; phases: Liquid
Fixed: Pressure, kPa = 101
Property: Viscosity, Pa*s (Liquid); method: Capillary tube (Ostwald; Ubbelohde) method
Temperature, K	Viscosity, Pa*s	uncertainty
298.15	0.000545	1.15e-05
308.15	0.000476	1.01e-05
318.15	0.0004183	8.9e-06

System: methanol + 1-butyl-2,3-dimethylimidazolium tetrafluoroborate; phases: Liquid
Fixed: Pressure, kPa = 101
Property: Mass density, kg/m3 (Liquid); method: Vibrating tube method
Temperature, K	Amount concentration (molarity), mol/dm3 of 1-butyl-2,3-dimethylimidazolium tetrafluoroborate	Mass density, kg/m3	uncertainty
298.15	0	786.61	1.03
308.15	0	777.15	1.02
318.15	0	767.74	1.02
298.15	0.005	787.59	1.01
308.15	0.005	778.01	1.01
318.15	0.005	768.49	1.01
298.15	0.01	788.04	1.01
308.15	0.01	778.52	1.01
318.15	0.01	769.43	1.01
298.15	0.015	788.45	1.01
308.15	0.015	778.98	1.01
318.15	0.015	769.92	1.01
298.15	0.02	788.96	1.01
308.15	0.02	779.46	1.01
318.15	0.02	770.36	1.01

System: methanol + 1-butyl-2,3-dimethylimidazolium tetrafluoroborate; phases: Liquid
Fixed: Pressure, kPa = 101
Property: Viscosity, Pa*s (Liquid); method: Capillary tube (Ostwald; Ubbelohde) method
Temperature, K	Amount concentration (molarity), mol/dm3 of 1-butyl-2,3-dimethylimidazolium tetrafluoroborate	Viscosity, Pa*s	uncertainty
298.15	0	0.000545	1.15e-05
308.15	0	0.000476	1.01e-05
318.15	0	0.0004183	8.9e-06
298.15	0.005	0.000552	1.17e-05
308.15	0.005	0.000487	1.03e-05
318.15	0.005	0.0004271	9.1e-06
298.15	0.01	0.0005649	1.19e-05
308.15	0.01	0.0004978	1.05e-05
318.15	0.01	0.000436	9.3e-06
298.15	0.015	0.0005747	1.21e-05
308.15	0.015	0.0005043	1.07e-05
318.15	0.015	0.0004446	9.5e-06
298.15	0.02	0.0005845	1.24e-05
308.15	0.02	0.000513	1.09e-05
318.15	0.02	0.0004532	9.6e-06

System: methanol + N,N'-ethylenebis(salicylideneiminato)diaquachromium(III) chloride + 1-butyl-2,3-dimethylimidazolium tetrafluoroborate; phases: Liquid
Fixed: Pressure, kPa = 101
Property: Mass density, kg/m3 (Liquid); method: Vibrating tube method
Temperature, K	Solvent: Amount concentration (molarity), mol/dm3 of 1-butyl-2,3-dimethylimidazolium tetrafluoroborate	Molality, mol/kg of N,N'-ethylenebis(salicylideneiminato)diaquachromium(III) chloride	Mass density, kg/m3	uncertainty
298.15	0	0.0076	787.2	1.04
298.15	0	0.0102	787.39	1.04
298.15	0	0.0128	787.58	1.04
298.15	0	0.0153	787.76	1.04
298.15	0	0.0192	788.03	1.04
298.15	0	0.023	788.29	1.04
308.15	0	0.0076	777.75	1.04
308.15	0	0.0102	777.95	1.04
308.15	0	0.0128	778.14	1.04
308.15	0	0.0153	778.33	1.04
308.15	0	0.0192	778.61	1.04
308.15	0	0.023	778.88	1.04
318.15	0	0.0076	768.35	1.04
318.15	0	0.0102	768.55	1.04
318.15	0	0.0128	768.75	1.04
318.15	0	0.0153	768.94	1.04
318.15	0	0.0192	769.23	1.04
318.15	0	0.023	769.51	1.04
298.15	0.005	0.0076	788.18	1.04
298.15	0.005	0.0102	788.37	1.04
298.15	0.005	0.0128	788.55	1.04
298.15	0.005	0.0153	788.74	1.04
298.15	0.005	0.0192	789.01	1.04
298.15	0.005	0.023	789.26	1.04
308.15	0.005	0.0076	778.61	1.04
308.15	0.005	0.0102	778.81	1.04
308.15	0.005	0.0128	778.99	1.04
308.15	0.005	0.0153	779.18	1.04
308.15	0.005	0.0192	779.46	1.04
308.15	0.005	0.023	779.73	1.04
318.15	0.005	0.0076	769.1	1.04
318.15	0.005	0.0102	769.3	1.04
318.15	0.005	0.0128	769.49	1.04
318.15	0.005	0.0153	769.68	1.04
318.15	0.005	0.0192	769.97	1.04
318.15	0.005	0.023	770.24	1.04
298.15	0.01	0.0076	788.63	1.04
298.15	0.01	0.0102	788.82	1.04
298.15	0.01	0.0128	789	1.04
298.15	0.01	0.0153	789.18	1.04
298.15	0.01	0.0192	789.44	1.04
298.15	0.01	0.023	789.7	1.04
308.15	0.01	0.0076	779.12	1.04
308.15	0.01	0.0102	779.32	1.04
308.15	0.01	0.0128	779.5	1.04
308.15	0.01	0.0153	779.69	1.04
308.15	0.01	0.0192	779.96	1.04
308.15	0.01	0.023	780.24	1.04
318.15	0.01	0.0076	770.04	1.04
318.15	0.01	0.0102	770.24	1.04
318.15	0.01	0.0128	770.43	1.04
318.15	0.01	0.0153	770.62	1.04
318.15	0.01	0.0192	770.9	1.04
318.15	0.01	0.023	771.18	1.04
298.15	0.015	0.0076	789.04	1.04
298.15	0.015	0.0102	789.23	1.04
298.15	0.015	0.0128	789.41	1.04
298.15	0.015	0.0153	789.59	1.04
298.15	0.015	0.0192	789.85	1.04
298.15	0.015	0.023	790.1	1.04
308.15	0.015	0.0076	779.58	1.04
308.15	0.015	0.0102	779.77	1.04
308.15	0.015	0.0128	779.95	1.04
308.15	0.015	0.0153	780.14	1.04
308.15	0.015	0.0192	780.41	1.04
308.15	0.015	0.023	780.67	1.04
318.15	0.015	0.0076	770.53	1.04
318.15	0.015	0.0102	770.73	1.04
318.15	0.015	0.0128	770.92	1.04
318.15	0.015	0.0153	771.11	1.04
318.15	0.015	0.0192	771.39	1.04
318.15	0.015	0.023	771.66	1.04
298.15	0.02	0.0076	789.55	1.04
298.15	0.02	0.0102	789.74	1.04
298.15	0.02	0.0128	789.92	1.04
298.15	0.02	0.0153	790.1	1.04
298.15	0.02	0.0192	790.35	1.04
298.15	0.02	0.023	790.61	1.04
308.15	0.02	0.0076	780.06	1.04
308.15	0.02	0.0102	780.25	1.04
308.15	0.02	0.0128	780.43	1.04
308.15	0.02	0.0153	780.62	1.04
308.15	0.02	0.0192	780.88	1.04
308.15	0.02	0.023	781.15	1.04
318.15	0.02	0.0076	770.97	1.04
318.15	0.02	0.0102	771.17	1.04
318.15	0.02	0.0128	771.36	1.04
318.15	0.02	0.0153	771.55	1.04
318.15	0.02	0.0192	771.82	1.04
318.15	0.02	0.023	772.1	1.04

System: methanol + N,N'-ethylenebis(salicylideneiminato)diaquachromium(III) chloride + 1-butyl-2,3-dimethylimidazolium tetrafluoroborate; phases: Liquid
Fixed: Pressure, kPa = 101
Property: Viscosity, Pa*s (Liquid); method: Capillary tube (Ostwald; Ubbelohde) method
Temperature, K	Solvent: Amount concentration (molarity), mol/dm3 of 1-butyl-2,3-dimethylimidazolium tetrafluoroborate	Molality, mol/kg of N,N'-ethylenebis(salicylideneiminato)diaquachromium(III) chloride	Viscosity, Pa*s	uncertainty
298.15	0	0.0076	0.0005486	1.2e-05
298.15	0	0.0102	0.0005508	1.21e-05
298.15	0	0.0128	0.0005541	1.22e-05
298.15	0	0.0153	0.0005574	1.22e-05
298.15	0	0.0192	0.0005618	1.23e-05
298.15	0	0.023	0.000566	1.24e-05
308.15	0	0.0076	0.0004806	1.06e-05
308.15	0	0.0102	0.0004828	1.06e-05
308.15	0	0.0128	0.000485	1.07e-05
308.15	0	0.0153	0.0004893	1.07e-05
308.15	0	0.0192	0.0004947	1.09e-05
308.15	0	0.023	0.0004989	1.1e-05
318.15	0	0.0076	0.0004228	9.3e-06
318.15	0	0.0102	0.0004261	9.4e-06
318.15	0	0.0128	0.0004293	9.4e-06
318.15	0	0.0153	0.0004326	9.5e-06
318.15	0	0.0192	0.0004369	9.6e-06
318.15	0	0.023	0.0004421	9.7e-06
298.15	0.005	0.0076	0.0005556	1.22e-05
298.15	0.005	0.0102	0.0005578	1.22e-05
298.15	0.005	0.0128	0.0005601	1.23e-05
298.15	0.005	0.0153	0.0005633	1.24e-05
298.15	0.005	0.0192	0.0005667	1.24e-05
298.15	0.005	0.023	0.0005709	1.25e-05
308.15	0.005	0.0076	0.0004916	1.08e-05
308.15	0.005	0.0102	0.0004948	1.09e-05
308.15	0.005	0.0128	0.000497	1.09e-05
308.15	0.005	0.0153	0.0005003	1.1e-05
308.15	0.005	0.0192	0.0005047	1.11e-05
308.15	0.005	0.023	0.0005088	1.12e-05
318.15	0.005	0.0076	0.0004316	9.5e-06
318.15	0.005	0.0102	0.0004338	9.5e-06
318.15	0.005	0.0128	0.000436	9.6e-06
318.15	0.005	0.0153	0.0004392	9.7e-06
318.15	0.005	0.0192	0.0004436	9.8e-06
318.15	0.005	0.023	0.0004477	9.8e-06
298.15	0.01	0.0076	0.0005685	1.25e-05
298.15	0.01	0.0102	0.0005708	1.25e-05
298.15	0.01	0.0128	0.000573	1.26e-05
298.15	0.01	0.0153	0.0005752	1.26e-05
298.15	0.01	0.0192	0.0005796	1.27e-05
298.15	0.01	0.023	0.0005838	1.28e-05
308.15	0.01	0.0076	0.0005023	1.1e-05
308.15	0.01	0.0102	0.0005046	1.11e-05
308.15	0.01	0.0128	0.0005078	1.11e-05
308.15	0.01	0.0153	0.00051	1.12e-05
308.15	0.01	0.0192	0.0005144	1.13e-05
308.15	0.01	0.023	0.0005196	1.14e-05
318.15	0.01	0.0076	0.0004405	9.7e-06
318.15	0.01	0.0102	0.0004427	9.7e-06
318.15	0.01	0.0128	0.0004449	9.8e-06
318.15	0.01	0.0153	0.0004481	9.9e-06
318.15	0.01	0.0192	0.0004524	9.9e-06
318.15	0.01	0.023	0.0004566	1e-05
298.15	0.015	0.0076	0.0005793	1.27e-05
298.15	0.015	0.0102	0.0005815	1.28e-05
298.15	0.015	0.0128	0.0005838	1.28e-05
298.15	0.015	0.0153	0.000586	1.28e-05
298.15	0.015	0.0192	0.0005893	1.29e-05
298.15	0.015	0.023	0.0005935	1.3e-05
308.15	0.015	0.0076	0.0005089	1.12e-05
308.15	0.015	0.0102	0.0005111	1.12e-05
308.15	0.015	0.0128	0.0005144	1.13e-05
308.15	0.015	0.0153	0.0005166	1.13e-05
308.15	0.015	0.0192	0.0005209	1.14e-05
308.15	0.015	0.023	0.0005251	1.15e-05
318.15	0.015	0.0076	0.0004491	9.9e-06
318.15	0.015	0.0102	0.0004513	9.9e-06
318.15	0.015	0.0128	0.0004535	1e-05
318.15	0.015	0.0153	0.0004567	1e-05
318.15	0.015	0.0192	0.0004611	1.01e-05
318.15	0.015	0.023	0.0004652	1.02e-05
298.15	0.02	0.0076	0.0005891	1.29e-05
298.15	0.02	0.0102	0.0005914	1.3e-05
298.15	0.02	0.0128	0.0005936	1.3e-05
298.15	0.02	0.0153	0.0005958	1.31e-05
298.15	0.02	0.0192	0.0005992	1.31e-05
298.15	0.02	0.023	0.0006023	1.32e-05
308.15	0.02	0.0076	0.0005176	1.14e-05
308.15	0.02	0.0102	0.0005198	1.14e-05
308.15	0.02	0.0128	0.000522	1.15e-05
308.15	0.02	0.0153	0.0005242	1.15e-05
308.15	0.02	0.0192	0.0005286	1.16e-05
308.15	0.02	0.023	0.0005327	1.17e-05
318.15	0.02	0.0076	0.0004577	1.01e-05
318.15	0.02	0.0102	0.0004599	1.01e-05
318.15	0.02	0.0128	0.0004621	1.02e-05
318.15	0.02	0.0153	0.0004653	1.02e-05
318.15	0.02	0.0192	0.0004696	1.03e-05
318.15	0.02	0.023	0.0004728	1.04e-05

System: methanol + N,N'-ethylenebis(salicylideneiminato)diaquachromium(III) chloride; phases: Liquid
Fixed: Pressure, kPa = 101
Property: Mass density, kg/m3 (Liquid); method: Vibrating tube method
Temperature, K	Molality, mol/kg of N,N'-ethylenebis(salicylideneiminato)diaquachromium(III) chloride	Mass density, kg/m3	uncertainty
298.15	0.0076	787.2	1.04
298.15	0.0102	787.39	1.04
298.15	0.0128	787.58	1.04
298.15	0.0153	787.76	1.04
298.15	0.0192	788.03	1.04
298.15	0.023	788.29	1.04
308.15	0.0076	777.75	1.04
308.15	0.0102	777.95	1.04
308.15	0.0128	778.14	1.04
308.15	0.0153	778.33	1.04
308.15	0.0192	778.61	1.04
308.15	0.023	778.88	1.04
318.15	0.0076	768.35	1.04
318.15	0.0102	768.55	1.04
318.15	0.0128	768.75	1.04
318.15	0.0153	768.94	1.04
318.15	0.0192	769.23	1.04
318.15	0.023	769.51	1.04

System: methanol + N,N'-ethylenebis(salicylideneiminato)diaquachromium(III) chloride; phases: Liquid
Fixed: Pressure, kPa = 101
Property: Viscosity, Pa*s (Liquid); method: Capillary tube (Ostwald; Ubbelohde) method
Temperature, K	Molality, mol/kg of N,N'-ethylenebis(salicylideneiminato)diaquachromium(III) chloride	Viscosity, Pa*s	uncertainty
298.15	0.0076	0.0005486	1.2e-05
298.15	0.0102	0.0005508	1.21e-05
298.15	0.0128	0.0005541	1.22e-05
298.15	0.0153	0.0005574	1.22e-05
298.15	0.0192	0.0005618	1.23e-05
298.15	0.023	0.000566	1.24e-05
308.15	0.0076	0.0004806	1.06e-05
308.15	0.0102	0.0004828	1.06e-05
308.15	0.0128	0.000485	1.07e-05
308.15	0.0153	0.0004893	1.07e-05
308.15	0.0192	0.0004947	1.09e-05
308.15	0.023	0.0004989	1.1e-05
318.15	0.0076	0.0004228	9.3e-06
318.15	0.0102	0.0004261	9.4e-06
318.15	0.0128	0.0004293	9.4e-06
318.15	0.0153	0.0004326	9.5e-06
318.15	0.0192	0.0004369	9.6e-06
318.15	0.023	0.0004421	9.7e-06
