Measured thermophysical data. Energetic effects of ether and ketone functional groups in 9,10-dihydroanthracene compound
Source: J. Chem. Thermodyn., 2010, 10.1016/j.jct.2010.04.027
Compound 1: carbon dioxide, CO2, InChI=1S/CO2/c2-1-3
Compound 2: water, H2O, InChI=1S/H2O/h1H2
Compound 3: oxygen, O2, InChI=1S/O2/c1-2
Compound 4: 9(10H)-anthracenone, C14H10O, InChI=1S/C14H10O/c15-14-12-7-3-1-5-10(12)9-11-6-2-4-8-13(11)14/h1-8H,9H2, purity 97%
Compound 5: 10H-9-oxaanthracene, C13H10O, InChI=1S/C13H10O/c1-3-7-12-10(5-1)9-11-6-2-4-8-13(11)14-12/h1-8H,9H2, purity 99.8%

System: 9(10H)-anthracenone; phases: Crystal, Gas
Property: Molar enthalpy of vaporization or sublimation, kJ/mol (Crystal); method: Static calorimetry
Temperature, K	Molar enthalpy of vaporization or sublimation, kJ/mol	uncertainty
298.15	106.7	3.6

System: 10H-9-oxaanthracene; phases: Crystal, Gas
Property: Molar enthalpy of vaporization or sublimation, kJ/mol (Crystal); method: Static calorimetry
Temperature, K	Molar enthalpy of vaporization or sublimation, kJ/mol	uncertainty
298.15	92	2.2

Reaction: -1 9(10H)-anthracenone + 14 carbon dioxide + 5 water + -16 oxygen
Property: Specific internal energy of reaction at constant volume, J/g
-35308.9

Reaction: -1 10H-9-oxaanthracene + 13 carbon dioxide + 5 water + -15 oxygen
Property: Specific internal energy of reaction at constant volume, J/g
-35614.7
