Measured thermophysical data. Volumetric and sound speed study of ammonium-based ionic liquid mixtures with ethanol
Source: J. Chem. Thermodyn., 2017, 10.1016/j.jct.2016.09.024
Compound 1: butyltrimethylammonium bis(trifluoromethylsulfonyl)imide, C9H18F6N2O4S2, InChI=1S/C7H18N.C2F6NO4S2/c1-5-6-7-8(2,3)4;3-1(4,5)14(10,11)9-15(12,13)2(6,7)8/h5-7H2,1-4H3;/q+1;-1, purity 99%
Compound 2: tributylmethylammonium bis((trifluoromethyl)sulfonyl)imide, C15H30F6N2O4S2, InChI=1S/C13H30N.C2F6NO4S2/c1-5-8-11-14(4,12-9-6-2)13-10-7-3;3-1(4,5)14(10,11)9-15(12,13)2(6,7)8/h5-13H2,1-4H3;/q+1;-1, purity 99%
Compound 3: choline bis(trifluoromethylsulfonyl)imide, C7H14F6N2O5S2, InChI=1S/C5H14NO.C2F6NO4S2/c1-6(2,3)4-5-7;3-1(4,5)14(10,11)9-15(12,13)2(6,7)8/h7H,4-5H2,1-3H3;/q+1;-1, purity 99%
Compound 4: ethanol, C2H6O, InChI=1S/C2H6O/c1-2-3/h3H,2H2,1H3, purity 99.9%

System: butyltrimethylammonium bis(trifluoromethylsulfonyl)imide; phases: Liquid
Fixed: Pressure, kPa = 100
Property: Mass density, kg/m3 (Liquid); method: Vibrating tube method
Temperature, K	Mass density, kg/m3	uncertainty
293.15	1397.43	2.07
298.15	1392.94	2.07
303.15	1388.55	2.07
308.15	1384.11	2.06

System: butyltrimethylammonium bis(trifluoromethylsulfonyl)imide; phases: Liquid
Fixed: Pressure, kPa = 100
Fixed: Frequency, MHz = 3
Property: Speed of sound, m/s (Liquid); method: Sing-around technique in a fixed-path interferometer
Temperature, K	Speed of sound, m/s	uncertainty
293.15	1239.5	1.5
298.15	1228.9	1.5
303.15	1218.3	1.5
308.15	1208.1	1.5

System: tributylmethylammonium bis((trifluoromethyl)sulfonyl)imide; phases: Liquid
Fixed: Pressure, kPa = 100
Property: Mass density, kg/m3 (Liquid); method: Vibrating tube method
Temperature, K	Mass density, kg/m3	uncertainty
293.15	1265.28	2.04
298.15	1261.07	2.04
303.15	1256.88	2.04
308.15	1252.71	2.04

System: tributylmethylammonium bis((trifluoromethyl)sulfonyl)imide; phases: Liquid
Fixed: Pressure, kPa = 100
Fixed: Frequency, MHz = 3
Property: Speed of sound, m/s (Liquid); method: Sing-around technique in a fixed-path interferometer
Temperature, K	Speed of sound, m/s	uncertainty
293.15	1291.7	1.5
298.15	1276	1.5
303.15	1261.1	1.5
308.15	1247.5	1.5

System: ethanol; phases: Liquid
Fixed: Pressure, kPa = 100
Property: Mass density, kg/m3 (Liquid); method: Vibrating tube method
Temperature, K	Mass density, kg/m3	uncertainty
293.15	789.47	2
298.15	785.16	2
303.15	780.84	2
308.15	776.43	2

System: ethanol; phases: Liquid
Fixed: Pressure, kPa = 100
Fixed: Frequency, MHz = 3
Property: Speed of sound, m/s (Liquid); method: Sing-around technique in a fixed-path interferometer
Temperature, K	Speed of sound, m/s	uncertainty
293.15	1160.4	1.2
298.15	1143.3	1.1
303.15	1126.1	1.1
308.15	1108.9	1.1

System: ethanol + butyltrimethylammonium bis(trifluoromethylsulfonyl)imide; phases: Liquid
Fixed: Pressure, kPa = 100
Property: Mass density, kg/m3 (Liquid); method: Vibrating tube method
Mole fraction of butyltrimethylammonium bis(trifluoromethylsulfonyl)imide	Temperature, K	Mass density, kg/m3	uncertainty
0	293.15	789.47	2
0.01	293.15	819.11	2.11
0.02	293.15	846	2.11
0.03	293.15	871.28	2.12
0.0391	293.15	892.43	2.12
0.05	293.15	915.81	2.13
0.06	293.15	936.62	2.14
0.07	293.15	955.44	2.14
0.08	293.15	973.51	2.15
0.12	293.15	1037.38	2.17
0.1486	293.15	1071.96	2.18
0.2003	293.15	1126.3	2.2
0.2499	293.15	1168.16	2.21
0.3	293.15	1202.69	2.22
0.3496	293.15	1231.09	2.24
0.4004	293.15	1255.72	2.25
0.5002	293.15	1294.79	2.26
0.5904	293.15	1322.19	2.28
0.7	293.15	1348.46	2.3
0.8009	293.15	1368.04	2.31
0.899	293.15	1383.75	2.33
0.9395	293.15	1389.79	2.51
1	293.15	1397.43	2.07
0	298.15	785.16	2
0.01	298.15	814.76	2.11
0.02	298.15	841.63	2.11
0.03	298.15	866.65	2.12
0.0391	298.15	887.98	2.12
0.05	298.15	911.34	2.13
0.06	298.15	931.87	2.14
0.07	298.15	951.12	2.14
0.08	298.15	968.96	2.15
0.12	298.15	1030.57	2.16
0.1486	298.15	1067.3	2.18
0.2003	298.15	1121.7	2.19
0.2499	298.15	1163.39	2.21
0.3	298.15	1198.03	2.22
0.3496	298.15	1226.39	2.23
0.4004	298.15	1251.08	2.24
0.5002	298.15	1290.19	2.26
0.5904	298.15	1317.59	2.28
0.7	298.15	1343.92	2.29
0.8009	298.15	1363.52	2.31
0.899	298.15	1379.22	2.33
0.9395	298.15	1384.63	2.51
1	298.15	1392.94	2.07
0	303.15	780.84	2
0.01	303.15	810.36	2.1
0.02	303.15	837.22	2.11
0.03	303.15	862.18	2.12
0.0391	303.15	883.5	2.12
0.05	303.15	906.84	2.13
0.06	303.15	927.3	2.13
0.07	303.15	946.63	2.14
0.08	303.15	966.17	3.49
0.12	303.15	1025.88	2.16
0.1486	303.15	1062.65	2.17
0.2003	303.15	1117.08	2.19
0.2499	303.15	1158.76	2.21
0.3	303.15	1193.4	2.22
0.3496	303.15	1221.72	2.23
0.4004	303.15	1246.54	2.24
0.5002	303.15	1285.55	2.26
0.5904	303.15	1313	2.27
0.7	303.15	1339.39	2.29
0.8009	303.15	1358.99	2.31
0.899	303.15	1374.72	2.33
0.9395	303.15	1380.16	2.51
1	303.15	1388.55	2.07
0	308.15	776.43	2
0.01	308.15	805.94	2.1
0.02	308.15	832.79	2.11
0.03	308.15	857.71	2.12
0.0391	308.15	879	2.12
0.05	308.15	902.28	2.13
0.06	308.15	922.75	2.13
0.07	308.15	941.76	2.14
0.08	308.15	959.69	2.14
0.12	308.15	1021.24	2.16
0.1486	308.15	1057.92	2.17
0.2003	308.15	1112.36	2.19
0.2499	308.15	1154.09	2.21
0.3	308.15	1188.67	2.22
0.3496	308.15	1217.07	2.23
0.4004	308.15	1241.9	2.24
0.5002	308.15	1280.92	2.26
0.5904	308.15	1308.4	2.27
0.7	308.15	1334.87	2.29
0.8009	308.15	1354.5	2.31
0.899	308.15	1370.25	2.32
0.9395	308.15	1375.7	2.5
1	308.15	1384.11	2.06

System: ethanol + butyltrimethylammonium bis(trifluoromethylsulfonyl)imide; phases: Liquid
Fixed: Pressure, kPa = 100
Fixed: Frequency, MHz = 3
Property: Speed of sound, m/s (Liquid); method: Sing-around technique in a fixed-path interferometer
Temperature, K	Mole fraction of butyltrimethylammonium bis(trifluoromethylsulfonyl)imide	Speed of sound, m/s	uncertainty
293.15	0	1160.4	1.2
293.15	0.01	1160.4	1.2
293.15	0.02	1158.5	1.2
293.15	0.03	1158.2	1.2
293.15	0.0391	1157.2	1.2
293.15	0.06	1157.5	1.2
293.15	0.07	1158	1.2
293.15	0.08	1158.1	1.2
293.15	0.12	1163.4	1.2
293.15	0.1486	1166.7	1.2
293.15	0.2499	1181.9	1.2
293.15	0.3496	1195.1	1.2
293.15	0.4004	1200.8	1.2
293.15	0.5002	1210.5	1.3
293.15	0.5904	1218.1	1.3
293.15	0.7	1225.3	1.4
293.15	0.8009	1231	1.4
293.15	0.899	1235.4	1.5
293.15	0.9395	1237.5	1.5
293.15	1	1239.5	1.5
298.15	0	1143.3	1.1
298.15	0.01	1143.5	1.2
298.15	0.02	1142.2	1.2
298.15	0.03	1142.1	1.2
298.15	0.0391	1141.7	1.2
298.15	0.06	1142.1	1.2
298.15	0.07	1142.8	1.2
298.15	0.08	1143.6	1.2
298.15	0.12	1149	1.2
298.15	0.1486	1152.8	1.2
298.15	0.2499	1169.2	1.2
298.15	0.3496	1183.1	1.2
298.15	0.4004	1189.1	1.2
298.15	0.5002	1199.2	1.3
298.15	0.5904	1206.9	1.3
298.15	0.7	1214.6	1.4
298.15	0.8009	1220.2	1.4
298.15	0.899	1224.6	1.5
298.15	0.9395	1226.8	1.5
298.15	1	1228.9	1.5
303.15	0	1126.1	1.1
303.15	0.01	1126.8	1.1
303.15	0.02	1125.9	1.1
303.15	0.03	1126.1	1.1
303.15	0.0391	1126	1.2
303.15	0.06	1127	1.2
303.15	0.07	1128	1.2
303.15	0.08	1129.8	1.2
303.15	0.12	1134.6	1.2
303.15	0.1486	1139.6	1.2
303.15	0.2499	1156.6	1.2
303.15	0.3496	1171.3	1.2
303.15	0.4004	1177.5	1.2
303.15	0.5002	1187.9	1.3
303.15	0.5904	1195.8	1.3
303.15	0.7	1203.7	1.4
303.15	0.8009	1209.5	1.4
303.15	0.899	1214	1.5
303.15	0.9395	1216.1	1.5
303.15	1	1218.3	1.5
308.15	0	1108.9	1.1
308.15	0.01	1110.1	1.1
308.15	0.02	1109.9	1.1
308.15	0.03	1110.4	1.1
308.15	0.0391	1110.5	1.1
308.15	0.06	1112.2	1.2
308.15	0.07	1113.2	1.2
308.15	0.08	1114.5	1.2
308.15	0.12	1117	1.2
308.15	0.1486	1126.2	1.2
308.15	0.2499	1144.4	1.2
308.15	0.3496	1159.6	1.2
308.15	0.4004	1166.4	1.2
308.15	0.5002	1176.7	1.3
308.15	0.5904	1185	1.3
308.15	0.7	1193.1	1.4
308.15	0.8009	1199	1.4
308.15	0.899	1203.7	1.5
308.15	0.9395	1205.9	1.5
308.15	1	1208.1	1.5

System: ethanol + tributylmethylammonium bis((trifluoromethyl)sulfonyl)imide; phases: Liquid
Fixed: Pressure, kPa = 100
Property: Mass density, kg/m3 (Liquid); method: Vibrating tube method
Mole fraction of tributylmethylammonium bis((trifluoromethyl)sulfonyl)imide	Temperature, K	Mass density, kg/m3	uncertainty
0	293.15	789.47	2
0.0149	293.15	833.41	2.11
0.0298	293.15	870.67	2.12
0.04	293.15	893.07	2.13
0.05	293.15	914.28	2.32
0.07	293.15	948.73	2.14
0.0924	293.15	982.15	2.15
0.1395	293.15	1035.99	2.35
0.1882	293.15	1077.95	2.18
0.2813	293.15	1132.28	2.2
0.3991	293.15	1176.38	2.22
0.6005	293.15	1221.14	2.24
0.7988	293.15	1247.39	2.26
0.8765	293.15	1255.06	2.26
0.9289	293.15	1258.9	2.81
0.9364	293.15	1260.75	2.63
1	293.15	1265.28	2.04
0	298.15	785.16	2
0.0149	298.15	829.12	2.11
0.0298	298.15	866.3	2.12
0.04	298.15	888.82	2.12
0.05	298.15	910.05	2.32
0.07	298.15	944.21	2.14
0.0924	298.15	977.59	2.15
0.1395	298.15	1031.74	2.16
0.1882	298.15	1073.7	2.18
0.2813	298.15	1127.84	2.2
0.3991	298.15	1172.02	2.21
0.6005	298.15	1216.94	2.23
0.7988	298.15	1243.06	2.25
0.8765	298.15	1250.8	2.26
0.9289	298.15	1256.57	2.81
0.9364	298.15	1256.05	2.27
1	298.15	1261.07	2.04
0	303.15	780.84	2
0.0149	303.15	824.78	2.11
0.0298	303.15	861.9	2.12
0.04	303.15	884.44	2.12
0.05	303.15	905.38	2.32
0.07	303.15	939.9	2.14
0.0924	303.15	972.74	2.33
0.1395	303.15	1027.24	2.16
0.1882	303.15	1068.72	2.18
0.2813	303.15	1123.21	2.2
0.3991	303.15	1167.83	2.21
0.6005	303.15	1212.35	2.23
0.7988	303.15	1238.73	2.25
0.8765	303.15	1246.58	2.26
0.9289	303.15	1252.53	2.81
0.9364	303.15	1251.96	2.27
1	303.15	1256.88	2.04
0	308.15	776.43	2
0.0149	308.15	820.39	2.11
0.0298	308.15	857.3	2.12
0.04	308.15	880	2.12
0.05	308.15	899.68	2.13
0.07	308.15	934.95	2.14
0.0924	308.15	967.92	2.33
0.1395	308.15	1023.02	2.35
0.1882	308.15	1063.93	2.17
0.2813	308.15	1118.75	2.19
0.3991	308.15	1162.78	2.21
0.6005	308.15	1207.87	2.23
0.7988	308.15	1234.49	2.25
0.8765	308.15	1242.35	2.26
0.9289	308.15	1246.73	2.81
0.9364	308.15	1247.75	2.27
1	308.15	1252.71	2.04

System: ethanol + tributylmethylammonium bis((trifluoromethyl)sulfonyl)imide; phases: Liquid
Fixed: Pressure, kPa = 100
Fixed: Frequency, MHz = 3
Property: Speed of sound, m/s (Liquid); method: Sing-around technique in a fixed-path interferometer
Temperature, K	Mole fraction of tributylmethylammonium bis((trifluoromethyl)sulfonyl)imide	Speed of sound, m/s	uncertainty
293.15	0	1160.4	1.2
293.15	0.0149	1163.4	1.2
293.15	0.0298	1165.7	1.2
293.15	0.04	1168	1.2
293.15	0.05	1170.7	1.2
293.15	0.07	1175.6	1.2
293.15	0.0924	1181.8	1.2
293.15	0.1395	1194.3	1.2
293.15	0.1882	1205.7	1.2
293.15	0.2813	1224.1	1.2
293.15	0.3991	1241.4	1.2
293.15	0.6005	1262.3	1.3
293.15	0.7988	1277.4	1.4
293.15	0.8765	1282.7	1.5
293.15	0.9289	1285.8	1.5
293.15	0.9364	1286.8	1.5
293.15	1	1291.7	1.5
298.15	0	1143.3	1.1
298.15	0.0149	1146.8	1.2
298.15	0.0298	1149.7	1.2
298.15	0.04	1152.3	1.2
298.15	0.05	1155	1.2
298.15	0.07	1160.2	1.2
298.15	0.0924	1166.7	1.2
298.15	0.1395	1179.8	1.2
298.15	0.1882	1192	1.2
298.15	0.2813	1210.4	1.2
298.15	0.3991	1227.8	1.2
298.15	0.6005	1249	1.3
298.15	0.7988	1263.2	1.4
298.15	0.8765	1268.1	1.5
298.15	0.9289	1272.2	1.9
298.15	0.9364	1271.9	1.5
298.15	1	1276	1.5
303.15	0	1126.1	1.1
303.15	0.0149	1130.4	1.1
303.15	0.0298	1133.6	1.2
303.15	0.04	1136.5	1.2
303.15	0.05	1139.3	1.2
303.15	0.07	1145.1	1.2
303.15	0.0924	1151.6	1.2
303.15	0.1395	1165.4	1.2
303.15	0.1882	1177.4	1.2
303.15	0.2813	1196.3	1.2
303.15	0.3991	1214.4	1.2
303.15	0.6005	1235.2	1.3
303.15	0.7988	1249.4	1.4
303.15	0.8765	1254.2	1.5
303.15	0.9289	1258.4	1.9
303.15	0.9364	1257.5	1.5
303.15	1	1261.1	1.5
308.15	0	1108.9	1.1
308.15	0.0149	1114.1	1.1
308.15	0.0298	1117.7	1.1
308.15	0.04	1120.9	1.1
308.15	0.05	1123.5	1.2
308.15	0.07	1129.9	1.2
308.15	0.0924	1136.7	1.2
308.15	0.1395	1151.2	1.2
308.15	0.1882	1163.3	1.2
308.15	0.2813	1182.7	1.2
308.15	0.3991	1200.8	1.2
308.15	0.6005	1221.9	1.3
308.15	0.7988	1236.2	1.4
308.15	0.8765	1241	1.5
308.15	0.9289	1244.1	1.5
308.15	0.9364	1244.1	1.5
308.15	1	1247.5	1.5

System: ethanol + choline bis(trifluoromethylsulfonyl)imide; phases: Liquid
Fixed: Pressure, kPa = 100
Property: Mass density, kg/m3 (Liquid); method: Vibrating tube method
Mole fraction of choline bis(trifluoromethylsulfonyl)imide	Temperature, K	Mass density, kg/m3	uncertainty
0	293.15	789.47	2
0.0399	293.15	907.24	2.13
0.0998	293.15	1037.39	2.17
0.199	293.15	1179.17	2.21
0.2949	293.15	1274	2.25
0	298.15	785.16	2
0.0399	298.15	900.83	2.13
0.0998	298.15	1029.81	2.16
0.199	298.15	1174.26	2.21
0.2949	298.15	1266.41	2.25
0	303.15	780.84	2
0.0399	303.15	896.31	2.13
0.0998	303.15	1025.95	2.16
0.199	303.15	1169.14	2.21
0.2949	303.15	1261.61	2.25
0	308.15	776.43	2
0.0399	308.15	891.78	2.12
0.0998	308.15	1020.14	2.16
0.199	308.15	1163.97	2.21
0.2949	308.15	1256.84	2.24

System: ethanol + choline bis(trifluoromethylsulfonyl)imide; phases: Liquid
Fixed: Pressure, kPa = 100
Fixed: Frequency, MHz = 3
Property: Speed of sound, m/s (Liquid); method: Sing-around technique in a fixed-path interferometer
Temperature, K	Mole fraction of choline bis(trifluoromethylsulfonyl)imide	Speed of sound, m/s	uncertainty
293.15	0	1160.4	1.2
293.15	0.0399	1162.4	1.2
293.15	0.0998	1172.1	1.2
293.15	0.199	1196	1.2
293.15	0.2949	1221.8	1.2
298.15	0	1143.3	1.1
298.15	0.0399	1145.9	1.2
298.15	0.0998	1156.6	1.2
298.15	0.199	1183.2	1.2
298.15	0.2949	1207.6	1.2
303.15	0	1126.1	1.1
303.15	0.0399	1130.3	1.2
303.15	0.0998	1142.5	1.2
303.15	0.199	1170	1.2
303.15	0.2949	1195.3	1.2
308.15	0	1108.9	1.1
308.15	0.0399	1115	1.1
308.15	0.0998	1128.2	1.2
308.15	0.199	1157.2	1.2
308.15	0.2949	1183.5	1.2
