Measured thermophysical data. Mass density, sound velocity, mixing enthalpy, 1H NMR, Ab initio calculations and intermolecular interactions in binary mixtures of N-methylimidazole + water, +methanol, +ethanol, +1-propanol, +2-propanol
Source: J. Chem. Thermodyn., 2019, 10.1016/j.jct.2018.12.019
Compound 1: 1-methylimidazole, C4H6N2, InChI=1S/C4H6N2/c1-6-3-2-5-4-6/h2-4H,1H3, purity 99%
Compound 2: water, H2O, InChI=1S/H2O/h1H2, purity 99.8%
Compound 3: methanol, CH4O, InChI=1S/CH4O/c1-2/h2H,1H3, purity 99.5%
Compound 4: ethanol, C2H6O, InChI=1S/C2H6O/c1-2-3/h3H,2H2,1H3, purity 99.7%
Compound 5: propan-1-ol, C3H8O, InChI=1S/C3H8O/c1-2-3-4/h4H,2-3H2,1H3, purity 99.8%
Compound 6: propan-2-ol, C3H8O, InChI=1S/C3H8O/c1-3(2)4/h3-4H,1-2H3, purity 99.7%

System: 1-methylimidazole; phases: Liquid
Fixed: Pressure, kPa = 98
Property: Mass density, kg/m3 (Liquid); method: Vibrating tube method
Temperature, K	Mass density, kg/m3	uncertainty
288.15	1039.36	0.83
298.15	1030.52	0.83
308.15	1021.66	0.83
318.15	1012.76	0.83
328.15	1003.83	0.83

System: 1-methylimidazole; phases: Liquid
Fixed: Pressure, kPa = 98
Fixed: Frequency, MHz = 3
Property: Speed of sound, m/s (Liquid); method: Single path-length method
Temperature, K	Speed of sound, m/s	uncertainty
288.15	1634.08	1.42
298.15	1596.52	1.42
308.15	1558.98	1.42
318.15	1521.82	1.42
328.15	1485.03	1.42

System: methanol; phases: Liquid
Fixed: Pressure, kPa = 98
Property: Mass density, kg/m3 (Liquid); method: Vibrating tube method
Temperature, K	Mass density, kg/m3	uncertainty
288.15	796.13	0.81
298.15	786.75	0.81
308.15	777.29	0.81
318.15	767.71	0.81
328.15	757.97	0.81

System: methanol; phases: Liquid
Fixed: Pressure, kPa = 98
Fixed: Frequency, MHz = 3
Property: Speed of sound, m/s (Liquid); method: Single path-length method
Temperature, K	Speed of sound, m/s	uncertainty
288.15	1135.65	1.12
298.15	1102.56	1.12
308.15	1069.75	1.12
318.15	1037.4	1.12
328.15	1005.32	1.12

System: ethanol; phases: Liquid
Fixed: Pressure, kPa = 98
Property: Mass density, kg/m3 (Liquid); method: Vibrating tube method
Temperature, K	Mass density, kg/m3	uncertainty
288.15	793.68	0.81
298.15	785.14	0.81
308.15	776.48	0.81
318.15	767.68	0.81
328.15	758.65	0.81

System: ethanol; phases: Liquid
Fixed: Pressure, kPa = 98
Fixed: Frequency, MHz = 3
Property: Speed of sound, m/s (Liquid); method: Single path-length method
Temperature, K	Speed of sound, m/s	uncertainty
288.15	1176.92	1.05
298.15	1142.72	1.05
308.15	1108.81	1.05
318.15	1075.23	1.05
328.15	1041.87	1.05

System: propan-1-ol; phases: Liquid
Fixed: Pressure, kPa = 98
Property: Mass density, kg/m3 (Liquid); method: Vibrating tube method
Temperature, K	Mass density, kg/m3	uncertainty
288.15	807.5	0.81
298.15	799.53	0.81
308.15	791.44	0.81
318.15	783.18	0.81
328.15	774.7	0.81

System: propan-1-ol; phases: Liquid
Fixed: Pressure, kPa = 98
Fixed: Frequency, MHz = 3
Property: Speed of sound, m/s (Liquid); method: Single path-length method
Temperature, K	Speed of sound, m/s	uncertainty
288.15	1239.52	1.02
298.15	1205.23	1.02
308.15	1171.1	1.02
318.15	1137.35	1.02
328.15	1103.76	1.02

System: propan-2-ol; phases: Liquid
Fixed: Pressure, kPa = 98
Property: Mass density, kg/m3 (Liquid); method: Vibrating tube method
Temperature, K	Mass density, kg/m3	uncertainty
288.15	789.18	0.81
298.15	780.86	0.81
308.15	772.26	0.81
318.15	763.3	0.81
328.15	753.91	0.81

System: propan-2-ol; phases: Liquid
Fixed: Pressure, kPa = 98
Fixed: Frequency, MHz = 3
Property: Speed of sound, m/s (Liquid); method: Single path-length method
Temperature, K	Speed of sound, m/s	uncertainty
288.15	1173.21	1.05
298.15	1138.41	1.05
308.15	1103.29	1.05
318.15	1067.87	1.05
328.15	1031.88	1.05

System: 1-methylimidazole + water; phases: Liquid
Fixed: Pressure, kPa = 98
Property: Mass density, kg/m3 (Liquid); method: Vibrating tube method
Temperature, K	Mole fraction of 1-methylimidazole	Mass density, kg/m3	uncertainty
288.15	0	999.09	0.8
288.15	0.0521	1011.8	0.8
288.15	0.1076	1022.54	0.8
288.15	0.2035	1035.77	0.8
288.15	0.3041	1044.45	0.8
288.15	0.4017	1048.95	0.81
288.15	0.5053	1050.2	0.81
288.15	0.6052	1048.91	0.81
288.15	0.7018	1046.64	0.82
288.15	0.8044	1043.96	0.82
288.15	0.9031	1041.64	0.83
288.15	0.9555	1040.49	0.83
288.15	1	1039.36	0.83
298.15	0	997.05	0.8
298.15	0.0521	1007.6	0.8
298.15	0.1076	1016.8	0.8
298.15	0.2035	1028.46	0.8
298.15	0.3041	1036.28	0.8
298.15	0.4017	1040.34	0.81
298.15	0.5053	1041.41	0.81
298.15	0.6052	1040.12	0.81
298.15	0.7018	1037.87	0.81
298.15	0.8044	1035.17	0.82
298.15	0.9031	1032.83	0.83
298.15	0.9555	1031.66	0.83
298.15	1	1030.52	0.83
308.15	0	994.04	0.8
308.15	0.0521	1002.76	0.8
308.15	0.1076	1010.63	0.8
308.15	0.2035	1020.89	0.8
308.15	0.3041	1027.92	0.8
308.15	0.4017	1031.57	0.81
308.15	0.5053	1032.48	0.81
308.15	0.6052	1031.21	0.81
308.15	0.7018	1028.99	0.81
308.15	0.8044	1026.32	0.82
308.15	0.9031	1023.98	0.82
308.15	0.9555	1022.8	0.83
308.15	1	1021.66	0.83
318.15	0	990.22	0.8
318.15	0.0521	997.34	0.8
318.15	0.1076	1004.04	0.8
318.15	0.2035	1013.06	0.8
318.15	0.3041	1019.36	0.8
318.15	0.4017	1022.64	0.8
318.15	0.5053	1023.41	0.81
318.15	0.6052	1022.16	0.81
318.15	0.7018	1020.01	0.81
318.15	0.8044	1017.39	0.82
318.15	0.9031	1015.07	0.82
318.15	0.9555	1013.91	0.83
318.15	1	1012.76	0.83
328.15	0	985.71	0.8
328.15	0.0521	991.41	0.8
328.15	0.1076	997.06	0.8
328.15	0.2035	1004.95	0.8
328.15	0.3041	1010.6	0.8
328.15	0.4017	1013.55	0.8
328.15	0.5053	1014.19	0.81
328.15	0.6052	1012.98	0.81
328.15	0.7018	1010.92	0.81
328.15	0.8044	1008.38	0.82
328.15	0.9031	1006.1	0.82
328.15	0.9555	1004.96	0.82
328.15	1	1003.83	0.83

System: 1-methylimidazole + water; phases: Liquid
Fixed: Pressure, kPa = 98
Fixed: Frequency, MHz = 3
Property: Speed of sound, m/s (Liquid); method: Single path-length method
Temperature, K	Mole fraction of 1-methylimidazole	Speed of sound, m/s	uncertainty
288.15	0	1466.53	1.02
288.15	0.0521	1581.3	1.08
288.15	0.1076	1645.6	1.05
288.15	0.2035	1705.29	1.07
288.15	0.3041	1731.46	1.1
288.15	0.4017	1735.5	1.13
288.15	0.5053	1723.18	1.17
288.15	0.6052	1702.36	1.22
288.15	0.7018	1681.93	1.26
288.15	0.8044	1662.49	1.31
288.15	0.9031	1647.83	1.36
288.15	0.9555	1640.83	1.39
288.15	1	1634.08	1.42
298.15	0	1496.63	1.02
298.15	0.0521	1587.04	1.06
298.15	0.1076	1636.94	1.05
298.15	0.2035	1682.57	1.07
298.15	0.3041	1707.16	1.1
298.15	0.4017	1701.43	1.13
298.15	0.5053	1687.55	1.17
298.15	0.6052	1666.6	1.2
298.15	0.7018	1645.84	1.26
298.15	0.8044	1626.04	1.31
298.15	0.9031	1610.88	1.36
298.15	0.9555	1603.76	1.39
298.15	1	1596.52	1.42
308.15	0	1519.63	1.02
308.15	0.0521	1588.79	1.05
308.15	0.1076	1625.72	1.05
308.15	0.2035	1658.42	1.07
308.15	0.3041	1669.91	1.1
308.15	0.4017	1667.67	1.13
308.15	0.5053	1651.33	1.17
308.15	0.6052	1630.19	1.22
308.15	0.7018	1609.39	1.26
308.15	0.8044	1589.32	1.31
308.15	0.9031	1573.74	1.36
308.15	0.9555	1566.39	1.39
308.15	1	1558.98	1.42
318.15	0	1536.24	1.02
318.15	0.0521	1586.82	1.04
318.15	0.1076	1612.16	1.04
318.15	0.2035	1633.08	1.07
318.15	0.3041	1638.09	1.1
318.15	0.4017	1631.62	1.13
318.15	0.5053	1614.95	1.17
318.15	0.6052	1593.68	1.22
318.15	0.7018	1572.95	1.26
318.15	0.8044	1552.74	1.31
318.15	0.9031	1536.89	1.36
318.15	0.9555	1529.33	1.39
318.15	1	1521.82	1.42
328.15	0	1547.32	1.02
328.15	0.0521	1581.4	1.03
328.15	0.1076	1596.31	1.04
328.15	0.2035	1606.63	1.07
328.15	0.3041	1605.69	1.1
328.15	0.4017	1596.26	1.13
328.15	0.5053	1578.39	1.17
328.15	0.6052	1557.03	1.22
328.15	0.7018	1536.48	1.26
328.15	0.8044	1516.32	1.31
328.15	0.9031	1500.29	1.36
328.15	0.9555	1492.61	1.39
328.15	1	1485.03	1.42

System: 1-methylimidazole + methanol; phases: Liquid
Fixed: Pressure, kPa = 98
Property: Mass density, kg/m3 (Liquid); method: Vibrating tube method
Temperature, K	Mole fraction of 1-methylimidazole	Mass density, kg/m3	uncertainty
288.15	0	796.13	0.81
288.15	0.0507	822.81	0.82
288.15	0.1009	846.62	0.81
288.15	0.1961	884.53	0.81
288.15	0.296	918.09	0.81
288.15	0.3988	946.5	0.81
288.15	0.5058	969.95	0.81
288.15	0.6096	989.14	0.81
288.15	0.7023	1003.69	0.82
288.15	0.8018	1017.21	0.82
288.15	0.8994	1028.89	0.83
288.15	0.951	1034.48	0.83
288.15	1	1039.36	0.83
298.15	0	786.75	0.81
298.15	0.0507	813.46	0.82
298.15	0.1009	837.31	0.81
298.15	0.1961	875.26	0.81
298.15	0.296	908.87	0.81
298.15	0.3988	937.33	0.81
298.15	0.5058	960.86	0.81
298.15	0.6096	980.11	0.81
298.15	0.7023	994.72	0.82
298.15	0.8018	1008.3	0.82
298.15	0.8994	1020.02	0.83
298.15	0.951	1025.61	0.83
298.15	1	1030.52	0.83
308.15	0	777.29	0.81
308.15	0.0507	804.03	0.82
308.15	0.1009	827.92	0.81
308.15	0.1961	865.91	0.81
308.15	0.296	899.58	0.81
308.15	0.3988	928.11	0.81
308.15	0.5058	951.71	0.81
308.15	0.6096	971.04	0.81
308.15	0.7023	985.72	0.82
308.15	0.8018	999.35	0.82
308.15	0.8994	1011.12	0.82
308.15	0.951	1016.76	0.83
308.15	1	1021.66	0.83
318.15	0	767.71	0.81
318.15	0.0507	794.49	0.82
318.15	0.1009	818.41	0.81
318.15	0.1961	856.48	0.81
318.15	0.296	890.21	0.81
318.15	0.3988	918.82	0.81
318.15	0.5058	942.51	0.81
318.15	0.6096	961.92	0.81
318.15	0.7023	976.66	0.82
318.15	0.8018	990.36	0.82
318.15	0.8994	1002.18	0.82
318.15	0.951	1007.87	0.83
318.15	1	1012.76	0.83
328.15	0	757.97	0.81
328.15	0.0507	784.81	0.82
328.15	0.1009	808.78	0.82
328.15	0.1961	846.92	0.81
328.15	0.296	880.75	0.81
328.15	0.3988	909.45	0.81
328.15	0.5058	933.23	0.81
328.15	0.6096	952.74	0.82
328.15	0.7023	967.55	0.82
328.15	0.8018	981.32	0.82
328.15	0.8994	993.19	0.82
328.15	0.951	998.91	0.83
328.15	1	1003.83	0.83

System: 1-methylimidazole + methanol; phases: Liquid
Fixed: Pressure, kPa = 98
Fixed: Frequency, MHz = 3
Property: Speed of sound, m/s (Liquid); method: Single path-length method
Temperature, K	Mole fraction of 1-methylimidazole	Speed of sound, m/s	uncertainty
288.15	0	1135.65	1.12
288.15	0.0507	1185.23	1.15
288.15	0.1009	1230.7	1.16
288.15	0.1961	1305.4	1.18
288.15	0.296	1374.02	1.2
288.15	0.3988	1434.11	1.23
288.15	0.5058	1484.68	1.26
288.15	0.6096	1526.18	1.29
288.15	0.7023	1558.02	1.32
288.15	0.8018	1587.51	1.35
288.15	0.8994	1612.86	1.38
288.15	0.951	1624.99	1.4
288.15	1	1634.08	1.42
298.15	0	1102.56	1.12
298.15	0.0507	1151.82	1.15
298.15	0.1009	1196.88	1.16
298.15	0.1961	1270.81	1.18
298.15	0.296	1338.84	1.2
298.15	0.3988	1398.4	1.2
298.15	0.5058	1448.55	1.26
298.15	0.6096	1489.62	1.29
298.15	0.7023	1521.2	1.3
298.15	0.8018	1550.41	1.35
298.15	0.8994	1575.56	1.38
298.15	0.951	1587.59	1.4
298.15	1	1596.52	1.42
308.15	0	1069.75	1.12
308.15	0.0507	1118.61	1.15
308.15	0.1009	1163.22	1.16
308.15	0.1961	1236.38	1.18
308.15	0.296	1303.67	1.2
308.15	0.3988	1362.72	1.23
308.15	0.5058	1412.4	1.26
308.15	0.6096	1453.04	1.29
308.15	0.7023	1484.34	1.32
308.15	0.8018	1513.27	1.35
308.15	0.8994	1538.17	1.38
308.15	0.951	1550.1	1.4
308.15	1	1558.98	1.42
318.15	0	1037.4	1.12
318.15	0.0507	1085.8	1.15
318.15	0.1009	1130.01	1.16
318.15	0.1961	1202.42	1.18
318.15	0.296	1268.94	1.2
318.15	0.3988	1327.41	1.23
318.15	0.5058	1376.57	1.26
318.15	0.6096	1416.85	1.29
318.15	0.7023	1447.83	1.32
318.15	0.8018	1476.5	1.35
318.15	0.8994	1501.17	1.38
318.15	0.951	1512.99	1.4
318.15	1	1521.82	1.42
328.15	0	1005.32	1.12
328.15	0.0507	1053.34	1.15
328.15	0.1009	1097.15	1.16
328.15	0.1961	1168.72	1.18
328.15	0.296	1234.53	1.2
328.15	0.3988	1292.42	1.23
328.15	0.5058	1341.14	1.26
328.15	0.6096	1380.94	1.29
328.15	0.7023	1411.66	1.32
328.15	0.8018	1440.55	1.35
328.15	0.8994	1464.48	1.38
328.15	0.951	1476.21	1.4
328.15	1	1485.03	1.42

System: 1-methylimidazole + ethanol; phases: Liquid
Fixed: Pressure, kPa = 98
Property: Mass density, kg/m3 (Liquid); method: Vibrating tube method
Temperature, K	Mole fraction of 1-methylimidazole	Mass density, kg/m3	uncertainty
288.15	0	793.68	0.81
288.15	0.0511	812.59	0.81
288.15	0.1012	829.84	0.81
288.15	0.2006	861.64	0.81
288.15	0.3012	891.28	0.81
288.15	0.3955	916.81	0.81
288.15	0.5	942.71	0.81
288.15	0.5994	965.25	0.81
288.15	0.7066	987.5	0.81
288.15	0.8063	1006.58	0.82
288.15	0.902	1023.35	0.83
288.15	0.9505	1031.47	0.83
288.15	1	1039.36	0.83
298.15	0	785.14	0.81
298.15	0.0511	803.97	0.81
298.15	0.1012	821.16	0.81
298.15	0.2006	852.87	0.81
298.15	0.3012	882.45	0.81
298.15	0.3955	907.94	0.81
298.15	0.5	933.82	0.81
298.15	0.5994	956.36	0.81
298.15	0.7066	978.61	0.81
298.15	0.8063	997.7	0.82
298.15	0.902	1014.49	0.82
298.15	0.9505	1022.63	0.83
298.15	1	1030.52	0.83
308.15	0	776.48	0.81
308.15	0.0511	795.24	0.81
308.15	0.1012	812.37	0.81
308.15	0.2006	844	0.81
308.15	0.3012	873.53	0.81
308.15	0.3955	899	0.81
308.15	0.5	924.87	0.81
308.15	0.5994	947.41	0.81
308.15	0.7066	969.67	0.81
308.15	0.8063	988.78	0.82
308.15	0.902	1005.59	0.82
308.15	0.9505	1013.75	0.83
308.15	1	1021.66	0.83
318.15	0	767.68	0.81
318.15	0.0511	786.37	0.81
318.15	0.1012	803.49	0.81
318.15	0.2006	835.02	0.81
318.15	0.3012	864.53	0.81
318.15	0.3955	889.99	0.81
318.15	0.5	915.86	0.81
318.15	0.5994	938.4	0.81
318.15	0.7066	960.68	0.81
318.15	0.8063	979.82	0.82
318.15	0.902	996.65	0.82
318.15	0.9505	1004.83	0.83
318.15	1	1012.76	0.83
328.15	0	758.65	0.81
328.15	0.0511	777.3	0.81
328.15	0.1012	794.35	0.81
328.15	0.2006	825.9	0.81
328.15	0.3012	855.41	0.81
328.15	0.3955	880.88	0.81
328.15	0.5	906.77	0.81
328.15	0.5994	929.34	0.81
328.15	0.7066	951.65	0.81
328.15	0.8063	970.81	0.82
328.15	0.902	987.68	0.82
328.15	0.9505	995.88	0.82
328.15	1	1003.83	0.83

System: 1-methylimidazole + ethanol; phases: Liquid
Fixed: Pressure, kPa = 98
Fixed: Temperature, K = 298.15
Property: Excess molar enthalpy (molar enthalpy of mixing), kJ/mol (Liquid); method: Calvet calorimetry
Mole fraction of 1-methylimidazole	Excess molar enthalpy (molar enthalpy of mixing), kJ/mol	uncertainty
0	0	0.001
0.0523	-0.188	0.01
0.1012	-0.357	0.018
0.2013	-0.629	0.032
0.3057	-0.811	0.041
0.4037	-0.963	0.049
0.5087	-0.998	0.051
0.5987	-0.831	0.042
0.7146	-0.636	0.032
0.8003	-0.438	0.022
0.8861	-0.259	0.013
0.9463	-0.144	0.007
1	0	0.001

System: 1-methylimidazole + ethanol; phases: Liquid
Fixed: Pressure, kPa = 98
Fixed: Frequency, MHz = 3
Property: Speed of sound, m/s (Liquid); method: Single path-length method
Temperature, K	Mole fraction of 1-methylimidazole	Speed of sound, m/s	uncertainty
288.15	0	1176.92	1.05
288.15	0.0511	1210.57	1.07
288.15	0.1012	1240.8	1.08
288.15	0.2006	1296.9	1.1
288.15	0.3012	1349.99	1.13
288.15	0.3955	1396.8	1.16
288.15	0.5	1445.71	1.2
288.15	0.5994	1489.45	1.24
288.15	0.7066	1532.96	1.28
288.15	0.8063	1570.68	1.33
288.15	0.902	1603.21	1.37
288.15	0.9505	1619.03	1.39
288.15	1	1634.08	1.42
298.15	0	1142.72	1.05
298.15	0.0511	1176.15	1.07
298.15	0.1012	1206.15	1.08
298.15	0.2006	1261.9	1.1
298.15	0.3012	1314.69	1.13
298.15	0.3955	1361.23	1.16
298.15	0.5	1409.75	1.2
298.15	0.5994	1453.05	1.24
298.15	0.7066	1496.12	1.28
298.15	0.8063	1533.47	1.33
298.15	0.902	1565.78	1.37
298.15	0.9505	1581.52	1.39
298.15	1	1596.52	1.42
308.15	0	1108.81	1.05
308.15	0.0511	1141.88	1.07
308.15	0.1012	1171.65	1.08
308.15	0.2006	1226.98	1.1
308.15	0.3012	1279.49	1.13
308.15	0.3955	1325.7	1.16
308.15	0.5	1373.8	1.2
308.15	0.5994	1416.72	1.24
308.15	0.7066	1459.32	1.28
308.15	0.8063	1496.34	1.33
308.15	0.902	1528.39	1.37
308.15	0.9505	1544.05	1.39
308.15	1	1558.98	1.42
318.15	0	1075.23	1.05
318.15	0.0511	1108.02	1.07
318.15	0.1012	1137.54	1.08
318.15	0.2006	1192.49	1.1
318.15	0.3012	1244.63	1.13
318.15	0.3955	1290.54	1.16
318.15	0.5	1338.28	1.2
318.15	0.5994	1380.73	1.24
318.15	0.7066	1422.95	1.28
318.15	0.8063	1459.61	1.33
318.15	0.902	1491.42	1.37
318.15	0.9505	1506.97	1.39
318.15	1	1521.82	1.42
328.15	0	1041.87	1.05
328.15	0.0511	1074.32	1.07
328.15	0.1012	1103.66	1.08
328.15	0.2006	1158.26	1.1
328.15	0.3012	1210.09	1.13
328.15	0.3955	1255.69	1.16
328.15	0.5	1303.04	1.2
328.15	0.5994	1345.13	1.24
328.15	0.7066	1386.93	1.28
328.15	0.8063	1423.29	1.33
328.15	0.902	1454.81	1.37
328.15	0.9505	1470.23	1.39
328.15	1	1485.03	1.42

System: 1-methylimidazole + propan-1-ol; phases: Liquid
Fixed: Pressure, kPa = 98
Property: Mass density, kg/m3 (Liquid); method: Vibrating tube method
Temperature, K	Mole fraction of 1-methylimidazole	Mass density, kg/m3	uncertainty
288.15	0	807.5	0.81
288.15	0.0507	820.94	0.81
288.15	0.1042	834.73	0.81
288.15	0.2018	859.55	0.81
288.15	0.301	884.11	0.81
288.15	0.4047	909.21	0.81
288.15	0.5076	933.32	0.81
288.15	0.6006	954.58	0.81
288.15	0.7029	977.37	0.81
288.15	0.8027	999.22	0.82
288.15	0.903	1020.12	0.82
288.15	0.9532	1030.34	0.83
288.15	1	1039.36	0.83
298.15	0	799.53	0.81
298.15	0.0507	812.86	0.81
298.15	0.1042	826.55	0.81
298.15	0.2018	851.23	0.81
298.15	0.301	875.67	0.81
298.15	0.4047	900.68	0.81
298.15	0.5076	924.7	0.81
298.15	0.6006	945.89	0.81
298.15	0.7029	968.62	0.81
298.15	0.8027	990.42	0.82
298.15	0.903	1011.3	0.82
298.15	0.9532	1021.51	0.83
298.15	1	1030.52	0.83
308.15	0	791.44	0.81
308.15	0.0507	804.67	0.81
308.15	0.1042	818.26	0.81
308.15	0.2018	842.82	0.81
308.15	0.301	867.16	0.81
308.15	0.4047	892.08	0.81
308.15	0.5076	916.03	0.81
308.15	0.6006	937.17	0.81
308.15	0.7029	959.84	0.81
308.15	0.8027	981.59	0.82
308.15	0.903	1002.44	0.82
308.15	0.9532	1012.64	0.83
308.15	1	1021.66	0.83
318.15	0	783.18	0.81
318.15	0.0507	796.32	0.81
318.15	0.1042	809.85	0.81
318.15	0.2018	834.3	0.81
318.15	0.301	858.56	0.81
318.15	0.4047	883.41	0.81
318.15	0.5076	907.3	0.81
318.15	0.6006	928.39	0.81
318.15	0.7029	951.01	0.81
318.15	0.8027	972.72	0.82
318.15	0.903	993.55	0.82
318.15	0.9532	1003.74	0.83
318.15	1	1012.76	0.83
328.15	0	774.7	0.81
328.15	0.0507	787.79	0.81
328.15	0.1042	801.26	0.81
328.15	0.2018	825.64	0.81
328.15	0.301	849.84	0.81
328.15	0.4047	874.64	0.81
328.15	0.5076	898.5	0.81
328.15	0.6006	919.55	0.81
328.15	0.7029	942.13	0.81
328.15	0.8027	963.81	0.82
328.15	0.903	984.62	0.82
328.15	0.9532	994.81	0.82
328.15	1	1003.83	0.83

System: 1-methylimidazole + propan-1-ol; phases: Liquid
Fixed: Pressure, kPa = 98
Fixed: Temperature, K = 298.15
Property: Excess molar enthalpy (molar enthalpy of mixing), kJ/mol (Liquid); method: Calvet calorimetry
Mole fraction of 1-methylimidazole	Excess molar enthalpy (molar enthalpy of mixing), kJ/mol	uncertainty
0	0	0.001
0.05	-0.134	0.007
0.101	-0.261	0.013
0.193	-0.469	0.024
0.2923	-0.63	0.032
0.3845	-0.747	0.038
0.4985	-0.788	0.04
0.5962	-0.747	0.038
0.7004	-0.615	0.031
0.8026	-0.443	0.022
0.8897	-0.236	0.012
0.9463	-0.13	0.007
1	0	0.001

System: 1-methylimidazole + propan-1-ol; phases: Liquid
Fixed: Pressure, kPa = 98
Fixed: Frequency, MHz = 3
Property: Speed of sound, m/s (Liquid); method: Single path-length method
Temperature, K	Mole fraction of 1-methylimidazole	Speed of sound, m/s	uncertainty
288.15	0	1239.52	1.02
288.15	0.0507	1261.87	1.04
288.15	0.1042	1284.45	1.05
288.15	0.2018	1324.62	1.07
288.15	0.301	1364.25	1.1
288.15	0.4047	1405.64	1.13
288.15	0.5076	1446.18	1.18
288.15	0.6006	1483.12	1.22
288.15	0.7029	1523.81	1.26
288.15	0.8027	1564.52	1.31
288.15	0.903	1602.01	1.37
288.15	0.9532	1620.07	1.39
288.15	1	1634.08	1.42
298.15	0	1205.23	1.02
298.15	0.0507	1227.22	1.04
298.15	0.1042	1249.59	1.05
298.15	0.2018	1289.5	1.1
298.15	0.301	1328.99	1.1
298.15	0.4047	1370.14	1.13
298.15	0.5076	1410.39	1.18
298.15	0.6006	1446.96	1.22
298.15	0.7029	1487.17	1.26
298.15	0.8027	1527.34	1.31
298.15	0.903	1564.56	1.37
298.15	0.9532	1582.59	1.39
298.15	1	1596.52	1.42
308.15	0	1171.1	1.02
308.15	0.0507	1192.78	1.04
308.15	0.1042	1214.9	1.05
308.15	0.2018	1254.51	1.07
308.15	0.301	1293.76	1.1
308.15	0.4047	1334.72	1.13
308.15	0.5076	1374.6	1.18
308.15	0.6006	1410.83	1.22
308.15	0.7029	1450.56	1.26
308.15	0.8027	1490.22	1.31
308.15	0.903	1527.11	1.37
308.15	0.9532	1545.06	1.39
308.15	1	1558.98	1.42
318.15	0	1137.35	1.02
318.15	0.0507	1158.73	1.04
318.15	0.1042	1180.6	1.05
318.15	0.2018	1219.94	1.07
318.15	0.301	1258.98	1.1
318.15	0.4047	1299.67	1.13
318.15	0.5076	1339.25	1.18
318.15	0.6006	1375.06	1.22
318.15	0.7029	1414.38	1.26
318.15	0.8027	1453.53	1.31
318.15	0.903	1490.08	1.37
318.15	0.9532	1507.88	1.39
318.15	1	1521.82	1.42
328.15	0	1103.76	1.02
328.15	0.0507	1124.9	1.04
328.15	0.1042	1146.6	1.05
328.15	0.2018	1185.66	1.07
328.15	0.301	1224.5	1.1
328.15	0.4047	1264.99	1.13
328.15	0.5076	1304.21	1.17
328.15	0.6006	1339.72	1.22
328.15	0.7029	1378.54	1.26
328.15	0.8027	1417.22	1.31
328.15	0.903	1453.43	1.37
328.15	0.9532	1471.11	1.39
328.15	1	1485.03	1.42

System: 1-methylimidazole + propan-2-ol; phases: Liquid
Fixed: Pressure, kPa = 98
Property: Mass density, kg/m3 (Liquid); method: Vibrating tube method
Temperature, K	Mole fraction of 1-methylimidazole	Mass density, kg/m3	uncertainty
288.15	0	789.18	0.81
288.15	0.0508	803.32	0.81
288.15	0.1043	817.79	0.81
288.15	0.2003	843.18	0.81
288.15	0.3007	869.37	0.81
288.15	0.405	896.25	0.81
288.15	0.5046	921.64	0.81
288.15	0.6006	945.55	0.81
288.15	0.7034	970.8	0.81
288.15	0.8029	994.49	0.82
288.15	0.9031	1017.75	0.83
288.15	0.9536	1029.16	0.83
288.15	1	1039.36	0.83
298.15	0	780.86	0.81
298.15	0.0508	794.92	0.81
298.15	0.1043	809.32	0.81
298.15	0.2003	834.63	0.81
298.15	0.3007	860.76	0.81
298.15	0.405	887.59	0.81
298.15	0.5046	912.93	0.81
298.15	0.6006	936.79	0.81
298.15	0.7034	962	0.81
298.15	0.8029	985.66	0.82
298.15	0.9031	1008.9	0.82
298.15	0.9536	1020.32	0.83
298.15	1	1030.52	0.83
308.15	0	772.26	0.81
308.15	0.0508	786.26	0.81
308.15	0.1043	800.63	0.81
308.15	0.2003	825.91	0.81
308.15	0.3007	852.02	0.81
308.15	0.405	878.83	0.81
308.15	0.5046	904.15	0.81
308.15	0.6006	927.97	0.81
308.15	0.7034	953.15	0.82
308.15	0.8029	976.78	0.82
308.15	0.9031	1000.03	0.82
308.15	0.9536	1011.45	0.83
308.15	1	1021.66	0.83
318.15	0	763.3	0.81
318.15	0.0508	777.31	0.81
318.15	0.1043	791.7	0.81
318.15	0.2003	817	0.81
318.15	0.3007	843.13	0.81
318.15	0.405	869.96	0.81
318.15	0.5046	895.28	0.81
318.15	0.6006	919.09	0.81
318.15	0.7034	944.24	0.82
318.15	0.8029	967.86	0.82
318.15	0.9031	991.11	0.82
318.15	0.9536	1002.55	0.83
318.15	1	1012.76	0.83
328.15	0	753.91	0.81
328.15	0.0508	767.99	0.81
328.15	0.1043	782.45	0.81
328.15	0.2003	807.86	0.81
328.15	0.3007	834.07	0.81
328.15	0.405	860.95	0.81
328.15	0.5046	886.27	0.81
328.15	0.6006	910.11	0.81
328.15	0.7034	935.27	0.82
328.15	0.8029	958.89	0.82
328.15	0.9031	982.15	0.82
328.15	0.9536	993.6	0.83
328.15	1	1003.83	0.83

System: 1-methylimidazole + propan-2-ol; phases: Liquid
Fixed: Pressure, kPa = 98
Fixed: Temperature, K = 298.15
Property: Excess molar enthalpy (molar enthalpy of mixing), kJ/mol (Liquid); method: Calvet calorimetry
Mole fraction of 1-methylimidazole	Excess molar enthalpy (molar enthalpy of mixing), kJ/mol	uncertainty
0	0	0.001
0.0518	-0.047	0.003
0.1082	-0.127	0.007
0.1974	-0.214	0.011
0.2924	-0.307	0.016
0.3342	-0.332	0.017
0.3969	-0.355	0.018
0.4954	-0.376	0.019
0.5926	-0.354	0.018
0.7041	-0.301	0.015
0.798	-0.217	0.011
0.8831	-0.123	0.006
0.9538	-0.06	0.003
1	0	0.001

System: 1-methylimidazole + propan-2-ol; phases: Liquid
Fixed: Pressure, kPa = 98
Fixed: Frequency, MHz = 3
Property: Speed of sound, m/s (Liquid); method: Single path-length method
Temperature, K	Mole fraction of 1-methylimidazole	Speed of sound, m/s	uncertainty
288.15	0	1173.21	1.05
288.15	0.0508	1199.23	1.06
288.15	0.1043	1224.93	1.07
288.15	0.2003	1268.86	1.1
288.15	0.3007	1313.82	1.13
288.15	0.405	1360.74	1.16
288.15	0.5046	1406.83	1.2
288.15	0.6006	1451.67	1.24
288.15	0.7034	1500.66	1.28
288.15	0.8029	1547.25	1.33
288.15	0.9031	1592.84	1.37
288.15	0.9536	1614.93	1.4
288.15	1	1634.08	1.42
298.15	0	1138.41	1.05
298.15	0.0508	1164.04	1.06
298.15	0.1043	1189.6	1.1
298.15	0.2003	1233.42	1.1
298.15	0.3007	1278.4	1.1
298.15	0.405	1325.26	1.16
298.15	0.5046	1371.12	1.2
298.15	0.6006	1415.65	1.24
298.15	0.7034	1464.13	1.28
298.15	0.8029	1510.25	1.33
298.15	0.9031	1555.45	1.37
298.15	0.9536	1577.46	1.4
298.15	1	1596.52	1.42
308.15	0	1103.29	1.05
308.15	0.0508	1128.66	1.06
308.15	0.1043	1154.6	1.07
308.15	0.2003	1197.9	1.1
308.15	0.3007	1242.9	1.13
308.15	0.405	1289.74	1.16
308.15	0.5046	1335.45	1.2
308.15	0.6006	1379.63	1.24
308.15	0.7034	1427.66	1.28
308.15	0.8029	1473.28	1.33
308.15	0.9031	1518.13	1.37
308.15	0.9536	1540	1.4
308.15	1	1558.98	1.42
318.15	0	1067.87	1.05
318.15	0.0508	1093.17	1.06
318.15	0.1043	1118.66	1.07
318.15	0.2003	1162.54	1.1
318.15	0.3007	1207.66	1.13
318.15	0.405	1254.52	1.16
318.15	0.5046	1300.06	1.2
318.15	0.6006	1343.98	1.24
318.15	0.7034	1391.56	1.28
318.15	0.8029	1436.7	1.33
318.15	0.9031	1481.21	1.37
318.15	0.9536	1502.93	1.4
318.15	1	1521.82	1.42
328.15	0	1031.88	1.05
328.15	0.0508	1057.4	1.06
328.15	0.1043	1082.99	1.07
328.15	0.2003	1127.2	1.1
328.15	0.3007	1172.58	1.13
328.15	0.405	1219.53	1.16
328.15	0.5046	1264.98	1.2
328.15	0.6006	1308.61	1.24
328.15	0.7034	1355.77	1.28
328.15	0.8029	1400.51	1.33
328.15	0.9031	1444.62	1.37
328.15	0.9536	1466.19	1.4
328.15	1	1485.03	1.42
