Measured thermophysical data. Effect of dipotassium hydrogen phosphate on thermodynamic properties of glycine and L-alanine in aqueous solutions at different temperatures
Source: J. Chem. Thermodyn., 2012, 10.1016/j.jct.2012.04.020
Compound 1: 2-aminoacetic acid, C2H5NO2, InChI=1S/C2H5NO2/c3-1-2(4)5/h1,3H2,(H,4,5), purity 99%
Compound 2: (S)-2-aminopropanoic acid, C3H7NO2, InChI=1S/C3H7NO2/c1-2(4)3(5)6/h2H,4H2,1H3,(H,5,6)/t2-/m0/s1, purity 99%
Compound 3: dipotassium hydrogen phosphate, HK2O4P, InChI=1S/2K.H3O4P/c;;1-5(2,3)4/h;;(H3,1,2,3,4)/q2*+1;/p-2, purity 99%
Compound 4: water, H2O, InChI=1S/H2O/h1H2, purity 99.9%

System: water; phases: Liquid
Fixed: Pressure, kPa = 101
Property: Speed of sound, m/s (Liquid); method: Sing-around technique in a fixed-path interferometer
Temperature, K	Speed of sound, m/s	uncertainty
288.15	1482.3	1.01
298.15	1496.51	1.02
308.15	1519.55	1.02
318.15	1536.42	1.03

System: water; phases: Liquid
Fixed: Pressure, kPa = 101
Property: Mass density, kg/m3 (Liquid); method: Vibrating tube method
Temperature, K	Mass density, kg/m3	uncertainty
288.15	999.094	0.128
298.15	997.053	0.128
308.15	994.04	0.129
318.15	990.21	0.13

System: water + dipotassium hydrogen phosphate; phases: Liquid
Fixed: Pressure, kPa = 101
Property: Speed of sound, m/s (Liquid); method: Sing-around technique in a fixed-path interferometer
Molality, mol/kg of dipotassium hydrogen phosphate	Temperature, K	Speed of sound, m/s	uncertainty
0.2	288.15	1502.72	1.02
0.2	298.15	1530.6	1
0.2	308.15	1551.79	1.03
0.2	318.15	1566.78	1.04
0.2	288.15	1500.02	1.02
0.2	298.15	1528.22	1.03
0.2	308.15	1549.28	1.03
0.2	318.15	1564.17	1.04
0.4	288.15	1534.99	1.03
0.4	298.15	1560.76	1.04
0.4	308.15	1580.09	1.04
0.4	318.15	1593.66	1.04
0.4	288.15	1531	1
0.4	298.15	1556.95	1.04
0.4	308.15	1576.45	1.04
0.4	318.15	1590.19	1.04
0.6	288.15	1560.35	1.04
0.6	298.15	1584.39	1.04
0.6	308.15	1602.28	1.05
0.6	318.15	1614.71	1.05
0.6	288.15	1570.83	1.04
0.6	298.15	1594.47	1.05
0.6	308.15	1611.77	1.05
0.6	318.15	1623.57	1.05
0.8	288.15	1594.24	1.05
0.8	298.15	1616.26	1.05
0.8	308.15	1632.39	1.05
0.8	318.15	1643.15	1.06
0.8	288.15	1597.27	1.05
0.8	298.15	1619.12	1.05
0.8	308.15	1634.98	1.06
0.8	318.15	1645.54	1.06

System: water + dipotassium hydrogen phosphate; phases: Liquid
Fixed: Pressure, kPa = 101
Property: Mass density, kg/m3 (Liquid); method: Vibrating tube method
Molality, mol/kg of dipotassium hydrogen phosphate	Temperature, K	Mass density, kg/m3	uncertainty
0.2	288.15	1031.931	0.146
0.2	298.15	1029.322	0.145
0.2	308.15	1025.9	0.143
0.2	318.15	1021.793	0.142
0.2	288.15	1029.081	0.145
0.2	298.15	1026.512	0.143
0.2	308.15	1023.126	0.142
0.2	318.15	1018.991	0.14
0.4	288.15	1061.386	0.164
0.4	298.15	1058.348	0.162
0.4	308.15	1054.541	0.16
0.4	318.15	1050.253	0.159
0.4	288.15	1057.503	0.163
0.4	298.15	1054.519	0.16
0.4	308.15	1050.82	0.16
0.4	318.15	1046.5	0.155
0.6	288.15	1084.115	0.179
0.6	298.15	1080.784	0.176
0.6	308.15	1076.82	0.17
0.6	318.15	1072.289	0.17
0.6	288.15	1093.206	0.183
0.6	298.15	1089.76	0.18
0.6	308.15	1085.715	0.179
0.6	318.15	1081.107	0.179
0.8	288.15	1113.939	0.196
0.8	298.15	1110.266	0.193
0.8	308.15	1106.039	0.191
0.8	318.15	1101.379	0.188
0.8	288.15	1116.477	0.197
0.8	298.15	1112.771	0.195
0.8	308.15	1108.531	0.193
0.8	318.15	1103.811	0.19

System: 2-aminoacetic acid + water; phases: Liquid
Fixed: Pressure, kPa = 101
Property: Speed of sound, m/s (Liquid); method: Sing-around technique in a fixed-path interferometer
Temperature, K	Molality, mol/kg of 2-aminoacetic acid	Speed of sound, m/s	uncertainty
288.15	0.04978	1484.94	1.01
288.15	0.14721	1490.08	1.01
288.15	0.25068	1495.26	1.02
288.15	0.30176	1497.73	1.02
288.15	0.35208	1499.98	1.02
298.15	0.04978	1498.97	1.02
298.15	0.14721	1503.63	1.02
298.15	0.25068	1508.33	1.02
298.15	0.30176	1510.35	1.02
298.15	0.35208	1512.26	1.02
308.15	0.04978	1521.77	1.02
308.15	0.14721	1525.95	1.03
308.15	0.25068	1530.48	1.03
308.15	0.30176	1532.44	1.03
308.15	0.35208	1534.29	1.03
318.15	0.04978	1538.64	1.03
318.15	0.14721	1542.78	1.03
318.15	0.25068	1546.98	1.03
318.15	0.30176	1549.29	1.03
318.15	0.35208	1550.89	1.03

System: 2-aminoacetic acid + water; phases: Liquid
Fixed: Pressure, kPa = 101
Property: Mass density, kg/m3 (Liquid); method: Vibrating tube method
Temperature, K	Molality, mol/kg of 2-aminoacetic acid	Mass density, kg/m3	uncertainty
288.15	0.04978	1000.742	0.128
288.15	0.14721	1003.871	0.13
288.15	0.25068	1007.086	0.132
288.15	0.30176	1008.623	0.133
288.15	0.35208	1010.011	0.134
298.15	0.04978	998.674	0.128
298.15	0.14721	1001.731	0.129
298.15	0.25068	1004.793	0.131
298.15	0.30176	1006.264	0.132
298.15	0.35208	1007.543	0.132
308.15	0.04978	995.639	0.129
308.15	0.14721	998.704	0.128
308.15	0.25068	1001.688	0.129
308.15	0.30176	1002.995	0.13
308.15	0.35208	1004.155	0.131
318.15	0.04978	991.801	0.13
318.15	0.14721	994.854	0.129
318.15	0.25068	997.838	0.129
318.15	0.30176	999.157	0.128
318.15	0.35208	1000.434	0.128

System: (S)-2-aminopropanoic acid + water; phases: Liquid
Fixed: Pressure, kPa = 101
Property: Mass density, kg/m3 (Liquid); method: Vibrating tube method
Temperature, K	Molality, mol/kg of (S)-2-aminopropanoic acid	Mass density, kg/m3	uncertainty
288.15	0.05014	1000.646	0.128
288.15	0.14998	1003.648	0.13
288.15	0.25054	1006.525	0.131
288.15	0.30299	1007.969	0.132
288.15	0.34555	1009.14	0.133
298.15	0.05014	998.59	0.128
298.15	0.14998	1001.563	0.129
298.15	0.25054	1004.425	0.13
298.15	0.30299	1005.854	0.131
298.15	0.34555	1006.98	0.132
308.15	0.05014	995.554	0.129
308.15	0.14998	998.483	0.128
308.15	0.25054	1001.313	0.129
308.15	0.30299	1002.737	0.13
308.15	0.34555	1003.857	0.13
318.15	0.05014	991.648	0.13
318.15	0.14998	994.399	0.13
318.15	0.25054	997.067	0.129
318.15	0.30299	998.365	0.129
318.15	0.34555	999.359	0.129

System: 2-aminoacetic acid + water + dipotassium hydrogen phosphate; phases: Liquid
Fixed: Pressure, kPa = 101
Property: Speed of sound, m/s (Liquid); method: Sing-around technique in a fixed-path interferometer
Solvent: Molality, mol/kg of dipotassium hydrogen phosphate	Temperature, K	Molality, mol/kg of 2-aminoacetic acid	Speed of sound, m/s	uncertainty
0	288.15	0	1482.3	1.01
0	288.15	0.04978	1484.94	1.01
0	288.15	0.14721	1490.08	1.01
0	288.15	0.25068	1495.26	1.02
0	288.15	0.30176	1497.73	1.02
0	288.15	0.35208	1499.98	1.02
0	298.15	0	1496.51	1.02
0	298.15	0.04978	1498.97	1.02
0	298.15	0.14721	1503.63	1.02
0	298.15	0.25068	1508.33	1.02
0	298.15	0.30176	1510.35	1.02
0	298.15	0.35208	1512.26	1.02
0	308.15	0	1519.55	1.02
0	308.15	0.04978	1521.77	1.02
0	308.15	0.14721	1525.95	1.03
0	308.15	0.25068	1530.48	1.03
0	308.15	0.30176	1532.44	1.03
0	308.15	0.35208	1534.29	1.03
0	318.15	0	1536.42	1.03
0	318.15	0.04978	1538.64	1.03
0	318.15	0.14721	1542.78	1.03
0	318.15	0.25068	1546.98	1.03
0	318.15	0.30176	1549.29	1.03
0	318.15	0.35208	1550.89	1.03
0.2	288.15	0	1502.72	1.02
0.2	288.15	0.0359	1504.38	1.02
0.2	288.15	0.05907	1505.43	1.02
0.2	288.15	0.09179	1506.87	1.02
0.2	288.15	0.14485	1509.19	1.02
0.2	288.15	0.19585	1511.41	1.02
0.2	288.15	0.26875	1514.26	1.03
0.2	288.15	0.32037	1516.32	1.03
0.2	288.15	0.35118	1517.49	1.02
0.2	298.15	0	1530.6	1
0.2	298.15	0.0359	1532.24	1.03
0.2	298.15	0.05907	1533.28	1.03
0.2	298.15	0.09179	1534.69	1.03
0.2	298.15	0.14485	1536.93	1.03
0.2	298.15	0.19585	1538.93	1.03
0.2	298.15	0.26875	1541.83	1.03
0.2	298.15	0.32037	1543.78	1.03
0.2	298.15	0.35118	1544.93	1.03
0.2	308.15	0	1551.79	1.03
0.2	308.15	0.0359	1553.32	1.03
0.2	308.15	0.05907	1554.29	1.03
0.2	308.15	0.09179	1555.58	1.03
0.2	308.15	0.14485	1557.62	1.03
0.2	308.15	0.19585	1559.51	1.03
0.2	308.15	0.26875	1562.09	1.04
0.2	308.15	0.32037	1563.78	1.04
0.2	308.15	0.35118	1564.82	1.04
0.2	318.15	0	1566.78	1.04
0.2	318.15	0.0359	1568.21	1.04
0.2	318.15	0.05907	1569.11	1.04
0.2	318.15	0.09179	1570.32	1.04
0.2	318.15	0.14485	1572.21	1.04
0.2	318.15	0.19585	1573.96	1.04
0.2	318.15	0.26875	1576.39	1.04
0.2	318.15	0.32037	1578.06	1.04
0.2	318.15	0.35118	1579.01	1.04
0.4	288.15	0	1534.99	1.03
0.4	288.15	0.03943	1536.55	1.03
0.4	288.15	0.05925	1537.34	1.03
0.4	288.15	0.10181	1539.08	1.03
0.4	288.15	0.15917	1541.42	1.03
0.4	288.15	0.20724	1543.44	1.03
0.4	288.15	0.26359	1545.84	1.03
0.4	288.15	0.29515	1547.17	1.03
0.4	288.15	0.35732	1549.69	1.04
0.4	298.15	0	1560.76	1.04
0.4	298.15	0.03943	1562.16	1.04
0.4	298.15	0.05925	1562.87	1.04
0.4	298.15	0.10181	1564.41	1.04
0.4	298.15	0.15917	1566.57	1.04
0.4	298.15	0.20724	1568.38	1.04
0.4	298.15	0.26359	1570.63	1.04
0.4	298.15	0.29515	1571.86	1.04
0.4	298.15	0.35732	1574.23	1.04
0.4	308.15	0	1580.09	1.04
0.4	308.15	0.03943	1581.35	1.04
0.4	308.15	0.05925	1581.98	1.04
0.4	308.15	0.10181	1583.38	1.04
0.4	308.15	0.15917	1585.34	1.04
0.4	308.15	0.20724	1587.02	1.04
0.4	308.15	0.26359	1589.11	1.04
0.4	308.15	0.29515	1590.25	1.04
0.4	308.15	0.35732	1592.46	1.04
0.4	318.15	0	1593.66	1.04
0.4	318.15	0.03943	1594.78	1.04
0.4	318.15	0.05925	1595.32	1.04
0.4	318.15	0.10181	1596.56	1.04
0.4	318.15	0.15917	1598.36	1.04
0.4	318.15	0.20724	1599.94	1.05
0.4	318.15	0.26359	1601.86	1.05
0.4	318.15	0.29515	1602.89	1.05
0.4	318.15	0.35732	1604.98	1.05
0.6	288.15	0	1560.35	1.04
0.6	288.15	0.04302	1561.99	1.04
0.6	288.15	0.08234	1563.46	1.04
0.6	288.15	0.14601	1565.91	1.04
0.6	288.15	0.17662	1567.08	1.04
0.6	288.15	0.22795	1569.13	1.04
0.6	288.15	0.26449	1570.55	1.04
0.6	288.15	0.32849	1573.12	1.04
0.6	288.15	0.36119	1574.43	1.04
0.6	298.15	0	1584.39	1.04
0.6	298.15	0.04302	1585.83	1.04
0.6	298.15	0.08234	1587.13	1.04
0.6	298.15	0.14601	1589.28	1.04
0.6	298.15	0.17662	1590.28	1.04
0.6	298.15	0.22795	1592.13	1.05
0.6	298.15	0.26449	1593.43	1.05
0.6	298.15	0.32849	1595.67	1.05
0.6	298.15	0.36119	1596.75	1.05
0.6	308.15	0	1602.28	1.05
0.6	308.15	0.04302	1603.72	1.05
0.6	308.15	0.08234	1605.06	1.05
0.6	308.15	0.14601	1607.32	1.05
0.6	308.15	0.17662	1608.42	1.05
0.6	308.15	0.22795	1610.31	1.05
0.6	308.15	0.26449	1611.67	1.05
0.6	308.15	0.32849	1614.09	1.05
0.6	308.15	0.36119	1615.23	1.05
0.6	318.15	0	1614.71	1.05
0.6	318.15	0.04302	1615.62	1.05
0.6	318.15	0.08234	1616.49	1.05
0.6	318.15	0.14601	1618.01	1.05
0.6	318.15	0.17662	1618.81	1.05
0.6	318.15	0.22795	1620.13	1.05
0.6	318.15	0.26449	1621.09	1.05
0.6	318.15	0.32849	1622.89	1.05
0.6	318.15	0.36119	1623.79	1.05
0.8	288.15	0	1594.24	1.05
0.8	288.15	0.04184	1595.59	1.05
0.8	288.15	0.09827	1597.41	1.05
0.8	288.15	0.16446	1599.59	1.05
0.8	288.15	0.20375	1600.83	1.05
0.8	288.15	0.25129	1602.44	1.05
0.8	288.15	0.29596	1604.01	1.05
0.8	288.15	0.36374	1606.34	1.05
0.8	298.15	0	1616.26	1.05
0.8	298.15	0.04184	1617.41	1.05
0.8	298.15	0.09827	1618.96	1.05
0.8	298.15	0.16446	1620.84	1.05
0.8	298.15	0.20375	1622.02	1.05
0.8	298.15	0.25129	1623.51	1.05
0.8	298.15	0.29596	1624.84	1.05
0.8	298.15	0.36374	1626.97	1.05
0.8	308.15	0	1632.39	1.05
0.8	308.15	0.04184	1633.41	1.06
0.8	308.15	0.09827	1634.81	1.06
0.8	308.15	0.16446	1636.54	1.06
0.8	308.15	0.20375	1637.58	1.06
0.8	308.15	0.25129	1638.93	1.06
0.8	308.15	0.29596	1640.06	1.06
0.8	308.15	0.36374	1642.09	1.06
0.8	318.15	0	1643.15	1.06
0.8	318.15	0.04184	1644.09	1.06
0.8	318.15	0.09827	1645.38	1.06
0.8	318.15	0.16446	1646.99	1.06
0.8	318.15	0.20375	1647.94	1.06
0.8	318.15	0.25129	1649.17	1.06
0.8	318.15	0.29596	1650.41	1.06
0.8	318.15	0.36374	1652.35	1.06

System: 2-aminoacetic acid + water + dipotassium hydrogen phosphate; phases: Liquid
Fixed: Pressure, kPa = 101
Property: Mass density, kg/m3 (Liquid); method: Vibrating tube method
Solvent: Molality, mol/kg of dipotassium hydrogen phosphate	Temperature, K	Molality, mol/kg of 2-aminoacetic acid	Mass density, kg/m3	uncertainty
0	288.15	0	999.094	0.128
0	288.15	0.04978	1000.742	0.128
0	288.15	0.14721	1003.871	0.13
0	288.15	0.25068	1007.086	0.132
0	288.15	0.30176	1008.623	0.133
0	288.15	0.35208	1010.011	0.134
0	298.15	0	997.053	0.128
0	298.15	0.04978	998.674	0.128
0	298.15	0.14721	1001.731	0.129
0	298.15	0.25068	1004.793	0.131
0	298.15	0.30176	1006.264	0.132
0	298.15	0.35208	1007.543	0.132
0	308.15	0	994.04	0.129
0	308.15	0.04978	995.639	0.129
0	308.15	0.14721	998.704	0.128
0	308.15	0.25068	1001.688	0.129
0	308.15	0.30176	1002.995	0.13
0	308.15	0.35208	1004.155	0.131
0	318.15	0	990.21	0.13
0	318.15	0.04978	991.801	0.13
0	318.15	0.14721	994.854	0.129
0	318.15	0.25068	997.838	0.129
0	318.15	0.30176	999.157	0.128
0	318.15	0.35208	1000.434	0.128
0.2	288.15	0	1031.931	0.146
0.2	288.15	0.0359	1032.902	0.147
0.2	288.15	0.05907	1033.511	0.147
0.2	288.15	0.09179	1034.343	0.148
0.2	288.15	0.14485	1035.636	0.149
0.2	288.15	0.19585	1036.824	0.149
0.2	288.15	0.26875	1038.454	0.15
0.2	288.15	0.32037	1039.517	0.151
0.2	288.15	0.35118	1040.139	0.151
0.2	298.15	0	1029.322	0.145
0.2	298.15	0.0359	1030.272	0.146
0.2	298.15	0.05907	1030.865	0.146
0.2	298.15	0.09179	1031.682	0.146
0.2	298.15	0.14485	1032.966	0.147
0.2	298.15	0.19585	1034.143	0.148
0.2	298.15	0.26875	1035.725	0.149
0.2	298.15	0.32037	1036.749	0.149
0.2	298.15	0.35118	1037.348	0.15
0.2	308.15	0	1025.9	0.143
0.2	308.15	0.0359	1026.834	0.144
0.2	308.15	0.05907	1027.418	0.144
0.2	308.15	0.09179	1028.225	0.145
0.2	308.15	0.14485	1029.495	0.145
0.2	308.15	0.19585	1030.653	0.146
0.2	308.15	0.26875	1032.175	0.147
0.2	308.15	0.32037	1033.184	0.148
0.2	308.15	0.35118	1033.759	0.148
0.2	318.15	0	1021.793	0.142
0.2	318.15	0.0359	1022.714	0.142
0.2	318.15	0.05907	1023.291	0.142
0.2	318.15	0.09179	1024.082	0.142
0.2	318.15	0.14485	1025.316	0.143
0.2	318.15	0.19585	1026.436	0.144
0.2	318.15	0.26875	1027.929	0.145
0.2	318.15	0.32037	1028.882	0.145
0.2	318.15	0.35118	1029.411	0.146
0.4	288.15	0	1061.386	0.164
0.4	288.15	0.03943	1062.385	0.164
0.4	288.15	0.05925	1062.877	0.165
0.4	288.15	0.10181	1063.899	0.165
0.4	288.15	0.15917	1065.219	0.166
0.4	288.15	0.20724	1066.249	0.167
0.4	288.15	0.26359	1067.423	0.167
0.4	288.15	0.29515	1068.059	0.168
0.4	288.15	0.35732	1069.248	0.168
0.4	298.15	0	1058.348	0.162
0.4	298.15	0.03943	1059.333	0.163
0.4	298.15	0.05925	1059.812	0.163
0.4	298.15	0.10181	1060.803	0.164
0.4	298.15	0.15917	1062.087	0.165
0.4	298.15	0.20724	1063.113	0.165
0.4	298.15	0.26359	1064.214	0.166
0.4	298.15	0.29515	1064.813	0.166
0.4	298.15	0.35732	1065.917	0.167
0.4	308.15	0	1054.541	0.16
0.4	308.15	0.03943	1055.499	0.161
0.4	308.15	0.05925	1055.971	0.161
0.4	308.15	0.10181	1056.943	0.162
0.4	308.15	0.15917	1058.191	0.162
0.4	308.15	0.20724	1059.186	0.163
0.4	308.15	0.26359	1060.256	0.164
0.4	308.15	0.29515	1060.834	0.164
0.4	308.15	0.35732	1061.924	0.165
0.4	318.15	0	1050.253	0.159
0.4	318.15	0.03943	1051.199	0.159
0.4	318.15	0.05925	1051.662	0.159
0.4	318.15	0.10181	1052.616	0.16
0.4	318.15	0.15917	1053.825	0.161
0.4	318.15	0.20724	1054.775	0.161
0.4	318.15	0.26359	1055.821	0.162
0.4	318.15	0.29515	1056.373	0.162
0.4	318.15	0.35732	1057.376	0.163
0.6	288.15	0	1084.115	0.179
0.6	288.15	0.04302	1085.152	0.179
0.6	288.15	0.08234	1086.065	0.179
0.6	288.15	0.14601	1087.455	0.18
0.6	288.15	0.17662	1088.087	0.18
0.6	288.15	0.22795	1089.098	0.181
0.6	288.15	0.26449	1089.798	0.182
0.6	288.15	0.32849	1090.979	0.182
0.6	288.15	0.36119	1091.525	0.183
0.6	298.15	0	1080.784	0.176
0.6	298.15	0.04302	1081.795	0.176
0.6	298.15	0.08234	1082.676	0.177
0.6	298.15	0.14601	1084.043	0.178
0.6	298.15	0.17662	1084.672	0.178
0.6	298.15	0.22795	1085.656	0.179
0.6	298.15	0.26449	1086.299	0.179
0.6	298.15	0.32849	1087.387	0.18
0.6	298.15	0.36119	1087.909	0.18
0.6	308.15	0	1076.82	0.17
0.6	308.15	0.04302	1077.821	0.174
0.6	308.15	0.08234	1078.693	0.175
0.6	308.15	0.14601	1080.021	0.175
0.6	308.15	0.17662	1080.625	0.176
0.6	308.15	0.22795	1081.595	0.176
0.6	308.15	0.26449	1082.219	0.177
0.6	308.15	0.32849	1083.305	0.177
0.6	308.15	0.36119	1083.792	0.178
0.6	318.15	0	1072.289	0.17
0.6	318.15	0.04302	1073.268	0.171
0.6	318.15	0.08234	1074.119	0.172
0.6	318.15	0.14601	1075.395	0.173
0.6	318.15	0.17662	1075.969	0.173
0.6	318.15	0.22795	1076.882	0.174
0.6	318.15	0.26449	1077.499	0.174
0.6	318.15	0.32849	1078.498	0.175
0.6	318.15	0.36119	1078.939	0.174
0.8	288.15	0	1113.939	0.196
0.8	288.15	0.04184	1114.889	0.196
0.8	288.15	0.09827	1116.099	0.197
0.8	288.15	0.16446	1117.412	0.198
0.8	288.15	0.20375	1118.132	0.198
0.8	288.15	0.25129	1118.962	0.199
0.8	288.15	0.29596	1119.694	0.199
0.8	288.15	0.36374	1120.795	0.2
0.8	298.15	0	1110.266	0.193
0.8	298.15	0.04184	1111.177	0.194
0.8	298.15	0.09827	1112.345	0.195
0.8	298.15	0.16446	1113.619	0.196
0.8	298.15	0.20375	1114.318	0.196
0.8	298.15	0.25129	1115.112	0.196
0.8	298.15	0.29596	1115.817	0.197
0.8	298.15	0.36374	1116.792	0.198
0.8	308.15	0	1106.039	0.191
0.8	308.15	0.04184	1106.943	0.192
0.8	308.15	0.09827	1108.083	0.192
0.8	308.15	0.16446	1109.316	0.193
0.8	308.15	0.20375	1109.979	0.194
0.8	308.15	0.25129	1110.748	0.194
0.8	308.15	0.29596	1111.411	0.194
0.8	308.15	0.36374	1112.361	0.195
0.8	318.15	0	1101.379	0.188
0.8	318.15	0.04184	1102.264	0.189
0.8	318.15	0.09827	1103.369	0.19
0.8	318.15	0.16446	1104.548	0.19
0.8	318.15	0.20375	1105.185	0.191
0.8	318.15	0.25129	1105.898	0.191
0.8	318.15	0.29596	1106.513	0.192
0.8	318.15	0.36374	1107.382	0.192

System: (S)-2-aminopropanoic acid + water + dipotassium hydrogen phosphate; phases: Liquid
Fixed: Pressure, kPa = 101
Property: Speed of sound, m/s (Liquid); method: Sing-around technique in a fixed-path interferometer
Solvent: Molality, mol/kg of dipotassium hydrogen phosphate	Temperature, K	Molality, mol/kg of (S)-2-aminopropanoic acid	Speed of sound, m/s	uncertainty
0.2	288.15	0	1500.02	1.02
0.2	288.15	0.05075	1503.09	1.02
0.2	288.15	0.11076	1506.76	1.02
0.2	288.15	0.15257	1509.39	1.02
0.2	288.15	0.20019	1512.37	1.02
0.2	288.15	0.25144	1515.57	1.03
0.2	288.15	0.32211	1519.97	1.03
0.2	288.15	0.36239	1522.49	1.03
0.2	298.15	0	1528.22	1.03
0.2	298.15	0.05075	1531.02	1.03
0.2	298.15	0.11076	1534.23	1.03
0.2	298.15	0.15257	1536.57	1.03
0.2	298.15	0.20019	1539.04	1.03
0.2	298.15	0.25144	1541.55	1.03
0.2	298.15	0.32211	1545.89	1.03
0.2	298.15	0.36239	1547.52	1.03
0.2	308.15	0	1549.28	1.03
0.2	308.15	0.05075	1551.74	1.03
0.2	308.15	0.11076	1554.91	1.03
0.2	308.15	0.15257	1557.53	1.03
0.2	308.15	0.20019	1559.42	1.03
0.2	308.15	0.25144	1561.74	1.04
0.2	308.15	0.32211	1565.79	1.04
0.2	308.15	0.36239	1567.22	1.04
0.2	318.15	0	1564.17	1.04
0.2	318.15	0.05075	1566.63	1.04
0.2	318.15	0.11076	1569.4	1
0.2	318.15	0.15257	1572.03	1.04
0.2	318.15	0.20019	1573.73	1.04
0.2	318.15	0.25144	1575.88	1.04
0.2	318.15	0.32211	1579.41	1.04
0.2	318.15	0.36239	1581.05	1.04
0.4	288.15	0	1531	1
0.4	288.15	0.04944	1533.86	1.03
0.4	288.15	0.09965	1536.79	1.03
0.4	288.15	0.16043	1540.34	1.03
0.4	288.15	0.2219	1543.86	1.03
0.4	288.15	0.2673	1546.34	1.03
0.4	288.15	0.3172	1549.15	1.03
0.4	288.15	0.35409	1551.24	1.03
0.4	298.15	0	1556.95	1.04
0.4	298.15	0.04944	1559.75	1.04
0.4	298.15	0.09965	1562.57	1.04
0.4	298.15	0.16043	1565.99	1.04
0.4	298.15	0.2219	1569.42	1.04
0.4	298.15	0.2673	1571.86	1.04
0.4	298.15	0.3172	1574.64	1.04
0.4	298.15	0.35409	1576.65	1.04
0.4	308.15	0	1576.45	1.04
0.4	308.15	0.04944	1579.21	1.04
0.4	308.15	0.09965	1581.92	1.04
0.4	308.15	0.16043	1585.15	1.04
0.4	308.15	0.2219	1588.51	1.04
0.4	308.15	0.2673	1591.01	1.04
0.4	308.15	0.3172	1593.79	1.04
0.4	308.15	0.35409	1595.85	1.04
0.4	318.15	0	1590.19	1.04
0.4	318.15	0.04944	1592.87	1.04
0.4	318.15	0.09965	1595.52	1.04
0.4	318.15	0.16043	1598.64	1.05
0.4	318.15	0.2219	1601.73	1.05
0.4	318.15	0.2673	1603.99	1.05
0.4	318.15	0.3172	1606.28	1.05
0.4	318.15	0.35409	1608.24	1.05
0.6	288.15	0	1570.83	1.04
0.6	288.15	0.06819	1574.81	1.04
0.6	288.15	0.11884	1577.71	1.04
0.6	288.15	0.16947	1580.62	1.04
0.6	288.15	0.25609	1585.35	1.04
0.6	288.15	0.30064	1587.81	1.04
0.6	288.15	0.35684	1590.74	1.05
0.6	298.15	0	1594.47	1.05
0.6	298.15	0.06819	1598.43	1.05
0.6	298.15	0.11884	1601.35	1.05
0.6	298.15	0.16947	1604.22	1.05
0.6	298.15	0.25609	1608.95	1.05
0.6	298.15	0.30064	1611.35	1.05
0.6	298.15	0.35684	1614.25	1.05
0.6	308.15	0	1611.77	1.05
0.6	308.15	0.06819	1615.74	1.05
0.6	308.15	0.11884	1618.57	1.05
0.6	308.15	0.16947	1621.35	1.05
0.6	308.15	0.25609	1625.97	1.05
0.6	308.15	0.30064	1628.33	1.05
0.6	308.15	0.35684	1631.45	1.05
0.6	318.15	0	1623.57	1.05
0.6	318.15	0.06819	1627.39	1.05
0.6	318.15	0.11884	1630.19	1.05
0.6	318.15	0.16947	1632.92	1.05
0.6	318.15	0.25609	1637.43	1.06
0.6	318.15	0.30064	1639.65	1.06
0.6	318.15	0.35684	1642.53	1.06
0.8	288.15	0	1597.27	1.05
0.8	288.15	0.07497	1601.25	1.05
0.8	288.15	0.12076	1603.68	1.05
0.8	288.15	0.17715	1606.75	1.05
0.8	288.15	0.22784	1609.49	1.05
0.8	288.15	0.27826	1612.19	1.05
0.8	288.15	0.32913	1614.73	1.05
0.8	288.15	0.37504	1617.17	1.05
0.8	298.15	0	1619.12	1.05
0.8	298.15	0.07497	1623.07	1.05
0.8	298.15	0.12076	1625.51	1.05
0.8	298.15	0.17715	1628.53	1.05
0.8	298.15	0.22784	1631.18	1.06
0.8	298.15	0.27826	1633.83	1.06
0.8	298.15	0.32913	1636.46	1.06
0.8	298.15	0.37504	1638.78	1.06
0.8	308.15	0	1634.98	1.06
0.8	308.15	0.07497	1638.93	1.06
0.8	308.15	0.12076	1641.35	1.06
0.8	308.15	0.17715	1644.37	1.06
0.8	308.15	0.22784	1647.09	1.06
0.8	308.15	0.27826	1649.78	1.06
0.8	308.15	0.32913	1652.46	1.06
0.8	308.15	0.37504	1654.97	1.06
0.8	318.15	0	1645.54	1.06
0.8	318.15	0.07497	1648.36	1.06
0.8	318.15	0.12076	1650.09	1.06
0.8	318.15	0.17715	1652.27	1.06
0.8	318.15	0.22784	1654.29	1.06
0.8	318.15	0.27826	1656.36	1.06
0.8	318.15	0.32913	1658.65	1.06
0.8	318.15	0.37504	1660.76	1.06

System: (S)-2-aminopropanoic acid + water + dipotassium hydrogen phosphate; phases: Liquid
Fixed: Pressure, kPa = 101
Property: Mass density, kg/m3 (Liquid); method: Vibrating tube method
Solvent: Molality, mol/kg of dipotassium hydrogen phosphate	Temperature, K	Molality, mol/kg of (S)-2-aminopropanoic acid	Mass density, kg/m3	uncertainty
0	288.15	0	999.094	0.128
0	288.15	0.05014	1000.646	0.128
0	288.15	0.14998	1003.648	0.13
0	288.15	0.25054	1006.525	0.131
0	288.15	0.30299	1007.969	0.132
0	288.15	0.34555	1009.14	0.133
0	298.15	0	997.053	0.128
0	298.15	0.05014	998.59	0.128
0	298.15	0.14998	1001.563	0.129
0	298.15	0.25054	1004.425	0.13
0	298.15	0.30299	1005.854	0.131
0	298.15	0.34555	1006.98	0.132
0	308.15	0	994.04	0.129
0	308.15	0.05014	995.554	0.129
0	308.15	0.14998	998.483	0.128
0	308.15	0.25054	1001.313	0.129
0	308.15	0.30299	1002.737	0.13
0	308.15	0.34555	1003.857	0.13
0	318.15	0	990.21	0.13
0	318.15	0.05014	991.648	0.13
0	318.15	0.14998	994.399	0.13
0	318.15	0.25054	997.067	0.129
0	318.15	0.30299	998.365	0.129
0	318.15	0.34555	999.359	0.129
0.2	288.15	0	1029.081	0.145
0.2	288.15	0.05075	1030.482	0.146
0.2	288.15	0.11076	1032.025	0.146
0.2	288.15	0.15257	1033.036	0.147
0.2	288.15	0.20019	1034.156	0.148
0.2	288.15	0.25144	1035.293	0.149
0.2	288.15	0.32211	1036.762	0.149
0.2	288.15	0.36239	1037.552	0.15
0.2	298.15	0	1026.512	0.143
0.2	298.15	0.05075	1027.877	0.144
0.2	298.15	0.11076	1029.379	0.145
0.2	298.15	0.15257	1030.359	0.146
0.2	298.15	0.20019	1031.411	0.146
0.2	298.15	0.25144	1032.498	0.147
0.2	298.15	0.32211	1033.913	0.148
0.2	298.15	0.36239	1034.717	0.148
0.2	308.15	0	1023.126	0.142
0.2	308.15	0.05075	1024.427	0.142
0.2	308.15	0.11076	1025.888	0.143
0.2	308.15	0.15257	1026.845	0.144
0.2	308.15	0.20019	1027.862	0.145
0.2	308.15	0.25144	1028.896	0.145
0.2	308.15	0.32211	1030.202	0.146
0.2	308.15	0.36239	1030.846	0.146
0.2	318.15	0	1018.991	0.14
0.2	318.15	0.05075	1020.265	0.14
0.2	318.15	0.11076	1021.672	0.141
0.2	318.15	0.15257	1022.601	0.142
0.2	318.15	0.20019	1023.579	0.142
0.2	318.15	0.25144	1024.578	0.142
0.2	318.15	0.32211	1025.897	0.144
0.2	318.15	0.36239	1026.579	0.144
0.4	288.15	0	1057.503	0.163
0.4	288.15	0.04944	1058.785	0.162
0.4	288.15	0.09965	1059.997	0.163
0.4	288.15	0.16043	1061.384	0.165
0.4	288.15	0.2219	1062.702	0.165
0.4	288.15	0.2673	1063.617	0.165
0.4	288.15	0.3172	1064.552	0.166
0.4	288.15	0.35409	1065.215	0.167
0.4	298.15	0	1054.519	0.16
0.4	298.15	0.04944	1055.764	0.161
0.4	298.15	0.09965	1056.933	0.161
0.4	298.15	0.16043	1058.249	0.162
0.4	298.15	0.2219	1059.494	0.163
0.4	298.15	0.2673	1060.357	0.164
0.4	298.15	0.3172	1061.234	0.164
0.4	298.15	0.35409	1061.886	0.165
0.4	308.15	0	1050.82	0.16
0.4	308.15	0.04944	1051.999	0.159
0.4	308.15	0.09965	1053.135	0.159
0.4	308.15	0.16043	1054.422	0.16
0.4	308.15	0.2219	1055.566	0.161
0.4	308.15	0.2673	1056.342	0.161
0.4	308.15	0.3172	1057.109	0.162
0.4	308.15	0.35409	1057.616	0.162
0.4	318.15	0	1046.5	0.155
0.4	318.15	0.04944	1047.657	0.156
0.4	318.15	0.09965	1048.741	0.157
0.4	318.15	0.16043	1049.956	0.157
0.4	318.15	0.2219	1051.095	0.158
0.4	318.15	0.2673	1051.891	0.159
0.4	318.15	0.3172	1052.735	0.159
0.4	318.15	0.35409	1053.258	0.159
0.6	288.15	0	1093.206	0.183
0.6	288.15	0.06819	1094.787	0.184
0.6	288.15	0.11884	1095.879	0.185
0.6	288.15	0.16947	1096.897	0.185
0.6	288.15	0.25609	1098.514	0.186
0.6	288.15	0.30064	1099.259	0.187
0.6	288.15	0.35684	1100.186	0.187
0.6	298.15	0	1089.76	0.18
0.6	298.15	0.06819	1091.296	0.182
0.6	298.15	0.11884	1092.336	0.183
0.6	298.15	0.16947	1093.317	0.183
0.6	298.15	0.25609	1094.834	0.184
0.6	298.15	0.30064	1095.524	0.185
0.6	298.15	0.35684	1096.344	0.185
0.6	308.15	0	1085.715	0.179
0.6	308.15	0.06819	1087.172	0.18
0.6	308.15	0.11884	1088.178	0.18
0.6	308.15	0.16947	1089.109	0.181
0.6	308.15	0.25609	1090.454	0.182
0.6	308.15	0.30064	1091.081	0.182
0.6	308.15	0.35684	1091.688	0.183
0.6	318.15	0	1081.107	0.179
0.6	318.15	0.06819	1082.584	0.177
0.6	318.15	0.11884	1083.531	0.178
0.6	318.15	0.16947	1084.392	0.18
0.6	318.15	0.25609	1085.728	0.179
0.6	318.15	0.30064	1086.339	0.179
0.6	318.15	0.35684	1087.016	0.18
0.8	288.15	0	1116.477	0.197
0.8	288.15	0.07497	1118.075	0.198
0.8	288.15	0.12076	1118.981	0.199
0.8	288.15	0.17715	1119.996	0.199
0.8	288.15	0.22784	1120.836	0.2
0.8	288.15	0.27826	1121.628	0.2
0.8	288.15	0.32913	1122.394	0.201
0.8	288.15	0.37504	1123.006	0.201
0.8	298.15	0	1112.771	0.195
0.8	298.15	0.07497	1114.335	0.196
0.8	298.15	0.12076	1115.195	0.196
0.8	298.15	0.17715	1116.193	0.197
0.8	298.15	0.22784	1117.016	0.198
0.8	298.15	0.27826	1117.781	0.198
0.8	298.15	0.32913	1118.441	0.199
0.8	298.15	0.37504	1118.982	0.199
0.8	308.15	0	1108.531	0.193
0.8	308.15	0.07497	1110.007	0.194
0.8	308.15	0.12076	1110.826	0.194
0.8	308.15	0.17715	1111.757	0.195
0.8	308.15	0.22784	1112.468	0.195
0.8	308.15	0.27826	1113.126	0.195
0.8	308.15	0.32913	1113.675	0.196
0.8	308.15	0.37504	1114.071	0.196
0.8	318.15	0	1103.811	0.19
0.8	318.15	0.07497	1105.219	0.191
0.8	318.15	0.12076	1105.989	0.191
0.8	318.15	0.17715	1106.856	0.192
0.8	318.15	0.22784	1107.518	0.192
0.8	318.15	0.27826	1108.142	0.193
0.8	318.15	0.32913	1108.632	0.193
0.8	318.15	0.37504	1108.989	0.193
