Measured thermophysical data. Experimental solubility of carbon dioxide and hydrogen sulfide in 2,2'-thiodiglycol
Source: J. Chem. Thermodyn., 2019, 10.1016/j.jct.2019.02.024
Compound 1: hydrogen sulfide, H2S, InChI=1S/H2S/h1H2, purity 99.95%
Compound 2: carbon dioxide, CO2, InChI=1S/CO2/c2-1-3, purity 99.5%
Compound 3: .beta.,.beta.'-dihydroxydiethyl sulfide, C4H10O2S, InChI=1S/C4H10O2S/c5-1-3-7-4-2-6/h5-6H,1-4H2, purity 99%

System: .beta.,.beta.'-dihydroxydiethyl sulfide; phases: Liquid
Fixed: Pressure, kPa = 101.325
Property: Mass density, kg/m3 (Liquid); method: Vibrating tube method
Temperature, K	Mass density, kg/m3	uncertainty
293.15	1182.4	2
303.15	1174	2
313.15	1167	2
323.15	1160	2
333.15	1152	2
343.15	1145	2
353.15	1138	2

System: carbon dioxide + .beta.,.beta.'-dihydroxydiethyl sulfide; phases: Liquid, Gas
Property: Mole fraction of carbon dioxide (Liquid); method: Phase equilibration
Temperature, K	Pressure, kPa	Mole fraction of carbon dioxide	uncertainty
303.15	207	0.008	0.0024
303.15	434.1	0.0172	0.003
303.15	641.9	0.0244	0.004
303.15	871.3	0.0332	0.005
303.15	1036	0.0398	0.006
303.15	1137.5	0.0443	0.008
313.15	215	0.0078	0.0024
313.15	454	0.0162	0.0032
313.15	670	0.0233	0.0044
313.15	911	0.0314	0.0046
313.15	1084	0.0377	0.0058
313.15	1166.8	0.0405	0.008
323.15	224	0.0074	0.0026
323.15	472.8	0.0154	0.003
323.15	698	0.0223	0.0044
323.15	949	0.0302	0.0048
323.15	1130	0.0362	0.0062
333.15	232.5	0.0071	0.0024
333.15	491	0.0149	0.0028
333.15	725	0.0215	0.005
333.15	985.6	0.0294	0.0056
333.15	1174	0.0353	0.0066
343.15	240.5	0.007	0.0022
343.15	508.5	0.0145	0.003
343.15	750.3	0.0212	0.0044
343.15	1020	0.0291	0.0052
343.15	1216.3	0.0348	0.0066
353.15	248	0.007	0.0024
353.15	525	0.0144	0.003
353.15	775	0.0211	0.004
353.15	1084	0.0289	0.0056
353.15	1296.7	0.0348	0.007

System: hydrogen sulfide + .beta.,.beta.'-dihydroxydiethyl sulfide; phases: Liquid, Gas
Property: Mole fraction of hydrogen sulfide (Liquid); method: Phase equilibration
Temperature, K	Pressure, kPa	Mole fraction of hydrogen sulfide	uncertainty
303.15	90	0.027	0.0076
303.15	221	0.0622	0.0119
303.15	370	0.1007	0.0155
303.15	525	0.1385	0.0189
303.15	655	0.1698	0.0219
303.15	833	0.2097	0.0229
313.15	101	0.0254	0.0077
313.15	249	0.0581	0.0119
313.15	417	0.0944	0.0159
313.15	591	0.1302	0.0193
313.15	738	0.1599	0.0225
313.15	936	0.1984	0.0237
323.15	112	0.0239	0.0077
323.15	275	0.0548	0.0121
323.15	461	0.089	0.016
323.15	653	0.1231	0.0196
323.15	816	0.1514	0.0228
323.15	1040	0.1876	0.0242
333.15	122	0.0226	0.0077
333.15	298	0.052	0.012
333.15	501	0.0844	0.0162
333.15	711	0.1169	0.02
333.15	890	0.1439	0.0232
333.15	1138	0.1782	0.025
343.15	132	0.0213	0.0077
343.15	324	0.0491	0.0122
343.15	545	0.0796	0.0164
343.15	773	0.1105	0.0202
343.15	968	0.1362	0.0238
343.15	1250	0.167	0.0258
353.15	144	0.0203	0.0076
353.15	343	0.0474	0.0122
353.15	585	0.0756	0.0166
353.15	829	0.1053	0.0206
353.15	1040	0.1298	0.0242
353.15	1364	0.1559	0.0266
