Measured thermophysical data. Densities and volumetric properties of binary mixtures of the ionic liquid 1-butyl-3-methylimidazolium tetrafluoroborate with benzaldehyde at T = (298.15 to 313.15) K
Source: J. Chem. Thermodyn., 2009, 10.1016/j.jct.2009.02.007
Compound 1: 1-butyl-3-methylimidazolium tetrafluoroborate, C8H15BF4N2, InChI=1S/C8H15N2.BF4/c1-3-4-5-10-7-6-9(2)8-10;2-1(3,4)5/h6-8H,3-5H2,1-2H3;/q+1;-1
Compound 2: benzaldehyde, C7H6O, InChI=1S/C7H6O/c8-6-7-4-2-1-3-5-7/h1-6H, purity 99%

System: 1-butyl-3-methylimidazolium tetrafluoroborate; phases: Liquid
Fixed: Pressure, kPa = 101.325
Property: Mass density, kg/m3 (Liquid); method: Vibrating tube method
Temperature, K	Mass density, kg/m3	uncertainty
298.15	1211.03	1.3
303.15	1197.45	1.27
308.15	1194.6	1.26
313.15	1190.44	1.25

System: benzaldehyde; phases: Liquid
Fixed: Pressure, kPa = 101.325
Property: Mass density, kg/m3 (Liquid); method: Vibrating tube method
Temperature, K	Mass density, kg/m3	uncertainty
298.15	1044.2	0.26
303.15	1040.21	0.26
308.15	1036.15	0.26
313.15	1032.15	0.25

System: benzaldehyde + 1-butyl-3-methylimidazolium tetrafluoroborate; phases: Liquid
Fixed: Pressure, kPa = 101
Property: Mass density, kg/m3 (Liquid); method: Vibrating tube method
Temperature, K	Mole fraction of 1-butyl-3-methylimidazolium tetrafluoroborate	Mass density, kg/m3	uncertainty
298.15	0.10009	1078.64	0.34
298.15	0.19983	1105.45	0.42
298.15	0.29972	1127.3	0.51
298.15	0.40003	1145.56	0.6
298.15	0.49993	1160.76	0.7
298.15	0.59982	1173.77	0.81
298.15	0.69989	1184.7	0.92
298.15	0.79711	1193.8	1.03
298.15	0.89906	1202.44	1.16
303.15	0.10009	1072.78	0.34
303.15	0.19983	1098.6	0.42
303.15	0.29972	1119.46	0.5
303.15	0.40003	1136.76	0.59
303.15	0.49993	1151.14	0.69
303.15	0.59982	1163.4	0.79
303.15	0.69989	1173.86	0.9
303.15	0.79711	1182.59	1.01
303.15	0.89906	1190.51	1.13
308.15	0.10009	1068.6	0.33
308.15	0.19983	1094.81	0.41
308.15	0.29972	1116.11	0.5
308.15	0.40003	1133.67	0.59
308.15	0.49993	1148.32	0.68
308.15	0.59982	1160.74	0.78
308.15	0.69989	1171.52	0.89
308.15	0.79711	1180.59	1.01
308.15	0.89906	1188.53	1.13
313.15	0.10009	1064.7	0.33
313.15	0.19983	1090.93	0.41
313.15	0.29972	1112.3	0.49
313.15	0.40003	1129.92	0.58
313.15	0.49993	1144.5	0.68
313.15	0.59982	1156.92	0.78
313.15	0.69989	1167.64	0.89
313.15	0.79711	1176.6	1
313.15	0.89906	1184.48	1.12

System: benzaldehyde + 1-butyl-3-methylimidazolium tetrafluoroborate; phases: Liquid
Fixed: Pressure, kPa = 101
Property: Excess molar volume, m3/mol (Liquid); method: Calculated with densities of this investigation
Temperature, K	Mole fraction of 1-butyl-3-methylimidazolium tetrafluoroborate	Excess molar volume, m3/mol	uncertainty
298.15	0.10009	-6.272e-07	9.2e-09
298.15	0.19983	-9.44e-07	9.9e-09
298.15	0.29972	-1.0913e-06	1.03e-08
298.15	0.40003	-1.1278e-06	1.04e-08
298.15	0.49993	-1.0626e-06	1.02e-08
298.15	0.59982	-9.361e-07	9.9e-09
298.15	0.69989	-7.136e-07	9.4e-09
298.15	0.79711	-4.362e-07	8.8e-09
298.15	0.89906	-1.52e-07	8.1e-09
303.15	0.10009	-5.919e-07	9.1e-09
303.15	0.19983	-9.453e-07	9.9e-09
303.15	0.29972	-1.1164e-06	1.03e-08
303.15	0.40003	-1.1678e-06	1.05e-08
303.15	0.49993	-1.1205e-06	1.04e-08
303.15	0.59982	-1.0095e-06	1.01e-08
303.15	0.69989	-8.307e-07	9.7e-09
303.15	0.79711	-6.023e-07	9.2e-09
303.15	0.89906	-3.107e-07	8.5e-09
308.15	0.10009	-5.656e-07	9.1e-09
308.15	0.19983	-9.452e-07	9.9e-09
308.15	0.29972	-1.1499e-06	1.04e-08
308.15	0.40003	-1.2176e-06	1.06e-08
308.15	0.49993	-1.1901e-06	1.05e-08
308.15	0.59982	-1.0888e-06	1.03e-08
308.15	0.69989	-9.433e-07	9.9e-09
308.15	0.79711	-7.525e-07	9.5e-09
308.15	0.89906	-4.565e-07	8.8e-09
313.15	0.10009	-5.84e-07	9.1e-09
313.15	0.19983	-9.715e-07	1e-08
313.15	0.29972	-1.1905e-06	1.05e-08
313.15	0.40003	-1.2693e-06	1.07e-08
313.15	0.49993	-1.2364e-06	1.06e-08
313.15	0.59982	-1.1369e-06	1.04e-08
313.15	0.69989	-9.855e-07	1e-08
313.15	0.79711	-7.807e-07	9.6e-09
313.15	0.89906	-4.746e-07	8.9e-09
