Measured thermophysical data. (Liquid + liquid) equilibrium of aqueous biphasic systems composed of 1-benzyl or 1-hexyl-3-methylimidazolium chloride ionic liquids and inorganic salts
Source: J. Chem. Thermodyn., 2012, 10.1016/j.jct.2012.05.004
Compound 1: 1-benzyl-3-methyl-1H-imidazolium chloride, C11H13ClN2, InChI=1S/C11H13N2.ClH/c1-12-7-8-13(10-12)9-11-5-3-2-4-6-11;/h2-8,10H,9H2,1H3;1H/q+1;/p-1
Compound 2: 1-hexyl-3-methylimidazolium chloride, C10H19ClN2, InChI=1S/C10H19N2.ClH/c1-3-4-5-6-7-12-9-8-11(2)10-12;/h8-10H,3-7H2,1-2H3;1H/q+1;/p-1
Compound 3: tripotassium phosphate, K3O4P, InChI=1S/3K.H3O4P/c;;;1-5(2,3)4/h;;;(H3,1,2,3,4)/q3*+1;/p-3, purity 98%
Compound 4: dipotassium hydrogen phosphate, HK2O4P, InChI=1S/2K.H3O4P/c;;1-5(2,3)4/h;;(H3,1,2,3,4)/q2*+1;/p-2, purity 98%
Compound 5: potassium carbonate, CK2O3, InChI=1S/CH2O3.2K/c2-1(3)4;;/h(H2,2,3,4);;/q;2*+1/p-2, purity 99%
Compound 6: water, H2O, InChI=1S/H2O/h1H2, purity 99.9%

System: water + tripotassium phosphate + 1-benzyl-3-methyl-1H-imidazolium chloride; phases: Liquid, Crystal
Fixed: Pressure, kPa = 101
Fixed: Temperature, K = 298.15
Property: Mass fraction of 1-benzyl-3-methyl-1H-imidazolium chloride (Liquid); method: Titration method
Mass fraction of tripotassium phosphate	Mass fraction of 1-benzyl-3-methyl-1H-imidazolium chloride	uncertainty
0.0051	0.6493	0.0058
0.0143	0.5587	0.0044
0.023	0.5012	0.003
0.0389	0.4379	0.0022
0.0612	0.3766	0.0017
0.0952	0.3029	0.0013
0.1245	0.2446	0.0011
0.1506	0.1959	0.0025
0.1544	0.1731	0.0011
0.1654	0.1596	0.0008
0.1842	0.1312	0.0008
0.1959	0.1163	0.0006
0.2154	0.0983	0.0006
0.2277	0.0862	0.0006
0.2405	0.0728	0.0006
0.2514	0.0652	0.0005
0.2548	0.0613	0.001
0.2605	0.0453	0.0053
0.2613	0.0558	0.0053
0.2707	0.0388	0.0006
0.2803	0.0335	0.0005
0.2891	0.0287	0.0005
0.2949	0.026	0.0004
0.3036	0.0244	0.0004
0.3245	0.0133	0.0004
0.345	0.0079	0.0004

System: water + tripotassium phosphate + 1-benzyl-3-methyl-1H-imidazolium chloride; phases: Liquid mixture 1, Liquid mixture 2
Fixed: Temperature, K = 298.15
Fixed: Pressure, kPa = 101.3
Property: Mass fraction of tripotassium phosphate (Liquid mixture 1); method: Titration method
Property: Mass fraction of 1-benzyl-3-methyl-1H-imidazolium chloride (Liquid mixture 2); method: Titration method
Property: Mass fraction of tripotassium phosphate (Liquid mixture 2); method: Titration method
Mass fraction of 1-benzyl-3-methyl-1H-imidazolium chloride	Mass fraction of tripotassium phosphate	uncertainty	Mass fraction of 1-benzyl-3-methyl-1H-imidazolium chloride	uncertainty	Mass fraction of tripotassium phosphate	uncertainty
0.4379	0.0389	0.0012	0.026	0.0008	0.2949	
0.5587	0.0143	0.0006	0.0133	0.0006	0.3245	
0.6493	0.0051	0.0004	0.0079	0.0005	0.345	

System: water + dipotassium hydrogen phosphate + 1-benzyl-3-methyl-1H-imidazolium chloride; phases: Liquid, Crystal
Fixed: Pressure, kPa = 101
Fixed: Temperature, K = 298.15
Property: Mass fraction of 1-benzyl-3-methyl-1H-imidazolium chloride (Liquid); method: Titration method
Mass fraction of dipotassium hydrogen phosphate	Mass fraction of 1-benzyl-3-methyl-1H-imidazolium chloride	uncertainty
0.0151	0.5579	0.0038
0.0187	0.536	0.003
0.0191	0.5347	0.003
0.0404	0.4474	0.0028
0.0433	0.4327	0.0027
0.0637	0.3852	0.0017
0.084	0.3509	0.0015
0.0975	0.3211	0.0013
0.1262	0.2687	0.0011
0.1661	0.2083	0.0009
0.1774	0.192	0.0008
0.19	0.1804	0.0008
0.1974	0.165	0.0009
0.2074	0.1504	0.0007
0.2169	0.1434	0.0007
0.2245	0.1323	0.0008
0.2377	0.1145	0.0007
0.2532	0.1004	0.0005
0.2811	0.086	0.0005
0.2902	0.0727	0.0008
0.2956	0.063	0.0005
0.3035	0.0612	0.0005
0.3109	0.0516	0.0007
0.3192	0.0414	0.0005
0.336	0.0356	0.0004
0.3568	0.0253	0.0005

System: water + dipotassium hydrogen phosphate + 1-benzyl-3-methyl-1H-imidazolium chloride; phases: Liquid mixture 1, Liquid mixture 2
Fixed: Temperature, K = 298.15
Fixed: Pressure, kPa = 101.3
Property: Mass fraction of dipotassium hydrogen phosphate (Liquid mixture 1); method: Titration method
Property: Mass fraction of 1-benzyl-3-methyl-1H-imidazolium chloride (Liquid mixture 2); method: Titration method
Property: Mass fraction of dipotassium hydrogen phosphate (Liquid mixture 2); method: Titration method
Mass fraction of 1-benzyl-3-methyl-1H-imidazolium chloride	Mass fraction of dipotassium hydrogen phosphate	uncertainty	Mass fraction of 1-benzyl-3-methyl-1H-imidazolium chloride	uncertainty	Mass fraction of dipotassium hydrogen phosphate	uncertainty
0.4479	0.0497	0.002	0.0501	0.002	0.2833	
0.585	0.0203	0.0008	0.0227	0.0009	0.3283	
0.6083	0.0171	0.0007	0.0098	0.0004	0.3669	

System: potassium carbonate + water + 1-benzyl-3-methyl-1H-imidazolium chloride; phases: Liquid, Crystal
Fixed: Pressure, kPa = 101
Fixed: Temperature, K = 298.15
Property: Mass fraction of 1-benzyl-3-methyl-1H-imidazolium chloride (Liquid); method: Titration method
Mass fraction of potassium carbonate	Mass fraction of 1-benzyl-3-methyl-1H-imidazolium chloride	uncertainty
0.0171	0.6083	0.0047
0.0203	0.585	0.0042
0.0224	0.5836	0.0042
0.038	0.4788	0.0028
0.0497	0.4479	0.0024
0.07	0.3799	0.0018
0.1046	0.3061	0.0013
0.1205	0.28	0.0012
0.1383	0.2398	0.0009
0.1554	0.2129	0.0008
0.1728	0.1902	0.0007
0.1846	0.1674	0.0006
0.197	0.153	0.0005
0.2032	0.1406	0.0005
0.2155	0.1227	0.0004
0.2336	0.1026	0.0003
0.2434	0.0926	0.0003
0.2546	0.0798	0.0003
0.2549	0.0642	0.0002
0.2674	0.054	0.0002
0.2833	0.0501	0.0002
0.2844	0.0434	0.0001
0.3003	0.038	0.0001
0.3283	0.0227	0.0001
0.3669	0.0098	0.0001

System: potassium carbonate + water + 1-benzyl-3-methyl-1H-imidazolium chloride; phases: Liquid mixture 1, Liquid mixture 2
Fixed: Temperature, K = 298.15
Fixed: Pressure, kPa = 101.3
Property: Mass fraction of potassium carbonate (Liquid mixture 1); method: Titration method
Property: Mass fraction of 1-benzyl-3-methyl-1H-imidazolium chloride (Liquid mixture 2); method: Titration method
Property: Mass fraction of potassium carbonate (Liquid mixture 2); method: Titration method
Mass fraction of 1-benzyl-3-methyl-1H-imidazolium chloride	Mass fraction of potassium carbonate	uncertainty	Mass fraction of 1-benzyl-3-methyl-1H-imidazolium chloride	uncertainty	Mass fraction of potassium carbonate	uncertainty
0.4474	0.0404	0.0016	0.063	0.0025	0.2956	
0.5347	0.0191	0.0008	0.0356	0.0014	0.336	
0.5579	0.0151	0.0006	0.0253	0.001	0.3568	

System: water + tripotassium phosphate + 1-hexyl-3-methylimidazolium chloride; phases: Liquid, Crystal
Fixed: Pressure, kPa = 101
Fixed: Temperature, K = 298.15
Property: Mass fraction of 1-hexyl-3-methylimidazolium chloride (Liquid); method: Titration method
Mass fraction of tripotassium phosphate	Mass fraction of 1-hexyl-3-methylimidazolium chloride	uncertainty
0.0485	0.5091	0.0031
0.0725	0.4237	0.0022
0.0889	0.3771	0.0018
0.1296	0.2773	0.0012
0.1527	0.2364	0.0009
0.1677	0.203	0.0008
0.1918	0.166	0.0006
0.2032	0.1492	0.0005
0.217	0.129	0.0004
0.2279	0.1162	0.0004
0.2412	0.097	0.0003
0.2446	0.0856	0.0003
0.2525	0.0777	0.0003
0.2592	0.0714	0.0002
0.2632	0.0675	0.0002
0.2726	0.06	0.0002
0.2745	0.0588	0.0002
0.2788	0.053	0.0002
0.2872	0.047	0.0002
0.2883	0.0466	0.0002
0.2988	0.04	0.0001
0.3081	0.0318	0.0001
0.3212	0.0255	0.0001

System: water + tripotassium phosphate + 1-hexyl-3-methylimidazolium chloride; phases: Liquid mixture 2, Liquid mixture 1
Fixed: Temperature, K = 298.15
Fixed: Pressure, kPa = 101.3
Property: Mass fraction of tripotassium phosphate (Liquid mixture 2); method: Titration method
Property: Mass fraction of tripotassium phosphate (Liquid mixture 1); method: Titration method
Property: Mass fraction of 1-hexyl-3-methylimidazolium chloride (Liquid mixture 1); method: Titration method
Mass fraction of 1-hexyl-3-methylimidazolium chloride	Mass fraction of tripotassium phosphate	uncertainty	Mass fraction of tripotassium phosphate	uncertainty	Mass fraction of 1-hexyl-3-methylimidazolium chloride	uncertainty
0.06	0.2726	0.0109	0.0889	0.0036	0.3771	
0.0466	0.2883	0.0115	0.0725	0.0029	0.4237	
0.0255	0.3212	0.0128	0.0485	0.0019	0.5091	

System: water + dipotassium hydrogen phosphate + 1-hexyl-3-methylimidazolium chloride; phases: Liquid, Crystal
Fixed: Pressure, kPa = 101
Fixed: Temperature, K = 298.15
Property: Mass fraction of 1-hexyl-3-methylimidazolium chloride (Liquid); method: Titration method
Mass fraction of dipotassium hydrogen phosphate	Mass fraction of 1-hexyl-3-methylimidazolium chloride	uncertainty
0.0308	0.56	0.0038
0.0499	0.4768	0.0027
0.0548	0.462	0.0026
0.0834	0.3742	0.0018
0.0935	0.3566	0.0017
0.1029	0.3385	0.0015
0.1216	0.3025	0.0013
0.1349	0.2792	0.0012
0.1481	0.2598	0.0011
0.162	0.2428	0.001
0.1754	0.2164	0.0008
0.1823	0.2016	0.0008
0.2092	0.1832	0.0007
0.2212	0.1655	0.0006
0.2319	0.1577	0.0006
0.2425	0.1425	0.0005
0.2483	0.1341	0.0005
0.2744	0.1085	0.0004
0.2783	0.1027	0.0003
0.2865	0.0913	0.0003
0.297	0.0799	0.0003
0.3062	0.0715	0.0002
0.3126	0.0668	0.0002
0.3283	0.0635	0.0002
0.3402	0.0563	0.0002
0.3591	0.0452	0.0002
0.3967	0.0277	0.0001

System: water + dipotassium hydrogen phosphate + 1-hexyl-3-methylimidazolium chloride; phases: Liquid mixture 1, Liquid mixture 2
Fixed: Temperature, K = 298.15
Fixed: Pressure, kPa = 101.3
Property: Mass fraction of dipotassium hydrogen phosphate (Liquid mixture 1); method: Titration method
Property: Mass fraction of 1-hexyl-3-methylimidazolium chloride (Liquid mixture 2); method: Titration method
Property: Mass fraction of dipotassium hydrogen phosphate (Liquid mixture 2); method: Titration method
Mass fraction of 1-hexyl-3-methylimidazolium chloride	Mass fraction of dipotassium hydrogen phosphate	uncertainty	Mass fraction of 1-hexyl-3-methylimidazolium chloride	uncertainty	Mass fraction of dipotassium hydrogen phosphate	uncertainty
0.4901	0.0659	0.0026	0.0533	0.0021	0.3025	
0.5612	0.0479	0.0019	0.039	0.0016	0.3219	
0.6129	0.0374	0.0015	0.027	0.0011	0.3424	

System: potassium carbonate + water + 1-hexyl-3-methylimidazolium chloride; phases: Liquid, Crystal
Fixed: Pressure, kPa = 101
Fixed: Temperature, K = 298.15
Property: Mass fraction of 1-hexyl-3-methylimidazolium chloride (Liquid); method: Titration method
Mass fraction of potassium carbonate	Mass fraction of 1-hexyl-3-methylimidazolium chloride	uncertainty
0.0351	0.6267	0.0046
0.0374	0.6129	0.0044
0.0479	0.5612	0.0034
0.0659	0.4901	0.0025
0.1328	0.3018	0.0014
0.165	0.2541	0.0011
0.1785	0.224	0.0011
0.2	0.1839	0.0009
0.2143	0.164	0.0009
0.2196	0.1476	0.0009
0.2301	0.1354	0.0008
0.2369	0.1232	0.0008
0.2426	0.1179	0.0007
0.2517	0.1048	0.0007
0.2593	0.0961	0.0006
0.2758	0.0783	0.0006
0.2912	0.0632	0.0006
0.3025	0.0533	0.0004
0.3036	0.053	0.0004
0.3162	0.0426	0.0005
0.3219	0.039	0.0005
0.3249	0.0366	0.0005
0.3319	0.0317	0.0005
0.3424	0.027	0.0004
0.3427	0.0268	0.0004

System: potassium carbonate + water + 1-hexyl-3-methylimidazolium chloride; phases: Liquid mixture 1, Liquid mixture 2
Fixed: Temperature, K = 298.15
Fixed: Pressure, kPa = 101.3
Property: Mass fraction of potassium carbonate (Liquid mixture 1); method: Titration method
Property: Mass fraction of 1-hexyl-3-methylimidazolium chloride (Liquid mixture 2); method: Titration method
Property: Mass fraction of potassium carbonate (Liquid mixture 2); method: Titration method
Mass fraction of 1-hexyl-3-methylimidazolium chloride	Mass fraction of potassium carbonate	uncertainty	Mass fraction of 1-hexyl-3-methylimidazolium chloride	uncertainty	Mass fraction of potassium carbonate	uncertainty
0.3566	0.0935	0.0037	0.0563	0.0023	0.3402	
0.4768	0.0499	0.002	0.0452	0.0018	0.3591	
0.56	0.0308	0.0012	0.0277	0.0011	0.3967	
