Measured thermophysical data. Thermodynamic properties of CO2 absorption in hydroxyl ammonium ionic liquids  at pressures of (100 1600) kPa
Source: J. Chem. Thermodyn., 2009, 10.1016/j.jct.2009.04.003
Compound 1: carbon dioxide, CO2, InChI=1S/CO2/c2-1-3
Compound 2: 2-hydroxyethylammonium acetate, C4H11NO3, InChI=1S/C2H7NO.C2H4O2/c3-1-2-4;1-2(3)4/h4H,1-3H2;1H3,(H,3,4)
Compound 3: 2,2'-azanediylbis(ethanol) acetate, C6H15NO4, InChI=1S/C4H11NO2.C2H4O2/c6-3-1-5-2-4-7;1-2(3)4/h5-7H,1-4H2;1H3,(H,3,4)
Compound 4: N-methyldiethanolammonium acetate, C7H17NO4, InChI=1S/C5H13NO2.C2H4O2/c1-6(2-4-7)3-5-8;1-2(3)4/h7-8H,2-5H2,1H3;1H3,(H,3,4)
Compound 5: 2-hydroxyethylammonium lactate, C5H13NO4, InChI=1S/C3H6O3.C2H7NO/c1-2(4)3(5)6;3-1-2-4/h2,4H,1H3,(H,5,6);4H,1-3H2
Compound 6: diethanolamine lactate, C7H17NO5, InChI=1S/C4H11NO2.C3H6O3/c6-3-1-5-2-4-7;1-2(4)3(5)6/h5-7H,1-4H2;2,4H,1H3,(H,5,6)
Compound 7: N-methyldiethanolammonium lactate, C8H19NO5, InChI=1S/C5H13NO2.C3H6O3/c1-6(2-4-7)3-5-8;1-2(4)3(5)6/h7-8H,2-5H2,1H3;2,4H,1H3,(H,5,6)

System: carbon dioxide + 2-hydroxyethylammonium acetate; phases: Liquid, Gas
Property: Mole fraction of carbon dioxide (Liquid); method: Phase equilibration
Temperature, K	Pressure, kPa	Mole fraction of carbon dioxide	uncertainty
298.15	116	0.012	0.001
298.15	352	0.0359	0.001
298.15	546	0.0556	0.001
298.15	894	0.0912	0.001
298.15	1189	0.1202	0.0011
298.15	1456	0.1442	0.0011
313.15	145	0.0135	0.001
313.15	348	0.0316	0.001
313.15	679	0.0616	0.001
313.15	1048	0.0957	0.0011
313.15	1378	0.1248	0.0011
313.15	1542	0.1386	0.0011
328.15	124	0.0081	0.001
328.15	448	0.0315	0.001
328.15	789	0.0558	0.001
328.15	1078	0.0761	0.0011
328.15	1354	0.0948	0.0011
328.15	1502	0.1061	0.0011

System: carbon dioxide + 2,2'-azanediylbis(ethanol) acetate; phases: Liquid, Gas
Property: Mole fraction of carbon dioxide (Liquid); method: Phase equilibration
Temperature, K	Pressure, kPa	Mole fraction of carbon dioxide	uncertainty
298.15	125	0.0089	0.001
298.15	357	0.0251	0.001
298.15	548	0.0391	0.001
298.15	849	0.06	0.001
298.15	1148	0.0822	0.001
298.15	1515	0.1076	0.0011
313.15	126	0.0074	0.001
313.15	378	0.0231	0.001
313.15	615	0.0371	0.001
313.15	945	0.0572	0.001
313.15	1261	0.0761	0.001
313.15	1494	0.0905	0.0011
328.15	178	0.0074	0.001
328.15	348	0.0146	0.001
328.15	548	0.0225	0.001
328.15	894	0.0371	0.001
328.15	1215	0.0502	0.0011
328.15	1505	0.0626	0.0011

System: carbon dioxide + N-methyldiethanolammonium acetate; phases: Liquid, Gas
Property: Mole fraction of carbon dioxide (Liquid); method: Phase equilibration
Temperature, K	Pressure, kPa	Mole fraction of carbon dioxide	uncertainty
298.15	124	0.0061	0.001
298.15	348	0.0172	0.001
298.15	615	0.03	0.001
298.15	1169	0.0575	0.001
298.15	1348	0.0654	0.001
298.15	1542	0.0761	0.001
313.15	134	0.0051	0.001
313.15	218	0.0085	0.001
313.15	589	0.0226	0.001
313.15	1061	0.0411	0.001
313.15	1287	0.0496	0.001
313.15	1410	0.0546	0.001
328.15	156	0.0024	0.001
328.15	298	0.0045	0.001
328.15	548	0.0092	0.001
328.15	948	0.016	0.001
328.15	1236	0.0206	0.0011
328.15	1516	0.0253	0.0011

System: carbon dioxide + 2-hydroxyethylammonium lactate; phases: Liquid, Gas
Property: Mole fraction of carbon dioxide (Liquid); method: Phase equilibration
Temperature, K	Pressure, kPa	Mole fraction of carbon dioxide	uncertainty
298.15	156	0.0112	0.001
298.15	358	0.0251	0.001
298.15	648	0.0456	0.001
298.15	1098	0.0775	0.001
298.15	1241	0.0876	0.001
298.15	1501	0.1056	0.0011
313.15	176	0.0106	0.001
313.15	392	0.0239	0.001
313.15	748	0.0445	0.001
313.15	1045	0.0621	0.0011
313.15	1248	0.0743	0.0011
313.15	1556	0.0921	0.0011
328.15	127	0.0034	0.001
328.15	368	0.0092	0.001
328.15	695	0.0181	0.0011
328.15	1012	0.0264	0.0011
328.15	1356	0.0352	0.0011
328.15	1545	0.0398	0.0012

System: carbon dioxide + diethanolamine lactate; phases: Liquid, Gas
Property: Mole fraction of carbon dioxide (Liquid); method: Phase equilibration
Temperature, K	Pressure, kPa	Mole fraction of carbon dioxide	uncertainty
298.15	124	0.0069	0.001
298.15	346	0.0192	0.001
298.15	648	0.0361	0.001
298.15	948	0.0529	0.001
298.15	1245	0.0691	0.001
298.15	1512	0.0835	0.001
313.15	121	0.0054	0.001
313.15	348	0.0158	0.001
313.15	748	0.0342	0.001
313.15	1059	0.0484	0.001
313.15	1315	0.0601	0.0011
313.15	1598	0.0738	0.0011
328.15	169	0.0035	0.001
328.15	348	0.0071	0.001
328.15	746	0.015	0.001
328.15	1056	0.0211	0.0011
328.15	1212	0.0238	0.0011
328.15	1506	0.0284	0.0012

System: carbon dioxide + N-methyldiethanolammonium lactate; phases: Liquid, Gas
Property: Mole fraction of carbon dioxide (Liquid); method: Phase equilibration
Temperature, K	Pressure, kPa	Mole fraction of carbon dioxide	uncertainty
298.15	154	0.0078	0.001
298.15	348	0.0179	0.001
298.15	765	0.0392	0.001
298.15	1059	0.0538	0.001
298.15	1348	0.0691	0.001
298.15	1523	0.0776	0.001
313.15	186	0.0074	0.001
313.15	421	0.0163	0.001
313.15	815	0.0317	0.001
313.15	1189	0.0464	0.0011
313.15	1348	0.0525	0.0011
313.15	1562	0.0607	0.0011
328.15	158	0.0027	0.001
328.15	359	0.0062	0.001
328.15	798	0.0142	0.001
328.15	1052	0.0182	0.0011
328.15	1314	0.023	0.0011
328.15	1535	0.0271	0.0011
