Measured thermophysical data. Liquid-liquid equilibrium of ternary systems comprising ethyl valerate(1), water(2), ethanol(3) and valeric acid(4)
Source: J. Chem. Thermodyn., 2017, 10.1016/j.jct.2017.03.030
Compound 1: ethanol, C2H6O, InChI=1S/C2H6O/c1-2-3/h3H,2H2,1H3, purity 99.8%
Compound 2: ethyl pentanoate, C7H14O2, InChI=1S/C7H14O2/c1-3-5-6-7(8)9-4-2/h3-6H2,1-2H3, purity 98%
Compound 3: pentanoic acid, C5H10O2, InChI=1S/C5H10O2/c1-2-3-4-5(6)7/h2-4H2,1H3,(H,6,7), purity 99%
Compound 4: water, H2O, InChI=1S/H2O/h1H2

System: ethanol + ethyl pentanoate + water; phases: Liquid
Fixed: Temperature, K = 293.2
Fixed: Pressure, kPa = 91.1
Property: Mass density, kg/m3 (Liquid); method: Vibrating tube method
Mass fraction of ethyl pentanoate	Mass fraction of water	Mass density, kg/m3	uncertainty
0.5475	0.1107	862.563	2.037
0.5861	0.1019	863.535	2.025
0.6256	0.0798	863.761	2.031
0.7829	0.0358	864.003	2.05
0.8613	0.0182	865.614	2.066
0.9446	0.0082	869.644	2.097
0.2664	0.3009	887.059	2.016
0.2428	0.3224	890.931	2.015
0.0272	0.6167	940.437	2.014
0.0068	0.7901	947.315	3.258
0.0038	0.9278	986.394	2.035

System: ethanol + ethyl pentanoate + water; phases: Liquid
Fixed: Temperature, K = 293.2
Fixed: Pressure, kPa = 91.1
Property: Refractive index (Na D-line) (Liquid); method: Standard Abbe refractometry
Mass fraction of ethyl pentanoate	Mass fraction of water	Refractive index (Na D-line)	uncertainty
0.5475	0.1107	1.3823	0.0016
0.5861	0.1019	1.3838	0.0016
0.6256	0.0798	1.3852	0.0016
0.7829	0.0358	1.3913	0.0016
0.8613	0.0182	1.3947	0.0016
0.9446	0.0082	1.3982	0.0016
0.2664	0.3009	1.3703	0.0016
0.2428	0.3224	1.3697	0.0016
0.0272	0.6167	1.3562	0.0016
0.0068	0.7901	1.3552	0.0021
0.0038	0.9278	1.3368	0.0016

System: ethanol + ethyl pentanoate + water; phases: Liquid mixture 1, Liquid mixture 2
Fixed: Pressure, kPa = 91.1
Property: Mole fraction of water (Liquid mixture 1); method: Titration method
Temperature, K	Mole fraction of ethyl pentanoate	Mole fraction of water	uncertainty
293.2	0.9681	0.0319	0.0319
293.2	0.8612	0.055	0.055
293.2	0.8137	0.0718	0.0718
293.2	0.7691	0.0859	0.0859
293.2	0.7262	0.0947	0.0947
293.2	0.6918	0.1045	0.1
293.2	0.6547	0.1127	0.1001
293.2	0.5761	0.1574	0.1001
293.2	0.5105	0.1987	0.1002
293.2	0.3476	0.296	0.1003
293.2	0.2483	0.3701	0.1005
293.2	0.1808	0.4429	0.1008
293.2	0.1466	0.4857	0.1009
293.2	0.1208	0.524	0.1009
293.2	0.0973	0.5637	0.1008
293.2	0.0837	0.5864	0.1007
293.2	0.0739	0.6036	0.1006
293.2	0.0609	0.6331	0.1005
293.2	0.0416	0.6734	0.1004
293.2	0.026	0.714	0.1003
293.2	0.0151	0.7527	0.1002
293.2	0.0101	0.7787	0.1002
293.2	0.0068	0.7986	0.1002
293.2	0.0019	0.8485	0.1001
293.2	0.001	0.9149	0.0851
293.2	0.0009	0.9527	0.0473
293.2	0.0007	0.9958	0.0008
293.2	0.0004	0.9996	0.0004
318.2	0.9227	0.0773	0.0773
318.2	0.7564	0.133	0.1001
318.2	0.6423	0.1725	0.1001
318.2	0.55	0.2136	0.1002
318.2	0.4855	0.2319	0.1002
318.2	0.4278	0.2599	0.1003
318.2	0.3817	0.2853	0.1003
318.2	0.3077	0.3357	0.1004
318.2	0.232	0.4004	0.1006
318.2	0.1892	0.445	0.1008
318.2	0.1513	0.4931	0.101
318.2	0.0731	0.6344	0.1005
318.2	0.0593	0.6609	0.1005
318.2	0.0429	0.6967	0.1004
318.2	0.0336	0.7163	0.1003
318.2	0.0215	0.7553	0.1002
318.2	0.012	0.7978	0.1002
318.2	0.0077	0.8282	0.1001
318.2	0.0044	0.8478	0.1001
318.2	0.0039	0.8719	0.1001
318.2	0.0029	0.9115	0.0885
318.2	0.0007	0.9993	0.0007

System: ethanol + ethyl pentanoate + water; phases: Liquid mixture 2, Liquid mixture 1
Fixed: Pressure, kPa = 91.1
Property: Mole fraction of ethyl pentanoate (Liquid mixture 2); method: Density calibration data
Property: Mole fraction of water (Liquid mixture 1); method: Density calibration data
Property: Mole fraction of ethyl pentanoate (Liquid mixture 1); method: Density calibration data
Temperature, K	Mole fraction of water	Mole fraction of ethyl pentanoate	uncertainty	Mole fraction of water	uncertainty	Mole fraction of ethyl pentanoate	uncertainty
293.2	0.9668	0.0001	0.0001	0.0515	0.0103	0.917	
293.2	0.9372	0.0001	0.0001	0.0688	0.0106	0.8262	
293.2	0.8576	0.0011	0.0011	0.1501	0.0115	0.5994	
293.2	0.7295	0.0337	0.0103	0.2986	0.013	0.3204	
318.2	0.9998	0.0001	0.0001	0.0801	0.0108	0.8885	
318.2	0.9528	0.0002	0.0002	0.1361	0.0111	0.7345	
318.2	0.7139	0.0359	0.0103	0.3199	0.0135	0.3275	
318.2	0.8352	0.0058	0.0058	0.2167	0.012	0.5011	

System: ethanol + pentanoic acid + water; phases: Liquid
Fixed: Temperature, K = 293.2
Fixed: Pressure, kPa = 91.1
Property: Mass density, kg/m3 (Liquid); method: Vibrating tube method
Mass fraction of pentanoic acid	Mass fraction of water	Mass density, kg/m3	uncertainty
0.4692	0.3076	937.063	2.027
0.6023	0.2254	938.337	2.03
0.3402	0.4172	941.061	2.009
0.3401	0.4204	941.387	2.009
0.5144	0.2946	941.796	2.035
0.7083	0.1793	943.763	2.013
0.2761	0.483	947.137	2.007
0.8333	0.1492	950.56	2.014
0.1323	0.6285	955.4	2.029
0.1333	0.6446	959.576	2.029
0.0578	0.7389	967.716	2.008
0.0586	0.7558	969.696	2.008
0.0364	0.8133	975.54	2.013
0.0395	0.8516	981.931	2.877

System: ethanol + pentanoic acid + water; phases: Liquid
Fixed: Temperature, K = 293.2
Fixed: Pressure, kPa = 91.1
Property: Refractive index (Na D-line) (Liquid); method: Standard Abbe refractometry
Mass fraction of pentanoic acid	Mass fraction of water	Refractive index (Na D-line)	uncertainty
0.4692	0.3076	1.3818	0.0016
0.6023	0.2254	1.3908	0.0016
0.3402	0.4172	1.3747	0.0016
0.3401	0.4204	1.3742	0.0016
0.5144	0.2946	1.385	0.0016
0.7083	0.1793	1.3957	0.0016
0.2761	0.483	1.3695	0.0016
0.8333	0.1492	1.3997	0.0016
0.1323	0.6285	1.3588	0.0016
0.1333	0.6446	1.3577	0.0016
0.0578	0.7389	1.3517	0.0016
0.0586	0.7558	1.3502	0.0016
0.0364	0.8133	1.3457	0.0016
0.0395	0.8516	1.3435	0.0017

System: ethanol + pentanoic acid + water; phases: Liquid mixture 1, Liquid mixture 2
Fixed: Pressure, kPa = 91.1
Property: Mole fraction of water (Liquid mixture 1); method: Titration method
Temperature, K	Mole fraction of pentanoic acid	Mole fraction of water	uncertainty
293.2	0.5176	0.4824	0.1009
293.2	0.4691	0.5077	0.101
293.2	0.4419	0.5211	0.1009
293.2	0.4091	0.5386	0.1008
293.2	0.3448	0.5641	0.1008
293.2	0.2839	0.5944	0.1007
293.2	0.2276	0.6293	0.1005
293.2	0.1818	0.6553	0.1005
293.2	0.1383	0.7052	0.1003
293.2	0.1059	0.7499	0.1002
293.2	0.081	0.7883	0.1002
293.2	0.0584	0.8277	0.1001
293.2	0.0324	0.8717	0.1001
293.2	0.0125	0.9151	0.0849
293.2	0.0079	0.9563	0.0437
293.2	0.0064	0.9863	0.0137
293.2	0.0059	0.9941	0.0059
318.2	0.4258	0.5742	0.1007
318.2	0.3556	0.6126	0.1006
318.2	0.3496	0.6187	0.1006
318.2	0.3052	0.6406	0.1005
318.2	0.2695	0.6582	0.1005
318.2	0.2362	0.6742	0.1004
318.2	0.142	0.7489	0.1003
318.2	0.1283	0.7633	0.1002
318.2	0.1005	0.7982	0.1002
318.2	0.0514	0.8703	0.1001
318.2	0.0403	0.8907	0.1
318.2	0.035	0.8941	0.1
318.2	0.0141	0.9406	0.0594
318.2	0.0124	0.9429	0.0571
318.2	0.0119	0.9434	0.0566
318.2	0.0087	0.9618	0.0382
318.2	0.0077	0.9773	0.0227
318.2	0.0069	0.9931	0.0069

System: ethanol + pentanoic acid + water; phases: Liquid mixture 2, Liquid mixture 1
Fixed: Pressure, kPa = 91.1
Property: Mole fraction of pentanoic acid (Liquid mixture 2); method: Density calibration data
Property: Mole fraction of pentanoic acid (Liquid mixture 1); method: Density calibration data
Property: Mole fraction of water (Liquid mixture 1); method: Density calibration data
Temperature, K	Mole fraction of water	Mole fraction of pentanoic acid	uncertainty	Mole fraction of pentanoic acid	uncertainty	Mole fraction of water	uncertainty
293.2	0.9482	0.0104	0.01	0.3167	0.0202	0.5743	
293.2	0.9371	0.0127	0.01	0.2474	0.0202	0.6169	
318.2	0.9459	0.0146	0.01	0.2408	0.0245	0.6673	
318.2	0.9668	0.0129	0.01	0.3181	0.0247	0.6308	

System: pentanoic acid + ethyl pentanoate + water; phases: Liquid
Fixed: Temperature, K = 293.2
Fixed: Pressure, kPa = 91.1
Property: Mass density, kg/m3 (Liquid); method: Vibrating tube method
Mass fraction of pentanoic acid	Mass fraction of water	Mass density, kg/m3	uncertainty
0.182	0.0231	891.16	2.071
0.3188	0.0243	900.482	2.054
0.3268	0.0255	901.069	2.053
0.4218	0.0354	908.749	2.046
0.4847	0.0361	914.138	2.045
0.5252	0.0451	918.348	2.041
0.6681	0.0687	932.619	2.031
0.808	0.1083	948.526	2.018
0.8293	0.1157	951.151	2.017
0.006	0.992	998.268	2.093

System: pentanoic acid + ethyl pentanoate + water; phases: Liquid
Fixed: Temperature, K = 293.2
Fixed: Pressure, kPa = 91.1
Property: Refractive index (Na D-line) (Liquid); method: Standard Abbe refractometry
Mass fraction of pentanoic acid	Mass fraction of water	Refractive index (Na D-line)	uncertainty
0.182	0.0231	1.4003	0.0016
0.3188	0.0243	1.4022	0.0016
0.3268	0.0255	1.4023	0.0016
0.4218	0.0354	1.4035	0.0016
0.4847	0.0361	1.4035	0.0016
0.5252	0.0451	1.404	0.0016
0.6681	0.0687	1.4042	0.0016
0.808	0.1083	1.404	0.0016
0.8293	0.1157	1.4037	0.0016
0.006	0.992	1.3332	0.0016

System: pentanoic acid + ethyl pentanoate + water; phases: Liquid mixture 1, Liquid mixture 2
Fixed: Pressure, kPa = 91.1
Property: Mole fraction of water (Liquid mixture 1); method: Titration method
Temperature, K	Mole fraction of pentanoic acid	Mole fraction of water	uncertainty
293.2	0.0784	0.1133	0.1001
293.2	0.0016	0.998	0.0008
293.2	0.1858	0.1523	0.1001
293.2	0.244	0.1597	0.1001
293.2	0.5395	0.3478	0.1005
293.2	0.2953	0.1644	0.1001
293.2	0.481	0.2748	0.1003
293.2	0.5271	0.4459	0.1008
293.2	0.5393	0.4155	0.1007
293.2	0.5391	0.3741	0.1006
293.2	0.5352	0.345	0.1005
293.2	0.5179	0.2967	0.1004
293.2	0.4603	0.2287	0.1002
293.2	0.4261	0.2007	0.1002
293.2	0.37	0.1893	0.1001
293.2	0.2982	0.1602	0.1001
293.2	0.1339	0.1374	0.1001
318.2	0.0041	0.9955	0.0008
318.2	0.0983	0.1241	0.1001
318.2	0.1963	0.1881	0.1001
318.2	0.262	0.2262	0.1002
318.2	0.3896	0.3036	0.1004
318.2	0.4292	0.3464	0.1005
318.2	0.4745	0.3768	0.1006
318.2	0.4702	0.4747	0.1009
318.2	0.4412	0.5341	0.1009
293.2	0	0.0319	0.0319
293.2	0	0.9996	0.0004
318.2	0	0.0773	0.0773
318.2	0	0.9993	0.0007
293.2	0.5176	0.4824	0.1009
293.2	0.0059	0.9941	0.0059
318.2	0.4258	0.5742	0.1007
318.2	0.0069	0.9931	0.0069

System: pentanoic acid + ethyl pentanoate + water; phases: Liquid mixture 2, Liquid mixture 1
Fixed: Pressure, kPa = 91.1
Property: Mole fraction of water (Liquid mixture 2); method: Density calibration data
Property: Mole fraction of water (Liquid mixture 1); method: Density calibration data
Property: Mole fraction of pentanoic acid (Liquid mixture 1); method: Density calibration data
Temperature, K	Mole fraction of pentanoic acid	Mole fraction of water	uncertainty	Mole fraction of water	uncertainty	Mole fraction of pentanoic acid	uncertainty
293.2	0.0001	0.9985	0.0015	0.1471	0.0109	0.1824	
293.2	0.0001	0.9983	0.0017	0.1955	0.0115	0.3386	
293.2	0.002	0.9979	0.0021	0.235	0.0137	0.4043	
293.2	0.0021	0.9978	0.0022	0.2914	0.0156	0.4619	
293.2	0.0024	0.9975	0.0025	0.3408	0.0158	0.5182	
318.2	0.0001	0.9983	0.0017	0.1571	0.0116	0.1724	
318.2	0.0024	0.9975	0.0025	0.2257	0.0126	0.3123	
318.2	0.0027	0.9972	0.0028	0.2795	0.0148	0.3884	
318.2	0.0028	0.9971	0.0029	0.3376	0.0196	0.4383	
318.2	0.0036	0.9963	0.0037	0.4172	0.0233	0.4808	

System: ethyl pentanoate + water; phases: Liquid mixture 1, Liquid mixture 2
Fixed: Pressure, kPa = 91.1
Property: Mole fraction of water (Liquid mixture 1); method: Titration method
Temperature, K	Mole fraction of water	uncertainty
293.2	0.0319	0.0319
293.2	0.9996	0.0004
318.2	0.0773	0.0773
318.2	0.9993	0.0007

System: pentanoic acid + water; phases: Liquid mixture 1, Liquid mixture 2
Fixed: Pressure, kPa = 91.1
Property: Mole fraction of water (Liquid mixture 1); method: Titration method
Temperature, K	Mole fraction of water	uncertainty
293.2	0.4824	0.1003
293.2	0.9941	0.0059
318.2	0.5742	0.1002
318.2	0.9931	0.0069
