Measured thermophysical data. Thermodynamic and acoustic properties of binary mixtures of ethers.  V. Diisopropyl ether or oxolane with 2- or 3-chloroanilines  at 303.15, 313.15 and 323.15 K
Source: Thermochim. Acta, 2011, 10.1016/j.tca.2011.07.005
Compound 1: diisopropyl ether, C6H14O, InChI=1S/C6H14O/c1-5(2)7-6(3)4/h5-6H,1-4H3, purity 99.5%
Compound 2: tetrahydrofuran, C4H8O, InChI=1S/C4H8O/c1-2-4-5-3-1/h1-4H2, purity 99.5%
Compound 3: 2-chlorobenzeneamine, C6H6ClN, InChI=1S/C6H6ClN/c7-5-3-1-2-4-6(5)8/h1-4H,8H2, purity 99.5%
Compound 4: 3-chlorobenzenamine, C6H6ClN, InChI=1S/C6H6ClN/c7-5-2-1-3-6(8)4-5/h1-4H,8H2, purity 99.5%

System: diisopropyl ether; phases: Liquid
Fixed: Pressure, kPa = 101
Property: Speed of sound, m/s (Liquid); method: Linear variable-path acoustic interferometer
Temperature, K	Speed of sound, m/s	uncertainty
303.15	976	2
313.15	932	2
323.15	889	2

System: diisopropyl ether; phases: Liquid
Fixed: Pressure, kPa = 101
Property: Mass density, kg/m3 (Liquid); method: Pycnometric method
Temperature, K	Mass density, kg/m3	uncertainty
303.15	712.9	0.3
313.15	702.9	0.3
323.15	691.9	0.3

System: tetrahydrofuran; phases: Liquid
Fixed: Pressure, kPa = 101
Property: Speed of sound, m/s (Liquid); method: Linear variable-path acoustic interferometer
Temperature, K	Speed of sound, m/s	uncertainty
303.15	1254	2
313.15	1207	2
323.15	1165	2

System: tetrahydrofuran; phases: Liquid
Fixed: Pressure, kPa = 101
Property: Mass density, kg/m3 (Liquid); method: Pycnometric method
Temperature, K	Mass density, kg/m3	uncertainty
303.15	876.9	0.3
313.15	865.7	0.3
323.15	854.8	0.3

System: 2-chlorobenzeneamine; phases: Liquid
Fixed: Pressure, kPa = 101
Property: Speed of sound, m/s (Liquid); method: Linear variable-path acoustic interferometer
Temperature, K	Speed of sound, m/s	uncertainty
303.15	1470	3
313.15	1438	3
323.15	1402	3

System: 2-chlorobenzeneamine; phases: Liquid
Fixed: Pressure, kPa = 101
Property: Mass density, kg/m3 (Liquid); method: Pycnometric method
Temperature, K	Mass density, kg/m3	uncertainty
303.15	1202.7	0.4
313.15	1193	0.4
323.15	1183.3	0.4

System: 3-chlorobenzenamine; phases: Liquid
Fixed: Pressure, kPa = 101
Property: Speed of sound, m/s (Liquid); method: Linear variable-path acoustic interferometer
Temperature, K	Speed of sound, m/s	uncertainty
303.15	1517	3
313.15	1484	3
313.15	1486	3
323.15	1452	3

System: 3-chlorobenzenamine; phases: Liquid
Fixed: Pressure, kPa = 101
Property: Mass density, kg/m3 (Liquid); method: Pycnometric method
Temperature, K	Mass density, kg/m3	uncertainty
303.15	1205.3	0.4
313.15	1196.1	0.4
313.15	1196	0.4
323.15	1186.6	0.4

System: diisopropyl ether + 3-chlorobenzenamine; phases: Liquid
Fixed: Pressure, kPa = 101
Property: Speed of sound, m/s (Liquid); method: Linear variable-path acoustic interferometer
Temperature, K	Mole fraction of diisopropyl ether	Speed of sound, m/s	uncertainty
303.15	0	1517	3
303.15	0.0619	1484	3
303.15	0.1302	1448	3
303.15	0.2031	1410	3
303.15	0.2827	1368	3
303.15	0.3716	1321	3
303.15	0.4676	1270	2
303.15	0.5803	1209	2
303.15	0.7235	1132	2
303.15	0.8428	1066	2
303.15	1	976	2
313.15	0	1484	3
313.15	0.0619	1451	3
313.15	0.1302	1414	3
313.15	0.2031	1374	3
313.15	0.2827	1331	3
313.15	0.3716	1283	2
313.15	0.4676	1230	2
313.15	0.5803	1168	2
313.15	0.7235	1089	2
313.15	0.8428	1023	2
313.15	1	932	2
323.15	0	1452	3
323.15	0.0619	1418	3
323.15	0.1302	1380	3
323.15	0.2031	1340	3
323.15	0.2827	1295	2
323.15	0.3716	1246	2
323.15	0.4676	1192	2
323.15	0.5803	1129	2
323.15	0.7235	1048	2
323.15	0.8428	981	2
323.15	1	889	2

System: diisopropyl ether + 3-chlorobenzenamine; phases: Liquid
Fixed: Pressure, kPa = 101
Property: Mass density, kg/m3 (Liquid); method: Pycnometric method
Temperature, K	Mole fraction of diisopropyl ether	Mass density, kg/m3	uncertainty
303.15	0	1205.3	0.4
303.15	0.0619	1171.2	0.4
303.15	0.1302	1134.1	0.4
303.15	0.2031	1095.7	0.4
303.15	0.2827	1055.1	0.4
303.15	0.3716	1011.3	0.4
303.15	0.4676	965	0.4
303.15	0.5803	911.2	0.4
303.15	0.7235	842.6	0.3
303.15	0.8428	785.4	0.3
303.15	1	712.9	0.3
313.15	0	1196.1	0.4
313.15	0.0619	1163.2	0.4
313.15	0.1302	1126.7	0.4
313.15	0.2031	1088.2	0.4
313.15	0.2827	1047.4	0.4
313.15	0.3716	1003.4	0.4
313.15	0.4676	957.2	0.4
313.15	0.5803	903.7	0.4
313.15	0.7235	835.3	0.3
313.15	0.8428	777.7	0.3
313.15	1	702.9	0.3
323.15	0	1186.6	0.4
323.15	0.0619	1154.7	0.4
323.15	0.1302	1118.2	0.4
323.15	0.2031	1079.3	0.4
323.15	0.2827	1038	0.4
323.15	0.3716	993.6	0.4
323.15	0.4676	947.6	0.4
323.15	0.5803	894.5	0.4
323.15	0.7235	826.7	0.4
323.15	0.8428	768.7	0.3
323.15	1	691.9	0.3

System: 2-chlorobenzeneamine + tetrahydrofuran; phases: Liquid
Fixed: Pressure, kPa = 101
Property: Speed of sound, m/s (Liquid); method: Linear variable-path acoustic interferometer
Temperature, K	Mole fraction of tetrahydrofuran	Speed of sound, m/s	uncertainty
303.15	0	1470	3
303.15	0.0695	1461	3
303.15	0.1543	1450	3
303.15	0.2423	1436	3
303.15	0.3275	1422	3
303.15	0.4213	1404	3
303.15	0.5259	1383	3
303.15	0.6325	1359	3
303.15	0.744	1331	3
303.15	0.8663	1296	2
303.15	1	1254	2
313.15	0	1438	3
313.15	0.0695	1427	3
313.15	0.1543	1415	3
313.15	0.2423	1401	3
313.15	0.3275	1386	3
313.15	0.4213	1367	3
313.15	0.5259	1344	3
313.15	0.6325	1319	2
313.15	0.744	1289	2
313.15	0.8663	1252	2
313.15	1	1207	2
323.15	0	1402	3
323.15	0.0695	1395	3
323.15	0.1543	1383	3
323.15	0.2423	1369	3
323.15	0.3275	1353	3
323.15	0.4213	1333	3
323.15	0.5259	1308	2
323.15	0.6325	1281	2
323.15	0.744	1250	2
323.15	0.8663	1212	2
323.15	1	1165	2

System: 2-chlorobenzeneamine + tetrahydrofuran; phases: Liquid
Fixed: Pressure, kPa = 101
Property: Mass density, kg/m3 (Liquid); method: Pycnometric method
Temperature, K	Mole fraction of tetrahydrofuran	Mass density, kg/m3	uncertainty
303.15	0	1202.7	0.4
303.15	0.0695	1187.6	0.4
303.15	0.1543	1167.6	0.4
303.15	0.2423	1146	0.4
303.15	0.3275	1124.2	0.4
303.15	0.4213	1098.7	0.4
303.15	0.5259	1067.6	0.4
303.15	0.6325	1032	0.4
303.15	0.744	990.1	0.4
303.15	0.8663	938.4	0.3
303.15	1	876.9	0.3
313.15	0	1193	0.4
313.15	0.0695	1177.4	0.4
313.15	0.1543	1157.7	0.4
313.15	0.2423	1136.3	0.4
313.15	0.3275	1114.5	0.4
313.15	0.4213	1088.7	0.4
313.15	0.5259	1057.4	0.4
313.15	0.6325	1021.8	0.4
313.15	0.744	980.1	0.4
313.15	0.8663	928.5	0.4
313.15	1	865.7	0.3
323.15	0	1183.3	0.4
323.15	0.0695	1167.9	0.4
323.15	0.1543	1148.6	0.4
323.15	0.2423	1127	0.4
323.15	0.3275	1105	0.4
323.15	0.4213	1079.1	0.4
323.15	0.5259	1047.5	0.4
323.15	0.6325	1012.2	0.4
323.15	0.744	971	0.4
323.15	0.8663	920	0.4
323.15	1	854.8	0.3

System: 3-chlorobenzenamine + tetrahydrofuran; phases: Liquid
Fixed: Pressure, kPa = 101
Property: Speed of sound, m/s (Liquid); method: Linear variable-path acoustic interferometer
Temperature, K	Mole fraction of tetrahydrofuran	Speed of sound, m/s	uncertainty
303.15	0	1517	3
303.15	0.0728	1500	3
303.15	0.1321	1487	3
303.15	0.2389	1465	3
303.15	0.3272	1446	3
303.15	0.4116	1427	3
303.15	0.5161	1403	3
303.15	0.6297	1373	3
303.15	0.7419	1341	3
303.15	0.8633	1302	2
303.15	1	1254	2
313.15	0	1486	3
313.15	0.0728	1468	3
313.15	0.1321	1455	3
313.15	0.2389	1432	3
313.15	0.3272	1412	3
313.15	0.4116	1392	3
313.15	0.5161	1366	3
313.15	0.6297	1336	3
313.15	0.7419	1302	2
313.15	0.8633	1260	2
313.15	1	1207	2
323.15	0	1452	3
323.15	0.0728	1436	3
323.15	0.1321	1424	3
323.15	0.2389	1400	3
323.15	0.3272	1380	3
323.15	0.4116	1360	3
323.15	0.5161	1333	3
323.15	0.6297	1301	2
323.15	0.7419	1266	2
323.15	0.8633	1222	2
323.15	1	1165	2

System: 3-chlorobenzenamine + tetrahydrofuran; phases: Liquid
Fixed: Pressure, kPa = 101
Property: Mass density, kg/m3 (Liquid); method: Pycnometric method
Temperature, K	Mole fraction of tetrahydrofuran	Mass density, kg/m3	uncertainty
303.15	0	1205.3	0.4
303.15	0.0728	1189.4	0.4
303.15	0.1321	1175.7	0.4
303.15	0.2389	1149.7	0.4
303.15	0.3272	1126.8	0.4
303.15	0.4116	1102.9	0.4
303.15	0.5161	1071.3	0.4
303.15	0.6297	1033.5	0.4
303.15	0.7419	992	0.4
303.15	0.8633	941.6	0.3
303.15	1	876.9	0.3
313.15	0	1196	0.4
313.15	0.0728	1180.6	0.4
313.15	0.1321	1167.1	0.4
313.15	0.2389	1140.6	0.4
313.15	0.3272	1117	0.4
313.15	0.4116	1093.2	0.4
313.15	0.5161	1061.4	0.4
313.15	0.6297	1023.9	0.4
313.15	0.7419	982.7	0.4
313.15	0.8633	932.3	0.4
313.15	1	865.7	0.3
323.15	0	1186.6	0.4
323.15	0.0728	1171.5	0.4
323.15	0.1321	1157.9	0.4
323.15	0.2389	1131.3	0.4
323.15	0.3272	1107.4	0.4
323.15	0.4116	1083.3	0.4
323.15	0.5161	1051.5	0.4
323.15	0.6297	1014.3	0.4
323.15	0.7419	973.7	0.4
323.15	0.8633	923.4	0.4
323.15	1	854.8	0.3
