Measured thermophysical data. Thermodynamic properties of binary mixtures of 2.2.2-Trifluoroethanol with Water or Alkanols at T=298.15 K
Source: Thermochim. Acta, 2007, 10.1016/j.tca.2007.04.012
Compound 1: 2,2,2-trifluoroethanol, C2H3F3O, InChI=1S/C2H3F3O/c3-2(4,5)1-6/h6H,1H2
Compound 2: water, H2O, InChI=1S/H2O/h1H2, purity 99.99%
Compound 3: methanol, CH4O, InChI=1S/CH4O/c1-2/h2H,1H3
Compound 4: ethanol, C2H6O, InChI=1S/C2H6O/c1-2-3/h3H,2H2,1H3
Compound 5: propan-1-ol, C3H8O, InChI=1S/C3H8O/c1-2-3-4/h4H,2-3H2,1H3

System: 2,2,2-trifluoroethanol; phases: Liquid
Property: Mass density, kg/m3 (Liquid); method: Vibrating tube method
Temperature, K	Pressure, kPa	Mass density, kg/m3	uncertainty
298.15	101.325	1383.41	0.24

System: water; phases: Liquid
Property: Mass density, kg/m3 (Liquid); method: Vibrating tube method
Temperature, K	Pressure, kPa	Mass density, kg/m3	uncertainty
298.15	101.325	997.05	0.04

System: methanol; phases: Liquid
Property: Mass density, kg/m3 (Liquid); method: Vibrating tube method
Temperature, K	Pressure, kPa	Mass density, kg/m3	uncertainty
298.15	101.325	786.3	0.15

System: ethanol; phases: Liquid
Property: Mass density, kg/m3 (Liquid); method: Vibrating tube method
Temperature, K	Pressure, kPa	Mass density, kg/m3	uncertainty
298.15	101.325	784.83	0.15

System: propan-1-ol; phases: Liquid
Property: Mass density, kg/m3 (Liquid); method: Vibrating tube method
Temperature, K	Pressure, kPa	Mass density, kg/m3	uncertainty
298.15	101.325	799.3	0.14

System: 2,2,2-trifluoroethanol + water; phases: Liquid
Fixed: Temperature, K = 298.15
Fixed: Pressure, kPa = 101
Property: Excess molar enthalpy (molar enthalpy of mixing), kJ/mol (Liquid); method: Flow calorimetry
Mole fraction of 2,2,2-trifluoroethanol	Excess molar enthalpy (molar enthalpy of mixing), kJ/mol	uncertainty
0.00546	-0.0288	0.001
0.01088	-0.0543	0.0012
0.02028	-0.0915	0.0015
0.0306	-0.1055	0.0016
0.04018	-0.103	0.0016
0.04984	-0.094	0.0015
0.05985	-0.0818	0.0014
0.07002	-0.0666	0.0013
0.07952	-0.051	0.0012
0.08986	-0.0331	0.001
0.09937	-0.014	0.0009
0.10998	0.0033	0.0008
0.11926	0.0221	0.0009
0.12987	0.0406	0.0011
0.13852	0.0599	0.0012
0.14862	0.0802	0.0014
0.19832	0.1774	0.0021
0.29878	0.362	0.0036
0.39883	0.5145	0.0048
0.49554	0.6264	0.0057
0.59888	0.695	0.0063
0.70779	0.69	0.0062
0.80788	0.5423	0.005
0.898	0.3053	0.0031
0.90543	0.2842	0.003
0.9202	0.2398	0.0026
0.93005	0.2089	0.0024
0.9387	0.1871	0.0022
0.95285	0.1441	0.0019
0.96457	0.1042	0.0016
0.97321	0.0792	0.0014
0.98797	0.0403	0.0011
0.99521	0.014	0.0009

System: 2,2,2-trifluoroethanol + water; phases: Liquid
Fixed: Temperature, K = 298.15
Fixed: Pressure, kPa = 101
Property: Mass density, kg/m3 (Liquid); method: Vibrating tube method
Mole fraction of 2,2,2-trifluoroethanol	Mass density, kg/m3	uncertainty
0	997.05	0.04
0.00478	1005.99	0.04
0.01029	1016.28	0.05
0.01855	1031.19	0.07
0.02226	1037.71	0.07
0.10017	1139.98	0.15
0.19849	1215.51	0.19
0.29997	1265.59	0.21
0.39835	1298.93	0.22
0.4965	1322.87	0.23
0.59954	1341.54	0.22
0.73034	1359.16	0.22
0.83898	1370.38	0.23
0.90619	1376.17	0.23
0.96962	1381.16	0.23
0.98003	1381.89	0.23
0.98995	1382.59	0.23
0.99495	1382.97	0.23
1	1383.41	0.23

System: methanol + 2,2,2-trifluoroethanol; phases: Liquid
Fixed: Temperature, K = 298.15
Fixed: Pressure, kPa = 101
Property: Excess molar enthalpy (molar enthalpy of mixing), kJ/mol (Liquid); method: Flow calorimetry
Mole fraction of 2,2,2-trifluoroethanol	Excess molar enthalpy (molar enthalpy of mixing), kJ/mol	uncertainty
0.00548	-0.0217	0.0009
0.01037	-0.0397	0.0011
0.02045	-0.0801	0.0014
0.02995	-0.1183	0.0017
0.04012	-0.1574	0.002
0.04831	-0.1922	0.0023
0.09938	-0.3565	0.0035
0.19965	-0.6111	0.0056
0.29705	-0.7644	0.0068
0.39879	-0.8466	0.0075
0.49711	-0.8516	0.0075
0.60273	-0.8116	0.0072
0.70985	-0.6762	0.0061
0.80439	-0.506	0.0047
0.89288	-0.2709	0.0029
0.90165	-0.2454	0.0027
0.9113	-0.2253	0.0025
0.92507	-0.1893	0.0022
0.9337	-0.1624	0.002
0.94632	-0.1333	0.0018
0.96016	-0.1029	0.0016
0.9707	-0.0709	0.0013
0.98377	-0.0366	0.0011
0.99535	-0.0117	0.0009
0.99867	-0.0027	0.0008

System: methanol + 2,2,2-trifluoroethanol; phases: Liquid
Fixed: Temperature, K = 298.15
Fixed: Pressure, kPa = 101
Property: Mass density, kg/m3 (Liquid); method: Vibrating tube method
Mole fraction of 2,2,2-trifluoroethanol	Mass density, kg/m3	uncertainty
0	786.3	0.15
0.00435	790.62	0.15
0.00909	795.28	0.14
0.01555	801.57	0.14
0.01643	802.43	0.14
0.06693	849.62	0.13
0.18622	949.42	0.16
0.31905	1045.13	0.23
0.38499	1087.8	0.25
0.48078	1144.91	0.3
0.57971	1198.76	0.26
0.69055	1253.74	0.22
0.83314	1317.38	0.21
0.91962	1352.57	0.22
0.97009	1372.13	0.23
0.97993	1375.89	0.23
0.9913	1380.01	0.23
0.99494	1381.47	0.23
1	1383.41	0.23

System: ethanol + 2,2,2-trifluoroethanol; phases: Liquid
Fixed: Temperature, K = 298.15
Fixed: Pressure, kPa = 101
Property: Excess molar enthalpy (molar enthalpy of mixing), kJ/mol (Liquid); method: Flow calorimetry
Mole fraction of 2,2,2-trifluoroethanol	Excess molar enthalpy (molar enthalpy of mixing), kJ/mol	uncertainty
0.00586	-0.0197	0.0009
0.0106	-0.0396	0.0011
0.02013	-0.0808	0.0014
0.03032	-0.1186	0.0017
0.03992	-0.1544	0.002
0.04851	-0.1873	0.0022
0.06244	-0.2165	0.0025
0.07146	-0.2486	0.0027
0.08127	-0.2787	0.0029
0.09052	-0.309	0.0032
0.09891	-0.3334	0.0034
0.19903	-0.5257	0.0049
0.29919	-0.6289	0.0057
0.39946	-0.6709	0.0061
0.50385	-0.6569	0.006
0.6029	-0.5803	0.0053
0.70144	-0.4935	0.0046
0.79638	-0.3529	0.0035
0.8945	-0.1958	0.0023
0.90719	-0.1781	0.0022
0.91596	-0.1596	0.002
0.92785	-0.1442	0.0019
0.93892	-0.1226	0.0017
0.95158	-0.1005	0.0016
0.96177	-0.0833	0.0014
0.97287	-0.0583	0.0012
0.98258	-0.0377	0.0011
0.99202	-0.0149	0.0009
0.99876	-0.0038	0.0008

System: ethanol + 2,2,2-trifluoroethanol; phases: Liquid
Fixed: Temperature, K = 298.15
Fixed: Pressure, kPa = 101
Property: Mass density, kg/m3 (Liquid); method: Vibrating tube method
Mole fraction of 2,2,2-trifluoroethanol	Mass density, kg/m3	uncertainty
0	784.83	0.15
0.00449	788	0.15
0.00898	791.1	0.15
0.02012	798.87	0.14
0.02992	805.61	0.14
0.04022	812.7	0.14
0.05208	820.82	0.14
0.10019	853.17	0.13
0.20027	918.54	0.15
0.30008	981.36	0.19
0.39988	1042.13	0.25
0.50027	1101.6	0.31
0.60121	1160.07	0.26
0.70247	1217.72	0.23
0.78508	1264.15	0.21
0.91088	1334.11	0.21
0.92	1339.16	0.22
0.9299	1344.65	0.22
0.94966	1355.58	0.22
0.95972	1361.14	0.22
0.96971	1366.65	0.23
0.97985	1372.26	0.23
0.98969	1377.67	0.23
1	1383.41	0.23

System: propan-1-ol + 2,2,2-trifluoroethanol; phases: Liquid
Fixed: Temperature, K = 298.15
Fixed: Pressure, kPa = 101
Property: Excess molar enthalpy (molar enthalpy of mixing), kJ/mol (Liquid); method: Flow calorimetry
Mole fraction of 2,2,2-trifluoroethanol	Excess molar enthalpy (molar enthalpy of mixing), kJ/mol	uncertainty
0.0054	-0.0125	0.0009
0.0092	-0.0242	0.001
0.02045	-0.0463	0.0011
0.03258	-0.0683	0.0013
0.04077	-0.09	0.0015
0.051	-0.1088	0.0016
0.10129	-0.1836	0.0022
0.20133	-0.2687	0.0029
0.30226	-0.3017	0.0031
0.40412	-0.3053	0.0031
0.4962	-0.2698	0.0029
0.59738	-0.2257	0.0025
0.69983	-0.1746	0.0021
0.79867	-0.1149	0.0017
0.90033	-0.0574	0.0012
0.91077	-0.0515	0.0012
0.92106	-0.0461	0.0011
0.93326	-0.0409	0.0011
0.94094	-0.0348	0.001
0.94863	-0.0294	0.001
0.95771	-0.0242	0.001
0.96937	-0.0171	0.0009
0.98393	-0.0108	0.0009
0.9916	-0.0045	0.0008
0.99615	-0.0017	0.0008

System: propan-1-ol + 2,2,2-trifluoroethanol; phases: Liquid
Fixed: Temperature, K = 298.15
Fixed: Pressure, kPa = 101
Property: Mass density, kg/m3 (Liquid); method: Vibrating tube method
Mole fraction of 2,2,2-trifluoroethanol	Mass density, kg/m3	uncertainty
0	799.3	0.14
0.00607	802.48	0.14
0.01063	804.92	0.14
0.02216	810.94	0.14
0.03141	815.81	0.13
0.1032	853.69	0.13
0.20221	906.48	0.14
0.31176	965.59	0.18
0.40797	1018.5	0.23
0.50848	1075.13	0.29
0.60569	1131.49	0.26
0.70744	1192.38	0.23
0.8029	1251.85	0.21
0.90234	1316.56	0.21
0.96715	1360.54	0.22
0.97854	1368.42	0.23
0.98982	1376.24	0.23
0.99475	1379.83	0.23
1	1383.41	0.23
