Measured thermophysical data. Thermodynamics of sublimation and solvation for bicyclo-derivativesof 1,3-thiazine
Source: Thermochim. Acta, 2013, 10.1016/j.tca.2013.07.005
Compound 1: N-(1-thia-3-azaspiro[5.5]undec-2-en-2-yl)benzamide, C16H20N2OS, InChI=1S/C16H20N2OS/c19-14(13-7-3-1-4-8-13)18-15-17-12-11-16(20-15)9-5-2-6-10-16/h1,3-4,7-8H,2,5-6,9-12H2,(H,17,18,19), purity 98%
Compound 2: N-(4-methoxyphenyl)-1-thia-3-azaspiro[5.5]undec-2-en-2-amine, C16H22N2OS, InChI=1S/C16H22N2OS/c1-19-14-7-5-13(6-8-14)18-15-17-12-11-16(20-15)9-3-2-4-10-16/h5-8H,2-4,9-12H2,1H3,(H,17,18), purity 98%
Compound 3: 1-(4-(1-thia-3-azaspiro[5.5]undec-2-en-2-ylamino)phenyl)ethanone, C17H22N2OS, InChI=1S/C17H22N2OS/c1-13(20)14-5-7-15(8-6-14)19-16-18-12-11-17(21-16)9-3-2-4-10-17/h5-8H,2-4,9-12H2,1H3,(H,18,19), purity 98%

System: N-(1-thia-3-azaspiro[5.5]undec-2-en-2-yl)benzamide; phases: Crystal, Liquid, Air at 1 atmosphere
Property: Normal melting temperature, K (Crystal); method: DTA:corrimp
Normal melting temperature, K	uncertainty
403.4	2.1

System: N-(1-thia-3-azaspiro[5.5]undec-2-en-2-yl)benzamide; phases: Crystal, Liquid, Air at 1 atmosphere
Property: Molar enthalpy of transition or fusion, kJ/mol (Crystal); method: DSC
Molar enthalpy of transition or fusion, kJ/mol	uncertainty
27.9	1.2

System: N-(1-thia-3-azaspiro[5.5]undec-2-en-2-yl)benzamide; phases: Crystal, Gas
Property: Vapor or sublimation pressure, kPa (Crystal); method: Transpiration method
Temperature, K	Vapor or sublimation pressure, kPa	uncertainty
353.15	2.2e-09	2.2e-09
354.15	2.3e-09	2.3e-09
357.15	3.1e-09	3.1e-09
360.15	3.8e-09	3.8e-09
363.15	4.8e-09	4.8e-09
366.15	5.8e-09	5.8e-09
368.15	6.8e-09	6.8e-09
371.15	8.9e-09	8.9e-09
373.15	1.06e-08	1.06e-08
375.15	1.28e-08	1.28e-08
377.15	1.4e-08	1.4e-08
378.15	1.51e-08	1.51e-08
380.15	1.85e-08	1.85e-08
381.15	2e-08	2e-08
383.15	2.26e-08	2.26e-08
386.15	2.87e-08	2.87e-08

System: N-(4-methoxyphenyl)-1-thia-3-azaspiro[5.5]undec-2-en-2-amine; phases: Crystal, Liquid, Air at 1 atmosphere
Property: Normal melting temperature, K (Crystal); method: DTA:corrimp
Normal melting temperature, K	uncertainty
388.5	2.1

System: N-(4-methoxyphenyl)-1-thia-3-azaspiro[5.5]undec-2-en-2-amine; phases: Crystal, Liquid, Air at 1 atmosphere
Property: Molar enthalpy of transition or fusion, kJ/mol (Crystal); method: DSC
Molar enthalpy of transition or fusion, kJ/mol	uncertainty
27.3	1.1

System: N-(4-methoxyphenyl)-1-thia-3-azaspiro[5.5]undec-2-en-2-amine; phases: Crystal, Gas
Property: Vapor or sublimation pressure, kPa (Crystal); method: Transpiration method
Temperature, K	Vapor or sublimation pressure, kPa	uncertainty
353.15	3.4e-09	3.4e-09
355.15	4.7e-09	4.7e-09
358.15	6.5e-09	6.5e-09
360.15	9.5e-09	9.5e-09
362.15	1.15e-08	1.15e-08
365.15	1.64e-08	1.64e-08
367.15	2.17e-08	2.17e-08
369.15	2.73e-08	2.73e-08
371.15	3.63e-08	3.63e-08
373.15	4.28e-08	4.28e-08
375.15	5.23e-08	5.23e-08
377.15	6.63e-08	6.63e-08
381.15	9.73e-08	9.73e-08

System: 1-(4-(1-thia-3-azaspiro[5.5]undec-2-en-2-ylamino)phenyl)ethanone; phases: Crystal, Liquid, Air at 1 atmosphere
Property: Normal melting temperature, K (Crystal); method: DTA:corrimp
Normal melting temperature, K	uncertainty
436.6	2.1

System: 1-(4-(1-thia-3-azaspiro[5.5]undec-2-en-2-ylamino)phenyl)ethanone; phases: Crystal, Liquid, Air at 1 atmosphere
Property: Molar enthalpy of transition or fusion, kJ/mol (Crystal); method: DSC
Molar enthalpy of transition or fusion, kJ/mol	uncertainty
32.5	1.2

System: 1-(4-(1-thia-3-azaspiro[5.5]undec-2-en-2-ylamino)phenyl)ethanone; phases: Crystal, Gas
Property: Vapor or sublimation pressure, kPa (Crystal); method: Transpiration method
Temperature, K	Vapor or sublimation pressure, kPa	uncertainty
373.15	4.1e-09	4.1e-09
375.15	5.3e-09	5.3e-09
377.15	6.8e-09	6.8e-09
379.15	8.8e-09	8.8e-09
381.15	1.13e-08	1.13e-08
383.15	1.46e-08	1.46e-08
385.15	1.87e-08	1.87e-08
386.15	2.15e-08	2.15e-08
387.15	2.52e-08	2.52e-08
388.15	2.87e-08	2.87e-08
390.15	3.44e-08	3.44e-08
391.15	3.72e-08	3.72e-08
392.15	4.46e-08	4.46e-08
393.15	5.03e-08	5.03e-08
394.15	5.5e-08	5.5e-08
396.15	7.28e-08	7.28e-08
397.15	7.97e-08	7.97e-08
