Measured thermophysical data. High-pressure densities and derived volumetric properties (excess and partial molar volumes, vapor-pressures) of binary methanol + ethanol mixtures
Source: Thermochim. Acta, 2008, 10.1016/j.tca.2008.07.011
Compound 1: methanol, CH4O, InChI=1S/CH4O/c1-2/h2H,1H3
Compound 2: ethanol, C2H6O, InChI=1S/C2H6O/c1-2-3/h3H,2H2,1H3

System: ethanol + methanol; phases: Liquid
Property: Mass density, kg/m3 (Liquid); method: Vibrating tube method
Temperature, K	Pressure, kPa	Mole fraction of methanol	Mass density, kg/m3	uncertainty
298.15	150	0.08564	785.63	0.16
298.15	210	0.68017	786.23	0.16
298.15	210	0.84236	786.36	0.16
298.15	350	0.41971	786.13	0.16
298.15	410	0.19998	785.97	0.16
298.15	5030	0.08564	789.89	0.2
298.15	5060	0.84236	790.89	0.2
298.15	5080	0.68017	790.71	0.2
298.15	5670	0.19998	790.59	0.21
298.15	5750	0.41971	790.97	0.21
298.15	10020	0.08564	794.08	0.25
298.15	10040	0.84236	795.36	0.25
298.15	10100	0.19998	794.34	0.25
298.15	10490	0.41971	795.05	0.25
298.15	10810	0.68017	795.77	0.26
298.15	15260	0.68017	799.54	0.3
298.15	15450	0.19998	798.7	0.3
298.15	15620	0.08564	798.6	0.3
298.15	15620	0.84236	800.16	0.3
298.15	15930	0.41971	799.55	0.3
298.15	20030	0.08564	802.01	0.34
298.15	20060	0.84236	803.82	0.34
298.15	20360	0.19998	802.53	0.34
298.15	20460	0.68017	803.77	0.34
298.15	20660	0.41971	803.3	0.35
298.15	25230	0.19998	806.18	0.39
298.15	25280	0.68017	807.52	0.38
298.15	25350	0.41971	806.87	0.39
298.15	25850	0.08564	806.32	0.39
298.15	25940	0.84236	808.45	0.39
298.15	29830	0.68017	810.91	0.42
298.15	30150	0.08564	809.36	0.43
298.15	30270	0.19998	809.79	0.43
298.15	30510	0.41971	810.63	0.43
298.15	30510	0.84236	811.88	0.43
298.15	34820	0.68017	814.47	0.46
298.15	35550	0.19998	813.38	0.47
298.15	35590	0.41971	814.15	0.47
298.15	35620	0.08564	813.05	0.47
298.15	35620	0.84236	815.53	0.47
298.15	39350	0.68017	817.55	0.5
298.15	39610	0.41971	816.81	0.5
298.15	39840	0.19998	816.17	0.51
298.15	39890	0.08564	815.8	0.51
298.15	39960	0.84236	818.5	0.5
323.15	180	0.08564	763.63	0.17
323.15	230	0.41971	763.28	0.88
323.15	230	0.68017	763.05	0.17
323.15	240	0.19998	763.54	0.17
323.15	410	0.84236	763.13	0.17
323.15	5030	0.08564	768.54	0.22
323.15	5230	0.84236	768.28	0.22
323.15	5370	0.41971	768.63	0.22
323.15	5380	0.19998	768.79	0.22
323.15	5770	0.68017	768.91	0.23
323.15	10060	0.08564	773.41	0.27
323.15	10320	0.84236	773.49	0.28
323.15	10440	0.41971	773.67	0.28
323.15	10530	0.68017	773.72	0.28
323.15	11120	0.19998	774.38	0.28
323.15	15210	0.08564	778.18	0.32
323.15	15340	0.68017	778.36	0.33
323.15	15350	0.19998	778.31	0.33
323.15	15530	0.41971	778.5	0.33
323.15	15640	0.84236	778.67	0.33
323.15	20080	0.08564	782.48	0.37
323.15	20080	0.84236	782.8	0.37
323.15	20330	0.41971	782.83	0.37
323.15	20410	0.68017	783.03	0.37
323.15	21250	0.19998	783.53	0.38
323.15	24450	0.68017	786.57	0.41
323.15	25140	0.41971	786.97	0.42
323.15	25610	0.08564	787.11	0.42
323.15	25640	0.84236	787.7	0.42
323.15	25780	0.19998	787.33	0.43
323.15	30040	0.08564	790.63	0.47
323.15	30080	0.84236	791.42	0.46
323.15	30310	0.68017	791.45	0.47
323.15	30470	0.41971	791.31	0.47
323.15	30520	0.19998	791.12	0.47
323.15	34250	0.68017	794.55	0.5
323.15	35140	0.08564	794.48	0.51
323.15	35220	0.19998	794.68	0.51
323.15	35520	0.41971	795.19	0.51
323.15	35740	0.84236	795.88	0.52
323.15	39520	0.68017	798.47	0.55
323.15	39940	0.41971	798.39	0.55
323.15	39940	0.84236	799	0.55
323.15	39970	0.08564	797.91	0.55
323.15	40050	0.19998	798.14	0.55
348.15	210	0.08564	739.68	0.18
348.15	260	0.84236	738.25	0.18
348.15	350	0.41971	739.02	0.18
348.15	350	0.68017	738.58	0.18
348.15	360	0.19998	739.54	0.18
348.15	4840	0.41971	744.5	0.24
348.15	4980	0.84236	744.11	0.24
348.15	5040	0.08564	745.44	0.24
348.15	5450	0.19998	745.65	0.24
348.15	5580	0.68017	745.01	0.25
348.15	9920	0.68017	750.1	0.29
348.15	10090	0.08564	751.17	0.3
348.15	10560	0.41971	751.13	0.3
348.15	10620	0.84236	750.76	0.3
348.15	10630	0.19998	751.55	0.3
348.15	15210	0.68017	756.01	0.35
348.15	15320	0.84236	756.02	0.35
348.15	15720	0.41971	756.79	0.36
348.15	15840	0.08564	757.34	0.36
348.15	15860	0.19998	757.19	0.36
348.15	20060	0.84236	761.04	0.4
348.15	20070	0.68017	761.14	0.4
348.15	20080	0.08564	761.65	0.4
348.15	20240	0.41971	761.49	0.41
348.15	21210	0.19998	762.64	0.42
348.15	24250	0.68017	765.32	0.45
348.15	25330	0.41971	766.49	0.46
348.15	25410	0.08564	766.77	0.46
348.15	25890	0.19998	767.14	0.46
348.15	25940	0.84236	766.91	0.47
348.15	29810	0.68017	770.57	0.5
348.15	29960	0.08564	770.89	0.5
348.15	30080	0.84236	770.79	0.51
348.15	30350	0.41971	771.12	0.51
348.15	30850	0.19998	771.62	0.51
348.15	35050	0.19998	775.2	0.55
348.15	35260	0.68017	775.36	0.56
348.15	35610	0.84236	775.65	0.56
348.15	35730	0.41971	775.76	0.56
348.15	35980	0.08564	775.97	0.56
348.15	39720	0.41971	778.98	0.6
348.15	39960	0.08564	779.1	0.6
348.15	39970	0.19998	779.14	0.6
348.15	39980	0.84236	779.23	0.6
348.15	40020	0.68017	779.25	0.6
373.15	410	0.08564	713.39	0.2
373.15	480	0.19998	713.11	0.2
373.15	530	0.84236	711.8	0.2
373.15	640	0.68017	712.22	0.2
373.15	970	0.41971	713.23	0.21
373.15	5060	0.84236	718.43	0.26
373.15	5290	0.41971	719.45	0.26
373.15	5410	0.68017	719.15	0.27
373.15	5620	0.08564	720.77	0.27
373.15	5820	0.19998	720.71	0.27
373.15	10080	0.08564	726.76	0.32
373.15	10390	0.19998	726.87	0.33
373.15	10520	0.84236	725.98	0.33
373.15	10630	0.41971	726.72	0.33
373.15	10850	0.68017	726.62	0.33
373.15	15420	0.08564	733.53	0.39
373.15	15610	0.41971	733.11	0.39
373.15	15680	0.84236	732.69	0.39
373.15	15780	0.68017	732.98	0.39
373.15	16620	0.19998	734.74	0.4
373.15	19980	0.08564	738.96	0.44
373.15	20090	0.84236	738.07	0.44
373.15	20420	0.19998	739.25	0.44
373.15	20420	0.68017	738.61	0.44
373.15	20740	0.41971	739.28	0.45
373.15	25080	0.19998	744.48	0.5
373.15	25120	0.08564	744.71	0.5
373.15	25220	0.68017	744.07	0.5
373.15	25420	0.41971	744.55	0.5
373.15	25610	0.84236	744.38	0.5
373.15	29980	0.08564	749.77	0.55
373.15	30070	0.84236	749.12	0.55
373.15	30610	0.68017	749.78	0.56
373.15	30970	0.19998	750.61	0.56
373.15	31030	0.41971	750.42	0.56
373.15	35120	0.68017	754.19	0.6
373.15	35520	0.19998	754.97	0.61
373.15	35610	0.41971	754.85	0.61
373.15	35610	0.84236	754.56	0.61
373.15	35620	0.08564	755.19	0.61
373.15	39570	0.68017	758.23	0.65
373.15	39830	0.41971	758.63	0.65
373.15	39910	0.84236	758.44	0.65
373.15	39960	0.08564	759.03	0.65
373.15	39960	0.19998	758.93	0.65
398.15	790	0.08564	683.99	0.23
398.15	940	0.19998	683.88	0.23
398.15	940	0.84236	682.53	0.23
398.15	980	0.68017	682.85	0.23
398.15	1020	0.41971	683.44	0.23
398.15	4980	0.08564	691.25	0.28
398.15	4980	0.84236	689.63	0.29
398.15	5400	0.41971	691.06	0.29
398.15	6130	0.68017	691.82	0.3
398.15	6350	0.19998	693.19	0.3
398.15	9860	0.08564	699.24	0.35
398.15	10220	0.68017	698.54	0.36
398.15	10320	0.84236	698.49	0.36
398.15	10550	0.41971	699.51	0.36
398.15	10880	0.19998	700.52	0.36
398.15	15060	0.84236	705.84	0.42
398.15	15110	0.68017	706.11	0.42
398.15	15410	0.08564	707.73	0.42
398.15	15580	0.19998	707.67	0.42
398.15	15910	0.41971	707.7	0.43
398.15	20070	0.08564	714.35	0.48
398.15	20450	0.84236	713.62	0.49
398.15	20630	0.68017	714.05	0.49
398.15	20940	0.19998	715.26	0.49
398.15	21310	0.41971	715.35	0.5
398.15	25630	0.08564	721.66	0.55
398.15	25680	0.68017	720.75	0.55
398.15	25830	0.84236	720.78	0.55
398.15	25920	0.19998	721.78	0.55
398.15	26520	0.41971	722.15	0.56
398.15	29940	0.84236	725.83	0.6
398.15	29980	0.08564	726.93	0.6
398.15	30640	0.68017	726.81	0.61
398.15	30740	0.41971	727.24	0.61
398.15	30830	0.19998	727.69	0.61
398.15	35010	0.08564	732.52	0.65
398.15	35160	0.84236	731.72	0.66
398.15	35360	0.19998	732.69	0.66
398.15	35730	0.68017	732.48	0.67
398.15	36340	0.41971	733.41	0.67
398.15	39750	0.68017	736.57	0.71
398.15	39770	0.41971	736.87	0.71
398.15	39920	0.84236	736.59	0.71
398.15	39990	0.08564	737.54	0.71
398.15	40020	0.19998	737.4	0.71
423.15	1510	0.08564	650.94	0.26
423.15	1650	0.19998	650.85	0.26
423.15	1750	0.68017	649.98	0.27
423.15	1870	0.41971	650.75	0.27
423.15	1960	0.84236	650.2	0.27
423.15	5450	0.41971	658.46	0.32
423.15	5640	0.84236	658.12	0.32
423.15	5820	0.68017	658.74	0.33
423.15	5980	0.08564	660.55	0.33
423.15	6190	0.19998	660.6	0.33
423.15	10420	0.68017	668.06	0.39
423.15	10470	0.84236	667.91	0.4
423.15	10720	0.41971	669.14	0.4
423.15	10830	0.19998	669.93	0.4
423.15	10860	0.08564	670.36	0.4
423.15	15060	0.19998	677.89	0.46
423.15	15440	0.68017	677.53	0.46
423.15	15620	0.08564	679.26	0.47
423.15	15840	0.84236	678.02	0.47
423.15	15960	0.41971	678.96	0.47
423.15	20090	0.08564	687.01	0.53
423.15	20640	0.84236	686.34	0.54
423.15	20860	0.68017	686.94	0.54
423.15	21130	0.19998	688.39	0.54
423.15	21250	0.41971	688.05	0.54
423.15	25050	0.41971	694.08	0.59
423.15	25180	0.68017	693.82	0.59
423.15	25410	0.08564	695.47	0.6
423.15	25690	0.19998	695.56	0.6
423.15	25940	0.84236	694.75	0.6
423.15	29120	0.84236	699.41	0.64
423.15	29940	0.08564	702.01	0.65
423.15	30240	0.19998	702.11	0.66
423.15	30510	0.68017	701.57	0.66
423.15	30660	0.41971	702.2	0.66
423.15	34770	0.68017	707.17	0.71
423.15	35620	0.41971	708.62	0.72
423.15	35620	0.84236	708.03	0.73
423.15	35640	0.08564	709.38	0.72
423.15	35690	0.19998	709.15	0.72
423.15	39740	0.68017	713.03	0.78
423.15	39890	0.19998	713.98	0.77
423.15	39970	0.08564	714.34	0.77
423.15	39980	0.84236	713.12	0.78
423.15	40080	0.41971	713.77	0.78
