Measured thermophysical data. Temperature controlled photoacoustic device for thermal diffusivity measurements of liquids and nanofluids
Source: Thermochim. Acta, 2015, 10.1016/j.tca.2015.09.017
Compound 1: water, H2O, InChI=1S/H2O/h1H2, purity 99.9%
Compound 2: 1,2-ethanediol, C2H6O2, InChI=1S/C2H6O2/c3-1-2-4/h3-4H,1-2H2

System: water; phases: Liquid
Fixed: Pressure, kPa = 101.325
Property: Thermal diffusivity, m2/s (Liquid); method: Photoacoustic measurements
Temperature, K	Thermal diffusivity, m2/s	uncertainty
298.15	1.49e-07	6e-09
308.15	1.53e-07	6e-09
318.15	1.56e-07	6e-09
328.15	1.59e-07	6e-09
338.15	1.61e-07	6e-09

System: 1,2-ethanediol; phases: Liquid
Fixed: Pressure, kPa = 101.325
Property: Thermal diffusivity, m2/s (Liquid); method: Photoacoustic measurements
Temperature, K	Thermal diffusivity, m2/s	uncertainty
298.15	9.84e-08	3.9e-09
308.15	9.73e-08	3.9e-09
318.15	9.68e-08	3.9e-09
328.15	9.49e-08	3.8e-09
338.15	9.42e-08	3.8e-09
