Measured thermophysical data. Effect of N-acetylglycine on volumetric, acoustic and viscometric behaviour of aqueous amoxicillin solutions
Source: Thermochim. Acta, 2014, 10.1016/j.tca.2014.03.013
Compound 1: amoxicillin, C16H19N3O5S, InChI=1S/C16H19N3O5S/c1-16(2)11(15(23)24)19-13(22)10(14(19)25-16)18-12(21)9(17)7-3-5-8(20)6-4-7/h3-6,9-11,14,20H,17H2,1-2H3,(H,18,21)(H,23,24)/t9-,10-,11+,14-/m1/s1, purity 99%
Compound 2: N-acetylglycine, C4H7NO3, InChI=1S/C4H7NO3/c1-3(6)5-2-4(7)8/h2H2,1H3,(H,5,6)(H,7,8), purity 99%
Compound 3: water, H2O, InChI=1S/H2O/h1H2, purity 99.9%

System: water; phases: Liquid
Fixed: Pressure, kPa = 101
Property: Mass density, kg/m3 (Liquid); method: Vibrating tube method
Temperature, K	Mass density, kg/m3	uncertainty
305.15	995.09	0.166
310.15	993.403	0.167
315.15	991.51	0.167

System: water; phases: Liquid
Fixed: Pressure, kPa = 101
Fixed: Frequency, MHz = 3
Property: Speed of sound, m/s (Liquid); method: Sing-around technique in a fixed-path interferometer
Temperature, K	Speed of sound, m/s	uncertainty
305.15	1513.72	1.2
310.15	1523.21	1.2
315.15	1532.03	1.21

System: water; phases: Liquid
Fixed: Pressure, kPa = 101
Property: Viscosity, Pa*s (Liquid); method: Falling or rolling sphere viscometry
Temperature, K	Viscosity, Pa*s	uncertainty
305.15	0.0007823	1.62e-05
310.15	0.0007023	1.6e-05
315.15	0.0006487	1.59e-05

System: N-acetylglycine + water + amoxicillin; phases: Liquid
Fixed: Pressure, kPa = 101
Property: Mass density, kg/m3 (Liquid); method: Vibrating tube method
Temperature, K	Molality, mol/kg of N-acetylglycine	Solvent: Molality, mol/kg of amoxicillin	Mass density, kg/m3	uncertainty
305.15	0	0	995.09	0.166
305.15	0.002	0	995.152	0.166
305.15	0.00402	0	995.215	0.166
305.15	0.00601	0	995.276	0.166
305.15	0.00798	0	995.336	0.166
305.15	0.01012	0	995.4	0.166
305.15	0.0191	0	995.672	0.166
305.15	0.03981	0	996.296	0.166
305.15	0.05696	0	996.805	0.166
305.15	0.07873	0	997.444	0.166
305.15	0.09966	0	998.049	0.165
305.15	0.11991	0	998.626	0.165
305.15	0.14509	0	999.331	0.165
305.15	0.16766	0	999.952	0.165
305.15	0.19753	0	1000.761	0.166
310.15	0	0	993.403	0.167
310.15	0.002	0	993.465	0.167
310.15	0.00402	0	993.528	0.167
310.15	0.00601	0	993.589	0.167
310.15	0.00798	0	993.648	0.167
310.15	0.01012	0	993.712	0.167
310.15	0.0191	0	993.984	0.167
310.15	0.03981	0	994.606	0.166
310.15	0.05696	0	995.114	0.166
310.15	0.07873	0	995.751	0.166
310.15	0.09966	0	996.356	0.166
310.15	0.11991	0	996.933	0.166
310.15	0.14509	0	997.635	0.166
310.15	0.16766	0	998.255	0.166
310.15	0.19753	0	999.061	0.165
315.15	0	0	991.51	0.167
315.15	0.002	0	991.572	0.167
315.15	0.00402	0	991.634	0.167
315.15	0.00601	0	991.694	0.167
315.15	0.00798	0	991.754	0.167
315.15	0.01012	0	991.818	0.167
315.15	0.0191	0	992.087	0.167
315.15	0.03981	0	992.703	0.167
315.15	0.05696	0	993.208	0.167
315.15	0.07873	0	993.837	0.167
315.15	0.09966	0	994.437	0.167
315.15	0.11991	0	995.009	0.166
315.15	0.14509	0	995.705	0.166
315.15	0.16766	0	996.32	0.166
315.15	0.19753	0	997.122	0.166
305.15	0	0.0005	995.095	0.166
305.15	0.0019	0.0005	995.154	0.166
305.15	0.00394	0.0005	995.217	0.166
305.15	0.00601	0.0005	995.28	0.17
305.15	0.00809	0.0005	995.343	0.166
305.15	0.01008	0.0005	995.403	0.166
305.15	0.01959	0.0005	995.69	0.17
305.15	0.0404	0.0005	996.313	0.166
305.15	0.06073	0.0005	996.913	0.166
305.15	0.07662	0.0005	997.377	0.166
305.15	0.09914	0.0005	998.029	0.165
305.15	0.11724	0.0005	998.547	0.165
305.15	0.14936	0.0005	999.451	0.165
305.15	0.1689	0.0005	999.991	0.165
305.15	0.20337	0.0005	1000.928	0.166
310.15	0	0.0005	993.397	0.167
310.15	0.0019	0.0005	993.456	0.167
310.15	0.00394	0.0005	993.519	0.167
310.15	0.00601	0.0005	993.582	0.167
310.15	0.00809	0.0005	993.645	0.167
310.15	0.01008	0.0005	993.704	0.167
310.15	0.01959	0.0005	993.99	0.17
310.15	0.0404	0.0005	994.612	0.166
310.15	0.06073	0.0005	995.211	0.166
310.15	0.07662	0.0005	995.674	0.166
310.15	0.09914	0.0005	996.326	0.166
310.15	0.11724	0.0005	996.842	0.166
310.15	0.14936	0.0005	997.743	0.166
310.15	0.1689	0.0005	998.282	0.166
310.15	0.20337	0.0005	999.217	0.165
315.15	0	0.0005	991.504	0.167
315.15	0.0019	0.0005	991.562	0.167
315.15	0.00394	0.0005	991.625	0.167
315.15	0.00601	0.0005	991.688	0.167
315.15	0.00809	0.0005	991.75	0.167
315.15	0.01008	0.0005	991.809	0.167
315.15	0.01959	0.0005	992.094	0.167
315.15	0.0404	0.0005	992.712	0.167
315.15	0.06073	0.0005	993.309	0.167
315.15	0.07662	0.0005	993.769	0.167
315.15	0.09914	0.0005	994.414	0.167
315.15	0.11724	0.0005	994.924	0.166
315.15	0.14936	0.0005	995.815	0.166
315.15	0.1689	0.0005	996.346	0.166
315.15	0.20337	0.0005	997.269	0.166
305.15	0	0.001	995.124	0.166
305.15	0.00201	0.001	995.186	0.166
305.15	0.00396	0.001	995.246	0.166
305.15	0.00599	0.001	995.308	0.166
305.15	0.00797	0.001	995.368	0.166
305.15	0.00992	0.001	995.426	0.166
305.15	0.01996	0.001	995.728	0.166
305.15	0.03974	0.001	996.319	0.166
305.15	0.06008	0.001	996.92	0.166
305.15	0.07997	0.001	997.503	0.166
305.15	0.09968	0.001	998.071	0.166
305.15	0.11931	0.001	998.63	0.165
305.15	0.15084	0.001	999.515	0.165
305.15	0.16978	0.001	1000.037	0.165
310.15	0	0.001	993.428	0.167
310.15	0.00201	0.001	993.49	0.167
310.15	0.00396	0.001	993.55	0.167
310.15	0.00599	0.001	993.612	0.167
310.15	0.00797	0.001	993.672	0.167
310.15	0.00992	0.001	993.73	0.167
310.15	0.01996	0.001	994.031	0.167
310.15	0.03974	0.001	994.621	0.167
310.15	0.06008	0.001	995.22	0.166
310.15	0.07997	0.001	995.798	0.166
310.15	0.09968	0.001	996.363	0.166
310.15	0.11931	0.001	996.921	0.166
310.15	0.15084	0.001	997.803	0.166
310.15	0.16978	0.001	998.32	0.166
315.15	0	0.001	991.541	0.167
315.15	0.00201	0.001	991.603	0.167
315.15	0.00396	0.001	991.663	0.167
315.15	0.00599	0.001	991.724	0.167
315.15	0.00797	0.001	991.784	0.167
315.15	0.00992	0.001	991.841	0.167
315.15	0.01996	0.001	992.142	0.167
315.15	0.03974	0.001	992.728	0.167
315.15	0.06008	0.001	993.323	0.167
315.15	0.07997	0.001	993.897	0.167
315.15	0.09968	0.001	994.459	0.167
315.15	0.11931	0.001	995.011	0.167
315.15	0.15084	0.001	995.88	0.166
315.15	0.16978	0.001	996.393	0.166
305.15	0	0.002	995.253	0.166
305.15	0.002	0.002	995.315	0.166
305.15	0.00401	0.002	995.377	0.166
305.15	0.00596	0.002	995.436	0.166
305.15	0.008	0.002	995.498	0.166
305.15	0.00998	0.002	995.556	0.166
305.15	0.01968	0.002	995.847	0.166
305.15	0.03909	0.002	996.426	0.166
305.15	0.06042	0.002	997.054	0.166
305.15	0.08012	0.002	997.627	0.166
305.15	0.09874	0.002	998.162	0.165
305.15	0.12022	0.002	998.77	0.165
305.15	0.1438	0.002	999.429	0.165
305.15	0.16978	0.002	1000.147	0.165
305.15	0.19659	0.002	1000.87	0.166
310.15	0	0.002	993.563	0.167
310.15	0.002	0.002	993.625	0.167
310.15	0.00401	0.002	993.686	0.167
310.15	0.00596	0.002	993.746	0.167
310.15	0.008	0.002	993.807	0.167
310.15	0.00998	0.002	993.866	0.167
310.15	0.01968	0.002	994.156	0.167
310.15	0.03909	0.002	994.733	0.166
310.15	0.06042	0.002	995.358	0.166
310.15	0.08012	0.002	995.928	0.166
310.15	0.09874	0.002	996.459	0.166
310.15	0.12022	0.002	997.064	0.166
310.15	0.1438	0.002	997.718	0.166
310.15	0.16978	0.002	998.426	0.166
310.15	0.19659	0.002	999.146	0.165
315.15	0	0.002	991.666	0.167
315.15	0.002	0.002	991.727	0.167
315.15	0.00401	0.002	991.789	0.167
315.15	0.00596	0.002	991.848	0.167
315.15	0.008	0.002	991.909	0.167
315.15	0.00998	0.002	991.967	0.167
315.15	0.01968	0.002	992.257	0.167
315.15	0.03909	0.002	992.83	0.167
315.15	0.06042	0.002	993.452	0.167
315.15	0.08012	0.002	994.021	0.167
315.15	0.09874	0.002	994.551	0.167
315.15	0.12022	0.002	995.152	0.167
315.15	0.1438	0.002	995.798	0.166
315.15	0.16978	0.002	996.501	0.166
315.15	0.19659	0.002	997.21	0.166

System: N-acetylglycine + water + amoxicillin; phases: Liquid
Fixed: Pressure, kPa = 101
Fixed: Frequency, MHz = 3
Property: Speed of sound, m/s (Liquid); method: Sing-around technique in a fixed-path interferometer
Temperature, K	Molality, mol/kg of N-acetylglycine	Solvent: Molality, mol/kg of amoxicillin	Speed of sound, m/s	uncertainty
305.15	0	0	1513.72	1.2
305.15	0.002	0	1513.88	1.2
305.15	0.00402	0	1513.93	1.2
305.15	0.00601	0	1514.09	1.2
305.15	0.00798	0	1514.14	1.2
305.15	0.01012	0	1514.29	1.2
305.15	0.0191	0	1514.49	1.2
305.15	0.03981	0	1515.71	1.2
305.15	0.05696	0	1516.2	1.2
305.15	0.07873	0	1516.38	1.2
305.15	0.09966	0	1517.58	1.2
305.15	0.11991	0	1517.87	1.2
305.15	0.14509	0	1519.01	1.2
305.15	0.16766	0	1519.45	1.2
305.15	0.19753	0	1520.58	1.2
310.15	0	0	1523.21	1.2
310.15	0.002	0	1523.69	1.2
310.15	0.00402	0	1523.85	1.2
310.15	0.00601	0	1523.99	1.2
310.15	0.00798	0	1524.03	1.2
310.15	0.01012	0	1524.13	1.2
310.15	0.0191	0	1524.42	1.2
310.15	0.03981	0	1525.51	1.2
310.15	0.05696	0	1525.94	1.2
310.15	0.07873	0	1526.15	1.2
310.15	0.09966	0	1527.23	1.2
310.15	0.11991	0	1527.41	1.2
310.15	0.14509	0	1528.41	1.2
310.15	0.16766	0	1528.8	1.2
310.15	0.19753	0	1529.78	1.2
315.15	0	0	1532.03	1.21
315.15	0.002	0	1532.15	1.2
315.15	0.00402	0	1532.2	1.2
315.15	0.00601	0	1532.29	1.2
315.15	0.00798	0	1532.46	1.2
315.15	0.01012	0	1532.53	1.2
315.15	0.0191	0	1532.54	1.2
315.15	0.03981	0	1533.45	1.2
315.15	0.05696	0	1533.86	1.2
315.15	0.07873	0	1534.4	1.21
315.15	0.09966	0	1535.08	1.2
315.15	0.11991	0	1535.33	1.21
315.15	0.14509	0	1536.03	1.2
315.15	0.16766	0	1536.67	1.21
315.15	0.19753	0	1537.26	1.2
305.15	0	0.0005	1513.48	1.2
305.15	0.0019	0.0005	1514.35	1.2
305.15	0.00394	0.0005	1514.32	1.2
305.15	0.00601	0.0005	1515.32	1.21
305.15	0.00809	0.0005	1514.11	1.2
305.15	0.01008	0.0005	1514.27	1.2
305.15	0.01959	0.0005	1515.6	1.2
305.15	0.0404	0.0005	1515.23	1.2
305.15	0.06073	0.0005	1516.83	1.2
305.15	0.07662	0.0005	1516.88	1.2
305.15	0.09914	0.0005	1517.17	1.2
305.15	0.11724	0.0005	1519.35	1.21
305.15	0.14936	0.0005	1520.35	1.2
305.15	0.1689	0.0005	1520.42	1.2
305.15	0.20337	0.0005	1520.81	1.2
310.15	0	0.0005	1523.54	1.2
310.15	0.0019	0.0005	1524.05	1.2
310.15	0.00394	0.0005	1524.32	1.2
310.15	0.00601	0.0005	1525.25	1.2
310.15	0.00809	0.0005	1524.29	1.2
310.15	0.01008	0.0005	1524.25	1.2
310.15	0.01959	0.0005	1525.5	1.2
310.15	0.0404	0.0005	1525.27	1.2
310.15	0.06073	0.0005	1526.58	1.2
310.15	0.07662	0.0005	1526.52	1.2
310.15	0.09914	0.0005	1526.94	1.2
310.15	0.11724	0.0005	1528.86	1.2
310.15	0.14936	0.0005	1529.63	1.2
310.15	0.1689	0.0005	1529.9	1.2
310.15	0.20337	0.0005	1530.2	1.2
315.15	0	0.0005	1531.98	1.21
315.15	0.0019	0.0005	1532.73	1.2
315.15	0.00394	0.0005	1532.83	1.2
315.15	0.00601	0.0005	1533.09	1.2
315.15	0.00809	0.0005	1532.84	1.21
315.15	0.01008	0.0005	1532.79	1.21
315.15	0.01959	0.0005	1533.43	1.2
315.15	0.0404	0.0005	1533.78	1.21
315.15	0.06073	0.0005	1534.38	1.2
315.15	0.07662	0.0005	1534.32	1.2
315.15	0.09914	0.0005	1535.18	1.21
315.15	0.11724	0.0005	1536.88	1.2
315.15	0.14936	0.0005	1537.01	1.21
315.15	0.1689	0.0005	1537.22	1.2
315.15	0.20337	0.0005	1538.06	1.21
305.15	0	0.001	1513.74	1.2
305.15	0.00201	0.001	1513.95	1.2
305.15	0.00396	0.001	1514.03	1.2
305.15	0.00599	0.001	1514.17	1.2
305.15	0.00797	0.001	1514.49	1.2
305.15	0.00992	0.001	1514.7	1.2
305.15	0.01996	0.001	1515.46	1.2
305.15	0.03974	0.001	1515.55	1.2
305.15	0.06008	0.001	1515.95	1.2
305.15	0.07997	0.001	1517.04	1.2
305.15	0.09968	0.001	1517.54	1.2
305.15	0.11931	0.001	1518.37	1.2
305.15	0.15084	0.001	1518.75	1.2
305.15	0.16978	0.001	1520.07	1.2
310.15	0	0.001	1523.9	1.2
310.15	0.00201	0.001	1523.92	1.2
310.15	0.00396	0.001	1524.02	1.2
310.15	0.00599	0.001	1524.09	1.2
310.15	0.00797	0.001	1524.5	1.2
310.15	0.00992	0.001	1524.6	1.2
310.15	0.01996	0.001	1525.25	1.2
310.15	0.03974	0.001	1525.48	1.2
310.15	0.06008	0.001	1525.67	1.2
310.15	0.07997	0.001	1526.67	1.2
310.15	0.09968	0.001	1526.96	1.2
310.15	0.11931	0.001	1527.86	1.2
310.15	0.15084	0.001	1528.13	1.2
310.15	0.16978	0.001	1529.38	1.2
315.15	0	0.001	1532.1	1.2
315.15	0.00201	0.001	1532.31	1.21
315.15	0.00396	0.001	1532.34	1.21
315.15	0.00599	0.001	1532.52	1.21
315.15	0.00797	0.001	1532.62	1.2
315.15	0.00992	0.001	1532.97	1.2
315.15	0.01996	0.001	1533.35	1.2
315.15	0.03974	0.001	1533.92	1.21
315.15	0.06008	0.001	1533.95	1.21
315.15	0.07997	0.001	1534.45	1.2
315.15	0.09968	0.001	1535.09	1.21
315.15	0.11931	0.001	1535.58	1.21
315.15	0.15084	0.001	1536.11	1.21
315.15	0.16978	0.001	1536.95	1.2
305.15	0	0.002	1513.83	1.2
305.15	0.002	0.002	1514.1	1.2
305.15	0.00401	0.002	1514.18	1.2
305.15	0.00596	0.002	1514.45	1.2
305.15	0.008	0.002	1514.94	1.2
305.15	0.00998	0.002	1515.17	1.2
305.15	0.01968	0.002	1515.83	1.2
305.15	0.03909	0.002	1515.87	1.2
305.15	0.06042	0.002	1516.01	1.2
305.15	0.08012	0.002	1517.21	1.2
305.15	0.09874	0.002	1517.28	1.2
305.15	0.12022	0.002	1518.5	1.2
305.15	0.1438	0.002	1519.22	1.2
305.15	0.16978	0.002	1519.96	1.2
305.15	0.19659	0.002	1521.31	1.2
310.15	0	0.002	1524.02	1.2
310.15	0.002	0.002	1523.91	1.2
310.15	0.00401	0.002	1524.15	1.2
310.15	0.00596	0.002	1524.21	1.2
310.15	0.008	0.002	1524.91	1.2
310.15	0.00998	0.002	1525.05	1.2
310.15	0.01968	0.002	1525.66	1.2
310.15	0.03909	0.002	1525.72	1.2
310.15	0.06042	0.002	1525.94	1.2
310.15	0.08012	0.002	1526.82	1.2
310.15	0.09874	0.002	1526.94	1.2
310.15	0.12022	0.002	1527.97	1.2
310.15	0.1438	0.002	1528.71	1.2
310.15	0.16978	0.002	1529.32	1.2
310.15	0.19659	0.002	1530.5	1.2
315.15	0	0.002	1532.46	1.21
315.15	0.002	0.002	1532.4	1.21
315.15	0.00401	0.002	1532.65	1.21
315.15	0.00596	0.002	1532.68	1.21
315.15	0.008	0.002	1532.88	1.2
315.15	0.00998	0.002	1533.04	1.2
315.15	0.01968	0.002	1533.58	1.2
315.15	0.03909	0.002	1533.8	1.2
315.15	0.06042	0.002	1534.33	1.21
315.15	0.08012	0.002	1534.6	1.2
315.15	0.09874	0.002	1535.11	1.21
315.15	0.12022	0.002	1535.64	1.2
315.15	0.1438	0.002	1536.72	1.2
315.15	0.16978	0.002	1537.2	1.2
315.15	0.19659	0.002	1537.98	1.2

System: N-acetylglycine + water + amoxicillin; phases: Liquid
Fixed: Pressure, kPa = 101
Property: Viscosity, Pa*s (Liquid); method: Falling or rolling sphere viscometry
Temperature, K	Molality, mol/kg of N-acetylglycine	Solvent: Molality, mol/kg of amoxicillin	Viscosity, Pa*s	uncertainty
305.15	0	0	0.0007823	1.62e-05
305.15	0.002	0	0.0007912	1.63e-05
305.15	0.00402	0	0.0007987	1.63e-05
305.15	0.00601	0	0.0008032	1.63e-05
305.15	0.00798	0	0.0008098	1.63e-05
305.15	0.01012	0	0.0008102	1.63e-05
305.15	0.0191	0	0.0008162	1.64e-05
305.15	0.03981	0	0.0008254	1.64e-05
305.15	0.05696	0	0.0008325	1.64e-05
305.15	0.07873	0	0.0008398	1.64e-05
305.15	0.09966	0	0.0008466	1.65e-05
305.15	0.11991	0	0.0008523	1.65e-05
305.15	0.14509	0	0.0008583	1.65e-05
305.15	0.16766	0	0.0008641	1.65e-05
305.15	0.19753	0	0.0008721	1.65e-05
310.15	0	0	0.0007023	1.6e-05
310.15	0.002	0	0.0007079	1.6e-05
310.15	0.00402	0	0.0007201	1.61e-05
310.15	0.00601	0	0.0007298	1.61e-05
310.15	0.00798	0	0.0007307	1.61e-05
310.15	0.01012	0	0.0007321	1.61e-05
310.15	0.0191	0	0.0007345	1.61e-05
310.15	0.03981	0	0.0007372	1.61e-05
310.15	0.05696	0	0.0007401	1.61e-05
310.15	0.07873	0	0.0007443	1.61e-05
310.15	0.09966	0	0.0007473	1.61e-05
310.15	0.11991	0	0.0007499	1.62e-05
310.15	0.14509	0	0.0007554	1.62e-05
310.15	0.16766	0	0.0007603	1.62e-05
310.15	0.19753	0	0.0007654	1.62e-05
315.15	0	0	0.0006487	1.59e-05
315.15	0.002	0	0.0006523	1.59e-05
315.15	0.00402	0	0.0006594	1.59e-05
315.15	0.00601	0	0.0006613	1.59e-05
315.15	0.00798	0	0.0006623	1.59e-05
315.15	0.01012	0	0.0006627	1.59e-05
315.15	0.0191	0	0.0006658	1.59e-05
315.15	0.03981	0	0.0006685	1.59e-05
315.15	0.05696	0	0.0006724	1.59e-05
315.15	0.07873	0	0.0006751	1.59e-05
315.15	0.09966	0	0.0006785	1.6e-05
315.15	0.11991	0	0.0006822	1.6e-05
315.15	0.14509	0	0.0006887	1.6e-05
315.15	0.16766	0	0.0006933	1.6e-05
315.15	0.19753	0	0.0006996	1.6e-05
305.15	0	0.0005	0.0007741	1.62e-05
305.15	0.0019	0.0005	0.0007754	1.62e-05
305.15	0.00394	0.0005	0.0007784	1.62e-05
305.15	0.00601	0.0005	0.0007818	1.62e-05
305.15	0.00809	0.0005	0.0007839	1.63e-05
305.15	0.01008	0.0005	0.0007862	1.63e-05
305.15	0.01959	0.0005	0.0007921	1.63e-05
305.15	0.0404	0.0005	0.0007986	1.63e-05
305.15	0.06073	0.0005	0.0008032	1.63e-05
305.15	0.07662	0.0005	0.0008067	1.63e-05
305.15	0.09914	0.0005	0.0008129	1.63e-05
305.15	0.11724	0.0005	0.0008186	1.64e-05
305.15	0.14936	0.0005	0.0008249	1.64e-05
305.15	0.1689	0.0005	0.0008293	1.64e-05
305.15	0.20337	0.0005	0.0008369	1.64e-05
310.15	0	0.0005	0.0007042	1.6e-05
310.15	0.0019	0.0005	0.0007069	1.6e-05
310.15	0.00394	0.0005	0.0007106	1.6e-05
310.15	0.00601	0.0005	0.0007116	1.6e-05
310.15	0.00809	0.0005	0.0007157	1.61e-05
310.15	0.01008	0.0005	0.0007163	1.61e-05
310.15	0.01959	0.0005	0.0007189	1.61e-05
310.15	0.0404	0.0005	0.0007316	1.61e-05
310.15	0.06073	0.0005	0.0007371	1.61e-05
310.15	0.07662	0.0005	0.0007386	1.61e-05
310.15	0.09914	0.0005	0.0007432	1.61e-05
310.15	0.11724	0.0005	0.0007472	1.61e-05
310.15	0.14936	0.0005	0.0007544	1.62e-05
310.15	0.1689	0.0005	0.0007578	1.62e-05
310.15	0.20337	0.0005	0.0007593	1.62e-05
315.15	0	0.0005	0.0006458	1.59e-05
315.15	0.0019	0.0005	0.0006509	1.59e-05
315.15	0.00394	0.0005	0.000656	1.59e-05
315.15	0.00601	0.0005	0.0006566	1.59e-05
315.15	0.00809	0.0005	0.0006577	1.59e-05
315.15	0.01008	0.0005	0.0006589	1.59e-05
315.15	0.01959	0.0005	0.000661	1.59e-05
315.15	0.0404	0.0005	0.0006686	1.59e-05
315.15	0.06073	0.0005	0.0006752	1.59e-05
315.15	0.07662	0.0005	0.0006795	1.6e-05
315.15	0.09914	0.0005	0.0006837	1.6e-05
315.15	0.11724	0.0005	0.0006864	1.6e-05
315.15	0.14936	0.0005	0.0006894	1.6e-05
315.15	0.1689	0.0005	0.0006901	1.6e-05
315.15	0.20337	0.0005	0.0006935	1.6e-05
305.15	0	0.001	0.0007672	1.62e-05
305.15	0.00201	0.001	0.0007725	1.62e-05
305.15	0.00396	0.001	0.0007735	1.62e-05
305.15	0.00599	0.001	0.0007765	1.62e-05
305.15	0.00797	0.001	0.0007784	1.62e-05
305.15	0.00992	0.001	0.0007825	1.62e-05
305.15	0.01996	0.001	0.0007874	1.63e-05
305.15	0.03974	0.001	0.0007884	1.63e-05
305.15	0.06008	0.001	0.0007886	1.63e-05
305.15	0.07997	0.001	0.0007908	1.63e-05
305.15	0.09968	0.001	0.0007927	1.63e-05
305.15	0.11931	0.001	0.0007959	1.63e-05
305.15	0.15084	0.001	0.0008019	1.63e-05
305.15	0.16978	0.001	0.0008043	1.63e-05
305.15	0.1986	0.001	0.0008098	1.63e-05
310.15	0	0.001	0.0007023	1.6e-05
310.15	0.00201	0.001	0.0007031	1.6e-05
310.15	0.00396	0.001	0.0007091	1.6e-05
310.15	0.00599	0.001	0.0007099	1.6e-05
310.15	0.00797	0.001	0.0007122	1.6e-05
310.15	0.00992	0.001	0.0007138	1.6e-05
310.15	0.01996	0.001	0.0007154	1.61e-05
310.15	0.03974	0.001	0.000718	1.61e-05
310.15	0.06008	0.001	0.0007194	1.61e-05
310.15	0.07997	0.001	0.0007212	1.61e-05
310.15	0.09968	0.001	0.0007244	1.61e-05
310.15	0.11931	0.001	0.0007261	1.61e-05
310.15	0.15084	0.001	0.0007308	1.61e-05
310.15	0.16978	0.001	0.0007332	1.61e-05
310.15	0.1986	0.001	0.0007377	1.61e-05
315.15	0	0.001	0.0006448	1.59e-05
315.15	0.00201	0.001	0.0006466	1.59e-05
315.15	0.00396	0.001	0.000649	1.59e-05
315.15	0.00599	0.001	0.0006491	1.59e-05
315.15	0.00797	0.001	0.0006522	1.59e-05
315.15	0.00992	0.001	0.0006551	1.59e-05
315.15	0.01996	0.001	0.0006567	1.59e-05
315.15	0.03974	0.001	0.0006602	1.59e-05
315.15	0.06008	0.001	0.000664	1.59e-05
315.15	0.07997	0.001	0.0006661	1.59e-05
315.15	0.09968	0.001	0.0006686	1.59e-05
315.15	0.11931	0.001	0.0006709	1.59e-05
315.15	0.15084	0.001	0.0006735	1.59e-05
315.15	0.16978	0.001	0.0006766	1.59e-05
315.15	0.1986	0.001	0.0006795	1.6e-05
305.15	0	0.002	0.0007708	1.62e-05
305.15	0.002	0.002	0.0007732	1.62e-05
305.15	0.00401	0.002	0.0007736	1.62e-05
305.15	0.00596	0.002	0.0007738	1.62e-05
305.15	0.008	0.002	0.0007768	1.62e-05
305.15	0.00998	0.002	0.0007776	1.62e-05
305.15	0.01968	0.002	0.0007837	1.63e-05
305.15	0.03909	0.002	0.0007887	1.63e-05
305.15	0.06042	0.002	0.000792	1.63e-05
305.15	0.08012	0.002	0.0007975	1.63e-05
305.15	0.09874	0.002	0.0008021	1.63e-05
305.15	0.12022	0.002	0.0008064	1.63e-05
305.15	0.1438	0.002	0.0008131	1.63e-05
305.15	0.16978	0.002	0.0008179	1.64e-05
305.15	0.19659	0.002	0.0008233	1.64e-05
310.15	0	0.002	0.0007032	1.6e-05
310.15	0.002	0.002	0.0007037	1.6e-05
310.15	0.00401	0.002	0.0007047	1.6e-05
310.15	0.00596	0.002	0.0007069	1.6e-05
310.15	0.008	0.002	0.0007085	1.6e-05
310.15	0.00998	0.002	0.0007087	1.6e-05
310.15	0.01968	0.002	0.0007124	1.6e-05
310.15	0.03909	0.002	0.0007175	1.61e-05
310.15	0.06042	0.002	0.0007224	1.61e-05
310.15	0.08012	0.002	0.0007277	1.61e-05
310.15	0.09874	0.002	0.0007299	1.61e-05
310.15	0.12022	0.002	0.0007329	1.61e-05
310.15	0.1438	0.002	0.0007368	1.61e-05
310.15	0.16978	0.002	0.0007398	1.61e-05
310.15	0.19659	0.002	0.0007457	1.61e-05
315.15	0	0.002	0.0006469	1.59e-05
315.15	0.002	0.002	0.000647	1.59e-05
315.15	0.00401	0.002	0.0006479	1.59e-05
315.15	0.00596	0.002	0.0006489	1.59e-05
315.15	0.008	0.002	0.0006492	1.59e-05
315.15	0.00998	0.002	0.0006504	1.59e-05
315.15	0.01968	0.002	0.0006552	1.59e-05
315.15	0.03909	0.002	0.0006595	1.59e-05
315.15	0.06042	0.002	0.0006629	1.59e-05
315.15	0.08012	0.002	0.0006654	1.59e-05
315.15	0.09874	0.002	0.0006697	1.59e-05
315.15	0.12022	0.002	0.0006733	1.59e-05
315.15	0.1438	0.002	0.0006776	1.59e-05
315.15	0.16978	0.002	0.0006854	1.6e-05
315.15	0.19659	0.002	0.0006898	1.6e-05

System: N-acetylglycine + water; phases: Liquid
Fixed: Pressure, kPa = 101
Property: Mass density, kg/m3 (Liquid); method: Vibrating tube method
Temperature, K	Molality, mol/kg of N-acetylglycine	Mass density, kg/m3	uncertainty
305.15	0.002	995.152	0.166
305.15	0.00402	995.215	0.166
305.15	0.00601	995.276	0.166
305.15	0.00798	995.336	0.166
305.15	0.01012	995.4	0.166
305.15	0.0191	995.672	0.166
305.15	0.03981	996.296	0.166
305.15	0.05696	996.805	0.166
305.15	0.07873	997.444	0.166
305.15	0.09966	998.049	0.165
305.15	0.11991	998.626	0.165
305.15	0.14509	999.331	0.165
305.15	0.16766	999.952	0.165
305.15	0.19753	1000.761	0.166
310.15	0.002	993.465	0.167
310.15	0.00402	993.528	0.167
310.15	0.00601	993.589	0.167
310.15	0.00798	993.648	0.167
310.15	0.01012	993.712	0.167
310.15	0.0191	993.984	0.167
310.15	0.03981	994.606	0.166
310.15	0.05696	995.114	0.166
310.15	0.07873	995.751	0.166
310.15	0.09966	996.356	0.166
310.15	0.11991	996.933	0.166
310.15	0.14509	997.635	0.166
310.15	0.16766	998.255	0.166
310.15	0.19753	999.061	0.165
315.15	0.002	991.572	0.167
315.15	0.00402	991.634	0.167
315.15	0.00601	991.694	0.167
315.15	0.00798	991.754	0.167
315.15	0.01012	991.818	0.167
315.15	0.0191	992.087	0.167
315.15	0.03981	992.703	0.167
315.15	0.05696	993.208	0.167
315.15	0.07873	993.837	0.167
315.15	0.09966	994.437	0.167
315.15	0.11991	995.009	0.166
315.15	0.14509	995.705	0.166
315.15	0.16766	996.32	0.166
315.15	0.19753	997.122	0.166

System: N-acetylglycine + water; phases: Liquid
Fixed: Pressure, kPa = 101
Fixed: Frequency, MHz = 3
Property: Speed of sound, m/s (Liquid); method: Sing-around technique in a fixed-path interferometer
Temperature, K	Molality, mol/kg of N-acetylglycine	Speed of sound, m/s	uncertainty
305.15	0.002	1513.88	1.2
305.15	0.00402	1513.93	1.2
305.15	0.00601	1514.09	1.2
305.15	0.00798	1514.14	1.2
305.15	0.01012	1514.29	1.2
305.15	0.0191	1514.49	1.2
305.15	0.03981	1515.71	1.2
305.15	0.05696	1516.2	1.2
305.15	0.07873	1516.38	1.2
305.15	0.09966	1517.58	1.2
305.15	0.11991	1517.87	1.2
305.15	0.14509	1519.01	1.2
305.15	0.16766	1519.45	1.2
305.15	0.19753	1520.58	1.2
310.15	0.002	1523.69	1.2
310.15	0.00402	1523.85	1.2
310.15	0.00601	1523.99	1.2
310.15	0.00798	1524.03	1.2
310.15	0.01012	1524.13	1.2
310.15	0.0191	1524.42	1.2
310.15	0.03981	1525.51	1.2
310.15	0.05696	1525.94	1.2
310.15	0.07873	1526.15	1.2
310.15	0.09966	1527.23	1.2
310.15	0.11991	1527.41	1.2
310.15	0.14509	1528.41	1.2
310.15	0.16766	1528.8	1.2
310.15	0.19753	1529.78	1.2
315.15	0.002	1532.15	1.2
315.15	0.00402	1532.2	1.2
315.15	0.00601	1532.29	1.2
315.15	0.00798	1532.46	1.2
315.15	0.01012	1532.53	1.2
315.15	0.0191	1532.54	1.2
315.15	0.03981	1533.45	1.2
315.15	0.05696	1533.86	1.2
315.15	0.07873	1534.4	1.21
315.15	0.09966	1535.08	1.2
315.15	0.11991	1535.33	1.21
315.15	0.14509	1536.03	1.2
315.15	0.16766	1536.67	1.21
315.15	0.19753	1537.26	1.2

System: N-acetylglycine + water; phases: Liquid
Fixed: Pressure, kPa = 101
Property: Viscosity, Pa*s (Liquid); method: Falling or rolling sphere viscometry
Temperature, K	Molality, mol/kg of N-acetylglycine	Viscosity, Pa*s	uncertainty
305.15	0.002	0.0007912	1.63e-05
305.15	0.00402	0.0007987	1.63e-05
305.15	0.00601	0.0008032	1.63e-05
305.15	0.00798	0.0008098	1.63e-05
305.15	0.01012	0.0008102	1.63e-05
305.15	0.0191	0.0008162	1.64e-05
305.15	0.03981	0.0008254	1.64e-05
305.15	0.05696	0.0008325	1.64e-05
305.15	0.07873	0.0008398	1.64e-05
305.15	0.09966	0.0008466	1.65e-05
305.15	0.11991	0.0008523	1.65e-05
305.15	0.14509	0.0008583	1.65e-05
305.15	0.16766	0.0008641	1.65e-05
305.15	0.19753	0.0008721	1.65e-05
310.15	0.002	0.0007079	1.6e-05
310.15	0.00402	0.0007201	1.61e-05
310.15	0.00601	0.0007298	1.61e-05
310.15	0.00798	0.0007307	1.61e-05
310.15	0.01012	0.0007321	1.61e-05
310.15	0.0191	0.0007345	1.61e-05
310.15	0.03981	0.0007372	1.61e-05
310.15	0.05696	0.0007401	1.61e-05
310.15	0.07873	0.0007443	1.61e-05
310.15	0.09966	0.0007473	1.61e-05
310.15	0.11991	0.0007499	1.62e-05
310.15	0.14509	0.0007554	1.62e-05
310.15	0.16766	0.0007603	1.62e-05
310.15	0.19753	0.0007654	1.62e-05
315.15	0.002	0.0006523	1.59e-05
315.15	0.00402	0.0006594	1.59e-05
315.15	0.00601	0.0006613	1.59e-05
315.15	0.00798	0.0006623	1.59e-05
315.15	0.01012	0.0006627	1.59e-05
315.15	0.0191	0.0006658	1.59e-05
315.15	0.03981	0.0006685	1.59e-05
315.15	0.05696	0.0006724	1.59e-05
315.15	0.07873	0.0006751	1.59e-05
315.15	0.09966	0.0006785	1.6e-05
315.15	0.11991	0.0006822	1.6e-05
315.15	0.14509	0.0006887	1.6e-05
315.15	0.16766	0.0006933	1.6e-05
315.15	0.19753	0.0006996	1.6e-05

System: water + amoxicillin; phases: Liquid
Fixed: Pressure, kPa = 101
Property: Mass density, kg/m3 (Liquid); method: Vibrating tube method
Temperature, K	Molality, mol/kg of amoxicillin	Mass density, kg/m3	uncertainty
305.15	0.0005	995.095	0.166
310.15	0.0005	993.397	0.167
315.15	0.0005	991.504	0.167
305.15	0.001	995.124	0.166
310.15	0.001	993.428	0.167
315.15	0.001	991.541	0.167
305.15	0.002	995.253	0.166
310.15	0.002	993.563	0.167
315.15	0.002	991.666	0.167

System: water + amoxicillin; phases: Liquid
Fixed: Pressure, kPa = 101
Fixed: Frequency, MHz = 3
Property: Speed of sound, m/s (Liquid); method: Sing-around technique in a fixed-path interferometer
Temperature, K	Molality, mol/kg of amoxicillin	Speed of sound, m/s	uncertainty
305.15	0.0005	1513.48	1.2
310.15	0.0005	1523.54	1.2
315.15	0.0005	1531.98	1.21
305.15	0.001	1513.74	1.2
310.15	0.001	1523.9	1.2
315.15	0.001	1532.1	1.2
305.15	0.002	1513.83	1.2
310.15	0.002	1524.02	1.2
315.15	0.002	1532.46	1.21

System: water + amoxicillin; phases: Liquid
Fixed: Pressure, kPa = 101
Property: Viscosity, Pa*s (Liquid); method: Falling or rolling sphere viscometry
Temperature, K	Molality, mol/kg of amoxicillin	Viscosity, Pa*s	uncertainty
305.15	0.0005	0.0007741	1.62e-05
310.15	0.0005	0.0007042	1.6e-05
315.15	0.0005	0.0006458	1.59e-05
305.15	0.001	0.0007672	1.62e-05
310.15	0.001	0.0007023	1.6e-05
315.15	0.001	0.0006448	1.59e-05
305.15	0.002	0.0007708	1.62e-05
310.15	0.002	0.0007032	1.6e-05
315.15	0.002	0.0006469	1.59e-05
