Measured thermophysical data. Calorimetric studies on two halogenated uracil isomers
Source: Thermochim. Acta, 2016, 10.1016/j.tca.2016.04.013
Compound 1: 6-chlorouracil, C4H3ClN2O2, InChI=1S/C4H3ClN2O2/c5-2-1-3(8)7-4(9)6-2/h1H,(H2,6,7,8,9), purity 99%
Compound 2: 5-chloro-2,4-pyrimidinedione, C4H3ClN2O2, InChI=1S/C4H3ClN2O2/c5-2-1-6-4(9)7-3(2)8/h1H,(H2,6,7,8,9), purity 99%

System: 6-chlorouracil; phases: Crystal
Fixed: Pressure, kPa = 101.325
Property: Molar heat capacity at constant pressure, J/K/mol (Crystal); method: RELAXCAL
Temperature, K	Molar heat capacity at constant pressure, J/K/mol	uncertainty
1.93	0.0182	0.0015
2.15	0.0242	0.0019
2.38	0.0322	0.0024
2.65	0.043	0.0032
2.95	0.0584	0.0042
3.27	0.0782	0.0056
3.63	0.103	0.007
4.04	0.139	0.01
4.48	0.186	0.013
4.98	0.247	0.017
5.52	0.332	0.023
6.12	0.436	0.031
6.79	0.58	0.04
7.53	0.771	0.054
8.35	1.02	0.07
9.26	1.35	0.09
10.25	1.77	0.12
11.34	2.31	0.16
12.58	3.02	0.21
13.97	3.91	0.27
15.49	4.99	0.35
17.19	6.32	0.44
19.09	7.91	0.55
21.19	9.7	0.39
23.51	11.78	0.48
26.09	14.1	0.57
28.91	16.74	0.68
32.12	19.59	0.8
35.65	22.58	0.92
39.54	25.93	1.05
43.88	29.29	1.19
48.68	32.81	1.33
54.02	36.6	1.5
59.94	40.61	1.65
66.52	44.81	1.82
73.83	48.95	1.99
81.96	53.22	2.16
90.91	57.53	2.34
100.89	61.78	2.51
111.04	66.68	2.71
121.13	70.82	2.88
131.15	74.92	3.04
141.29	78.76	3.2
151.38	82.6	3.4
161.47	86.43	3.51
171.56	90.19	3.66
181.61	94.08	3.82
191.69	97.83	3.97
201.81	101.23	4.11
211.89	105.16	4.27
222	108.99	4.43
232.08	112.88	4.59
242.1	116.48	4.73
252.19	120.07	4.88
262.33	123.73	5.03
272.41	127.71	5.19
282.41	131.41	5.34
292.56	134.98	5.48
302.57	138.3	5.62

System: 6-chlorouracil; phases: Crystal
Fixed: Pressure, kPa = 101.325
Property: Molar heat capacity at constant pressure, J/K/mol (Crystal); method: RELAXCAL
Temperature, K	Molar heat capacity at constant pressure, J/K/mol	uncertainty
0.5	0.00126	0.00027
1	0.00405	0.00039
2	0.0203	0.0015
3	0.0602	0.0043
4	0.135	0.01
5	0.252	0.018
6	0.415	0.029
7	0.631	0.044
8	0.908	0.064
9	1.25	0.09
10	1.66	0.12
15	4.63	0.32
20	8.68	0.35
25	13.17	0.54
30	17.67	0.72
35	22.04	0.9
40	26.22	1.07
45	30.18	1.23
50	33.87	1.38
60	40.68	1.65
70	46.77	1.9
80	52.2	2.12
90	57.15	2.32
100	61.75	2.51
110	66.1	2.69
120	70.26	2.85
130	74.29	3.02
140	78.22	3.18
150	82.08	3.33
160	85.89	3.49
170	89.66	3.64
180	93.41	3.79
190	97.14	3.95
200	100.85	4.1
210	104.56	4.25
220	108.26	4.4
230	111.96	4.55
240	115.64	4.7
250	119.33	4.85
260	123	5
270	126.67	5.15
273.15	127.82	5.19
280	130.33	5.29
290	133.98	5.44
298.15	136.94	5.56
300	137.62	5.59

System: 6-chlorouracil; phases: Crystal
Fixed: Pressure, kPa = 101.325
Property: Molar entropy, J/K/mol (Crystal); method: RELAXCAL
Temperature, K	Molar entropy, J/K/mol	uncertainty
0.5	0.00109	0.00016
1	0.00269	0.0003
2	0.00944	0.00101
3	0.0242	0.0026
4	0.0508	0.0054
5	0.0926	0.0097
6	0.152	0.016
7	0.232	0.024
8	0.333	0.035
9	0.459	0.048
10	0.612	0.064
15	1.8	0.19
20	3.67	0.22
25	6.08	0.37
30	8.88	0.54
35	11.94	0.73
40	15.15	0.92
45	18.47	1.13
50	21.85	1.33
60	28.63	1.74
70	35.37	2.16
80	41.97	2.56
90	48.41	2.95
100	54.67	3.33
110	60.76	3.7
120	66.7	4.06
130	72.48	4.42
140	78.13	4.76
150	83.66	5.1
160	89.08	5.43
170	94.4	5.75
180	99.63	6.07
190	104.78	6.38
200	109.85	6.69
210	114.86	7
220	119.81	7.3
230	124.71	7.6
240	129.55	7.89
250	134.35	8.19
260	139.1	8.48
270	143.81	8.76
273.15	145.28	8.85
280	148.48	9.05
290	153.12	9.33
298.15	156.87	9.56
300	157.72	9.61

System: 6-chlorouracil; phases: Crystal
Fixed: Pressure, kPa = 101.325
Property: Molar enthalpy, kJ/mol (Crystal); method: RELAXCAL
Temperature, K	Molar enthalpy, kJ/mol	uncertainty
0.5	2.83e-07	1.6e-07
1	1.52e-06	2e-07
2	1.22e-05	1e-06
3	4.99e-05	3.7e-06
4	0.000144	1e-05
5	0.000334	2.4e-05
6	0.000663	4.7e-05
7	0.00118	8e-05
8	0.00195	0.00014
9	0.00302	0.00021
10	0.00447	0.00031
15	0.0196	0.0014
20	0.0526	0.0021
25	0.107	0.004
30	0.184	0.008
35	0.284	0.012
40	0.404	0.016
45	0.545	0.022
50	0.706	0.029
60	1.08	0.04
70	1.52	0.06
80	2.01	0.08
90	2.56	0.1
100	3.15	0.13
110	3.79	0.15
120	4.48	0.18
130	5.2	0.21
140	5.96	0.24
150	6.76	0.27
160	7.6	0.31
170	8.48	0.34
180	9.4	0.38
190	10.35	0.42
200	11.34	0.46
210	12.37	0.5
220	13.43	0.55
230	14.53	0.59
240	15.67	0.64
250	16.84	0.68
260	18.06	0.73
270	19.3	0.78
273.15	19.7	0.8
280	20.59	0.84
290	21.91	0.89
298.15	23.01	0.93
300	23.27	0.95

System: 5-chloro-2,4-pyrimidinedione; phases: Crystal
Fixed: Pressure, kPa = 101.325
Property: Molar heat capacity at constant pressure, J/K/mol (Crystal); method: RELAXCAL
Temperature, K	Molar heat capacity at constant pressure, J/K/mol	uncertainty
2.04	0.0119	0.001
2.26	0.0165	0.0013
2.51	0.0224	0.0017
2.79	0.0297	0.0022
3.1	0.0407	0.003
3.44	0.0549	0.0039
3.82	0.0739	0.0053
4.24	0.101	0.007
4.71	0.138	0.01
5.24	0.188	0.013
5.81	0.257	0.018
6.44	0.35	0.025
7.17	0.479	0.034
7.91	0.649	0.045
8.78	0.878	0.061
9.74	1.19	0.08
10.81	1.59	0.11
11.99	2.14	0.15
13.31	2.79	0.19
14.74	3.64	0.25
16.35	4.68	0.33
18.13	6.06	0.42
20.12	7.49	0.3
22.32	9.36	0.38
24.77	11.49	0.47
27.49	13.93	0.57
30.5	16.6	0.67
33.86	19.52	0.79
37.57	22.81	0.93
41.69	26.3	1.07
46.26	29.88	1.21
51.34	34.08	1.38
56.96	37.64	1.53
63.23	41.77	1.7
70.19	45.99	1.87
77.89	50.5	2.1
86.44	54.98	2.23
95.96	59.39	2.41
106.02	64.02	2.6
116.12	68.52	2.78
126.18	72.83	2.96
136.3	76.98	3.13
146.41	80.91	3.29
156.52	84.91	3.45
166.6	89.11	3.62
176.69	92.91	3.77
186.77	96.98	3.94
196.85	100.43	4.08
206.94	104.46	4.24
217.03	107.97	4.39
227.26	112.17	4.56
234.67	114.85	4.67
244.74	118.78	4.82
254.84	122.35	4.97
264.91	125.73	5.11
275	129.5	5.26
285.08	132.72	5.39
295.37	136.73	5.55
302.71	140.1	5.69

System: 5-chloro-2,4-pyrimidinedione; phases: Crystal
Fixed: Pressure, kPa = 101.325
Property: Molar heat capacity at constant pressure, J/K/mol (Crystal); method: RELAXCAL
Temperature, K	Molar heat capacity at constant pressure, J/K/mol	uncertainty
0.5	0.000485	0.000152
1	0.00194	0.00021
2	0.0116	0.0009
3	0.0367	0.0027
4	0.085	0.0061
5	0.164	0.012
6	0.282	0.02
7	0.446	0.031
8	0.665	0.047
9	0.945	0.066
10	1.28	0.09
15	3.81	0.27
20	7.44	0.3
25	11.69	0.48
30	16.14	0.66
35	20.57	0.84
40	24.87	1.01
45	28.97	1.18
50	32.81	1.33
60	39.81	1.62
70	45.98	1.87
80	51.52	2.09
90	56.6	2.3
100	61.33	2.49
110	65.83	2.67
120	70.16	2.85
130	74.35	3.02
140	78.45	3.19
150	82.47	3.35
160	86.42	3.51
170	90.33	3.67
180	94.19	3.83
190	98.02	3.98
200	101.81	4.14
210	105.58	4.29
220	109.32	4.44
230	113.04	4.59
240	116.74	4.74
250	120.42	4.89
260	124.08	5.04
270	127.73	5.19
273.15	128.88	5.24
280	131.37	5.34
290	135	5.48
298.15	137.95	5.6
300	138.62	5.63

System: 5-chloro-2,4-pyrimidinedione; phases: Crystal
Fixed: Pressure, kPa = 101.325
Property: Molar entropy, J/K/mol (Crystal); method: RELAXCAL
Temperature, K	Molar entropy, J/K/mol	uncertainty
0.5	0.000378	7e-05
1	0.00108	0.00013
2	0.00473	0.00051
3	0.0135	0.0014
4	0.0301	0.0032
5	0.0569	0.006
6	0.0966	0.0101
7	0.152	0.016
8	0.225	0.024
9	0.319	0.033
10	0.435	0.046
15	1.39	0.15
20	2.96	0.18
25	5.07	0.31
30	7.59	0.46
35	10.42	0.64
40	13.44	0.82
45	16.61	1.01
50	19.87	1.21
60	26.48	1.61
70	33.09	2.02
80	39.6	2.41
90	45.96	2.8
100	52.17	3.18
110	58.23	3.55
120	64.15	3.91
130	69.93	4.26
140	75.59	4.61
150	81.14	4.94
160	86.59	5.28
170	91.94	5.6
180	97.22	5.92
190	102.41	6.24
200	107.53	6.55
210	112.59	6.86
220	117.59	7.16
230	122.53	7.47
240	127.42	7.76
250	132.26	8.06
260	137.06	8.35
270	141.81	8.64
273.15	143.3	8.73
280	146.52	8.93
290	151.19	9.21
298.15	154.97	9.44
300	155.83	9.49

System: 5-chloro-2,4-pyrimidinedione; phases: Crystal
Fixed: Pressure, kPa = 101.325
Property: Molar enthalpy, kJ/mol (Crystal); method: RELAXCAL
Temperature, K	Molar enthalpy, kJ/mol	uncertainty
0.5	1.01e-07	8.5e-08
1	6.46e-07	1e-07
2	6.45e-06	5.3e-07
3	2.9e-05	2.2e-06
4	8.76e-05	6.4e-06
5	0.000209	1.5e-05
6	0.000429	3e-05
7	0.000789	5.6e-05
8	0.00134	9e-05
9	0.00214	0.00015
10	0.00325	0.00023
15	0.0154	0.0011
20	0.0432	0.0018
25	0.0909	0.0037
30	0.16	0.007
35	0.252	0.01
40	0.366	0.015
45	0.501	0.02
50	0.655	0.027
60	1.02	0.04
70	1.45	0.06
80	1.94	0.08
90	2.48	0.1
100	3.07	0.12
110	3.7	0.15
120	4.38	0.18
130	5.11	0.21
140	5.87	0.24
150	6.67	0.27
160	7.52	0.31
170	8.4	0.34
180	9.33	0.38
190	10.29	0.42
200	11.29	0.46
210	12.32	0.5
220	13.4	0.54
230	14.51	0.59
240	15.66	0.64
250	16.84	0.68
260	18.07	0.73
270	19.33	0.79
273.15	19.73	0.8
280	20.62	0.84
290	21.95	0.89
298.15	23.07	0.94
300	23.32	0.95
