Measured thermophysical data. Liquid phase vapor pressure measurement and thermodynamics assessment of the Hg In binary system
Source: Thermochim. Acta, 2009, 10.1016/j.tca.2009.02.020
Compound 1: mercury, Hg, InChI=1S/Hg, purity 99.99%
Compound 2: indium, In, InChI=1S/In, purity 99.99%

System: mercury + indium; phases: Liquid, Gas
Property: Vapor or sublimation pressure, kPa (Liquid); method: Manometric method
Mole fraction of mercury	Temperature, K	Vapor or sublimation pressure, kPa	uncertainty
0.0314	600	0.411	0.101
0.0314	625	0.702	0.102
0.0314	650	1.15	0.103
0.0314	675	1.818	0.105
0.0314	700	2.779	0.108
0.0314	725	4.127	0.112
0.0314	750	5.969	0.118
0.0314	775	8.431	0.125
0.0314	800	11.653	0.135
0.0314	825	15.793	0.147
0.0314	850	21.025	0.163
0.0314	875	27.537	0.183
0.0314	900	35.528	0.207
0.0314	925	45.212	0.236
0.0314	945	54.327	0.263
0.0506	520	0.093	0.1
0.0506	545	0.188	0.101
0.0506	570	0.358	0.101
0.0506	595	0.645	0.102
0.0506	620	1.111	0.103
0.0506	645	1.833	0.106
0.0506	670	2.913	0.109
0.0506	695	4.479	0.113
0.0506	720	6.683	0.12
0.0506	745	9.708	0.129
0.0506	770	13.765	0.141
0.0506	795	19.092	0.157
0.0506	820	25.959	0.178
0.0506	845	34.659	0.204
0.0506	890	55.975	0.268
0.06945	565	0.471	0.101
0.06945	590	0.857	0.103
0.06945	615	1.484	0.104
0.06945	640	2.461	0.107
0.06945	665	3.93	0.112
0.06945	690	6.067	0.118
0.06945	715	9.085	0.127
0.06945	740	13.239	0.14
0.06945	765	18.822	0.157
0.06945	790	26.172	0.179
0.06945	815	35.662	0.207
0.06945	840	47.707	0.243
0.06945	865	62.756	0.288
0.06945	890	81.289	0.344
0.06945	910	98.968	0.397
0.1002	516	0.195	0.101
0.1002	541	0.397	0.101
0.1002	566	0.757	0.102
0.1002	591	1.369	0.104
0.1002	616	2.357	0.107
0.1002	641	3.89	0.112
0.1002	666	6.184	0.119
0.1002	691	9.506	0.129
0.1002	716	14.181	0.143
0.1002	741	20.592	0.162
0.1002	766	29.182	0.188
0.1002	791	40.452	0.222
0.1002	816	54.965	0.265
0.1002	841	73.336	0.32
0.1002	850	81.021	0.343
0.2008	523	0.642	0.102
0.2008	548	1.262	0.104
0.2008	573	2.341	0.107
0.2008	598	4.123	0.112
0.2008	623	6.939	0.121
0.2008	648	11.217	0.134
0.2008	673	17.499	0.153
0.2008	698	26.441	0.18
0.2008	723	38.83	0.217
0.3002	470	0.243	0.101
0.3002	495	0.551	0.102
0.3002	520	1.155	0.103
0.3002	545	2.261	0.107
0.3002	570	4.173	0.113
0.3002	595	7.315	0.122
0.3002	620	12.256	0.137
0.3002	645	19.728	0.159
0.3002	670	30.647	0.192
0.3002	695	46.125	0.239
0.4001	465	0.35	0.101
0.4001	490	0.797	0.102
0.4001	515	1.675	0.105
0.4001	540	3.287	0.11
0.4001	565	6.076	0.118
0.4001	590	10.663	0.132
0.4001	615	17.877	0.154
0.4001	640	28.784	0.187
0.4001	665	44.716	0.235
0.4001	690	67.284	0.303
0.4001	715	98.39	0.396
0.4502	465	0.439	0.101
0.4502	490	0.995	0.103
0.4502	515	2.083	0.106
0.4502	540	4.071	0.112
0.4502	565	7.499	0.123
0.4502	590	13.117	0.139
0.4502	615	21.925	0.166
0.4502	640	35.206	0.206
0.4502	665	54.552	0.264
0.5001	460	0.452	0.101
0.5001	485	1.039	0.103
0.5001	510	2.198	0.107
0.5001	535	4.336	0.113
0.5001	560	8.051	0.124
0.5001	585	14.179	0.143
0.5001	610	23.839	0.172
0.5001	635	38.474	0.216
0.5001	660	59.882	0.28
0.5001	685	90.241	0.372
0.5501	480	1.077	0.103
0.5501	505	2.299	0.107
0.5501	530	4.572	0.114
0.5501	555	8.544	0.126
0.5501	580	15.13	0.146
0.5501	605	25.556	0.177
0.5501	630	41.409	0.225
0.5501	655	64.667	0.295
0.5501	680	97.733	0.394
0.6	480	1.279	0.104
0.6	505	2.718	0.108
0.6	530	5.382	0.116
0.6	555	10.02	0.13
0.6	580	17.683	0.153
0.6	605	29.773	0.19
0.6	630	48.1	0.245
0.6	655	74.914	0.325
0.6989	470	1.241	0.104
0.6989	495	2.704	0.108
0.6989	520	5.467	0.116
0.6989	545	10.361	0.131
0.6989	570	18.564	0.156
0.6989	595	31.673	0.195
0.6989	620	51.758	0.256
0.6989	645	81.421	0.345
0.6989	670	123.826	0.473
0.8006	470	1.572	0.105
0.8006	495	3.407	0.11
0.8006	520	6.856	0.121
0.8006	545	12.938	0.139
0.8006	570	23.092	0.17
0.8006	595	39.258	0.218
0.8006	620	63.946	0.293
0.8006	645	100.292	0.402
0.8249	480	2.274	0.107
0.8249	505	4.772	0.114
0.8249	530	9.341	0.128
0.8249	555	17.21	0.152
0.8249	580	30.082	0.191
0.8249	605	50.208	0.251
0.8249	630	80.46	0.342
0.85	460	1.243	0.104
0.85	485	2.779	0.108
0.85	510	5.744	0.117
0.85	535	11.091	0.133
0.85	560	20.195	0.161
0.85	585	34.936	0.205
0.85	610	57.781	0.274
0.875	460	1.299	0.104
0.875	485	2.902	0.109
0.875	510	5.992	0.118
0.875	535	11.564	0.135
0.875	560	21.045	0.163
0.875	585	36.387	0.21
0.875	610	60.153	0.281
0.8998	470	1.902	0.106
0.8998	495	4.109	0.112
0.8998	520	8.244	0.125
0.8998	545	15.518	0.147
0.8998	570	27.631	0.183
0.8998	595	46.873	0.241
0.8998	620	76.196	0.329

System: mercury + indium; phases: Liquid, Gas
Property: Vapor or sublimation pressure, kPa (Liquid); method: Manometric method
Mole fraction of mercury	Temperature, K	Vapor or sublimation pressure, kPa	uncertainty
0.0314	601.6	0.27	0.1
0.0314	631.6	0.83	0.1
0.0314	670.1	1.7	0.11
0.0314	708.2	3.16	0.11
0.0314	749.3	5.87	0.12
0.0314	788.9	10.13	0.13
0.0314	813	13.665	0.141
0.0314	840.8	19	0.16
0.0314	868	25.53	0.18
0.0314	903.8	36.93	0.21
0.0314	941.9	52.8	0.26
0.0506	519.2	0.16	0.1
0.0506	560.8	0.37	0.1
0.0506	637.3	1.47	0.1
0.0506	685.4	3.8	0.11
0.0506	719.6	6.73	0.12
0.0506	754.1	11.06	0.13
0.0506	787	17.26	0.15
0.0506	818.1	25.34	0.18
0.0506	821.1	26.26	0.18
0.0506	886.9	54.26	0.26
0.0695	565.6	0.53	0.1
0.0695	599.8	1.2	0.1
0.0695	611.3	1.37	0.1
0.0695	685.1	5.47	0.12
0.0695	717	9.4	0.13
0.0695	754	16.2	0.15
0.0695	821	38.33	0.22
0.0695	853	55.13	0.27
0.0695	886	78	0.33
0.0695	909.9	98.04	0.39
0.1002	516.2	0.19	0.1
0.1002	552.5	0.6	0.1
0.1002	562.4	0.73	0.1
0.1002	590	1.46	0.1
0.1002	597.5	1.53	0.1
0.1002	622.8	2.67	0.11
0.1002	652.1	4.93	0.11
0.1002	683.3	8.33	0.13
0.1002	712.8	13.6	0.14
0.1002	743.3	21.2	0.16
0.1002	775.1	32.93	0.2
0.1002	801.1	45.86	0.24
0.1002	823.1	59.73	0.28
0.1002	850	81.06	0.34
0.2008	523.7	0.53	0.1
0.2008	558.7	1.53	0.1
0.2008	591.7	3.73	0.11
0.2008	622.2	6.8	0.12
0.2008	655.3	12.73	0.14
0.2008	684.1	21.06	0.16
0.2008	713	33.4	0.2
0.2008	734	45.6	0.24
0.2008	753.9	60.4	0.28
0.2008	771	75.73	0.33
0.2008	790	96.39	0.39
0.3002	471.9	0.27	0.1
0.3002	504.4	0.7	0.1
0.3002	522.3	1.26	0.1
0.3002	544.4	2.13	0.11
0.3002	564.1	3.73	0.11
0.3002	582.7	5.47	0.12
0.3002	603.9	8.58	0.13
0.3002	624	13.26	0.14
0.3002	647	20.46	0.16
0.3002	673	30.84	0.19
0.3002	695	46.13	0.24
0.4001	466.6	0.39	0.1
0.4001	527.4	2.33	0.11
0.4001	543.9	3.53	0.11
0.4001	565.2	6.07	0.12
0.4001	582.4	8.93	0.13
0.4001	603.9	14.33	0.14
0.4001	622.9	20.93	0.16
0.4001	642	29.86	0.19
0.4001	662.9	43.26	0.23
0.4001	679.1	56.4	0.27
0.4001	694	71.66	0.32
0.4001	705	84.79	0.36
0.4001	715	98.39	0.4
0.4502	461.5	0.43	0.1
0.4502	470.3	0.6	0.1
0.4502	482.7	0.67	0.1
0.4502	488.8	0.97	0.1
0.4502	520.1	2.4	0.11
0.4502	524.6	2.67	0.11
0.4502	532.5	3.2	0.11
0.4502	546.6	4.73	0.11
0.4502	554.9	5.93	0.12
0.4502	568.7	8.26	0.12
0.4502	570.5	8.4	0.13
0.4502	601.1	16.53	0.15
0.4502	637.8	34	0.2
0.4502	640	35.2	0.21
0.4502	673	62.26	0.29
0.5001	462	0.53	0.1
0.5001	488.2	1.33	0.1
0.5001	510.8	2.13	0.11
0.5001	526.1	3.33	0.11
0.5001	541.5	5.07	0.12
0.5001	557.8	7.73	0.12
0.5001	576.1	11.67	0.14
0.5001	594.2	17.2	0.15
0.5001	610.9	24.39	0.17
0.5001	629	34.46	0.2
0.5001	645	46.13	0.24
0.5001	663.1	62.93	0.29
0.5001	687.9	94.53	0.38
0.5501	479.3	0.97	0.1
0.5501	493.8	1.73	0.11
0.5501	512.7	3	0.11
0.5501	549.8	7.6	0.12
0.5501	572.3	12.66	0.14
0.5501	603.2	24.53	0.17
0.5501	616	31.8	0.2
0.5501	636	46.26	0.24
0.5501	640	49.73	0.25
0.5501	671	84.53	0.35
0.5501	680	97.72	0.39
0.6	483.7	1.4	0.1
0.6	502.4	2.4	0.11
0.6	519.4	3.87	0.11
0.6	538.6	6.8	0.12
0.6	553.8	9.8	0.13
0.6	570.7	14.53	0.14
0.6	590.2	21.86	0.17
0.6	606	30.39	0.19
0.6	624.9	43.86	0.23
0.6	643.1	60.79	0.28
0.6	659	80.39	0.34
0.6	669	94.59	0.38
0.6989	478.2	1.73	0.11
0.6989	500	3.13	0.11
0.6989	514.3	4.8	0.11
0.6989	532.3	7.47	0.12
0.6989	550.8	12	0.14
0.6989	569.1	18.13	0.15
0.6989	588.3	27.33	0.18
0.6989	604	37.99	0.21
0.6989	622.9	54.79	0.27
0.6989	638.9	73.33	0.32
0.6989	654	95.05	0.39
0.8006	482.4	2.13	0.11
0.8006	500	3.8	0.11
0.8006	516.6	6.13	0.12
0.8006	536.4	10.33	0.13
0.8006	551.1	14.93	0.15
0.8006	567.8	22.13	0.17
0.8006	584	31.26	0.19
0.8006	602	45.2	0.24
0.8006	620	63.94	0.29
0.8006	627	72.79	0.32
0.8006	633	81.19	0.34
0.8249	459.2	1.13	0.1
0.8249	472.2	1.4	0.1
0.8249	492	3.4	0.11
0.8249	506.7	5.06	0.12
0.8249	528.2	8.86	0.13
0.8249	547.9	14.6	0.14
0.8249	558.3	18.4	0.16
0.8249	573	25.86	0.18
0.8249	575	27	0.18
0.8249	587	34.86	0.21
0.8249	588.9	36.4	0.21
0.8249	605	50.2	0.25
0.8249	617.9	63.79	0.29
0.85	464.9	1.59	0.1
0.85	469.7	1.67	0.11
0.85	470.1	1.87	0.11
0.85	471.7	2	0.11
0.85	495.7	3.73	0.11
0.85	508.7	5.6	0.12
0.85	523.5	8.4	0.13
0.85	541.6	12.8	0.14
0.85	569	24.73	0.17
0.85	571	25.86	0.18
0.85	603	50.4	0.25
0.85	620	69.86	0.31
0.85	621	72.26	0.32
0.875	470.5	1.67	0.11
0.875	491.3	3.6	0.11
0.875	508	5.67	0.12
0.875	522.6	8.53	0.13
0.875	538.6	12.4	0.14
0.875	569.2	25.73	0.18
0.875	570.1	26.33	0.18
0.875	602.9	52.53	0.26
0.875	607	56.73	0.27
0.875	618.1	70	0.31
0.875	619.9	72.79	0.32
0.8998	464.8	1.8	0.11
0.8998	483.9	2.93	0.11
0.8998	498.2	4.6	0.11
0.8998	514.4	6.93	0.12
0.8998	528.9	10.33	0.13
0.8998	544.3	15.29	0.15
0.8998	559.2	21.33	0.16
0.8998	575	30.53	0.19
0.8998	590.9	43.44	0.23
0.8998	606.9	59.43	0.28
0.8998	620.9	76.92	0.33
0.8998	630	91.2	0.37
