Measured thermophysical data. Enthalpies of solution of 1-ethyl- and 1-butyl-3-methylimidazolium based ionic liquids in tetrahydrofuran and chloroform at 298.15 K: Thermochemical proton acceptor scale of anions
Source: Thermochim. Acta, 2016, 10.1016/j.tca.2016.08.022
Compound 1: 1-butyl-3-methylimidazolium tetrafluoroborate, C8H15BF4N2, InChI=1S/C8H15N2.BF4/c1-3-4-5-10-7-6-9(2)8-10;2-1(3,4)5/h6-8H,3-5H2,1-2H3;/q+1;-1, purity 98%
Compound 2: 1-ethyl-3-methylimidazolium methylsulfate, C7H14N2O4S, InChI=1S/C6H11N2.CH4O4S/c1-3-8-5-4-7(2)6-8;1-5-6(2,3)4/h4-6H,3H2,1-2H3;1H3,(H,2,3,4)/q+1;/p-1, purity 98%
Compound 3: 1-ethyl-3-methylimidazolium ethyl sulfate, C8H16N2O4S, InChI=1S/C6H11N2.C2H6O4S/c1-3-8-5-4-7(2)6-8;1-2-6-7(3,4)5/h4-6H,3H2,1-2H3;2H2,1H3,(H,3,4,5)/q+1;/p-1, purity 98%
Compound 4: 3-ethyl-1-methylimidazolium butyl sulfate, C10H20N2O4S, InChI=1S/C6H11N2.C4H10O4S/c1-3-8-5-4-7(2)6-8;1-2-3-4-8-9(5,6)7/h4-6H,3H2,1-2H3;2-4H2,1H3,(H,5,6,7)/q+1;/p-1, purity 98%
Compound 5: 1-ethyl-3-methylimidazolium dicyanamide, C8H11N5, InChI=1S/C6H11N2.C2N3/c1-3-8-5-4-7(2)6-8;3-1-5-2-4/h4-6H,3H2,1-2H3;/q+1;-1, purity 98%
Compound 6: 1-ethyl-3-methylimidazolium trifluoromethanesulfonate, C7H11F3N2O3S, InChI=1S/C6H11N2.CHF3O3S/c1-3-8-5-4-7(2)6-8;2-1(3,4)8(5,6)7/h4-6H,3H2,1-2H3;(H,5,6,7)/q+1;/p-1, purity 98%
Compound 7: 1-butyl-3-methylimidazolium trifluoromethanesulfonate, C9H15F3N2O3S, InChI=1S/C8H15N2.CHF3O3S/c1-3-4-5-10-7-6-9(2)8-10;2-1(3,4)8(5,6)7/h6-8H,3-5H2,1-2H3;(H,5,6,7)/q+1;/p-1, purity 98%
Compound 8: 1-ethyl-3-methylimidazolium thiocyanate, C7H11N3S, InChI=1S/C6H11N2.CHNS/c1-3-8-5-4-7(2)6-8;2-1-3/h4-6H,3H2,1-2H3;3H/q+1;/p-1, purity 98%
Compound 9: 1-butyl-3-methylimidazolium thiocyanate, C9H15N3S, InChI=1S/C8H15N2.CHNS/c1-3-4-5-10-7-6-9(2)8-10;2-1-3/h6-8H,3-5H2,1-2H3;3H/q+1;/p-1, purity 98%
Compound 10: tetrahydrofuran, C4H8O, InChI=1S/C4H8O/c1-2-4-5-3-1/h1-4H2, purity 98%
Compound 11: trichloromethane, CHCl3, InChI=1S/CHCl3/c2-1(3)4/h1H, purity 99%

System: tetrahydrofuran + 1-butyl-3-methylimidazolium tetrafluoroborate; phases: Liquid
Property: Molar enthalpy of solution, kJ/mol (Liquid); method: Titration calorimetry
Mole fraction of 1-butyl-3-methylimidazolium tetrafluoroborate	Temperature, K	Pressure, kPa	Molar enthalpy of solution, kJ/mol	uncertainty
0	298.15	100	1.7	0.1

System: tetrahydrofuran + 1-ethyl-3-methylimidazolium methylsulfate; phases: Liquid
Property: Molar enthalpy of solution, kJ/mol (Liquid); method: Titration calorimetry
Mole fraction of 1-ethyl-3-methylimidazolium methylsulfate	Temperature, K	Pressure, kPa	Molar enthalpy of solution, kJ/mol	uncertainty
0	298.15	100	0.125	0.01

System: tetrahydrofuran + 1-ethyl-3-methylimidazolium ethyl sulfate; phases: Liquid
Property: Molar enthalpy of solution, kJ/mol (Liquid); method: Titration calorimetry
Mole fraction of 1-ethyl-3-methylimidazolium ethyl sulfate	Temperature, K	Pressure, kPa	Molar enthalpy of solution, kJ/mol	uncertainty
0	298.15	100	0.78	0.03

System: tetrahydrofuran + 3-ethyl-1-methylimidazolium butyl sulfate; phases: Liquid
Property: Molar enthalpy of solution, kJ/mol (Liquid); method: Titration calorimetry
Mole fraction of 3-ethyl-1-methylimidazolium butyl sulfate	Temperature, K	Pressure, kPa	Molar enthalpy of solution, kJ/mol	uncertainty
0	298.15	100	3.18	0.13

System: tetrahydrofuran + 1-ethyl-3-methylimidazolium dicyanamide; phases: Liquid
Property: Molar enthalpy of solution, kJ/mol (Liquid); method: Titration calorimetry
Mole fraction of 1-ethyl-3-methylimidazolium dicyanamide	Temperature, K	Pressure, kPa	Molar enthalpy of solution, kJ/mol	uncertainty
0	298.15	100	-5.74	0.23

System: tetrahydrofuran + 1-ethyl-3-methylimidazolium trifluoromethanesulfonate; phases: Liquid
Property: Molar enthalpy of solution, kJ/mol (Liquid); method: Titration calorimetry
Mole fraction of 1-ethyl-3-methylimidazolium trifluoromethanesulfonate	Temperature, K	Pressure, kPa	Molar enthalpy of solution, kJ/mol	uncertainty
0	298.15	100	1.78	0.08

System: tetrahydrofuran + 1-butyl-3-methylimidazolium trifluoromethanesulfonate; phases: Liquid
Property: Molar enthalpy of solution, kJ/mol (Liquid); method: Titration calorimetry
Mole fraction of 1-butyl-3-methylimidazolium trifluoromethanesulfonate	Temperature, K	Pressure, kPa	Molar enthalpy of solution, kJ/mol	uncertainty
0	298.15	100	2.1	0.02

System: tetrahydrofuran + 1-ethyl-3-methylimidazolium thiocyanate; phases: Liquid
Property: Molar enthalpy of solution, kJ/mol (Liquid); method: Titration calorimetry
Mole fraction of 1-ethyl-3-methylimidazolium thiocyanate	Temperature, K	Pressure, kPa	Molar enthalpy of solution, kJ/mol	uncertainty
0	298.15	100	-2.17	0.05

System: tetrahydrofuran + 1-butyl-3-methylimidazolium thiocyanate; phases: Liquid
Property: Molar enthalpy of solution, kJ/mol (Liquid); method: Titration calorimetry
Mole fraction of 1-butyl-3-methylimidazolium thiocyanate	Temperature, K	Pressure, kPa	Molar enthalpy of solution, kJ/mol	uncertainty
0	298.15	100	-1.28	0.05

System: trichloromethane + 1-butyl-3-methylimidazolium tetrafluoroborate; phases: Liquid
Property: Molar enthalpy of solution, kJ/mol (Liquid); method: Titration calorimetry
Mole fraction of 1-butyl-3-methylimidazolium tetrafluoroborate	Temperature, K	Pressure, kPa	Molar enthalpy of solution, kJ/mol	uncertainty
0	298.15	100	-7	0.07

System: trichloromethane + 1-ethyl-3-methylimidazolium methylsulfate; phases: Liquid
Property: Molar enthalpy of solution, kJ/mol (Liquid); method: Titration calorimetry
Mole fraction of 1-ethyl-3-methylimidazolium methylsulfate	Temperature, K	Pressure, kPa	Molar enthalpy of solution, kJ/mol	uncertainty
0	298.15	100	-13.79	0.28

System: trichloromethane + 1-ethyl-3-methylimidazolium ethyl sulfate; phases: Liquid
Property: Molar enthalpy of solution, kJ/mol (Liquid); method: Titration calorimetry
Mole fraction of 1-ethyl-3-methylimidazolium ethyl sulfate	Temperature, K	Pressure, kPa	Molar enthalpy of solution, kJ/mol	uncertainty
0	298.15	100	-12.96	0.14

System: trichloromethane + 3-ethyl-1-methylimidazolium butyl sulfate; phases: Liquid
Property: Molar enthalpy of solution, kJ/mol (Liquid); method: Titration calorimetry
Mole fraction of 3-ethyl-1-methylimidazolium butyl sulfate	Temperature, K	Pressure, kPa	Molar enthalpy of solution, kJ/mol	uncertainty
0	298.15	100	-10.06	0.13

System: trichloromethane + 1-ethyl-3-methylimidazolium dicyanamide; phases: Liquid
Property: Molar enthalpy of solution, kJ/mol (Liquid); method: Titration calorimetry
Mole fraction of 1-ethyl-3-methylimidazolium dicyanamide	Temperature, K	Pressure, kPa	Molar enthalpy of solution, kJ/mol	uncertainty
0	298.15	100	-16.92	0.18

System: trichloromethane + 1-ethyl-3-methylimidazolium trifluoromethanesulfonate; phases: Liquid
Property: Molar enthalpy of solution, kJ/mol (Liquid); method: Titration calorimetry
Mole fraction of 1-ethyl-3-methylimidazolium trifluoromethanesulfonate	Temperature, K	Pressure, kPa	Molar enthalpy of solution, kJ/mol	uncertainty
0	298.15	100	-8.97	0.1

System: trichloromethane + 1-butyl-3-methylimidazolium trifluoromethanesulfonate; phases: Liquid
Property: Molar enthalpy of solution, kJ/mol (Liquid); method: Titration calorimetry
Mole fraction of 1-butyl-3-methylimidazolium trifluoromethanesulfonate	Temperature, K	Pressure, kPa	Molar enthalpy of solution, kJ/mol	uncertainty
0	298.15	100	-8.95	0.1

System: trichloromethane + 1-ethyl-3-methylimidazolium thiocyanate; phases: Liquid
Property: Molar enthalpy of solution, kJ/mol (Liquid); method: Titration calorimetry
Mole fraction of 1-ethyl-3-methylimidazolium thiocyanate	Temperature, K	Pressure, kPa	Molar enthalpy of solution, kJ/mol	uncertainty
0	298.15	100	-11.51	0.22

System: trichloromethane + 1-butyl-3-methylimidazolium thiocyanate; phases: Liquid
Property: Molar enthalpy of solution, kJ/mol (Liquid); method: Titration calorimetry
Mole fraction of 1-butyl-3-methylimidazolium thiocyanate	Temperature, K	Pressure, kPa	Molar enthalpy of solution, kJ/mol	uncertainty
0	298.15	100	-11.8	0.22
