Measured thermophysical data. Excess molar enthalpies of methylformate + (1-propanol, 2-propanol, 1-butanol, 2-butanol and 1-pentanol) at T = 298.15 K, p = (5.0, 10.0)MPa, and methylformate + 1-propanol at T = 333.15 K, p = 10.0MPa
Source: Thermochim. Acta, 2006, 10.1016/j.tca.2005.11.041
Compound 1: methyl methanoate, C2H4O2, InChI=1S/C2H4O2/c1-4-2-3/h2H,1H3, purity 98%
Compound 2: propan-1-ol, C3H8O, InChI=1S/C3H8O/c1-2-3-4/h4H,2-3H2,1H3, purity 98%
Compound 3: propan-2-ol, C3H8O, InChI=1S/C3H8O/c1-3(2)4/h3-4H,1-2H3, purity 98%
Compound 4: butan-1-ol, C4H10O, InChI=1S/C4H10O/c1-2-3-4-5/h5H,2-4H2,1H3, purity 98%
Compound 5: butan-2-ol, C4H10O, InChI=1S/C4H10O/c1-3-4(2)5/h4-5H,3H2,1-2H3, purity 98%
Compound 6: pentan-1-ol, C5H12O, InChI=1S/C5H12O/c1-2-3-4-5-6/h6H,2-5H2,1H3, purity 98%

System: propan-1-ol + methyl methanoate; phases: Liquid
Property: Excess molar enthalpy (molar enthalpy of mixing), kJ/mol (Liquid); method: Flow calorimetry
Temperature, K	Pressure, kPa	Mole fraction of methyl methanoate	Excess molar enthalpy (molar enthalpy of mixing), kJ/mol	uncertainty
298.15	5000	0.0399	0.3282	0.0033
298.15	5000	0.0788	0.6211	0.0056
298.15	5000	0.1201	0.8882	0.0077
298.15	5000	0.1621	1.1161	0.0094
298.15	5000	0.2066	1.3112	0.0109
298.15	5000	0.2501	1.4688	0.0122
298.15	5000	0.2944	1.5901	0.0131
298.15	5000	0.3414	1.6805	0.0138
298.15	5000	0.3893	1.7467	0.0143
298.15	5000	0.4381	1.7774	0.0145
298.15	5000	0.4878	1.7882	0.0146
298.15	5000	0.5386	1.7642	0.0144
298.15	5000	0.5903	1.7062	0.014
298.15	5000	0.6452	1.6053	0.0132
298.15	5000	0.699	1.4754	0.0122
298.15	5000	0.7562	1.2814	0.0107
298.15	5000	0.8146	1.0598	0.009
298.15	5000	0.8743	0.7735	0.0068
298.15	5000	0.9376	0.4064	0.0039
298.15	10000	0.0398	0.3424	0.0034
298.15	10000	0.0786	0.6463	0.0058
298.15	10000	0.1197	0.9222	0.0079
298.15	10000	0.1616	1.1531	0.0097
298.15	10000	0.2061	1.3576	0.0113
298.15	10000	0.2495	1.5151	0.0125
298.15	10000	0.2937	1.6374	0.0135
298.15	10000	0.3407	1.7298	0.0142
298.15	10000	0.3885	1.7923	0.0147
298.15	10000	0.4373	1.8242	0.0149
298.15	10000	0.487	1.8234	0.0149
298.15	10000	0.5377	1.7908	0.0146
298.15	10000	0.5895	1.7262	0.0141
298.15	10000	0.6444	1.6214	0.0133
298.15	10000	0.6983	1.4916	0.0123
298.15	10000	0.7556	1.3033	0.0109
298.15	10000	0.8141	1.0704	0.0091
298.15	10000	0.8739	0.773	0.0068
298.15	10000	0.9374	0.4032	0.0039
333.15	10000	0.0403	0.3363	0.0034
333.15	10000	0.0788	0.6704	0.006
333.15	10000	0.1205	0.9868	0.0084
333.15	10000	0.1629	1.2642	0.0106
333.15	10000	0.2061	1.4968	0.0124
333.15	10000	0.25	1.6897	0.0139
333.15	10000	0.2948	1.8509	0.0151
333.15	10000	0.3404	1.9728	0.0161
333.15	10000	0.3868	2.0577	0.0167
333.15	10000	0.437	2.1102	0.0171
333.15	10000	0.4853	2.1283	0.0173
333.15	10000	0.5374	2.0977	0.017
333.15	10000	0.5907	2.0352	0.0165
333.15	10000	0.645	1.92	0.0156
333.15	10000	0.7005	1.7543	0.0144
333.15	10000	0.7572	1.5287	0.0126
333.15	10000	0.8151	1.2672	0.0106
333.15	10000	0.8743	0.9357	0.008
333.15	10000	0.9347	0.5167	0.0048

System: propan-2-ol + methyl methanoate; phases: Liquid
Fixed: Temperature, K = 298.15
Property: Excess molar enthalpy (molar enthalpy of mixing), kJ/mol (Liquid); method: Flow calorimetry
Pressure, kPa	Mole fraction of methyl methanoate	Excess molar enthalpy (molar enthalpy of mixing), kJ/mol	uncertainty
5000	0.0399	0.3546	0.0035
5000	0.0822	0.7002	0.0062
5000	0.1235	0.9856	0.0084
5000	0.1656	1.2329	0.0103
5000	0.2102	1.4439	0.012
5000	0.2556	1.6224	0.0133
5000	0.3	1.763	0.0144
5000	0.3471	1.8712	0.0153
5000	0.3951	1.9494	0.0159
5000	0.444	1.9898	0.0162
5000	0.4938	1.9985	0.0163
5000	0.5447	1.9775	0.0161
5000	0.5965	1.9229	0.0157
5000	0.6494	1.823	0.0149
5000	0.7055	1.6701	0.0137
5000	0.7606	1.4883	0.0123
5000	0.8191	1.2274	0.0103
5000	0.8766	0.9332	0.008
5000	0.9376	0.5078	0.0047
10000	0.0398	0.3587	0.0036
10000	0.082	0.7007	0.0062
10000	0.1232	0.9855	0.0084
10000	0.1651	1.2285	0.0103
10000	0.2096	1.4419	0.0119
10000	0.2549	1.6157	0.0133
10000	0.2993	1.7512	0.0143
10000	0.3463	1.8589	0.0152
10000	0.3943	1.9345	0.0158
10000	0.4432	1.9763	0.0161
10000	0.493	1.9855	0.0162
10000	0.5439	1.9679	0.016
10000	0.5957	1.906	0.0155
10000	0.6487	1.809	0.0148
10000	0.7048	1.6582	0.0136
10000	0.76	1.4686	0.0122
10000	0.8186	1.2136	0.0102
10000	0.8762	0.9053	0.0078
10000	0.9374	0.4938	0.0046

System: butan-1-ol + methyl methanoate; phases: Liquid
Fixed: Temperature, K = 298.15
Property: Excess molar enthalpy (molar enthalpy of mixing), kJ/mol (Liquid); method: Flow calorimetry
Pressure, kPa	Mole fraction of methyl methanoate	Excess molar enthalpy (molar enthalpy of mixing), kJ/mol	uncertainty
5000	0.0501	0.4421	0.0042
5000	0.1	0.8313	0.0072
5000	0.1496	1.1451	0.0096
5000	0.2	1.4006	0.0116
5000	0.2496	1.5973	0.0131
5000	0.2999	1.7475	0.0143
5000	0.3508	1.8517	0.0151
5000	0.4004	1.9206	0.0157
5000	0.4503	1.95	0.0159
5000	0.5003	1.9473	0.0159
5000	0.5505	1.9104	0.0156
5000	0.6006	1.8407	0.015
5000	0.6505	1.7304	0.0142
5000	0.7002	1.5929	0.0131
5000	0.7494	1.4315	0.0119
5000	0.8004	1.2121	0.0102
5000	0.8509	0.971	0.0083
5000	0.9006	0.6776	0.006
5000	0.9495	0.3454	0.0035
10000	0.05	0.4411	0.0042
10000	0.0997	0.8281	0.0072
10000	0.1506	1.1492	0.0097
10000	0.1994	1.3964	0.0116
10000	0.2505	1.5974	0.0131
10000	0.2992	1.7418	0.0143
10000	0.35	1.8476	0.0151
10000	0.3996	1.9095	0.0156
10000	0.4495	1.9412	0.0158
10000	0.4995	1.9355	0.0158
10000	0.5497	1.8959	0.0155
10000	0.5998	1.822	0.0149
10000	0.6498	1.7171	0.0141
10000	0.6995	1.5861	0.0131
10000	0.7511	1.41	0.0117
10000	0.7999	1.2052	0.0101
10000	0.8505	0.9554	0.0082
10000	0.9003	0.6662	0.0059
10000	0.9493	0.3316	0.0033

System: butan-2-ol + methyl methanoate; phases: Liquid
Fixed: Temperature, K = 298.15
Property: Excess molar enthalpy (molar enthalpy of mixing), kJ/mol (Liquid); method: Flow calorimetry
Pressure, kPa	Mole fraction of methyl methanoate	Excess molar enthalpy (molar enthalpy of mixing), kJ/mol	uncertainty
5000	0.0501	0.4541	0.0043
5000	0.1	0.8606	0.0074
5000	0.1496	1.1928	0.01
5000	0.2	1.4716	0.0122
5000	0.2496	1.6901	0.0139
5000	0.2999	1.8599	0.0152
5000	0.3508	1.9854	0.0162
5000	0.4004	2.061	0.0167
5000	0.4503	2.1038	0.0171
5000	0.5003	2.1085	0.0171
5000	0.5505	2.0745	0.0168
5000	0.6006	2.0052	0.0163
5000	0.6505	1.913	0.0156
5000	0.7002	1.7633	0.0144
5000	0.7494	1.5925	0.0131
5000	0.8004	1.3736	0.0114
5000	0.8509	1.0904	0.0092
5000	0.9006	0.7682	0.0067
5000	0.9495	0.4154	0.004
10000	0.0996	0.8969	0.0077
10000	0.15	1.215	0.0102
10000	0.1994	1.488	0.0123
10000	0.2493	1.7093	0.014
10000	0.2997	1.884	0.0154
10000	0.3504	2.007	0.0163
10000	0.3993	2.0907	0.017
10000	0.4504	2.1318	0.0173
10000	0.4992	2.1335	0.0173
10000	0.5501	2.0972	0.017
10000	0.6006	2.03	0.0165
10000	0.6508	1.9192	0.0156
10000	0.7003	1.7713	0.0145
10000	0.7491	1.5916	0.0131
10000	0.7997	1.3537	0.0113
10000	0.8494	1.0812	0.0092
10000	0.9008	0.7291	0.0064

System: pentan-1-ol + methyl methanoate; phases: Liquid
Fixed: Temperature, K = 298.15
Property: Excess molar enthalpy (molar enthalpy of mixing), kJ/mol (Liquid); method: Flow calorimetry
Pressure, kPa	Mole fraction of methyl methanoate	Excess molar enthalpy (molar enthalpy of mixing), kJ/mol	uncertainty
5000	0.0507	0.5503	0.005
5000	0.0997	0.9893	0.0084
5000	0.1503	1.3519	0.0112
5000	0.2004	1.6287	0.0134
5000	0.2494	1.839	0.015
5000	0.2991	2.0004	0.0163
5000	0.3496	2.1139	0.0172
5000	0.4005	2.1827	0.0177
5000	0.4488	2.2082	0.0179
5000	0.4998	2.1983	0.0178
5000	0.5506	2.1343	0.0173
5000	0.6009	2.0629	0.0168
5000	0.6503	1.9427	0.0158
5000	0.6986	1.8027	0.0147
5000	0.7492	1.6145	0.0133
5000	0.7983	1.3805	0.0115
5000	0.8497	1.0994	0.0093
5000	0.8992	0.7573	0.0066
5000	0.9509	0.3567	0.0035
10000	0.0505	0.5386	0.005
10000	0.0994	0.9773	0.0083
10000	0.1499	1.337	0.0111
10000	0.1998	1.6149	0.0133
10000	0.251	1.8325	0.015
10000	0.3009	1.9915	0.0162
10000	0.3488	2.1055	0.0171
10000	0.3997	2.1725	0.0176
10000	0.4509	2.1978	0.0178
10000	0.499	2.1871	0.0177
10000	0.5498	2.1406	0.0174
10000	0.6001	2.0673	0.0168
10000	0.6496	1.95	0.0159
10000	0.7017	1.7879	0.0146
10000	0.7486	1.6111	0.0133
10000	0.802	1.3707	0.0114
10000	0.8493	1.1008	0.0093
10000	0.8988	0.762	0.0067
10000	0.9507	0.3448	0.0035
