Measured thermophysical data. Thermodynamics of the Pt-Cl system
Source: Thermochim. Acta, 2008, 10.1016/j.tca.2008.01.005
Compound 1: platinum, Pt, InChI=1S/Pt
Compound 2: hydrogen chloride, ClH, InChI=1S/ClH/h1H
Compound 3: hydrogen, H2, InChI=1S/H2/h1H
Compound 4: platinum (IV) chloride, Cl4Pt, InChI=1S/4ClH.Pt/h4*1H;/q;;;;+4/p-4
Compound 5: platinum(III) chloride, Cl3Pt, InChI=1S/3ClH.Pt/h3*1H;/q;;;+3/p-3, purity 99.34%
Compound 6: platinous chloride, Cl2Pt, InChI=1S/2ClH.Pt/h2*1H;/q;;+2/p-2, purity 99.68%

Reaction: 1 platinum + 4 hydrogen chloride + -1 platinum (IV) chloride + -2 hydrogen
Property: Molar enthalpy of reaction, kJ/mol
-123.6

Reaction: 1 platinum + 3 hydrogen chloride + -1 platinum(III) chloride + -1.5 hydrogen
Property: Molar enthalpy of reaction, kJ/mol
-83.1

Reaction: -1 platinum + -2 hydrogen chloride + 1 platinous chloride + 1 hydrogen
Property: Molar enthalpy of reaction, kJ/mol
-46.5
