Measured thermophysical data. Triacetone triperoxide thermogravimetric study of vapor pressure and enthalpy of sublimation in 303 338 K temperature range
Source: Thermochim. Acta, 2011, 10.1016/j.tca.2010.11.034
Compound 1: 4-nitrobenzenamine, C6H6N2O2, InChI=1S/C6H6N2O2/c7-5-1-3-6(4-2-5)8(9)10/h1-4H,7H2
Compound 2: 2-nitroaniline, C6H6N2O2, InChI=1S/C6H6N2O2/c7-5-3-1-2-4-6(5)8(9)10/h1-4H,7H2
Compound 3: 3-nitrobenzenamine, C6H6N2O2, InChI=1S/C6H6N2O2/c7-5-2-1-3-6(4-5)8(9)10/h1-4H,7H2
Compound 4: 1-methoxy-4-nitrobenzene, C7H7NO3, InChI=1S/C7H7NO3/c1-11-7-4-2-6(3-5-7)8(9)10/h2-5H,1H3
Compound 5: 1-methyl-4-nitrobenzene, C7H7NO2, InChI=1S/C7H7NO2/c1-6-2-4-7(5-3-6)8(9)10/h2-5H,1H3
Compound 6: 1,4-dinitrobenzene, C6H4N2O4, InChI=1S/C6H4N2O4/c9-7(10)5-1-2-6(4-3-5)8(11)12/h1-4H
Compound 7: 1,2-dinitrobenzene, C6H4N2O4, InChI=1S/C6H4N2O4/c9-7(10)5-3-1-2-4-6(5)8(11)12/h1-4H
Compound 8: 4-nitrobiphenyl, C12H9NO2, InChI=1S/C12H9NO2/c14-13(15)12-8-6-11(7-9-12)10-4-2-1-3-5-10/h1-9H
Compound 9: 2,4,6-trinitrotoluene, C7H5N3O6, InChI=1S/C7H5N3O6/c1-4-6(9(13)14)2-5(8(11)12)3-7(4)10(15)16/h2-3H,1H3
Compound 10: 2,4-dinitrotoluene, C7H6N2O4, InChI=1S/C7H6N2O4/c1-5-2-3-6(8(10)11)4-7(5)9(12)13/h2-4H,1H3
Compound 11: 1,3,5-triaza-1,3,5-trinitrocyclohexane, C3H6N6O6, InChI=1S/C3H6N6O6/c10-7(11)4-1-5(8(12)13)3-6(2-4)9(14)15/h1-3H2
Compound 12: TATP, C9H18O6, InChI=1S/C9H18O6/c1-7(2)10-12-8(3,4)14-15-9(5,6)13-11-7/h1-6H3

System: 4-nitrobenzenamine; phases: Crystal, Gas
Property: Vapor or sublimation pressure, kPa (Crystal); method: Thermal Gravimetric Analyzer
Temperature, K	Vapor or sublimation pressure, kPa	uncertainty
323.15	3.2e-05	3.2e-05
343.15	0.000298	0.000298
363.15	0.00205	0.00205
383.15	0.0116	0.0116
403.15	0.0523	0.0523
413.15	0.0986	0.0986

System: 2-nitroaniline; phases: Crystal, Gas
Property: Vapor or sublimation pressure, kPa (Crystal); method: Thermal Gravimetric Analyzer
Temperature, K	Vapor or sublimation pressure, kPa	uncertainty
308.15	0.000364	0.000364
313.15	0.000621	0.000621
318.15	0.00109	0.00109
323.15	0.00189	0.00189
328.15	0.00323	0.00323
338.15	0.00882	0.00882

System: 3-nitrobenzenamine; phases: Crystal, Gas
Property: Vapor or sublimation pressure, kPa (Crystal); method: Thermal Gravimetric Analyzer
Temperature, K	Vapor or sublimation pressure, kPa	uncertainty
313.15	0.000115	0.000115
323.15	0.000308	0.000308
333.15	0.000866	0.000866
343.15	0.00251	0.00251
353.15	0.00658	0.00658
363.15	0.0168	0.0168
383.15	0.0666	0.0666

System: 1-methoxy-4-nitrobenzene; phases: Crystal, Gas
Property: Vapor or sublimation pressure, kPa (Crystal); method: Thermal Gravimetric Analyzer
Temperature, K	Vapor or sublimation pressure, kPa	uncertainty
303.15	0.000578	0.000578
307.15	0.000861	0.000861
311.15	0.00141	0.00141
313.15	0.00175	0.00175
317.15	0.00279	0.00279
321.15	0.00429	0.00429

System: 1-methyl-4-nitrobenzene; phases: Crystal, Gas
Property: Vapor or sublimation pressure, kPa (Crystal); method: Thermal Gravimetric Analyzer
Temperature, K	Vapor or sublimation pressure, kPa	uncertainty
303.15	0.00511	0.00511
307.15	0.00796	0.00796
311.15	0.0122	0.0122
315.15	0.0185	0.0185
319.15	0.0267	0.0267
321.15	0.0305	0.0305

System: 1,4-dinitrobenzene; phases: Crystal, Gas
Property: Vapor or sublimation pressure, kPa (Crystal); method: Thermal Gravimetric Analyzer
Temperature, K	Vapor or sublimation pressure, kPa	uncertainty
323.15	0.000229	0.000229
343.15	0.00166	0.00166
363.15	0.00998	0.00998
383.15	0.0555	0.0555
403.15	0.22	0.22
433.15	0.784	0.784

System: 1,2-dinitrobenzene; phases: Crystal, Gas
Property: Vapor or sublimation pressure, kPa (Crystal); method: Thermal Gravimetric Analyzer
Temperature, K	Vapor or sublimation pressure, kPa	uncertainty
313.15	0.000108	0.000108
323.15	0.000342	0.000342
333.15	0.00106	0.00106
343.15	0.00292	0.00292
353.15	0.00742	0.00742
363.15	0.0177	0.0177
383.15	0.082	0.082

System: 4-nitrobiphenyl; phases: Crystal, Gas
Property: Vapor or sublimation pressure, kPa (Crystal); method: Thermal Gravimetric Analyzer
Temperature, K	Vapor or sublimation pressure, kPa	uncertainty
323.15	5e-05	5e-05
333.15	0.000158	0.000158
343.15	0.000485	0.000485
353.15	0.00141	0.00141
363.15	0.00372	0.00372
380.15	0.0162	0.0162

System: 2,4,6-trinitrotoluene; phases: Crystal, Gas
Property: Vapor or sublimation pressure, kPa (Crystal); method: Thermal Gravimetric Analyzer
Temperature, K	Vapor or sublimation pressure, kPa	uncertainty
313.15	1.3e-05	1.3e-05
318.15	2.2e-05	2.2e-05
323.15	4e-05	4e-05
328.15	7.3e-05	7.3e-05
333.15	0.000137	0.000137
338.15	0.000271	0.000271

System: 2,4-dinitrotoluene; phases: Crystal, Gas
Property: Vapor or sublimation pressure, kPa (Crystal); method: Thermal Gravimetric Analyzer
Temperature, K	Vapor or sublimation pressure, kPa	uncertainty
308.15	0.000101	0.000101
313.15	0.000198	0.000198
318.15	0.000369	0.000369
323.15	0.000667	0.000667
328.15	0.00116	0.00116
333.15	0.00197	0.00197
338.15	0.00316	0.00316

System: 1,3,5-triaza-1,3,5-trinitrocyclohexane; phases: Crystal, Gas
Property: Vapor or sublimation pressure, kPa (Crystal); method: Thermal Gravimetric Analyzer
Temperature, K	Vapor or sublimation pressure, kPa	uncertainty
348.15	4e-06	4e-06
353.15	9e-06	9e-06
358.15	1.9e-05	1.9e-05
363.15	2.1e-05	2.1e-05
368.15	3.3e-05	3.3e-05
373.15	4.6e-05	4.6e-05
378.15	7.3e-05	7.3e-05
383.15	0.000114	0.000114

System: TATP; phases: Crystal, Gas
Property: Vapor or sublimation pressure, kPa (Crystal); method: Thermal Gravimetric Analyzer
Temperature, K	Vapor or sublimation pressure, kPa	uncertainty
303.15	0.00682	0.00682
308.15	0.0115	0.0115
313.15	0.0186	0.0186
318.15	0.0303	0.0303
323.15	0.0481	0.0481
328.15	0.0712	0.0712
333.15	0.0966	0.0966
338.15	0.124	0.124
