Measured thermophysical data. Heat capacity of Sr10(PO4)6Cl2 and Ca10(PO4)6Cl2 by DSC
Source: Thermochim. Acta, 2008, 10.1016/j.tca.2008.08.009
Compound 1: strontium chloride phosphate Sr10(PO4)6Cl2, Cl2O24P6Sr10, InChI=1S/2ClH.6H3O4P.10Sr/c;;6*1-5(2,3)4;;;;;;;;;;/h2*1H;6*(H3,1,2,3,4);;;;;;;;;;/q;;;;;;;;10*+2/p-20, purity 99%
Compound 2: calcium chloride phosphate Ca10(PO4)6Cl2, Ca10Cl2O24P6, InChI=1S/10Ca.2ClH.6H3O4P/c;;;;;;;;;;;;6*1-5(2,3)4/h;;;;;;;;;;2*1H;6*(H3,1,2,3,4)/q10*+2;;;;;;;;/p-20, purity 99%

System: strontium chloride phosphate Sr10(PO4)6Cl2; phases: Crystal
Property: Mass density, kg/m3 (Crystal); method: X-ray diffraction
Temperature, K	Pressure, kPa	Mass density, kg/m3	uncertainty
293	101.325	4147	6

System: strontium chloride phosphate Sr10(PO4)6Cl2; phases: Crystal
Fixed: Pressure, kPa = 101.325
Property: Molar heat capacity at constant pressure, J/K/mol (Crystal); method: Small sample (50 mg) DSC
Temperature, K	Molar heat capacity at constant pressure, J/K/mol	uncertainty
298	868	17
300	870	17
320	896	18
340	919	18
360	941	19
380	960	19
400	980	20
420	1000	20
440	1019	20
460	1035	21
480	1054	21
500	1071	21
520	1085	22
540	1095	22
560	1109	22
580	1118	22
600	1128	23
620	1138	23
640	1143	23
660	1142	23
680	1147	23
700	1152	23
720	1153	23
740	1148	23
760	1157	23
780	1151	23
800	1150	23

System: calcium chloride phosphate Ca10(PO4)6Cl2; phases: Crystal
Property: Mass density, kg/m3 (Crystal); method: X-ray diffraction
Temperature, K	Pressure, kPa	Mass density, kg/m3	uncertainty
293	101.325	3211	4

System: calcium chloride phosphate Ca10(PO4)6Cl2; phases: Crystal
Fixed: Pressure, kPa = 101.325
Property: Molar heat capacity at constant pressure, J/K/mol (Crystal); method: Small sample (50 mg) DSC
Temperature, K	Molar heat capacity at constant pressure, J/K/mol	uncertainty
298	758	15
300	769	15
320	788	16
340	819	16
360	847	17
380	871	17
400	892	18
420	913	18
440	933	19
460	950	19
480	965	19
500	983	20
520	1000	20
540	1015	20
560	1031	21
580	1039	21
600	1050	21
620	1062	21
640	1074	21
660	1082	22
680	1090	22
700	1099	22
720	1101	22
740	1107	22
760	1108	22
780	1106	22
800	1103	22
