Measured thermophysical data. Thermal properties of 1-alkyl-3-methylpyridinium halide-based ionic  liquids
Source: Thermochim. Acta, 2013, 10.1016/j.tca.2013.06.022
Compound 1: 1-ethyl-3-methylpyridinium chloride, C8H12ClN, InChI=1S/C8H12N.ClH/c1-3-9-6-4-5-8(2)7-9;/h4-7H,3H2,1-2H3;1H/q+1;/p-1
Compound 2: 1-propyl-3-methylpyridinium chloride, C9H14ClN, InChI=1S/C9H14N.ClH/c1-3-6-10-7-4-5-9(2)8-10;/h4-5,7-8H,3,6H2,1-2H3;1H/q+1;/p-1
Compound 3: 1-butyl-3-methylpyridinium chloride, C10H16ClN, InChI=1S/C10H16N.ClH/c1-3-4-7-11-8-5-6-10(2)9-11;/h5-6,8-9H,3-4,7H2,1-2H3;1H/q+1;/p-1
Compound 4: 1-pentyl-3-methylpyridinium chloride, C11H18ClN, InChI=1S/C11H18N.ClH/c1-3-4-5-8-12-9-6-7-11(2)10-12;/h6-7,9-10H,3-5,8H2,1-2H3;1H/q+1;/p-1
Compound 5: 1-hexyl-3-methylpyridinium chloride, C12H20ClN, InChI=1S/C12H20N.ClH/c1-3-4-5-6-9-13-10-7-8-12(2)11-13;/h7-8,10-11H,3-6,9H2,1-2H3;1H/q+1;/p-1
Compound 6: 1-heptyl-3-methylpyridinium chloride, C13H22ClN, InChI=1S/C13H22N.ClH/c1-3-4-5-6-7-10-14-11-8-9-13(2)12-14;/h8-9,11-12H,3-7,10H2,1-2H3;1H/q+1;/p-1
Compound 7: 1-octyl-3-methylpyridinium chloride, C14H24ClN, InChI=1S/C14H24N.ClH/c1-3-4-5-6-7-8-11-15-12-9-10-14(2)13-15;/h9-10,12-13H,3-8,11H2,1-2H3;1H/q+1;/p-1
Compound 8: 1-nonyl-3-methylpyridinium chloride, C15H26ClN, InChI=1S/C15H26N.ClH/c1-3-4-5-6-7-8-9-12-16-13-10-11-15(2)14-16;/h10-11,13-14H,3-9,12H2,1-2H3;1H/q+1;/p-1
Compound 9: 1-decyl-3-methylpyridinium chloride, C16H28ClN, InChI=1S/C16H28N.ClH/c1-3-4-5-6-7-8-9-10-13-17-14-11-12-16(2)15-17;/h11-12,14-15H,3-10,13H2,1-2H3;1H/q+1;/p-1
Compound 10: 1-allyl-3-methylpyridinium chloride, C9H12ClN, InChI=1S/C9H12N.ClH/c1-3-6-10-7-4-5-9(2)8-10;/h3-5,7-8H,1,6H2,2H3;1H/q+1;/p-1
Compound 11: 1-ethyl-3-methylpyridinium bromide, C8H12BrN, InChI=1S/C8H12N.BrH/c1-3-9-6-4-5-8(2)7-9;/h4-7H,3H2,1-2H3;1H/q+1;/p-1

System: 1-ethyl-3-methylpyridinium chloride; phases: Glass, Liquid, Air at 1 atmosphere
Property: Triple point temperature, K (Glass); method: DTA:corrimp
Triple point temperature, K	uncertainty
302.15	5

System: 1-ethyl-3-methylpyridinium chloride; phases: Crystal, Liquid, Air at 1 atmosphere
Property: Normal melting temperature, K (Crystal); method: VISOBS
Normal melting temperature, K	uncertainty
403.15	5

System: 1-propyl-3-methylpyridinium chloride; phases: Glass, Liquid, Air at 1 atmosphere
Property: Triple point temperature, K (Glass); method: DTA:corrimp
Triple point temperature, K	uncertainty
291.65	5

System: 1-propyl-3-methylpyridinium chloride; phases: Crystal, Liquid, Air at 1 atmosphere
Property: Normal melting temperature, K (Crystal); method: VISOBS
Normal melting temperature, K	uncertainty
365.15	5

System: 1-butyl-3-methylpyridinium chloride; phases: Glass, Liquid, Air at 1 atmosphere
Property: Triple point temperature, K (Glass); method: DTA:corrimp
Triple point temperature, K	uncertainty
308.15	5

System: 1-butyl-3-methylpyridinium chloride; phases: Crystal, Liquid, Air at 1 atmosphere
Property: Normal melting temperature, K (Crystal); method: DTA:corrimp
Normal melting temperature, K	uncertainty
366.15	5

System: 1-butyl-3-methylpyridinium chloride; phases: Crystal, Liquid, Air at 1 atmosphere
Property: Normal melting temperature, K (Crystal); method: VISOBS
Normal melting temperature, K	uncertainty
370.15	5

System: 1-pentyl-3-methylpyridinium chloride; phases: Glass, Liquid, Air at 1 atmosphere
Property: Triple point temperature, K (Glass); method: DTA:corrimp
Triple point temperature, K	uncertainty
294.65	5

System: 1-pentyl-3-methylpyridinium chloride; phases: Crystal, Liquid, Air at 1 atmosphere
Property: Normal melting temperature, K (Crystal); method: VISOBS
Normal melting temperature, K	uncertainty
365.15	5

System: 1-hexyl-3-methylpyridinium chloride; phases: Crystal, Liquid, Air at 1 atmosphere
Property: Normal melting temperature, K (Crystal); method: DTA:corrimp
Normal melting temperature, K	uncertainty
335.15	5

System: 1-hexyl-3-methylpyridinium chloride; phases: Crystal, Liquid, Air at 1 atmosphere
Property: Normal melting temperature, K (Crystal); method: VISOBS
Normal melting temperature, K	uncertainty
350.15	5

System: 1-heptyl-3-methylpyridinium chloride; phases: Glass, Liquid, Air at 1 atmosphere
Property: Triple point temperature, K (Glass); method: DTA:corrimp
Triple point temperature, K	uncertainty
289.65	5

System: 1-heptyl-3-methylpyridinium chloride; phases: Crystal, Liquid, Air at 1 atmosphere
Property: Normal melting temperature, K (Crystal); method: VISOBS
Normal melting temperature, K	uncertainty
345.15	5

System: 1-octyl-3-methylpyridinium chloride; phases: Crystal, Liquid, Air at 1 atmosphere
Property: Normal melting temperature, K (Crystal); method: DTA:corrimp
Normal melting temperature, K	uncertainty
342.15	5

System: 1-octyl-3-methylpyridinium chloride; phases: Crystal, Liquid, Air at 1 atmosphere
Property: Normal melting temperature, K (Crystal); method: VISOBS
Normal melting temperature, K	uncertainty
347.15	5

System: 1-nonyl-3-methylpyridinium chloride; phases: Crystal, Liquid, Air at 1 atmosphere
Property: Normal melting temperature, K (Crystal); method: VISOBS
Normal melting temperature, K	uncertainty
337.15	5

System: 1-decyl-3-methylpyridinium chloride; phases: Crystal, Liquid, Air at 1 atmosphere
Property: Normal melting temperature, K (Crystal); method: DTA:corrimp
Normal melting temperature, K	uncertainty
328.15	5

System: 1-decyl-3-methylpyridinium chloride; phases: Crystal, Liquid, Air at 1 atmosphere
Property: Normal melting temperature, K (Crystal); method: VISOBS
Normal melting temperature, K	uncertainty
337.15	5

System: 1-allyl-3-methylpyridinium chloride; phases: Glass, Liquid, Air at 1 atmosphere
Property: Triple point temperature, K (Glass); method: DTA:corrimp
Triple point temperature, K	uncertainty
300.65	5

System: 1-allyl-3-methylpyridinium chloride; phases: Crystal, Liquid, Air at 1 atmosphere
Property: Normal melting temperature, K (Crystal); method: VISOBS
Normal melting temperature, K	uncertainty
381.15	5

System: 1-ethyl-3-methylpyridinium bromide; phases: Crystal, Liquid, Air at 1 atmosphere
Property: Normal melting temperature, K (Crystal); method: DTA:corrimp
Normal melting temperature, K	uncertainty
419.15	5

System: 1-ethyl-3-methylpyridinium bromide; phases: Crystal, Liquid, Air at 1 atmosphere
Property: Normal melting temperature, K (Crystal); method: VISOBS
Normal melting temperature, K	uncertainty
436.15	5
