Measured thermophysical data. A study on the thermal decomposition behavior of derivatives of 1,S-diamino-IH-tetrazole (DAT): A new family of energetic heterocyclic-based salts
Source: Thermochim. Acta, 2005, 10.1016/j.tca.2005.06.034
Compound 1: 1,5-diamino-4-methyl-1H-tetrazolium dinitramide, C2H7N9O4, InChI=1S/C2H6N6.N3O4/c1-7-2(3)8(4)6-5-7;4-2(5)1-3(6)7/h3H,4H2,1H3;/q;-1/p+1
Compound 2: 1,5-diamino-4-methyl-4,5-dihydro-1H-tetrazol-2-ium azide, C2H7N9, InChI=1S/C2H6N6.N3/c1-7-2(3)8(4)6-5-7;1-3-2/h3H,4H2,1H3;/q;-1/p+1
Compound 3: 1,5-diamino-4-methyl-4,5-dihydro-1H-tetrazol-1-ium nitrate, C2H9N7O3, InChI=1S/C2H8N6.NO3/c1-7-2(3)8(4)6-5-7;2-1(3)4/h2H,3-4H2,1H3;/q;-1/p+1

System: 1,5-diamino-4-methyl-1H-tetrazolium dinitramide; phases: Crystal, Liquid, Air at 1 atmosphere
Property: Molar enthalpy of transition or fusion, kJ/mol (Crystal); method: DSC
Molar enthalpy of transition or fusion, kJ/mol	uncertainty
2.609395832e-05	6.6340572e-07

System: 1,5-diamino-4-methyl-1H-tetrazolium dinitramide; phases: Crystal, Liquid, Air at 1 atmosphere
Property: Normal melting temperature, K (Crystal); method: DTA
Normal melting temperature, K	uncertainty
357.1	6

System: 1,5-diamino-4-methyl-1H-tetrazolium dinitramide; phases: Crystal
Property: Mass density, kg/m3 (Crystal); method: X-ray
Temperature, K	Pressure, kPa	Mass density, kg/m3	uncertainty
571.3	101.325	1719	5

System: 1,5-diamino-4-methyl-4,5-dihydro-1H-tetrazol-2-ium azide; phases: Crystal, Liquid, Air at 1 atmosphere
Property: Molar enthalpy of transition or fusion, kJ/mol (Crystal); method: DSC
Molar enthalpy of transition or fusion, kJ/mol	uncertainty
2.687053644e-05	7.856882e-07

System: 1,5-diamino-4-methyl-4,5-dihydro-1H-tetrazol-2-ium azide; phases: Crystal, Liquid, Air at 1 atmosphere
Property: Normal melting temperature, K (Crystal); method: DTA
Normal melting temperature, K	uncertainty
406.15	1

System: 1,5-diamino-4-methyl-4,5-dihydro-1H-tetrazol-2-ium azide; phases: Crystal
Property: Mass density, kg/m3 (Crystal); method: X-ray
Temperature, K	Pressure, kPa	Mass density, kg/m3	uncertainty
571.3	101.325	1417	4

System: 1,5-diamino-4-methyl-4,5-dihydro-1H-tetrazol-1-ium nitrate; phases: Crystal, Liquid, Air at 1 atmosphere
Property: Molar enthalpy of transition or fusion, kJ/mol (Crystal); method: DSC
Molar enthalpy of transition or fusion, kJ/mol	uncertainty
2.160892792e-05	7.0848944e-07

System: 1,5-diamino-4-methyl-4,5-dihydro-1H-tetrazol-1-ium nitrate; phases: Crystal, Liquid, Air at 1 atmosphere
Property: Normal melting temperature, K (Crystal); method: DTA
Normal melting temperature, K	uncertainty
394.15	1

System: 1,5-diamino-4-methyl-4,5-dihydro-1H-tetrazol-1-ium nitrate; phases: Crystal
Property: Mass density, kg/m3 (Crystal); method: X-ray
Temperature, K	Pressure, kPa	Mass density, kg/m3	uncertainty
571.3	101.325	1506	2
