Measured thermophysical data. Synthesis and thermochemistry of two zinc borates, Zn2B6O11*7H2O and  Zn3B10O18*14H2O
Source: Thermochim. Acta, 2009, 10.1016/j.tca.2008.11.013
Compound 1: zinc(II) oxide, OZn, InChI=1S/O.Zn/q-2;+2
Compound 2: boric acid, BH3O3, InChI=1S/BH3O3/c2-1(3)4/h2-4H
Compound 3: water, H2O, InChI=1S/H2O/h1H2
Compound 4: boron zinc oxide (B6Zn2O11), hydrate (1:7), B6H14O18Zn2, InChI=1S/6B.7H2O.11O.2Zn/h;;;;;;7*1H2;;;;;;;;;;;;;/q6*+3;;;;;;;;11*-2;2*+2, purity 99%
Compound 5: boron zinc oxide (B10Zn3O18), hydrate (1:14), B10H28O32Zn3, InChI=1S/10B.14H2O.18O.3Zn/h;;;;;;;;;;14*1H2;;;;;;;;;;;;;;;;;;;;;/q10*+3;;;;;;;;;;;;;;;18*-2;3*+2, purity 99%

Reaction: 1 boron zinc oxide (B6Zn2O11), hydrate (1:7) + -2 zinc(II) oxide + -6 boric acid + 2 water
Property: Molar enthalpy of reaction, kJ/mol
-44.36

Reaction: 1 boron zinc oxide (B10Zn3O18), hydrate (1:14) + -3 zinc(II) oxide + -10 boric acid + 1 water
Property: Molar enthalpy of reaction, kJ/mol
-79.39
