Measured thermophysical data. Thermal analysis and vapour pressure of a new series of tungsten(VI)  oxo-alkoxide- -ketoesterate complex precursors for the chemical  vapour deposition of tungsten oxide
Source: Thermochim. Acta, 2008, 10.1016/j.tca.2008.04.018
Compound 1: oxotungsten, [methyl 3-oxobutanoato], tris(2-methyl-2-propanolato), C17H34O7W, InChI=1S/C5H7O3.3C4H9O.O.W/c1-4(6)3-5(7)8-2;3*1-4(2,3)5;;/h3H,1-2H3;3*1-3H3;;/q4*-1;;+4
Compound 2: oxotungsten, [ethyl 3-oxobutanoato], tris(2-methyl-2-propanolato), C18H36O7W, InChI=1S/C6H9O3.3C4H9O.O.W/c1-3-9-6(8)4-5(2)7;3*1-4(2,3)5;;/h4H,3H2,1-2H3;3*1-3H3;;/q4*-1;;+4

System: oxotungsten, [methyl 3-oxobutanoato], tris(2-methyl-2-propanolato); phases: Crystal, Gas
Property: Molar enthalpy of transition or fusion, kJ/mol (Crystal); method: Derived by Second law
Temperature, K	Molar enthalpy of transition or fusion, kJ/mol	uncertainty
360	46.3	1.8

System: oxotungsten, [ethyl 3-oxobutanoato], tris(2-methyl-2-propanolato); phases: Crystal, Gas
Property: Molar enthalpy of transition or fusion, kJ/mol (Crystal); method: Derived by Second law
Temperature, K	Molar enthalpy of transition or fusion, kJ/mol	uncertainty
360	42.7	1.8
