Measured thermophysical data. Solubilities of succinimide in different pure solvents and binary methanol+ethyl acetate solvent  mixtures
Source: Thermochim. Acta, 2012, 10.1016/j.tca.2012.03.007
Compound 1: succinimide, C4H5NO2, InChI=1S/C4H5NO2/c6-3-1-2-4(7)5-3/h1-2H2,(H,5,6,7), purity 99%
Compound 2: ethyl acetate, C4H8O2, InChI=1S/C4H8O2/c1-3-6-4(2)5/h3H2,1-2H3, purity 99.8%
Compound 3: acetonitrile, C2H3N, InChI=1S/C2H3N/c1-2-3/h1H3, purity 99.8%
Compound 4: ethanol, C2H6O, InChI=1S/C2H6O/c1-2-3/h3H,2H2,1H3, purity 99.8%
Compound 5: acetone, C3H6O, InChI=1S/C3H6O/c1-3(2)4/h1-2H3, purity 99.8%
Compound 6: tetrahydrofuran, C4H8O, InChI=1S/C4H8O/c1-2-4-5-3-1/h1-4H2, purity 99.8%
Compound 7: methanol, CH4O, InChI=1S/CH4O/c1-2/h2H,1H3, purity 99.8%
Compound 8: propan-2-ol, C3H8O, InChI=1S/C3H8O/c1-3(2)4/h3-4H,1-2H3, purity 99.8%
Compound 9: butan-1-ol, C4H10O, InChI=1S/C4H10O/c1-2-3-4-5/h5H,2-4H2,1H3, purity 99.8%

System: succinimide + ethyl acetate; phases: Liquid, Crystal
Fixed: Pressure, kPa = 101
Property: Mole fraction of succinimide (Liquid); method: Gravimetric method
Temperature, K	Mole fraction of succinimide	uncertainty
278.2	0.0215	0.001
283.2	0.0239	0.0006
288.2	0.0255	0.0004
293.7	0.0296	0.0018
298.2	0.0332	0.0006
303.2	0.0377	0.0014
308.2	0.0435	0.001
313.4	0.0491	0.0028
315.7	0.0515	0.0011
320.4	0.061	0.002
325.1	0.0711	0.0015

System: acetonitrile + succinimide; phases: Liquid, Crystal
Fixed: Pressure, kPa = 101
Property: Mole fraction of succinimide (Liquid); method: Gravimetric
Temperature, K	Mole fraction of succinimide	uncertainty
278.2	0.0401	0.0024
283.2	0.0461	0.0013
288.2	0.0534	0.0006
293.7	0.0638	0.0017
298.2	0.072	0.0033
303.2	0.0839	0.0011
308.2	0.0999	0.0013
313.4	0.1182	0.0011
315.7	0.1301	0.0015
320.4	0.153	0.0017
325.1	0.1829	0.0045

System: ethanol + succinimide; phases: Liquid, Crystal
Fixed: Pressure, kPa = 101
Property: Mole fraction of succinimide (Liquid); method: Gravimetric
Temperature, K	Mole fraction of succinimide	uncertainty
278.2	0.012	0.0014
283.2	0.0143	0.003
288.2	0.0166	0.0006
293.7	0.0209	0.0014
298.2	0.0246	0.001
303.2	0.0303	0.0014
308.2	0.0377	0.0007
313.4	0.048	0.0011
315.7	0.0535	0.0027
320.4	0.0668	0.001
325.1	0.0852	0.002

System: acetone + succinimide; phases: Liquid, Crystal
Fixed: Pressure, kPa = 101
Property: Mole fraction of succinimide (Liquid); method: Gravimetrcic
Temperature, K	Mole fraction of succinimide	uncertainty
278.2	0.0507	0.0005
283.2	0.0564	0.0011
288.2	0.0625	0.0009
293.7	0.0711	0.0022
298.2	0.0799	0.0034
303.2	0.0907	0.001
308.2	0.1041	0.0012
313.4	0.1203	0.001
315.7	0.1276	0.0012
320.4	0.153	0.0013
325.1	0.1751	0.0019

System: tetrahydrofuran + succinimide; phases: Liquid, Crystal
Fixed: Pressure, kPa = 101
Property: Mole fraction of succinimide (Liquid); method: Gravimetric
Temperature, K	Mole fraction of succinimide	uncertainty
278.2	0.0546	0.0032
283.2	0.0577	0.0018
288.2	0.0613	0.0007
293.7	0.0694	0.0046
298.2	0.077	0.0009
303.2	0.0865	0.0019
308.2	0.0976	0.0011
313.4	0.1189	0.0022
315.7	0.13	0.0017
320.4	0.1513	0.0019
325.1	0.1879	0.0017

System: methanol + succinimide; phases: Liquid, Crystal
Fixed: Pressure, kPa = 101
Property: Mole fraction of succinimide (Liquid); method: Gravimetric
Temperature, K	Mole fraction of succinimide	uncertainty
278.2	0.027	0.0007
283.2	0.0328	0.0036
288.2	0.0389	0.0013
293.7	0.0471	0.0008
298.2	0.056	0.001
303.2	0.0698	0.0018
308.2	0.0866	0.0017
313.4	0.109	0.0018
315.7	0.125	0.0021
320.4	0.1586	0.0021
325.1	0.1965	0.0048

System: propan-2-ol + succinimide; phases: Liquid, Crystal
Fixed: Pressure, kPa = 101
Property: Mole fraction of succinimide (Liquid); method: Gravimetric
Temperature, K	Mole fraction of succinimide	uncertainty
278.2	0.007	0.0008
283.2	0.0087	0.0008
288.2	0.011	0.0016
293.7	0.0146	0.0004
298.2	0.0178	0.0006
303.2	0.0218	0.0014
308.2	0.0286	0.0005
313.4	0.0371	0.0013
315.7	0.0409	0.0038
320.4	0.0528	0.0012
325.1	0.0671	0.0012

System: butan-1-ol + succinimide; phases: Liquid, Crystal
Fixed: Pressure, kPa = 101
Property: Mole fraction of succinimide (Liquid); method: Gravimetric
Temperature, K	Mole fraction of succinimide	uncertainty
278.2	0.0087	0.0024
283.2	0.0096	0.0016
288.2	0.0109	0.0034
293.7	0.0125	0.0018
298.2	0.015	0.0008
303.2	0.0181	0.001
308.2	0.022	0.0006
313.4	0.028	0.0014
315.7	0.0306	0.0018
320.4	0.038	0.002
325.1	0.0494	0.0028

System: methanol + succinimide + ethyl acetate; phases: Liquid, Crystal
Fixed: Pressure, kPa = 101
Property: Mole fraction of succinimide (Liquid); method: gravimetric
Mass fraction of methanol	Temperature, K	Mole fraction of succinimide	uncertainty
0.09	278.2	0.0346	0.0006
0.09	283.2	0.0379	0.0012
0.09	288.2	0.0437	0.0008
0.09	293.7	0.0496	0.0012
0.09	298.2	0.056	0.0016
0.09	303.2	0.0611	0.0022
0.09	308.2	0.07	0.0018
0.09	313.4	0.0792	0.0013
0.09	315.7	0.0834	0.0008
0.09	320.4	0.0946	0.0011
0.09	325.1	0.1049	0.0011
0.26	278.2	0.0476	0.0005
0.26	283.2	0.0519	0.0012
0.26	288.2	0.0587	0.0007
0.26	293.7	0.0678	0.003
0.26	298.2	0.0763	0.0011
0.26	303.2	0.0867	0.0008
0.26	308.2	0.0993	0.0008
0.26	313.4	0.1163	0.0014
0.26	315.7	0.1248	0.0043
0.26	320.4	0.1456	0.0025
0.26	325.1	0.178	0.0011
0.44	278.2	0.0447	0.001
0.44	283.2	0.0505	0.001
0.44	288.2	0.0591	0.0015
0.44	293.7	0.0697	0.0007
0.44	298.2	0.0797	0.0006
0.44	303.2	0.0908	0.0017
0.44	308.2	0.1075	0.0008
0.44	313.4	0.1268	0.0021
0.44	315.7	0.134	0.0022
0.44	320.4	0.1667	0.0019
0.44	325.1	0.1976	0.005
0.61	278.2	0.0384	0.0006
0.61	283.2	0.0438	0.001
0.61	288.2	0.0517	0.0034
0.61	293.7	0.0627	0.0015
0.61	298.2	0.0718	0.0006
0.61	303.2	0.0845	0.0052
0.61	308.2	0.1008	0.0016
0.61	313.4	0.1242	0.0011
0.61	315.7	0.1349	0.0014
0.61	320.4	0.1661	0.003
0.61	325.1	0.201	0.0017
0.79	278.2	0.0329	0.0005
0.79	283.2	0.038	0.0016
0.79	288.2	0.0441	0.0038
0.79	293.7	0.0542	0.0017
0.79	298.2	0.0636	0.0011
0.79	303.2	0.0764	0.0007
0.79	308.2	0.092	0.001
0.79	313.4	0.1173	0.0012
0.79	315.7	0.132	0.0017
0.79	320.4	0.1642	0.0021
0.79	325.1	0.2017	0.0028
