Measured thermophysical data. Thermodynamic and phase diagram investigations of UF4 in (Li0.59K0.41)Cl melt
Source: Thermochim. Acta, 2019, 10.1016/j.tca.2019.178334
Compound 1: potassium chloride, ClK, InChI=1S/ClH.K/h1H;/q;+1/p-1, purity 99.9%
Compound 2: lithium chloride, ClLi, InChI=1S/ClH.Li/h1H;/q;+1/p-1, purity 99.9%
Compound 3: uranium tetrafluoride, F4U, InChI=1S/4FH.U/h4*1H;/q;;;;+4/p-4

System: uranium tetrafluoride; phases: Crystal
Fixed: Pressure, kPa = 101.325
Property: Molar enthalpy, kJ/mol (Crystal); method: Drop calorimetry
Temperature, K	Molar enthalpy, kJ/mol	uncertainty
375	9.91	0.241
425	16.27	0.437
476	22.37	0.687
526	28.88	0.972
538	29.309	0.848
577	33.9	0.84
590	35.49	1.504
612	39.195	0.911
640	41.556	1.436
673	45.882	1.648
691	49.054	2.149
742	56	1.373
791	60.551	1.766
841	67.104	2.017
871	72.042	1.959
891	75.291	1.772
913	77.345	2.02
941	80.694	2.316
990	88.266	2.64
1021	90.931	2.247
1041	94.534	4.262
1088	99.962	4.708
1118	104.969	7.528
1143	108.05	5.572
1189	113.711	7.685

System: potassium chloride + lithium chloride; phases: Liquid
Fixed: Pressure, kPa = 101
Fixed: Temperature, K = 933
Property: Excess molar enthalpy (molar enthalpy of mixing), kJ/mol (Liquid); method: Calvet calorimetry
Mole fraction of potassium chloride	Excess molar enthalpy (molar enthalpy of mixing), kJ/mol	uncertainty
0	0	0.001
0.026	-0.49	0.041
0.073	-1.288	0.069
0.128	-2.04	0.106
0.188	-2.668	0.137
0.24	-3.266	0.166
0.33	-4.036	0.205
0.371	-4.286	0.217
0.418	-4.433	0.225
0	0	0.001
0.061	-1.002	0.06
0.105	-1.555	0.083
0.162	-2.269	0.117
0.214	-2.951	0.151
0.275	-3.602	0.183
0.298	-3.7	0.188
0.427	-4.342	0.22

System: potassium chloride + lithium chloride + uranium tetrafluoride; phases: Crystal, Crystal, Crystal, Liquid, Air at 1 atmosphere
Property: Eutectic temperature, K (Crystal); method: DTA
Eutectic temperature, K	uncertainty
610.9	5

System: potassium chloride + lithium chloride + uranium tetrafluoride; phases: Liquid
Fixed: Pressure, kPa = 101
Fixed: Temperature, K = 933
Fixed: Solvent: Mole fraction of potassium chloride = 0.41
Property: Molar enthalpy of mixing with solvent, kJ/mol of uranium tetrafluoride (Liquid); method: Calvet calorimetry
Mole fraction of uranium tetrafluoride	Molar enthalpy of mixing with solvent, kJ/mol of uranium tetrafluoride	uncertainty
0	0	0.001
0.001	-0.011	0.007
0.009	-0.046	0.057
0.019	-0.12	0.111
0.027	-0.119	0.162
0.036	-0.152	0.218
0.039	-0.148	0.236
0.046	-0.106	0.287
0.055	-0.042	0.351
0.064	0.031	0.417
0.072	0.12	0.477
0	0	0.001
0.005	-0.016	0.04
0.015	-0.072	0.091
0.026	-0.091	0.158
0.032	-0.113	0.196
0.039	-0.12	0.24
0.046	-0.106	0.287
0.049	-0.079	0.309
0.056	-0.019	0.361
0.065	0.067	0.428
0.068	0.097	0.45
0	0	0.001
0.01	-0.067	0.062
0.024	-0.107	0.144
0.033	-0.128	0.2
0.042	-0.125	0.259
0.05	-0.077	0.315
0.06	0.004	0.39
0.068	0.085	0.45

System: potassium chloride + lithium chloride + uranium tetrafluoride; phases: Liquid, Crystal
Fixed: Pressure, kPa = 101
Fixed: Solvent: Mole fraction of potassium chloride = 0.41
Property: Solid-liquid equilibrium temperature, K (Liquid); method: DTA
Mole fraction of uranium tetrafluoride	Solid-liquid equilibrium temperature, K	uncertainty
0.009	621	22.8
0.013	661.9	25.4
0.0145	687.2	30.2
0.019	748.5	24.1
0.023	779.7	21.1
0.025	805.7	20.1
0.031	851.8	14.9
0.039	883.9	13.7
0.043	908.8	14.3
0.051	946.4	14.9
0.059	996.6	14.7
0.067	1032.9	13
0.076	1067.5	11.6
0.096	1119.2	12
0.127	1155.2	11
0.009	625.8	20.6
0.013	668.9	26
0.0145	693.5	29.6
0.019	751.3	24.1
0.023	770.3	20.5
0.025	811.5	19.7
0.031	861	14.8
0.039	889.3	13.8
0.043	917.6	14.1
0.051	960.3	14.9
0.059	1000.4	14.7
0.067	1046.6	13
0.076	1088.7	11.4
0.096	1132.3	12
