Measured thermophysical data. Solubility in binary solvent mixtures: pyrene dissolved in alcohol +  toluene mixtures
Source: Thermochim. Acta, 2013, 10.1016/j.tca.2012.10.023
Compound 1: pyrene, C16H10, InChI=1S/C16H10/c1-3-11-7-9-13-5-2-6-14-10-8-12(4-1)15(11)16(13)14/h1-10H
Compound 2: toluene, C7H8, InChI=1S/C7H8/c1-7-5-3-2-4-6-7/h2-6H,1H3, purity 99%
Compound 3: methanol, CH4O, InChI=1S/CH4O/c1-2/h2H,1H3, purity 99.9%
Compound 4: ethanol, C2H6O, InChI=1S/C2H6O/c1-2-3/h3H,2H2,1H3, purity 99.93%
Compound 5: propan-2-ol, C3H8O, InChI=1S/C3H8O/c1-3(2)4/h3-4H,1-2H3, purity 99.94%

System: methanol + toluene + pyrene; phases: Liquid, Crystal
Fixed: Pressure, kPa = 101
Property: Mole fraction of pyrene (Liquid); method: Gravimetric Method
Temperature, K	Solvent: Amount ratio of component to other component of binary solvent of methanol	Mole fraction of pyrene	uncertainty
283.15	2	0.0107	0.0006
283.15	7	0.0035	0.0002
283.25	0.5	0.0293	0.0018
283.35	1	0.0203	0.0012
283.45	0.142857	0.041	0.0025
290.15	0.142857	0.0495	0.003
290.15	0.5	0.0364	0.0022
290.15	1	0.0244	0.0015
290.15	2	0.0139	0.0008
290.15	7	0.0045	0.0003
297.05	2	0.0181	0.0011
297.15	7	0.0052	0.0003
297.25	0.142857	0.06	0.0036
297.25	0.5	0.0443	0.0027
297.25	1	0.0312	0.0019
304.15	0.142857	0.0704	0.0042
304.15	2	0.0222	0.0013
304.15	7	0.0064	0.0004
304.25	0.5	0.0539	0.0032
304.35	1	0.0386	0.0023
310.95	7	0.0077	0.0005
311.15	0.142857	0.0867	0.0052
311.15	0.5	0.0656	0.004
311.15	1	0.0474	0.0029
311.15	2	0.0273	0.0016
317.95	7	0.0097	0.0006
318.05	0.142857	0.1052	0.0064
318.05	0.5	0.0805	0.0049
318.05	1	0.0585	0.0035
318.05	2	0.0341	0.0021
324.55	7	0.0121	0.0007
324.85	0.142857	0.1273	0.0077
324.85	1	0.0731	0.0044
325.15	0.5	0.1005	0.0061
325.15	2	0.0428	0.0026
333.15	0.142857	0.1608	0.0097
333.15	0.5	0.126	0.0076
333.15	1	0.0969	0.0059
333.15	2	0.0576	0.0035
333.15	7	0.0159	0.001

System: ethanol + toluene + pyrene; phases: Liquid, Crystal
Fixed: Pressure, kPa = 101
Property: Mole fraction of pyrene (Liquid); method: Gravimetric Method
Temperature, K	Solvent: Amount ratio of component to other component of binary solvent of ethanol	Mole fraction of pyrene	uncertainty
283.25	0.142857	0.0405	0.0024
283.25	7	0.0044	0.0003
283.35	0.5	0.0289	0.0017
283.35	2	0.0112	0.0007
283.45	1	0.0191	0.0012
289.85	2	0.0144	0.0009
290.15	0.142857	0.0489	0.0029
290.15	0.5	0.0357	0.0022
290.15	7	0.0057	0.0003
290.25	1	0.0247	0.0015
297.15	7	0.0066	0.0004
297.25	0.142857	0.0592	0.0036
297.25	0.5	0.0438	0.0026
297.25	1	0.0304	0.0018
297.85	2	0.0186	0.0011
303.95	2	0.0224	0.0014
304.25	0.5	0.0534	0.0032
304.35	0.142857	0.0722	0.0044
304.35	1	0.0366	0.0022
304.45	7	0.0083	0.0005
311.05	7	0.0101	0.0006
311.15	0.142857	0.0872	0.0053
311.15	0.5	0.0653	0.0039
311.15	1	0.0457	0.0028
311.75	2	0.0281	0.0017
318.05	7	0.0126	0.0008
318.15	2	0.0342	0.0021
318.25	0.142857	0.1056	0.0064
318.25	1	0.0568	0.0034
318.45	0.5	0.0811	0.0049
323.45	2	0.0407	0.0025
324.35	7	0.0154	0.0009
324.65	0.142857	0.1274	0.0077
324.85	0.5	0.099	0.006
324.85	1	0.0697	0.0042
330.15	2	0.0512	0.0031
333.15	0.142857	0.1614	0.0098
333.15	0.5	0.129	0.0078
333.15	1	0.0924	0.0056
333.15	7	0.0202	0.0012
338.15	2	0.0676	0.0041

System: propan-2-ol + toluene + pyrene; phases: Liquid, Crystal
Fixed: Pressure, kPa = 101
Property: Mole fraction of pyrene (Liquid); method: Gravimetric Method
Temperature, K	Solvent: Amount ratio of component to other component of binary solvent of propan-2-ol	Mole fraction of pyrene	uncertainty
283.15	0.142857	0.0397	0.0024
283.25	0.5	0.0287	0.0017
283.35	1	0.02	0.0012
283.35	2	0.0106	0.0006
283.35	7	0.004	0.0002
289.95	1	0.0233	0.0014
290.05	7	0.0049	0.0003
290.15	0.142857	0.0456	0.0027
290.15	0.5	0.0346	0.0021
290.15	2	0.0136	0.0008
296.35	0.5	0.0411	0.0025
297.15	0.142857	0.0584	0.0035
297.15	1	0.03	0.0018
297.15	2	0.0171	0.001
297.25	7	0.0065	0.0004
304.15	0.142857	0.0704	0.0042
304.15	1	0.0353	0.0021
304.15	2	0.0208	0.0013
304.15	7	0.0081	0.0005
304.25	0.5	0.0513	0.0031
310.85	0.142857	0.0852	0.0051
310.95	2	0.026	0.0016
310.95	7	0.0102	0.0006
311.15	0.5	0.0622	0.0038
311.15	1	0.0434	0.0026
317.95	0.142857	0.1036	0.0063
317.95	2	0.0327	0.002
318.05	7	0.0127	0.0008
318.15	0.5	0.0771	0.0047
318.15	1	0.0539	0.0032
324.85	0.142857	0.1288	0.0078
324.85	0.5	0.0949	0.0057
324.85	1	0.0671	0.004
324.85	7	0.0161	0.001
324.95	2	0.0411	0.0025
333.15	0.142857	0.1582	0.0096
333.15	2	0.0564	0.0034
333.35	0.5	0.1239	0.0075
333.35	1	0.0893	0.0054
333.35	7	0.0202	0.0012
