Measured thermophysical data. The standard enthalpy of formation of superionic solid electrolyte Li7La3Zr2O12
Source: Thermochim. Acta, 2017, 10.1016/j.tca.2017.09.019
Compound 1: lanthanum, La, InChI=1S/La
Compound 2: lithium, Li, InChI=1S/Li
Compound 3: zirconium, Zr, InChI=1S/Zr
Compound 4: oxygen, O2, InChI=1S/O2/c1-2
Compound 5: lanthanum lithium zirconium oxide (La3Li7Zr2O12), La3Li7O12Zr2, InChI=1S/3La.7Li.12O.2Zr/q3*+3;7*+1;12*-2;2*+4

Reaction: -3 lanthanum + -7 lithium + -2 zirconium + 1 lanthanum lithium zirconium oxide (La3Li7Zr2O12) + -6 oxygen
Property: Molar enthalpy of reaction, kJ/mol
-7152.6
