Measured thermophysical data. Excess heat capacities of 1-methyl pyrrolidin-2-one and pyridine orpicolines mixtures
Source: Thermochim. Acta, 2013, 10.1016/j.tca.2013.06.033
Compound 1: N-methylpyrrolidone, C5H9NO, InChI=1S/C5H9NO/c1-6-4-2-3-5(6)7/h2-4H2,1H3, purity 99%
Compound 2: pyridine, C5H5N, InChI=1S/C5H5N/c1-2-4-6-5-3-1/h1-5H, purity 99%
Compound 3: 2-methylpyridine, C6H7N, InChI=1S/C6H7N/c1-6-4-2-3-5-7-6/h2-5H,1H3, purity 98%
Compound 4: 3-methylpyridine, C6H7N, InChI=1S/C6H7N/c1-6-3-2-4-7-5-6/h2-5H,1H3, purity 99%
Compound 5: 4-methylpyridine, C6H7N, InChI=1S/C6H7N/c1-6-2-4-7-5-3-6/h2-5H,1H3, purity 99%

System: N-methylpyrrolidone; phases: Liquid
Fixed: Pressure, kPa = 101.325
Property: Molar heat capacity at constant pressure, J/K/mol (Liquid); method: Small sample (50 mg) DSC
Temperature, K	Molar heat capacity at constant pressure, J/K/mol	uncertainty
293.15	165.44	3.31
298.15	166.22	3.32
303.15	166.92	3.34

System: pyridine; phases: Liquid
Fixed: Pressure, kPa = 101.325
Property: Molar heat capacity at constant pressure, J/K/mol (Liquid); method: Small sample (50 mg) DSC
Temperature, K	Molar heat capacity at constant pressure, J/K/mol	uncertainty
293.15	130.49	2.61
298.15	131.74	2.63
303.15	132.71	2.65

System: 2-methylpyridine; phases: Liquid
Fixed: Pressure, kPa = 101.325
Property: Molar heat capacity at constant pressure, J/K/mol (Liquid); method: Small sample (50 mg) DSC
Temperature, K	Molar heat capacity at constant pressure, J/K/mol	uncertainty
293.15	157.07	3.14
298.15	158.86	3.18
303.15	160.14	3.2

System: 3-methylpyridine; phases: Liquid
Fixed: Pressure, kPa = 101.325
Property: Molar heat capacity at constant pressure, J/K/mol (Liquid); method: Small sample (50 mg) DSC
Temperature, K	Molar heat capacity at constant pressure, J/K/mol	uncertainty
293.15	156.05	3.12
298.15	158.75	3.18
303.15	160.83	3.22

System: 4-methylpyridine; phases: Liquid
Fixed: Pressure, kPa = 101.325
Property: Molar heat capacity at constant pressure, J/K/mol (Liquid); method: Small sample (50 mg) DSC
Temperature, K	Molar heat capacity at constant pressure, J/K/mol	uncertainty
293.15	155.88	3.12
298.15	158.52	3.17
303.15	160.84	3.22

System: pyridine + N-methylpyrrolidone; phases: Liquid
Fixed: Pressure, kPa = 101
Property: Molar heat capacity at constant pressure, J/K/mol (Liquid); method: Small sample (50 mg) DSC
Temperature, K	Mole fraction of N-methylpyrrolidone	Molar heat capacity at constant pressure, J/K/mol	uncertainty
293.15	0.0523	133.17	2.66
293.15	0.0965	135.44	2.71
293.15	0.1328	137.25	2.75
293.15	0.1732	139.21	2.78
293.15	0.2154	141.33	2.83
293.15	0.2531	143.14	2.86
293.15	0.2932	145.09	2.9
293.15	0.3326	147.06	2.94
293.15	0.3745	149.04	2.98
293.15	0.4123	150.87	3.02
293.15	0.4497	152.59	3.05
293.15	0.4841	154.24	3.08
293.15	0.5243	156.03	3.12
293.15	0.5621	157.63	3.15
293.15	0.6057	159.41	3.19
293.15	0.6439	160.92	3.22
293.15	0.6813	162.25	3.25
293.15	0.7221	163.5	3.27
293.15	0.7611	164.55	3.29
293.15	0.7988	165.38	3.31
293.15	0.8367	166.02	3.32
293.15	0.8711	166.36	3.33
293.15	0.9087	166.49	3.33
293.15	0.9489	166.27	3.33
298.15	0.0523	134.46	2.69
298.15	0.0965	136.74	2.73
298.15	0.1328	138.56	2.77
298.15	0.1732	140.54	2.81
298.15	0.2154	142.65	2.85
298.15	0.2531	144.45	2.89
298.15	0.2932	146.42	2.93
298.15	0.3326	148.35	2.97
298.15	0.3745	150.33	3.01
298.15	0.4123	152.17	3.04
298.15	0.4497	153.87	3.08
298.15	0.4841	155.51	3.11
298.15	0.5243	157.25	3.15
298.15	0.5621	158.8	3.2
298.15	0.6057	160.65	3.21
298.15	0.6439	162.08	3.24
298.15	0.6813	163.4	3.27
298.15	0.7221	164.69	3.29
298.15	0.7611	165.68	3.31
298.15	0.7988	166.51	3.33
298.15	0.8367	167.1	3.34
298.15	0.8711	167.4	3.35
298.15	0.9087	167.42	3.35
298.15	0.9489	167.18	3.34
303.15	0.0523	135.55	2.71
303.15	0.0965	137.8	2.76
303.15	0.1328	139.68	2.79
303.15	0.1732	141.71	2.83
303.15	0.2154	143.77	2.88
303.15	0.2531	145.54	2.91
303.15	0.2932	147.52	2.95
303.15	0.3326	149.36	2.99
303.15	0.3745	151.4	3.03
303.15	0.4123	153.17	3.06
303.15	0.4497	154.92	3.1
303.15	0.4841	156.51	3.13
303.15	0.5243	158.26	3.17
303.15	0.5621	159.93	3.2
303.15	0.6057	161.74	3.23
303.15	0.6439	163.17	3.26
303.15	0.6813	164.49	3.29
303.15	0.7221	165.77	3.32
303.15	0.7611	166.84	3.34
303.15	0.7988	167.63	3.35
303.15	0.8367	168.14	3.36
303.15	0.8711	168.41	3.37
303.15	0.9087	168.47	3.37
303.15	0.9489	168.06	3.36

System: 2-methylpyridine + N-methylpyrrolidone; phases: Liquid
Fixed: Pressure, kPa = 101
Property: Molar heat capacity at constant pressure, J/K/mol (Liquid); method: Small sample (50 mg) DSC
Temperature, K	Mole fraction of N-methylpyrrolidone	Molar heat capacity at constant pressure, J/K/mol	uncertainty
293.15	0.0583	156.42	3.13
293.15	0.0974	156.85	3.14
293.15	0.1312	157.41	3.15
293.15	0.1745	158.77	3.18
293.15	0.2137	160.21	3.2
293.15	0.2543	162.06	3.24
293.15	0.2929	163.77	3.28
293.15	0.3321	165.66	3.31
293.15	0.3718	167.59	3.35
293.15	0.4139	169.59	3.39
293.15	0.4521	171.21	3.42
293.15	0.4918	172.75	3.46
293.15	0.5312	174.01	3.48
293.15	0.5667	174.85	3.5
293.15	0.6043	175.6	3.51
293.15	0.6439	176.11	3.52
293.15	0.6872	176.13	3.52
293.15	0.7228	175.95	3.52
293.15	0.761	175.47	3.51
293.15	0.8089	174.36	3.49
293.15	0.8436	173.17	3.46
293.15	0.8789	171.89	3.44
293.15	0.9112	170.31	3.41
293.15	0.9441	168.7	3.37
298.15	0.0583	158.21	3.16
298.15	0.0974	158.53	3.17
298.15	0.1312	159.2	3.18
298.15	0.1745	160.37	3.21
298.15	0.2137	161.89	3.24
298.15	0.2543	163.48	3.27
298.15	0.2929	165.16	3.3
298.15	0.3321	166.97	3.34
298.15	0.3718	168.81	3.38
298.15	0.4139	170.56	3.41
298.15	0.4521	172.09	3.44
298.15	0.4918	173.57	3.47
298.15	0.5312	174.73	3.49
298.15	0.5667	175.61	3.51
298.15	0.6043	176.22	3.52
298.15	0.6439	176.72	3.53
298.15	0.6872	176.8	3.54
298.15	0.7228	176.52	3.53
298.15	0.761	175.98	3.52
298.15	0.8089	174.98	3.5
298.15	0.8436	173.8	3.48
298.15	0.8789	172.51	3.45
298.15	0.9112	171	3.42
298.15	0.9441	169.35	3.39
303.15	0.0583	159.58	3.19
303.15	0.0974	159.98	3.2
303.15	0.1312	160.58	3.21
303.15	0.1745	161.64	3.23
303.15	0.2137	163	3.26
303.15	0.2543	164.58	3.29
303.15	0.2929	166.16	3.32
303.15	0.3321	167.93	3.36
303.15	0.3718	169.58	3.39
303.15	0.4139	171.26	3.43
303.15	0.4521	172.79	3.46
303.15	0.4918	174.02	3.48
303.15	0.5312	175.18	3.5
303.15	0.5667	176	3.52
303.15	0.6043	176.7	3.53
303.15	0.6439	177.07	3.54
303.15	0.6872	177.16	3.54
303.15	0.7228	176.87	3.54
303.15	0.761	176.45	3.53
303.15	0.8089	175.32	3.51
303.15	0.8436	174.33	3.49
303.15	0.8789	172.93	3.46
303.15	0.9112	171.57	3.43
303.15	0.9441	169.96	3.4

System: 3-methylpyridine + N-methylpyrrolidone; phases: Liquid
Fixed: Pressure, kPa = 101
Property: Molar heat capacity at constant pressure, J/K/mol (Liquid); method: Small sample (50 mg) DSC
Temperature, K	Mole fraction of N-methylpyrrolidone	Molar heat capacity at constant pressure, J/K/mol	uncertainty
293.15	0.0572	158.15	3.16
293.15	0.0981	159.65	3.19
293.15	0.1356	160.97	3.22
293.15	0.1723	162.26	3.25
293.15	0.2154	163.73	3.27
293.15	0.2546	165.07	3.3
293.15	0.2939	166.54	3.33
293.15	0.3312	167.83	3.36
293.15	0.3717	169.28	3.39
293.15	0.4121	170.68	3.41
293.15	0.4519	172.08	3.44
293.15	0.4934	173.39	3.47
293.15	0.5321	174.58	3.49
293.15	0.5764	175.84	3.52
293.15	0.6129	176.66	3.53
293.15	0.6519	177.3	3.55
293.15	0.6898	177.81	3.56
293.15	0.721	177.79	3.56
293.15	0.7621	177.73	3.55
293.15	0.7996	177.17	3.54
293.15	0.8312	176.38	3.53
293.15	0.8765	174.73	3.49
293.15	0.9121	172.8	3.46
293.15	0.9532	169.82	3.4
298.15	0.0572	160.91	3.22
298.15	0.0981	162.47	3.25
298.15	0.1356	163.81	3.28
298.15	0.1723	165.07	3.3
298.15	0.2154	166.62	3.33
298.15	0.2546	168.03	3.36
298.15	0.2939	169.49	3.39
298.15	0.3312	170.84	3.42
298.15	0.3717	172.35	3.45
298.15	0.4121	173.92	3.48
298.15	0.4519	175.41	3.51
298.15	0.4934	176.79	3.54
298.15	0.5321	178.09	3.56
298.15	0.5764	179.45	3.59
298.15	0.6129	180.39	3.61
298.15	0.6519	181.09	3.62
298.15	0.6898	181.56	3.63
298.15	0.721	181.63	3.63
298.15	0.7621	181.39	3.63
298.15	0.7996	180.76	3.62
298.15	0.8312	179.72	3.59
298.15	0.8765	177.64	3.55
298.15	0.9121	175.23	3.5
298.15	0.9532	171.6	3.43
303.15	0.0572	163.27	3.27
303.15	0.0981	164.79	3.3
303.15	0.1356	166.32	3.33
303.15	0.1723	167.66	3.35
303.15	0.2154	169.25	3.39
303.15	0.2546	170.72	3.41
303.15	0.2939	172.24	3.44
303.15	0.3312	173.78	3.48
303.15	0.3717	175.31	3.51
303.15	0.4121	176.95	3.54
303.15	0.4519	177.53	3.55
303.15	0.4934	179.95	3.6
303.15	0.5321	181.36	3.63
303.15	0.5764	182.65	3.65
303.15	0.6129	183.58	3.67
303.15	0.6519	184.33	3.69
303.15	0.6898	184.82	3.7
303.15	0.721	184.87	3.7
303.15	0.7621	184.58	3.69
303.15	0.7996	183.67	3.67
303.15	0.8312	182.47	3.65
303.15	0.8765	179.89	3.6
303.15	0.9121	177.25	3.55
303.15	0.9532	173.08	3.46

System: 4-methylpyridine + N-methylpyrrolidone; phases: Liquid
Fixed: Pressure, kPa = 101
Property: Molar heat capacity at constant pressure, J/K/mol (Liquid); method: Small sample (50 mg) DSC
Temperature, K	Mole fraction of N-methylpyrrolidone	Molar heat capacity at constant pressure, J/K/mol	uncertainty
293.15	0.0487	157.6	3.15
293.15	0.0877	158.99	3.18
293.15	0.1221	160.26	3.21
293.15	0.1654	161.7	3.23
293.15	0.2012	163.03	3.26
293.15	0.2438	164.5	3.29
293.15	0.2837	165.87	3.32
293.15	0.3215	167.31	3.35
293.15	0.3657	168.83	3.38
293.15	0.4167	170.67	3.41
293.15	0.4532	171.85	3.44
293.15	0.4965	173.32	3.47
293.15	0.5328	174.33	3.49
293.15	0.5764	175.56	3.51
293.15	0.6124	176.28	3.53
293.15	0.6532	177.06	3.54
293.15	0.6936	177.42	3.55
293.15	0.7324	177.57	3.55
293.15	0.7721	177.34	3.55
293.15	0.8128	176.57	3.53
293.15	0.8511	175.5	3.51
293.15	0.8914	173.66	3.47
293.15	0.9265	171.62	3.43
293.15	0.9497	169.97	3.4
298.15	0.0487	160.33	3.21
298.15	0.0877	161.7	3.23
298.15	0.1221	162.94	3.26
298.15	0.1654	164.4	3.29
298.15	0.2012	165.74	3.31
298.15	0.2438	167.25	3.35
298.15	0.2837	168.6	3.37
298.15	0.3215	170.02	3.4
298.15	0.3657	171.58	3.43
298.15	0.4167	173.38	3.47
298.15	0.4532	174.55	3.49
298.15	0.4965	176.01	3.52
298.15	0.5328	177.05	3.54
298.15	0.5764	178.22	3.56
298.15	0.6124	178.95	3.58
298.15	0.6532	179.59	3.59
298.15	0.6936	180.03	3.6
298.15	0.7324	180.05	3.6
298.15	0.7721	179.6	3.59
298.15	0.8128	178.73	3.57
298.15	0.8511	177.44	3.55
298.15	0.8914	175.42	3.51
298.15	0.9265	173.07	3.46
298.15	0.9497	171.3	3.43
303.15	0.0487	162.79	3.26
303.15	0.0877	164.2	3.28
303.15	0.1221	165.41	3.31
303.15	0.1654	166.99	3.34
303.15	0.2012	168.19	3.36
303.15	0.2438	169.68	3.39
303.15	0.2837	171.09	3.42
303.15	0.3215	172.43	3.45
303.15	0.3657	174.09	3.48
303.15	0.4167	175.81	3.52
303.15	0.4532	177.14	3.54
303.15	0.4965	178.55	3.57
303.15	0.5328	179.59	3.59
303.15	0.5764	180.74	3.61
303.15	0.6124	181.51	3.63
303.15	0.6532	182.16	3.64
303.15	0.6936	182.55	3.65
303.15	0.7324	182.56	3.65
303.15	0.7721	182.1	3.64
303.15	0.8128	181.03	3.62
303.15	0.8511	179.6	3.59
303.15	0.8914	177.32	3.55
303.15	0.9265	174.73	3.49
303.15	0.9497	172.57	3.45
