Measured thermophysical data. Solvation behaviour of dipeptides of alanine in aqueous solutions of antibacterial drug ampicillin  at different temperatures
Source: Thermochim. Acta, 2013, 10.1016/j.tca.2013.09.006
Compound 1: 6-[D-(2-amino-2-phenylacetyl)amino]-3,3-dimethyl-7-oxo-4-thia-1-azabicyclo[3.2.0]heptane-2-carboxylic acid, C16H19N3O4S, InChI=1S/C16H19N3O4S/c1-16(2)11(15(22)23)19-13(21)10(14(19)24-16)18-12(20)9(17)8-6-4-3-5-7-8/h3-7,9-11,14H,17H2,1-2H3,(H,18,20)(H,22,23), purity 99%
Compound 2: L-alanyl-L-alanine, C6H12N2O3, InChI=1S/C6H12N2O3/c1-3(7)5(9)8-4(2)6(10)11/h3-4H,7H2,1-2H3,(H,8,9)(H,10,11)/t3-,4-/m0/s1, purity 99%
Compound 3: L-alanyl-L-valine, C8H16N2O3, InChI=1S/C8H16N2O3/c1-4(2)6(8(12)13)10-7(11)5(3)9/h4-6H,9H2,1-3H3,(H,10,11)(H,12,13)/t5-,6-/m0/s1, purity 99%
Compound 4: L-alanyl-L-leucine, C9H18N2O3, InChI=1S/C9H18N2O3/c1-5(2)4-7(9(13)14)11-8(12)6(3)10/h5-7H,4,10H2,1-3H3,(H,11,12)(H,13,14)/t6-,7-/m0/s1, purity 99%
Compound 5: water, H2O, InChI=1S/H2O/h1H2

System: water; phases: Liquid
Fixed: Pressure, kPa = 101
Property: Mass density, kg/m3 (Liquid); method: Vibrating tube method
Temperature, K	Mass density, kg/m3	uncertainty
305.15	995.09	0.105
310.15	993.403	0.105
315.15	991.51	0.105

System: water; phases: Liquid
Fixed: Pressure, kPa = 101
Property: Speed of sound, m/s (Liquid); method: vibrating tube
Temperature, K	Speed of sound, m/s	uncertainty
305.15	1513.49	2
310.15	1523.5	2
315.15	1532.17	2

System: 6-[D-(2-amino-2-phenylacetyl)amino]-3,3-dimethyl-7-oxo-4-thia-1-azabicyclo[3.2.0]heptane-2-carboxylic acid + L-alanyl-L-alanine + water; phases: Liquid
Fixed: Pressure, kPa = 101
Property: Mass density, kg/m3 (Liquid); method: Vibrating tube method
Temperature, K	Molality, mol/kg of L-alanyl-L-alanine	Solvent: Molality, mol/kg of 6-[D-(2-amino-2-phenylacetyl)amino]-3,3-dimethyl-7-oxo-4-thia-1-azabicyclo[3.2.0]heptane-2-carboxylic acid	Mass density, kg/m3	uncertainty
305.15	0	0	995.09	0.154
305.15	0.00215	0	995.223	0.154
305.15	0.00421	0	995.35	0.154
305.15	0.00596	0	995.458	0.154
305.15	0.00831	0	995.604	0.154
305.15	0.00955	0	995.68	0.154
305.15	0.01169	0	995.812	0.154
305.15	0.01422	0	995.968	0.154
305.15	0.01594	0	996.074	0.154
305.15	0.01778	0	996.187	0.154
305.15	0.01983	0	996.314	0.154
310.15	0	0	993.403	0.154
310.15	0.00215	0	993.535	0.154
310.15	0.00421	0	993.662	0.154
310.15	0.00596	0	993.769	0.154
310.15	0.00831	0	993.913	0.154
310.15	0.00955	0	993.989	0.154
310.15	0.01169	0	994.12	0.154
310.15	0.01422	0	994.275	0.154
310.15	0.01594	0	994.38	0.154
310.15	0.01778	0	994.493	0.154
310.15	0.01983	0	994.618	0.154
315.15	0	0	991.51	0.155
315.15	0.00215	0	991.641	0.155
315.15	0.00421	0	991.767	0.155
315.15	0.00596	0	991.873	0.155
315.15	0.00831	0	992.016	0.155
315.15	0.00955	0	992.092	0.155
315.15	0.01169	0	992.222	0.155
315.15	0.01422	0	992.376	0.155
315.15	0.01594	0	992.48	0.155
315.15	0.01778	0	992.592	0.155
315.15	0.01983	0	992.716	0.155
305.15	0	0.0005	995.062	0.154
305.15	0.00194	0.0005	995.18	0.154
305.15	0.00392	0.0005	995.3	0.154
305.15	0.00604	0.0005	995.429	0.154
305.15	0.00794	0.0005	995.545	0.154
305.15	0.00996	0.0005	995.667	0.154
305.15	0.01207	0.0005	995.795	0.154
305.15	0.01405	0.0005	995.915	0.154
305.15	0.01607	0.0005	996.038	0.154
305.15	0.01842	0.0005	996.18	0.154
305.15	0.02002	0.0005	996.277	0.154
310.15	0	0.0005	993.352	0.154
310.15	0.00194	0.0005	993.469	0.154
310.15	0.00392	0.0005	993.589	0.154
310.15	0.00604	0.0005	993.717	0.154
310.15	0.00794	0.0005	993.831	0.154
310.15	0.00996	0.0005	993.953	0.154
310.15	0.01207	0.0005	994.08	0.154
310.15	0.01405	0.0005	994.2	0.154
310.15	0.01607	0.0005	994.321	0.154
310.15	0.01842	0.0005	994.463	0.154
310.15	0.02002	0.0005	994.559	0.154
315.15	0	0.0005	991.353	0.155
315.15	0.00194	0.0005	991.469	0.155
315.15	0.00392	0.0005	991.588	0.155
315.15	0.00604	0.0005	991.715	0.154
315.15	0.00794	0.0005	991.829	0.154
315.15	0.00996	0.0005	991.95	0.154
315.15	0.01207	0.0005	992.077	0.154
315.15	0.01405	0.0005	992.195	0.154
315.15	0.01607	0.0005	992.316	0.154
315.15	0.01842	0.0005	992.456	0.154
315.15	0.02002	0.0005	992.552	0.154
305.15	0	0.002	995.271	0.154
305.15	0.00193	0.002	995.386	0.154
305.15	0.00402	0.002	995.51	0.154
305.15	0.00585	0.002	995.618	0.154
305.15	0.00802	0.002	995.747	0.154
305.15	0.00983	0.002	995.854	0.154
305.15	0.0119	0.002	995.977	0.154
305.15	0.01411	0.002	996.108	0.154
305.15	0.01589	0.002	996.213	0.154
305.15	0.01783	0.002	996.328	0.154
305.15	0.02019	0.002	996.467	0.154
310.15	0	0.002	993.569	0.154
310.15	0.00193	0.002	993.683	0.154
310.15	0.00402	0.002	993.806	0.154
310.15	0.00585	0.002	993.914	0.154
310.15	0.00802	0.002	994.042	0.154
310.15	0.00983	0.002	994.148	0.154
310.15	0.0119	0.002	994.27	0.154
310.15	0.01411	0.002	994.4	0.154
310.15	0.01589	0.002	994.504	0.154
310.15	0.01783	0.002	994.618	0.154
310.15	0.02019	0.002	994.757	0.154
315.15	0	0.002	991.665	0.155
315.15	0.00193	0.002	991.778	0.155
315.15	0.00402	0.002	991.9	0.154
315.15	0.00585	0.002	992.007	0.154
315.15	0.00802	0.002	992.134	0.154
315.15	0.00983	0.002	992.24	0.154
315.15	0.0119	0.002	992.361	0.154
315.15	0.01411	0.002	992.49	0.154
315.15	0.01589	0.002	992.593	0.154
315.15	0.01783	0.002	992.706	0.154
315.15	0.02019	0.002	992.844	0.154
305.15	0	0.004	995.458	0.154
305.15	0.00199	0.004	995.573	0.154
305.15	0.00399	0.004	995.689	0.154
305.15	0.00612	0.004	995.812	0.154
305.15	0.00809	0.004	995.926	0.154
305.15	0.01014	0.004	996.045	0.154
305.15	0.01233	0.004	996.171	0.154
305.15	0.01403	0.004	996.269	0.154
305.15	0.01612	0.004	996.39	0.154
305.15	0.01828	0.004	996.515	0.154
305.15	0.02026	0.004	996.629	0.154
310.15	0	0.004	993.755	0.154
310.15	0.00199	0.004	993.869	0.154
310.15	0.00399	0.004	993.984	0.154
310.15	0.00612	0.004	994.107	0.154
310.15	0.00809	0.004	994.22	0.154
310.15	0.01014	0.004	994.337	0.154
310.15	0.01233	0.004	994.463	0.154
310.15	0.01403	0.004	994.56	0.154
310.15	0.01612	0.004	994.68	0.154
310.15	0.01828	0.004	994.803	0.154
310.15	0.02026	0.004	994.917	0.154
315.15	0	0.004	991.87	0.154
315.15	0.00199	0.004	991.984	0.154
315.15	0.00399	0.004	992.098	0.154
315.15	0.00612	0.004	992.219	0.154
315.15	0.00809	0.004	992.331	0.154
315.15	0.01014	0.004	992.448	0.154
315.15	0.01233	0.004	992.573	0.154
315.15	0.01403	0.004	992.669	0.154
315.15	0.01612	0.004	992.788	0.154
315.15	0.01828	0.004	992.911	0.154
315.15	0.02026	0.004	993.023	0.154

System: 6-[D-(2-amino-2-phenylacetyl)amino]-3,3-dimethyl-7-oxo-4-thia-1-azabicyclo[3.2.0]heptane-2-carboxylic acid + L-alanyl-L-alanine + water; phases: Liquid
Fixed: Pressure, kPa = 101
Property: Speed of sound, m/s (Liquid); method: vibrating tube:WF = 
Temperature, K	Molality, mol/kg of L-alanyl-L-alanine	Solvent: Molality, mol/kg of 6-[D-(2-amino-2-phenylacetyl)amino]-3,3-dimethyl-7-oxo-4-thia-1-azabicyclo[3.2.0]heptane-2-carboxylic acid	Speed of sound, m/s	uncertainty
305.15	0	0	1513.49	2.12
305.15	0.00215	0	1514.23	2.12
305.15	0.00421	0	1514.4	2.12
305.15	0.00596	0	1514.53	2.12
305.15	0.00831	0	1514.71	2.12
305.15	0.00955	0	1514.89	2.12
305.15	0.01169	0	1515.04	2.12
305.15	0.01422	0	1515.18	2.12
305.15	0.01594	0	1515.35	2.12
305.15	0.01778	0	1515.54	2.12
305.15	0.01983	0	1515.72	2.12
310.15	0	0	1523.5	2.12
310.15	0.00215	0	1524.51	2.12
310.15	0.00421	0	1524.75	2.12
310.15	0.00596	0	1524.91	2.12
310.15	0.00831	0	1525.12	2.12
310.15	0.00955	0	1525.26	2.12
310.15	0.01169	0	1525.46	2.12
310.15	0.01422	0	1525.64	2.12
310.15	0.01594	0	1525.81	2.12
310.15	0.01778	0	1525.95	2.12
310.15	0.01983	0	1526.17	2.12
315.15	0	0	1532.17	2.12
315.15	0.00215	0	1532.89	2.12
315.15	0.00421	0	1533.01	2.12
315.15	0.00596	0	1533.11	2.12
315.15	0.00831	0	1533.25	2.12
315.15	0.00955	0	1533.4	2.12
315.15	0.01169	0	1533.56	2.12
315.15	0.01422	0	1533.72	2.12
315.15	0.01594	0	1533.86	2.12
315.15	0.01778	0	1534.07	2.12
315.15	0.01983	0	1534.25	2.12
305.15	0	0.0005	1513.68	2.12
305.15	0.00194	0.0005	1514.19	2.12
305.15	0.00392	0.0005	1514.35	2.12
305.15	0.00604	0.0005	1514.51	2.12
305.15	0.00794	0.0005	1514.65	2.12
305.15	0.00996	0.0005	1514.76	2.12
305.15	0.01207	0.0005	1514.89	2.12
305.15	0.01405	0.0005	1515.02	2.12
305.15	0.01607	0.0005	1515.14	2.12
305.15	0.01842	0.0005	1515.26	2.12
305.15	0.02002	0.0005	1515.38	2.12
310.15	0	0.0005	1523.68	2.12
310.15	0.00194	0.0005	1524.1	2.12
310.15	0.00392	0.0005	1524.45	2.12
310.15	0.00604	0.0005	1524.56	2.12
310.15	0.00794	0.0005	1524.65	2.12
310.15	0.00996	0.0005	1524.88	2.12
310.15	0.01207	0.0005	1525.05	2.12
310.15	0.01405	0.0005	1525.3	2.12
310.15	0.01607	0.0005	1525.51	2.12
310.15	0.01842	0.0005	1525.69	2.12
310.15	0.02002	0.0005	1525.85	2.12
315.15	0	0.0005	1532.15	2.12
315.15	0.00194	0.0005	1532.52	2.12
315.15	0.00392	0.0005	1532.69	2.12
315.15	0.00604	0.0005	1532.86	2.12
315.15	0.00794	0.0005	1533.06	2.12
315.15	0.00996	0.0005	1533.25	2.12
315.15	0.01207	0.0005	1533.46	2.12
315.15	0.01405	0.0005	1533.65	2.12
315.15	0.01607	0.0005	1533.89	2.12
315.15	0.01842	0.0005	1534.05	2.12
315.15	0.02002	0.0005	1534.25	2.12
305.15	0	0.002	1514.85	2.12
305.15	0.00193	0.002	1515.42	2.12
305.15	0.00402	0.002	1515.54	2.12
305.15	0.00585	0.002	1515.65	2.12
305.15	0.00802	0.002	1515.78	2.12
305.15	0.00983	0.002	1515.89	2.12
305.15	0.0119	0.002	1516.01	2.12
305.15	0.01411	0.002	1516.12	2.12
305.15	0.01589	0.002	1516.24	2.12
305.15	0.01783	0.002	1516.36	2.12
305.15	0.02019	0.002	1516.48	2.12
310.15	0	0.002	1524.8	2.12
310.15	0.00193	0.002	1525.14	2.12
310.15	0.00402	0.002	1525.25	2.12
310.15	0.00585	0.002	1525.36	2.12
310.15	0.00802	0.002	1525.47	2.12
310.15	0.00983	0.002	1525.59	2.12
310.15	0.0119	0.002	1525.7	2.12
310.15	0.01411	0.002	1525.82	2.12
310.15	0.01589	0.002	1525.94	2.12
310.15	0.01783	0.002	1526.05	2.12
310.15	0.02019	0.002	1526.17	2.12
315.15	0	0.002	1532.97	2.12
315.15	0.00193	0.002	1533.44	2.12
315.15	0.00402	0.002	1533.56	2.12
315.15	0.00585	0.002	1533.68	2.12
315.15	0.00802	0.002	1533.81	2.12
315.15	0.00983	0.002	1533.95	2.12
315.15	0.0119	0.002	1534.08	2.12
315.15	0.01411	0.002	1534.21	2.12
315.15	0.01589	0.002	1534.39	2.12
315.15	0.01783	0.002	1534.53	2.12
315.15	0.02019	0.002	1534.62	2.12
305.15	0	0.004	1515.98	2.12
305.15	0.00199	0.004	1516.18	2.12
305.15	0.00399	0.004	1516.42	2.12
305.15	0.00612	0.004	1516.58	2.12
305.15	0.00809	0.004	1516.76	2.12
305.15	0.01014	0.004	1516.98	2.12
305.15	0.01233	0.004	1517.15	2.12
305.15	0.01403	0.004	1517.34	2.12
305.15	0.01612	0.004	1517.49	2.12
305.15	0.01828	0.004	1517.65	2.12
305.15	0.02026	0.004	1517.82	2.12
310.15	0	0.004	1525.98	2.12
310.15	0.00199	0.004	1526.12	2.12
310.15	0.00399	0.004	1526.26	2.12
310.15	0.00612	0.004	1526.45	2.12
310.15	0.00809	0.004	1526.68	2.12
310.15	0.01014	0.004	1526.85	2.12
310.15	0.01233	0.004	1526.99	2.12
310.15	0.01403	0.004	1527.16	2.12
310.15	0.01612	0.004	1527.34	2.12
310.15	0.01828	0.004	1527.53	2.12
310.15	0.02026	0.004	1527.71	2.12
315.15	0	0.004	1534.01	2.12
315.15	0.00199	0.004	1534.25	2.12
315.15	0.00399	0.004	1534.33	2.12
315.15	0.00612	0.004	1534.51	2.12
315.15	0.00809	0.004	1534.68	2.12
315.15	0.01014	0.004	1534.85	2.12
315.15	0.01233	0.004	1534.99	2.12
315.15	0.01403	0.004	1535.16	2.12
315.15	0.01612	0.004	1535.35	2.12
315.15	0.01828	0.004	1535.52	2.12
315.15	0.02026	0.004	1535.71	2.12

System: 6-[D-(2-amino-2-phenylacetyl)amino]-3,3-dimethyl-7-oxo-4-thia-1-azabicyclo[3.2.0]heptane-2-carboxylic acid + L-alanyl-L-valine + water; phases: Liquid
Fixed: Pressure, kPa = 101
Property: Mass density, kg/m3 (Liquid); method: Vibrating tube method
Temperature, K	Molality, mol/kg of L-alanyl-L-valine	Solvent: Molality, mol/kg of 6-[D-(2-amino-2-phenylacetyl)amino]-3,3-dimethyl-7-oxo-4-thia-1-azabicyclo[3.2.0]heptane-2-carboxylic acid	Mass density, kg/m3	uncertainty
305.15	0	0	995.09	1.007
305.15	0.00201	0	995.187	1.007
305.15	0.00414	0	995.289	1.007
305.15	0.00605	0	995.381	1.007
305.15	0.00791	0	995.471	1.007
305.15	0.01019	0	995.58	1.007
305.15	0.01179	0	995.657	1.007
305.15	0.01396	0	995.761	1.007
305.15	0.01551	0	995.835	1.007
305.15	0.01805	0	995.957	1.007
305.15	0.01971	0	996.037	1.007
310.15	0	0	993.403	1.007
310.15	0.00201	0	993.499	1.007
310.15	0.00414	0	993.601	1.007
310.15	0.00605	0	993.692	1.007
310.15	0.00791	0	993.781	1.007
310.15	0.01019	0	993.89	1.007
310.15	0.01179	0	993.966	1.007
310.15	0.01396	0	994.07	1.007
310.15	0.01551	0	994.143	1.007
310.15	0.01805	0	994.264	1.007
310.15	0.01971	0	994.343	1.007
315.15	0	0	991.51	1.007
315.15	0.00201	0	991.606	1.007
315.15	0.00414	0	991.707	1.007
315.15	0.00605	0	991.798	1.007
315.15	0.00791	0	991.886	1.007
315.15	0.01019	0	991.994	1.007
315.15	0.01179	0	992.07	1.007
315.15	0.01396	0	992.173	1.007
315.15	0.01551	0	992.246	1.007
315.15	0.01805	0	992.366	1.007
315.15	0.01971	0	992.445	1.007
305.15	0	0.0005	995.062	1.007
305.15	0.00199	0.0005	995.155	1.007
305.15	0.00409	0.0005	995.253	1.007
305.15	0.00599	0.0005	995.341	1.007
305.15	0.00794	0.0005	995.432	1.007
305.15	0.01032	0.0005	995.543	1.007
305.15	0.01226	0.0005	995.633	1.007
305.15	0.01438	0.0005	995.731	1.007
305.15	0.01643	0.0005	995.826	1.007
305.15	0.01851	0.0005	995.923	1.007
305.15	0.02039	0.0005	996.01	1.007
310.15	0	0.0005	993.352	1.007
310.15	0.00199	0.0005	993.444	1.007
310.15	0.00409	0.0005	993.542	1.007
310.15	0.00599	0.0005	993.63	1.007
310.15	0.00794	0.0005	993.72	1.007
310.15	0.01032	0.0005	993.83	1.007
310.15	0.01226	0.0005	993.92	1.007
310.15	0.01438	0.0005	994.018	1.007
310.15	0.01643	0.0005	994.113	1.007
310.15	0.01851	0.0005	994.208	1.007
310.15	0.02039	0.0005	994.295	1.007
315.15	0	0.0005	991.353	1.007
315.15	0.00199	0.0005	991.445	1.007
315.15	0.00409	0.0005	991.542	1.007
315.15	0.00599	0.0005	991.63	1.007
315.15	0.00794	0.0005	991.719	1.007
315.15	0.01032	0.0005	991.829	1.007
315.15	0.01226	0.0005	991.918	1.007
315.15	0.01438	0.0005	992.016	1.007
315.15	0.01643	0.0005	992.11	1.007
315.15	0.01851	0.0005	992.206	1.007
315.15	0.02039	0.0005	992.292	1.007
305.15	0	0.002	995.271	1.007
305.15	0.00204	0.002	995.363	1.007
305.15	0.00409	0.002	995.456	1.007
305.15	0.00598	0.002	995.541	1.007
305.15	0.00799	0.002	995.631	1.007
305.15	0.00984	0.002	995.714	1.007
305.15	0.01198	0.002	995.811	1.007
305.15	0.01432	0.002	995.916	1.007
305.15	0.01607	0.002	995.994	1.007
305.15	0.01724	0.002	996.047	1.007
305.15	0.01961	0.002	996.153	1.007
310.15	0	0.002	993.569	1.007
310.15	0.00204	0.002	993.66	1.007
310.15	0.00409	0.002	993.752	1.007
310.15	0.00598	0.002	993.837	1.007
310.15	0.00799	0.002	993.927	1.007
310.15	0.00984	0.002	994.009	1.007
310.15	0.01198	0.002	994.105	1.007
310.15	0.01432	0.002	994.209	1.007
310.15	0.01607	0.002	994.287	1.007
310.15	0.01724	0.002	994.339	1.007
310.15	0.01961	0.002	994.445	1.007
315.15	0	0.002	991.665	1.007
315.15	0.00204	0.002	991.756	1.007
315.15	0.00409	0.002	991.847	1.007
315.15	0.00598	0.002	991.931	1.007
315.15	0.00799	0.002	992.021	1.007
315.15	0.00984	0.002	992.103	1.007
315.15	0.01198	0.002	992.198	1.007
315.15	0.01432	0.002	992.302	1.007
315.15	0.01607	0.002	992.379	1.007
315.15	0.01724	0.002	992.431	1.007
315.15	0.01961	0.002	992.536	1.007
305.15	0	0.004	995.458	1.007
305.15	0.00203	0.004	995.547	1.007
305.15	0.00409	0.004	995.637	1.007
305.15	0.00579	0.004	995.711	1.007
305.15	0.00777	0.004	995.798	1.007
305.15	0.01015	0.004	995.901	1.007
305.15	0.01212	0.004	995.987	1.007
305.15	0.01399	0.004	996.069	1.007
305.15	0.01536	0.004	996.128	1.007
305.15	0.01788	0.004	996.238	1.007
305.15	0.01905	0.004	996.289	1.007
310.15	0	0.004	993.755	1.007
310.15	0.00203	0.004	993.843	1.007
310.15	0.00409	0.004	993.933	1.007
310.15	0.00579	0.004	994.006	1.007
310.15	0.00777	0.004	994.092	1.007
310.15	0.01015	0.004	994.195	1.007
310.15	0.01212	0.004	994.281	1.007
310.15	0.01399	0.004	994.362	1.007
310.15	0.01536	0.004	994.421	1.007
310.15	0.01788	0.004	994.53	1.007
310.15	0.01905	0.004	994.58	1.007
315.15	0	0.004	991.87	1.007
315.15	0.00203	0.004	991.958	1.007
315.15	0.00409	0.004	992.046	1.007
315.15	0.00579	0.004	992.119	1.007
315.15	0.00777	0.004	992.205	1.007
315.15	0.01015	0.004	992.307	1.007
315.15	0.01212	0.004	992.392	1.007
315.15	0.01399	0.004	992.472	1.007
315.15	0.01536	0.004	992.531	1.007
315.15	0.01788	0.004	992.639	1.007
315.15	0.01905	0.004	992.689	1.007

System: 6-[D-(2-amino-2-phenylacetyl)amino]-3,3-dimethyl-7-oxo-4-thia-1-azabicyclo[3.2.0]heptane-2-carboxylic acid + L-alanyl-L-valine + water; phases: Liquid
Fixed: Pressure, kPa = 101
Property: Speed of sound, m/s (Liquid); method: vibrating tube:WF = 
Temperature, K	Molality, mol/kg of L-alanyl-L-valine	Solvent: Molality, mol/kg of 6-[D-(2-amino-2-phenylacetyl)amino]-3,3-dimethyl-7-oxo-4-thia-1-azabicyclo[3.2.0]heptane-2-carboxylic acid	Speed of sound, m/s	uncertainty
305.15	0	0	1513.49	2.12
305.15	0.00201	0	1514.31	2.12
305.15	0.00414	0	1514.52	2.12
305.15	0.00605	0	1514.63	2.12
305.15	0.00791	0	1514.81	2.12
305.15	0.01019	0	1514.99	2.12
305.15	0.01179	0	1515.15	2.12
305.15	0.01396	0	1515.36	2.12
305.15	0.01551	0	1515.58	2.12
305.15	0.01805	0	1515.75	2.12
305.15	0.01971	0	1515.93	2.12
310.15	0	0	1523.5	2.12
310.15	0.00201	0	1524.81	2.12
310.15	0.00414	0	1525.01	2.12
310.15	0.00605	0	1525.25	2.12
310.15	0.00791	0	1525.49	2.12
310.15	0.01019	0	1525.72	2.12
310.15	0.01179	0	1525.92	2.12
310.15	0.01396	0	1526.12	2.12
310.15	0.01551	0	1526.38	2.12
310.15	0.01805	0	1526.69	2.12
310.15	0.01971	0	1526.92	2.12
315.15	0	0	1532.17	2.12
315.15	0.00201	0	1533.51	2.12
315.15	0.00414	0	1533.74	2.12
315.15	0.00605	0	1533.96	2.12
315.15	0.00791	0	1534.14	2.12
315.15	0.01019	0	1534.29	2.12
315.15	0.01179	0	1534.41	2.12
315.15	0.01396	0	1534.58	2.12
315.15	0.01551	0	1534.75	2.12
315.15	0.01805	0	1534.97	2.12
315.15	0.01971	0	1535.18	2.12
305.15	0	0.0005	1513.68	2.12
305.15	0.00199	0.0005	1514.56	2.12
305.15	0.00409	0.0005	1514.72	2.12
305.15	0.00599	0.0005	1514.88	2.12
305.15	0.00794	0.0005	1515.02	2.12
305.15	0.01032	0.0005	1515.18	2.12
305.15	0.01226	0.0005	1515.33	2.12
305.15	0.01438	0.0005	1515.51	2.12
305.15	0.01643	0.0005	1515.65	2.12
305.15	0.01851	0.0005	1515.82	2.12
305.15	0.02039	0.0005	1515.99	2.12
310.15	0	0.0005	1523.68	2.12
310.15	0.00199	0.0005	1524.41	2.12
310.15	0.00409	0.0005	1524.59	2.12
310.15	0.00599	0.0005	1524.86	2.12
310.15	0.00794	0.0005	1525.26	2.12
310.15	0.01032	0.0005	1525.52	2.12
310.15	0.01226	0.0005	1525.69	2.12
310.15	0.01438	0.0005	1525.92	2.12
310.15	0.01643	0.0005	1526.12	2.12
310.15	0.01851	0.0005	1526.32	2.12
310.15	0.02039	0.0005	1526.51	2.12
315.15	0	0.0005	1532.15	2.12
315.15	0.00199	0.0005	1532.82	2.12
315.15	0.00409	0.0005	1533.05	2.12
315.15	0.00599	0.0005	1533.31	2.12
315.15	0.00794	0.0005	1533.52	2.12
315.15	0.01032	0.0005	1533.71	2.12
315.15	0.01226	0.0005	1533.92	2.12
315.15	0.01438	0.0005	1534.14	2.12
315.15	0.01643	0.0005	1534.36	2.12
315.15	0.01851	0.0005	1534.54	2.12
315.15	0.02039	0.0005	1534.72	2.12
305.15	0	0.002	1514.85	2.12
305.15	0.00204	0.002	1515.65	2.12
305.15	0.00409	0.002	1515.72	2.12
305.15	0.00598	0.002	1515.85	2.12
305.15	0.00799	0.002	1515.98	2.12
305.15	0.00984	0.002	1516.11	2.12
305.15	0.01198	0.002	1516.24	2.12
305.15	0.01432	0.002	1516.36	2.12
305.15	0.01607	0.002	1516.45	2.12
305.15	0.01724	0.002	1516.56	2.12
305.15	0.01961	0.002	1516.66	2.12
310.15	0	0.002	1524.8	2.12
310.15	0.00204	0.002	1525.45	2.12
310.15	0.00409	0.002	1525.58	2.12
310.15	0.00598	0.002	1525.67	2.12
310.15	0.00799	0.002	1525.79	2.12
310.15	0.00984	0.002	1525.91	2.12
310.15	0.01198	0.002	1526.05	2.12
310.15	0.01432	0.002	1526.16	2.12
310.15	0.01607	0.002	1526.27	2.12
310.15	0.01724	0.002	1526.39	2.12
310.15	0.01961	0.002	1526.52	2.12
315.15	0	0.002	1532.97	2.12
315.15	0.00204	0.002	1533.67	2.12
315.15	0.00409	0.002	1533.82	2.12
315.15	0.00598	0.002	1533.99	2.12
315.15	0.00799	0.002	1534.11	2.12
315.15	0.00984	0.002	1534.25	2.12
315.15	0.01198	0.002	1534.34	2.12
315.15	0.01432	0.002	1534.46	2.12
315.15	0.01607	0.002	1534.56	2.12
315.15	0.01724	0.002	1534.65	2.12
315.15	0.01961	0.002	1534.26	2.12
305.15	0	0.004	1515.98	2.12
305.15	0.00203	0.004	1516.39	2.12
305.15	0.00409	0.004	1516.56	2.12
305.15	0.00579	0.004	1516.75	2.12
305.15	0.00777	0.004	1516.95	2.12
305.15	0.01015	0.004	1517.11	2.12
305.15	0.01212	0.004	1517.31	2.12
305.15	0.01399	0.004	1517.49	2.12
305.15	0.01536	0.004	1517.68	2.12
305.15	0.01788	0.004	1517.82	2.12
305.15	0.01905	0.004	1517.98	2.12
310.15	0	0.004	1525.98	2.12
310.15	0.00203	0.004	1526.29	2.12
310.15	0.00409	0.004	1526.42	2.12
310.15	0.00579	0.004	1526.62	2.12
310.15	0.00777	0.004	1526.79	2.12
310.15	0.01015	0.004	1526.98	2.12
310.15	0.01212	0.004	1527.14	2.12
310.15	0.01399	0.004	1527.32	2.12
310.15	0.01536	0.004	1527.49	2.12
310.15	0.01788	0.004	1527.67	2.12
310.15	0.01905	0.004	1527.84	2.12
315.15	0	0.004	1534.01	2.12
315.15	0.00203	0.004	1534.56	2.12
315.15	0.00409	0.004	1534.74	2.12
315.15	0.00579	0.004	1534.92	2.12
315.15	0.00777	0.004	1535.06	2.12
315.15	0.01015	0.004	1535.19	2.12
315.15	0.01212	0.004	1535.34	2.12
315.15	0.01399	0.004	1535.51	2.12
315.15	0.01536	0.004	1535.68	2.12
315.15	0.01788	0.004	1535.84	2.12
315.15	0.01905	0.004	1535.99	2.12

System: 6-[D-(2-amino-2-phenylacetyl)amino]-3,3-dimethyl-7-oxo-4-thia-1-azabicyclo[3.2.0]heptane-2-carboxylic acid + L-alanyl-L-leucine + water; phases: Liquid
Fixed: Pressure, kPa = 101
Property: Mass density, kg/m3 (Liquid); method: Vibrating tube method
Temperature, K	Molality, mol/kg of L-alanyl-L-leucine	Solvent: Molality, mol/kg of 6-[D-(2-amino-2-phenylacetyl)amino]-3,3-dimethyl-7-oxo-4-thia-1-azabicyclo[3.2.0]heptane-2-carboxylic acid	Mass density, kg/m3	uncertainty
305.15	0	0	995.09	0.154
305.15	0.00185	0	995.164	0.154
305.15	0.00389	0	995.246	0.154
305.15	0.00579	0	995.323	0.154
305.15	0.00813	0	995.416	0.154
305.15	0.00966	0	995.478	0.154
305.15	0.0122	0	995.579	0.154
305.15	0.01422	0	995.66	0.154
305.15	0.01589	0	995.727	0.154
305.15	0.01753	0	995.792	0.154
305.15	0.02055	0	995.913	0.154
310.15	0	0	993.403	0.154
310.15	0.00185	0	993.476	0.154
310.15	0.00389	0	993.556	0.154
310.15	0.00579	0	993.631	0.154
310.15	0.00813	0	993.723	0.154
310.15	0.00966	0	993.783	0.154
310.15	0.0122	0	993.883	0.154
310.15	0.01422	0	993.962	0.154
310.15	0.01589	0	994.027	0.154
310.15	0.01753	0	994.092	0.154
310.15	0.02055	0	994.21	0.154
315.15	0	0	991.51	0.155
315.15	0.00185	0	991.582	0.155
315.15	0.00389	0	991.661	0.155
315.15	0.00579	0	991.734	0.155
315.15	0.00813	0	991.825	0.155
315.15	0.00966	0	991.884	0.155
315.15	0.0122	0	991.982	0.155
315.15	0.01422	0	992.06	0.155
315.15	0.01589	0	992.124	0.155
315.15	0.01753	0	992.188	0.155
315.15	0.02055	0	992.304	0.155
305.15	0	0.0005	995.062	0.154
305.15	0.00197	0.0005	995.138	0.154
305.15	0.00391	0.0005	995.213	0.154
305.15	0.00591	0.0005	995.29	0.154
305.15	0.00814	0.0005	995.377	0.154
305.15	0.01003	0.0005	995.449	0.154
305.15	0.01192	0.0005	995.522	0.154
305.15	0.01415	0.0005	995.608	0.154
305.15	0.01585	0.0005	995.673	0.154
305.15	0.01835	0.0005	995.769	0.154
305.15	0.01982	0.0005	995.826	0.154
310.15	0	0.0005	993.352	0.154
310.15	0.00197	0.0005	993.428	0.154
310.15	0.00391	0.0005	993.502	0.154
310.15	0.00591	0.0005	993.579	0.154
310.15	0.00814	0.0005	993.664	0.154
310.15	0.01003	0.0005	993.737	0.154
310.15	0.01192	0.0005	993.809	0.154
310.15	0.01415	0.0005	993.894	0.154
310.15	0.01585	0.0005	993.959	0.154
310.15	0.01835	0.0005	994.055	0.154
310.15	0.01982	0.0005	994.111	0.154
315.15	0	0.0005	991.353	0.155
315.15	0.00197	0.0005	991.428	0.155
315.15	0.00391	0.0005	991.502	0.155
315.15	0.00591	0.0005	991.579	0.155
315.15	0.00814	0.0005	991.663	0.154
315.15	0.01003	0.0005	991.735	0.154
315.15	0.01192	0.0005	991.807	0.154
315.15	0.01415	0.0005	991.892	0.154
315.15	0.01585	0.0005	991.957	0.154
315.15	0.01835	0.0005	992.051	0.154
315.15	0.01982	0.0005	992.107	0.154
305.15	0	0.002	995.271	0.154
305.15	0.00191	0.002	995.34	0.154
305.15	0.00393	0.002	995.413	0.154
305.15	0.00602	0.002	995.488	0.154
305.15	0.00799	0.002	995.559	0.154
305.15	0.00993	0.002	995.629	0.154
305.15	0.01227	0.002	995.713	0.154
305.15	0.01451	0.002	995.794	0.154
305.15	0.01635	0.002	995.86	0.154
305.15	0.01824	0.002	995.927	0.154
305.15	0.02026	0.002	996	0.154
310.15	0	0.002	993.569	0.154
310.15	0.00191	0.002	993.637	0.154
310.15	0.00393	0.002	993.71	0.154
310.15	0.00602	0.002	993.785	0.154
310.15	0.00799	0.002	993.855	0.154
310.15	0.00993	0.002	993.924	0.154
310.15	0.01227	0.002	994.008	0.154
310.15	0.01451	0.002	994.087	0.154
310.15	0.01635	0.002	994.153	0.154
310.15	0.01824	0.002	994.22	0.154
310.15	0.02026	0.002	994.292	0.154
315.15	0	0.002	991.665	0.155
315.15	0.00191	0.002	991.733	0.155
315.15	0.00393	0.002	991.805	0.154
315.15	0.00602	0.002	991.879	0.154
315.15	0.00799	0.002	991.948	0.154
315.15	0.00993	0.002	992.017	0.154
315.15	0.01227	0.002	992.1	0.154
315.15	0.01451	0.002	992.179	0.154
315.15	0.01635	0.002	992.244	0.154
315.15	0.01824	0.002	992.31	0.154
315.15	0.02026	0.002	992.381	0.154
305.15	0	0.004	995.458	0.154
305.15	0.00196	0.004	995.526	0.154
305.15	0.00392	0.004	995.594	0.154
305.15	0.00609	0.004	995.668	0.154
305.15	0.00794	0.004	995.732	0.154
305.15	0.00992	0.004	995.801	0.154
305.15	0.01241	0.004	995.886	0.154
305.15	0.01437	0.004	995.954	0.154
305.15	0.01604	0.004	996.011	0.154
305.15	0.018	0.004	996.078	0.154
305.15	0.02008	0.004	996.15	0.154
310.15	0	0.004	993.755	0.154
310.15	0.00196	0.004	993.822	0.154
310.15	0.00392	0.004	993.889	0.154
310.15	0.00609	0.004	993.964	0.154
310.15	0.00794	0.004	994.027	0.154
310.15	0.00992	0.004	994.095	0.154
310.15	0.01241	0.004	994.18	0.154
310.15	0.01437	0.004	994.247	0.154
310.15	0.01604	0.004	994.304	0.154
310.15	0.018	0.004	994.37	0.154
310.15	0.02008	0.004	994.441	0.154
315.15	0	0.004	991.87	0.154
315.15	0.00196	0.004	991.937	0.154
315.15	0.00392	0.004	992.004	0.154
315.15	0.00609	0.004	992.078	0.154
315.15	0.00794	0.004	992.14	0.154
315.15	0.00992	0.004	992.208	0.154
315.15	0.01241	0.004	992.292	0.154
315.15	0.01437	0.004	992.359	0.154
315.15	0.01604	0.004	992.415	0.154
315.15	0.018	0.004	992.482	0.154
315.15	0.02008	0.004	992.552	0.154

System: 6-[D-(2-amino-2-phenylacetyl)amino]-3,3-dimethyl-7-oxo-4-thia-1-azabicyclo[3.2.0]heptane-2-carboxylic acid + L-alanyl-L-leucine + water; phases: Liquid
Fixed: Pressure, kPa = 101
Property: Speed of sound, m/s (Liquid); method: vibrating tube:WF = 
Temperature, K	Molality, mol/kg of L-alanyl-L-leucine	Solvent: Molality, mol/kg of 6-[D-(2-amino-2-phenylacetyl)amino]-3,3-dimethyl-7-oxo-4-thia-1-azabicyclo[3.2.0]heptane-2-carboxylic acid	Speed of sound, m/s	uncertainty
305.15	0	0	1513.49	2.12
305.15	0.00185	0	1514.31	2.12
305.15	0.00389	0	1514.44	2.12
305.15	0.00579	0	1514.59	2.12
305.15	0.00813	0	1514.72	2.12
305.15	0.00966	0	1514.86	2.12
305.15	0.0122	0	1514.99	2.12
305.15	0.01422	0	1515.14	2.12
305.15	0.01589	0	1515.32	2.12
305.15	0.01753	0	1515.48	2.12
305.15	0.02055	0	1515.62	2.12
310.15	0	0	1523.5	2.12
310.15	0.00185	0	1524.72	2.12
310.15	0.00389	0	1524.96	2.12
310.15	0.00579	0	1525.2	2.12
310.15	0.00813	0	1525.43	2.12
310.15	0.00966	0	1525.65	2.12
310.15	0.0122	0	1525.86	2.12
310.15	0.01422	0	1526.04	2.12
310.15	0.01589	0	1526.28	2.12
310.15	0.01753	0	1526.59	2.12
310.15	0.02055	0	1526.7	2.12
315.15	0	0	1532.17	2.12
315.15	0.00185	0	1533.25	2.12
315.15	0.00389	0	1533.42	2.12
315.15	0.00579	0	1533.65	2.12
315.15	0.00813	0	1533.86	2.12
315.15	0.00966	0	1534.02	2.12
315.15	0.0122	0	1534.26	2.12
315.15	0.01422	0	1534.51	2.12
315.15	0.01589	0	1534.72	2.12
315.15	0.01753	0	1534.89	2.12
315.15	0.02055	0	1535.05	2.12
305.15	0	0.0005	1513.68	2.12
305.15	0.00197	0.0005	1514.33	2.12
305.15	0.00391	0.0005	1514.5	2.12
305.15	0.00591	0.0005	1514.64	2.12
305.15	0.00814	0.0005	1514.79	2.12
305.15	0.01003	0.0005	1514.95	2.12
305.15	0.01192	0.0005	1515.06	2.12
305.15	0.01415	0.0005	1515.18	2.12
305.15	0.01585	0.0005	1515.29	2.12
305.15	0.01835	0.0005	1515.42	2.12
305.15	0.01982	0.0005	1515.59	2.12
310.15	0	0.0005	1523.68	2.12
310.15	0.00197	0.0005	1524.21	2.12
310.15	0.00391	0.0005	1524.51	2.12
310.15	0.00591	0.0005	1524.82	2.12
310.15	0.00814	0.0005	1525.19	2.12
310.15	0.01003	0.0005	1525.41	2.12
310.15	0.01192	0.0005	1525.63	2.12
310.15	0.01415	0.0005	1525.85	2.12
310.15	0.01585	0.0005	1526.04	2.12
310.15	0.01835	0.0005	1526.24	2.12
310.15	0.01982	0.0005	1526.42	2.12
315.15	0	0.0005	1532.15	2.12
315.15	0.00197	0.0005	1532.76	2.12
315.15	0.00391	0.0005	1532.91	2.12
315.15	0.00591	0.0005	1533.19	2.12
315.15	0.00814	0.0005	1533.42	2.12
315.15	0.01003	0.0005	1533.65	2.12
315.15	0.01192	0.0005	1533.85	2.12
315.15	0.01415	0.0005	1534.07	2.12
315.15	0.01585	0.0005	1534.21	2.12
315.15	0.01835	0.0005	1534.47	2.12
315.15	0.01982	0.0005	1534.54	2.12
305.15	0	0.002	1514.85	2.12
305.15	0.00191	0.002	1515.56	2.12
305.15	0.00393	0.002	1515.67	2.12
305.15	0.00602	0.002	1515.78	2.12
305.15	0.00799	0.002	1515.85	2.12
305.15	0.00993	0.002	1515.96	2.12
305.15	0.01227	0.002	1516.08	2.12
305.15	0.01451	0.002	1516.17	2.12
305.15	0.01635	0.002	1516.26	2.12
305.15	0.01824	0.002	1516.39	2.12
305.15	0.02026	0.002	1516.51	2.12
310.15	0	0.002	1524.8	2.12
310.15	0.00191	0.002	1525.41	2.12
310.15	0.00393	0.002	1525.52	2.12
310.15	0.00602	0.002	1525.64	2.12
310.15	0.00799	0.002	1525.75	2.12
310.15	0.00993	0.002	1525.84	2.12
310.15	0.01227	0.002	1525.93	2.12
310.15	0.01451	0.002	1526.04	2.12
310.15	0.01635	0.002	1526.15	2.12
310.15	0.01824	0.002	1526.26	2.12
310.15	0.02026	0.002	1526.38	2.12
315.15	0	0.002	1532.97	2.12
315.15	0.00191	0.002	1533.63	2.12
315.15	0.00393	0.002	1533.75	2.12
315.15	0.00602	0.002	1533.86	2.12
315.15	0.00799	0.002	1533.96	2.12
315.15	0.00993	0.002	1534.07	2.12
315.15	0.01227	0.002	1534.15	2.12
315.15	0.01451	0.002	1534.26	2.12
315.15	0.01635	0.002	1534.38	2.12
315.15	0.01824	0.002	1534.52	2.12
315.15	0.02026	0.002	1534.64	2.12
305.15	0	0.004	1515.98	2.12
305.15	0.00196	0.004	1516.27	2.12
305.15	0.00392	0.004	1516.47	2.12
305.15	0.00609	0.004	1516.62	2.12
305.15	0.00794	0.004	1516.82	2.12
305.15	0.00992	0.004	1517.01	2.12
305.15	0.01241	0.004	1517.19	2.12
305.15	0.01437	0.004	1517.41	2.12
305.15	0.01604	0.004	1517.56	2.12
305.15	0.018	0.004	1517.72	2.12
305.15	0.02008	0.004	1517.89	2.12
310.15	0	0.004	1525.98	2.12
310.15	0.00196	0.004	1526.21	2.12
310.15	0.00392	0.004	1526.35	2.12
310.15	0.00609	0.004	1526.56	2.12
310.15	0.00794	0.004	1526.76	2.12
310.15	0.00992	0.004	1526.92	2.12
310.15	0.01241	0.004	1527.05	2.12
310.15	0.01437	0.004	1527.24	2.12
310.15	0.01604	0.004	1527.42	2.12
310.15	0.018	0.004	1527.61	2.12
310.15	0.02008	0.004	1527.76	2.12
315.15	0	0.004	1534.01	2.12
315.15	0.00196	0.004	1534.41	2.12
315.15	0.00392	0.004	1534.56	2.12
315.15	0.00609	0.004	1534.71	2.12
315.15	0.00794	0.004	1534.85	2.12
315.15	0.00992	0.004	1534.99	2.12
315.15	0.01241	0.004	1535.15	2.12
315.15	0.01437	0.004	1535.29	2.12
315.15	0.01604	0.004	1535.44	2.12
315.15	0.018	0.004	1535.58	2.12
315.15	0.02008	0.004	1535.76	2.12

System: L-alanyl-L-alanine + water; phases: Liquid
Fixed: Pressure, kPa = 101
Property: Mass density, kg/m3 (Liquid); method: Vibrating tube method
Temperature, K	Molality, mol/kg of L-alanyl-L-alanine	Mass density, kg/m3	uncertainty
305.15	0.00215	995.223	0.105
305.15	0.00421	995.35	0.105
305.15	0.00596	995.458	0.105
305.15	0.00831	995.604	0.105
305.15	0.00955	995.68	0.105
305.15	0.01169	995.812	0.105
305.15	0.01422	995.968	0.105
305.15	0.01594	996.074	0.105
305.15	0.01778	996.187	0.105
305.15	0.01983	996.314	0.105
310.15	0.00215	993.535	0.105
310.15	0.00421	993.662	0.105
310.15	0.00596	993.769	0.105
310.15	0.00831	993.913	0.105
310.15	0.00955	993.989	0.105
310.15	0.01169	994.12	0.105
310.15	0.01422	994.275	0.105
310.15	0.01594	994.38	0.105
310.15	0.01778	994.493	0.105
310.15	0.01983	994.618	0.105
315.15	0.00215	991.641	0.105
315.15	0.00421	991.767	0.105
315.15	0.00596	991.873	0.105
315.15	0.00831	992.016	0.105
315.15	0.00955	992.092	0.105
315.15	0.01169	992.222	0.105
315.15	0.01422	992.376	0.105
315.15	0.01594	992.48	0.105
315.15	0.01778	992.592	0.105
315.15	0.01983	992.716	0.105

System: L-alanyl-L-alanine + water; phases: Liquid
Fixed: Pressure, kPa = 101
Property: Speed of sound, m/s (Liquid); method: vibrating tube:WF = 
Temperature, K	Molality, mol/kg of L-alanyl-L-alanine	Speed of sound, m/s	uncertainty
305.15	0.00215	1514.23	2
305.15	0.00421	1514.4	2
305.15	0.00596	1514.53	2
305.15	0.00831	1514.71	2
305.15	0.00955	1514.89	2
305.15	0.01169	1515.04	2
305.15	0.01422	1515.18	2
305.15	0.01594	1515.35	2
305.15	0.01778	1515.54	2
305.15	0.01983	1515.72	2
310.15	0.00215	1524.51	2
310.15	0.00421	1524.75	2
310.15	0.00596	1524.91	2
310.15	0.00831	1525.12	2
310.15	0.00955	1525.26	2
310.15	0.01169	1525.46	2
310.15	0.01422	1525.64	2
310.15	0.01594	1525.81	2
310.15	0.01778	1525.95	2
310.15	0.01983	1526.17	2
315.15	0.00215	1532.89	2
315.15	0.00421	1533.01	2
315.15	0.00596	1533.11	2
315.15	0.00831	1533.25	2
315.15	0.00955	1533.4	2
315.15	0.01169	1533.56	2
315.15	0.01422	1533.72	2
315.15	0.01594	1533.86	2
315.15	0.01778	1534.07	2
315.15	0.01983	1534.25	2

System: 6-[D-(2-amino-2-phenylacetyl)amino]-3,3-dimethyl-7-oxo-4-thia-1-azabicyclo[3.2.0]heptane-2-carboxylic acid + water; phases: Liquid
Fixed: Pressure, kPa = 101
Property: Mass density, kg/m3 (Liquid); method: Vibrating tube method
Temperature, K	Molality, mol/kg of 6-[D-(2-amino-2-phenylacetyl)amino]-3,3-dimethyl-7-oxo-4-thia-1-azabicyclo[3.2.0]heptane-2-carboxylic acid	Mass density, kg/m3	uncertainty
305.15	0.0005	995.062	0.105
310.15	0.0005	993.352	0.105
315.15	0.0005	991.353	0.106
305.15	0.002	995.271	0.105
310.15	0.002	993.569	0.105
315.15	0.002	991.665	0.105
305.15	0.004	995.458	0.105
310.15	0.004	993.755	0.105
315.15	0.004	991.87	0.105

System: 6-[D-(2-amino-2-phenylacetyl)amino]-3,3-dimethyl-7-oxo-4-thia-1-azabicyclo[3.2.0]heptane-2-carboxylic acid + water; phases: Liquid
Fixed: Pressure, kPa = 101
Property: Speed of sound, m/s (Liquid); method: vibrating tube:WF = 
Temperature, K	Molality, mol/kg of 6-[D-(2-amino-2-phenylacetyl)amino]-3,3-dimethyl-7-oxo-4-thia-1-azabicyclo[3.2.0]heptane-2-carboxylic acid	Speed of sound, m/s	uncertainty
305.15	0.0005	1513.68	2
310.15	0.0005	1523.68	2
315.15	0.0005	1532.15	2
305.15	0.002	1514.85	2
310.15	0.002	1524.8	2
315.15	0.002	1532.97	2
305.15	0.004	1515.98	2
310.15	0.004	1525.98	2
315.15	0.004	1534.01	2

System: L-alanyl-L-valine + water; phases: Liquid
Fixed: Pressure, kPa = 101
Property: Mass density, kg/m3 (Liquid); method: Vibrating tube method
Temperature, K	Molality, mol/kg of L-alanyl-L-valine	Mass density, kg/m3	uncertainty
305.15	0.00201	995.187	0.105
305.15	0.00414	995.289	0.105
305.15	0.00605	995.381	0.105
305.15	0.00791	995.471	0.105
305.15	0.01019	995.58	0.105
305.15	0.01179	995.657	0.105
305.15	0.01396	995.761	0.105
305.15	0.01551	995.835	0.105
305.15	0.01805	995.957	0.105
305.15	0.01971	996.037	0.105
310.15	0.00201	993.499	0.105
310.15	0.00414	993.601	0.105
310.15	0.00605	993.692	0.105
310.15	0.00791	993.781	0.105
310.15	0.01019	993.89	0.105
310.15	0.01179	993.966	0.105
310.15	0.01396	994.07	0.105
310.15	0.01551	994.143	0.105
310.15	0.01805	994.264	0.105
310.15	0.01971	994.343	0.105
315.15	0.00201	991.606	0.105
315.15	0.00414	991.707	0.105
315.15	0.00605	991.798	0.105
315.15	0.00791	991.886	0.105
315.15	0.01019	991.994	0.105
315.15	0.01179	992.07	0.105
315.15	0.01396	992.173	0.105
315.15	0.01551	992.246	0.105
315.15	0.01805	992.366	0.105
315.15	0.01971	992.445	0.105

System: L-alanyl-L-valine + water; phases: Liquid
Fixed: Pressure, kPa = 101
Property: Speed of sound, m/s (Liquid); method: vibrating tube:WF = 
Temperature, K	Molality, mol/kg of L-alanyl-L-valine	Speed of sound, m/s	uncertainty
305.15	0.00201	1514.31	2
305.15	0.00414	1514.52	2
305.15	0.00605	1514.63	2
305.15	0.00791	1514.81	2
305.15	0.01019	1514.99	2
305.15	0.01179	1515.15	2
305.15	0.01396	1515.36	2
305.15	0.01551	1515.58	2
305.15	0.01805	1515.75	2
305.15	0.01971	1515.93	2
310.15	0.00201	1524.81	2
310.15	0.00414	1525.01	2
310.15	0.00605	1525.25	2
310.15	0.00791	1525.49	2
310.15	0.01019	1525.72	2
310.15	0.01179	1525.92	2
310.15	0.01396	1526.12	2
310.15	0.01551	1526.38	2
310.15	0.01805	1526.69	2
310.15	0.01971	1526.92	2
315.15	0.00201	1533.51	2
315.15	0.00414	1533.74	2
315.15	0.00605	1533.96	2
315.15	0.00791	1534.14	2
315.15	0.01019	1534.29	2
315.15	0.01179	1534.41	2
315.15	0.01396	1534.58	2
315.15	0.01551	1534.75	2
315.15	0.01805	1534.97	2
315.15	0.01971	1535.18	2

System: L-alanyl-L-leucine + water; phases: Liquid
Fixed: Pressure, kPa = 101
Property: Mass density, kg/m3 (Liquid); method: Vibrating tube method
Temperature, K	Molality, mol/kg of L-alanyl-L-leucine	Mass density, kg/m3	uncertainty
305.15	0.00185	995.164	0.105
305.15	0.00389	995.246	0.105
305.15	0.00579	995.323	0.105
305.15	0.00813	995.416	0.105
305.15	0.00966	995.478	0.105
305.15	0.0122	995.579	0.105
305.15	0.01422	995.66	0.105
305.15	0.01589	995.727	0.105
305.15	0.01753	995.792	0.105
305.15	0.02055	995.913	0.105
310.15	0.00185	993.476	0.105
310.15	0.00389	993.556	0.105
310.15	0.00579	993.631	0.105
310.15	0.00813	993.723	0.105
310.15	0.00966	993.783	0.105
310.15	0.0122	993.883	0.105
310.15	0.01422	993.962	0.105
310.15	0.01589	994.027	0.105
310.15	0.01753	994.092	0.105
310.15	0.02055	994.21	0.105
315.15	0.00185	991.582	0.105
315.15	0.00389	991.661	0.105
315.15	0.00579	991.734	0.105
315.15	0.00813	991.825	0.105
315.15	0.00966	991.884	0.105
315.15	0.0122	991.982	0.105
315.15	0.01422	992.06	0.105
315.15	0.01589	992.124	0.105
315.15	0.01753	992.188	0.105
315.15	0.02055	992.304	0.105

System: L-alanyl-L-leucine + water; phases: Liquid
Fixed: Pressure, kPa = 101
Property: Speed of sound, m/s (Liquid); method: vibrating tube:WF = 
Temperature, K	Molality, mol/kg of L-alanyl-L-leucine	Speed of sound, m/s	uncertainty
305.15	0.00185	1514.31	2
305.15	0.00389	1514.44	2
305.15	0.00579	1514.59	2
305.15	0.00813	1514.72	2
305.15	0.00966	1514.86	2
305.15	0.0122	1514.99	2
305.15	0.01422	1515.14	2
305.15	0.01589	1515.32	2
305.15	0.01753	1515.48	2
305.15	0.02055	1515.62	2
310.15	0.00185	1524.72	2
310.15	0.00389	1524.96	2
310.15	0.00579	1525.2	2
310.15	0.00813	1525.43	2
310.15	0.00966	1525.65	2
310.15	0.0122	1525.86	2
310.15	0.01422	1526.04	2
310.15	0.01589	1526.28	2
310.15	0.01753	1526.59	2
310.15	0.02055	1526.7	2
315.15	0.00185	1533.25	2
315.15	0.00389	1533.42	2
315.15	0.00579	1533.65	2
315.15	0.00813	1533.86	2
315.15	0.00966	1534.02	2
315.15	0.0122	1534.26	2
315.15	0.01422	1534.51	2
315.15	0.01589	1534.72	2
315.15	0.01753	1534.89	2
315.15	0.02055	1535.05	2
