Measured thermophysical data. A comparative study on the effect of temperature on density, sound velocity and refractive index of nanoemulsions formed by castor, olive and linseed oils in aqueous cellulose acetate propionate and butyrate and Tween80
Source: Thermochim. Acta, 2016, 10.1016/j.tca.2016.08.012
Compound 1: water, H2O, InChI=1S/H2O/h1H2, purity 99.8%

System: water; phases: Liquid
Fixed: Pressure, kPa = 101.325
Property: Mass density, kg/m3 (Liquid); method: Vibrating tube method
Temperature, K	Mass density, kg/m3	uncertainty
293.15	998.478	0.501
298.15	997.32	0.501
303.15	995.927	0.501
308.15	994.305	0.501
313.15	992.491	0.501

System: water; phases: Liquid
Fixed: Pressure, kPa = 101.325
Property: Speed of sound, m/s (Liquid); method: Sing-around technique in a fixed-path interferometer
Temperature, K	Speed of sound, m/s	uncertainty
293.15	1482.69	1.22
298.15	1496.89	1.22
303.15	1509.16	1.22
308.15	1519.72	1.23
313.15	1528.76	1.23

System: water; phases: Liquid
Fixed: Pressure, kPa = 101.325
Property: Refractive index (Na D-line) (Liquid); method: Standard Abbe refractometry
Temperature, K	Refractive index (Na D-line)	uncertainty
293.15	1.333	0.001
298.15	1.3325	0.001
303.15	1.332	0.001
308.15	1.3314	0.001
313.15	1.3307	0.001
