Measured thermophysical data. Study of phase equilibria in LiCl-KCl-PrCl3 pseudo-ternary system
Source: Thermochim. Acta, 2017, 10.1016/j.tca.2017.03.024
Compound 1: potassium chloride, ClK, InChI=1S/ClH.K/h1H;/q;+1/p-1, purity 99.995%
Compound 2: lithium chloride, ClLi, InChI=1S/ClH.Li/h1H;/q;+1/p-1, purity 99.99%
Compound 3: praseodymium(III) chloride, Cl3Pr, InChI=1S/3ClH.Pr/h3*1H;/q;;;+3/p-3, purity 99.99%

System: potassium chloride; phases: Crystal, Liquid, Air at 1 atmosphere
Property: Normal melting temperature, K (Crystal); method: DTA
Normal melting temperature, K	uncertainty
1045	1

System: lithium chloride; phases: Crystal, Liquid, Air at 1 atmosphere
Property: Normal melting temperature, K (Crystal); method: DTA
Normal melting temperature, K	uncertainty
878	1

System: praseodymium(III) chloride; phases: Crystal, Liquid, Air at 1 atmosphere
Property: Normal melting temperature, K (Crystal); method: DTA
Normal melting temperature, K	uncertainty
1051	1

System: potassium chloride + lithium chloride + praseodymium(III) chloride; phases: Crystal, Crystal, Crystal of intercomponent compound 1, Liquid, Air at 1 atmosphere
Property: Eutectic temperature, K (Crystal); method: DTA
Eutectic temperature, K	uncertainty
591	4

System: potassium chloride + lithium chloride + praseodymium(III) chloride; phases: Crystal, Crystal, Crystal of intercomponent compound 1, Liquid, Air at 1 atmosphere
Property: Eutectic temperature, K (Crystal); method: DTA
Eutectic temperature, K	uncertainty
654	7

System: potassium chloride + lithium chloride + praseodymium(III) chloride; phases: Crystal of intercomponent compound 1, Crystal of intercomponent compound 2, Crystal, Liquid, Air at 1 atmosphere
Property: Peritectic temperature, K (Crystal of intercomponent compound 1); method: DTA
Peritectic temperature, K	uncertainty
762	1

System: potassium chloride + lithium chloride + praseodymium(III) chloride; phases: Liquid, Crystal
Fixed: Pressure, kPa = 100
Property: Solid-liquid equilibrium temperature, K (Liquid); method: DTA
Mole fraction of lithium chloride	Mole fraction of potassium chloride	Solid-liquid equilibrium temperature, K	uncertainty
0.7	0.2	786	2
0.65	0.3	733	2
0.75	0.2	793	2
0.6	0.3	736	2
0.5	0.2	710	2
0.6	0.2	750	2
0.8	0.1	822	2
0.6	0.1	724	2
0.7	0.1	775	2

System: potassium chloride + lithium chloride + praseodymium(III) chloride; phases: Liquid, Crystal of intercomponent compound 1
Fixed: Pressure, kPa = 100
Property: Solid-liquid equilibrium temperature, K (Liquid); method: DTA
Mole fraction of lithium chloride	Mole fraction of potassium chloride	Solid-liquid equilibrium temperature, K	uncertainty
0.4	0.4	792	2
0.1	0.6	867	2
0.45	0.5	690	3
0.4	0.5	763	2
0.2	0.6	838	2
0.3	0.6	758	2
0.556	0.394	675	3
0.5	0.4	761	2
0.3	0.5	811	2
0.4	0.3	745	2
0.3	0.4	793	2
0.2	0.5	841	2
0.5	0.3	759	2
0.3	0.3	722	2

System: potassium chloride + lithium chloride + praseodymium(III) chloride; phases: Liquid, Crystal
Fixed: Pressure, kPa = 100
Property: Solid-liquid equilibrium temperature, K (Liquid); method: DTA
Mole fraction of lithium chloride	Mole fraction of potassium chloride	Solid-liquid equilibrium temperature, K	uncertainty
0.1	0.8	931	2
0.35	0.6	788	2
0.2	0.7	853	2
0.2	0.75	915	2

System: potassium chloride + lithium chloride + praseodymium(III) chloride; phases: Liquid, Crystal
Fixed: Pressure, kPa = 100
Property: Solid-liquid equilibrium temperature, K (Liquid); method: DTA
Mole fraction of lithium chloride	Mole fraction of potassium chloride	Solid-liquid equilibrium temperature, K	uncertainty
0.4	0.2	739	3
0.2	0.3	807	3
0.3	0.2	857	3
0.5	0.1	808	3
0.4	0.1	883	3
