Measured thermophysical data. Experimental and theoretical excess molar properties of imidazolium based ionic liquids with isomers of butanol
Source: Thermochim. Acta, 2016, 10.1016/j.tca.2016.03.026
Compound 1: butan-1-ol, C4H10O, InChI=1S/C4H10O/c1-2-3-4-5/h5H,2-4H2,1H3, purity 99.5%
Compound 2: 2-methyl-1-propanol, C4H10O, InChI=1S/C4H10O/c1-4(2)3-5/h4-5H,3H2,1-2H3, purity 99%
Compound 3: 2-methylpropan-2-ol, C4H10O, InChI=1S/C4H10O/c1-4(2,3)5/h5H,1-3H3, purity 99%
Compound 4: 1-methyl-3-octylimidazolium tetrafluoroborate, C12H23BF4N2, InChI=1S/C12H23N2.BF4/c1-3-4-5-6-7-8-9-14-11-10-13(2)12-14;2-1(3,4)5/h10-12H,3-9H2,1-2H3;/q+1;-1

System: butan-1-ol; phases: Liquid
Fixed: Pressure, kPa = 100
Property: Mass density, kg/m3 (Liquid); method: Vibrating tube method
Temperature, K	Mass density, kg/m3	uncertainty
298.15	805.76	0.2
308.15	798.05	0.2
318.15	790.21	0.2

System: butan-1-ol; phases: Liquid
Fixed: Pressure, kPa = 100
Fixed: Frequency, MHz = 3
Property: Speed of sound, m/s (Liquid); method: Sing-around technique in a fixed-path interferometer
Temperature, K	Speed of sound, m/s	uncertainty
298.15	1242.41	1.23
308.15	1207.54	1.22
318.15	1171.51	1.22

System: butan-1-ol; phases: Liquid
Fixed: Pressure, kPa = 100
Property: Refractive index (Na D-line) (Liquid); method: Standard Abbe refractometry
Temperature, K	Refractive index (Na D-line)	uncertainty
298.15	1.39728	0.00163
308.15	1.39324	0.00163
318.15	1.38911	0.00163

System: 2-methyl-1-propanol; phases: Liquid
Fixed: Pressure, kPa = 100
Property: Mass density, kg/m3 (Liquid); method: Vibrating tube method
Temperature, K	Mass density, kg/m3	uncertainty
298.15	797.82	0.22
308.15	790.63	0.23
318.15	781.98	0.23

System: 2-methyl-1-propanol; phases: Liquid
Fixed: Pressure, kPa = 100
Fixed: Frequency, MHz = 3
Property: Speed of sound, m/s (Liquid); method: Sing-around technique in a fixed-path interferometer
Temperature, K	Speed of sound, m/s	uncertainty
298.15	1189.02	1.35
308.15	1155.94	1.34
318.15	1118.62	1.34

System: 2-methyl-1-propanol; phases: Liquid
Fixed: Pressure, kPa = 100
Property: Refractive index (Na D-line) (Liquid); method: Standard Abbe refractometry
Temperature, K	Refractive index (Na D-line)	uncertainty
298.15	1.39408	0.00163
308.15	1.38925	0.00163
318.15	1.38444	0.00163

System: 2-methylpropan-2-ol; phases: Liquid
Fixed: Pressure, kPa = 100
Property: Mass density, kg/m3 (Liquid); method: Vibrating tube method
Temperature, K	Mass density, kg/m3	uncertainty
298.15	780.72	0.23
308.15	770.21	0.23
318.15	759.5	0.23

System: 2-methylpropan-2-ol; phases: Liquid
Fixed: Pressure, kPa = 100
Fixed: Frequency, MHz = 3
Property: Speed of sound, m/s (Liquid); method: Sing-around technique in a fixed-path interferometer
Temperature, K	Speed of sound, m/s	uncertainty
298.15	1121.41	1.34
308.15	1081.97	1.33
318.15	1038.22	1.33

System: 2-methylpropan-2-ol; phases: Liquid
Fixed: Pressure, kPa = 100
Property: Refractive index (Na D-line) (Liquid); method: Standard Abbe refractometry
Temperature, K	Refractive index (Na D-line)	uncertainty
298.15	1.38488	0.00163
308.15	1.37985	0.00163
318.15	1.37402	0.00163

System: 1-methyl-3-octylimidazolium tetrafluoroborate; phases: Liquid
Fixed: Pressure, kPa = 100
Property: Mass density, kg/m3 (Liquid); method: Vibrating tube method
Temperature, K	Mass density, kg/m3	uncertainty
298.15	1105.02	1.06
308.15	1098.32	1.04
318.15	1091.54	1.03

System: 1-methyl-3-octylimidazolium tetrafluoroborate; phases: Liquid
Fixed: Pressure, kPa = 100
Fixed: Frequency, MHz = 3
Property: Speed of sound, m/s (Liquid); method: Sing-around technique in a fixed-path interferometer
Temperature, K	Speed of sound, m/s	uncertainty
298.15	1485.11	2.34
308.15	1458.54	2.33
318.15	1433.21	2.33

System: 1-methyl-3-octylimidazolium tetrafluoroborate; phases: Liquid
Fixed: Pressure, kPa = 100
Property: Refractive index (Na D-line) (Liquid); method: Standard Abbe refractometry
Temperature, K	Refractive index (Na D-line)	uncertainty
298.15	1.43253	0.00167
308.15	1.42984	0.00167
318.15	1.42715	0.00167

System: butan-1-ol + 1-methyl-3-octylimidazolium tetrafluoroborate; phases: Liquid
Fixed: Pressure, kPa = 100
Property: Mass density, kg/m3 (Liquid); method: Vibrating tube method
Temperature, K	Mole fraction of 1-methyl-3-octylimidazolium tetrafluoroborate	Mass density, kg/m3	uncertainty
298.15	0	805.76	0.2
298.15	0.1027	878.23	1.77
298.15	0.2022	929.75	1.87
298.15	0.3056	970.63	1.96
298.15	0.3989	999.88	2.02
298.15	0.5062	1027.17	2.09
298.15	0.6018	1047.22	2.14
298.15	0.6978	1064.35	2.21
298.15	0.8014	1080.2	2.28
298.15	0.9062	1094.06	2.36
298.15	1	1105.02	1.06
308.15	0	798.05	0.2
308.15	0.1027	870.62	1.75
308.15	0.2022	922.28	1.86
308.15	0.3056	963.3	1.94
308.15	0.3989	992.71	2
308.15	0.5062	1020.16	2.07
308.15	0.6018	1040.32	2.13
308.15	0.6978	1057.54	2.19
308.15	0.8014	1073.47	2.26
308.15	0.9062	1087.36	2.35
308.15	1	1098.32	1.04
318.15	0	790.21	0.2
318.15	0.1027	862.9	1.74
318.15	0.2022	914.69	1.84
318.15	0.3056	955.89	1.93
318.15	0.3989	985.42	1.99
318.15	0.5062	1013	2.06
318.15	0.6018	1033.31	2.11
318.15	0.6978	1050.61	2.17
318.15	0.8014	1066.62	2.25
318.15	0.9062	1080.57	2.33
318.15	1	1091.54	1.03

System: butan-1-ol + 1-methyl-3-octylimidazolium tetrafluoroborate; phases: Liquid
Fixed: Pressure, kPa = 100
Fixed: Frequency, MHz = 3
Property: Speed of sound, m/s (Liquid); method: Sing-around technique in a fixed-path interferometer
Temperature, K	Mole fraction of 1-methyl-3-octylimidazolium tetrafluoroborate	Speed of sound, m/s	uncertainty
298.15	0	1242.41	1.23
298.15	0.1027	1273.22	1.3
298.15	0.2022	1306.52	1.38
298.15	0.3056	1339.69	1.48
298.15	0.3989	1366.06	1.57
298.15	0.5062	1392.84	1.7
298.15	0.6018	1413.66	1.81
298.15	0.6978	1431.92	1.93
298.15	0.8014	1450.18	2.07
298.15	0.9062	1468.28	2.21
298.15	1	1485.11	2.34
308.15	0	1207.54	1.22
308.15	0.1027	1240.81	1.29
308.15	0.2022	1274.68	1.37
308.15	0.3056	1308.68	1.47
308.15	0.3989	1336.03	1.57
308.15	0.5062	1363.17	1.69
308.15	0.6018	1384.75	1.81
308.15	0.6978	1403.82	1.93
308.15	0.8014	1422.98	2.06
308.15	0.9062	1441.58	2.2
308.15	1	1458.54	2.33
318.15	0	1171.51	1.22
318.15	0.1027	1206.7	1.29
318.15	0.2022	1241.85	1.37
318.15	0.3056	1276.28	1.47
318.15	0.3989	1304.15	1.57
318.15	0.5062	1333.27	1.69
318.15	0.6018	1356.04	1.8
318.15	0.6978	1377.02	1.93
318.15	0.8014	1397.18	2.06
318.15	0.9062	1416.32	2.2
318.15	1	1433.21	2.33

System: butan-1-ol + 1-methyl-3-octylimidazolium tetrafluoroborate; phases: Liquid
Fixed: Pressure, kPa = 100
Property: Refractive index (Na D-line) (Liquid); method: Standard Abbe refractometry
Temperature, K	Mole fraction of 1-methyl-3-octylimidazolium tetrafluoroborate	Refractive index (Na D-line)	uncertainty
298.15	0	1.39728	0.00163
298.15	0.1027	1.40763	0.00163
298.15	0.2022	1.41502	0.00163
298.15	0.3056	1.41903	0.00163
298.15	0.3989	1.42183	0.00164
298.15	0.5062	1.42405	0.00164
298.15	0.6018	1.42594	0.00165
298.15	0.6978	1.42791	0.00165
298.15	0.8014	1.42974	0.00166
298.15	0.9062	1.43151	0.00167
298.15	1	1.43253	0.00167
308.15	0	1.39324	0.00163
308.15	0.1027	1.40492	0.00163
308.15	0.2022	1.41254	0.00163
308.15	0.3056	1.41692	0.00163
308.15	0.3989	1.41956	0.00164
308.15	0.5062	1.42175	0.00164
308.15	0.6018	1.42362	0.00165
308.15	0.6978	1.42542	0.00165
308.15	0.8014	1.42732	0.00166
308.15	0.9062	1.42861	0.00167
308.15	1	1.42984	0.00167
318.15	0	1.38911	0.00163
318.15	0.1027	1.40232	0.00163
318.15	0.2022	1.40964	0.00163
318.15	0.3056	1.41438	0.00163
318.15	0.3989	1.41736	0.00164
318.15	0.5062	1.41965	0.00164
318.15	0.6018	1.42126	0.00165
318.15	0.6978	1.42301	0.00165
318.15	0.8014	1.42444	0.00166
318.15	0.9062	1.42615	0.00167
318.15	1	1.42715	0.00167

System: 2-methyl-1-propanol + 1-methyl-3-octylimidazolium tetrafluoroborate; phases: Liquid
Fixed: Pressure, kPa = 100
Property: Mass density, kg/m3 (Liquid); method: Vibrating tube method
Temperature, K	Mole fraction of 1-methyl-3-octylimidazolium tetrafluoroborate	Mass density, kg/m3	uncertainty
298.15	0	797.82	0.22
298.15	0.1084	876.21	1.77
298.15	0.2056	927.81	1.87
298.15	0.3002	966.65	1.95
298.15	0.4082	1001.41	2.03
298.15	0.4989	1024.88	2.09
298.15	0.6024	1047.08	2.16
298.15	0.7044	1065.38	2.23
298.15	0.8062	1080.91	2.3
298.15	0.8998	1093.3	2.37
298.15	1	1105.02	1.06
308.15	0	790.63	0.23
308.15	0.1084	869.11	1.75
308.15	0.2056	920.72	1.86
308.15	0.3002	959.59	1.94
308.15	0.4082	994.4	2.02
308.15	0.4989	1017.95	2.08
308.15	0.6024	1040.26	2.15
308.15	0.7044	1058.63	2.21
308.15	0.8062	1074.22	2.28
308.15	0.8998	1086.63	2.35
308.15	1	1098.32	1.04
318.15	0	781.98	0.23
318.15	0.1084	860.8	1.74
318.15	0.2056	912.57	1.84
318.15	0.3002	951.64	1.93
318.15	0.4082	986.65	2
318.15	0.4989	1010.44	2.06
318.15	0.6024	1032.97	2.13
318.15	0.7044	1051.52	2.2
318.15	0.8062	1067.26	2.26
318.15	0.8998	1079.78	2.33
318.15	1	1091.54	1.03

System: 2-methyl-1-propanol + 1-methyl-3-octylimidazolium tetrafluoroborate; phases: Liquid
Fixed: Pressure, kPa = 100
Fixed: Frequency, MHz = 3
Property: Speed of sound, m/s (Liquid); method: Sing-around technique in a fixed-path interferometer
Temperature, K	Mole fraction of 1-methyl-3-octylimidazolium tetrafluoroborate	Speed of sound, m/s	uncertainty
298.15	0	1189.02	1.35
298.15	0.1084	1230.34	1.43
298.15	0.2056	1274.12	1.52
298.15	0.3002	1314.42	1.6
298.15	0.4082	1354.08	1.71
298.15	0.4989	1381.12	1.8
298.15	0.6024	1407.23	1.9
298.15	0.7044	1429.11	2.01
298.15	0.8062	1447.22	2.12
298.15	0.8998	1463.75	2.22
298.15	1	1485.11	2.34
308.15	0	1155.94	1.34
308.15	0.1084	1198.28	1.43
308.15	0.2056	1242.42	1.51
308.15	0.3002	1282.12	1.6
308.15	0.4082	1322.4	1.7
308.15	0.4989	1351.26	1.79
308.15	0.6024	1378.24	1.9
308.15	0.7044	1402.12	2.01
308.15	0.8062	1421.08	2.12
308.15	0.8998	1437.08	2.22
308.15	1	1458.54	2.33
318.15	0	1118.62	1.34
318.15	0.1084	1162.24	1.42
318.15	0.2056	1206.42	1.51
318.15	0.3002	1246.23	1.59
318.15	0.4082	1287.52	1.7
318.15	0.4989	1317.82	1.79
318.15	0.6024	1347.4	1.9
318.15	0.7044	1373.28	2
318.15	0.8062	1394.28	2.11
318.15	0.8998	1411.32	2.22
318.15	1	1433.21	2.33

System: 2-methyl-1-propanol + 1-methyl-3-octylimidazolium tetrafluoroborate; phases: Liquid
Fixed: Pressure, kPa = 100
Property: Refractive index (Na D-line) (Liquid); method: Standard Abbe refractometry
Temperature, K	Mole fraction of 1-methyl-3-octylimidazolium tetrafluoroborate	Refractive index (Na D-line)	uncertainty
298.15	0	1.39408	0.00163
298.15	0.1084	1.40643	0.00163
298.15	0.2056	1.41442	0.00164
298.15	0.3002	1.41922	0.00164
298.15	0.4082	1.42292	0.00164
298.15	0.4989	1.42482	0.00165
298.15	0.6024	1.42664	0.00165
298.15	0.7044	1.42845	0.00166
298.15	0.8062	1.43004	0.00166
298.15	0.8998	1.43121	0.00167
298.15	1	1.43253	0.00167
308.15	0	1.38925	0.00163
308.15	0.1084	1.40292	0.00163
308.15	0.2056	1.41142	0.00164
308.15	0.3002	1.41636	0.00164
308.15	0.4082	1.41998	0.00164
308.15	0.4989	1.42182	0.00165
308.15	0.6024	1.42372	0.00165
308.15	0.7044	1.42562	0.00166
308.15	0.8062	1.42748	0.00166
308.15	0.8998	1.42866	0.00167
308.15	1	1.42984	0.00167
318.15	0	1.38444	0.00163
318.15	0.1084	1.40008	0.00163
318.15	0.2056	1.40854	0.00164
318.15	0.3002	1.41407	0.00164
318.15	0.4082	1.41801	0.00164
318.15	0.4989	1.41925	0.00165
318.15	0.6024	1.42108	0.00165
318.15	0.7044	1.42306	0.00166
318.15	0.8062	1.42474	0.00166
318.15	0.8998	1.42604	0.00167
318.15	1	1.42715	0.00167

System: 2-methylpropan-2-ol + 1-methyl-3-octylimidazolium tetrafluoroborate; phases: Liquid
Fixed: Pressure, kPa = 100
Property: Mass density, kg/m3 (Liquid); method: Vibrating tube method
Temperature, K	Mole fraction of 1-methyl-3-octylimidazolium tetrafluoroborate	Mass density, kg/m3	uncertainty
298.15	0	780.72	0.23
298.15	0.1017	858.69	1.73
298.15	0.1988	914.56	1.85
298.15	0.3011	959.49	1.94
298.15	0.4052	994.81	2.02
298.15	0.5002	1020.68	2.08
298.15	0.604	1044.05	2.15
298.15	0.7024	1062.66	2.22
298.15	0.7992	1078.39	2.29
298.15	0.9014	1092.82	2.37
298.15	1	1105.02	1.06
308.15	0	770.21	0.23
308.15	0.1017	849.64	1.72
308.15	0.1988	906	1.83
308.15	0.3011	951.41	1.92
308.15	0.4052	987.25	2
308.15	0.5002	1013.4	2.07
308.15	0.604	1037.31	2.14
308.15	0.7024	1056.01	2.21
308.15	0.7992	1071.8	2.27
308.15	0.9014	1086.23	2.35
308.15	1	1098.32	1.04
318.15	0	759.5	0.23
318.15	0.1017	840.32	1.7
318.15	0.1988	897.39	1.81
318.15	0.3011	943.34	1.91
318.15	0.4052	979.38	1.99
318.15	0.5002	1005.9	2.05
318.15	0.604	1029.92	2.12
318.15	0.7024	1049.1	2.19
318.15	0.7992	1064.98	2.26
318.15	0.9014	1079.48	2.33
318.15	1	1091.54	1.03

System: 2-methylpropan-2-ol + 1-methyl-3-octylimidazolium tetrafluoroborate; phases: Liquid
Fixed: Pressure, kPa = 100
Fixed: Frequency, MHz = 3
Property: Speed of sound, m/s (Liquid); method: Sing-around technique in a fixed-path interferometer
Temperature, K	Mole fraction of 1-methyl-3-octylimidazolium tetrafluoroborate	Speed of sound, m/s	uncertainty
298.15	0	1121.41	1.34
298.15	0.1017	1188.32	1.42
298.15	0.1988	1254.23	1.51
298.15	0.3011	1309.41	1.6
298.15	0.4052	1351.45	1.7
298.15	0.5002	1382.51	1.8
298.15	0.604	1410.1	1.9
298.15	0.7024	1433.38	2.01
298.15	0.7992	1451.28	2.11
298.15	0.9014	1467.56	2.23
298.15	1	1485.11	2.34
308.15	0	1081.97	1.33
308.15	0.1017	1157.22	1.42
308.15	0.1988	1221.58	1.5
308.15	0.3011	1275.56	1.6
308.15	0.4052	1322.25	1.7
308.15	0.5002	1353.61	1.79
308.15	0.604	1383.32	1.9
308.15	0.7024	1408.96	2.01
308.15	0.7992	1428.2	2.11
308.15	0.9014	1443.32	2.22
308.15	1	1458.54	2.33
318.15	0	1038.22	1.33
318.15	0.1017	1119.11	1.41
318.15	0.1988	1190.22	1.5
318.15	0.3011	1246.52	1.59
318.15	0.4052	1293.34	1.7
318.15	0.5002	1324.88	1.79
318.15	0.604	1354.52	1.9
318.15	0.7024	1380.25	2
318.15	0.7992	1402.23	2.11
318.15	0.9014	1417.19	2.22
318.15	1	1433.21	2.33

System: 2-methylpropan-2-ol + 1-methyl-3-octylimidazolium tetrafluoroborate; phases: Liquid
Fixed: Pressure, kPa = 100
Property: Refractive index (Na D-line) (Liquid); method: Standard Abbe refractometry
Temperature, K	Mole fraction of 1-methyl-3-octylimidazolium tetrafluoroborate	Refractive index (Na D-line)	uncertainty
298.15	0	1.38488	0.00163
298.15	0.1017	1.40022	0.00163
298.15	0.1988	1.40992	0.00164
298.15	0.3011	1.41591	0.00164
298.15	0.4052	1.41962	0.00164
298.15	0.5002	1.42177	0.00165
298.15	0.604	1.42411	0.00165
298.15	0.7024	1.42628	0.00166
298.15	0.7992	1.42805	0.00166
298.15	0.9014	1.43025	0.00167
298.15	1	1.43253	0.00167
308.15	0	1.37985	0.00163
308.15	0.1017	1.39681	0.00163
308.15	0.1988	1.40684	0.00164
308.15	0.3011	1.41342	0.00164
308.15	0.4052	1.41719	0.00164
308.15	0.5002	1.41911	0.00165
308.15	0.604	1.42168	0.00165
308.15	0.7024	1.42348	0.00166
308.15	0.7992	1.42562	0.00166
308.15	0.9014	1.42769	0.00167
308.15	1	1.42984	0.00167
318.15	0	1.37402	0.00163
318.15	0.1017	1.39317	0.00163
318.15	0.1988	1.40405	0.00164
318.15	0.3011	1.41058	0.00164
318.15	0.4052	1.41452	0.00164
318.15	0.5002	1.41635	0.00165
318.15	0.604	1.41871	0.00165
318.15	0.7024	1.42104	0.00166
318.15	0.7992	1.42272	0.00166
318.15	0.9014	1.42513	0.00167
318.15	1	1.42715	0.00167
