Measured thermophysical data. Temperature dependence of the interaction between two hydrophobic solutes: a calorimetric study
Source: Thermochim. Acta, 2005, 10.1016/j.tca.2004.08.012
Compound 1: tris(dimethylamino)phosphine oxide, C6H18N3OP, InChI=1S/C6H18N3OP/c1-7(2)11(10,8(3)4)9(5)6/h1-6H3, purity 99%
Compound 2: water, H2O, InChI=1S/H2O/h1H2, purity 99.99%
Compound 3: tetraethylammonium bromide, C8H20BrN, InChI=1S/C8H20N.BrH/c1-5-9(6-2,7-3)8-4;/h5-8H2,1-4H3;1H/q+1;/p-1, purity 99%
Compound 4: tetrabutylammonium bromide, C16H36BrN, InChI=1S/C16H36N.BrH/c1-5-9-13-17(14-10-6-2,15-11-7-3)16-12-8-4;/h5-16H2,1-4H3;1H/q+1;/p-1, purity 99%

System: tetraethylammonium bromide + water; phases: Liquid
Fixed: Pressure, kPa = 101.325
Fixed: Mole fraction of tetraethylammonium bromide = 0
Property: Molar enthalpy of solution, kJ/mol (Liquid); method: Solution calorimetry
Temperature, K	Molar enthalpy of solution, kJ/mol	uncertainty
131.15	8.11	0.08
277.15	3.58	0.04
288.15	4.71	0.05

System: tetrabutylammonium bromide + water; phases: Liquid
Fixed: Pressure, kPa = 101.325
Fixed: Mole fraction of tetrabutylammonium bromide = 0
Property: Molar enthalpy of solution, kJ/mol (Liquid); method: OTHER:UFactor:2:sMethod:Solution calorimetry
Temperature, K	Molar enthalpy of solution, kJ/mol	uncertainty
131.15	2.67	0.05
277.15	-24.41	0.49
288.15	-16.01	0.32

System: tetraethylammonium bromide + tris(dimethylamino)phosphine oxide + water; phases: Liquid
Fixed: Pressure, kPa = 101.325
Fixed: Mole fraction of tetraethylammonium bromide = 0
Property: Molar enthalpy of solution, kJ/mol (Liquid); method: Solution calorimetry
Solvent: Mole fraction of tris(dimethylamino)phosphine oxide	Temperature, K	Molar enthalpy of solution, kJ/mol	uncertainty
0	277.15	3.58	0.04
0	288.15	4.71	0.05
0	313.15	8.11	0.08
0.005	313.15	8.69	0.09
0.00864	288.15	6.31	0.06
0.00993	277.15	5.95	0.06
0.01001	313.15	9.26	0.09
0.01923	288.15	8.54	0.09
0.01977	277.15	8.07	0.08
0.01999	313.15	10.33	0.1
0.03002	313.15	11.31	0.11
0.03045	277.15	10.22	0.1
0.03719	288.15	11.61	0.12
0.04795	277.15	12.78	0.13
0.04893	288.15	12.71	0.13
0.05	313.15	13	0.13
0.05769	288.15	13.9	0.14
0.05852	288.15	13.92	0.14
0.06568	277.15	14.46	0.14
0.06998	313.15	14.05	0.14

System: tris(dimethylamino)phosphine oxide + tetrabutylammonium bromide + water; phases: Liquid
Fixed: Pressure, kPa = 101.325
Fixed: Mole fraction of tetrabutylammonium bromide = 0
Property: Molar enthalpy of solution, kJ/mol (Liquid); method: OTHER:UFactor:2:sMethod:Solution calorimetry
Solvent: Mole fraction of tris(dimethylamino)phosphine oxide	Temperature, K	Molar enthalpy of solution, kJ/mol	uncertainty
0	277.15	-24.41	0.49
0	288.15	-16.01	0.32
0	313.15	2.67	0.05
0.005	313.15	6.35	0.13
0.00679	288.15	-11.27	0.23
0.00927	277.15	-17.33	0.35
0.00934	313.15	10.3	0.21
0.0113	288.15	-8.21	0.16
0.02001	313.15	16.15	0.32
0.02005	277.15	-8.54	0.17
0.02032	288.15	-0.84	0.02
0.02999	313.15	21.92	0.44
0.03018	288.15	6.73	0.13
0.03053	277.15	0.12	0.01
0.04714	313.15	30.67	0.61
0.04853	277.15	15.37	0.31
0.05203	313.15	31.37	0.63
0.05343	288.15	21.66	0.43
0.06477	277.15	24.83	0.5
0.06855	313.15	36.81	0.74
0.07067	288.15	29.45	0.59
