Measured thermophysical data. Pyrolysis kinetics of tetrabromobisphenol a (TBBPA) and electric arc furnace dust mixtures
Source: Thermochim. Acta, 2018, 10.1016/j.tca.2017.12.022
Compound 1: 2,2-bis(3,5-dibromo-4-hydroxyphenyl)propane, C15H12Br4O2, InChI=1S/C15H12Br4O2/c1-15(2,7-3-9(16)13(20)10(17)4-7)8-5-11(18)14(21)12(19)6-8/h3-6,20-21H,1-2H3

System: 2,2-bis(3,5-dibromo-4-hydroxyphenyl)propane; phases: Crystal, Liquid, Air at 1 atmosphere
Property: Normal melting temperature, K (Crystal); method: DTA:corrimp
Normal melting temperature, K	uncertainty
453.15	3
