Measured thermophysical data. Excess molar enthalpies of binary mixtures containing ethylene glycols or poly(ethylene glycols) + ethyl alcohol at 308.15K and atmospheric pressure
Source: Thermochim. Acta, 2005, 10.1016/j.tca.2005.01.064
Compound 1: 1,2-ethanediol, C2H6O2, InChI=1S/C2H6O2/c3-1-2-4/h3-4H,1-2H2
Compound 2: diethylene glycol, C4H10O3, InChI=1S/C4H10O3/c5-1-3-7-4-2-6/h5-6H,1-4H2
Compound 3: triethylene glycol, C6H14O4, InChI=1S/C6H14O4/c7-1-3-9-5-6-10-4-2-8/h7-8H,1-6H2
Compound 4: tetraethylene glycol, C8H18O5, InChI=1S/C8H18O5/c9-1-3-11-5-7-13-8-6-12-4-2-10/h9-10H,1-8H2
Compound 5: ethanol, C2H6O, InChI=1S/C2H6O/c1-2-3/h3H,2H2,1H3

System: 1,2-ethanediol; phases: Liquid
Property: Mass density, kg/m3 (Liquid); method: Vibrating tube method
Temperature, K	Pressure, kPa	Mass density, kg/m3	uncertainty
308.15	101.325	1102.93	0.57

System: diethylene glycol; phases: Liquid
Property: Mass density, kg/m3 (Liquid); method: Vibrating tube method
Temperature, K	Pressure, kPa	Mass density, kg/m3	uncertainty
308.15	101.325	1105.65	0.57

System: triethylene glycol; phases: Liquid
Property: Mass density, kg/m3 (Liquid); method: Vibrating tube method
Temperature, K	Pressure, kPa	Mass density, kg/m3	uncertainty
308.15	101.325	1112.09	0.57

System: tetraethylene glycol; phases: Liquid
Property: Mass density, kg/m3 (Liquid); method: Vibrating tube method
Temperature, K	Pressure, kPa	Mass density, kg/m3	uncertainty
308.15	101.325	1112.28	0.17

System: ethanol; phases: Liquid
Property: Mass density, kg/m3 (Liquid); method: Vibrating tube method
Temperature, K	Pressure, kPa	Mass density, kg/m3	uncertainty
308.15	101.325	776.41	0.17

System: ethanol + 1,2-ethanediol; phases: Liquid
Fixed: Temperature, K = 308.15
Fixed: Pressure, kPa = 101.325
Property: Excess molar enthalpy (molar enthalpy of mixing), kJ/mol (Liquid); method: Flow calorimetry
Mole fraction of 1,2-ethanediol	Excess molar enthalpy (molar enthalpy of mixing), kJ/mol	uncertainty
0.0719	0.2201	0.0032
0.1341	0.3486	0.0045
0.1886	0.4295	0.0053
0.2365	0.4797	0.0058
0.3173	0.5267	0.0063
0.3826	0.5492	0.0065
0.4817	0.5491	0.0065
0.5533	0.5231	0.0062
0.6502	0.4799	0.0058
0.7361	0.4141	0.0051
0.788	0.354	0.0045
0.8479	0.2862	0.0039
0.8815	0.2363	0.0034
0.9177	0.173	0.0027
0.9371	0.1394	0.0024
0.9571	0.0958	0.002
0.9781	0.05	0.0015

System: ethanol + diethylene glycol; phases: Liquid
Fixed: Temperature, K = 308.15
Fixed: Pressure, kPa = 101.325
Property: Excess molar enthalpy (molar enthalpy of mixing), kJ/mol (Liquid); method: Flow calorimetry
Mole fraction of diethylene glycol	Excess molar enthalpy (molar enthalpy of mixing), kJ/mol	uncertainty
0.0434	0.0772	0.0018
0.0833	0.1336	0.0023
0.1199	0.1764	0.0028
0.1537	0.202	0.003
0.2142	0.2434	0.0034
0.2663	0.2635	0.0036
0.3528	0.2793	0.0038
0.4208	0.2795	0.0038
0.5216	0.2696	0.0037
0.6206	0.2366	0.0034
0.6856	0.2121	0.0031
0.7658	0.1743	0.0027
0.8135	0.1479	0.0025
0.8674	0.1098	0.0021
0.8973	0.091	0.0019
0.929	0.0634	0.0016
0.9632	0.0329	0.0013

System: ethanol + triethylene glycol; phases: Liquid
Fixed: Temperature, K = 308.15
Fixed: Pressure, kPa = 101.325
Property: Excess molar enthalpy (molar enthalpy of mixing), kJ/mol (Liquid); method: Flow calorimetry
Mole fraction of triethylene glycol	Excess molar enthalpy (molar enthalpy of mixing), kJ/mol	uncertainty
0.0313	0.1333	0.0023
0.0606	0.2354	0.0034
0.0883	0.322	0.0042
0.1143	0.3785	0.0048
0.1623	0.4652	0.0057
0.2047	0.5225	0.0062
0.2792	0.588	0.0069
0.3405	0.6074	0.0071
0.4365	0.6275	0.0073
0.5376	0.6116	0.0071
0.6078	0.6056	0.0071
0.6992	0.5534	0.0065
0.756	0.4878	0.0059
0.823	0.4071	0.0051
0.8613	0.3287	0.0043
0.9029	0.2488	0.0035
0.949	0.1357	0.0024

System: ethanol + tetraethylene glycol; phases: Liquid
Fixed: Temperature, K = 308.15
Fixed: Pressure, kPa = 101.325
Property: Excess molar enthalpy (molar enthalpy of mixing), kJ/mol (Liquid); method: Flow calorimetry
Mole fraction of tetraethylene glycol	Excess molar enthalpy (molar enthalpy of mixing), kJ/mol	uncertainty
0.0243	0.1269	0.0023
0.0475	0.2299	0.0033
0.0697	0.3158	0.0042
0.0908	0.3808	0.0048
0.1303	0.4786	0.0058
0.1664	0.5444	0.0064
0.2305	0.6357	0.0074
0.2853	0.6789	0.0078
0.3746	0.7361	0.0084
0.4734	0.7615	0.0086
0.5451	0.7472	0.0085
0.6425	0.69	0.0079
0.7056	0.6221	0.0072
0.7824	0.5001	0.006
0.8276	0.416	0.0052
0.8779	0.2929	0.0039
0.935	0.1531	0.0025
