Measured thermophysical data. Integral enthalpy of mixing of the liquid ternary Au Cu Sn system
Source: Thermochim. Acta, 2008, 10.1016/j.tca.2008.01.014
Compound 1: gold, Au, InChI=1S/Au
Compound 2: copper, Cu, InChI=1S/Cu
Compound 3: tin, Sn, InChI=1S/Sn

System: tin + copper + gold; phases: Liquid
Fixed: Temperature, K = 1273
Fixed: Pressure, kPa = 101
Property: Excess molar enthalpy (molar enthalpy of mixing), kJ/mol (Liquid); method: Calvet calorimetry
Mole fraction of tin	Mole fraction of copper	Excess molar enthalpy (molar enthalpy of mixing), kJ/mol	uncertainty
0.14645	0.56083	-7.041	0.071
0.15111	0.54685	-7.218	0.073
0.15606	0.53199	-7.395	0.075
0.16119	0.51661	-7.566	0.077
0.16657	0.5005	-7.733	0.078
0.17198	0.48425	-7.902	0.08
0.17753	0.4676	-8.062	0.082
0.18345	0.44988	-8.229	0.083
0.18924	0.43249	-8.38	0.085
0.18947	0.38033	-10.315	0.104
0.1942	0.38982	-10.289	0.104
0.19524	0.41452	-8.53	0.086
0.19902	0.39949	-10.252	0.104
0.20133	0.39624	-8.675	0.088
0.20361	0.4087	-10.198	0.103
0.20775	0.377	-8.819	0.089
0.20831	0.41813	-10.132	0.102
0.21307	0.4277	-10.048	0.101
0.21454	0.35664	-8.961	0.091
0.21805	0.43768	-9.949	0.1
0.22177	0.33494	-9.104	0.092
0.2232	0.44801	-9.825	0.099
0.22794	0.45754	-9.697	0.098
0.22933	0.31227	-9.253	0.094
0.23285	0.46739	-9.55	0.097
0.23739	0.28809	-9.408	0.095
0.23785	0.47743	-9.382	0.095
0.24297	0.48771	-9.197	0.093
0.246	0.26229	-9.55	0.097
0.24828	0.49837	-8.976	0.091
0.25376	0.50937	-8.747	0.088
0.25516	0.23483	-9.7	0.098
0.25947	0.52083	-8.473	0.086
0.26489	0.20565	-9.853	0.1
0.26537	0.53267	-8.191	0.083
0.27147	0.54491	-7.878	0.08
0.275	0.17532	-10.005	0.101
0.27686	0.27631	-10.669	0.108
0.27767	0.55737	-7.537	0.076
0.28396	0.56999	-7.185	0.073
0.2841	0.28353	-10.595	0.107
0.28501	0.54839	-5.7	0.058
0.2857	0.14325	-10.166	0.103
0.29053	0.58317	-6.793	0.069
0.291	0.29041	-10.511	0.106
0.29383	0.53441	-5.77	0.059
0.29706	0.10918	-10.32	0.104
0.29738	0.59691	-6.369	0.065
0.29801	0.29741	-10.416	0.105
0.30293	0.52	-5.834	0.059
0.30443	0.61107	-5.899	0.06
0.30495	0.30434	-10.302	0.104
0.30838	0.07523	-10.46	0.106
0.3113	0.62487	-5.432	0.055
0.31211	0.31148	-10.177	0.103
0.31224	0.50525	-5.881	0.06
0.31828	0.63888	-4.935	0.05
0.31937	0.31873	-10.032	0.101
0.32046	0.039	-10.615	0.107
0.32212	0.4896	-5.944	0.06
0.32553	0.65343	-4.405	0.045
0.32677	0.32611	-9.854	0.1
0.33213	0.47373	-6.021	0.061
0.33253	0.66747	-3.874	0.04
0.33346	0	-10.776	0.109
0.33442	0.33375	-9.648	0.097
0.3424	0.34171	-9.35	0.095
0.34264	0.45708	-6.093	0.062
0.35058	0.34987	-9.1	0.092
0.35375	0.43947	-6.181	0.063
0.35899	0.35826	-8.849	0.089
0.36403	0.42319	-6.27	0.064
0.36768	0.36694	-8.538	0.086
0.37477	0.40616	-6.365	0.065
0.3767	0.37594	-8.207	0.083
0.38606	0.38529	-7.838	0.079
0.38613	0.38817	-6.471	0.066
0.39544	0.39464	-7.46	0.076
0.39806	0.36927	-6.585	0.067
0.40467	0.2022	-9.898	0.1
0.40527	0.40445	-7.039	0.071
0.41032	0.34983	-6.717	0.068
0.41531	0.20751	-9.699	0.098
0.41543	0.4146	-6.557	0.067
0.41999	0.20957	-9.559	0.097
0.42283	0.33001	-6.856	0.07
0.42605	0.42519	-6.049	0.061
0.42627	0.21299	-9.456	0.096
0.42963	0.21438	-9.355	0.095
0.4359	0.30931	-7.006	0.071
0.43701	0.43613	-5.525	0.056
0.43755	0.21863	-9.197	0.093
0.43937	0.21924	-9.127	0.092
0.44654	0.22312	-8.979	0.091
0.44829	0.44739	-4.944	0.05
0.44936	0.22423	-8.888	0.09
0.44973	0.28739	-7.172	0.073
0.45565	0.22767	-8.766	0.089
0.45982	0.22944	-8.619	0.087
0.46017	0.45925	-4.308	0.044
0.46443	0.2641	-7.355	0.075
0.4651	0.23239	-8.516	0.086
0.46957	0.23431	-8.356	0.085
0.47238	0.47143	-3.634	0.037
0.4732	0.0546	-10.72	0.108
0.47495	0.23731	-8.368	0.085
0.47953	0.23928	-8.067	0.082
0.47999	0.23944	-7.564	0.077
0.48259	0.48162	-3.044	0.031
0.4845	0.24208	-8.095	0.082
0.4868	0.0561	-10.584	0.107
0.48984	0.24442	-7.746	0.078
0.49271	0.49172	-2.447	0.025
0.49397	0.24682	-7.785	0.079
0.49554	0.2148	-7.773	0.079
0.5	0.0577	-10.436	0.105
0.50008	0.24954	-7.429	0.075
0.5005	0.4995	-1.975	0.021
0.50345	0.25155	-7.499	0.076
0.51065	0.25481	-7.084	0.072
0.512	0.18872	-8.022	0.081
0.5126	0.0591	-10.277	0.104
0.513	0.25632	-7.187	0.073
0.52167	0.26031	-6.698	0.068
0.5229	0.26127	-6.875	0.07
0.5256	0.0606	-10.097	0.102
0.52957	0.16087	-8.298	0.084
0.53273	0.26583	-6.3	0.064
0.53303	0.26633	-6.499	0.066
0.5388	0.0621	-9.893	0.1
0.54334	0.27148	-6.12	0.062
0.54383	0.27137	-5.896	0.06
0.54813	0.13147	-8.586	0.087
0.55251	0.06371	-9.67	0.098
0.55384	0.27673	-5.717	0.058
0.55528	0.27708	-5.459	0.056
0.56471	0.28216	-5.3	0.054
0.5668	0.06536	-9.411	0.095
0.56686	0.28286	-5.004	0.051
0.56762	0.1006	-8.915	0.09
0.57598	0.2878	-4.815	0.049
0.57878	0.2888	-4.523	0.046
0.58154	0.06706	-9.142	0.092
0.58755	0.29357	-4.349	0.044
0.58833	0.06778	-9.277	0.094
0.59014	0.29448	-4.054	0.042
0.59691	0.06883	-8.834	0.089
0.5992	0.29939	-3.835	0.039
0.60143	0.30011	-3.581	0.037
0.60924	0.03464	-9.679	0.098
0.61112	0.30535	-3.318	0.034
0.61294	0.30585	-3.088	0.032
0.61296	0.07068	-8.49	0.086
0.62327	0.31142	-2.633	0.027
0.62452	0.31163	-2.576	0.027
0.62949	0.07259	-8.108	0.082
0.6311	0	-10.131	0.102
0.6347	0.31713	-2.106	0.022
0.63549	0.3171	-2.082	0.022
0.6456	0.32258	-1.605	0.017
0.64628	0.32249	-1.586	0.017
0.64661	0.07456	-7.702	0.078
0.65617	0.32786	-1.114	0.012
0.65712	0.3279	-1.084	0.012
0.66461	0.07664	-7.254	0.074
0.66682	0.33318	-0.61	0.007
0.66711	0.33289	-0.61	0.007
0.68352	0.07882	-6.758	0.069
0.70314	0.08108	-6.209	0.063
0.72317	0.08339	-5.635	0.057
0.74426	0.08582	-5.016	0.051
0.76614	0.08834	-4.342	0.044
0.78882	0.09096	-3.63	0.037
0.81216	0.09365	-2.867	0.03
0.83405	0.09618	-2.142	0.022
0.85572	0.09867	-1.378	0.015
0.87723	0.10115	-0.647	0.007
0.89661	0.10339	0.033	0.001
