Measured thermophysical data. Vapor pressure measurements of CuBr and ZnBr2 by the Knudsen effusion method and their vapor species identification
Source: Thermochim. Acta, 2014, 10.1016/j.tca.2014.08.003
Compound 1: copper(1+) bromide, BrCu, InChI=1S/BrH.Cu/h1H;/q;+1/p-1, purity 99.9%
Compound 2: zinc bromide, Br2Zn, InChI=1S/2BrH.Zn/h2*1H;/q;;+2/p-2, purity 99.9%

System: copper(1+) bromide; phases: Crystal, Gas
Property: Vapor or sublimation pressure, kPa (Crystal); method: Calculated from knudsen effusion weight loss
Temperature, K	Vapor or sublimation pressure, kPa	uncertainty
532	1.25e-05	1.3e-06
553.5	4.55e-05	4.8e-06
573.5	0.000113	1.2e-05
594.6	0.000301	3.2e-05
618.1	0.000705	7.5e-05
634.1	0.00121	0.00015
658.2	0.00269	0.00035
530.1	9.37e-06	1e-06
551.4	2.45e-05	2.7e-06
570.8	9.35e-05	9.9e-06
592.1	0.000235	2.5e-05
611.9	0.000512	5.4e-05
635	0.00109	0.00013
656.8	0.00229	0.0003
528.8	1.17e-05	1.2e-06
551.6	3.17e-05	3.4e-06
572.6	0.000104	1.1e-05
593.8	0.000273	2.9e-05
614.9	0.000595	6.3e-05
633	0.00115	0.00014
655.2	0.00229	0.0003

System: zinc bromide; phases: Crystal, Gas
Property: Vapor or sublimation pressure, kPa (Crystal); method: Calculated from knudsen effusion weight loss
Temperature, K	Vapor or sublimation pressure, kPa	uncertainty
452.8	2.04e-05	2.2e-06
472.1	9.63e-05	1.02e-05
493.2	0.000217	2.3e-05
511.2	0.000691	7.3e-05
530.2	0.00192	0.00025
551.6	0.0051	0.00071
568	0.00978	0.00142
453.6	1.28e-05	1.4e-06
469.4	4.74e-05	5e-06
493.1	0.000181	1.9e-05
511.3	0.000577	6.1e-05
528.9	0.00158	0.0002
552.7	0.00453	0.00062
572.3	0.00997	0.00145
452.5	2.26e-05	2.4e-06
473.8	7.35e-05	7.8e-06
493.9	0.000252	2.7e-05
513	0.000684	7.3e-05
533.9	0.0019	0.00024
552	0.00505	0.0007
570.3	0.0106	0.0016
453.1	2.07e-05	2.2e-06
472.7	8.63e-05	9.2e-06
492.8	0.000262	2.8e-05
513.1	0.000719	7.6e-05
532.9	0.00201	0.00026
552.8	0.00521	0.00072
574	0.0126	0.0019
