Measured thermophysical data. Density, viscosity and phase equilibria study of {ethylsulfate - based ionic liquid + water} binary systems as a function of temperature and composition.
Source: Thermochim. Acta, 2014, 10.1016/j.tca.2014.02.019
Compound 1: 1-ethyl-1-methylpiperidinium ethyl sulfate, C10H23NO4S, InChI=1S/C8H18N.C2H6O4S/c1-3-9(2)7-5-4-6-8-9;1-2-6-7(3,4)5/h3-8H2,1-2H3;2H2,1H3,(H,3,4,5)/q+1;/p-1, purity 97%
Compound 2: 4-ethyl-4-methylmorpholinium ethyl sulfate, C9H21NO5S, InChI=1S/C7H16NO.C2H6O4S/c1-3-8(2)4-6-9-7-5-8;1-2-6-7(3,4)5/h3-7H2,1-2H3;2H2,1H3,(H,3,4,5)/q+1;/p-1, purity 97%
Compound 3: 1-ethyl-1-methylpyrrolidinium ethyl sulfate, C9H21NO4S, InChI=1S/C7H16N.C2H6O4S/c1-3-8(2)6-4-5-7-8;1-2-6-7(3,4)5/h3-7H2,1-2H3;2H2,1H3,(H,3,4,5)/q+1;/p-1, purity 97%
Compound 4: water, H2O, InChI=1S/H2O/h1H2

System: 1-ethyl-1-methylpiperidinium ethyl sulfate; phases: Liquid
Fixed: Pressure, kPa = 101
Property: Mass density, kg/m3 (Liquid); method: Vibrating tube method
Temperature, K	Mass density, kg/m3	uncertainty
298.15	1181.33	2.69
303.15	1178.23	2.67
308.15	1175.1	2.66
313.15	1171.79	2.64
318.15	1168.85	2.63
323.15	1165.73	2.61
328.15	1162.62	2.6
333.15	1159.54	2.58
338.15	1156.56	2.57
343.15	1153.58	2.56

System: 1-ethyl-1-methylpiperidinium ethyl sulfate; phases: Liquid
Fixed: Pressure, kPa = 101
Property: Viscosity, Pa*s (Liquid); method: Falling or rolling sphere viscometry
Temperature, K	Viscosity, Pa*s	uncertainty
298.15	1.821	0.355
303.15	1.186	0.223
308.15	0.7957	0.1447
313.15	0.5499	0.0972
318.15	0.3918	0.0677
323.15	0.2858	0.0484
328.15	0.2126	0.0354
333.15	0.1625	0.0268
338.15	0.1261	0.0206
343.15	0.09987	0.01619

System: 4-ethyl-4-methylmorpholinium ethyl sulfate; phases: Liquid
Fixed: Pressure, kPa = 101
Property: Viscosity, Pa*s (Liquid); method: Falling or rolling sphere viscometry
Temperature, K	Viscosity, Pa*s	uncertainty
313.15	2.426	0.485
318.15	1.677	0.325
323.15	1.129	0.211
328.15	0.7793	0.1414
333.15	0.5523	0.0977
338.15	0.4008	0.0693
343.15	0.2973	0.0505

System: 4-ethyl-4-methylmorpholinium ethyl sulfate; phases: Liquid
Fixed: Pressure, kPa = 101
Property: Mass density, kg/m3 (Liquid); method: Vibrating tube method
Temperature, K	Mass density, kg/m3	uncertainty
298.15	1252.26	3.03
303.15	1249.05	3.02
308.15	1245.86	3
313.15	1242.67	2.99
318.15	1239.51	2.97
323.15	1236.35	2.95
328.15	1233.2	2.94
333.15	1230.06	2.92
338.15	1226.93	2.91
343.15	1223.81	2.89

System: 1-ethyl-1-methylpyrrolidinium ethyl sulfate; phases: Crystal, Liquid, Air at 1 atmosphere
Property: Normal melting temperature, K (Crystal); method: VISOBS
Normal melting temperature, K	uncertainty
310.07	0.5

System: 1-ethyl-1-methylpyrrolidinium ethyl sulfate; phases: Liquid
Fixed: Pressure, kPa = 101
Property: Viscosity, Pa*s (Liquid); method: Falling or rolling sphere viscometry
Temperature, K	Viscosity, Pa*s	uncertainty
313.15	0.07832	0.01263
318.15	0.06472	0.01041
323.15	0.05351	0.0086
328.15	0.04482	0.00721
333.15	0.03795	0.0061
338.15	0.03287	0.00529
343.15	0.02923	0.0047

System: 1-ethyl-1-methylpyrrolidinium ethyl sulfate; phases: Liquid
Fixed: Pressure, kPa = 101
Property: Mass density, kg/m3 (Liquid); method: Vibrating tube method
Temperature, K	Mass density, kg/m3	uncertainty
313.15	1176.31	2.66
318.15	1173.63	2.65
323.15	1170.95	2.64
328.15	1168.27	2.62
333.15	1165.59	2.61
338.15	1162.91	2.6
343.15	1160.23	2.59

System: water; phases: Liquid
Fixed: Pressure, kPa = 101
Property: Mass density, kg/m3 (Liquid); method: Vibrating tube method
Temperature, K	Mass density, kg/m3	uncertainty
298.15	997.06	0.2
303.15	995.65	0.2
308.15	994.01	0.2
313.15	992.15	0.2
318.15	990.2	0.2
323.15	987.93	0.2
328.15	985.69	0.2
333.15	983.17	0.2
338.15	980.3	0.2
343.15	978.1	0.2

System: water; phases: Liquid
Fixed: Pressure, kPa = 101
Property: Viscosity, Pa*s (Liquid); method: Falling or rolling sphere viscometry
Temperature, K	Viscosity, Pa*s	uncertainty
298.15	0.00089	0.000143
303.15	0.000808	0.000129
308.15	0.00074	0.000119
313.15	0.000681	0.000109
318.15	0.00063	0.000101
323.15	0.000593	9.5e-05
328.15	0.00056	9e-05
333.15	0.000528	8.5e-05
338.15	0.0005	8e-05
343.15	0.000473	7.6e-05
338.15	0.000519	8.3e-05
343.15	0.00051	8.2e-05

System: water + 1-ethyl-1-methylpiperidinium ethyl sulfate; phases: Liquid
Fixed: Pressure, kPa = 101
Property: Mass density, kg/m3 (Liquid); method: Vibrating tube method
Temperature, K	Mole fraction of 1-ethyl-1-methylpiperidinium ethyl sulfate	Mass density, kg/m3	uncertainty
298.15	0	997.06	0.2
298.15	0.106	1113.1	0.3
298.15	0.1407	1128.31	0.25
298.15	0.2161	1148.02	0.29
298.15	0.2643	1155.38	0.33
298.15	0.3605	1164.49	0.46
298.15	0.4662	1170.4	0.67
298.15	0.5583	1173.75	0.92
298.15	0.6591	1176.55	1.23
298.15	0.7296	1177.92	1.48
298.15	0.8133	1179.24	1.81
298.15	1	1181.33	2.69
303.15	0	995.65	0.2
303.15	0.106	1109.81	0.3
303.15	0.1407	1124.96	0.25
303.15	0.2161	1144.56	0.29
303.15	0.2643	1152	0.33
303.15	0.3605	1161.22	0.45
303.15	0.4662	1167.23	0.67
303.15	0.5583	1170.68	0.91
303.15	0.6591	1173.32	1.22
303.15	0.7296	1174.77	1.47
303.15	0.8133	1176.06	1.8
303.15	1	1178.23	2.67
308.15	0	994.01	0.2
308.15	0.106	1106.45	0.3
308.15	0.1407	1121.5	0.25
308.15	0.2161	1141.12	0.29
308.15	0.2643	1148.59	0.33
308.15	0.3605	1157.92	0.45
308.15	0.4662	1164.02	0.66
308.15	0.5583	1167.53	0.9
308.15	0.6591	1170.15	1.21
308.15	0.7296	1171.56	1.46
308.15	0.8133	1172.89	1.79
308.15	1	1175.1	2.66
313.15	0	992.15	0.2
313.15	0.106	1103.05	0.29
313.15	0.1407	1118.01	0.25
313.15	0.2161	1137.63	0.29
313.15	0.2643	1145.18	0.33
313.15	0.3605	1154.61	0.45
313.15	0.4662	1160.8	0.66
313.15	0.5583	1164.37	0.9
313.15	0.6591	1167.05	1.21
313.15	0.7296	1168.39	1.45
313.15	0.8133	1169.71	1.78
313.15	1	1171.79	2.64
318.15	0	990.2	0.2
318.15	0.106	1099.61	0.29
318.15	0.1407	1114.5	0.24
318.15	0.2161	1134.17	0.29
318.15	0.2643	1141.75	0.33
318.15	0.3605	1151.3	0.44
318.15	0.4662	1157.58	0.66
318.15	0.5583	1161.21	0.89
318.15	0.6591	1163.94	1.2
318.15	0.7296	1165.32	1.45
318.15	0.8133	1166.53	1.77
318.15	1	1168.85	2.63
323.15	0	987.93	0.2
323.15	0.106	1096.14	0.29
323.15	0.1407	1110.96	0.24
323.15	0.2161	1130.66	0.28
323.15	0.2643	1138.31	0.32
323.15	0.3605	1147.97	0.44
323.15	0.4662	1154.35	0.65
323.15	0.5583	1158.04	0.89
323.15	0.6591	1160.83	1.19
323.15	0.7296	1162.25	1.44
323.15	0.8133	1163.48	1.76
323.15	1	1165.73	2.61
328.15	0	985.69	0.2
328.15	0.106	1092.63	0.29
328.15	0.1407	1107.4	0.24
328.15	0.2161	1127.13	0.28
328.15	0.2643	1134.87	0.32
328.15	0.3605	1144.63	0.44
328.15	0.4662	1151.12	0.65
328.15	0.5583	1154.87	0.88
328.15	0.6591	1157.71	1.19
328.15	0.7296	1159.16	1.43
328.15	0.8133	1160.43	1.75
328.15	1	1162.62	2.6
333.15	0	983.17	0.2
333.15	0.106	1089.08	0.29
333.15	0.1407	1103.8	0.24
333.15	0.2161	1123.62	0.28
333.15	0.2643	1131.4	0.32
333.15	0.3605	1141.31	0.44
333.15	0.4662	1147.88	0.64
333.15	0.5583	1151.7	0.88
333.15	0.6591	1154.59	1.18
333.15	0.7296	1156.08	1.42
333.15	0.8133	1157.38	1.74
333.15	1	1159.54	2.58
338.15	0	980.3	0.2
338.15	0.106	1085.5	0.29
338.15	0.1407	1100.19	0.24
338.15	0.2161	1120.07	0.28
338.15	0.2643	1127.93	0.32
338.15	0.3605	1137.96	0.43
338.15	0.4662	1144.64	0.64
338.15	0.5583	1148.52	0.87
338.15	0.6591	1151.47	1.17
338.15	0.7296	1152.99	1.41
338.15	0.8133	1154.33	1.73
338.15	1	1156.56	2.57
343.15	0	978.1	0.2
343.15	0.106	1081.88	0.29
343.15	0.1407	1096.54	0.24
343.15	0.2161	1116.49	0.28
343.15	0.2643	1124.44	0.32
343.15	0.3605	1134.62	0.43
343.15	0.4662	1141.4	0.63
343.15	0.5583	1145.35	0.87
343.15	0.6591	1148.36	1.17
343.15	0.7296	1149.91	1.4
343.15	0.8133	1151.31	1.72
343.15	1	1153.58	2.56

System: water + 1-ethyl-1-methylpiperidinium ethyl sulfate; phases: Liquid
Fixed: Pressure, kPa = 101
Property: Viscosity, Pa*s (Liquid); method: Falling or rolling sphere viscometry
Temperature, K	Mole fraction of 1-ethyl-1-methylpiperidinium ethyl sulfate	Viscosity, Pa*s	uncertainty
298.15	0	0.00089	0.000143
298.15	0.106	0.007436	0.001191
298.15	0.1407	0.01114	0.00178
298.15	0.2161	0.02279	0.00365
298.15	0.2643	0.03179	0.00509
298.15	0.3605	0.05456	0.00874
298.15	0.4662	0.09657	0.01559
298.15	0.5583	0.1591	0.0261
298.15	0.6591	0.2765	0.0466
298.15	0.7296	0.4192	0.0726
298.15	0.8133	0.6905	0.124
298.15	1	1.821	0.355
303.15	0	0.000808	0.000129
303.15	0.106	0.006222	0.000997
303.15	0.1407	0.009197	0.001473
303.15	0.2161	0.01822	0.00292
303.15	0.2643	0.02504	0.00401
303.15	0.3605	0.04254	0.00682
303.15	0.4662	0.07401	0.01189
303.15	0.5583	0.1195	0.0194
303.15	0.6591	0.2022	0.0336
303.15	0.7296	0.2969	0.0503
303.15	0.8133	0.4732	0.0827
303.15	1	1.186	0.223
308.15	0	0.00074	0.000119
308.15	0.106	0.005272	0.000844
308.15	0.1407	0.007687	0.001231
308.15	0.2161	0.01499	0.0024
308.15	0.2643	0.0204	0.00327
308.15	0.3605	0.03384	0.00542
308.15	0.4662	0.05765	0.00924
308.15	0.5583	0.09173	0.0148
308.15	0.6591	0.1509	0.0247
308.15	0.7296	0.2185	0.0364
308.15	0.8133	0.3335	0.0569
308.15	1	0.7957	0.1447
313.15	0	0.000681	0.000109
313.15	0.106	0.004518	0.000724
313.15	0.1407	0.006508	0.001043
313.15	0.2161	0.01234	0.00198
313.15	0.2643	0.0167	0.00268
313.15	0.3605	0.02755	0.00442
313.15	0.4662	0.04597	0.00737
313.15	0.5583	0.0714	0.01147
313.15	0.6591	0.1158	0.0188
313.15	0.7296	0.1631	0.0268
313.15	0.8133	0.2422	0.0406
313.15	1	0.5499	0.0972
318.15	0	0.00063	0.000101
318.15	0.106	0.00391	0.000626
318.15	0.1407	0.005576	0.000893
318.15	0.2161	0.01038	0.00166
318.15	0.2643	0.01403	0.00225
318.15	0.3605	0.0227	0.00364
318.15	0.4662	0.03727	0.00598
318.15	0.5583	0.05671	0.00909
318.15	0.6591	0.08986	0.0145
318.15	0.7296	0.1239	0.0202
318.15	0.8133	0.1711	0.0282
318.15	1	0.3918	0.0677
323.15	0	0.000593	9.5e-05
323.15	0.106	0.003415	0.000547
323.15	0.1407	0.004818	0.000772
323.15	0.2161	0.008774	0.001406
323.15	0.2643	0.01177	0.00189
323.15	0.3605	0.01873	0.003
323.15	0.4662	0.03042	0.00488
323.15	0.5583	0.04567	0.00733
323.15	0.6591	0.07097	0.0114
323.15	0.7296	0.0928	0.01499
323.15	0.8133	0.1308	0.0213
323.15	1	0.2858	0.0484
328.15	0	0.00056	9e-05
328.15	0.106	0.003006	0.000481
328.15	0.1407	0.004206	0.000674
328.15	0.2161	0.007538	0.001208
328.15	0.2643	0.01013	0.00162
328.15	0.3605	0.01577	0.00253
328.15	0.4662	0.02537	0.00407
328.15	0.5583	0.03745	0.00601
328.15	0.6591	0.05675	0.0091
328.15	0.7296	0.07346	0.01181
328.15	0.8133	0.1016	0.0165
328.15	1	0.2126	0.0354
333.15	0	0.000528	8.5e-05
333.15	0.106	0.002667	0.000427
333.15	0.1407	0.0037	0.000593
333.15	0.2161	0.006103	0.000978
333.15	0.2643	0.008625	0.001382
333.15	0.3605	0.01348	0.00216
333.15	0.4662	0.02132	0.00342
333.15	0.5583	0.02891	0.00464
333.15	0.6591	0.04489	0.0072
333.15	0.7296	0.05882	0.00944
333.15	0.8133	0.08045	0.01296
333.15	1	0.1625	0.0268
338.15	0	0.0005	8e-05
338.15	0.106	0.002383	0.000382
338.15	0.1407	0.003278	0.000525
338.15	0.2161	0.004937	0.000791
338.15	0.2643	0.007493	0.001201
338.15	0.3605	0.01157	0.00185
338.15	0.4662	0.01819	0.00292
338.15	0.5583	0.02614	0.00419
338.15	0.6591	0.03758	0.00603
338.15	0.7296	0.0477	0.00766
338.15	0.8133	0.06486	0.01042
338.15	1	0.1261	0.0206
343.15	0	0.000473	7.6e-05
343.15	0.106	0.002143	0.000343
343.15	0.1407	0.002926	0.000469
343.15	0.2161	0.004099	0.000657
343.15	0.2643	0.006755	0.001082
343.15	0.3605	0.01006	0.00161
343.15	0.4662	0.01553	0.00249
343.15	0.5583	0.02223	0.00357
343.15	0.6591	0.03244	0.00521
343.15	0.7296	0.04029	0.00647
343.15	0.8133	0.053	0.00851
343.15	1	0.09987	0.01619

System: water + 1-ethyl-1-methylpiperidinium ethyl sulfate; phases: Liquid, Crystal
Fixed: Pressure, kPa = 101
Property: Solid-liquid equilibrium temperature, K (Liquid); method: VISOBS
Mole fraction of 1-ethyl-1-methylpiperidinium ethyl sulfate	Solid-liquid equilibrium temperature, K	uncertainty
0	273.15	0.2
0.0021	273.13	0.2
0.0064	272.36	0.2
0.0158	271.28	0.2
0.0199	270.5	0.2
0.0257	269.25	0.21
0.0312	267.68	0.21
0.0383	266.13	0.21
0.0441	264.65	0.21
0.0515	262.71	0.21
0.0586	260.63	0.21
0.0664	258.12	0.21
0.0727	255.46	0.21
0.0808	253.27	0.21
0.087	250.51	0.22
0.095	247	0.22
0.1019	243.61	0.22
0.1095	239.94	0.22
0.116	237.53	0.22
0.1231	234.39	0.22

System: water + 4-ethyl-4-methylmorpholinium ethyl sulfate; phases: Liquid
Fixed: Pressure, kPa = 101
Property: Viscosity, Pa*s (Liquid); method: Falling or rolling sphere viscometry
Temperature, K	Mole fraction of 4-ethyl-4-methylmorpholinium ethyl sulfate	Viscosity, Pa*s	uncertainty
298.15	0	0.00089	0.000143
298.15	0.1255	0.007655	0.001226
298.15	0.2214	0.02062	0.0033
298.15	0.3165	0.0465	0.00745
298.15	0.4406	0.1156	0.0188
298.15	0.6319	0.5292	0.0931
298.15	0.7239	0.6865	0.1232
298.15	0.807	2.262	0.449
303.15	0	0.000808	0.000129
303.15	0.1255	0.006513	0.001043
303.15	0.2214	0.01692	0.00271
303.15	0.3165	0.03679	0.0059
303.15	0.4406	0.09381	0.01513
303.15	0.6319	0.4009	0.0692
303.15	0.7239	0.5331	0.0939
303.15	0.807	1.63	0.31
308.15	0	0.00074	0.000119
308.15	0.1255	0.005589	0.000895
308.15	0.2214	0.01411	0.00226
308.15	0.3165	0.02962	0.00475
308.15	0.4406	0.07242	0.01163
308.15	0.6319	0.3091	0.0525
308.15	0.7239	0.4083	0.0706
308.15	0.807	1.088	0.203
313.15	0	0.000681	0.000109
313.15	0.1255	0.004817	0.000772
313.15	0.2214	0.01193	0.00191
313.15	0.3165	0.02424	0.00388
313.15	0.4406	0.05741	0.0092
313.15	0.6319	0.2268	0.0379
313.15	0.7239	0.3088	0.0525
313.15	0.807	0.7469	0.135
313.15	1	2.426	0.485
318.15	0	0.00063	0.000101
318.15	0.1255	0.004176	0.000669
318.15	0.2214	0.0102	0.00163
318.15	0.3165	0.02016	0.00323
318.15	0.4406	0.04603	0.00738
318.15	0.6319	0.1703	0.028
318.15	0.7239	0.24	0.0402
318.15	0.807	0.5267	0.0927
318.15	1	1.677	0.325
323.15	0	0.000593	9.5e-05
323.15	0.1255	0.003673	0.000588
323.15	0.2214	0.008814	0.001412
323.15	0.3165	0.01696	0.00272
323.15	0.4406	0.0373	0.00598
323.15	0.6319	0.1306	0.0213
323.15	0.7239	0.1806	0.0298
323.15	0.807	0.3797	0.0654
323.15	1	1.129	0.211
328.15	0	0.00056	9e-05
328.15	0.1255	0.002845	0.000456
328.15	0.2214	0.007649	0.001225
328.15	0.3165	0.01447	0.00232
328.15	0.4406	0.03077	0.00493
328.15	0.6319	0.1017	0.0165
328.15	0.7239	0.1384	0.0226
328.15	0.807	0.2806	0.0474
328.15	1	0.7793	0.1414
333.15	0	0.000528	8.5e-05
333.15	0.1255	0.002896	0.000464
333.15	0.2214	0.006732	0.001079
333.15	0.3165	0.01244	0.00199
333.15	0.4406	0.02572	0.00412
333.15	0.6319	0.08093	0.01303
333.15	0.7239	0.1081	0.0175
333.15	0.807	0.2116	0.0352
333.15	1	0.5523	0.0977
338.15	0	0.0005	8e-05
338.15	0.1255	0.002626	0.000421
338.15	0.2214	0.005925	0.000949
338.15	0.3165	0.01079	0.00173
338.15	0.4406	0.02168	0.00348
338.15	0.6319	0.065	0.01043
338.15	0.7239	0.08565	0.01381
338.15	0.807	0.1627	0.0268
338.15	1	0.4008	0.0693
343.15	0	0.000473	7.6e-05
343.15	0.1255	0.002124	0.00034
343.15	0.2214	0.0053	0.000849
343.15	0.3165	0.009457	0.001515
343.15	0.4406	0.01846	0.00296
343.15	0.6319	0.053	0.0085
343.15	0.7239	0.06872	0.01104
343.15	0.807	0.1268	0.0207
343.15	1	0.2973	0.0505

System: water + 4-ethyl-4-methylmorpholinium ethyl sulfate; phases: Liquid
Fixed: Pressure, kPa = 101
Property: Mass density, kg/m3 (Liquid); method: Vibrating tube method
Temperature, K	Mole fraction of 4-ethyl-4-methylmorpholinium ethyl sulfate	Mass density, kg/m3	uncertainty
298.15	0	997.06	0.2
298.15	0.1255	1160.26	0.33
298.15	0.2214	1196.87	0.32
298.15	0.3165	1215.39	0.43
298.15	0.4406	1229.15	0.69
298.15	0.6319	1240.92	1.28
298.15	0.7239	1244.69	1.64
298.15	0.807	1247.34	2.01
298.15	1	1252.26	3.03
303.15	0	995.65	0.2
303.15	0.1255	1157.12	0.31
303.15	0.2214	1193.61	0.32
303.15	0.3165	1212.17	0.43
303.15	0.4406	1226.03	0.69
303.15	0.6319	1237.71	1.28
303.15	0.7239	1241.43	1.63
303.15	0.807	1244.19	2
303.15	1	1249.05	3.02
308.15	0	994.01	0.2
308.15	0.1255	1153.95	0.3
308.15	0.2214	1190.35	0.32
308.15	0.3165	1208.94	0.43
308.15	0.4406	1222.87	0.68
308.15	0.6319	1234.48	1.27
308.15	0.7239	1238.23	1.63
308.15	0.807	1241	1.99
308.15	1	1245.86	3
313.15	0	992.15	0.2
313.15	0.1255	1150.75	0.3
313.15	0.2214	1187.08	0.31
313.15	0.3165	1205.7	0.42
313.15	0.4406	1219.69	0.68
313.15	0.6319	1231.24	1.26
313.15	0.7239	1235.04	1.62
313.15	0.807	1237.81	1.98
313.15	1	1242.67	2.99
318.15	0	990.2	0.2
318.15	0.1255	1147.52	0.3
318.15	0.2214	1183.79	0.31
318.15	0.3165	1202.45	0.42
318.15	0.4406	1216.5	0.68
318.15	0.6319	1228.05	1.25
318.15	0.7239	1231.83	1.61
318.15	0.807	1234.63	1.97
318.15	1	1239.51	2.97
323.15	0	987.93	0.2
323.15	0.1255	1144.26	0.3
323.15	0.2214	1180.48	0.31
323.15	0.3165	1199.19	0.42
323.15	0.4406	1213.31	0.67
323.15	0.6319	1224.95	1.25
323.15	0.7239	1228.72	1.6
323.15	0.807	1231.45	1.96
323.15	1	1236.35	2.95
328.15	0	985.69	0.2
328.15	0.1255	1140.96	0.3
328.15	0.2214	1177.17	0.31
328.15	0.3165	1195.92	0.42
328.15	0.4406	1210.11	0.67
328.15	0.6319	1221.84	1.24
328.15	0.7239	1225.53	1.59
328.15	0.807	1228.26	1.95
328.15	1	1233.2	2.94
333.15	0	983.17	0.2
333.15	0.1255	1137.63	0.3
333.15	0.2214	1173.83	0.31
333.15	0.3165	1192.63	0.42
333.15	0.4406	1206.91	0.66
333.15	0.6319	1218.72	1.23
333.15	0.7239	1222.36	1.58
333.15	0.807	1225.07	1.94
333.15	1	1230.06	2.92
338.15	0	980.3	0.2
338.15	0.1255	1134.26	0.3
338.15	0.2214	1170.4	0.31
338.15	0.3165	1189.38	0.41
338.15	0.4406	1203.71	0.66
338.15	0.6319	1215.6	1.23
338.15	0.7239	1219.28	1.57
338.15	0.807	1221.94	1.93
338.15	1	1226.93	2.91
343.15	0	978.1	0.2
343.15	0.1255	1130.86	0.32
343.15	0.2214	1167.12	0.31
343.15	0.3165	1186.1	0.41
343.15	0.4406	1200.5	0.65
343.15	0.6319	1212.48	1.22
343.15	0.7239	1216.18	1.56
343.15	0.807	1218.8	1.92
343.15	1	1223.81	2.89

System: water + 4-ethyl-4-methylmorpholinium ethyl sulfate; phases: Liquid, Crystal
Fixed: Pressure, kPa = 101
Property: Solid-liquid equilibrium temperature, K (Liquid); method: VISOBS
Mole fraction of 4-ethyl-4-methylmorpholinium ethyl sulfate	Solid-liquid equilibrium temperature, K	uncertainty
0	273.15	0.2
0.0143	271.64	0.2
0.0208	270.68	0.2
0.0259	269.51	0.21
0.0339	267.73	0.2
0.0424	265.9	0.2
0.0535	263.44	0.21
0.0634	261.12	0.21
0.0762	257.25	0.21
0.0863	253.75	0.21
0.0968	250.78	0.21
0.1075	247.42	0.21
0.1202	243.27	0.21
0.1278	239.86	0.21
0.1374	237	0.21
0.1486	233.26	0.21

System: water + 1-ethyl-1-methylpyrrolidinium ethyl sulfate; phases: Liquid
Fixed: Pressure, kPa = 101
Property: Viscosity, Pa*s (Liquid); method: Falling or rolling sphere viscometry
Temperature, K	Mole fraction of 1-ethyl-1-methylpyrrolidinium ethyl sulfate	Viscosity, Pa*s	uncertainty
313.15	0	0.000681	0.000109
313.15	0.0348	0.001414	0.000227
313.15	0.0933	0.003185	0.00051
313.15	0.1312	0.005031	0.000806
313.15	0.2458	0.01031	0.00165
313.15	0.3495	0.01565	0.00251
313.15	0.5281	0.02798	0.00449
313.15	0.693	0.04248	0.00682
313.15	0.7794	0.05133	0.00824
313.15	0.895	0.06467	0.0104
313.15	1	0.07832	0.01263
318.15	0	0.00063	0.000101
318.15	0.0348	0.00127	0.000203
318.15	0.0933	0.0028	0.000449
318.15	0.1312	0.004391	0.000703
318.15	0.2458	0.008889	0.001424
318.15	0.3495	0.01337	0.00214
318.15	0.5281	0.02371	0.0038
318.15	0.693	0.03567	0.00573
318.15	0.7794	0.0429	0.00689
318.15	0.895	0.05373	0.00863
318.15	1	0.06472	0.01041
323.15	0	0.000593	9.5e-05
323.15	0.0348	0.001149	0.000184
323.15	0.0933	0.002479	0.000397
323.15	0.1312	0.00387	0.00062
323.15	0.2458	0.007729	0.001238
323.15	0.3495	0.0116	0.00186
323.15	0.5281	0.02029	0.00325
323.15	0.693	0.03018	0.00484
323.15	0.7794	0.03607	0.00579
323.15	0.895	0.04478	0.0072
323.15	1	0.05351	0.0086
328.15	0	0.00056	9e-05
328.15	0.0348	0.001046	0.000168
328.15	0.0933	0.002211	0.000354
328.15	0.1312	0.003392	0.000543
328.15	0.2458	0.006803	0.00109
328.15	0.3495	0.01013	0.00162
328.15	0.5281	0.01754	0.00281
328.15	0.693	0.02584	0.00415
328.15	0.7794	0.0307	0.00493
328.15	0.895	0.0378	0.00608
328.15	1	0.04482	0.00721
333.15	0	0.000528	8.5e-05
333.15	0.0348	0.000992	0.000159
333.15	0.0933	0.001985	0.000318
333.15	0.1312	0.002943	0.000471
333.15	0.2458	0.006014	0.000964
333.15	0.3495	0.008896	0.001426
333.15	0.5281	0.01532	0.00246
333.15	0.693	0.0224	0.0036
333.15	0.7794	0.02646	0.00425
333.15	0.895	0.03229	0.00519
333.15	1	0.03795	0.0061
338.15	0	0.000519	8.3e-05
338.15	0.0348	0.000983	0.000157
338.15	0.0933	0.0018	0.000288
338.15	0.1312	0.002454	0.000393
338.15	0.2458	0.00534	0.000856
338.15	0.3495	0.007739	0.00124
338.15	0.5281	0.01329	0.00213
338.15	0.693	0.01906	0.00306
338.15	0.7794	0.02265	0.00364
338.15	0.895	0.02765	0.00444
338.15	1	0.03287	0.00529
343.15	0	0.00051	8.2e-05
343.15	0.0348	0.000976	0.000156
343.15	0.0933	0.00161	0.000258
343.15	0.1312	0.001923	0.000308
343.15	0.2458	0.004202	0.000673
343.15	0.3495	0.006568	0.001053
343.15	0.5281	0.01131	0.00181
343.15	0.693	0.01647	0.00264
343.15	0.7794	0.01955	0.00314
343.15	0.895	0.02469	0.00397
343.15	1	0.02923	0.0047

System: water + 1-ethyl-1-methylpyrrolidinium ethyl sulfate; phases: Liquid
Fixed: Pressure, kPa = 101
Property: Mass density, kg/m3 (Liquid); method: Vibrating tube method
Temperature, K	Mole fraction of 1-ethyl-1-methylpyrrolidinium ethyl sulfate	Mass density, kg/m3	uncertainty
313.15	0	992.15	0.2
313.15	0.0348	1046.88	0.3
313.15	0.0933	1095.76	0.26
313.15	0.1312	1114.51	0.24
313.15	0.2458	1144.25	0.31
313.15	0.3495	1155.83	0.43
313.15	0.5281	1166.58	0.82
313.15	0.693	1171.73	1.33
313.15	0.7794	1172.62	1.65
313.15	0.895	1174.19	2.15
313.15	1	1176.31	2.66
318.15	0	990.2	0.2
318.15	0.0348	1044.06	0.29
318.15	0.0933	1092.47	0.26
318.15	0.1312	1111.07	0.24
318.15	0.2458	1140.77	0.31
318.15	0.3495	1152.31	0.43
318.15	0.5281	1163.34	0.82
318.15	0.693	1168.5	1.33
318.15	0.7794	1169.22	1.64
318.15	0.895	1171.07	2.14
318.15	1	1173.63	2.65
323.15	0	987.93	0.2
323.15	0.0348	1041.44	0.29
323.15	0.0933	1089.13	0.26
323.15	0.1312	1107.59	0.24
323.15	0.2458	1137.17	0.31
323.15	0.3495	1149.28	0.43
323.15	0.5281	1160.06	0.81
323.15	0.693	1165.16	1.32
323.15	0.7794	1165.65	1.63
323.15	0.895	1167.97	2.12
323.15	1	1170.95	2.64
328.15	0	985.69	0.2
328.15	0.0348	1038.48	0.29
328.15	0.0933	1085.76	0.26
328.15	0.1312	1103.99	0.24
328.15	0.2458	1133.19	0.31
328.15	0.3495	1145.36	0.42
328.15	0.5281	1156.72	0.81
328.15	0.693	1161.95	1.31
328.15	0.7794	1162.9	1.63
328.15	0.895	1164.87	2.11
328.15	1	1168.27	2.62
333.15	0	983.17	0.2
333.15	0.0348	1035.45	0.29
333.15	0.0933	1082.31	0.26
333.15	0.1312	1100.26	0.24
333.15	0.2458	1129.65	0.3
333.15	0.3495	1142.23	0.42
333.15	0.5281	1153.16	0.8
333.15	0.693	1158.04	1.3
333.15	0.7794	1160.04	1.62
333.15	0.895	1162.1	2.1
333.15	1	1165.59	2.61
338.15	0	980.3	0.2
338.15	0.0348	1033.08	0.29
338.15	0.0933	1079.2	0.26
338.15	0.1312	1097.07	0.24
338.15	0.2458	1125.34	0.3
338.15	0.3495	1138.14	0.42
338.15	0.5281	1150.02	0.79
338.15	0.693	1155.15	1.29
338.15	0.7794	1156.48	1.61
338.15	0.895	1158.93	2.09
338.15	1	1162.91	2.6
343.15	0	978.1	0.2
343.15	0.0348	1030.38	0.29
343.15	0.0933	1075.92	0.26
343.15	0.1312	1093.61	0.24
343.15	0.2458	1122.44	0.3
343.15	0.3495	1135.34	0.42
343.15	0.5281	1146.94	0.79
343.15	0.693	1152.01	1.28
343.15	0.7794	1153.23	1.6
343.15	0.895	1155.85	2.08
343.15	1	1160.23	2.59

System: water + 1-ethyl-1-methylpyrrolidinium ethyl sulfate; phases: Liquid, Crystal
Fixed: Pressure, kPa = 101
Property: Solid-liquid equilibrium temperature, K (Liquid); method: VISOBS
Mole fraction of 1-ethyl-1-methylpyrrolidinium ethyl sulfate	Solid-liquid equilibrium temperature, K	uncertainty
0	273.15	0.2
0.0066	272.34	0.2
0.0162	270.83	0.2
0.0201	269.57	0.21
0.0277	268.13	0.2
0.0332	266.8	0.2
0.0397	265.67	0.2
0.0461	264.43	0.2
0.0487	263.84	0.2
0.0519	263.19	0.21
0.0553	262.3	0.21
0.0593	261.23	0.21
0.0632	259.92	0.21
0.0676	258.91	0.21
0.0737	256.77	0.21
0.0785	255.28	0.21
0.0841	253.72	0.21
0.0909	250.97	0.21
0.0939	249.89	0.22
0.0965	248.51	0.21
0.1033	246.23	0.21
0.108	244.11	0.22
0.1156	240.88	0.22

System: water + 1-ethyl-1-methylpyrrolidinium ethyl sulfate; phases: Liquid, Crystal
Fixed: Pressure, kPa = 101
Property: Solid-liquid equilibrium temperature, K (Liquid); method: DTA
Mole fraction of 1-ethyl-1-methylpyrrolidinium ethyl sulfate	Solid-liquid equilibrium temperature, K	uncertainty
0.0348	267.36	0.5
0.0592	259.99	0.5
0.0933	247.58	0.51
0.1133	237.42	0.57
0.1312	196.88	0.67

System: water + 1-ethyl-1-methylpyrrolidinium ethyl sulfate; phases: Liquid, Crystal
Fixed: Pressure, kPa = 101
Property: Solid-liquid equilibrium temperature, K (Liquid); method: VISOBS
Mole fraction of 1-ethyl-1-methylpyrrolidinium ethyl sulfate	Solid-liquid equilibrium temperature, K	uncertainty
0.3278	244.72	0.2
0.3537	249.93	0.2
0.3781	253.85	0.2
0.4102	258.68	0.2
0.4469	263.21	0.2
0.4816	266.91	0.2
0.5134	270.82	0.2
0.5463	274.06	0.2
0.5796	277.97	0.2
0.6242	282.35	0.2
0.6717	286.31	0.2
0.7136	290.95	0.2
0.7397	293.06	0.2
0.7673	296.12	0.2
0.8417	300.34	0.2
0.9122	304.86	0.2
0.9594	307.47	0.2
1	310.07	0.2

System: water + 1-ethyl-1-methylpyrrolidinium ethyl sulfate; phases: Liquid, Crystal
Fixed: Pressure, kPa = 101
Property: Solid-liquid equilibrium temperature, K (Liquid); method: DTA
Mole fraction of 1-ethyl-1-methylpyrrolidinium ethyl sulfate	Solid-liquid equilibrium temperature, K	uncertainty
0.3495	253.07	0.5
0.4383	265.5	0.5
0.5281	274.44	0.5
0.693	289.99	0.5
0.7794	298.99	0.5
