Measured thermophysical data. Solution enthalpies of 1-bromoadamantane in monoalcohols at 298.15K
Source: Thermochim. Acta, 2006, 10.1016/j.tca.2006.02.030
Compound 1: 1-bromotricyclo[3.3.1.1(3,7)]decane, C10H15Br, InChI=1S/C10H15Br/c11-10-4-7-1-8(5-10)3-9(2-7)6-10/h7-9H,1-6H2
Compound 2: methanol, CH4O, InChI=1S/CH4O/c1-2/h2H,1H3
Compound 3: ethanol, C2H6O, InChI=1S/C2H6O/c1-2-3/h3H,2H2,1H3
Compound 4: propan-1-ol, C3H8O, InChI=1S/C3H8O/c1-2-3-4/h4H,2-3H2,1H3
Compound 5: propan-2-ol, C3H8O, InChI=1S/C3H8O/c1-3(2)4/h3-4H,1-2H3
Compound 6: butan-1-ol, C4H10O, InChI=1S/C4H10O/c1-2-3-4-5/h5H,2-4H2,1H3
Compound 7: butan-2-ol, C4H10O, InChI=1S/C4H10O/c1-3-4(2)5/h4-5H,3H2,1-2H3
Compound 8: pentan-1-ol, C5H12O, InChI=1S/C5H12O/c1-2-3-4-5-6/h6H,2-5H2,1H3
Compound 9: pentan-2-ol, C5H12O, InChI=1S/C5H12O/c1-3-4-5(2)6/h5-6H,3-4H2,1-2H3
Compound 10: 2-methyl-1-propanol, C4H10O, InChI=1S/C4H10O/c1-4(2)3-5/h4-5H,3H2,1-2H3
Compound 11: 2-methylpropan-2-ol, C4H10O, InChI=1S/C4H10O/c1-4(2,3)5/h5H,1-3H3
Compound 12: 2-methyl-1-butanol, C5H12O, InChI=1S/C5H12O/c1-3-5(2)4-6/h5-6H,3-4H2,1-2H3
Compound 13: 2-methylbutan-2-ol, C5H12O, InChI=1S/C5H12O/c1-4-5(2,3)6/h6H,4H2,1-3H3
Compound 14: 3-methylbutan-1-ol, C5H12O, InChI=1S/C5H12O/c1-5(2)3-4-6/h5-6H,3-4H2,1-2H3
Compound 15: octan-1-ol, C8H18O, InChI=1S/C8H18O/c1-2-3-4-5-6-7-8-9/h9H,2-8H2,1H3

System: methanol + 1-bromotricyclo[3.3.1.1(3,7)]decane; phases: Liquid
Property: Molar enthalpy of solution, kJ/mol (Liquid); method: Isothermal displacement
Mole fraction of 1-bromotricyclo[3.3.1.1(3,7)]decane	Temperature, K	Pressure, kPa	Molar enthalpy of solution, kJ/mol	uncertainty
0	298.15	101	18.09	0.14

System: ethanol + 1-bromotricyclo[3.3.1.1(3,7)]decane; phases: Liquid
Property: Molar enthalpy of solution, kJ/mol (Liquid); method: Isothermal displacement
Mole fraction of 1-bromotricyclo[3.3.1.1(3,7)]decane	Temperature, K	Pressure, kPa	Molar enthalpy of solution, kJ/mol	uncertainty
0	298.15	101	16.26	0.13

System: propan-1-ol + 1-bromotricyclo[3.3.1.1(3,7)]decane; phases: Liquid
Property: Molar enthalpy of solution, kJ/mol (Liquid); method: Isothermal displacement
Mole fraction of 1-bromotricyclo[3.3.1.1(3,7)]decane	Temperature, K	Pressure, kPa	Molar enthalpy of solution, kJ/mol	uncertainty
0	298.15	101	15.79	0.12

System: propan-2-ol + 1-bromotricyclo[3.3.1.1(3,7)]decane; phases: Liquid
Property: Molar enthalpy of solution, kJ/mol (Liquid); method: Isothermal displacement
Mole fraction of 1-bromotricyclo[3.3.1.1(3,7)]decane	Temperature, K	Pressure, kPa	Molar enthalpy of solution, kJ/mol	uncertainty
0	298.15	101	18.18	0.14

System: butan-1-ol + 1-bromotricyclo[3.3.1.1(3,7)]decane; phases: Liquid
Property: Molar enthalpy of solution, kJ/mol (Liquid); method: Isothermal displacement
Mole fraction of 1-bromotricyclo[3.3.1.1(3,7)]decane	Temperature, K	Pressure, kPa	Molar enthalpy of solution, kJ/mol	uncertainty
0	298.15	101	15.85	0.12

System: butan-2-ol + 1-bromotricyclo[3.3.1.1(3,7)]decane; phases: Liquid
Property: Molar enthalpy of solution, kJ/mol (Liquid); method: Isothermal displacement
Mole fraction of 1-bromotricyclo[3.3.1.1(3,7)]decane	Temperature, K	Pressure, kPa	Molar enthalpy of solution, kJ/mol	uncertainty
0	298.15	101	19.25	0.17

System: pentan-1-ol + 1-bromotricyclo[3.3.1.1(3,7)]decane; phases: Liquid
Property: Molar enthalpy of solution, kJ/mol (Liquid); method: Isothermal displacement
Mole fraction of 1-bromotricyclo[3.3.1.1(3,7)]decane	Temperature, K	Pressure, kPa	Molar enthalpy of solution, kJ/mol	uncertainty
0	298.15	101	16.42	0.13

System: 1-bromotricyclo[3.3.1.1(3,7)]decane + pentan-2-ol; phases: Liquid
Property: Molar enthalpy of solution, kJ/mol (Liquid); method: Isothermal displacement
Mole fraction of 1-bromotricyclo[3.3.1.1(3,7)]decane	Temperature, K	Pressure, kPa	Molar enthalpy of solution, kJ/mol	uncertainty
0	298.15	101	19.08	0.17

System: 2-methyl-1-propanol + 1-bromotricyclo[3.3.1.1(3,7)]decane; phases: Liquid
Property: Molar enthalpy of solution, kJ/mol (Liquid); method: Isothermal displacement
Mole fraction of 1-bromotricyclo[3.3.1.1(3,7)]decane	Temperature, K	Pressure, kPa	Molar enthalpy of solution, kJ/mol	uncertainty
0	298.15	101	16.8	0.17

System: 2-methylpropan-2-ol + 1-bromotricyclo[3.3.1.1(3,7)]decane; phases: Liquid
Property: Molar enthalpy of solution, kJ/mol (Liquid); method: Isothermal displacement
Mole fraction of 1-bromotricyclo[3.3.1.1(3,7)]decane	Temperature, K	Pressure, kPa	Molar enthalpy of solution, kJ/mol	uncertainty
0	300.15	101	19.54	0.15

System: 2-methyl-1-butanol + 1-bromotricyclo[3.3.1.1(3,7)]decane; phases: Liquid
Property: Molar enthalpy of solution, kJ/mol (Liquid); method: Isothermal displacement
Mole fraction of 1-bromotricyclo[3.3.1.1(3,7)]decane	Temperature, K	Pressure, kPa	Molar enthalpy of solution, kJ/mol	uncertainty
0	298.15	101	17.31	0.2

System: 2-methylbutan-2-ol + 1-bromotricyclo[3.3.1.1(3,7)]decane; phases: Liquid
Property: Molar enthalpy of solution, kJ/mol (Liquid); method: Isothermal displacement
Mole fraction of 1-bromotricyclo[3.3.1.1(3,7)]decane	Temperature, K	Pressure, kPa	Molar enthalpy of solution, kJ/mol	uncertainty
0	298.15	101	18	0.18

System: 3-methylbutan-1-ol + 1-bromotricyclo[3.3.1.1(3,7)]decane; phases: Liquid
Property: Molar enthalpy of solution, kJ/mol (Liquid); method: Isothermal displacement
Mole fraction of 1-bromotricyclo[3.3.1.1(3,7)]decane	Temperature, K	Pressure, kPa	Molar enthalpy of solution, kJ/mol	uncertainty
0	298.15	101	16.49	0.18

System: octan-1-ol + 1-bromotricyclo[3.3.1.1(3,7)]decane; phases: Liquid
Property: Molar enthalpy of solution, kJ/mol (Liquid); method: Isothermal displacement
Mole fraction of 1-bromotricyclo[3.3.1.1(3,7)]decane	Temperature, K	Pressure, kPa	Molar enthalpy of solution, kJ/mol	uncertainty
0	298.15	101	15.68	0.12
