Measured thermophysical data. Interpretation of the global heat of melting in eutectic binary systems
Source: Thermochim. Acta, 2018, 10.1016/j.tca.2018.04.011
Compound 1: 2-(diethylamino)-N-(2,6-dimethylphenyl)acetamide, C14H22N2O, InChI=1S/C14H22N2O/c1-5-16(6-2)10-13(17)15-14-11(3)8-7-9-12(14)4/h7-9H,5-6,10H2,1-4H3,(H,15,17), purity 98.5%
Compound 2: L-menthol, C10H20O, InChI=1S/C10H20O/c1-7(2)9-5-4-8(3)6-10(9)11/h7-11H,4-6H2,1-3H3/t8-,9+,10-/m1/s1, purity 99.7%
Compound 3: (S)-2-(4-isobutylphenyl)propanoic acid, C13H18O2, InChI=1S/C13H18O2/c1-9(2)8-11-4-6-12(7-5-11)10(3)13(14)15/h4-7,9-10H,8H2,1-3H3,(H,14,15)/t10-/m0/s1, purity 99%
Compound 4: ibuprofen, C13H18O2, InChI=1S/C13H18O2/c1-9(2)8-11-4-6-12(7-5-11)10(3)13(14)15/h4-7,9-10H,8H2,1-3H3,(H,14,15), purity 99%
Compound 5: phenyl salicylate, C13H10O3, InChI=1S/C13H10O3/c14-12-9-5-4-8-11(12)13(15)16-10-6-2-1-3-7-10/h1-9,14H, purity 99%
Compound 6: octadecanoic acid, C18H36O2, InChI=1S/C18H36O2/c1-2-3-4-5-6-7-8-9-10-11-12-13-14-15-16-17-18(19)20/h2-17H2,1H3,(H,19,20), purity 98%
Compound 7: N-acetyl-p-aminophenol, C8H9NO2, InChI=1S/C8H9NO2/c1-6(10)9-7-2-4-8(11)5-3-7/h2-5,11H,1H3,(H,9,10), purity 98%
Compound 8: d-camphor, C10H16O, InChI=1S/C10H16O/c1-9(2)7-4-5-10(9,3)8(11)6-7/h7H,4-6H2,1-3H3/t7-,10+/m1/s1, purity 99%
Compound 9: 1,7,7-trimethylbicyclo[2.2.1]-2-heptanone, C10H16O, InChI=1S/C10H16O/c1-9(2)7-4-5-10(9,3)8(11)6-7/h7H,4-6H2,1-3H3, purity 99%

System: 2-(diethylamino)-N-(2,6-dimethylphenyl)acetamide; phases: Crystal, Gas
Property: Molar heat capacity at saturation pressure, J/K/mol (Crystal); method: Small sample (50 mg) DSC
Temperature, K	Molar heat capacity at saturation pressure, J/K/mol	uncertainty
288.15	358.4	13.6
293.15	366.7	13.6
298.15	374	14.4
303.15	380.4	15.6
308.15	386.7	16.5
313.15	392.7	17.3
318.15	398.7	18.1
323.15	404.8	19.1
328.15	411.5	19.9

System: 2-(diethylamino)-N-(2,6-dimethylphenyl)acetamide; phases: Liquid, Gas
Property: Molar heat capacity at saturation pressure, J/K/mol (Liquid); method: Small sample (50 mg) DSC
Temperature, K	Molar heat capacity at saturation pressure, J/K/mol	uncertainty
363.15	482.5	18.7
368.15	488.6	18.7
373.15	493.5	18.6
378.15	497.7	18.4
383.15	501.4	19.2
388.15	506	20.7
393.15	511.8	21.8
398.15	518	23.4
403.15	523.7	24.7

System: L-menthol; phases: Crystal 1, Gas
Property: Molar heat capacity at saturation pressure, J/K/mol (Crystal 1); method: Small sample (50 mg) DSC
Temperature, K	Molar heat capacity at saturation pressure, J/K/mol	uncertainty
253.15	206.1	4.4
259.15	214.5	4.7
265.15	221.9	5.9
271.15	228.6	7
277.15	235.6	7.6
283.15	242.2	8.2
289.15	248.1	8.7
295.15	253.9	9
301.15	259.9	9
305.15	264.3	9

System: L-menthol; phases: Metastable crystal, Gas
Property: Molar heat capacity at saturation pressure, J/K/mol (Metastable crystal); method: Small sample (50 mg) DSC
Temperature, K	Molar heat capacity at saturation pressure, J/K/mol	uncertainty
204.15	144.6	4.9
207.15	149.1	4.7
210.15	152.7	4.7
213.15	156.3	4.8
216.15	159.7	4.8
219.15	162.5	4.8
222.15	164.9	4.6
225.15	166.9	4.5
226.15	167.6	4.5

System: L-menthol; phases: Liquid, Gas
Property: Molar heat capacity at saturation pressure, J/K/mol (Liquid); method: Small sample (50 mg) DSC
Temperature, K	Molar heat capacity at saturation pressure, J/K/mol	uncertainty
328.15	392.9	7.9
331.15	399.4	7.6
334.15	405.4	7.5
337.15	411.1	7.5
340.15	416.5	7.8
343.15	421.6	7.9
346.15	426.6	7.9
349.15	431.1	8.4
350.15	432.5	9

System: (S)-2-(4-isobutylphenyl)propanoic acid; phases: Crystal, Gas
Property: Molar heat capacity at saturation pressure, J/K/mol (Crystal); method: Small sample (50 mg) DSC
Temperature, K	Molar heat capacity at saturation pressure, J/K/mol	uncertainty
268.15	270.4	8.9
273.15	280.7	7.1
278.15	289.4	6.7
283.15	297.2	7.2
288.15	304.7	7.6
293.15	312.3	8.1
298.15	319.7	9
303.15	327.6	10.3
308.15	337.8	10.6

System: (S)-2-(4-isobutylphenyl)propanoic acid; phases: Liquid, Gas
Property: Molar heat capacity at saturation pressure, J/K/mol (Liquid); method: Small sample (50 mg) DSC
Temperature, K	Molar heat capacity at saturation pressure, J/K/mol	uncertainty
343.15	410.4	9.1
347.15	416.7	9.3
351.15	422.3	10.3
355.15	427.2	11.2
359.15	432	11.9
363.15	436.3	13
367.15	440.8	13.9
371.15	445.1	15
375.15	449.4	15.9
378.15	452.5	16.5

System: ibuprofen; phases: Crystal, Gas
Property: Molar heat capacity at saturation pressure, J/K/mol (Crystal); method: Small sample (50 mg) DSC
Temperature, K	Molar heat capacity at saturation pressure, J/K/mol	uncertainty
300.15	301.4	16.6
304.15	309.1	16.4
308.15	315.9	16.8
312.15	322.3	17.4
316.15	328.5	18
320.15	334.7	18.4
324.15	341	19
328.15	347.4	19.6
332.15	354	20.4
336.15	361.4	20.8

System: ibuprofen; phases: Liquid, Gas
Property: Molar heat capacity at saturation pressure, J/K/mol (Liquid); method: Small sample (50 mg) DSC
Temperature, K	Molar heat capacity at saturation pressure, J/K/mol	uncertainty
373.15	449.1	15
377.15	454.8	15.8
381.15	460.9	17.7
385.15	467.4	17.9
389.15	472.8	19.2
393.15	478.2	19.8
397.15	483.2	20.8
401.15	488.1	21.9
405.15	492.8	22.7
408.15	496.2	23.7

System: phenyl salicylate; phases: Crystal, Gas
Property: Molar heat capacity at saturation pressure, J/K/mol (Crystal); method: Small sample (50 mg) DSC
Temperature, K	Molar heat capacity at saturation pressure, J/K/mol	uncertainty
263.15	220.5	7.7
268.15	227.4	8.3
273.15	233.5	9
278.15	239	9.8
283.15	244	10.4
288.15	249	10.8
293.15	253.8	11.2
298.15	258.5	11.6
303.15	263	12.2

System: phenyl salicylate; phases: Liquid, Gas
Property: Molar heat capacity at saturation pressure, J/K/mol (Liquid); method: Small sample (50 mg) DSC
Temperature, K	Molar heat capacity at saturation pressure, J/K/mol	uncertainty
338.15	349.3	7.9
343.15	354.9	9
348.15	360.6	10.7
353.15	364.6	12.2
358.15	368.5	13.3
363.15	372.4	14.2
368.15	375.9	14.8
373.15	379.5	15.4
378.15	382.9	16.1

System: octadecanoic acid; phases: Crystal, Gas
Property: Molar heat capacity at saturation pressure, J/K/mol (Crystal); method: Small sample (50 mg) DSC
Temperature, K	Molar heat capacity at saturation pressure, J/K/mol	uncertainty
286.15	465.4	10.9
290.15	478.1	11.2
294.15	490.4	11.6
298.15	503	12.7
302.15	515.3	13.8
306.15	528.6	14.2
310.15	543	15.3
314.15	558.6	16
318.15	575.8	16.5
321.15	590.2	16.9

System: octadecanoic acid; phases: Liquid, Gas
Property: Molar heat capacity at saturation pressure, J/K/mol (Liquid); method: Small sample (50 mg) DSC
Temperature, K	Molar heat capacity at saturation pressure, J/K/mol	uncertainty
358.15	670.7	16
363.15	682.1	16.7
368.15	691.8	18.4
373.15	701	20
378.15	709.3	21.8
383.15	717.2	23.7
388.15	724.8	25.4
393.15	732.4	26.7
398.15	740	28.6
403.15	747.6	31.1

System: N-acetyl-p-aminophenol; phases: Liquid, Gas
Property: Molar heat capacity at saturation pressure, J/K/mol (Liquid); method: Small sample (50 mg) DSC
Temperature, K	Molar heat capacity at saturation pressure, J/K/mol	uncertainty
463.15	346.6	14.6
468.15	350.6	12.8
473.15	353.6	11.5
478.15	356.4	11.2
483.15	359	10.7
488.15	361.5	10
493.15	363.4	9.8
498.15	365.7	10.4
503.15	367.7	10.1
510.15	370.5	10.2

System: N-acetyl-p-aminophenol; phases: Crystal, Gas
Property: Molar heat capacity at saturation pressure, J/K/mol (Crystal); method: Small sample (50 mg) DSC
Temperature, K	Molar heat capacity at saturation pressure, J/K/mol	uncertainty
248.15	154.3	10.8
265.15	166.4	11.8
282.15	176.5	12.8
299.15	185	13.1
316.15	195.1	12.5
333.15	205.7	11.4
350.15	216.8	10.1
367.15	226.7	8.3
384.15	236.3	6.2
411.15	252.6	5.4

System: d-camphor; phases: Crystal 2, Gas
Property: Molar heat capacity at saturation pressure, J/K/mol (Crystal 2); method: Small sample (50 mg) DSC
Temperature, K	Molar heat capacity at saturation pressure, J/K/mol	uncertainty
271.15	232	3.6
276.15	235.7	3.8
281.15	238.6	4.3
286.15	241.5	5
291.15	244.2	5.6
296.15	247.1	6.4
301.15	249.6	7.5
306.15	252.3	8.4
311.15	255.1	9.1
313.15	256.3	9.7

System: d-camphor; phases: Liquid, Gas
Property: Molar heat capacity at saturation pressure, J/K/mol (Liquid); method: Small sample (50 mg) DSC
Temperature, K	Molar heat capacity at saturation pressure, J/K/mol	uncertainty
466.15	431.8	10.7
469.15	435.3	10.4
472.15	438.7	10.5
475.15	442.1	8.7
478.15	445.5	7.1
481.15	449	7
484.15	452.4	7
487.15	455.8	7.1

System: 1,7,7-trimethylbicyclo[2.2.1]-2-heptanone; phases: Crystal 2, Gas
Property: Molar heat capacity at saturation pressure, J/K/mol (Crystal 2); method: Small sample (50 mg) DSC
Temperature, K	Molar heat capacity at saturation pressure, J/K/mol	uncertainty
273.15	233.6	12.8
279.15	236.2	13.8
285.15	238.5	14.6
291.15	240.8	14.6
297.15	243.1	14.8
303.15	245.6	14.6
309.15	248.3	14.2
315.15	251.3	14.1
321.15	254.5	13.9
328.15	258.6	13.5

System: 1,7,7-trimethylbicyclo[2.2.1]-2-heptanone; phases: Liquid, Gas
Property: Molar heat capacity at saturation pressure, J/K/mol (Liquid); method: Small sample (50 mg) DSC
Temperature, K	Molar heat capacity at saturation pressure, J/K/mol	uncertainty
462.15	402.5	23.9
466.15	406.4	25.5
470.15	410.3	26.3
474.15	414.2	26.7
478.15	418.1	27.1
482.15	422	26.7
486.15	425.9	26.3
490.15	429.7	25.5
494.15	433.6	25.2
496.15	435.9	24.4

System: 2-(diethylamino)-N-(2,6-dimethylphenyl)acetamide + L-menthol; phases: Crystal of intercomponent compound 1, Gas
Fixed: Mole fraction of 2-(diethylamino)-N-(2,6-dimethylphenyl)acetamide = 0.5
Property: Molar heat capacity at saturation pressure, J/K/mol (Crystal of intercomponent compound 1); method: Small sample (50 mg) DSC
Temperature, K	Molar heat capacity at saturation pressure, J/K/mol	uncertainty
248.15	252.9	23.5
254.15	264.5	21.55
260.15	273.85	21.55
266.15	281.7	21.95
272.15	288.95	22.7
278.15	295.65	23.6
284.15	302.2	24.4
290.15	308.8	25
296.15	315.7	25.7
300.15	321.05	26.1

System: 2-(diethylamino)-N-(2,6-dimethylphenyl)acetamide + L-menthol; phases: Liquid, Gas
Fixed: Mole fraction of 2-(diethylamino)-N-(2,6-dimethylphenyl)acetamide = 0.5
Property: Molar heat capacity at saturation pressure, J/K/mol (Liquid); method: Small sample (50 mg) DSC
Temperature, K	Molar heat capacity at saturation pressure, J/K/mol	uncertainty
328.15	411.7	26.65
332.15	420.2	25.3
336.15	427.85	24.95
340.15	434.9	24.9
344.15	441.6	24.8
348.15	447.85	25.3
352.15	452.7	26
356.15	457.45	27.1
360.15	462	27.9
366.15	468.5	28.85
