Measured thermophysical data. Molar heat capacities and electrical conductivities of two ammonium-based deepeutectic solvents and their aqueous solutions
Source: Thermochim. Acta, 2013, 10.1016/j.tca.2013.05.023
Compound 1: 2-(diethylamino)ethanol hydrochloride, C6H16ClNO, InChI=1S/C6H15NO.ClH/c1-3-7(4-2)5-6-8;/h8H,3-6H2,1-2H3;1H
Compound 2: glycerol, C3H8O3, InChI=1S/C3H8O3/c4-1-3(6)2-5/h3-6H,1-2H2
Compound 3: 1,2-ethanediol, C2H6O2, InChI=1S/C2H6O2/c3-1-2-4/h3-4H,1-2H2
Compound 4: water, H2O, InChI=1S/H2O/h1H2

System: glycerol + 2-(diethylamino)ethanol hydrochloride; phases: Liquid
Fixed: Pressure, kPa = 101
Fixed: Mole fraction of 2-(diethylamino)ethanol hydrochloride = 0.3333
Property: Molar heat capacity at constant pressure, J/K/mol (Liquid); method: Small sample (50 mg) DSC
Temperature, K	Molar heat capacity at constant pressure, J/K/mol	uncertainty
303.15	83.45832	3.53298
308.15	83.95827	3.56631
313.15	84.39156	3.56631
318.15	85.15815	3.59964
323.15	85.72476	3.63297
328.15	86.35803	3.6663
333.15	86.95797	3.69963
338.15	87.79122	3.73296
343.15	88.45782	3.76629
348.15	89.09109	3.76629
353.15	89.75769	3.79962

System: glycerol + 2-(diethylamino)ethanol hydrochloride; phases: Liquid
Fixed: Pressure, kPa = 101
Fixed: Mole fraction of 2-(diethylamino)ethanol hydrochloride = 0.3333
Property: Electrical conductivity, S/m (Liquid); method: Alternating current cell with electrodes
Temperature, K	Electrical conductivity, S/m	uncertainty
298.15	0.069	0.001
303.15	0.098	0.002
308.15	0.134	0.003
313.15	0.175	0.004
318.15	0.228	0.005
323.15	0.293	0.006
328.15	0.368	0.007
333.15	0.456	0.009
338.15	0.556	0.011
343.15	0.667	0.013

System: 1,2-ethanediol + 2-(diethylamino)ethanol hydrochloride; phases: Liquid
Fixed: Pressure, kPa = 101
Fixed: Mole fraction of 2-(diethylamino)ethanol hydrochloride = 0.3333
Property: Molar heat capacity at constant pressure, J/K/mol (Liquid); method: Small sample (50 mg) DSC
Temperature, K	Molar heat capacity at constant pressure, J/K/mol	uncertainty
303.15	68.02653	2.89971
308.15	68.42649	2.89971
313.15	68.82645	2.93304
318.15	69.3264	2.93304
323.15	69.82635	2.96637
328.15	70.35963	2.9997
333.15	71.02623	2.9997
338.15	71.52618	3.03303
343.15	72.09279	3.06636
348.15	72.69273	3.09969
353.15	73.25934	3.09969

System: 1,2-ethanediol + 2-(diethylamino)ethanol hydrochloride; phases: Liquid
Fixed: Pressure, kPa = 101
Fixed: Mole fraction of 2-(diethylamino)ethanol hydrochloride = 0.3333
Property: Electrical conductivity, S/m (Liquid); method: Alternating current cell with electrodes
Temperature, K	Electrical conductivity, S/m	uncertainty
298.15	0.47	0.009
303.15	0.565	0.011
308.15	0.68	0.014
313.15	0.81	0.016
318.15	0.96	0.019
323.15	1.12	0.02
328.15	1.29	0.03
333.15	1.48	0.03
338.15	1.68	0.03
343.15	1.88	0.04

System: glycerol + water + 2-(diethylamino)ethanol hydrochloride; phases: Liquid
Fixed: Pressure, kPa = 101
Property: Molar heat capacity at constant pressure, J/K/mol (Liquid); method: Small sample (50 mg) DSC
Temperature, K	Mole fraction of 2-(diethylamino)ethanol hydrochloride	Mole fraction of glycerol	Molar heat capacity at constant pressure, J/K/mol	uncertainty
303.15	0.0834	0.16681	26.104056	1.106556
308.15	0.0834	0.16681	26.214045	1.113222
313.15	0.0834	0.16681	26.29737	1.116555
318.15	0.0834	0.16681	26.46402	1.123221
323.15	0.0834	0.16681	26.547345	1.126554
328.15	0.0834	0.16681	26.687331	1.13322
333.15	0.0834	0.16681	26.853981	1.139886
338.15	0.0834	0.16681	26.96397	1.143219
343.15	0.0834	0.16681	27.13062	1.149885
348.15	0.0834	0.16681	27.29727	1.156551
353.15	0.0834	0.16681	27.410592	1.163217
303.15	0.14296	0.28592	26.773989	1.136553
308.15	0.14296	0.28592	26.967303	1.143219
313.15	0.14296	0.28592	27.133953	1.149885
318.15	0.14296	0.28592	27.300603	1.159884
323.15	0.14296	0.28592	27.560577	1.169883
328.15	0.14296	0.28592	27.703896	1.176549
333.15	0.14296	0.28592	27.917208	1.183215
338.15	0.14296	0.28592	28.107189	1.193214
343.15	0.14296	0.28592	28.323834	1.203213
348.15	0.14296	0.28592	28.513815	1.209879
353.15	0.14296	0.28592	28.680465	1.216545
303.15	0.18758	0.37516	27.137286	1.149885
308.15	0.18758	0.37516	27.323934	1.159884
313.15	0.18758	0.37516	27.490584	1.16655
318.15	0.18758	0.37516	27.740559	1.176549
323.15	0.18758	0.37516	27.970536	1.186548
328.15	0.18758	0.37516	28.157184	1.193214
333.15	0.18758	0.37516	28.407159	1.206546
338.15	0.18758	0.37516	28.657134	1.216545
343.15	0.18758	0.37516	28.907109	1.226544
348.15	0.18758	0.37516	29.113755	1.236543
353.15	0.18758	0.37516	29.323734	1.243209
303.15	0.22238	0.44475	27.353931	1.159884
308.15	0.22238	0.44475	27.573909	1.169883
313.15	0.22238	0.44475	27.740559	1.176549
318.15	0.22238	0.44475	27.96387	1.186548
323.15	0.22238	0.44475	28.167183	1.196547
328.15	0.22238	0.44475	28.407159	1.206546
333.15	0.22238	0.44475	28.667133	1.216545
338.15	0.22238	0.44475	28.907109	1.226544
343.15	0.22238	0.44475	29.13042	1.236543
348.15	0.22238	0.44475	29.407059	1.246542
353.15	0.22238	0.44475	29.610372	1.256541
303.15	0.2501	0.5002	27.503916	1.16655
308.15	0.2501	0.5002	27.687231	1.173216
313.15	0.2501	0.5002	27.870546	1.183215
318.15	0.2501	0.5002	28.120521	1.193214
323.15	0.2501	0.5002	28.337166	1.203213
328.15	0.2501	0.5002	28.587141	1.213212
333.15	0.2501	0.5002	28.803786	1.223211
338.15	0.2501	0.5002	29.087091	1.23321
343.15	0.2501	0.5002	29.300403	1.243209
348.15	0.2501	0.5002	29.567043	1.253208
353.15	0.2501	0.5002	29.783688	1.263207
303.15	0.27279	0.54558	27.59724	1.169883
308.15	0.27279	0.54558	27.777222	1.179882
313.15	0.27279	0.54558	27.960537	1.186548
318.15	0.27279	0.54558	28.170516	1.196547
323.15	0.27279	0.54558	28.383828	1.203213
328.15	0.27279	0.54558	28.627137	1.213212
333.15	0.27279	0.54558	28.867113	1.223211
338.15	0.27279	0.54558	29.110422	1.236543
343.15	0.27279	0.54558	29.367063	1.246542
348.15	0.27279	0.54558	29.593707	1.256541
353.15	0.27279	0.54558	29.837016	1.26654
303.15	0.2917	0.5834	27.673899	1.173216
308.15	0.2917	0.5834	27.853881	1.183215
313.15	0.2917	0.5834	28.060527	1.189881
318.15	0.2917	0.5834	28.243842	1.19988
323.15	0.2917	0.5834	28.46382	1.206546
328.15	0.2917	0.5834	28.660467	1.216545
333.15	0.2917	0.5834	28.937106	1.226544
338.15	0.2917	0.5834	29.160417	1.236543
343.15	0.2917	0.5834	29.393727	1.246542
348.15	0.2917	0.5834	29.643702	1.256541
353.15	0.2917	0.5834	29.880345	1.26654
303.15	0.30771	0.61541	27.737226	1.176549
308.15	0.30771	0.61541	27.917208	1.183215
313.15	0.30771	0.61541	28.09719	1.193214
318.15	0.30771	0.61541	28.290504	1.19988
323.15	0.30771	0.61541	28.520481	1.209879
328.15	0.30771	0.61541	28.727127	1.219878
333.15	0.30771	0.61541	28.957104	1.229877
338.15	0.30771	0.61541	29.213745	1.239876
343.15	0.30771	0.61541	29.417058	1.246542
348.15	0.30771	0.61541	29.673699	1.259874
353.15	0.30771	0.61541	29.880345	1.26654
303.15	0.32148	0.64296	27.773889	1.179882
308.15	0.32148	0.64296	27.977202	1.186548
313.15	0.32148	0.64296	28.143852	1.193214
318.15	0.32148	0.64296	28.347165	1.203213
323.15	0.32148	0.64296	28.560477	1.213212
328.15	0.32148	0.64296	28.773789	1.219878
333.15	0.32148	0.64296	28.990434	1.229877
338.15	0.32148	0.64296	29.237076	1.239876
343.15	0.32148	0.64296	29.440389	1.249875
348.15	0.32148	0.64296	29.703696	1.259874
353.15	0.32148	0.64296	29.940339	1.269873

System: glycerol + water + 2-(diethylamino)ethanol hydrochloride; phases: Liquid
Fixed: Pressure, kPa = 101
Property: Electrical conductivity, S/m (Liquid); method: Alternating current cell with electrodes
Temperature, K	Mole fraction of 2-(diethylamino)ethanol hydrochloride	Mole fraction of glycerol	Electrical conductivity, S/m	uncertainty
298.15	0.08347	0.16694	3.22	0.06
303.15	0.08347	0.16694	3.63	0.07
308.15	0.08347	0.16694	4.08	0.08
313.15	0.08347	0.16694	4.56	0.09
318.15	0.08347	0.16694	5.04	0.1
323.15	0.08347	0.16694	5.55	0.11
328.15	0.08347	0.16694	6.06	0.12
333.15	0.08347	0.16694	6.58	0.13
338.15	0.08347	0.16694	7.06	0.14
343.15	0.08347	0.16694	7.59	0.15
298.15	0.14306	0.28612	1.76	0.04
303.15	0.14306	0.28612	2.06	0.04
308.15	0.14306	0.28612	2.4	0.05
313.15	0.14306	0.28612	2.77	0.06
318.15	0.14306	0.28612	3.14	0.06
323.15	0.14306	0.28612	3.55	0.07
328.15	0.14306	0.28612	3.97	0.08
333.15	0.14306	0.28612	4.4	0.09
338.15	0.14306	0.28612	4.84	0.1
343.15	0.14306	0.28612	5.3	0.11
298.15	0.18766	0.37531	1	0.02
303.15	0.18766	0.37531	1.23	0.03
308.15	0.18766	0.37531	1.48	0.03
313.15	0.18766	0.37531	1.74	0.04
318.15	0.18766	0.37531	2.03	0.04
323.15	0.18766	0.37531	2.35	0.05
328.15	0.18766	0.37531	2.7	0.05
333.15	0.18766	0.37531	3.04	0.06
338.15	0.18766	0.37531	3.42	0.07
343.15	0.18766	0.37531	3.81	0.08
298.15	0.22225	0.44451	0.58	0.012
303.15	0.22225	0.44451	0.735	0.015
308.15	0.22225	0.44451	0.908	0.018
313.15	0.22225	0.44451	1.1	0.02
318.15	0.22225	0.44451	1.31	0.03
323.15	0.22225	0.44451	1.55	0.03
328.15	0.22225	0.44451	1.81	0.04
333.15	0.22225	0.44451	2.08	0.04
338.15	0.22225	0.44451	2.4	0.05
343.15	0.22225	0.44451	2.72	0.05
298.15	0.2501	0.5002	0.361	0.007
303.15	0.2501	0.5002	0.469	0.009
308.15	0.2501	0.5002	0.591	0.012
313.15	0.2501	0.5002	0.741	0.015
318.15	0.2501	0.5002	0.895	0.018
323.15	0.2501	0.5002	1.08	0.02
328.15	0.2501	0.5002	1.29	0.03
333.15	0.2501	0.5002	1.51	0.03
338.15	0.2501	0.5002	1.75	0.04
343.15	0.2501	0.5002	2.01	0.04
298.15	0.27293	0.54587	0.236	0.005
303.15	0.27293	0.54587	0.317	0.006
308.15	0.27293	0.54587	0.41	0.008
313.15	0.27293	0.54587	0.52	0.01
318.15	0.27293	0.54587	0.643	0.013
323.15	0.27293	0.54587	0.787	0.016
328.15	0.27293	0.54587	0.949	0.019
333.15	0.27293	0.54587	1.13	0.02
338.15	0.27293	0.54587	1.32	0.03
343.15	0.27293	0.54587	1.54	0.03
298.15	0.29198	0.58396	0.165	0.003
303.15	0.29198	0.58396	0.221	0.004
308.15	0.29198	0.58396	0.291	0.006
313.15	0.29198	0.58396	0.378	0.008
318.15	0.29198	0.58396	0.473	0.009
323.15	0.29198	0.58396	0.584	0.012
328.15	0.29198	0.58396	0.712	0.014
333.15	0.29198	0.58396	0.864	0.017
338.15	0.29198	0.58396	1.02	0.02
343.15	0.29198	0.58396	1.19	0.02
298.15	0.30787	0.61574	0.117	0.002
303.15	0.30787	0.61574	0.163	0.003
308.15	0.30787	0.61574	0.216	0.004
313.15	0.30787	0.61574	0.283	0.006
318.15	0.30787	0.61574	0.36	0.007
323.15	0.30787	0.61574	0.452	0.009
328.15	0.30787	0.61574	0.561	0.011
333.15	0.30787	0.61574	0.682	0.014
338.15	0.30787	0.61574	0.818	0.016
343.15	0.30787	0.61574	0.97	0.019
298.15	0.32166	0.64332	0.09	0.002
303.15	0.32166	0.64332	0.128	0.003
308.15	0.32166	0.64332	0.169	0.003
313.15	0.32166	0.64332	0.221	0.004
318.15	0.32166	0.64332	0.284	0.006
323.15	0.32166	0.64332	0.361	0.007
328.15	0.32166	0.64332	0.449	0.009
333.15	0.32166	0.64332	0.551	0.011
338.15	0.32166	0.64332	0.667	0.013
343.15	0.32166	0.64332	0.799	0.016

System: glycerol + water + 2-(diethylamino)ethanol hydrochloride; phases: Liquid
Fixed: Pressure, kPa = 101
Property: Electrical conductivity, S/m (Liquid); method: Alternating current cell with electrodes
Temperature, K	Mole fraction of 2-(diethylamino)ethanol hydrochloride	Mole fraction of glycerol	Electrical conductivity, S/m	uncertainty
298.15	0.08333	0.16667	3.9	0.08
303.15	0.08333	0.16667	4.41	0.09
308.15	0.08333	0.16667	4.95	0.1
313.15	0.08333	0.16667	5.51	0.11
318.15	0.08333	0.16667	6.09	0.12
323.15	0.08333	0.16667	6.67	0.13
328.15	0.08333	0.16667	7.27	0.15
333.15	0.08333	0.16667	7.87	0.16
338.15	0.08333	0.16667	8.48	0.17
343.15	0.08333	0.16667	9.08	0.18
298.15	0.14286	0.28571	2.72	0.05
303.15	0.14286	0.28571	3.16	0.06
308.15	0.14286	0.28571	3.6	0.07
313.15	0.14286	0.28571	4.06	0.08
318.15	0.14286	0.28571	4.55	0.09
323.15	0.14286	0.28571	5.06	0.1
328.15	0.14286	0.28571	5.58	0.11
333.15	0.14286	0.28571	6.1	0.12
338.15	0.14286	0.28571	6.64	0.13
343.15	0.14286	0.28571	7.19	0.14
298.15	0.1875	0.375	2	0.04
303.15	0.1875	0.375	2.35	0.05
308.15	0.1875	0.375	2.72	0.05
313.15	0.1875	0.375	3.12	0.06
318.15	0.1875	0.375	3.53	0.07
323.15	0.1875	0.375	3.96	0.08
328.15	0.1875	0.375	4.47	0.09
333.15	0.1875	0.375	4.91	0.1
338.15	0.1875	0.375	5.4	0.11
343.15	0.1875	0.375	5.9	0.12
298.15	0.22222	0.44444	1.46	0.03
303.15	0.22222	0.44444	1.74	0.04
308.15	0.22222	0.44444	2.04	0.04
313.15	0.22222	0.44444	2.39	0.05
318.15	0.22222	0.44444	2.73	0.05
323.15	0.22222	0.44444	3.1	0.06
328.15	0.22222	0.44444	3.49	0.07
333.15	0.22222	0.44444	3.9	0.08
338.15	0.22222	0.44444	4.33	0.09
343.15	0.22222	0.44444	4.77	0.1
298.15	0.25002	0.50005	1.1	0.02
303.15	0.25002	0.50005	1.32	0.03
308.15	0.25002	0.50005	1.57	0.03
313.15	0.25002	0.50005	1.84	0.04
318.15	0.25002	0.50005	2.13	0.04
323.15	0.25002	0.50005	2.46	0.05
328.15	0.25002	0.50005	2.8	0.06
333.15	0.25002	0.50005	3.15	0.06
338.15	0.25002	0.50005	3.51	0.07
343.15	0.25002	0.50005	3.89	0.08
298.15	0.27273	0.54545	0.93	0.019
303.15	0.27273	0.54545	1.11	0.02
308.15	0.27273	0.54545	1.33	0.03
313.15	0.27273	0.54545	1.56	0.03
318.15	0.27273	0.54545	1.8	0.04
323.15	0.27273	0.54545	2.07	0.04
328.15	0.27273	0.54545	2.35	0.05
333.15	0.27273	0.54545	2.65	0.05
338.15	0.27273	0.54545	2.96	0.06
343.15	0.27273	0.54545	3.29	0.07
298.15	0.2917	0.5834	0.764	0.015
303.15	0.2917	0.5834	0.922	0.018
308.15	0.2917	0.5834	1.1	0.02
313.15	0.2917	0.5834	1.3	0.03
318.15	0.2917	0.5834	1.5	0.03
323.15	0.2917	0.5834	1.74	0.04
328.15	0.2917	0.5834	1.98	0.04
333.15	0.2917	0.5834	2.28	0.05
338.15	0.2917	0.5834	2.55	0.05
343.15	0.2917	0.5834	2.84	0.06
298.15	0.30769	0.61538	0.626	0.013
303.15	0.30769	0.61538	0.769	0.015
308.15	0.30769	0.61538	0.921	0.018
313.15	0.30769	0.61538	1.09	0.02
318.15	0.30769	0.61538	1.27	0.03
323.15	0.30769	0.61538	1.48	0.03
328.15	0.30769	0.61538	1.7	0.03
333.15	0.30769	0.61538	1.94	0.04
338.15	0.30769	0.61538	2.21	0.04
343.15	0.30769	0.61538	2.47	0.05
298.15	0.32143	0.64286	0.573	0.011
303.15	0.32143	0.64286	0.697	0.014
308.15	0.32143	0.64286	0.826	0.017
313.15	0.32143	0.64286	0.976	0.02
318.15	0.32143	0.64286	1.14	0.02
323.15	0.32143	0.64286	1.32	0.03
328.15	0.32143	0.64286	1.52	0.03
333.15	0.32143	0.64286	1.73	0.04
338.15	0.32143	0.64286	1.95	0.04
343.15	0.32143	0.64286	2.21	0.04

System: 1,2-ethanediol + water + 2-(diethylamino)ethanol hydrochloride; phases: Liquid
Fixed: Pressure, kPa = 101
Property: Molar heat capacity at constant pressure, J/K/mol (Liquid); method: Small sample (50 mg) DSC
Temperature, K	Mole fraction of 2-(diethylamino)ethanol hydrochloride	Mole fraction of 1,2-ethanediol	Molar heat capacity at constant pressure, J/K/mol	uncertainty
303.15	0.0834	0.16681	24.937506	1.056561
308.15	0.0834	0.16681	25.020831	1.059894
313.15	0.0834	0.16681	25.104156	1.06656
318.15	0.0834	0.16681	25.214145	1.069893
323.15	0.0834	0.16681	25.354131	1.076559
328.15	0.0834	0.16681	25.46412	1.079892
333.15	0.0834	0.16681	25.577442	1.086558
338.15	0.0834	0.16681	25.687431	1.089891
343.15	0.0834	0.16681	25.79742	1.093224
348.15	0.0834	0.16681	25.910742	1.09989
353.15	0.0834	0.16681	25.96407	1.103223
303.15	0.14291	0.28582	24.637536	1.046562
308.15	0.14291	0.28582	24.780855	1.049895
313.15	0.14291	0.28582	24.89751	1.056561
318.15	0.14291	0.28582	25.087491	1.063227
323.15	0.14291	0.28582	25.280805	1.073226
328.15	0.14291	0.28582	25.470786	1.079892
333.15	0.14291	0.28582	25.637436	1.086558
338.15	0.14291	0.28582	25.804086	1.093224
343.15	0.14291	0.28582	25.970736	1.103223
348.15	0.14291	0.28582	26.137386	1.109889
353.15	0.14291	0.28582	26.23071	1.113222
303.15	0.18754	0.37508	24.26424	1.029897
308.15	0.18754	0.37508	24.43089	1.036563
313.15	0.18754	0.37508	24.59754	1.043229
318.15	0.18754	0.37508	24.827517	1.053228
323.15	0.18754	0.37508	24.994167	1.059894
328.15	0.18754	0.37508	25.160817	1.06656
333.15	0.18754	0.37508	25.390794	1.076559
338.15	0.18754	0.37508	25.620771	1.086558
343.15	0.18754	0.37508	25.787421	1.093224
348.15	0.18754	0.37508	26.014065	1.103223
353.15	0.18754	0.37508	26.204046	1.113222
303.15	0.22225	0.44451	23.977602	1.016565
308.15	0.22225	0.44451	24.124254	1.023231
313.15	0.22225	0.44451	24.310902	1.029897
318.15	0.22225	0.44451	24.494217	1.039896
323.15	0.22225	0.44451	24.754191	1.049895
328.15	0.22225	0.44451	24.977502	1.059894
333.15	0.22225	0.44451	25.180815	1.069893
338.15	0.22225	0.44451	25.400793	1.076559
343.15	0.22225	0.44451	25.604106	1.086558
348.15	0.22225	0.44451	25.810752	1.096557
353.15	0.22225	0.44451	25.994067	1.103223
303.15	0.25005	0.5001	23.677632	1.003233
308.15	0.25005	0.5001	23.844282	1.013232
313.15	0.25005	0.5001	23.994267	1.016565
318.15	0.25005	0.5001	24.210912	1.026564
323.15	0.25005	0.5001	24.394227	1.036563
328.15	0.25005	0.5001	24.627537	1.043229
333.15	0.25005	0.5001	24.827517	1.053228
338.15	0.25005	0.5001	25.057494	1.063227
343.15	0.25005	0.5001	25.274139	1.073226
348.15	0.25005	0.5001	25.490784	1.079892
353.15	0.25005	0.5001	25.640769	1.086558
303.15	0.27275	0.5455	23.420991	0.993234
308.15	0.27275	0.5455	23.587641	0.9999
313.15	0.27275	0.5455	23.737626	1.006566
318.15	0.27275	0.5455	23.96427	1.016565
323.15	0.27275	0.5455	24.13092	1.023231
328.15	0.27275	0.5455	24.314235	1.03323
333.15	0.27275	0.5455	24.557544	1.043229
338.15	0.27275	0.5455	24.754191	1.049895
343.15	0.27275	0.5455	24.980835	1.059894
348.15	0.27275	0.5455	25.177482	1.06656
353.15	0.27275	0.5455	25.344132	1.076559
303.15	0.29172	0.58344	23.187681	0.983235
308.15	0.29172	0.58344	23.337666	0.989901
313.15	0.29172	0.58344	23.490984	0.996567
318.15	0.29172	0.58344	23.700963	1.006566
323.15	0.29172	0.58344	23.907609	1.013232
328.15	0.29172	0.58344	24.117588	1.023231
333.15	0.29172	0.58344	24.270906	1.029897
338.15	0.29172	0.58344	24.504216	1.039896
343.15	0.29172	0.58344	24.670866	1.046562
348.15	0.29172	0.58344	24.894177	1.056561
353.15	0.29172	0.58344	25.060827	1.063227
303.15	0.30771	0.61541	22.984368	0.976569
308.15	0.30771	0.61541	23.151018	0.983235
313.15	0.30771	0.61541	23.291004	0.986568
318.15	0.30771	0.61541	23.494317	0.996567
323.15	0.30771	0.61541	23.650968	1.003233
328.15	0.30771	0.61541	23.840949	1.009899
333.15	0.30771	0.61541	24.060927	1.019898
338.15	0.30771	0.61541	24.26424	1.029897
343.15	0.30771	0.61541	24.43089	1.036563
348.15	0.30771	0.61541	24.674199	1.046562
353.15	0.30771	0.61541	24.867513	1.056561
303.15	0.32144	0.64288	22.817718	0.96657
308.15	0.32144	0.64288	22.984368	0.976569
313.15	0.32144	0.64288	23.151018	0.983235
318.15	0.32144	0.64288	23.304336	0.989901
323.15	0.32144	0.64288	23.507649	0.996567
328.15	0.32144	0.64288	23.69763	1.006566
333.15	0.32144	0.64288	23.910942	1.013232
338.15	0.32144	0.64288	24.077592	1.019898
343.15	0.32144	0.64288	24.270906	1.029897
348.15	0.32144	0.64288	24.494217	1.039896
353.15	0.32144	0.64288	24.674199	1.046562
