Measured thermophysical data. Enthalpies of transfer of acetonitrile from water to aqueous methanol, ethanol and dimethylsulphoxide mixtures at 298.15 K
Source: Thermochim. Acta, 2006, 10.1016/j.tca.2006.06.021
Compound 1: acetonitrile, C2H3N, InChI=1S/C2H3N/c1-2-3/h1H3
Compound 2: water, H2O, InChI=1S/H2O/h1H2, purity 99.99%
Compound 3: dimethyl sulfoxide, C2H6OS, InChI=1S/C2H6OS/c1-4(2)3/h1-2H3
Compound 4: methanol, CH4O, InChI=1S/CH4O/c1-2/h2H,1H3
Compound 5: ethanol, C2H6O, InChI=1S/C2H6O/c1-2-3/h3H,2H2,1H3

System: acetonitrile + water; phases: Liquid
Property: Molar enthalpy of solution, kJ/mol (Liquid); method: ISOPERIBOL
Mole fraction of acetonitrile	Temperature, K	Pressure, kPa	Molar enthalpy of solution, kJ/mol	uncertainty
0	298.15	100	-1.61	0.02

System: dimethyl sulfoxide + acetonitrile; phases: Liquid
Property: Molar enthalpy of solution, kJ/mol (Liquid); method: ISOPERIBOL
Mole fraction of acetonitrile	Temperature, K	Pressure, kPa	Molar enthalpy of solution, kJ/mol	uncertainty
0	298.15	100	-0.02	0.01

System: methanol + acetonitrile; phases: Liquid
Property: Molar enthalpy of solution, kJ/mol (Liquid); method: ISOPERIBOL
Mole fraction of acetonitrile	Temperature, K	Pressure, kPa	Molar enthalpy of solution, kJ/mol	uncertainty
0	298.15	100	4.51	0.05

System: ethanol + acetonitrile; phases: Liquid
Property: Molar enthalpy of solution, kJ/mol (Liquid); method: ISOPERIBOL
Mole fraction of acetonitrile	Temperature, K	Pressure, kPa	Molar enthalpy of solution, kJ/mol	uncertainty
0	298.15	100	5.79	0.06

System: dimethyl sulfoxide + acetonitrile + water; phases: Liquid
Fixed: Mole fraction of acetonitrile = 0
Fixed: Pressure, kPa = 100
Fixed: Temperature, K = 298.15
Property: Molar enthalpy of solution, kJ/mol (Liquid); method: ISOPERIBOL
Solvent: Mole fraction of dimethyl sulfoxide	Molar enthalpy of solution, kJ/mol	uncertainty
0	-1.61	0.02
0.05	-0.11	0.01
0.1	1.49	0.02
0.2	3.34	0.03
0.3	4.29	0.04
0.4	4.41	0.04
0.5	4.09	0.04
0.6	3.39	0.03
0.7	2.54	0.03
0.8	1.64	0.02
0.9	0.79	0.01
1	-0.02	0.01

System: methanol + acetonitrile + water; phases: Liquid
Fixed: Mole fraction of acetonitrile = 0
Fixed: Pressure, kPa = 100
Fixed: Temperature, K = 298.15
Property: Molar enthalpy of solution, kJ/mol (Liquid); method: ISOPERIBOL
Solvent: Mole fraction of methanol	Molar enthalpy of solution, kJ/mol	uncertainty
0	-1.61	0.02
0.05	1.84	0.02
0.1	4.34	0.04
0.2	6.27	0.06
0.3	6.59	0.07
0.4	6.24	0.06
0.5	5.82	0.06
0.6	5.29	0.05
0.7	4.89	0.05
0.8	4.69	0.05
0.9	4.49	0.05
1	4.51	0.05

System: ethanol + acetonitrile + water; phases: Liquid
Fixed: Mole fraction of acetonitrile = 0
Fixed: Pressure, kPa = 100
Fixed: Temperature, K = 298.15
Property: Molar enthalpy of solution, kJ/mol (Liquid); method: ISOPERIBOL
Solvent: Mole fraction of ethanol	Molar enthalpy of solution, kJ/mol	uncertainty
0	-1.61	0.02
0.05	3.93	0.04
0.1	7.39	0.07
0.2	8.59	0.09
0.3	8	0.08
0.4	6.79	0.07
0.5	6.04	0.06
0.6	5.99	0.06
0.7	5.94	0.06
0.8	5.89	0.06
0.9	5.84	0.06
1	5.79	0.06
