Measured thermophysical data. Polymorphism of gemfibrozil: Investigation by thermal and spectroscopic methods
Source: Thermochim. Acta, 2019, 10.1016/j.tca.2019.03.026
Compound 1: gemfibrozil, C15H22O3, InChI=1S/C15H22O3/c1-11-6-7-12(2)13(10-11)18-9-5-8-15(3,4)14(16)17/h6-7,10H,5,8-9H2,1-4H3,(H,16,17)

System: gemfibrozil; phases: Crystal, Liquid, Air at 1 atmosphere
Property: Normal melting temperature, K (Crystal); method: DTA
Normal melting temperature, K	uncertainty
332.15	0.4

System: gemfibrozil; phases: Crystal, Liquid, Air at 1 atmosphere
Property: Molar enthalpy of transition or fusion, kJ/mol (Crystal); method: DSC
Molar enthalpy of transition or fusion, kJ/mol	uncertainty
28.3	1.9

System: gemfibrozil; phases: Glass, Liquid, Air at 1 atmosphere
Property: Triple point temperature, K (Glass); method: DSC
Triple point temperature, K	uncertainty
241.15	1

System: gemfibrozil; phases: Metastable crystal, Liquid, Air at 1 atmosphere
Property: Normal melting temperature, K (Metastable crystal); method: DTA
Normal melting temperature, K	uncertainty
331.15	0.4

System: gemfibrozil; phases: Metastable crystal, Liquid, Air at 1 atmosphere
Property: Molar enthalpy of transition or fusion, kJ/mol (Metastable crystal); method: DSC
Molar enthalpy of transition or fusion, kJ/mol	uncertainty
25.9	2.1
