Measured thermophysical data. Thermochemistry of adducts of some bivalent transition metal bromides with triphenylphosphine
Source: Thermochim. Acta, 2005, 10.1016/j.tca.2005.06.016
Compound 1: triphenylphosphine, C18H15P, InChI=1S/C18H15P/c1-4-10-16(11-5-1)19(17-12-6-2-7-13-17)18-14-8-3-9-15-18/h1-15H, purity 99%
Compound 2: manganese(II) bromide, Br2Mn, InChI=1S/2BrH.Mn/h2*1H;/q;;+2/p-2, purity 99%
Compound 3: dibromoiron, Br2Fe, InChI=1S/2BrH.Fe/h2*1H;/q;;+2/p-2, purity 99%
Compound 4: cobalt(II) bromide, Br2Co, InChI=1S/2BrH.Co/h2*1H;/q;;+2/p-2, purity 99%
Compound 5: nickel bromide, Br2Ni, InChI=1S/2BrH.Ni/h2*1H;/q;;+2/p-2, purity 99%
Compound 6: zinc bromide, Br2Zn, InChI=1S/2BrH.Zn/h2*1H;/q;;+2/p-2, purity 99%
Compound 7: manganese bromide - triphenylphosphine complex 1:2, C36H30Br2MnP2, InChI=1S/2C18H15P.2BrH.Mn/c2*1-4-10-16(11-5-1)19(17-12-6-2-7-13-17)18-14-8-3-9-15-18;;;/h2*1-15H;2*1H;/q;;;;+2/p-2
Compound 8: iron(II) bromide - triphenylphosphine complex 1:1.5, C54H45Br4Fe2P3, InChI=1S/3C18H15P.4BrH.2Fe/c3*1-4-10-16(11-5-1)19(17-12-6-2-7-13-17)18-14-8-3-9-15-18;;;;;;/h3*1-15H;4*1H;;/q;;;;;;;2*+2/p-4
Compound 9: cobalt bromide - triphenylphosphine complex 1:2, C36H30Br2CoP2, InChI=1S/2C18H15P.2BrH.Co/c2*1-4-10-16(11-5-1)19(17-12-6-2-7-13-17)18-14-8-3-9-15-18;;;/h2*1-15H;2*1H;/q;;;;+2/p-2
Compound 10: nickel bromide - triphenylphosphine complex 1:2, C36H30Br2NiP2, InChI=1S/2C18H15P.2BrH.Ni/c2*1-4-10-16(11-5-1)19(17-12-6-2-7-13-17)18-14-8-3-9-15-18;;;/h2*1-15H;2*1H;/q;;;;+2/p-2
Compound 11: zinc bromide - triphenylphosphine complex 1:2, C36H30Br2P2Zn, InChI=1S/2C18H15P.2BrH.Zn/c2*1-4-10-16(11-5-1)19(17-12-6-2-7-13-17)18-14-8-3-9-15-18;;;/h2*1-15H;2*1H;/q;;;;+2/p-2
Compound 12: methanol, CH4O, InChI=1S/CH4O/c1-2/h2H,1H3

System: methanol + manganese(II) bromide; phases: Liquid
Property: Molar enthalpy of solution, kJ/mol (Liquid); method: ISOPERIBOL:solid
Mole fraction of manganese(II) bromide	Temperature, K	Pressure, kPa	Molar enthalpy of solution, kJ/mol	uncertainty
0	298.15	101	-78.83	1.47

System: methanol + dibromoiron; phases: Liquid
Property: Molar enthalpy of solution, kJ/mol (Liquid); method: ISOPERIBOL:solid
Mole fraction of dibromoiron	Temperature, K	Pressure, kPa	Molar enthalpy of solution, kJ/mol	uncertainty
0	298.15	101	-68.93	0.96

System: methanol + cobalt(II) bromide; phases: Liquid
Property: Molar enthalpy of solution, kJ/mol (Liquid); method: ISOPERIBOL:solid
Mole fraction of cobalt(II) bromide	Temperature, K	Pressure, kPa	Molar enthalpy of solution, kJ/mol	uncertainty
0	298.15	101	-107.42	3.68

System: methanol + zinc bromide; phases: Liquid
Property: Molar enthalpy of solution, kJ/mol (Liquid); method: ISOPERIBOL:solid
Mole fraction of zinc bromide	Temperature, K	Pressure, kPa	Molar enthalpy of solution, kJ/mol	uncertainty
0	298.15	101	-48.3	0.72

Reaction: -2 triphenylphosphine + -1 manganese(II) bromide + 1 manganese bromide - triphenylphosphine complex 1:2
Property: Molar enthalpy of reaction, kJ/mol
-25.58

Reaction: -3 triphenylphosphine + -2 dibromoiron + 1 iron(II) bromide - triphenylphosphine complex 1:1.5
Property: Molar enthalpy of reaction, kJ/mol
-39.28

Reaction: -2 triphenylphosphine + -1 cobalt(II) bromide + 1 cobalt bromide - triphenylphosphine complex 1:2
Property: Molar enthalpy of reaction, kJ/mol
-109.82

Reaction: -2 triphenylphosphine + -1 nickel bromide + 1 nickel bromide - triphenylphosphine complex 1:2
Property: Molar enthalpy of reaction, kJ/mol
-40.5

Reaction: -2 triphenylphosphine + -1 zinc bromide + 1 zinc bromide - triphenylphosphine complex 1:2
Property: Molar enthalpy of reaction, kJ/mol
-86.29
