Measured thermophysical data. Thermal properties of alkaline sodium borohydride solutions
Source: Thermochim. Acta, 2008, 10.1016/j.tca.2008.03.009
Compound 1: sodium hydroxide, HNaO, InChI=1S/Na.H2O/h;1H2/q+1;/p-1, purity 99%
Compound 2: water, H2O, InChI=1S/H2O/h1H2, purity 99.99%
Compound 3: sodium tetrahydroborate, BH4Na, InChI=1S/BH4.Na/h1H4;/q-1;+1

System: sodium tetrahydroborate; phases: Crystal
Property: Molar heat capacity at constant pressure, J/K/mol (Crystal); method: Small sample (50 mg) DSC
Temperature, K	Pressure, kPa	Molar heat capacity at constant pressure, J/K/mol	uncertainty
328.1	101.325	111.613530006	2.2699518

System: sodium hydroxide + water; phases: Liquid, Crystal
Fixed: Pressure, kPa = 101
Property: Solid-liquid equilibrium temperature, K (Liquid); method: DTA
Mass fraction of sodium hydroxide	Solid-liquid equilibrium temperature, K	uncertainty
0.1	261.6	0.5
0.15	251.72	0.5
0.2	240.25	0.5

System: sodium hydroxide + water; phases: Liquid, Crystal of intercomponent compound 2
Fixed: Pressure, kPa = 101
Property: Solid-liquid equilibrium temperature, K (Liquid); method: DTA
Mass fraction of sodium hydroxide	Solid-liquid equilibrium temperature, K	uncertainty
0.2	240.25	0.5
0.25	257.26	0.5
0.3	272.47	0.5

System: sodium hydroxide + water + sodium tetrahydroborate; phases: Liquid, Crystal
Fixed: Pressure, kPa = 101
Fixed: Solvent: Mass fraction of sodium hydroxide = 0.1
Property: Solid-liquid equilibrium temperature, K (Liquid); method: DTA
Mass fraction of sodium tetrahydroborate	Solid-liquid equilibrium temperature, K	uncertainty
0.083	244.91	0.5
0.146	225.93	0.5

System: sodium hydroxide + water + sodium tetrahydroborate; phases: Liquid, Crystal of intercomponent compound 1
Fixed: Pressure, kPa = 101
Fixed: Solvent: Mass fraction of sodium hydroxide = 0.1
Property: Solid-liquid equilibrium temperature, K (Liquid); method: DTA
Mass fraction of sodium tetrahydroborate	Solid-liquid equilibrium temperature, K	uncertainty
0.213	259.86	0.5
0.265	270.78	0.5
0.311	292.43	0.5
0.369	306.98	0.5

System: sodium hydroxide + water + sodium tetrahydroborate; phases: Liquid
Fixed: Temperature, K = 55
Fixed: Pressure, kPa = 101
Property: Molar heat capacity at constant pressure, J/K/mol (Liquid); method: Small sample (50 mg) DSC
Solvent: Mass fraction of sodium hydroxide	Mass fraction of sodium tetrahydroborate	Molar heat capacity at constant pressure, J/K/mol	uncertainty
0.1	0	73.964254251511	1.52503617013425
0.1	0.083	76.3455056093952	1.5905313668624
0.1	0.153	77.9769369997403	1.65030554496805
0.1	0.213	79.0802945380986	1.49208102902073
0.1	0.265	80.5513194284503	1.53640118800859
0.2	0	75.090408053533	1.41680015195345
0.2	0.076	77.6315703222796	1.46870538447556
0.2	0.141	79.7094792334255	1.51621292020103
0.2	0.197	80.434806388039	1.55967768619466
0.2	0.245	82.2325667256875	1.5989665752217
0.3	0	78.0905413732705	1.5100380928533
0.3	0.07	80.0680493776111	1.55687873789799
0.3	0.131	80.9209803093504	1.60013237899845
0.3	0.184	82.4541354621509	1.63971292112232
