Measured thermophysical data. Experimental solubility and thermodynamic aspects of methylene blue in different solvents
Source: Thermochim. Acta, 2019, 10.1016/j.tca.2019.03.024
Compound 1: 3,7-bis(dimethylamino)phenothiazin-5-ium chloride, C16H18ClN3S, InChI=1S/C16H18N3S.ClH/c1-18(2)11-5-7-13-15(9-11)20-16-10-12(19(3)4)6-8-14(16)17-13;/h5-10H,1-4H3;1H/q+1;/p-1, purity 85%
Compound 2: ethanol, C2H6O, InChI=1S/C2H6O/c1-2-3/h3H,2H2,1H3, purity 99.5%
Compound 3: methanol, CH4O, InChI=1S/CH4O/c1-2/h2H,1H3, purity 99.9%
Compound 4: propan-2-ol, C3H8O, InChI=1S/C3H8O/c1-3(2)4/h3-4H,1-2H3, purity 99.5%
Compound 5: acetone, C3H6O, InChI=1S/C3H6O/c1-3(2)4/h1-2H3, purity 99.8%
Compound 6: ethyl acetate, C4H8O2, InChI=1S/C4H8O2/c1-3-6-4(2)5/h3H2,1-2H3, purity 99.5%
Compound 7: water, H2O, InChI=1S/H2O/h1H2, purity 99.8%

System: 3,7-bis(dimethylamino)phenothiazin-5-ium chloride + methanol; phases: Liquid, Crystal
Property: Mass concentration, kg/m3 of 3,7-bis(dimethylamino)phenothiazin-5-ium chloride (Liquid); method: UV spectrophotometry
Temperature, K	Pressure, kPa	Mass concentration, kg/m3 of 3,7-bis(dimethylamino)phenothiazin-5-ium chloride	uncertainty
303.15	100	200	200

System: 3,7-bis(dimethylamino)phenothiazin-5-ium chloride + propan-2-ol; phases: Liquid, Crystal
Property: Mass concentration, kg/m3 of 3,7-bis(dimethylamino)phenothiazin-5-ium chloride (Liquid); method: UV spectrophotometry
Temperature, K	Pressure, kPa	Mass concentration, kg/m3 of 3,7-bis(dimethylamino)phenothiazin-5-ium chloride	uncertainty
303.15	100	200	200

System: 3,7-bis(dimethylamino)phenothiazin-5-ium chloride + ethyl acetate; phases: Liquid, Crystal
Property: Mass concentration, kg/m3 of 3,7-bis(dimethylamino)phenothiazin-5-ium chloride (Liquid); method: UV spectrophotometry
Temperature, K	Pressure, kPa	Mass concentration, kg/m3 of 3,7-bis(dimethylamino)phenothiazin-5-ium chloride	uncertainty
303.15	100	0.0003	0.0003

System: 3,7-bis(dimethylamino)phenothiazin-5-ium chloride + water; phases: Liquid, Crystal of intercomponent compound 1
Fixed: Pressure, kPa = 100
Property: Mole fraction of 3,7-bis(dimethylamino)phenothiazin-5-ium chloride (Liquid); method: UV spectrophotometry
Temperature, K	Mole fraction of 3,7-bis(dimethylamino)phenothiazin-5-ium chloride	uncertainty
278.15	0.00114	0.00019
283.15	0.00135	0.00022
288.15	0.00166	0.00028
293.15	0.00209	0.00035
298.15	0.00254	0.00042
303.15	0.003	0.00049
308.15	0.0036	0.00059
313.15	0.0044	0.00072
318.15	0.00515	0.00084

System: 3,7-bis(dimethylamino)phenothiazin-5-ium chloride + water; phases: Liquid, Crystal
Fixed: Pressure, kPa = 100
Property: Mass density, kg/m3 (Liquid); method: Pycnometric method
Temperature, K	Mass density, kg/m3	uncertainty
278.15	1002.2	10.2
283.15	996.3	10
288.15	999.7	10
293.15	998.9	10
298.15	998.1	10
303.15	995.6	10
308.15	995.1	10
313.15	991.4	10
318.15	990.3	9.9

System: 3,7-bis(dimethylamino)phenothiazin-5-ium chloride + ethanol; phases: Liquid, Crystal
Fixed: Pressure, kPa = 100
Property: Mole fraction of 3,7-bis(dimethylamino)phenothiazin-5-ium chloride (Liquid); method: UV spectrophotometry
Temperature, K	Mole fraction of 3,7-bis(dimethylamino)phenothiazin-5-ium chloride	uncertainty
278.15	0.00366	0.0006
283.15	0.00434	0.00071
288.15	0.00517	0.00085
293.15	0.00608	0.00099
298.15	0.00702	0.00114
303.15	0.00818	0.00134
308.15	0.00968	0.00159
313.15	0.01168	0.00191
318.15	0.01379	0.00225

System: 3,7-bis(dimethylamino)phenothiazin-5-ium chloride + ethanol; phases: Liquid, Crystal
Fixed: Pressure, kPa = 100
Property: Mass density, kg/m3 (Liquid); method: Pycnometric method
Temperature, K	Mass density, kg/m3	uncertainty
278.15	804.2	8.2
283.15	798.9	8.1
288.15	794.3	8.1
293.15	789	8.1
298.15	783.5	8
303.15	778.6	7.9
308.15	773.6	7.9
313.15	768.4	7.8
318.15	765.7	7.7

System: 3,7-bis(dimethylamino)phenothiazin-5-ium chloride + acetone; phases: Liquid, Crystal
Fixed: Pressure, kPa = 100
Property: Mole fraction of 3,7-bis(dimethylamino)phenothiazin-5-ium chloride (Liquid); method: UV spectrophotometry
Temperature, K	Mole fraction of 3,7-bis(dimethylamino)phenothiazin-5-ium chloride	uncertainty
278.15	6.9e-06	1.1e-06
283.15	8.3e-06	1.4e-06
288.15	9.7e-06	1.6e-06
293.15	1.16e-05	1.9e-06
298.15	1.35e-05	2.2e-06
303.15	1.56e-05	2.6e-06
308.15	1.93e-05	3.2e-06
313.15	2.31e-05	3.8e-06
318.15	2.81e-05	4.6e-06

System: 3,7-bis(dimethylamino)phenothiazin-5-ium chloride + acetone; phases: Liquid, Crystal
Fixed: Pressure, kPa = 100
Property: Mass density, kg/m3 (Liquid); method: Pycnometric method
Temperature, K	Mass density, kg/m3	uncertainty
278.15	806.8	10.2
283.15	804	10
288.15	800.2	10
293.15	791	10
298.15	783.1	10
303.15	780	10
308.15	772.4	10
313.15	771	10
318.15	762.9	9.9
