Measured thermophysical data. Calorimetric study of enthalpies of mixing in liquid gallium germanium yttrium alloys
Source: Thermochim. Acta, 2005, 10.1016/j.tca.2005.08.004
Compound 1: gallium, Ga, InChI=1S/Ga
Compound 2: germanium, Ge, InChI=1S/Ge
Compound 3: yttrium, Y, InChI=1S/Y

System: gallium + germanium; phases: Liquid
Fixed: Temperature, K = 1760
Fixed: Pressure, kPa = 101
Property: Partial molar enthalpy, kJ/mol of gallium (Liquid); method: Drop calorimetry
Mole fraction of gallium	Partial molar enthalpy, kJ/mol of gallium	uncertainty
0.0193	4.78	10
0.0229	-5.76	10
0.0235	-10.64	10
0.0653	-9.36	10
0.0688	1.64	10
0.0784	-8.12	10
0.0792	-2.4	10
0.0841	-6.68	10
0.0909	-2.6	10
0.1049	-17.07	10
0.1213	-4.98	10
0.1216	11.44	10
0.1436	-3.06	10
0.1444	-4.55	10
0.1619	7.78	10
0.2192	-0.36	10
0.2207	3.55	10
0.2357	-1.86	10
0.2426	-2.07	10
0.2858	-11.19	10
0.301	-6.07	10
0.3243	-0.43	10
0.33	6.84	10
0.3582	-6.5	10
0.3699	-7.53	10
0.3736	-4.14	10
0.3844	-3.77	10
0.4047	1.81	10
0.422	-0.5	10
0.4558	5.42	10
0.4559	1.34	10
0.4661	-0.11	10
0.5255	-5.36	10
0.5498	16.74	10
0.566	6.21	10
0.6118	-1.47	10
0.6195	-6.62	10
0.6613	-0.47	10
0.6756	2.44	10
0.676	5.75	10
0.7162	0.98	10
0.7583	6.28	10
0.7932	-2.81	10
0.8207	3.49	10
0.8419	5.16	10

System: gallium + germanium + yttrium; phases: Liquid
Fixed: Temperature, K = 1760
Fixed: Pressure, kPa = 101
Property: Partial molar enthalpy, kJ/mol of yttrium (Liquid); method: Drop calorimetry
Solvent: Mole fraction of gallium	Mole fraction of yttrium	Partial molar enthalpy, kJ/mol of yttrium	uncertainty
0.15	0.0012	-231.86	10
0.15	0.0027	-267.84	10
0.15	0.0044	-276.47	10
0.15	0.0082	-254.99	10
0.15	0.0088	-253.51	10
0.15	0.0121	-264.92	10
0.15	0.0161	-244.67	10
0.15	0.0163	-235.26	10
0.15	0.0204	-237.1	10
0.15	0.0245	-221.71	10
0.15	0.0249	-231.02	10
0.15	0.0294	-253.78	10
0.15	0.0328	-264.52	10
0.15	0.0341	-238.43	10
0.15	0.039	-227.91	10
0.15	0.0414	-222.73	10
0.15	0.0444	-257.77	10
0.15	0.0503	-261.19	10
0.15	0.0513	-250.44	10
0.15	0.0567	-262.81	10
0.15	0.0623	-269.59	10
0.15	0.0634	-254.64	10
0.15	0.0708	-268.01	10
0.15	0.0744	-215.85	10
0.15	0.0793	-235.77	10
0.15	0.0872	-248.87	10
0.15	0.0883	-264.07	10
0.15	0.0976	-241.69	10
0.15	0.0997	-212.31	10
0.15	0.107	-252.75	10
0.15	0.1118	-228.65	10
0.15	0.1176	-240.46	10
0.15	0.1251	-229.01	10
0.15	0.1295	-254.54	10
0.15	0.1394	-231.39	10
0.15	0.1433	-246.02	10
0.15	0.1536	-226.82	10
0.15	0.1586	-260.1	10
0.15	0.1677	-228.53	10
0.15	0.1741	-237.23	10
0.15	0.1826	-238	10
0.15	0.1881	-267.72	10
0.15	0.1978	-226.16	10
0.15	0.2017	-279.94	10
0.15	0.2129	-236.58	10
0.15	0.2168	-277.29	10
0.15	0.2281	-238.87	10
0.15	0.233	-253.88	10
0.15	0.2433	-237.05	10
0.15	0.2492	-253.6	10
0.15	0.2588	-233.81	10
0.15	0.2651	-250.54	10
0.15	0.2748	-237.17	10
0.15	0.2809	-253.14	10
0.15	0.2912	-247.39	10
0.15	0.2967	-253.97	10
0.15	0.3078	-222.24	10
0.15	0.3123	-289.27	10
0.15	0.3273	-236.4	10
0.15	0.3399	-242.53	10
0.15	0.3554	-211.36	10
0.15	0.3707	-222.43	10
0.15	0.3854	-229.87	10
0.15	0.3994	-152.05	10
0.15	0.4133	-164.88	10
0.4	0.0025	-213.13	10
0.4	0.0076	-224.35	10
0.4	0.0134	-204.62	10
0.4	0.0202	-228.89	10
0.4	0.0272	-230.65	10
0.4	0.0354	-221.49	10
0.4	0.0456	-228.03	10
0.4	0.056	-237.88	10
0.4	0.067	-243.72	10
0.4	0.0802	-237.67	10
0.4	0.095	-242.15	10
0.4	0.11	-230.37	10
0.4	0.1244	-247.14	10
0.4	0.1399	-251.73	10
0.4	0.1557	-257.42	10
0.4	0.1713	-250.88	10
0.4	0.187	-247.79	10
0.4	0.2034	-241.68	10
0.4	0.2199	-234.69	10
0.4	0.2364	-237.17	10
0.4	0.2532	-228.45	10
0.4	0.27	-223.39	10
0.4	0.2868	-219.02	10
0.4	0.3035	-226.63	10
0.4	0.3199	-208.88	10
0.4	0.3357	-224.83	10
0.5	0.0019	-195.36	10
0.5	0.0034	-205.16	10
0.5	0.0068	-229.51	10
0.5	0.0102	-199.49	10
0.5	0.0129	-212.56	10
0.5	0.017	-224.27	10
0.5	0.0195	-220.88	10
0.5	0.024	-223.17	10
0.5	0.0271	-206.48	10
0.5	0.0312	-204.64	10
0.5	0.036	-220.84	10
0.5	0.0385	-236.24	10
0.5	0.0453	-240.1	10
0.5	0.0461	-225.69	10
0.5	0.0541	-218.63	10
0.5	0.0549	-227.6	10
0.5	0.0632	-225.86	10
0.5	0.0649	-234.26	10
0.5	0.0736	-232.29	10
0.5	0.0761	-229.93	10
0.5	0.0851	-249.63	10
0.5	0.0882	-235.06	10
0.5	0.0981	-236.09	10
0.5	0.101	-233.24	10
0.5	0.1118	-242.9	10
0.5	0.1152	-238.21	10
0.5	0.1255	-228.1	10
0.5	0.13	-242.52	10
0.5	0.1389	-238.27	10
0.5	0.1447	-234.44	10
0.5	0.1529	-242.3	10
0.5	0.1591	-235.32	10
0.5	0.1675	-240.61	10
0.5	0.1736	-222.62	10
0.5	0.1956	-223.59	10
0.5	0.2171	-230.44	10
0.5	0.2315	-230.51	10
0.5	0.2464	-228.61	10
0.5	0.2615	-223.23	10
0.5	0.2762	-211.48	10
0.5	0.2908	-196.63	10
0.5	0.3048	-186.95	10
0.5	0.3184	-206.27	10
0.5	0.3317	-187.57	10
0.5	0.3447	-197.6	10
0.5	0.3575	-177.31	10
0.7	0.0022	-188.16	10
0.7	0.003	-212.35	10
0.7	0.007	-196.14	10
0.7	0.0091	-218.51	10
0.7	0.0151	-213.79	10
0.7	0.0156	-220.14	10
0.7	0.0221	-219.56	10
0.7	0.0235	-216.86	10
0.7	0.0287	-214.29	10
0.7	0.0307	-205.89	10
0.7	0.0354	-219.98	10
0.7	0.039	-210.31	10
0.7	0.0422	-213.38	10
0.7	0.0477	-220.22	10
0.7	0.0502	-220.49	10
0.7	0.0566	-210.58	10
0.7	0.0593	-229.52	10
0.7	0.0658	-217.41	10
0.7	0.0687	-225.18	10
0.7	0.0756	-214.86	10
0.7	0.0859	-216.54	10
0.7	0.0962	-217.31	10
0.7	0.1065	-206.81	10
0.7	0.1168	-222.04	10
0.7	0.1273	-225.96	10
0.7	0.1379	-219	10
0.7	0.1485	-223.28	10
0.7	0.1603	-215.09	10
0.7	0.173	-211.77	10
0.7	0.1859	-219.76	10
0.7	0.1991	-216.61	10
0.7	0.2126	-205.59	10
0.7	0.2263	-217.81	10
0.7	0.246	-187.72	10
0.7	0.265	-195.32	10
0.7	0.2776	-204.52	10
0.7	0.2901	-161.24	10
0.7	0.3024	-166.25	10
0.7	0.3146	-197.67	10
0.7	0.3269	-185.46	10
0.7	0.3394	-162.19	10
0.85	0.0021	-186.96	10
0.85	0.0064	-207.32	10
0.85	0.0111	-188.9	10
0.85	0.0165	-204.37	10
0.85	0.0227	-177.64	10
0.85	0.0294	-195.15	10
0.85	0.0362	-210.55	10
0.85	0.0434	-205.55	10
0.85	0.0516	-202.32	10
0.85	0.0603	-210.09	10
0.85	0.0697	-203.86	10
0.85	0.0799	-213.49	10
0.85	0.0903	-200	10
0.85	0.1017	-206.12	10
0.85	0.1105	-209.27	10
0.85	0.1196	-208.95	10
0.85	0.1322	-192.82	10
0.85	0.1447	-207.9	10
0.85	0.1573	-204.78	10
0.85	0.1701	-220.43	10
0.85	0.1834	-205.68	10
0.85	0.1978	-195.67	10
0.85	0.2125	-195.9	10
0.85	0.227	-196.18	10
0.85	0.2416	-186.01	10
0.85	0.2569	-175.19	10
0.85	0.2729	-181.01	10
0.85	0.2888	-187.43	10
0.85	0.3043	-172.4	10
0.85	0.3192	-148.46	10
0.85	0.3337	-145.97	10
0.85	0.3479	-138.77	10
0.85	0.3619	-138.47	10
0.85	0.3754	-115.22	10
0.85	0.3885	-111.79	10
