Measured thermophysical data. Thermophysical study of the binary mixtures of N,N-dimethylacetamide with 2-propanol and 2-butanol
Source: Thermochim. Acta, 2017, 10.1016/j.tca.2017.06.023
Compound 1: N,N-dimethylethanamide, C4H9NO, InChI=1S/C4H9NO/c1-4(6)5(2)3/h1-3H3, purity 99.8%
Compound 2: propan-2-ol, C3H8O, InChI=1S/C3H8O/c1-3(2)4/h3-4H,1-2H3, purity 99.5%
Compound 3: butan-2-ol, C4H10O, InChI=1S/C4H10O/c1-3-4(2)5/h4-5H,3H2,1-2H3, purity 99.5%

System: propan-2-ol; phases: Liquid
Fixed: Pressure, kPa = 100
Fixed: Frequency, MHz = 3
Property: Speed of sound, m/s (Liquid); method: Sing-around technique in a fixed-path interferometer
Temperature, K	Speed of sound, m/s	uncertainty
283.15	1191.88	1.25
298.15	1139.17	1.25
313.15	1086.62	1.24

System: propan-2-ol; phases: Liquid
Fixed: Pressure, kPa = 100
Property: Mass density, kg/m3 (Liquid); method: Vibrating tube method
Temperature, K	Mass density, kg/m3	uncertainty
283.15	793.41	0.24
298.15	781.07	0.24
313.15	768	0.24

System: propan-2-ol; phases: Liquid
Fixed: Pressure, kPa = 100
Property: Refractive index (Na D-line) (Liquid); method: Standard Abbe refractometry
Temperature, K	Refractive index (Na D-line)	uncertainty
283.15	1.381492	0.000326
298.15	1.375052	0.000326
313.15	1.368289	0.000326

System: propan-2-ol; phases: Liquid
Fixed: Pressure, kPa = 100
Property: Viscosity, Pa*s (Liquid); method: Capillary tube (Ostwald; Ubbelohde) method
Temperature, K	Viscosity, Pa*s	uncertainty
283.15	0.003306	6.9e-05
298.15	0.002051	4.3e-05
313.15	0.001334	2.8e-05

System: butan-2-ol; phases: Liquid
Fixed: Pressure, kPa = 100
Property: Mass density, kg/m3 (Liquid); method: Vibrating tube method
Temperature, K	Mass density, kg/m3	uncertainty
283.15	814.99	0.24
298.15	802.71	0.24
313.15	789.86	0.24

System: butan-2-ol; phases: Liquid
Fixed: Pressure, kPa = 100
Fixed: Frequency, MHz = 3
Property: Speed of sound, m/s (Liquid); method: Sing-around technique in a fixed-path interferometer
Temperature, K	Speed of sound, m/s	uncertainty
283.15	1265.96	1.27
298.15	1212.18	1.26
313.15	1157.62	1.25

System: butan-2-ol; phases: Liquid
Fixed: Pressure, kPa = 100
Property: Refractive index (Na D-line) (Liquid); method: Standard Abbe refractometry
Temperature, K	Refractive index (Na D-line)	uncertainty
283.15	1.401258	0.000326
298.15	1.395149	0.000326
313.15	1.388778	0.000326

System: butan-2-ol; phases: Liquid
Fixed: Pressure, kPa = 100
Property: Viscosity, Pa*s (Liquid); method: Capillary tube (Ostwald; Ubbelohde) method
Temperature, K	Viscosity, Pa*s	uncertainty
283.15	0.005652	0.000117
298.15	0.00307	6.4e-05
313.15	0.001796	3.7e-05

System: N,N-dimethylethanamide + propan-2-ol; phases: Liquid
Fixed: Pressure, kPa = 100
Fixed: Frequency, MHz = 3
Property: Speed of sound, m/s (Liquid); method: Sing-around technique in a fixed-path interferometer
Temperature, K	Mole fraction of N,N-dimethylethanamide	Speed of sound, m/s	uncertainty
283.15	0	1191.88	1.25
283.15	0.0551	1214.14	1.25
283.15	0.1091	1234.93	1.25
283.15	0.2113	1271.78	1.25
283.15	0.3066	1303.62	1.24
283.15	0.4084	1336.41	1.24
283.15	0.5049	1366.67	1.23
283.15	0.6056	1398.11	1.23
283.15	0.7028	1427.88	1.23
283.15	0.8024	1458.46	1.23
283.15	0.8956	1486.35	1.23
283.15	0.9464	1501.53	1.23
283.15	1	1516.8	1.23
298.15	0	1139.17	1.25
298.15	0.0551	1160.63	1.24
298.15	0.1091	1180.61	1.24
298.15	0.2113	1215.87	1.24
298.15	0.3066	1247.42	1.23
298.15	0.4084	1279.72	1.23
298.15	0.5049	1309.31	1.22
298.15	0.6056	1338.77	1.22
298.15	0.7028	1369.29	1.22
298.15	0.8024	1399.28	1.22
298.15	0.8956	1426.45	1.22
298.15	0.9464	1441.31	1.22
298.15	1	1453.68	1.22
313.15	0	1086.62	1.24
313.15	0.0551	1107.63	1.24
313.15	0.1091	1127.31	1.23
313.15	0.2113	1162.2	1.23
313.15	0.3066	1193.49	1.22
313.15	0.4084	1225.22	1.22
313.15	0.5049	1254.19	1.21
313.15	0.6056	1282.91	1.21
313.15	0.7028	1313.17	1.21
313.15	0.8024	1342.06	1.21
313.15	0.8956	1368.48	1.21
313.15	0.9464	1382.45	1.21
313.15	1	1393.35	1.2

System: N,N-dimethylethanamide + propan-2-ol; phases: Liquid
Fixed: Pressure, kPa = 100
Property: Mass density, kg/m3 (Liquid); method: Vibrating tube method
Temperature, K	Mole fraction of N,N-dimethylethanamide	Mass density, kg/m3	uncertainty
283.15	0	793.41	0.24
283.15	0.0551	803.7	0.24
283.15	0.1091	813.5	0.24
283.15	0.2113	831.42	0.23
283.15	0.3066	847.5	0.23
283.15	0.4084	864.09	0.22
283.15	0.5049	879.33	0.22
283.15	0.6056	894.73	0.22
283.15	0.7028	909.13	0.22
283.15	0.8024	923.39	0.21
283.15	0.8956	936.27	0.21
283.15	0.9464	943.08	0.21
283.15	1	950.13	0.21
298.15	0	781.07	0.24
298.15	0.0551	791.24	0.24
298.15	0.1091	800.93	0.24
298.15	0.2113	818.64	0.23
298.15	0.3066	834.52	0.23
298.15	0.4084	850.94	0.23
298.15	0.5049	866.02	0.22
298.15	0.6056	881.3	0.22
298.15	0.7028	895.59	0.22
298.15	0.8024	909.75	0.21
298.15	0.8956	922.53	0.21
298.15	0.9464	929.3	0.21
298.15	1	936.29	0.21
313.15	0	768	0.24
313.15	0.0551	778.1	0.24
313.15	0.1091	787.72	0.24
313.15	0.2113	805.29	0.24
313.15	0.3066	821.08	0.23
313.15	0.4084	837.39	0.23
313.15	0.5049	852.41	0.23
313.15	0.6056	867.62	0.22
313.15	0.7028	881.85	0.22
313.15	0.8024	895.96	0.22
313.15	0.8956	908.71	0.21
313.15	0.9464	915.46	0.21
313.15	1	922.43	0.21

System: N,N-dimethylethanamide + propan-2-ol; phases: Liquid
Fixed: Pressure, kPa = 100
Property: Refractive index (Na D-line) (Liquid); method: Standard Abbe refractometry
Temperature, K	Mole fraction of N,N-dimethylethanamide	Refractive index (Na D-line)	uncertainty
283.15	0	1.381492	0.000326
283.15	0.0551	1.385719	0.000325
283.15	0.1091	1.389725	0.000324
283.15	0.2113	1.396976	0.000322
283.15	0.3066	1.403415	0.000321
283.15	0.4084	1.409969	0.000319
283.15	0.5049	1.415905	0.000318
283.15	0.6056	1.421815	0.000317
283.15	0.7028	1.427287	0.000316
283.15	0.8024	1.432668	0.000314
283.15	0.8956	1.437508	0.000314
283.15	0.9464	1.440068	0.000313
283.15	1	1.442726	0.000313
298.15	0	1.375052	0.000326
298.15	0.0551	1.379242	0.000325
298.15	0.1091	1.383217	0.000324
298.15	0.2113	1.390418	0.000322
298.15	0.3066	1.396798	0.000321
298.15	0.4084	1.403311	0.000319
298.15	0.5049	1.409191	0.000318
298.15	0.6056	1.41506	0.00032
298.15	0.7028	1.420491	0.000316
298.15	0.8024	1.425813	0.000314
298.15	0.8956	1.430614	0.000314
298.15	0.9464	1.433172	0.000313
298.15	1	1.435794	0.000313
313.15	0	1.368289	0.000326
313.15	0.0551	1.372487	0.000325
313.15	0.1091	1.376459	0.000324
313.15	0.2113	1.383651	0.000322
313.15	0.3066	1.390038	0.000321
313.15	0.4084	1.396534	0.000319
313.15	0.5049	1.402417	0.000318
313.15	0.6056	1.408274	0.000317
313.15	0.7028	1.413704	0.000316
313.15	0.8024	1.419031	0.000314
313.15	0.8956	1.423829	0.000314
313.15	0.9464	1.426378	0.000313
313.15	1	1.429006	0.000313

System: N,N-dimethylethanamide + propan-2-ol; phases: Liquid
Fixed: Pressure, kPa = 100
Property: Viscosity, Pa*s (Liquid); method: Capillary tube (Ostwald; Ubbelohde) method
Temperature, K	Mole fraction of N,N-dimethylethanamide	Viscosity, Pa*s	uncertainty
283.15	0	0.003306	6.9e-05
283.15	0.0551	0.002752	5.7e-05
283.15	0.1091	0.002354	4.9e-05
283.15	0.2113	0.001896	3.9e-05
283.15	0.3066	0.001643	3.4e-05
283.15	0.4084	0.001476	3.1e-05
283.15	0.5049	0.001392	2.9e-05
283.15	0.6056	0.001305	2.7e-05
283.15	0.7028	0.001272	2.6e-05
283.15	0.8024	0.001246	2.6e-05
283.15	0.8956	0.001213	2.5e-05
283.15	0.9464	0.001205	2.5e-05
283.15	1	0.001168	2.4e-05
298.15	0	0.002051	4.3e-05
298.15	0.0551	0.001793	3.7e-05
298.15	0.1091	0.001598	3.3e-05
298.15	0.2113	0.001355	2.8e-05
298.15	0.3066	0.001214	2.5e-05
298.15	0.4084	0.001117	2.3e-05
298.15	0.5049	0.001057	2.2e-05
298.15	0.6056	0.001017	2.1e-05
298.15	0.7028	0.000993	2.1e-05
298.15	0.8024	0.000977	2e-05
298.15	0.8956	0.000956	2e-05
298.15	0.9464	0.000949	2e-05
298.15	1	0.00093	1.9e-05
313.15	0	0.001334	2.8e-05
313.15	0.0551	0.001223	2.6e-05
313.15	0.1091	0.001129	2.4e-05
313.15	0.2113	0.001008	2.1e-05
313.15	0.3066	0.000933	2e-05
313.15	0.4084	0.000879	1.8e-05
313.15	0.5049	0.000849	1.8e-05
313.15	0.6056	0.000828	1.7e-05
313.15	0.7028	0.000809	1.7e-05
313.15	0.8024	0.000795	1.7e-05
313.15	0.8956	0.000779	1.6e-05
313.15	0.9464	0.000772	1.6e-05
313.15	1	0.000764	1.6e-05

System: N,N-dimethylethanamide + butan-2-ol; phases: Liquid
Fixed: Pressure, kPa = 100
Property: Mass density, kg/m3 (Liquid); method: Vibrating tube method
Temperature, K	Mole fraction of N,N-dimethylethanamide	Mass density, kg/m3	uncertainty
283.15	0	814.99	0.24
283.15	0.062	823.15	0.24
283.15	0.0926	827.08	0.23
283.15	0.2101	842.13	0.23
283.15	0.3084	854.75	0.23
283.15	0.4084	867.81	0.22
283.15	0.5009	880.22	0.22
283.15	0.6002	893.87	0.22
283.15	0.7001	907.96	0.22
283.15	0.8035	922.69	0.21
283.15	0.9004	936.39	0.21
283.15	0.9572	944.31	0.21
283.15	1	950.13	0.21
298.15	0	802.71	0.24
298.15	0.062	810.77	0.24
298.15	0.0926	814.69	0.24
298.15	0.2101	829.59	0.23
298.15	0.3084	842.09	0.23
298.15	0.4084	855.06	0.23
298.15	0.5009	867.31	0.22
298.15	0.6002	880.82	0.22
298.15	0.7001	894.7	0.22
298.15	0.8035	909.23	0.21
298.15	0.9004	922.74	0.21
298.15	0.9572	930.54	0.21
298.15	1	936.29	0.21
313.15	0	789.86	0.24
313.15	0.062	797.87	0.24
313.15	0.0926	801.76	0.24
313.15	0.2101	816.61	0.23
313.15	0.3084	829.07	0.23
313.15	0.4084	841.93	0.23
313.15	0.5009	854.12	0.22
313.15	0.6002	867.53	0.22
313.15	0.7001	881.27	0.22
313.15	0.8035	895.63	0.22
313.15	0.9004	909.02	0.21
313.15	0.9572	916.72	0.21
313.15	1	922.43	0.21

System: N,N-dimethylethanamide + butan-2-ol; phases: Liquid
Fixed: Pressure, kPa = 100
Fixed: Frequency, MHz = 3
Property: Speed of sound, m/s (Liquid); method: Sing-around technique in a fixed-path interferometer
Temperature, K	Mole fraction of N,N-dimethylethanamide	Speed of sound, m/s	uncertainty
283.15	0	1265.96	1.27
283.15	0.062	1280.79	1.26
283.15	0.0926	1287.98	1.26
283.15	0.2101	1314.5	1.25
283.15	0.3084	1336.96	1.25
283.15	0.4084	1360.06	1.24
283.15	0.5009	1382.32	1.24
283.15	0.6002	1407.2	1.23
283.15	0.7001	1433.01	1.23
283.15	0.8035	1461.33	1.23
283.15	0.9004	1488.83	1.23
283.15	0.9572	1505.01	1.23
283.15	1	1516.8	1.23
298.15	0	1212.18	1.26
298.15	0.062	1226.46	1.25
298.15	0.0926	1233.47	1.25
298.15	0.2101	1259.82	1.24
298.15	0.3084	1281.38	1.24
298.15	0.4084	1303.77	1.23
298.15	0.5009	1324.93	1.23
298.15	0.6002	1349.05	1.22
298.15	0.7001	1374.75	1.22
298.15	0.8035	1402.4	1.22
298.15	0.9004	1428.81	1.22
298.15	0.9572	1443.32	1.22
298.15	1	1453.68	1.22
313.15	0	1157.62	1.25
313.15	0.062	1172.24	1.24
313.15	0.0926	1179.1	1.24
313.15	0.2101	1204.96	1.23
313.15	0.3084	1226.16	1.23
313.15	0.4084	1247.82	1.22
313.15	0.5009	1268.77	1.22
313.15	0.6002	1292.51	1.21
313.15	0.7001	1317.69	1.21
313.15	0.8035	1345.2	1.21
313.15	0.9004	1370.19	1.21
313.15	0.9572	1383.98	1.21
313.15	1	1393.35	1.2

System: N,N-dimethylethanamide + butan-2-ol; phases: Liquid
Fixed: Pressure, kPa = 100
Property: Refractive index (Na D-line) (Liquid); method: Standard Abbe refractometry
Temperature, K	Mole fraction of N,N-dimethylethanamide	Refractive index (Na D-line)	uncertainty
283.15	0	1.401258	0.000326
283.15	0.062	1.403819	0.000325
283.15	0.0926	1.405052	0.000324
283.15	0.2101	1.409805	0.000322
283.15	0.3084	1.413774	0.000321
283.15	0.4084	1.417852	0.000319
283.15	0.5009	1.421683	0.000318
283.15	0.6002	1.425827	0.000317
283.15	0.7001	1.430024	0.000315
283.15	0.8035	1.434367	0.000314
283.15	0.9004	1.438469	0.000313
283.15	0.9572	1.440887	0.000313
283.15	1	1.442726	0.000313
298.15	0	1.395149	0.000326
298.15	0.062	1.397662	0.000325
298.15	0.0926	1.398888	0.000324
298.15	0.2101	1.403563	0.000322
298.15	0.3084	1.407462	0.000321
298.15	0.4084	1.411481	0.000319
298.15	0.5009	1.415237	0.000318
298.15	0.6002	1.419293	0.000317
298.15	0.7001	1.423394	0.000315
298.15	0.8035	1.427653	0.000314
298.15	0.9004	1.431655	0.000313
298.15	0.9572	1.434016	0.000313
298.15	1	1.435794	0.000313
313.15	0	1.388778	0.000326
313.15	0.062	1.391269	0.000325
313.15	0.0926	1.392483	0.000324
313.15	0.2101	1.39714	0.000322
313.15	0.3084	1.401026	0.000321
313.15	0.4084	1.405014	0.000319
313.15	0.5009	1.408729	0.000318
313.15	0.6002	1.412742	0.000317
313.15	0.7001	1.416796	0.000315
313.15	0.8035	1.420985	0.000314
313.15	0.9004	1.424923	0.000313
313.15	0.9572	1.427248	0.000313
313.15	1	1.429006	0.000313

System: N,N-dimethylethanamide + butan-2-ol; phases: Liquid
Fixed: Pressure, kPa = 100
Property: Viscosity, Pa*s (Liquid); method: Capillary tube (Ostwald; Ubbelohde) method
Temperature, K	Mole fraction of N,N-dimethylethanamide	Viscosity, Pa*s	uncertainty
283.15	0	0.005652	0.000117
283.15	0.062	0.00437	9.1e-05
283.15	0.0926	0.003888	8.1e-05
283.15	0.2101	0.002795	5.8e-05
283.15	0.3084	0.002363	4.9e-05
283.15	0.4084	0.002043	4.2e-05
283.15	0.5009	0.001833	3.8e-05
283.15	0.6002	0.001662	3.5e-05
283.15	0.7001	0.001518	3.2e-05
283.15	0.8035	0.001418	2.9e-05
283.15	0.9004	0.001318	2.7e-05
283.15	0.9572	0.001258	2.6e-05
283.15	1	0.001168	2.4e-05
298.15	0	0.00307	6.4e-05
298.15	0.062	0.002545	5.3e-05
298.15	0.0926	0.002345	4.9e-05
298.15	0.2101	0.001839	3.8e-05
298.15	0.3084	0.001593	3.3e-05
298.15	0.4084	0.001427	3e-05
298.15	0.5009	0.001316	2.7e-05
298.15	0.6002	0.001233	2.6e-05
298.15	0.7001	0.001151	2.4e-05
298.15	0.8035	0.001066	2.2e-05
298.15	0.9004	0.00102	2.1e-05
298.15	0.9572	0.000967	2e-05
298.15	1	0.00093	1.9e-05
313.15	0	0.001796	3.7e-05
313.15	0.062	0.001587	3.3e-05
313.15	0.0926	0.001501	3.1e-05
313.15	0.2101	0.001274	2.7e-05
313.15	0.3084	0.001146	2.4e-05
313.15	0.4084	0.001048	2.2e-05
313.15	0.5009	0.000979	2e-05
313.15	0.6002	0.000927	1.9e-05
313.15	0.7001	0.000888	1.9e-05
313.15	0.8035	0.000857	1.8e-05
313.15	0.9004	0.000819	1.7e-05
313.15	0.9572	0.000791	1.7e-05
313.15	1	0.000764	1.6e-05
