Measured thermophysical data. Thermochemistry of Liquid Ni-Sb-Sn Alloys
Source: Thermochim. Acta, 2012, 10.1016/j.tca.2012.02.024
Compound 1: tin, Sn, InChI=1S/Sn, purity 99.999%
Compound 2: antimony, Sb, InChI=1S/Sb, purity 99.99%
Compound 3: nickel, Ni, InChI=1S/Ni, purity 99.99%

System: nickel + tin + antimony; phases: Liquid
Fixed: Solvent: Mole fraction of nickel = 0.75
Fixed: Pressure, kPa = 101
Property: (Relative) activity of antimony (Liquid); method: isopiestic measurments
Temperature, K	Mole fraction of antimony	(Relative) activity of antimony	uncertainty
1077	0.8787	0.948	0.001
1093	0.8877	0.961	0.001
1101	0.8402	0.88	0.001
1103	0.8565	0.931	0.001
1122	0.8421	0.878	0.001
1132	0.7667	0.797	0.001
1140	0.7784	0.829	0.001
1162	0.7569	0.773	0.001
1165	0.8515	0.883	0.001
1166	0.6952	0.711	0.001
1171	0.8714	0.946	0.001
1173	0.5838	0.567	0.001
1173	0.5985	0.567	0.001
1173	0.5999	0.509	0.001
1173	0.6026	0.502	0.001
1173	0.6046	0.52	0.001
1173	0.6066	0.573	0.001
1173	0.6072	0.536	0.001
1173	0.6127	0.583	0.001
1173	0.6173	0.611	0.001
1173	0.6192	0.651	0.001
1173	0.6203	0.594	0.001
1173	0.6271	0.608	0.001
1173	0.6284	0.62	0.001
1173	0.6329	0.616	0.001
1173	0.6429	0.621	0.001
1173	0.644	0.635	0.001
1173	0.6476	0.576	0.001
1173	0.6481	0.66	0.001
1173	0.6493	0.658	0.001
1173	0.65	0.643	0.001
1173	0.6521	0.652	0.001
1173	0.6549	0.66	0.001
1173	0.6563	0.669	0.001
1173	0.6638	0.674	0.001
1173	0.6655	0.668	0.001
1173	0.6715	0.687	0.001
1173	0.6719	0.682	0.001
1173	0.6807	0.691	0.001
1173	0.6828	0.686	0.001
1173	0.6856	0.693	0.001
1173	0.6917	0.71	0.001
1173	0.6921	0.706	0.001
1173	0.6952	0.705	0.001
1173	0.7053	0.72	0.001
1173	0.7216	0.742	0.001
1173	0.7242	0.736	0.001
1173	0.7281	0.721	0.001
1173	0.7403	0.766	0.001
1173	0.7422	0.748	0.001
1173	0.7569	0.766	0.001
1173	0.7573	0.759	0.001
1173	0.7578	0.77	0.001
1173	0.7665	0.801	0.001
1173	0.7667	0.772	0.001
1173	0.7678	0.782	0.001
1173	0.7784	0.814	0.001
1173	0.7894	0.803	0.001
1173	0.7979	0.836	0.001
1173	0.803	0.836	0.001
1173	0.8095	0.817	0.001
1173	0.8279	0.856	0.001
1173	0.8357	0.881	0.001
1173	0.8402	0.865	0.001
1173	0.8421	0.868	0.001
1173	0.8515	0.882	0.001
1173	0.8565	0.921	0.001
1173	0.8714	0.946	0.001
1173	0.8787	0.943	0.001
1173	0.8877	0.958	0.001
1173	0.7894	0.793	0.001
1175	0.8279	0.856	0.001
1184	0.803	0.832	0.001
1186	0.7281	0.712	0.001
1192	0.8095	0.811	0.001
1196	0.8357	0.876	0.001
1199	0.7894	0.793	0.001
1200	0.6493	0.629	0.001
1205	0.7894	0.778	0.001
1206	0.6856	0.664	0.001
1211	0.7678	0.763	0.001
1217	0.7578	0.748	0.001
1217	0.7979	0.82	0.001
1224	0.7573	0.73	0.001
1225	0.6655	0.619	0.001
1229	0.6284	0.563	0.001
1233	0.7422	0.708	0.001
1236	0.7665	0.771	0.001
1244	0.65	0.575	0.001
1247	0.7242	0.673	0.001
1254	0.6476	0.507	0.001
1257	0.7403	0.717	0.001
1259	0.6429	0.541	0.001
1264	0.6917	0.632	0.001
1271	0.6271	0.515	0.001
1273	0.5838	0.467	0.001
1274	0.7216	0.676	0.001
1281	0.6203	0.493	0.001
1281	0.6828	0.592	0.001
1288	0.6072	0.436	0.001
1290	0.6127	0.474	0.001
1290	0.7053	0.638	0.001
1297	0.6066	0.46	0.001
1297	0.6715	0.556	0.001
1299	0.6046	0.415	0.001
1303	0.5985	0.448	0.001
1303	0.6921	0.607	0.001
1307	0.5999	0.4	0.001
1310	0.6192	0.527	0.001
1311	0.6026	0.392	0.001
1315	0.6807	0.579	0.001
1322	0.644	0.501	0.001
1324	0.6719	0.559	0.001
1331	0.6638	0.543	0.001
1333	0.6329	0.478	0.001
1337	0.6563	0.53	0.001
1341	0.6173	0.462	0.001
1342	0.6549	0.519	0.001
1345	0.6481	0.513	0.001
1347	0.6521	0.509	0.001

System: nickel + tin + antimony; phases: Liquid
Fixed: Solvent: Mole fraction of nickel = 0.6
Fixed: Pressure, kPa = 101
Property: (Relative) activity of antimony (Liquid); method: isopiestic measurments
Temperature, K	Mole fraction of antimony	(Relative) activity of antimony	uncertainty
1084	0.8554	0.928	0.001
1098	0.8805	0.946	0.001
1111	0.7762	0.825	0.001
1113	0.8489	0.903	0.001
1130	0.8099	0.856	0.001
1142	0.7361	0.771	0.001
1150	0.7602	0.803	0.001
1170	0.8391	0.87	0.001
1173	0.525	0.513	0.001
1173	0.529	0.518	0.001
1173	0.5325	0.526	0.001
1173	0.5429	0.538	0.001
1173	0.553	0.566	0.001
1173	0.5566	0.555	0.001
1173	0.5591	0.573	0.001
1173	0.5675	0.581	0.001
1173	0.5742	0.591	0.001
1173	0.5842	0.573	0.001
1173	0.5849	0.602	0.001
1173	0.6003	0.605	0.001
1173	0.6016	0.602	0.001
1173	0.6065	0.62	0.001
1173	0.6086	0.616	0.001
1173	0.6126	0.629	0.001
1173	0.6306	0.623	0.001
1173	0.6317	0.64	0.001
1173	0.6362	0.651	0.001
1173	0.6386	0.641	0.001
1173	0.6439	0.694	0.001
1173	0.6597	0.655	0.001
1173	0.6634	0.672	0.001
1173	0.683	0.687	0.001
1173	0.6901	0.705	0.001
1173	0.7081	0.705	0.001
1173	0.7204	0.743	0.001
1173	0.7276	0.734	0.001
1173	0.7282	0.756	0.001
1173	0.7361	0.749	0.001
1173	0.7513	0.769	0.001
1173	0.7602	0.788	0.001
1173	0.7628	0.78	0.001
1173	0.7685	0.791	0.001
1173	0.7762	0.811	0.001
1173	0.782	0.802	0.001
1173	0.7988	0.815	0.001
1173	0.8059	0.828	0.001
1173	0.8099	0.833	0.001
1173	0.8191	0.846	0.001
1173	0.8391	0.868	0.001
1173	0.8489	0.875	0.001
1173	0.8554	0.886	0.001
1173	0.8805	0.917	0.001
1174	0.7204	0.742	0.001
1177	0.683	0.684	0.001
1180	0.8191	0.843	0.001
1189	0.8059	0.82	0.001
1195	0.7988	0.803	0.001
1196	0.6901	0.688	0.001
1203	0.782	0.785	0.001
1208	0.7685	0.77	0.001
1210	0.6317	0.606	0.001
1214	0.7628	0.755	0.001
1217	0.6634	0.638	0.001
1220	0.7513	0.739	0.001
1228	0.7282	0.72	0.001
1234	0.6362	0.598	0.001
1238	0.6003	0.542	0.001
1239	0.7276	0.692	0.001
1252	0.6126	0.557	0.001
1256	0.7081	0.651	0.001
1261	0.5842	0.492	0.001
1265	0.6065	0.541	0.001
1273	0.6439	0.611	0.001
1276	0.5849	0.504	0.001
1279	0.5566	0.455	0.001
1285	0.5742	0.485	0.001
1290	0.6597	0.572	0.001
1292	0.5429	0.429	0.001
1293	0.5675	0.468	0.001
1300	0.5591	0.454	0.001
1302	0.5325	0.409	0.001
1303	0.6386	0.542	0.001
1306	0.553	0.442	0.001
1309	0.529	0.398	0.001
1312	0.525	0.39	0.001
1316	0.6306	0.514	0.001
1328	0.6086	0.489	0.001
1338	0.6016	0.468	0.001

System: nickel + tin + antimony; phases: Liquid
Fixed: Pressure, kPa = 101
Fixed: Solvent: Mole fraction of nickel = 0.75
Property: Excess molar enthalpy (molar enthalpy of mixing), kJ/mol (Liquid); method: calculated from activity of Sb
Temperature, K	Mole fraction of antimony	Excess molar enthalpy (molar enthalpy of mixing), kJ/mol	uncertainty
1077	0.8787	0.7	0.1
1093	0.8877	0.4	0.1
1101	0.8402	2.6	0.1
1103	0.8565	1.8	0.1
1122	0.8421	2.5	0.1
1132	0.7667	8.5	0.1
1140	0.7784	6.4	0.1
1162	0.7569	8	1
1165	0.8515	2	1
1166	0.6952	14.4	0.2
1171	0.8714	1.1	0.1
1175	0.8279	3.3	0.1
1184	0.803	4.8	0.1
1186	0.7281	10.8	0.1
1192	0.8095	4.4	0.1
1196	0.8357	2.9	0.1
1199	0.7894	5.6	0.1
1200	0.6493	19.1	0.2
1205	0.7894	5.6	0.1
1206	0.6856	15.3	0.2
1211	0.7678	7.2	0.1
1217	0.7578	8	1
1217	0.7979	5.1	0.1
1224	0.7573	8	1
1225	0.6655	17.6	0.2
1229	0.6284	20.9	0.2
1233	0.7422	9.3	0.1
1236	0.7665	7.3	0.1
1244	0.65	19	1
1247	0.7242	11.1	0.1
1254	0.6476	19.3	0.2
1257	0.7403	9.6	0.1
1259	0.6429	19.7	0.2
1264	0.6917	14.8	0.2
1271	0.6271	21	1
1273	0.5838	24	1
1274	0.7216	11.4	0.1
1281	0.6203	21.5	0.2
1281	0.6828	15.8	0.2
1288	0.6072	22.4	0.2
1290	0.6127	22.2	0.2
1290	0.7053	13.2	0.1
1297	0.6066	22.5	0.2
1297	0.6715	17	1
1299	0.6046	22.7	0.2
1303	0.5985	23.1	0.2
1303	0.6921	14.8	0.2
1307	0.5999	23	1
1310	0.6192	21.6	0.2
1311	0.6026	22.8	0.2
1315	0.6807	16	1
1322	0.644	19.6	0.2
1324	0.6719	17	1
1331	0.6638	17.8	0.2
1333	0.6329	20.5	0.2
1337	0.6563	18.5	0.2
1341	0.6173	21.8	0.2
1342	0.6549	18.6	0.2
1345	0.6481	19.2	0.2
1347	0.6521	18.8	0.2

System: nickel + tin + antimony; phases: Liquid
Fixed: Pressure, kPa = 101
Fixed: Solvent: Mole fraction of nickel = 0.6
Property: Excess molar enthalpy (molar enthalpy of mixing), kJ/mol (Liquid); method: calculated from activity of Sb
Temperature, K	Mole fraction of antimony	Excess molar enthalpy (molar enthalpy of mixing), kJ/mol	uncertainty
1084	0.8554	5.5	0.1
1098	0.8805	4.5	0.1
1111	0.7762	8.7	0.1
1113	0.8489	5.7	0.1
1130	0.8099	7.3	0.1
1142	0.7361	10.4	0.1
1150	0.7602	9.4	0.1
1170	0.8391	6.2	0.1
1174	0.7204	11	1
1177	0.683	13	1
1180	0.8191	6.9	0.1
1189	0.8059	7.4	0.1
1195	0.7988	7.7	0.1
1196	0.6901	12.6	0.1
1203	0.782	8.4	0.1
1208	0.7685	9	1
1210	0.6317	17.2	0.2
1214	0.7628	9.2	0.1
1217	0.6634	14.4	0.2
1220	0.7513	9.7	0.1
1228	0.7282	10.7	0.1
1234	0.6362	16.7	0.2
1238	0.6003	20.2	0.2
1239	0.7276	10.7	0.1
1252	0.6126	19	1
1256	0.7081	11.6	0.1
1261	0.5842	21.4	0.2
1265	0.6065	19.5	0.2
1273	0.6439	15.9	0.2
1276	0.5849	21.4	0.2
1279	0.5566	23.4	0.2
1285	0.5742	22.2	0.2
1290	0.6597	14.6	0.2
1292	0.5429	24.2	0.2
1293	0.5675	22.7	0.2
1300	0.5591	23.3	0.2
1302	0.5325	24.8	0.3
1303	0.6386	16.4	0.2
1306	0.553	23.7	0.2
1309	0.529	25	1
1312	0.525	25.2	0.3
1316	0.6306	17.2	0.2
1328	0.6086	19.4	0.2
1338	0.6016	20	1
