Measured thermophysical data. Thermodynamics of chromium acetylacetonate sublimation
Source: Thermochim. Acta, 2005, 10.1016/j.tca.2005.02.034
Compound 1: tris(2,4-pentanedionato)chromium, C15H21CrO6, InChI=1S/3C5H7O2.Cr/c3*1-4(6)3-5(2)7;/h3*3H,1-2H3;/q3*-1;+3

System: tris(2,4-pentanedionato)chromium; phases: Crystal, Gas
Property: Vapor or sublimation pressure, kPa (Crystal); method: Knudsen - mass spectrometry
Temperature, K	Vapor or sublimation pressure, kPa	uncertainty
320.15	1.6799e-07	8.46e-09
327.15	5.0662e-07	2.536e-08
330	7.54e-07	3.8e-08
333.15	1.27e-06	6e-08
341.15	3.33e-06	1.7e-07
348.15	8.4e-06	4.2e-07
355.15	2.053e-05	1.03e-06
362.15	4.6e-05	2.3e-06
369.15	0.00010972	5.49e-06
376.15	0.00022531	1.128e-05
380	0.000342	1.7e-05
382.15	0.00043996	2.203e-05
388.15	0.0007626	3.82e-05

System: tris(2,4-pentanedionato)chromium; phases: Crystal, Gas
Property: Vapor or sublimation pressure, kPa (Crystal); method: static mass spectrometry
Temperature, K	Vapor or sublimation pressure, kPa	uncertainty
384.15	0.000556	2.8e-05
387.15	0.000653	3.3e-05
391.15	0.001109	5.6e-05
402.15	0.003066	0.000153
404.15	0.003586	0.00018
404.15	0.003733	0.000187
409.15	0.005693	0.000285
409.15	0.005866	0.000294
421.15	0.0176	0.00088
421.15	0.01826	0.00091
432.15	0.04213	0.00211
432.15	0.04199	0.0021
442.15	0.09879	0.00494
442.15	0.09772	0.00489
452.15	0.22	0.011
452.15	0.212	0.0106
458.15	0.334	0.0167
458.15	0.3306	0.0165
463.15	0.48	0.024
463.15	0.4666	0.0233
468.15	0.639	0.032
476.15	1.109	0.0555
