Measured thermophysical data. Johari-Goldstein relaxation in orientationally disordered phase of hexa-substituted benzenes
Source: Thermochim. Acta, 2015, 10.1016/j.tca.2015.01.017
Compound 1: pentachlorophenol, C6HCl5O, InChI=1S/C6HCl5O/c7-1-2(8)4(10)6(12)5(11)3(1)9/h12H, purity 97%
Compound 2: hexachlorobenzene, C6Cl6, InChI=1S/C6Cl6/c7-1-2(8)4(10)6(12)5(11)3(1)9, purity 99%

System: pentachlorophenol; phases: Crystal 1, Liquid, Air at 1 atmosphere
Property: Molar enthalpy of transition or fusion, kJ/mol (Crystal 1); method: DSC
Molar enthalpy of transition or fusion, kJ/mol	uncertainty
15.394165312	0.506036576

System: pentachlorophenol; phases: Crystal 3, Crystal 2, Air at 1 atmosphere
Property: Molar enthalpy of transition or fusion, kJ/mol (Crystal 3); method: DSC
Molar enthalpy of transition or fusion, kJ/mol	uncertainty
9.002124352	0.346235552

System: pentachlorophenol; phases: Crystal 2, Crystal 1, Air at 1 atmosphere
Property: Triple point temperature, K (Crystal 2); method: DTA
Triple point temperature, K	uncertainty
441.6	0.5

System: pentachlorophenol; phases: Crystal 3, Crystal 2, Air at 1 atmosphere
Property: Triple point temperature, K (Crystal 3); method: DTA
Triple point temperature, K	uncertainty
340.2	0.5

System: pentachlorophenol; phases: Crystal 4, Crystal 3, Air at 1 atmosphere
Property: Triple point temperature, K (Crystal 4); method: DTA
Triple point temperature, K	uncertainty
287.4	0.5

System: pentachlorophenol; phases: Crystal 1, Liquid, Air at 1 atmosphere
Property: Normal melting temperature, K (Crystal 1); method: DTA
Normal melting temperature, K	uncertainty
464.8	0.5

System: hexachlorobenzene; phases: Crystal, Liquid, Air at 1 atmosphere
Property: Molar enthalpy of transition or fusion, kJ/mol (Crystal); method: DSC
Molar enthalpy of transition or fusion, kJ/mol	uncertainty
23.9215536	0.711951

System: hexachlorobenzene; phases: Crystal 1, Liquid, Air at 1 atmosphere
Property: Normal melting temperature, K (Crystal 1); method: DTA
Normal melting temperature, K	uncertainty
504	0.5

System: pentachlorophenol + hexachlorobenzene; phases: Liquid, Crystal 1
Fixed: Pressure, kPa = 101
Property: Solid-liquid equilibrium temperature, K (Liquid); method: DTA
Mole fraction of hexachlorobenzene	Solid-liquid equilibrium temperature, K	uncertainty
0	464.8	0.5
0.094	466.7	0.5
0.286	474.5	0.5
0.483	486.9	0.5
0.686	495	0.5
0.85	500.4	0.5
1	504	0.5
