Measured thermophysical data. Low-temperature heat capacity and thermal expansion of synthetic caracolite Na3Pb2(SO4)3Cl
Source: Thermochim. Acta, 2014, 10.1016/j.tca.2014.09.013
Compound 1: lead sodium chloride sulfate (Na3Pb2Cl(SO4)3), ClNa3O12Pb2S3, InChI=1S/ClH.3Na.3H2O4S.2Pb/c;;;;3*1-5(2,3)4;;/h1H;;;;3*(H2,1,2,3,4);;/q;3*+1;;;;2*+2/p-7, purity 99%

System: lead sodium chloride sulfate (Na3Pb2Cl(SO4)3); phases: Crystal
Fixed: Pressure, kPa = 101.325
Property: Molar heat capacity at constant pressure, J/K/mol (Crystal); method: Vacuum adiabatic calorimetry
Temperature, K	Molar heat capacity at constant pressure, J/K/mol	uncertainty
5	0.5568	0.0216
10	4.361	0.096
15	13.75	0.29
20	26.63	0.18
25	41.61	0.26
30	58.25	0.32
35	75.49	0.41
40	92.21	0.49
45	108.9	0.3
50	124.9	0.3
60	153.6	0.4
70	178.4	0.5
80	199.8	0.5
90	218.3	0.5
100	234.2	0.6
110	248.1	0.6
120	260.4	0.6
130	271.6	0.6
140	281.9	0.7
150	291.6	0.7
160	300.8	0.7
170	309.6	0.7
180	318	0.7
190	326.1	0.8
200	333.9	0.8
210	341.3	0.8
220	348.6	0.8
230	355.6	0.8
240	362.5	0.8
250	369.3	0.8
260	376	0.9
270	382.7	0.9
273.15	384.8	0.9
280	389.3	0.9
290	396	0.9
298.15	401.5	0.9
300	402.7	0.9
310	409.3	0.9
320	415.8	0.9
330	422.1	1
336	425.8	1

System: lead sodium chloride sulfate (Na3Pb2Cl(SO4)3); phases: Crystal
Fixed: Pressure, kPa = 101.325
Property: Molar enthalpy, kJ/mol (Crystal); method: Vacuum adiabatic calorimetry
Temperature, K	Molar enthalpy, kJ/mol	uncertainty
5	0.000698	5.8e-05
10	0.0104	0.00027
15	0.05401	0.00117
20	0.1535	0.0012
25	0.3236	0.0022
30	0.5725	0.0035
35	0.907	0.0053
40	1.326	0.008
45	1.829	0.006
50	2.414	0.007
60	3.81	0.011
70	5.473	0.015
80	7.366	0.02
90	9.459	0.027
100	11.72	0.03
110	14.14	0.04
120	16.68	0.04
130	19.34	0.05
140	22.11	0.06
150	24.98	0.06
160	27.94	0.07
170	30.99	0.08
180	34.13	0.08
190	37.35	0.09
200	40.65	0.1
210	44.03	0.11
220	47.48	0.12
230	51	0.12
240	54.59	0.13
250	58.25	0.14
260	61.98	0.15
270	65.77	0.16
273.15	66.98	0.16
280	69.63	0.17
290	73.56	0.17
298.15	76.81	0.18
300	77.55	0.18
310	81.61	0.19
320	85.74	0.2
330	89.93	0.21
336	92.47	0.22

System: lead sodium chloride sulfate (Na3Pb2Cl(SO4)3); phases: Crystal
Fixed: Pressure, kPa = 101.325
Property: Molar entropy, J/K/mol (Crystal); method: Vacuum adiabatic calorimetry
Temperature, K	Molar entropy, J/K/mol	uncertainty
5	0.1856	0.0144
10	1.39	0.048
15	4.791	0.152
20	10.43	0.11
25	17.96	0.17
30	26.99	0.23
35	37.27	0.31
40	48.44	0.39
45	60.27	0.25
50	72.59	0.3
60	97.96	0.39
70	123.5	0.5
80	148.8	0.6
90	173.4	0.7
100	197.3	0.7
110	220.3	0.8
120	242.4	0.9
130	263.7	0.9
140	284.2	1
150	304	1.1
160	323.1	1.1
170	341.6	1.2
180	359.5	1.2
190	376.9	1.3
200	393.9	1.3
210	410.3	1.4
220	426.4	1.4
230	442	1.5
240	457.3	1.5
250	472.2	1.6
260	486.9	1.6
270	501.2	1.7
273.15	505.6	1.7
280	515.2	1.7
290	529	1.8
298.15	540	1.8
300	542.5	1.8
310	555.8	1.9
320	568.9	1.9
330	581.8	1.9
336	589.5	2

System: lead sodium chloride sulfate (Na3Pb2Cl(SO4)3); phases: Crystal
Fixed: Pressure, kPa = 101.325
Property: Molar heat capacity at constant pressure, J/K/mol (Crystal); method: Vacuum adiabatic calorimetry
Temperature, K	Molar heat capacity at constant pressure, J/K/mol	uncertainty
5.98	0.8644	0.023
6.21	0.975	0.0251
6.48	1.068	0.027
6.74	1.18	0.03
7.01	1.318	0.032
7.28	1.457	0.036
7.54	1.643	0.04
7.81	1.841	0.044
8.09	2.082	0.05
8.36	2.377	0.056
8.63	2.655	0.061
8.9	3.029	0.069
9.18	3.359	0.076
9.47	3.678	0.082
9.76	4.031	0.09
10.04	4.376	0.097
10.42	4.883	0.107
10.8	5.576	0.122
11	5.856	0.127
11.34	6.419	0.14
11.95	7.483	0.161
12.56	8.724	0.186
13.19	9.965	0.211
13.82	11.19	0.24
14.47	12.52	0.26
15.12	13.95	0.29
15.78	15.48	0.32
16.44	17.19	0.36
17.12	18.86	0.39
17.81	20.6	0.43
18.5	22.36	0.46
19.2	24.34	0.5
19.91	26.29	0.54
20.96	29.52	0.2
22.35	33.44	0.22
23.76	37.77	0.24
25.2	42.26	0.26
26.66	46.92	0.28
28.14	51.88	0.31
29.64	57.05	0.33
31.15	62.29	0.34
32.68	67.51	0.37
34.22	72.78	0.39
35.78	78	0.42
37.34	83.34	0.45
38.92	88.74	0.47
40.51	94	0.26
42.12	99.38	0.27
43.72	104.6	0.3
45.34	110	0.3
46.97	115.2	0.3
48.6	120.5	0.3
50.23	125.7	0.3
51.88	130.6	0.3
53.52	135.5	0.4
55.18	140.2	0.4
56.84	144.9	0.4
58.5	149.7	0.4
60.16	153.8	0.4
61.83	158.4	0.4
63.5	162.6	0.4
65.17	166.8	0.4
66.85	170.9	0.4
68.53	174.8	0.5
70.21	178.7	0.5
72.3	183.7	0.5
74.82	189.2	0.5
77.34	194.2	0.5
79.88	199.7	0.5
81.26	202.3	0.5
84.96	209.6	0.5
87.51	214	0.5
90.06	218.5	0.5
82.41	204.6	0.5
84.4	208.3	0.5
87.94	214.4	0.5
89.83	217.8	0.6
92.99	222.9	0.5
95.02	226.9	0.5
96.55	229.3	0.6
98.56	232.4	0.6
102.1	237.1	0.6
105.64	242.5	0.6
109.2	247	0.6
112.75	251.5	0.6
113.58	253	0.6
116.31	255.8	0.6
116.78	256.7	0.6
116.87	256.3	0.6
119.87	260.1	0.6
120.35	260.7	0.6
120.46	260.9	0.6
123.44	264.4	0.6
124.03	265.2	0.6
127.01	268.3	0.6
127.61	268.5	0.6
130.59	271.7	0.6
131.19	272.8	0.6
134.18	276.3	0.6
134.77	276.5	0.6
137.82	279.8	0.7
138.36	280.2	0.7
141.43	283.7	0.7
145.03	287	0.7
148.65	290.6	0.7
150.49	292.2	0.7
152.27	294	0.7
153.76	295.7	0.7
155.89	297.5	0.7
157.39	298.8	0.7
159.53	300.4	0.7
161.02	301.4	0.7
163.17	303.3	0.7
164.67	304.9	0.7
166.82	306.6	0.7
168.33	308.5	0.7
170.48	309.9	0.7
171.99	311.5	0.7
174.14	313.4	0.7
175.67	314.8	0.7
177.81	316.4	0.7
179.34	317	0.7
181.49	318.7	0.7
183.02	320.6	0.7
185.17	321.9	0.7
186.71	323.6	0.7
188.87	324.7	0.8
190.42	326.7	0.8
192.57	328.6	0.8
194.13	328.7	0.8
196.45	331	0.8
197.85	331.9	0.8
200.19	333.7	0.8
201.59	334.7	0.8
203.94	336.6	0.8
205.33	337.8	0.8
207.68	339.7	0.8
209.24	340.9	0.8
211.41	342.3	0.8
212.98	343.7	0.8
215.45	344.9	0.8
216.71	346.3	0.8
218.88	347.7	0.8
220.44	349.4	0.8
222.61	350.4	0.8
224.17	352.1	0.8
226.33	353.3	0.8
227.9	354.3	0.8
230.05	355.7	0.8
231.62	356.8	0.8
233.77	358.3	0.8
235.33	359.8	0.8
237.51	360.9	0.8
239.05	362	0.8
241.23	363.9	0.8
242.76	364.3	0.8
244.93	366.2	0.8
246.46	366.2	0.8
248.64	368.3	0.8
249.92	368.8	0.8
250.16	368.7	0.8
252.33	370.3	0.8
253.25	371.1	0.8
253.86	371.9	0.8
256.19	373.9	0.9
256.94	373.7	0.9
257.54	374.5	0.9
259.88	376.1	0.9
260.61	376.6	0.9
261.22	376.8	0.9
263.56	378.4	0.9
264.28	378.9	0.9
264.9	379.3	0.9
267.23	381	0.9
268.7	381.6	0.9
268.93	381.5	0.9
270.89	384	0.9
272.28	384.1	0.9
272.36	383.9	0.9
274.55	385.8	0.9
275.97	386.4	0.9
276.01	386.6	0.9
278.19	388.3	0.9
279.64	388.6	0.9
279.65	388.4	0.9
281.82	390.6	0.9
283.28	391.8	0.9
283.3	391.7	0.9
285.44	392.7	0.9
286.89	394.6	0.9
286.95	394.4	0.9
289.04	395.6	0.9
290.5	396	0.9
290.58	396.5	0.9
292.64	397.4	0.9
294.09	398.2	0.9
294.19	399.4	0.9
296.21	400.3	0.9
297.67	401	0.9
297.78	401.5	0.9
299.78	402.6	0.9
301.24	403.5	0.9
301.3	403.6	0.9
303.33	405.6	0.9
304.79	405.8	0.9
304.89	406.4	0.9
306.86	407.1	0.9
308.32	408.4	0.9
308.41	408.3	0.9
310.38	409.1	0.9
311.84	410.1	0.9
311.91	410.6	0.9
313.9	411.9	0.9
315.33	412.3	0.9
315.39	413.3	0.9
317.38	413.9	0.9
318.8	414.8	0.9
318.83	414.9	0.9
320.8	416.4	0.9
322.25	417.3	0.9
322.26	417.6	0.9
324.26	418.7	0.9
325.63	420.1	0.9
325.66	419.5	0.9
329.02	421.7	1
329.06	421.3	1
329.83	421.8	1
332.39	423.9	1
332.43	423.3	1
332.82	423.9	1
335.73	425.6	1
335.78	425.2	1
336.16	426.3	1

System: lead sodium chloride sulfate (Na3Pb2Cl(SO4)3); phases: Crystal
Fixed: Pressure, kPa = 101.325
Property: Mass density, kg/m3 (Crystal); method: X-ray diffraction
Temperature, K	Mass density, kg/m3	uncertainty
298	4544	6
323	4533	6
373	4514	6
423	4501	6
473	4482	6
523	4462	6
573	4442	6
623	4425	6
673	4405	6
723	4376	6
773	4357	6
823	4328	6
873	4299	6
