Measured thermophysical data. High-temperature heat capacities of EuPO4 and SmPO4 synthetic monazites
Source: Thermochim. Acta, 2006, 10.1016/j.tca.2006.03.023
Compound 1: europium phosphate, EuO4P, InChI=1S/Eu.H3O4P/c;1-5(2,3)4/h;(H3,1,2,3,4)/q+3;/p-3, purity 99%
Compound 2: samarium phosphate, O4PSm, InChI=1S/H3O4P.Sm/c1-5(2,3)4;/h(H3,1,2,3,4);/q;+3/p-3, purity 99%

System: europium phosphate; phases: Crystal
Property: Mass density, kg/m3 (Crystal); method: X-ray diffraction
Temperature, K	Pressure, kPa	Mass density, kg/m3	uncertainty
298	101.325	1476	2

System: europium phosphate; phases: Crystal
Fixed: Pressure, kPa = 101.325
Property: Molar enthalpy, kJ/mol (Crystal); method: Drop calorimetry
Lower temperature, K	Upper temperature, K	Molar enthalpy, kJ/mol	uncertainty
296.5	483.9	23.417	0.804
300.6	587	37.966	2.011
298.4	687.2	51.879	1.747
295.9	787.2	66.059	1.981
296.4	887.2	81.41	2.297
296.3	986.7	96.061	2.273
297.5	1085.9	110.579	3.6
299.9	1185.9	126.695	3.5
300.5	1285.8	142.912	4.388
300.3	1385.7	160.831	5.396
300.4	1486.3	173.332	4.557
300.7	1566.3	188.025	5.183

System: samarium phosphate; phases: Crystal
Property: Mass density, kg/m3 (Crystal); method: X-ray diffraction
Temperature, K	Pressure, kPa	Mass density, kg/m3	uncertainty
298	101.325	1428	2

System: samarium phosphate; phases: Crystal
Fixed: Pressure, kPa = 101.325
Property: Molar enthalpy, kJ/mol (Crystal); method: Drop calorimetry
Lower temperature, K	Upper temperature, K	Molar enthalpy, kJ/mol	uncertainty
297.2	484	21.346	0.966
297.8	586.4	36.396	1.334
298.5	688.2	50.515	2.028
298.6	787.4	65.52	1.718
299.7	887.2	81.265	2.683
299.2	986.8	95.73	3.439
300	1086.2	109.171	2.537
300.1	1186	124.573	3.244
300.1	1294.5	142.314	4.39
301.6	1385.4	160.389	3.727
301.4	1485.8	177.679	7.748
302.6	1557	188.152	5.346
301.3	1566.4	185.39	5.051
