Measured thermophysical data. Speeds of sound, isentropic compressibilities, viscosities, and excess molar volumes of binary mixtures of alkanoates with tetra- and trichloromethanes at 303.15 K
Source: Thermochim. Acta, 2005, 10.1016/j.tca.2004.07.014
Compound 1: diethyl 1,3-propanedioate, C7H12O4, InChI=1S/C7H12O4/c1-3-10-6(8)5-7(9)11-4-2/h3-5H2,1-2H3
Compound 2: diethyl bromomalonate, C7H11BrO4, InChI=1S/C7H11BrO4/c1-3-11-6(9)5(8)7(10)12-4-2/h5H,3-4H2,1-2H3
Compound 3: ethyl chloroethanoate, C4H7ClO2, InChI=1S/C4H7ClO2/c1-2-7-4(6)3-5/h2-3H2,1H3
Compound 4: trichloromethane, CHCl3, InChI=1S/CHCl3/c2-1(3)4/h1H
Compound 5: tetrachloromethane, CCl4, InChI=1S/CCl4/c2-1(3,4)5

System: diethyl 1,3-propanedioate; phases: Liquid
Property: Viscosity, Pa*s (Liquid); method: Capillary tube (Ostwald; Ubbelohde) method
Temperature, K	Pressure, kPa	Viscosity, Pa*s	uncertainty
303.15	101.3	0.001721	1.3e-05

System: diethyl 1,3-propanedioate; phases: Liquid
Property: Speed of sound, m/s (Liquid); method: Linear variable-path acoustic interferometer
Temperature, K	Pressure, kPa	Speed of sound, m/s	uncertainty
303.15	101.3	1274	3

System: diethyl 1,3-propanedioate; phases: Liquid
Property: Mass density, kg/m3 (Liquid); method: VIBTUB:UFactor:4
Temperature, K	Pressure, kPa	Mass density, kg/m3	uncertainty
303.15	101.3	1043.23	0.36

System: diethyl bromomalonate; phases: Liquid
Property: Viscosity, Pa*s (Liquid); method: Capillary tube (Ostwald; Ubbelohde) method
Temperature, K	Pressure, kPa	Viscosity, Pa*s	uncertainty
303.15	101.3	0.003614	4.6e-05

System: diethyl bromomalonate; phases: Liquid
Property: Speed of sound, m/s (Liquid); method: Linear variable-path acoustic interferometer
Temperature, K	Pressure, kPa	Speed of sound, m/s	uncertainty
303.15	101.3	1166	3

System: diethyl bromomalonate; phases: Liquid
Property: Mass density, kg/m3 (Liquid); method: VIBTUB::UFactor:4
Temperature, K	Pressure, kPa	Mass density, kg/m3	uncertainty
303.15	101.3	1399.18	1.73

System: ethyl chloroethanoate; phases: Liquid
Property: Viscosity, Pa*s (Liquid); method: CAPTUB::UFactor:2
Temperature, K	Pressure, kPa	Viscosity, Pa*s	uncertainty
303.15	101.3	0.001275	1.6e-05

System: ethyl chloroethanoate; phases: Liquid
Property: Speed of sound, m/s (Liquid); method: Linear variable-path acoustic interferometer
Temperature, K	Pressure, kPa	Speed of sound, m/s	uncertainty
303.15	101.3	1227	3

System: ethyl chloroethanoate; phases: Liquid
Property: Mass density, kg/m3 (Liquid); method: VIBTUB::UFactor:4
Temperature, K	Pressure, kPa	Mass density, kg/m3	uncertainty
303.15	101.3	1139.18	0.53

System: trichloromethane; phases: Liquid
Property: Viscosity, Pa*s (Liquid); method: Capillary tube (Ostwald; Ubbelohde) method
Temperature, K	Pressure, kPa	Viscosity, Pa*s	uncertainty
303.15	101.3	0.000512	5e-06

System: trichloromethane; phases: Liquid
Property: Speed of sound, m/s (Liquid); method: Linear variable-path acoustic interferometer
Temperature, K	Pressure, kPa	Speed of sound, m/s	uncertainty
303.15	101.3	967	2

System: trichloromethane; phases: Liquid
Property: Mass density, kg/m3 (Liquid); method: VIBTUB::UFactor:4
Temperature, K	Pressure, kPa	Mass density, kg/m3	uncertainty
303.15	101.3	1470.59	1.17

System: tetrachloromethane; phases: Liquid
Property: Viscosity, Pa*s (Liquid); method: CAPTUB::UFactor:2
Temperature, K	Pressure, kPa	Viscosity, Pa*s	uncertainty
303.15	101.3	0.000844	1.1e-05

System: tetrachloromethane; phases: Liquid
Property: Speed of sound, m/s (Liquid); method: Linear variable-path acoustic interferometer
Temperature, K	Pressure, kPa	Speed of sound, m/s	uncertainty
303.15	101.3	905	2

System: tetrachloromethane; phases: Liquid
Property: Mass density, kg/m3 (Liquid); method: VIBTUB::UFactor:4
Temperature, K	Pressure, kPa	Mass density, kg/m3	uncertainty
303.15	101.3	1574.82	1.38

System: tetrachloromethane + ethyl chloroethanoate; phases: Liquid
Fixed: Temperature, K = 303.15
Fixed: Pressure, kPa = 101.3
Property: Viscosity, Pa*s (Liquid); method: CAPTUB:UFactor:4
Mole fraction of ethyl chloroethanoate	Viscosity, Pa*s	uncertainty
0	0.000844	2.2e-05
0.095	0.000853	2.2e-05
0.1992	0.000862	2.2e-05
0.298	0.000862	2.2e-05
0.3972	0.00087	2.2e-05
0.5	0.000891	2.3e-05
0.5978	0.000928	2.3e-05
0.6984	0.000967	2.4e-05
0.8044	0.001021	2.5e-05
0.8978	0.001113	2.7e-05
1	0.001275	3.1e-05

System: tetrachloromethane + ethyl chloroethanoate; phases: Liquid
Fixed: Temperature, K = 303.15
Fixed: Pressure, kPa = 101.3
Property: Speed of sound, m/s (Liquid); method: Linear variable-path acoustic interferometer
Mole fraction of ethyl chloroethanoate	Speed of sound, m/s	uncertainty
0	905	2
0.095	933	2
0.1992	964	2
0.298	994	2
0.3972	1025	2
0.5	1058	2
0.5978	1089	2
0.6984	1123	2
0.8044	1158	2
0.8978	1191	2
1	1227	3

System: tetrachloromethane + ethyl chloroethanoate; phases: Liquid
Fixed: Temperature, K = 303.15
Fixed: Pressure, kPa = 101.3
Property: Mass density, kg/m3 (Liquid); method: VIBTUB:UFactor:4
Mole fraction of ethyl chloroethanoate	Mass density, kg/m3	uncertainty
0	1574.82	1.38
0.095	1530.01	1.29
0.1992	1481.59	1.2
0.298	1436.61	1.11
0.3972	1392.26	1.03
0.5	1347.02	0.95
0.5978	1304.82	0.86
0.6984	1262.23	0.77
0.8044	1218.14	0.68
0.8978	1180.11	0.61
1	1139.18	0.53

System: tetrachloromethane + diethyl 1,3-propanedioate; phases: Liquid
Fixed: Temperature, K = 303.15
Fixed: Pressure, kPa = 101.3
Property: Viscosity, Pa*s (Liquid); method: CAPTUB:UFactor:2
Mole fraction of diethyl 1,3-propanedioate	Viscosity, Pa*s	uncertainty
0.1173	0.000857	1.1e-05
0.2031	0.000877	1.1e-05
0.2999	0.000918	1.2e-05
0.4623	0.001002	1.3e-05
0.5648	0.001084	1.4e-05
0.6579	0.001167	1.5e-05
0.7478	0.001272	1.6e-05
0.8311	0.001388	1.7e-05
0.9189	0.001544	1.9e-05
1	0.001721	2.1e-05

System: tetrachloromethane + diethyl 1,3-propanedioate; phases: Liquid
Fixed: Temperature, K = 303.15
Fixed: Pressure, kPa = 101.3
Property: Speed of sound, m/s (Liquid); method: Linear variable-path acoustic interferometer
Mole fraction of diethyl 1,3-propanedioate	Speed of sound, m/s	uncertainty
0.1173	949	2
0.2031	982	2
0.2999	1018	2
0.4623	1080	2
0.5648	1120	2
0.6579	1154	2
0.7478	1185	2
0.8311	1216	3
0.9189	1247	3
1	1274	3

System: tetrachloromethane + diethyl 1,3-propanedioate; phases: Liquid
Fixed: Temperature, K = 303.15
Fixed: Pressure, kPa = 101.3
Property: Mass density, kg/m3 (Liquid); method: VIBTUB:UFactor:4
Mole fraction of diethyl 1,3-propanedioate	Mass density, kg/m3	uncertainty
0.1173	1480.36	1.2
0.2031	1419.02	1.08
0.2999	1356.61	0.96
0.4623	1265.6	0.81
0.5648	1215.59	0.7
0.6579	1174.08	0.61
0.7478	1136.91	0.53
0.8311	1104.69	0.47
0.9189	1072.19	0.41
1	1043.23	0.36

System: tetrachloromethane + diethyl bromomalonate; phases: Liquid
Fixed: Temperature, K = 303.15
Fixed: Pressure, kPa = 101.3
Property: Viscosity, Pa*s (Liquid); method: CAPTUB:UFactor:2
Mole fraction of diethyl bromomalonate	Viscosity, Pa*s	uncertainty
0.1001	0.001012	1.3e-05
0.1992	0.001207	1.6e-05
0.3007	0.001433	1.9e-05
0.4088	0.001705	2.3e-05
0.4988	0.001948	2.7e-05
0.5999	0.002255	3.2e-05
0.699	0.002571	3.7e-05
0.8988	0.00325	5e-05
1	0.003614	5.7e-05

System: tetrachloromethane + diethyl bromomalonate; phases: Liquid
Fixed: Temperature, K = 303.15
Fixed: Pressure, kPa = 101.3
Property: Speed of sound, m/s (Liquid); method: Linear variable-path acoustic interferometer
Mole fraction of diethyl bromomalonate	Speed of sound, m/s	uncertainty
0.1001	944	2
0.1992	980	3
0.3007	1012	3
0.4088	1047	3
0.4988	1072	3
0.5999	1098	3
0.699	1121	3
0.8988	1155	3
1	1166	3

System: tetrachloromethane + diethyl bromomalonate; phases: Liquid
Fixed: Temperature, K = 303.15
Fixed: Pressure, kPa = 101.3
Property: Mass density, kg/m3 (Liquid); method: VIBTUB:UFactor:4
Mole fraction of diethyl bromomalonate	Mass density, kg/m3	uncertainty
0.1001	1552.35	1.38
0.1992	1531.61	1.38
0.3007	1512.21	1.4
0.4088	1492.99	1.43
0.4988	1478.09	1.47
0.5999	1462.1	1.51
0.699	1446.77	1.56
0.8988	1415.72	1.67
1	1399.18	1.73

System: trichloromethane + ethyl chloroethanoate; phases: Liquid
Fixed: Temperature, K = 303.15
Fixed: Pressure, kPa = 101.3
Property: Viscosity, Pa*s (Liquid); method: CAPTUB:UFactor:2
Mole fraction of ethyl chloroethanoate	Viscosity, Pa*s	uncertainty
0	0.000512	8e-06
0.0989	0.000617	9e-06
0.1945	0.000687	9e-06
0.2954	0.000759	1e-05
0.3905	0.000806	1.1e-05
0.5048	0.000852	1.1e-05
0.6012	0.0009	1.2e-05
0.6875	0.000943	1.2e-05
0.7658	0.000989	1.3e-05
0.8992	0.001114	1.4e-05

System: trichloromethane + ethyl chloroethanoate; phases: Liquid
Fixed: Temperature, K = 303.15
Fixed: Pressure, kPa = 101.3
Property: Speed of sound, m/s (Liquid); method: Linear variable-path acoustic interferometer
Mole fraction of ethyl chloroethanoate	Speed of sound, m/s	uncertainty
0	967	2
0.0989	990	2
0.1945	1014	2
0.2954	1038	2
0.3905	1062	2
0.5048	1091	2
0.6012	1115	2
0.6875	1137	2
0.7658	1159	2
0.8992	1198	2

System: trichloromethane + ethyl chloroethanoate; phases: Liquid
Fixed: Temperature, K = 303.15
Fixed: Pressure, kPa = 101.3
Property: Mass density, kg/m3 (Liquid); method: VIBTUB:UFactor:4
Mole fraction of ethyl chloroethanoate	Mass density, kg/m3	uncertainty
0	1470.59	1.17
0.0989	1429.89	1.09
0.1945	1392.15	1.02
0.2954	1354.22	0.95
0.3905	1320.14	0.89
0.5048	1281.24	0.82
0.6012	1250.32	0.75
0.6875	1223.93	0.69
0.7658	1201.01	0.65
0.8992	1164.5	0.58

System: trichloromethane + diethyl 1,3-propanedioate; phases: Liquid
Fixed: Temperature, K = 303.15
Fixed: Pressure, kPa = 101.3
Property: Viscosity, Pa*s (Liquid); method: CAPTUB:UFactor:2
Mole fraction of diethyl 1,3-propanedioate	Viscosity, Pa*s	uncertainty
0.0968	0.000533	8e-06
0.2004	0.000568	8e-06
0.3089	0.000622	9e-06
0.4122	0.000692	9e-06
0.5385	0.000808	1.1e-05
0.6125	0.000891	1.2e-05
0.7225	0.00105	1.3e-05
0.8156	0.001226	1.6e-05
0.9071	0.001444	1.8e-05

System: trichloromethane + diethyl 1,3-propanedioate; phases: Liquid
Fixed: Temperature, K = 303.15
Fixed: Pressure, kPa = 101.3
Property: Speed of sound, m/s (Liquid); method: Linear variable-path acoustic interferometer
Mole fraction of diethyl 1,3-propanedioate	Speed of sound, m/s	uncertainty
0.0968	999	2
0.2004	1031	2
0.3089	1065	2
0.4122	1097	2
0.5385	1136	2
0.6125	1159	2
0.7225	1192	2
0.8156	1220	3
0.9071	1246	3

System: trichloromethane + diethyl 1,3-propanedioate; phases: Liquid
Fixed: Temperature, K = 303.15
Fixed: Pressure, kPa = 101.3
Property: Mass density, kg/m3 (Liquid); method: VIBTUB:UFactor:4
Mole fraction of diethyl 1,3-propanedioate	Mass density, kg/m3	uncertainty
0.0968	1399.36	1.03
0.2004	1334.53	0.91
0.3089	1276.4	0.8
0.4122	1228.62	0.72
0.5385	1178.25	0.63
0.6125	1151.99	0.57
0.7225	1116.7	0.5
0.8156	1089.85	0.44
0.9071	1065.78	0.4

System: trichloromethane + diethyl bromomalonate; phases: Liquid
Fixed: Temperature, K = 303.15
Fixed: Pressure, kPa = 101.3
Property: Viscosity, Pa*s (Liquid); method: CAPTUB:UFactor:2
Mole fraction of diethyl bromomalonate	Viscosity, Pa*s	uncertainty
0.098	0.000709	1e-05
0.1971	0.000941	1.3e-05
0.296	0.0012	1.6e-05
0.4033	0.001507	2e-05
0.5045	0.00184	2.5e-05
0.5919	0.002141	3e-05
0.6911	0.002501	3.6e-05
0.7991	0.002899	4.3e-05
0.8997	0.003253	5e-05

System: trichloromethane + diethyl bromomalonate; phases: Liquid
Fixed: Temperature, K = 303.15
Fixed: Pressure, kPa = 101.3
Property: Speed of sound, m/s (Liquid); method: Linear variable-path acoustic interferometer
Mole fraction of diethyl bromomalonate	Speed of sound, m/s	uncertainty
0.098	989	2
0.1971	1010	3
0.296	1032	3
0.4033	1054	3
0.5045	1075	3
0.5919	1092	3
0.6911	1112	3
0.7991	1131	3
0.8997	1149	3

System: trichloromethane + diethyl bromomalonate; phases: Liquid
Fixed: Temperature, K = 303.15
Fixed: Pressure, kPa = 101.3
Property: Mass density, kg/m3 (Liquid); method: VIBTUB:UFactor:4
Mole fraction of diethyl bromomalonate	Mass density, kg/m3	uncertainty
0.098	1460.41	1.19
0.1971	1450.47	1.22
0.296	1441.28	1.26
0.4033	1432.36	1.31
0.5045	1424.91	1.37
0.5919	1419.12	1.42
0.6911	1413.32	1.49
0.7991	1407.82	1.57
0.8997	1403.21	1.64
