Measured thermophysical data. Concentration dependent melting enthalpy, crystallization velocity, and thermal cycling stability of pinacone hexahydrate
Source: Thermochim. Acta, 2018, 10.1016/j.tca.2018.10.025
Compound 1: 2,3-dimethyl-2,3-butanediol, C6H14O2, InChI=1S/C6H14O2/c1-5(2,7)6(3,4)8/h7-8H,1-4H3, purity 99%
Compound 2: water, H2O, InChI=1S/H2O/h1H2, purity 99.9%
Compound 3: pinacone hexahydrate, C6H26O8, InChI=1S/C6H14O2.6H2O/c1-5(2,7)6(3,4)8;;;;;;/h7-8H,1-4H3;6*1H2

System: pinacone hexahydrate; phases: Crystal, Liquid, Air at 1 atmosphere
Property: Normal melting temperature, K (Crystal); method: DTA
Normal melting temperature, K	uncertainty
318.65	0.4

System: pinacone hexahydrate; phases: Crystal, Liquid, Air at 1 atmosphere
Property: Molar enthalpy of transition or fusion, kJ/mol (Crystal); method: DSC
Molar enthalpy of transition or fusion, kJ/mol	uncertainty
71.50000544	3.84651928

System: 2,3-dimethyl-2,3-butanediol + water; phases: Liquid, Crystal of intercomponent compound 2
Fixed: Pressure, kPa = 96
Property: Solid-liquid equilibrium temperature, K (Liquid); method: DTA
Mass fraction of water	Solid-liquid equilibrium temperature, K	uncertainty
0.443	318.35	0.5
0.466	318.65	0.4
0.476	318.65	0.4
0.494	318.65	0.4
