Measured thermophysical data. HP-DSC study of energetic materials. Part I. Overview of pressure influence on thermal behavior
Source: Thermochim. Acta, 2016, 10.1016/j.tca.2016.03.018
Compound 1: 1,3,5-triaza-1,3,5-trinitrocyclohexane, C3H6N6O6, InChI=1S/C3H6N6O6/c10-7(11)4-1-5(8(12)13)3-6(2-4)9(14)15/h1-3H2
Compound 2: ammonium dinitramide, H4N4O4, InChI=1S/N3O4.H3N/c4-2(5)1-3(6)7;/h;1H3/q-1;/p+1
Compound 3: 2,4,6-trinitrotoluene, C7H5N3O6, InChI=1S/C7H5N3O6/c1-4-6(9(13)14)2-5(8(11)12)3-7(4)10(15)16/h2-3H,1H3

System: 1,3,5-triaza-1,3,5-trinitrocyclohexane; phases: Crystal, Liquid, Air at 1 atmosphere
Property: Normal melting temperature, K (Crystal); method: DTA
Normal melting temperature, K	uncertainty
477.35	0.7

System: 1,3,5-triaza-1,3,5-trinitrocyclohexane; phases: Crystal, Liquid, Air at 1 atmosphere
Property: Molar enthalpy of transition or fusion, kJ/mol (Crystal); method: DSC
Molar enthalpy of transition or fusion, kJ/mol	uncertainty
27.54245592	6.21926424

System: 1,3,5-triaza-1,3,5-trinitrocyclohexane; phases: Crystal, Liquid
Property: Vapor or sublimation pressure, kPa (Crystal); method: DSC
Temperature, K	Vapor or sublimation pressure, kPa	uncertainty
477.45	1000	1000
477.55	2000	1000
478.05	5000	1000
478.75	10000	1000
479.35	14000	1000

System: ammonium dinitramide; phases: Crystal, Liquid, Air at 1 atmosphere
Property: Normal melting temperature, K (Crystal); method: DTA
Normal melting temperature, K	uncertainty
366.45	0.7

System: ammonium dinitramide; phases: Crystal, Liquid, Air at 1 atmosphere
Property: Molar enthalpy of transition or fusion, kJ/mol (Crystal); method: DSC
Molar enthalpy of transition or fusion, kJ/mol	uncertainty
17.86411008	2.72923904

System: ammonium dinitramide; phases: Crystal, Liquid
Property: Vapor or sublimation pressure, kPa (Crystal); method: DSC
Temperature, K	Vapor or sublimation pressure, kPa	uncertainty
366.45	1000	1000
366.55	2000	1000
366.65	2500	1000
366.75	3500	1000
366.95	5000	1000
367.25	7500	1000
367.55	10000	1000
368.05	14000	1000

System: 2,4,6-trinitrotoluene; phases: Crystal, Liquid, Air at 1 atmosphere
Property: Normal melting temperature, K (Crystal); method: DTA
Normal melting temperature, K	uncertainty
353.55	0.7

System: 2,4,6-trinitrotoluene; phases: Crystal, Liquid, Air at 1 atmosphere
Property: Molar enthalpy of transition or fusion, kJ/mol (Crystal); method: DSC
Molar enthalpy of transition or fusion, kJ/mol	uncertainty
22.48599078	3.17983708

System: 2,4,6-trinitrotoluene; phases: Crystal, Liquid
Property: Vapor or sublimation pressure, kPa (Crystal); method: DSC
Temperature, K	Vapor or sublimation pressure, kPa	uncertainty
353.55	1000	1000
353.75	2000	1000
354.15	5000	1000
354.85	10000	1000
355.45	14000	1000
