Measured thermophysical data. Thermodynamic mixing effects of liquid ternary Au-Fe-Pd alloys by computer-aided Knudsen cell  mass spectrometry
Source: Thermochim. Acta, 2012, 10.1016/j.tca.2012.02.012
Compound 1: gold, Au, InChI=1S/Au, purity 99.9998%
Compound 2: iron, Fe, InChI=1S/Fe, purity 99.98%
Compound 3: palladium, Pd, InChI=1S/Pd, purity 99.998%

System: iron + gold; phases: Liquid
Property: (Relative) activity of iron (Liquid); method: OTHER::sMethod:Knudsen
Mole fraction of iron	Temperature, K	Pressure, kPa	(Relative) activity of iron	uncertainty
0.5	1850	101	0.61	0.01

System: iron + gold; phases: Liquid
Property: (Relative) activity of gold (Liquid); method: OTHER::sMethod:Knudsen
Mole fraction of iron	Temperature, K	Pressure, kPa	(Relative) activity of gold	uncertainty
0.5	1850	101	0.37	0.01

System: iron + gold; phases: Liquid
Property: Excess molar Gibbs energy, kJ/mol (Liquid); method: OTHER::sMethod:Knudsen
Mole fraction of iron	Temperature, K	Pressure, kPa	Excess molar Gibbs energy, kJ/mol	uncertainty
0.5	1850	101	-0.761	0.001

System: iron + gold; phases: Liquid
Property: Excess molar enthalpy (molar enthalpy of mixing), kJ/mol (Liquid); method: OTHER::sMethod:Knudsen
Mole fraction of iron	Temperature, K	Pressure, kPa	Excess molar enthalpy (molar enthalpy of mixing), kJ/mol	uncertainty
0.5	1850	101	7.35	0.075

System: iron + palladium; phases: Liquid
Property: (Relative) activity of iron (Liquid); method: OTHER::sMethod:Knudsen
Mole fraction of iron	Temperature, K	Pressure, kPa	(Relative) activity of iron	uncertainty
0.5	1850	101	0.33	0.01

System: iron + palladium; phases: Liquid
Property: (Relative) activity of palladium (Liquid); method: OTHER::sMethod:Knudsen
Mole fraction of iron	Temperature, K	Pressure, kPa	(Relative) activity of palladium	uncertainty
0.5	1850	101	0.29	0.01

System: iron + palladium; phases: Liquid
Property: Excess molar Gibbs energy, kJ/mol (Liquid); method: OTHER::sMethod:Knudsen
Mole fraction of iron	Temperature, K	Pressure, kPa	Excess molar Gibbs energy, kJ/mol	uncertainty
0.5	1850	101	-7.21	0.001

System: iron + palladium; phases: Liquid
Property: Excess molar enthalpy (molar enthalpy of mixing), kJ/mol (Liquid); method: OTHER::sMethod:Knudsen
Mole fraction of iron	Temperature, K	Pressure, kPa	Excess molar enthalpy (molar enthalpy of mixing), kJ/mol	uncertainty
0.5	1850	101	-25.1	0.252

System: iron + palladium + gold; phases: Liquid
Fixed: Temperature, K = 1850
Fixed: Pressure, kPa = 101
Property: (Relative) activity of iron (Liquid); method: Knudsen
Mole fraction of iron	Mole fraction of palladium	(Relative) activity of iron	uncertainty
0.05	0.05	0.02	0.01
0.05	0.9	0.01	0.01
0.1	0.1	0.05	0.01
0.1	0.8	0.02	0.01
0.15	0.15	0.09	0.01
0.15	0.7	0.04	0.01
0.2	0.2	0.13	0.01
0.2	0.6	0.08	0.01
0.25	0.25	0.18	0.01
0.25	0.5	0.13	0.01
0.3	0.3	0.22	0.01
0.3	0.4	0.19	0.01
0.35	0.3	0.27	0.01
0.35	0.35	0.26	0.01
0.4	0.2	0.38	0.01
0.4	0.4	0.28	0.01
0.45	0.1	0.49	0.01
0.45	0.45	0.31	0.01
0.5	0	0.61	0.01
0.5	0.5	0.33	0.01

System: iron + palladium + gold; phases: Liquid
Fixed: Temperature, K = 1850
Fixed: Pressure, kPa = 101
Property: (Relative) activity of palladium (Liquid); method: Knudsen
Mole fraction of iron	Mole fraction of palladium	(Relative) activity of palladium	uncertainty
0.05	0.05	0.03	0.01
0.05	0.9	0.89	0.01
0.1	0.1	0.07	0.01
0.1	0.8	0.78	0.01
0.15	0.15	0.1	0.01
0.15	0.7	0.65	0.01
0.2	0.2	0.14	0.01
0.2	0.6	0.52	0.01
0.25	0.25	0.17	0.01
0.25	0.5	0.39	0.01
0.3	0.3	0.19	0.01
0.3	0.4	0.28	0.01
0.35	0.3	0.18	0.01
0.35	0.35	0.22	0.01
0.4	0.2	0.1	0.01
0.4	0.4	0.24	0.01
0.45	0.1	0.04	0.01
0.45	0.45	0.26	0.01
0.5	0.5	0.29	0.01

System: iron + palladium + gold; phases: Liquid
Fixed: Temperature, K = 1850
Fixed: Pressure, kPa = 101
Property: (Relative) activity of gold (Liquid); method: Knudsen
Mole fraction of iron	Mole fraction of palladium	(Relative) activity of gold	uncertainty
0.05	0.05	0.89	0.01
0.05	0.9	0.06	0.01
0.1	0.1	0.77	0.01
0.1	0.8	0.1	0.01
0.15	0.15	0.66	0.01
0.15	0.7	0.15	0.01
0.2	0.2	0.55	0.01
0.2	0.6	0.2	0.01
0.25	0.25	0.45	0.01
0.25	0.5	0.24	0.01
0.3	0.3	0.36	0.01
0.3	0.4	0.28	0.01
0.35	0.3	0.32	0.01
0.35	0.35	0.28	0.01
0.4	0.2	0.35	0.01
0.4	0.4	0.21	0.01
0.45	0.1	0.36	0.01
0.45	0.45	0.12	0.01
0.5	0	0.37	0.01

System: iron + palladium + gold; phases: Liquid
Fixed: Temperature, K = 1850
Fixed: Pressure, kPa = 101
Property: Excess molar Gibbs energy, kJ/mol (Liquid); method: Knudsen
Mole fraction of iron	Mole fraction of palladium	Excess molar Gibbs energy, kJ/mol	uncertainty
0.05	0.05	-1.17	0.001
0.05	0.9	-1.42	0.001
0.1	0.1	-2.07	0.001
0.1	0.8	-2.62	0.001
0.15	0.15	-2.76	0.001
0.15	0.7	-3.57	0.001
0.2	0.2	-3.28	0.001
0.2	0.6	-4.23	0.001
0.25	0.25	-3.71	0.001
0.25	0.5	-4.59	0.001
0.3	0.3	-4.11	0.001
0.3	0.4	-4.6	0.001
0.35	0.3	-4.25	0.001
0.35	0.35	-4.57	0.001
0.4	0.2	-3.5	0.001
0.4	0.4	-5.17	0.001
0.45	0.1	-2.35	0.001
0.45	0.45	-6.02	0.001
0.5	0	-0.761	0.001
0.5	0.5	-7.21	0.001

System: iron + palladium + gold; phases: Liquid
Fixed: Temperature, K = 1850
Fixed: Pressure, kPa = 101
Property: Excess molar enthalpy (molar enthalpy of mixing), kJ/mol (Liquid); method: Knudsen
Mole fraction of iron	Mole fraction of palladium	Excess molar enthalpy (molar enthalpy of mixing), kJ/mol	uncertainty
0.05	0.05	-1.21	0.013
0.05	0.9	-5.59	0.057
0.1	0.1	-1.87	0.02
0.1	0.8	-9.24	0.093
0.15	0.15	-2.26	0.024
0.15	0.7	11.1	0.112
0.2	0.2	-2.67	0.028
0.2	0.6	11.5	0.116
0.25	0.25	-3.41	0.035
0.25	0.5	10.5	0.106
0.3	0.3	-4.85	0.05
0.3	0.4	-8.32	0.084
0.35	0.3	-5.25	0.054
0.35	0.35	-7.33	0.074
0.4	0.2	-1.47	0.016
0.4	0.4	-11.3	0.114
0.45	0.1	2.81	0.029
0.45	0.45	-17	0.171
0.5	0	7.35	0.075
0.5	0.5	-25.1	0.252
