Measured thermophysical data. Interactions in l-alanine /l-proline /l-valine /l-leucine aqueous KCl/KNO3 systems at different temperatures: An isentropic compressibility study
Source: Thermochim. Acta, 2009, 10.1016/j.tca.2008.10.023
Compound 1: (S)-2-aminopropanoic acid, C3H7NO2, InChI=1S/C3H7NO2/c1-2(4)3(5)6/h2H,4H2,1H3,(H,5,6)/t2-/m0/s1
Compound 2: L-proline, C5H9NO2, InChI=1S/C5H9NO2/c7-5(8)4-2-1-3-6-4/h4,6H,1-3H2,(H,7,8)/t4-/m0/s1
Compound 3: L-valine, C5H11NO2, InChI=1S/C5H11NO2/c1-3(2)4(6)5(7)8/h3-4H,6H2,1-2H3,(H,7,8)/t4-/m0/s1
Compound 4: L-leucine, C6H13NO2, InChI=1S/C6H13NO2/c1-4(2)3-5(7)6(8)9/h4-5H,3,7H2,1-2H3,(H,8,9)/t5-/m0/s1
Compound 5: potassium chloride, ClK, InChI=1S/ClH.K/h1H;/q;+1/p-1
Compound 6: potassium nitrate, KNO3, InChI=1S/K.NO3/c;2-1(3)4/q+1;-1
Compound 7: water, H2O, InChI=1S/H2O/h1H2

System: (S)-2-aminopropanoic acid + potassium chloride + water; phases: Liquid
Fixed: Pressure, kPa = 101
Fixed: Solvent: Amount concentration (molarity), mol/dm3 of potassium chloride = 2
Property: Speed of sound, m/s (Liquid); method: Linear variable-path acoustic interferometer
Temperature, K	Molality, mol/kg of (S)-2-aminopropanoic acid	Speed of sound, m/s	uncertainty
298.15	0	1595.2	1.8
298.15	0.1857	1609.8	1.8
298.15	0.3762	1620.4	1.8
298.15	0.5714	1630.2	1.8
298.15	0.7706	1640	1.8
298.15	0.9751	1649.8	1.8
298.15	1.1864	1660.2	1.8
298.15	1.4044	1670.4	1.8
303.15	0	1605.9	1.8
303.15	0.1857	1615.1	1.8
303.15	0.3762	1625.4	1.8
303.15	0.5714	1635.4	1.8
303.15	0.7706	1644.4	1.8
303.15	0.9751	1654.4	1.8
303.15	1.1864	1664.2	1.8
303.15	1.4044	1674.6	1.8
308.15	0	1610.2	1.8
308.15	0.1857	1622.7	1.8
308.15	0.3762	1632	1.8
308.15	0.5714	1640.7	1.8
308.15	0.7706	1650.2	1.8
308.15	0.9751	1660.6	1.8
308.15	1.1864	1670.2	1.8
308.15	1.4044	1680.4	1.8
313.15	0	1616.4	1.8
313.15	0.1857	1628.1	1.8
313.15	0.3762	1637	1.8
313.15	0.5714	1645.9	1.8
313.15	0.7706	1656.2	1.8
313.15	0.9751	1665.9	1.8
313.15	1.1864	1675.8	1.8
313.15	1.4044	1685.2	1.8
318.15	0	1621.4	1.8
318.15	0.1857	1634.2	1.8
318.15	0.3762	1642.4	1.8
318.15	0.5714	1650.4	1.8
318.15	0.7706	1660.7	1.8
318.15	0.9751	1670.1	1.8
318.15	1.1864	1680.2	1.8
318.15	1.4044	1690.4	1.8
323.15	0	1626.5	1.8
323.15	0.1857	1638.9	1.8
323.15	0.3762	1648	1.8
323.15	0.5714	1656.7	1.8
323.15	0.7706	1665	1.8
323.15	0.9751	1674.8	1.8
323.15	1.1864	1685.4	1.8
323.15	1.4044	1695.2	1.8

System: (S)-2-aminopropanoic acid + potassium chloride + water; phases: Liquid
Fixed: Pressure, kPa = 101
Fixed: Solvent: Amount concentration (molarity), mol/dm3 of potassium chloride = 2
Property: Mass density, kg/m3 (Liquid); method: Pycnometric method
Temperature, K	Molality, mol/kg of (S)-2-aminopropanoic acid	Mass density, kg/m3	uncertainty
298.15	0	1089.1	0.4
298.15	0.1857	1094.5	0.4
298.15	0.3762	1098.8	0.4
298.15	0.5714	1103.5	0.4
298.15	0.7706	1109.4	0.4
298.15	0.9751	1114.6	0.4
298.15	1.1864	1121.2	0.4
298.15	1.4044	1121.6	0.4
303.15	0	1087.5	0.4
303.15	0.1857	1093.4	0.4
303.15	0.3762	1097	0.4
303.15	0.5714	1101.5	0.4
303.15	0.7706	1107.5	0.4
303.15	0.9751	1113.2	0.4
303.15	1.1864	1119.1	0.4
303.15	1.4044	1119.7	0.4
308.15	0	1085.6	0.4
308.15	0.1857	1091.7	0.4
308.15	0.3762	1095	0.4
308.15	0.5714	1099.3	0.4
308.15	0.7706	1105.4	0.4
308.15	0.9751	1111.3	0.4
308.15	1.1864	1116.9	0.4
308.15	1.4044	1117.6	0.4
313.15	0	1083.4	0.4
313.15	0.1857	1089.6	0.4
313.15	0.3762	1092.8	0.4
313.15	0.5714	1097.1	0.4
313.15	0.7706	1103.2	0.4
313.15	0.9751	1109.2	0.4
313.15	1.1864	1114.4	0.4
313.15	1.4044	1115.5	0.4
318.15	0	1080.9	0.4
318.15	0.1857	1087.1	0.4
318.15	0.3762	1090.4	0.4
318.15	0.5714	1094.7	0.4
318.15	0.7706	1100.8	0.5
318.15	0.9751	1106.8	0.5
318.15	1.1864	1111.8	0.5
318.15	1.4044	1113.2	0.5
323.15	0	1078.3	0.5
323.15	0.1857	1084.4	0.5
323.15	0.3762	1087.9	0.5
323.15	0.5714	1092.2	0.5
323.15	0.7706	1098.2	0.5
323.15	0.9751	1104	0.5
323.15	1.1864	1109	0.5
323.15	1.4044	1110.8	0.5

System: (S)-2-aminopropanoic acid + water + potassium nitrate; phases: Liquid
Fixed: Pressure, kPa = 101
Fixed: Solvent: Amount concentration (molarity), mol/dm3 of potassium nitrate = 2
Property: Speed of sound, m/s (Liquid); method: Linear variable-path acoustic interferometer
Temperature, K	Molality, mol/kg of (S)-2-aminopropanoic acid	Speed of sound, m/s	uncertainty
298.15	0	1562	1.7
298.15	0.1802	1571.3	1.8
298.15	0.3649	1582.4	1.8
298.15	0.5543	1596.3	1.8
298.15	0.7494	1607.6	1.8
298.15	0.9499	1616	1.8
298.15	1.1542	1625	1.8
298.15	1.365	1634	1.8
303.15	0	1569.4	1.8
303.15	0.1802	1577.3	1.8
303.15	0.3649	1587.5	1.8
303.15	0.5543	1602	1.8
303.15	0.7494	1612.8	1.8
303.15	0.9499	1621	1.8
303.15	1.1542	1630	1.8
303.15	1.365	1639.5	1.8
308.15	0	1575.8	1.8
308.15	0.1802	1584.6	1.8
308.15	0.3649	1594	1.8
308.15	0.5543	1606.2	1.8
308.15	0.7494	1616.9	1.8
308.15	0.9499	1626	1.8
308.15	1.1542	1635.2	1.8
308.15	1.365	1645	1.8
313.15	0	1580	1.8
313.15	0.1802	1589.2	1.8
313.15	0.3649	1601.2	1.8
313.15	0.5543	1613.6	1.8
313.15	0.7494	1622.6	1.8
313.15	0.9499	1631.7	1.8
313.15	1.1542	1640.4	1.8
313.15	1.365	1650.3	1.8
318.15	0	1584.6	1.8
318.15	0.1802	1594.1	1.8
318.15	0.3649	1605.2	1.8
318.15	0.5543	1617.8	1.8
318.15	0.7494	1627	1.8
318.15	0.9499	1636	1.8
318.15	1.1542	1645.2	1.8
318.15	1.365	1655.4	1.8
323.15	0	1588.9	1.8
323.15	0.1802	1598.3	1.8
323.15	0.3649	1610.2	1.8
323.15	0.5543	1622	1.8
323.15	0.7494	1631.2	1.8
323.15	0.9499	1641.7	1.8
323.15	1.1542	1650.4	1.8
323.15	1.365	1660.5	1.8

System: (S)-2-aminopropanoic acid + water + potassium nitrate; phases: Liquid
Fixed: Pressure, kPa = 101
Fixed: Solvent: Amount concentration (molarity), mol/dm3 of potassium nitrate = 2
Property: Mass density, kg/m3 (Liquid); method: Pycnometric method
Temperature, K	Molality, mol/kg of (S)-2-aminopropanoic acid	Mass density, kg/m3	uncertainty
298.15	0	1122.9	0.4
298.15	0.1802	1127.8	0.4
298.15	0.3649	1131.8	0.4
298.15	0.5543	1135.9	0.4
298.15	0.7494	1138.8	0.4
298.15	0.9499	1141.8	0.4
298.15	1.1542	1146.6	0.4
298.15	1.365	1150.6	0.4
303.15	0	1120.6	0.4
303.15	0.1802	1125.5	0.4
303.15	0.3649	1129.5	0.4
303.15	0.5543	1133	0.4
303.15	0.7494	1136.7	0.4
303.15	0.9499	1139.3	0.4
303.15	1.1542	1144	0.4
303.15	1.365	1147.6	0.4
308.15	0	1118	0.4
308.15	0.1802	1122.9	0.4
308.15	0.3649	1126.9	0.4
308.15	0.5543	1129.9	0.4
308.15	0.7494	1134.2	0.4
308.15	0.9499	1136.6	0.4
308.15	1.1542	1141.2	0.5
308.15	1.365	1144.5	0.5
313.15	0	1115	0.4
313.15	0.1802	1120	0.5
313.15	0.3649	1123.9	0.5
313.15	0.5543	1126.7	0.5
313.15	0.7494	1131.4	0.5
313.15	0.9499	1133.8	0.5
313.15	1.1542	1138.2	0.5
313.15	1.365	1141.3	0.5
318.15	0	1111.8	0.5
318.15	0.1802	1116.8	0.5
318.15	0.3649	1120.6	0.5
318.15	0.5543	1123.3	0.5
318.15	0.7494	1128.2	0.5
318.15	0.9499	1130.7	0.5
318.15	1.1542	1134.9	0.5
318.15	1.365	1138.1	0.5
323.15	0	1108.2	0.5
323.15	0.1802	1113.2	0.5
323.15	0.3649	1116.9	0.5
323.15	0.5543	1119.8	0.5
323.15	0.7494	1124	0.5
323.15	0.9499	1127.5	0.5
323.15	1.1542	1131.5	0.5
323.15	1.365	1134.7	0.5

System: L-proline + potassium chloride + water; phases: Liquid
Fixed: Pressure, kPa = 101
Fixed: Solvent: Amount concentration (molarity), mol/dm3 of potassium chloride = 2
Property: Speed of sound, m/s (Liquid); method: Linear variable-path acoustic interferometer
Temperature, K	Molality, mol/kg of L-proline	Speed of sound, m/s	uncertainty
298.15	0	1595.2	1.8
298.15	0.1871	1608	1.8
298.15	0.3813	1620.6	1.8
298.15	0.5829	1631.8	1.8
298.15	0.7925	1643.7	1.8
298.15	1.0104	1654	1.8
298.15	1.2376	1665	1.8
298.15	1.4741	1676	1.8
303.15	0	1605.9	1.8
303.15	0.1871	1612.9	1.8
303.15	0.3813	1625.9	1.8
303.15	0.5829	1637	1.8
303.15	0.7925	1649	1.8
303.15	1.0104	1658.4	1.8
303.15	1.2376	1671	1.8
303.15	1.4741	1681	1.8
308.15	0	1610.2	1.8
308.15	0.1871	1618.9	1.8
308.15	0.3813	1630.4	1.8
308.15	0.5829	1642	1.8
308.15	0.7925	1653	1.8
308.15	1.0104	1664	1.8
308.15	1.2376	1676	1.8
308.15	1.4741	1688	1.8
313.15	0	1616.4	1.8
313.15	0.1871	1625.6	1.8
313.15	0.3813	1637.2	1.8
313.15	0.5829	1648	1.8
313.15	0.7925	1660	1.8
313.15	1.0104	1671	1.8
313.15	1.2376	1683	1.8
313.15	1.4741	1694.4	1.8
318.15	0	1621.4	1.8
318.15	0.1871	1630	1.8
318.15	0.3813	1641.4	1.8
318.15	0.5829	1652.6	1.8
318.15	0.7925	1663.6	1.8
318.15	1.0104	1675	1.8
318.15	1.2376	1686	1.8
318.15	1.4741	1698	1.8
323.15	0	1626.5	1.8
323.15	0.1871	1636	1.8
323.15	0.3813	1646.4	1.8
323.15	0.5829	1657	1.8
323.15	0.7925	1669	1.8
323.15	1.0104	1680	1.8
323.15	1.2376	1691	1.8
323.15	1.4741	1702	1.8

System: L-proline + potassium chloride + water; phases: Liquid
Fixed: Pressure, kPa = 101
Fixed: Solvent: Amount concentration (molarity), mol/dm3 of potassium chloride = 2
Property: Mass density, kg/m3 (Liquid); method: Pycnometric method
Temperature, K	Molality, mol/kg of L-proline	Mass density, kg/m3	uncertainty
298.15	0	1089.1	0.4
298.15	0.1871	1092.2	0.4
298.15	0.3813	1095.2	0.4
298.15	0.5829	1098.4	0.4
298.15	0.7925	1101.6	0.4
298.15	1.0104	1104.8	0.4
298.15	1.2376	1107.8	0.4
298.15	1.4741	1110.9	0.4
303.15	0	1087.5	0.4
303.15	0.1871	1090.5	0.4
303.15	0.3813	1093.5	0.4
303.15	0.5829	1096.8	0.4
303.15	0.7925	1099.9	0.4
303.15	1.0104	1103.2	0.4
303.15	1.2376	1106.2	0.4
303.15	1.4741	1109.4	0.4
308.15	0	1085.6	0.4
308.15	0.1871	1088.7	0.4
308.15	0.3813	1091.6	0.4
308.15	0.5829	1094.9	0.4
308.15	0.7925	1098.1	0.4
308.15	1.0104	1101.3	0.4
308.15	1.2376	1104.4	0.4
308.15	1.4741	1107.6	0.4
313.15	0	1083.4	0.4
313.15	0.1871	1086.5	0.4
313.15	0.3813	1089.5	0.4
313.15	0.5829	1092.8	0.4
313.15	0.7925	1096	0.4
313.15	1.0104	1099.2	0.4
313.15	1.2376	1102.4	0.4
313.15	1.4741	1105.6	0.4
318.15	0	1080.9	0.4
318.15	0.1871	1084.1	0.4
318.15	0.3813	1087.1	0.4
318.15	0.5829	1090.5	0.4
318.15	0.7925	1093.7	0.4
318.15	1.0104	1096.9	0.4
318.15	1.2376	1100.1	0.5
318.15	1.4741	1103.3	0.5
323.15	0	1078.3	0.5
323.15	0.1871	1081.4	0.5
323.15	0.3813	1084.4	0.5
323.15	0.5829	1087.8	0.5
323.15	0.7925	1091.1	0.5
323.15	1.0104	1094.3	0.5
323.15	1.2376	1097.6	0.5
323.15	1.4741	1100.8	0.5

System: L-proline + water + potassium nitrate; phases: Liquid
Fixed: Pressure, kPa = 101
Fixed: Solvent: Amount concentration (molarity), mol/dm3 of potassium nitrate = 2
Property: Speed of sound, m/s (Liquid); method: Linear variable-path acoustic interferometer
Temperature, K	Molality, mol/kg of L-proline	Speed of sound, m/s	uncertainty
298.15	0	1562	1.7
298.15	0.1814	1575.6	1.8
298.15	0.3694	1586.2	1.8
298.15	0.5646	1600.4	1.8
298.15	0.7673	1613.2	1.8
298.15	0.9779	1625.2	1.8
298.15	1.1969	1638.4	1.8
298.15	1.4249	1650.4	1.8
303.15	0	1569.4	1.8
303.15	0.1814	1580	1.8
303.15	0.3694	1592	1.8
303.15	0.5646	1604.4	1.8
303.15	0.7673	1616.8	1.8
303.15	0.9779	1628	1.8
303.15	1.1969	1641	1.8
303.15	1.4249	1653.2	1.8
308.15	0	1575	1.8
308.15	0.1814	1584	1.8
308.15	0.3694	1596.4	1.8
308.15	0.5646	1608	1.8
308.15	0.7673	1620	1.8
308.15	0.9779	1632	1.8
308.15	1.1969	1644.8	1.8
308.15	1.4249	1657.2	1.8
313.15	0	1580	1.8
313.15	0.1814	1589.2	1.8
313.15	0.3694	1600.4	1.8
313.15	0.5646	1611.6	1.8
313.15	0.7673	1623.2	1.8
313.15	0.9779	1635	1.8
313.15	1.1969	1648	1.8
313.15	1.4249	1660	1.8
318.15	0	1584.6	1.8
318.15	0.1814	1594	1.8
318.15	0.3694	1604.8	1.8
318.15	0.5646	1615	1.8
318.15	0.7673	1626.2	1.8
318.15	0.9779	1638	1.8
318.15	1.1969	1651.2	1.8
318.15	1.4249	1664	1.8
323.15	0	1588.9	1.8
323.15	0.1814	1598	1.8
323.15	0.3694	1608	1.8
323.15	0.5646	1618	1.8
323.15	0.7673	1629.2	1.8
323.15	0.9779	1641	1.8
323.15	1.1969	1654	1.8
323.15	1.4249	1667	1.8

System: L-proline + water + potassium nitrate; phases: Liquid
Fixed: Pressure, kPa = 101
Fixed: Solvent: Amount concentration (molarity), mol/dm3 of potassium nitrate = 2
Property: Mass density, kg/m3 (Liquid); method: Pycnometric method
Temperature, K	Molality, mol/kg of L-proline	Mass density, kg/m3	uncertainty
298.15	0	1122.9	0.4
298.15	0.1814	1125.8	0.4
298.15	0.3694	1128.8	0.4
298.15	0.5646	1131.7	0.4
298.15	0.7673	1134.7	0.4
298.15	0.9779	1137.7	0.4
298.15	1.1969	1140.7	0.4
298.15	1.4249	1143.7	0.4
303.15	0	1120.6	0.4
303.15	0.1814	1123.6	0.4
303.15	0.3694	1126.6	0.4
303.15	0.5646	1129.6	0.4
303.15	0.7673	1132.6	0.4
303.15	0.9779	1135.6	0.4
303.15	1.1969	1138.6	0.4
303.15	1.4249	1141.7	0.4
308.15	0	1118	0.4
308.15	0.1814	1121.1	0.4
308.15	0.3694	1124.1	0.4
308.15	0.5646	1127.1	0.4
308.15	0.7673	1130.1	0.4
308.15	0.9779	1133.1	0.4
308.15	1.1969	1136.2	0.4
308.15	1.4249	1139.2	0.4
313.15	0	1115	0.4
313.15	0.1814	1118.2	0.4
313.15	0.3694	1121.2	0.5
313.15	0.5646	1124.2	0.5
313.15	0.7673	1127.2	0.5
313.15	0.9779	1130.3	0.5
313.15	1.1969	1133.3	0.5
313.15	1.4249	1136.4	0.5
318.15	0	1111.8	0.5
318.15	0.1814	1114.9	0.5
318.15	0.3694	1117.9	0.5
318.15	0.5646	1120.9	0.5
318.15	0.7673	1124	0.5
318.15	0.9779	1127.1	0.5
318.15	1.1969	1130.1	0.5
318.15	1.4249	1133.2	0.5
323.15	0	1108.2	0.5
323.15	0.1814	1111.2	0.5
323.15	0.3694	1114.3	0.5
323.15	0.5646	1117.2	0.5
323.15	0.7673	1120.4	0.5
323.15	0.9779	1123.5	0.5
323.15	1.1969	1126.5	0.5
323.15	1.4249	1129.6	0.5

System: L-valine + potassium chloride + water; phases: Liquid
Fixed: Pressure, kPa = 101
Fixed: Solvent: Amount concentration (molarity), mol/dm3 of potassium chloride = 2
Property: Speed of sound, m/s (Liquid); method: Linear variable-path acoustic interferometer
Temperature, K	Molality, mol/kg of L-valine	Speed of sound, m/s	uncertainty
298.15	0	1595.2	1.8
298.15	0.0184	1599.2	1.8
298.15	0.0369	1602.2	1.8
298.15	0.0554	1605.9	1.8
298.15	0.0927	1612	1.8
298.15	0.1303	1618	1.8
298.15	0.1682	1624	1.8
298.15	0.1873	1630	1.8
303.15	0	1605.9	1.8
303.15	0.0184	1607	1.8
303.15	0.0369	1610.2	1.8
303.15	0.0554	1613.2	1.8
303.15	0.0927	1619.8	1.8
303.15	0.1303	1626.2	1.8
303.15	0.1682	1632.6	1.8
303.15	0.1873	1638.2	1.8
308.15	0	1610.2	1.8
308.15	0.0184	1613.2	1.8
308.15	0.0369	1616.2	1.8
308.15	0.0554	1619.4	1.8
308.15	0.0927	1626	1.8
308.15	0.1303	1632.2	1.8
308.15	0.1682	1638	1.8
308.15	0.1873	1643.8	1.8
313.15	0	1616.4	1.8
313.15	0.0184	1619.4	1.8
313.15	0.0369	1622.8	1.8
313.15	0.0554	1626	1.8
313.15	0.0927	1633	1.8
313.15	0.1303	1639.2	1.8
313.15	0.1682	1645.6	1.8
313.15	0.1873	1651.4	1.8
318.15	0	1621.4	1.8
318.15	0.0184	1626.2	1.8
318.15	0.0369	1629.4	1.8
318.15	0.0554	1632.6	1.8
318.15	0.0927	1639.2	1.8
318.15	0.1303	1645.6	1.8
318.15	0.1682	1651.8	1.8
318.15	0.1873	1657.6	1.8
323.15	0	1626.5	1.8
323.15	0.0184	1631.4	1.8
323.15	0.0369	1634.4	1.8
323.15	0.0554	1637.4	1.8
323.15	0.0927	1643.6	1.8
323.15	0.1303	1650	1.8
323.15	0.1682	1656.4	1.8
323.15	0.1873	1662.2	1.8

System: L-valine + potassium chloride + water; phases: Liquid
Fixed: Pressure, kPa = 101
Fixed: Solvent: Amount concentration (molarity), mol/dm3 of potassium chloride = 2
Property: Mass density, kg/m3 (Liquid); method: Pycnometric method
Temperature, K	Molality, mol/kg of L-valine	Mass density, kg/m3	uncertainty
298.15	0	1089.1	0.4
298.15	0.0184	1089.5	0.4
298.15	0.0369	1089.6	0.4
298.15	0.0554	1089.9	0.4
298.15	0.0927	1090.6	0.4
298.15	0.1303	1090.8	0.4
298.15	0.1682	1091.3	0.4
298.15	0.1873	1091.4	0.4
303.15	0	1087.5	0.4
303.15	0.0184	1087.8	0.4
303.15	0.0369	1088.1	0.4
303.15	0.0554	1088.3	0.4
303.15	0.0927	1089	0.4
303.15	0.1303	1089.4	0.4
303.15	0.1682	1089.9	0.4
303.15	0.1873	1090.1	0.4
308.15	0	1085.6	0.4
308.15	0.0184	1085.9	0.4
308.15	0.0369	1086.2	0.4
308.15	0.0554	1086.5	0.4
308.15	0.0927	1087.1	0.4
308.15	0.1303	1087.6	0.4
308.15	0.1682	1088.3	0.4
308.15	0.1873	1088.5	0.4
313.15	0	1083.4	0.4
313.15	0.0184	1083.7	0.4
313.15	0.0369	1084.1	0.4
313.15	0.0554	1084.4	0.4
313.15	0.0927	1085	0.4
313.15	0.1303	1085.6	0.4
313.15	0.1682	1086.3	0.4
313.15	0.1873	1086.7	0.4
318.15	0	1080.9	0.4
318.15	0.0184	1081.3	0.4
318.15	0.0369	1081.7	0.4
318.15	0.0554	1082	0.4
318.15	0.0927	1082.7	0.4
318.15	0.1303	1083.4	0.4
318.15	0.1682	1084.2	0.4
318.15	0.1873	1084.6	0.4
323.15	0	1078.3	0.5
323.15	0.0184	1078.6	0.5
323.15	0.0369	1079.1	0.5
323.15	0.0554	1079.4	0.5
323.15	0.0927	1080.2	0.5
323.15	0.1303	1080.9	0.5
323.15	0.1682	1081.8	0.5
323.15	0.1873	1082.2	0.5

System: L-valine + water + potassium nitrate; phases: Liquid
Fixed: Pressure, kPa = 101
Fixed: Solvent: Amount concentration (molarity), mol/dm3 of potassium nitrate = 2
Property: Speed of sound, m/s (Liquid); method: Linear variable-path acoustic interferometer
Temperature, K	Molality, mol/kg of L-valine	Speed of sound, m/s	uncertainty
298.15	0	1562	1.7
298.15	0.0178	1565	1.7
298.15	0.0357	1568	1.7
298.15	0.0537	1571.2	1.8
298.15	0.0898	1574.4	1.8
298.15	0.1264	1577.4	1.8
298.15	0.163	1580.6	1.8
298.15	0.1814	1583.4	1.8
303.15	0	1569.4	1.8
303.15	0.0178	1572.6	1.8
303.15	0.0357	1575.8	1.8
303.15	0.0537	1578.8	1.8
303.15	0.0898	1582	1.8
303.15	0.1264	1585	1.8
303.15	0.163	1588.2	1.8
303.15	0.1814	1591.4	1.8
308.15	0	1575	1.8
308.15	0.0178	1578	1.8
308.15	0.0357	1581.2	1.8
308.15	0.0537	1584.2	1.8
308.15	0.0898	1587.2	1.8
308.15	0.1264	1590.4	1.8
308.15	0.163	1593.6	1.8
308.15	0.1814	1596.6	1.8
313.15	0	1580	1.8
313.15	0.0178	1583	1.8
313.15	0.0357	1586.2	1.8
313.15	0.0537	1589.4	1.8
313.15	0.0898	1592.6	1.8
313.15	0.1264	1595.8	1.8
313.15	0.163	1599	1.8
313.15	0.1814	1602	1.8
318.15	0	1584.5	1.8
318.15	0.0178	1587.5	1.8
318.15	0.0357	1590.5	1.8
318.15	0.0537	1593.8	1.8
318.15	0.0898	1597	1.8
318.15	0.1264	1600	1.8
318.15	0.163	1603.2	1.8
318.15	0.1814	1606.4	1.8
323.15	0	1588.8	1.8
323.15	0.0178	1592	1.8
323.15	0.0357	1595	1.8
323.15	0.0537	1598	1.8
323.15	0.0898	1601	1.8
323.15	0.1264	1604.2	1.8
323.15	0.163	1607.4	1.8
323.15	0.1814	1610.6	1.8

System: L-valine + water + potassium nitrate; phases: Liquid
Fixed: Pressure, kPa = 101
Fixed: Solvent: Amount concentration (molarity), mol/dm3 of potassium nitrate = 2
Property: Mass density, kg/m3 (Liquid); method: Pycnometric method
Temperature, K	Molality, mol/kg of L-valine	Mass density, kg/m3	uncertainty
298.15	0	1122.9	0.4
298.15	0.0178	1123.2	0.4
298.15	0.0357	1123.5	0.4
298.15	0.0537	1123.8	0.4
298.15	0.0898	1124.6	0.4
298.15	0.1264	1124.8	0.4
298.15	0.163	1125.1	0.4
298.15	0.1814	1126	0.4
303.15	0	1120.6	0.4
303.15	0.0178	1120.9	0.4
303.15	0.0357	1121.2	0.4
303.15	0.0537	1121.5	0.4
303.15	0.0898	1121.9	0.4
303.15	0.1264	1122.5	0.4
303.15	0.163	1123.1	0.4
303.15	0.1814	1123.4	0.4
308.15	0	1118	0.4
308.15	0.0178	1118.2	0.4
308.15	0.0357	1118.6	0.4
308.15	0.0537	1118.8	0.4
308.15	0.0898	1119.1	0.4
308.15	0.1264	1120.3	0.4
308.15	0.163	1120.6	0.4
308.15	0.1814	1120.9	0.4
313.15	0	1115	0.4
313.15	0.0178	1115.3	0.4
313.15	0.0357	1115.7	0.4
313.15	0.0537	1115.9	0.4
313.15	0.0898	1116.3	0.4
313.15	0.1264	1117.6	0.4
313.15	0.163	1117.8	0.4
313.15	0.1814	1118	0.4
318.15	0	1111.8	0.5
318.15	0.0178	1112.1	0.5
318.15	0.0357	1112.4	0.5
318.15	0.0537	1112.7	0.5
318.15	0.0898	1113.3	0.5
318.15	0.1264	1114.4	0.5
318.15	0.163	1114.6	0.5
318.15	0.1814	1114.9	0.5
323.15	0	1108.2	0.5
323.15	0.0178	1108.6	0.5
323.15	0.0357	1108.9	0.5
323.15	0.0537	1109.2	0.5
323.15	0.0898	1110.2	0.5
323.15	0.1264	1110.7	0.5
323.15	0.163	1111	0.5
323.15	0.1814	1111.5	0.5

System: L-leucine + potassium chloride + water; phases: Liquid
Fixed: Pressure, kPa = 101
Fixed: Solvent: Amount concentration (molarity), mol/dm3 of potassium chloride = 2
Property: Speed of sound, m/s (Liquid); method: Linear variable-path acoustic interferometer
Temperature, K	Molality, mol/kg of L-leucine	Speed of sound, m/s	uncertainty
298.15	0	1595.2	1.8
298.15	0.0184	1598	1.8
298.15	0.0369	1601.4	1.8
298.15	0.0555	1605.2	1.8
298.15	0.0741	1608	1.8
298.15	0.0928	1612	1.8
298.15	0.1117	1616	1.8
298.15	0.1306	1620	1.8
303.15	0	1605.9	1.8
303.15	0.0184	1607.2	1.8
303.15	0.0369	1608.2	1.8
303.15	0.0555	1612	1.8
303.15	0.0741	1615.4	1.8
303.15	0.0928	1619.8	1.8
303.15	0.1117	1623.2	1.8
303.15	0.1306	1627	1.8
308.15	0	1610.2	1.8
308.15	0.0184	1612.4	1.8
308.15	0.0369	1615.6	1.8
308.15	0.0555	1619	1.8
308.15	0.0741	1622.4	1.8
308.15	0.0928	1626	1.8
308.15	0.1117	1629.4	1.8
308.15	0.1306	1633	1.8
313.15	0	1616.4	1.8
313.15	0.0184	1619	1.8
313.15	0.0369	1622	1.8
313.15	0.0555	1626	1.8
313.15	0.0741	1629.8	1.8
313.15	0.0928	1633.2	1.8
313.15	0.1117	1636.8	1.8
313.15	0.1306	1640.2	1.8
318.15	0	1621.4	1.8
318.15	0.0184	1625	1.8
318.15	0.0369	1628.6	1.8
318.15	0.0555	1632	1.8
318.15	0.0741	1635.4	1.8
318.15	0.0928	1639	1.8
318.15	0.1117	1642.6	1.8
318.15	0.1306	1646	1.8
323.15	0	1626.5	1.8
323.15	0.0184	1630	1.8
323.15	0.0369	1633.4	1.8
323.15	0.0555	1637	1.8
323.15	0.0741	1640	1.8
323.15	0.0928	1644	1.8
323.15	0.1117	1647.6	1.8
323.15	0.1306	1651	1.8

System: L-leucine + potassium chloride + water; phases: Liquid
Fixed: Pressure, kPa = 101
Fixed: Solvent: Amount concentration (molarity), mol/dm3 of potassium chloride = 2
Property: Mass density, kg/m3 (Liquid); method: Pycnometric method
Temperature, K	Molality, mol/kg of L-leucine	Mass density, kg/m3	uncertainty
298.15	0	1089.1	0.4
298.15	0.0184	1089.3	0.4
298.15	0.0369	1089.6	0.4
298.15	0.0555	1089.7	0.4
298.15	0.0741	1089.9	0.4
298.15	0.0928	1090.1	0.4
298.15	0.1117	1090.4	0.4
298.15	0.1306	1090.5	0.4
303.15	0	1087.5	0.4
303.15	0.0184	1087.7	0.4
303.15	0.0369	1087.9	0.4
303.15	0.0555	1088.2	0.4
303.15	0.0741	1088.4	0.4
303.15	0.0928	1088.6	0.4
303.15	0.1117	1088.9	0.4
303.15	0.1306	1089	0.4
308.15	0	1085.6	0.4
308.15	0.0184	1085.8	0.4
308.15	0.0369	1086	0.4
308.15	0.0555	1086.3	0.4
308.15	0.0741	1086.6	0.4
308.15	0.0928	1086.8	0.4
308.15	0.1117	1087.1	0.4
308.15	0.1306	1087.3	0.4
313.15	0	1083.4	0.4
313.15	0.0184	1083.6	0.4
313.15	0.0369	1083.9	0.4
313.15	0.0555	1084.2	0.4
313.15	0.0741	1084.5	0.4
313.15	0.0928	1084.8	0.4
313.15	0.1117	1085	0.4
313.15	0.1306	1085.2	0.4
318.15	0	1080.9	0.4
318.15	0.0184	1081.2	0.4
318.15	0.0369	1081.5	0.4
318.15	0.0555	1081.8	0.4
318.15	0.0741	1082.1	0.4
318.15	0.0928	1082.4	0.4
318.15	0.1117	1082.7	0.4
318.15	0.1306	1082.9	0.4
323.15	0	1078.3	0.5
323.15	0.0184	1078.5	0.5
323.15	0.0369	1078.8	0.5
323.15	0.0555	1079.2	0.5
323.15	0.0741	1079.5	0.5
323.15	0.0928	1079.8	0.5
323.15	0.1117	1080.1	0.5
323.15	0.1306	1080.3	0.5

System: L-leucine + water + potassium nitrate; phases: Liquid
Fixed: Pressure, kPa = 101
Fixed: Solvent: Amount concentration (molarity), mol/dm3 of potassium nitrate = 2
Property: Speed of sound, m/s (Liquid); method: Linear variable-path acoustic interferometer
Temperature, K	Molality, mol/kg of L-leucine	Speed of sound, m/s	uncertainty
298.15	0	1562	1.7
298.15	0.0178	1566.4	1.7
298.15	0.0358	1570	1.8
298.15	0.0538	1574.2	1.8
298.15	0.0719	1578.6	1.8
298.15	0.09	1582.4	1.8
298.15	0.1083	1587	1.8
298.15	0.1266	1591	1.8
303.15	0	1569.4	1.8
303.15	0.0178	1573.2	1.8
303.15	0.0358	1577.4	1.8
303.15	0.0538	1581.6	1.8
303.15	0.0719	1585.2	1.8
303.15	0.09	1589.6	1.8
303.15	0.1083	1593.4	1.8
303.15	0.1266	1597.2	1.8
308.15	0	1575	1.8
308.15	0.0178	1579.2	1.8
308.15	0.0358	1583.4	1.8
308.15	0.0538	1587.6	1.8
308.15	0.0719	1591.4	1.8
308.15	0.09	1595.2	1.8
308.15	0.1083	1599.4	1.8
308.15	0.1266	1603.4	1.8
313.15	0	1580	1.8
313.15	0.0178	1584	1.8
313.15	0.0358	1588.2	1.8
313.15	0.0538	1592	1.8
313.15	0.0719	1596.4	1.8
313.15	0.09	1600.2	1.8
313.15	0.1083	1604.6	1.8
313.15	0.1266	1608.2	1.8
318.15	0	1584.5	1.8
318.15	0.0178	1588.4	1.8
318.15	0.0358	1592.6	1.8
318.15	0.0538	1596.4	1.8
318.15	0.0719	1600.2	1.8
318.15	0.09	1604.6	1.8
318.15	0.1083	1608.2	1.8
318.15	0.1266	1612.4	1.8
323.15	0	1588.8	1.8
323.15	0.0178	1592.6	1.8
323.15	0.0358	1596.4	1.8
323.15	0.0538	1600.4	1.8
323.15	0.0719	1604.8	1.8
323.15	0.09	1609	1.8
323.15	0.1083	1613	1.8
323.15	0.1266	1617	1.8

System: L-leucine + water + potassium nitrate; phases: Liquid
Fixed: Pressure, kPa = 101
Fixed: Solvent: Amount concentration (molarity), mol/dm3 of potassium nitrate = 2
Property: Mass density, kg/m3 (Liquid); method: Pycnometric method
Temperature, K	Molality, mol/kg of L-leucine	Mass density, kg/m3	uncertainty
298.15	0	1122.9	0.4
298.15	0.0178	1123	0.4
298.15	0.0358	1123.1	0.4
298.15	0.0538	1123.2	0.4
298.15	0.0719	1123.3	0.4
298.15	0.09	1123.5	0.4
298.15	0.1083	1123.6	0.4
298.15	0.1266	1123.8	0.4
303.15	0	1120.6	0.4
303.15	0.0178	1120.7	0.4
303.15	0.0358	1120.8	0.4
303.15	0.0538	1120.9	0.4
303.15	0.0719	1121.1	0.4
303.15	0.09	1121.3	0.4
303.15	0.1083	1121.4	0.4
303.15	0.1266	1121.6	0.4
308.15	0	1118	0.4
308.15	0.0178	1118.1	0.4
308.15	0.0358	1118.2	0.4
308.15	0.0538	1118.4	0.4
308.15	0.0719	1118.6	0.4
308.15	0.09	1118.8	0.4
308.15	0.1083	1118.9	0.4
308.15	0.1266	1119.1	0.4
313.15	0	1115	0.4
313.15	0.0178	1115.1	0.4
313.15	0.0358	1115.3	0.4
313.15	0.0538	1115.5	0.4
313.15	0.0719	1115.7	0.4
313.15	0.09	1115.9	0.4
313.15	0.1083	1116	0.4
313.15	0.1266	1116.3	0.4
318.15	0	1111.8	0.5
318.15	0.0178	1111.9	0.5
318.15	0.0358	1112	0.5
318.15	0.0538	1112.2	0.5
318.15	0.0719	1112.5	0.5
318.15	0.09	1112.6	0.5
318.15	0.1083	1112.8	0.5
318.15	0.1266	1113.1	0.5
323.15	0	1108.2	0.5
323.15	0.0178	1108.3	0.5
323.15	0.0358	1108.5	0.5
323.15	0.0538	1108.6	0.5
323.15	0.0719	1108.9	0.5
323.15	0.09	1109.1	0.5
323.15	0.1083	1109.3	0.5
323.15	0.1266	1109.6	0.5

System: potassium chloride + water; phases: Liquid
Fixed: Pressure, kPa = 101
Fixed: Amount concentration (molarity), mol/dm3 of potassium chloride = 2
Property: Speed of sound, m/s (Liquid); method: Linear variable-path acoustic interferometer
Temperature, K	Speed of sound, m/s	uncertainty
298.15	1595.2	1.8
303.15	1605.9	1.8
308.15	1610.2	1.8
313.15	1616.4	1.8
318.15	1621.4	1.8
323.15	1626.5	1.8

System: potassium chloride + water; phases: Liquid
Fixed: Pressure, kPa = 101
Fixed: Amount concentration (molarity), mol/dm3 of potassium chloride = 2
Property: Mass density, kg/m3 (Liquid); method: Pycnometric method
Temperature, K	Mass density, kg/m3	uncertainty
298.15	1089.1	0.4
303.15	1087.5	0.4
308.15	1085.6	0.4
313.15	1083.4	0.4
318.15	1080.9	0.4
323.15	1078.3	0.5

System: water + potassium nitrate; phases: Liquid
Fixed: Pressure, kPa = 101
Fixed: Amount concentration (molarity), mol/dm3 of potassium nitrate = 2
Property: Speed of sound, m/s (Liquid); method: Linear variable-path acoustic interferometer
Temperature, K	Speed of sound, m/s	uncertainty
298.15	1562	1.7
303.15	1569.4	1.8
308.15	1575.8	1.8
313.15	1580	1.8
318.15	1584.6	1.8
323.15	1588.9	1.8
308.15	1575	1.8
318.15	1584.5	1.8
323.15	1588.8	1.8

System: water + potassium nitrate; phases: Liquid
Fixed: Pressure, kPa = 101
Fixed: Amount concentration (molarity), mol/dm3 of potassium nitrate = 2
Property: Mass density, kg/m3 (Liquid); method: Pycnometric method
Temperature, K	Mass density, kg/m3	uncertainty
298.15	1122.9	0.4
303.15	1120.6	0.4
308.15	1118	0.4
313.15	1115	0.4
318.15	1111.8	0.5
323.15	1108.2	0.5
