Measured thermophysical data. Liquid-crystalline properties of 4-octyloxybenzylidene-4?-alkyloxyaniline and their mixtures with 4-pentyloxybenzylidene-4?-heptylaniline
Source: Thermochim. Acta, 2009, 10.1016/j.tca.2009.03.004
Compound 1: 4-octyloxybenzylidene-4'-methyloxyaniline, C22H29NO2, InChI=1S/C22H29NO2/c1-3-4-5-6-7-8-17-25-22-13-9-19(10-14-22)18-23-20-11-15-21(24-2)16-12-20/h9-16,18H,3-8,17H2,1-2H3, purity 99.5%
Compound 2: 4-ethoxy-N-[[4-(octyloxy)phenyl]methylene]benzenamine, C23H31NO2, InChI=1S/C23H31NO2/c1-3-5-6-7-8-9-18-26-23-14-10-20(11-15-23)19-24-21-12-16-22(17-13-21)25-4-2/h10-17,19H,3-9,18H2,1-2H3, purity 99.5%
Compound 3: 4-octyloxybenzylidene-4'-propyloxyaniline, C24H33NO2, InChI=1S/C24H33NO2/c1-3-5-6-7-8-9-19-27-23-14-10-21(11-15-23)20-25-22-12-16-24(17-13-22)26-18-4-2/h10-17,20H,3-9,18-19H2,1-2H3, purity 99.5%
Compound 4: benzenamine, 4-butoxy-N-[[4-(octyloxy)phenyl]methylene]-, C25H35NO2, InChI=1S/C25H35NO2/c1-3-5-7-8-9-10-20-28-24-15-11-22(12-16-24)21-26-23-13-17-25(18-14-23)27-19-6-4-2/h11-18,21H,3-10,19-20H2,1-2H3, purity 99.5%
Compound 5: 4-octyloxybenzylidene-4'-pentyloxyaniline, C26H37NO2, InChI=1S/C26H37NO2/c1-3-5-7-8-9-11-21-29-25-16-12-23(13-17-25)22-27-24-14-18-26(19-15-24)28-20-10-6-4-2/h12-19,22H,3-11,20-21H2,1-2H3, purity 99.5%
Compound 6: 4-octyloxybenzylidene-4'-hexyloxyaniline, C27H39NO2, InChI=1S/C27H39NO2/c1-3-5-7-9-10-12-22-29-26-17-13-24(14-18-26)23-28-25-15-19-27(20-16-25)30-21-11-8-6-4-2/h13-20,23H,3-12,21-22H2,1-2H3, purity 99.5%
Compound 7: 4-octyloxybenzylidene-4'-heptyloxyaniline, C28H41NO2, InChI=1S/C28H41NO2/c1-3-5-7-9-11-13-23-30-27-18-14-25(15-19-27)24-29-26-16-20-28(21-17-26)31-22-12-10-8-6-4-2/h14-21,24H,3-13,22-23H2,1-2H3, purity 99.5%
Compound 8: 4-octyloxybenzylidene-4'-octyloxyaniline, C29H43NO2, InChI=1S/C29H43NO2/c1-3-5-7-9-11-13-23-31-28-19-15-26(16-20-28)25-30-27-17-21-29(22-18-27)32-24-14-12-10-8-6-4-2/h15-22,25H,3-14,23-24H2,1-2H3, purity 99.5%
Compound 9: 4-octyloxybenzylidene-4'-nonyloxyaniline, C30H45NO2, InChI=1S/C30H45NO2/c1-3-5-7-9-11-13-15-25-33-30-22-18-28(19-23-30)31-26-27-16-20-29(21-17-27)32-24-14-12-10-8-6-4-2/h16-23,26H,3-15,24-25H2,1-2H3, purity 99.5%
Compound 10: 4-octyloxybenzylidene-4'-decyloxyaniline, C31H47NO2, InChI=1S/C31H47NO2/c1-3-5-7-9-11-12-14-16-26-34-31-23-19-29(20-24-31)32-27-28-17-21-30(22-18-28)33-25-15-13-10-8-6-4-2/h17-24,27H,3-16,25-26H2,1-2H3, purity 99.5%
Compound 11: 4-octyloxybenzylidene-4'-dodecyloxyaniline, C33H51NO2, InChI=1S/C33H51NO2/c1-3-5-7-9-11-12-13-14-16-18-28-36-33-25-21-31(22-26-33)34-29-30-19-23-32(24-20-30)35-27-17-15-10-8-6-4-2/h19-26,29H,3-18,27-28H2,1-2H3, purity 99.5%

System: 4-octyloxybenzylidene-4'-methyloxyaniline; phases: Crystal, Liquid, Air at 1 atmosphere
Property: Triple point temperature, K (Crystal); method: DTA
Triple point temperature, K	uncertainty
378.65	0.5

System: 4-octyloxybenzylidene-4'-methyloxyaniline; phases: Crystal, Liquid, Air at 1 atmosphere
Property: Molar enthalpy of transition or fusion, kJ/mol (Crystal); method: DSC
Molar enthalpy of transition or fusion, kJ/mol	uncertainty
47.74	1.29

System: 4-ethoxy-N-[[4-(octyloxy)phenyl]methylene]benzenamine; phases: Crystal, Nematic liquid crystal, Air at 1 atmosphere
Property: Triple point temperature, K (Crystal); method: DTA
Triple point temperature, K	uncertainty
373.95	0.5

System: 4-ethoxy-N-[[4-(octyloxy)phenyl]methylene]benzenamine; phases: Nematic liquid crystal, Liquid, Air at 1 atmosphere
Property: Triple point temperature, K (Nematic liquid crystal); method: DTA
Triple point temperature, K	uncertainty
395.55	0.5

System: 4-ethoxy-N-[[4-(octyloxy)phenyl]methylene]benzenamine; phases: Crystal, Nematic liquid crystal, Air at 1 atmosphere
Property: Molar enthalpy of transition or fusion, kJ/mol (Crystal); method: DSC
Molar enthalpy of transition or fusion, kJ/mol	uncertainty
40.43	1.11

System: 4-ethoxy-N-[[4-(octyloxy)phenyl]methylene]benzenamine; phases: Nematic liquid crystal, Liquid, Air at 1 atmosphere
Property: Molar enthalpy of transition or fusion, kJ/mol (Nematic liquid crystal); method: DSC
Molar enthalpy of transition or fusion, kJ/mol	uncertainty
1.12	0.13

System: 4-octyloxybenzylidene-4'-propyloxyaniline; phases: Crystal, Nematic liquid crystal, Air at 1 atmosphere
Property: Triple point temperature, K (Crystal); method: DTA
Triple point temperature, K	uncertainty
374.15	0.5

System: 4-octyloxybenzylidene-4'-propyloxyaniline; phases: Nematic liquid crystal, Liquid, Air at 1 atmosphere
Property: Triple point temperature, K (Nematic liquid crystal); method: DTA
Triple point temperature, K	uncertainty
386.95	0.5

System: 4-octyloxybenzylidene-4'-propyloxyaniline; phases: Crystal, Nematic liquid crystal, Air at 1 atmosphere
Property: Molar enthalpy of transition or fusion, kJ/mol (Crystal); method: DSC
Molar enthalpy of transition or fusion, kJ/mol	uncertainty
37.82	1.05

System: 4-octyloxybenzylidene-4'-propyloxyaniline; phases: Nematic liquid crystal, Liquid, Air at 1 atmosphere
Property: Molar enthalpy of transition or fusion, kJ/mol (Nematic liquid crystal); method: DSC
Molar enthalpy of transition or fusion, kJ/mol	uncertainty
1.02	0.13

System: benzenamine, 4-butoxy-N-[[4-(octyloxy)phenyl]methylene]-; phases: Crystal, Nematic liquid crystal, Air at 1 atmosphere
Property: Triple point temperature, K (Crystal); method: DTA
Triple point temperature, K	uncertainty
380.75	0.5

System: benzenamine, 4-butoxy-N-[[4-(octyloxy)phenyl]methylene]-; phases: Nematic liquid crystal, Liquid, Air at 1 atmosphere
Property: Triple point temperature, K (Nematic liquid crystal); method: DTA
Triple point temperature, K	uncertainty
389.55	0.5

System: benzenamine, 4-butoxy-N-[[4-(octyloxy)phenyl]methylene]-; phases: Crystal, Nematic liquid crystal, Air at 1 atmosphere
Property: Molar enthalpy of transition or fusion, kJ/mol (Crystal); method: DSC
Molar enthalpy of transition or fusion, kJ/mol	uncertainty
44.38	1.21

System: benzenamine, 4-butoxy-N-[[4-(octyloxy)phenyl]methylene]-; phases: Nematic liquid crystal, Liquid, Air at 1 atmosphere
Property: Molar enthalpy of transition or fusion, kJ/mol (Nematic liquid crystal); method: DSC
Molar enthalpy of transition or fusion, kJ/mol	uncertainty
1.8	0.15

System: 4-octyloxybenzylidene-4'-pentyloxyaniline; phases: Crystal, Smectic liquid crystal, Air at 1 atmosphere
Property: Triple point temperature, K (Crystal); method: DTA
Triple point temperature, K	uncertainty
364.95	0.5

System: 4-octyloxybenzylidene-4'-pentyloxyaniline; phases: Smectic liquid crystal, Nematic liquid crystal, Air at 1 atmosphere
Property: Triple point temperature, K (Smectic liquid crystal); method: DTA
Triple point temperature, K	uncertainty
376.75	0.5

System: 4-octyloxybenzylidene-4'-pentyloxyaniline; phases: Nematic liquid crystal, Liquid, Air at 1 atmosphere
Property: Triple point temperature, K (Nematic liquid crystal); method: DTA
Triple point temperature, K	uncertainty
386.35	0.5

System: 4-octyloxybenzylidene-4'-pentyloxyaniline; phases: Crystal, Smectic liquid crystal, Air at 1 atmosphere
Property: Molar enthalpy of transition or fusion, kJ/mol (Crystal); method: DSC
Molar enthalpy of transition or fusion, kJ/mol	uncertainty
29.42	0.84

System: 4-octyloxybenzylidene-4'-pentyloxyaniline; phases: Smectic liquid crystal, Nematic liquid crystal, Air at 1 atmosphere
Property: Molar enthalpy of transition or fusion, kJ/mol (Smectic liquid crystal); method: DSC
Molar enthalpy of transition or fusion, kJ/mol	uncertainty
1.89	0.15

System: 4-octyloxybenzylidene-4'-pentyloxyaniline; phases: Nematic liquid crystal, Liquid, Air at 1 atmosphere
Property: Molar enthalpy of transition or fusion, kJ/mol (Nematic liquid crystal); method: DSC
Molar enthalpy of transition or fusion, kJ/mol	uncertainty
1.64	0.14

System: 4-octyloxybenzylidene-4'-hexyloxyaniline; phases: Crystal, Smectic liquid crystal, Air at 1 atmosphere
Property: Triple point temperature, K (Crystal); method: DTA
Triple point temperature, K	uncertainty
369.55	0.5

System: 4-octyloxybenzylidene-4'-hexyloxyaniline; phases: Smectic liquid crystal, Nematic liquid crystal, Air at 1 atmosphere
Property: Triple point temperature, K (Smectic liquid crystal); method: DTA
Triple point temperature, K	uncertainty
382.45	0.5

System: 4-octyloxybenzylidene-4'-hexyloxyaniline; phases: Nematic liquid crystal, Liquid, Air at 1 atmosphere
Property: Triple point temperature, K (Nematic liquid crystal); method: DTA
Triple point temperature, K	uncertainty
390.35	0.5

System: 4-octyloxybenzylidene-4'-hexyloxyaniline; phases: Crystal, Smectic liquid crystal, Air at 1 atmosphere
Property: Molar enthalpy of transition or fusion, kJ/mol (Crystal); method: DSC
Molar enthalpy of transition or fusion, kJ/mol	uncertainty
33.46	0.94

System: 4-octyloxybenzylidene-4'-hexyloxyaniline; phases: Smectic liquid crystal, Nematic liquid crystal, Air at 1 atmosphere
Property: Molar enthalpy of transition or fusion, kJ/mol (Smectic liquid crystal); method: DSC
Molar enthalpy of transition or fusion, kJ/mol	uncertainty
1.99	0.15

System: 4-octyloxybenzylidene-4'-hexyloxyaniline; phases: Nematic liquid crystal, Liquid, Air at 1 atmosphere
Property: Molar enthalpy of transition or fusion, kJ/mol (Nematic liquid crystal); method: DSC
Molar enthalpy of transition or fusion, kJ/mol	uncertainty
2.2	0.16

System: 4-octyloxybenzylidene-4'-heptyloxyaniline; phases: Crystal, Smectic liquid crystal, Air at 1 atmosphere
Property: Triple point temperature, K (Crystal); method: DTA
Triple point temperature, K	uncertainty
370.35	0.5

System: 4-octyloxybenzylidene-4'-heptyloxyaniline; phases: Smectic liquid crystal, Nematic liquid crystal, Air at 1 atmosphere
Property: Triple point temperature, K (Smectic liquid crystal); method: DTA
Triple point temperature, K	uncertainty
383.75	0.5

System: 4-octyloxybenzylidene-4'-heptyloxyaniline; phases: Nematic liquid crystal, Liquid, Air at 1 atmosphere
Property: Triple point temperature, K (Nematic liquid crystal); method: DTA
Triple point temperature, K	uncertainty
388.55	0.5

System: 4-octyloxybenzylidene-4'-heptyloxyaniline; phases: Crystal, Smectic liquid crystal, Air at 1 atmosphere
Property: Molar enthalpy of transition or fusion, kJ/mol (Crystal); method: DSC
Molar enthalpy of transition or fusion, kJ/mol	uncertainty
34.25	0.96

System: 4-octyloxybenzylidene-4'-heptyloxyaniline; phases: Smectic liquid crystal, Nematic liquid crystal, Air at 1 atmosphere
Property: Molar enthalpy of transition or fusion, kJ/mol (Smectic liquid crystal); method: DSC
Molar enthalpy of transition or fusion, kJ/mol	uncertainty
2.53	0.17

System: 4-octyloxybenzylidene-4'-heptyloxyaniline; phases: Nematic liquid crystal, Liquid, Air at 1 atmosphere
Property: Molar enthalpy of transition or fusion, kJ/mol (Nematic liquid crystal); method: DSC
Molar enthalpy of transition or fusion, kJ/mol	uncertainty
2.34	0.16

System: 4-octyloxybenzylidene-4'-octyloxyaniline; phases: Crystal, Smectic liquid crystal, Air at 1 atmosphere
Property: Triple point temperature, K (Crystal); method: DTA
Triple point temperature, K	uncertainty
377.75	0.5

System: 4-octyloxybenzylidene-4'-octyloxyaniline; phases: Smectic liquid crystal, Nematic liquid crystal, Air at 1 atmosphere
Property: Triple point temperature, K (Smectic liquid crystal); method: DTA
Triple point temperature, K	uncertainty
387.15	0.5

System: 4-octyloxybenzylidene-4'-octyloxyaniline; phases: Nematic liquid crystal, Liquid, Air at 1 atmosphere
Property: Triple point temperature, K (Nematic liquid crystal); method: DTA
Triple point temperature, K	uncertainty
390.15	0.5

System: 4-octyloxybenzylidene-4'-octyloxyaniline; phases: Crystal, Smectic liquid crystal, Air at 1 atmosphere
Property: Molar enthalpy of transition or fusion, kJ/mol (Crystal); method: DSC
Molar enthalpy of transition or fusion, kJ/mol	uncertainty
39.07	1.08

System: 4-octyloxybenzylidene-4'-octyloxyaniline; phases: Smectic liquid crystal, Nematic liquid crystal, Air at 1 atmosphere
Property: Molar enthalpy of transition or fusion, kJ/mol (Smectic liquid crystal); method: DSC
Molar enthalpy of transition or fusion, kJ/mol	uncertainty
2.27	0.16

System: 4-octyloxybenzylidene-4'-octyloxyaniline; phases: Nematic liquid crystal, Liquid, Air at 1 atmosphere
Property: Molar enthalpy of transition or fusion, kJ/mol (Nematic liquid crystal); method: DSC
Molar enthalpy of transition or fusion, kJ/mol	uncertainty
3	0.18

System: 4-octyloxybenzylidene-4'-nonyloxyaniline; phases: Crystal, Smectic liquid crystal, Air at 1 atmosphere
Property: Triple point temperature, K (Crystal); method: DTA
Triple point temperature, K	uncertainty
374.15	0.5

System: 4-octyloxybenzylidene-4'-nonyloxyaniline; phases: Smectic liquid crystal, Nematic liquid crystal, Air at 1 atmosphere
Property: Triple point temperature, K (Smectic liquid crystal); method: DTA
Triple point temperature, K	uncertainty
385.85	0.5

System: 4-octyloxybenzylidene-4'-nonyloxyaniline; phases: Nematic liquid crystal, Liquid, Air at 1 atmosphere
Property: Triple point temperature, K (Nematic liquid crystal); method: DTA
Triple point temperature, K	uncertainty
388.75	0.5

System: 4-octyloxybenzylidene-4'-nonyloxyaniline; phases: Crystal, Smectic liquid crystal, Air at 1 atmosphere
Property: Molar enthalpy of transition or fusion, kJ/mol (Crystal); method: DSC
Molar enthalpy of transition or fusion, kJ/mol	uncertainty
43.71	1.19

System: 4-octyloxybenzylidene-4'-nonyloxyaniline; phases: Smectic liquid crystal, Nematic liquid crystal, Air at 1 atmosphere
Property: Molar enthalpy of transition or fusion, kJ/mol (Smectic liquid crystal); method: DSC
Molar enthalpy of transition or fusion, kJ/mol	uncertainty
1.78	0.15

System: 4-octyloxybenzylidene-4'-nonyloxyaniline; phases: Nematic liquid crystal, Liquid, Air at 1 atmosphere
Property: Molar enthalpy of transition or fusion, kJ/mol (Nematic liquid crystal); method: DSC
Molar enthalpy of transition or fusion, kJ/mol	uncertainty
1.91	0.15

System: 4-octyloxybenzylidene-4'-decyloxyaniline; phases: Crystal, Smectic liquid crystal, Air at 1 atmosphere
Property: Triple point temperature, K (Crystal); method: DTA
Triple point temperature, K	uncertainty
365.55	0.5

System: 4-octyloxybenzylidene-4'-decyloxyaniline; phases: Smectic liquid crystal, Nematic liquid crystal, Air at 1 atmosphere
Property: Triple point temperature, K (Smectic liquid crystal); method: DTA
Triple point temperature, K	uncertainty
386.85	0.5

System: 4-octyloxybenzylidene-4'-decyloxyaniline; phases: Nematic liquid crystal, Liquid, Air at 1 atmosphere
Property: Triple point temperature, K (Nematic liquid crystal); method: DTA
Triple point temperature, K	uncertainty
388.55	0.5

System: 4-octyloxybenzylidene-4'-decyloxyaniline; phases: Crystal, Smectic liquid crystal, Air at 1 atmosphere
Property: Molar enthalpy of transition or fusion, kJ/mol (Crystal); method: DSC
Molar enthalpy of transition or fusion, kJ/mol	uncertainty
44	1.2

System: 4-octyloxybenzylidene-4'-decyloxyaniline; phases: Smectic liquid crystal, Liquid, Air at 1 atmosphere
Property: Molar enthalpy of transition or fusion, kJ/mol (Smectic liquid crystal); method: DSC
Molar enthalpy of transition or fusion, kJ/mol	uncertainty
8.43	0.31

System: 4-octyloxybenzylidene-4'-dodecyloxyaniline; phases: Crystal, Smectic liquid crystal, Air at 1 atmosphere
Property: Triple point temperature, K (Crystal); method: DTA
Triple point temperature, K	uncertainty
369.85	0.5

System: 4-octyloxybenzylidene-4'-dodecyloxyaniline; phases: Smectic liquid crystal, Nematic liquid crystal, Air at 1 atmosphere
Property: Triple point temperature, K (Smectic liquid crystal); method: DTA
Triple point temperature, K	uncertainty
386.65	0.5

System: 4-octyloxybenzylidene-4'-dodecyloxyaniline; phases: Crystal, Smectic liquid crystal, Air at 1 atmosphere
Property: Molar enthalpy of transition or fusion, kJ/mol (Crystal); method: DSC
Molar enthalpy of transition or fusion, kJ/mol	uncertainty
59.37	1.58

System: 4-octyloxybenzylidene-4'-dodecyloxyaniline; phases: Smectic liquid crystal, Nematic liquid crystal, Air at 1 atmosphere
Property: Molar enthalpy of transition or fusion, kJ/mol (Smectic liquid crystal); method: DSC
Molar enthalpy of transition or fusion, kJ/mol	uncertainty
10.09	0.35
