Measured thermophysical data. ERAS modeling of the excess molar enthalpies of binary liquid mixtures of 1-pentanol and 1-hexanol with acetonitrile at atmospheric pressure and 288, 298, 313 and 323K
Source: Thermochim. Acta, 2006, 10.1016/j.tca.2006.08.007
Compound 1: acetonitrile, C2H3N, InChI=1S/C2H3N/c1-2-3/h1H3, purity 99.99%
Compound 2: pentan-1-ol, C5H12O, InChI=1S/C5H12O/c1-2-3-4-5-6/h6H,2-5H2,1H3, purity 98.5%
Compound 3: hexan-1-ol, C6H14O, InChI=1S/C6H14O/c1-2-3-4-5-6-7/h7H,2-6H2,1H3, purity 99%

System: acetonitrile; phases: Liquid
Property: Refractive index (Na D-line) (Liquid); method: REFRACT
Temperature, K	Pressure, kPa	Refractive index (Na D-line)	uncertainty
293.15	101.325	1.3442	0.0001

System: acetonitrile; phases: Liquid
Property: Mass density, kg/m3 (Liquid); method: Vibrating tube method
Temperature, K	Pressure, kPa	Mass density, kg/m3	uncertainty
293.15	101.325	782.5	0.2

System: pentan-1-ol; phases: Liquid
Property: Refractive index (Na D-line) (Liquid); method: REFRACT
Temperature, K	Pressure, kPa	Refractive index (Na D-line)	uncertainty
293.15	101.325	1.4098	0.0003

System: pentan-1-ol; phases: Liquid
Property: Mass density, kg/m3 (Liquid); method: Vibrating tube method
Temperature, K	Pressure, kPa	Mass density, kg/m3	uncertainty
293.15	101.325	815.1	0.5

System: hexan-1-ol; phases: Liquid
Property: Refractive index (Na D-line) (Liquid); method: REFRACT
Temperature, K	Pressure, kPa	Refractive index (Na D-line)	uncertainty
293.15	101.325	1.418	0.0002

System: hexan-1-ol; phases: Liquid
Property: Mass density, kg/m3 (Liquid); method: Vibrating tube method
Temperature, K	Pressure, kPa	Mass density, kg/m3	uncertainty
293.15	101.325	818.7	0.3

System: pentan-1-ol + acetonitrile; phases: Liquid
Fixed: Pressure, kPa = 101
Property: Excess molar enthalpy (molar enthalpy of mixing), kJ/mol (Liquid); method: Isoperibol calorimetry
Mole fraction of pentan-1-ol	Temperature, K	Excess molar enthalpy (molar enthalpy of mixing), kJ/mol	uncertainty
0.0461	288.15	0.449	0.006
0.0464	298.15	0.505	0.007
0.0467	313.15	0.521	0.007
0.0469	323.15	0.531	0.007
0.0922	288.15	0.822	0.008
0.0927	298.15	0.9	0.009
0.0933	313.15	0.949	0.009
0.0937	323.15	0.975	0.01
0.1379	288.15	1.126	0.01
0.1386	298.15	1.217	0.011
0.1395	313.15	1.282	0.011
0.1401	323.15	1.315	0.011
0.1833	288.15	1.342	0.011
0.1841	298.15	1.469	0.012
0.1852	313.15	1.532	0.013
0.1859	323.15	1.557	0.013
0.2279	288.15	1.523	0.013
0.2289	298.15	1.656	0.014
0.2302	313.15	1.719	0.014
0.231	323.15	1.759	0.015
0.2717	288.15	1.633	0.014
0.2728	298.15	1.796	0.015
0.2742	313.15	1.864	0.015
0.2752	323.15	1.916	0.016
0.3144	288.15	1.8	0.015
0.3157	298.15	1.897	0.016
0.3172	313.15	1.97	0.016
0.3183	323.15	2.021	0.016
0.356	288.15	1.866	0.016
0.3574	298.15	1.966	0.016
0.359	313.15	2.049	0.017
0.3601	323.15	2.133	0.017
0.3963	288.15	1.906	0.016
0.4006	323.15	2.194	0.018
0.4188	298.15	2.006	0.016
0.4229	313.15	2.131	0.017
0.4494	288.15	1.931	0.016
0.4526	313.15	2.145	0.017
0.4538	323.15	2.305	0.019
0.4818	288.15	1.938	0.016
0.4833	298.15	2.017	0.016
0.485	313.15	2.151	0.017
0.4863	323.15	2.327	0.019
0.5174	288.15	1.933	0.016
0.5189	298.15	1.997	0.016
0.5207	313.15	2.124	0.017
0.5219	323.15	2.303	0.019
0.5567	288.15	1.903	0.016
0.5582	298.15	1.951	0.016
0.5599	313.15	2.074	0.017
0.5611	323.15	2.243	0.018
0.6002	288.15	1.846	0.015
0.6016	298.15	1.883	0.015
0.6033	313.15	2.001	0.016
0.6045	323.15	2.143	0.017
0.6486	288.15	1.752	0.014
0.65	298.15	1.8	0.015
0.6516	313.15	1.903	0.016
0.6527	323.15	2.049	0.017
0.7027	288.15	1.623	0.013
0.7039	298.15	1.664	0.014
0.7054	313.15	1.758	0.014
0.7064	323.15	1.895	0.016
0.7635	288.15	1.421	0.012
0.7645	298.15	1.451	0.012
0.7658	313.15	1.56	0.013
0.7667	323.15	1.716	0.014
0.8322	288.15	1.144	0.01
0.833	298.15	1.154	0.01
0.834	313.15	1.241	0.011
0.8346	323.15	1.402	0.012
0.9103	288.15	0.678	0.007
0.9108	298.15	0.7	0.007
0.9114	313.15	0.776	0.008
0.9118	323.15	0.906	0.009

System: acetonitrile + hexan-1-ol; phases: Liquid
Fixed: Pressure, kPa = 101
Property: Excess molar enthalpy (molar enthalpy of mixing), kJ/mol (Liquid); method: Isoperibol calorimetry
Mole fraction of hexan-1-ol	Temperature, K	Excess molar enthalpy (molar enthalpy of mixing), kJ/mol	uncertainty
0.0402	288.15	0.438	0.006
0.0405	298.15	0.506	0.007
0.0408	313.15	0.551	0.008
0.041	323.15	0.57	0.008
0.0809	288.15	0.788	0.008
0.0815	298.15	0.953	0.009
0.0819	313.15	0.995	0.01
0.0823	323.15	1.026	0.01
0.1219	288.15	1.069	0.01
0.1226	298.15	1.294	0.011
0.1233	313.15	1.332	0.012
0.1239	323.15	1.379	0.012
0.1629	288.15	1.286	0.011
0.1639	298.15	1.595	0.014
0.1648	313.15	1.596	0.014
0.1655	323.15	1.674	0.014
0.2038	288.15	1.464	0.012
0.205	298.15	1.811	0.015
0.206	313.15	1.84	0.015
0.2069	323.15	1.9	0.016
0.2445	288.15	1.615	0.013
0.2457	298.15	1.984	0.016
0.247	313.15	2.034	0.017
0.2479	323.15	2.113	0.017
0.2846	288.15	1.75	0.014
0.286	298.15	2.118	0.017
0.2874	313.15	2.155	0.018
0.2884	323.15	2.285	0.019
0.3241	288.15	1.855	0.015
0.3257	298.15	2.192	0.018
0.3271	313.15	2.254	0.018
0.3282	323.15	2.406	0.019
0.3628	288.15	1.951	0.016
0.3849	298.15	2.271	0.018
0.3888	313.15	2.387	0.019
0.39	323.15	2.619	0.021
0.4145	288.15	2.079	0.017
0.4178	313.15	2.419	0.02
0.419	323.15	2.671	0.021
0.4227	298.15	2.318	0.019
0.4465	288.15	2.104	0.017
0.4498	313.15	2.441	0.02
0.451	323.15	2.685	0.022
0.4554	298.15	2.329	0.019
0.4819	288.15	2.092	0.017
0.4853	313.15	2.444	0.02
0.4865	323.15	2.658	0.021
0.4916	298.15	2.325	0.019
0.5214	288.15	2.055	0.017
0.5248	313.15	2.415	0.019
0.526	323.15	2.607	0.021
0.5321	298.15	2.298	0.019
0.5657	288.15	1.998	0.016
0.569	313.15	2.341	0.019
0.5702	323.15	2.511	0.02
0.5774	298.15	2.242	0.018
0.6156	288.15	1.91	0.016
0.6188	313.15	2.222	0.018
0.6199	323.15	2.384	0.019
0.6286	298.15	2.116	0.017
0.6722	288.15	1.778	0.015
0.6752	313.15	2.043	0.017
0.6762	323.15	2.178	0.018
0.6866	298.15	1.967	0.016
0.7368	288.15	1.595	0.014
0.7395	313.15	1.82	0.015
0.7404	323.15	1.895	0.016
0.753	298.15	1.711	0.014
0.8114	288.15	1.29	0.012
0.8134	313.15	1.479	0.013
0.8142	323.15	1.49	0.013
0.8295	298.15	1.293	0.011
0.898	288.15	0.798	0.009
0.8993	313.15	0.937	0.009
0.8997	323.15	0.933	0.009
0.9187	298.15	0.69	0.007
0.958	298.15	0.39	0.006
