Measured thermophysical data. Evaluation of thermodynamic properties for non-crystallizable ionic liquids
Source: Thermochim. Acta, 2015, 10.1016/j.tca.2015.01.022
Compound 1: 1-ethyl-3-methylimidazolium ethyl sulfate, C8H16N2O4S, InChI=1S/C6H11N2.C2H6O4S/c1-3-8-5-4-7(2)6-8;1-2-6-7(3,4)5/h4-6H,3H2,1-2H3;2H2,1H3,(H,3,4,5)/q+1;/p-1, purity 99%
Compound 2: 1-butyl-3-methylimidazolium tetrafluoroborate, C8H15BF4N2, InChI=1S/C8H15N2.BF4/c1-3-4-5-10-7-6-9(2)8-10;2-1(3,4)5/h6-8H,3-5H2,1-2H3;/q+1;-1, purity 99%
Compound 3: 1-methyl-3-octylimidazolium tetrafluoroborate, C12H23BF4N2, InChI=1S/C12H23N2.BF4/c1-3-4-5-6-7-8-9-14-11-10-13(2)12-14;2-1(3,4)5/h10-12H,3-9H2,1-2H3;/q+1;-1, purity 99%

System: 1-ethyl-3-methylimidazolium ethyl sulfate; phases: Glass, Liquid, Gas
Property: Triple point temperature, K (Glass); method: Adiabatic calorimetry
Triple point temperature, K	uncertainty
185	1

System: 1-ethyl-3-methylimidazolium ethyl sulfate; phases: Glass
Fixed: Pressure, kPa = 101.325
Property: Molar heat capacity at constant pressure, J/K/mol (Glass); method: Small (less than 1 g) adiabatic calorimetry
Temperature, K	Molar heat capacity at constant pressure, J/K/mol	uncertainty
5	1.02	0.04
10	6.55	0.14
15	15.63	0.23
20	26.45	0.27
25	37.93	0.32
30	49.4	0.32
35	60.18	0.37
40	70.37	0.43
45	79.98	0.48
50	89	0.53
60	105.1	0.6
70	119	0.7
80	131.5	0.7
90	143	0.8
100	153.7	0.8
110	163.7	0.9
120	173.5	0.9
130	183.1	1
140	192.8	1.1
150	202.6	1.1
160	212.7	1.2
170	224.3	1.2
180	242.6	1.3

System: 1-ethyl-3-methylimidazolium ethyl sulfate; phases: Liquid
Fixed: Pressure, kPa = 101.325
Property: Molar heat capacity at constant pressure, J/K/mol (Liquid); method: Small (less than 1 g) adiabatic calorimetry
Temperature, K	Molar heat capacity at constant pressure, J/K/mol	uncertainty
190	354.1	1.8
200	355.5	1.8
210	357.2	1.8
220	359.2	1.8
230	361.6	1.8
240	364.3	1.9
250	367.1	1.9
260	370.1	1.9
270	373.3	1.9
280	376.4	1.9
290	379.6	1.9
298.15	382.8	1.9
300	383.6	1.9
310	388	2
320	392.6	2
330	397.3	2
340	402.3	2
350	407.5	2.1
360	412.8	2.1
370	418.4	2.2

System: 1-ethyl-3-methylimidazolium ethyl sulfate; phases: Glass
Fixed: Pressure, kPa = 101.325
Property: Molar heat capacity at constant pressure, J/K/mol (Glass); method: Small (less than 1 g) adiabatic calorimetry
Temperature, K	Molar heat capacity at constant pressure, J/K/mol	uncertainty
80.4	132.1	0.8
82.22	134.2	0.8
84.05	136.2	0.8
85.88	138.3	0.8
87.71	140.4	0.8
89.54	142.4	0.8
91.38	144.4	0.8
93.22	146.5	0.8
95.06	148.5	0.8
96.91	150.4	0.8
98.76	152.4	0.8
100.61	154.3	0.8
102.46	156.2	0.9
104.31	158	0.9
106.16	159.9	0.9
108.05	161.9	0.9
109.91	163.7	0.9
111.77	165.5	0.9
113.63	167.3	0.9
115.49	169.2	0.9
117.36	171	0.9
119.23	172.8	0.9
121.1	174.6	0.9
122.98	176.4	1
124.85	178.2	1
126.73	180	1
128.61	181.8	1
130.5	183.6	1
132.38	185.4	1
134.27	187.2	1
136.16	189.1	1
138.05	190.9	1
139.95	192.7	1
141.84	194.5	1
143.74	196.4	1.1
145.64	198.2	1.1
147.53	200.1	1.1
149.43	202	1.1
151.33	203.9	1.1
153.23	205.8	1.1
155.13	207.8	1.1
157.04	209.7	1.1
158.94	211.7	1.1
160.84	213.8	1.1
162.75	215.8	1.1
164.67	217.8	1.2
166.58	220.1	1.2
168.51	222.3	1.2
170.43	224.8	1.2
172.36	227.7	1.2
174.29	230.5	1.2
176.22	233.7	1.2
178.16	237.7	1.3
180.1	242.9	1.3
182.03	250.7	1.3
183.91	266.1	1.4
155.16	207.7	1.1
157.27	209.9	1.1
159.27	212	1.1
161.27	214.3	1.1
163.26	216.4	1.1
165.26	218.6	1.2
167.25	221	1.2
169.24	223.4	1.2
171.36	226.2	1.2
173.44	229.3	1.2
175.43	232.4	1.2
177.41	236.3	1.2
179.39	240.8	1.3
181.34	247.6	1.3
183.25	259.2	1.4
124.42	177.8	1
126.41	179.7	1
128.28	181.4	1
130.16	183.3	1
132.03	185.1	1
133.91	186.9	1
135.79	188.7	1
137.67	190.6	1
139.55	192.4	1
141.43	194.2	1
143.31	196	1
145.19	197.9	1.1
147.07	199.7	1.1
148.95	201.6	1.1
150.83	203.5	1.1
152.71	205.3	1.1
154.59	207.2	1.1
156.47	209.1	1.1
158.34	211.1	1.1
160.22	213.1	1.1
162.09	215	1.1
163.96	217.2	1.2
165.83	219.3	1.2
167.7	221.5	1.2
169.57	223.8	1.2
171.44	226.5	1.2
173.31	229.1	1.2
175.18	232	1.2
177.04	235.4	1.2
178.9	239.4	1.3
180.75	245	1.3
182.57	253.8	1.3
184.33	269.6	1.4
7.21	2.892	0.072
7.52	3.232	0.078
7.89	3.662	0.086
8.26	4.116	0.093
8.64	4.61	0.102
9.02	5.113	0.11
9.4	5.662	0.118
9.78	6.226	0.127
10.17	6.81	0.135
10.66	7.609	0.146
11.26	8.587	0.158
11.87	9.634	0.17
12.47	10.71	0.18
13.09	11.85	0.19
13.7	13.01	0.2
14.32	14.24	0.21
14.95	15.52	0.22
15.69	17.06	0.23
16.54	18.87	0.24
17.39	20.71	0.25
18.24	22.56	0.25
19.1	24.43	0.26
19.96	26.32	0.26
21.16	29.04	0.28
22.71	32.61	0.3
24.26	36.22	0.31
25.81	39.86	0.33
27.37	43.43	0.34
28.95	47.02	0.35
30.54	50.61	0.32
32.28	54.42	0.34
33.12	56.24	0.35
35.01	60.28	0.37
36.91	64.15	0.39
38.82	68	0.41
40.72	71.74	0.43
42.73	75.61	0.45
44.84	79.65	0.48
46.95	83.58	0.5
49.06	87.43	0.52
51.17	91.07	0.54
53.29	94.63	0.55
55.41	98.01	0.57
57.53	101.3	0.6
59.66	104.5	0.6
61.79	107.7	0.6
63.92	110.7	0.6
66.06	113.7	0.7
68.21	116.6	0.7
70.35	119.5	0.7
72.59	122.4	0.7
74.94	125.3	0.7
77.3	128.3	0.7
79.66	131.2	0.8
82.02	133.9	0.8
84.39	136.7	0.8

System: 1-ethyl-3-methylimidazolium ethyl sulfate; phases: Liquid
Fixed: Pressure, kPa = 101.325
Property: Molar heat capacity at constant pressure, J/K/mol (Liquid); method: Small (less than 1 g) adiabatic calorimetry
Temperature, K	Molar heat capacity at constant pressure, J/K/mol	uncertainty
185.68	306.2	1.6
187.36	351.6	1.8
189.2	353	1.8
185.05	286.4	1.5
186.66	340.5	1.8
188.23	351.6	1.8
189.84	354	1.8
191.46	354.4	1.8
193.08	354.7	1.8
194.7	354.7	1.8
196.33	354.9	1.8
197.95	355.1	1.8
199.58	355.4	1.8
201.27	355.6	1.8
203	355.9	1.8
204.74	356.1	1.8
206.48	356.6	1.8
208.23	356.8	1.8
209.97	357	1.8
211.72	357.5	1.8
213.47	357.7	1.8
215.23	358	1.8
185.91	312.8	1.7
187.36	351.8	1.8
188.86	353	1.8
190.38	354.4	1.8
192.04	354.7	1.8
193.85	354.7	1.8
195.65	354.9	1.8
197.47	355.1	1.8
199.29	355.4	1.8
201.11	355.6	1.8
202.93	356.1	1.8
204.76	356.6	1.8
206.59	356.8	1.8
208.43	357	1.8
210.26	357.3	1.8
212.11	357.7	1.8
213.95	358	1.8
215.8	358.5	1.8
217.65	358.7	1.8
219.5	359.2	1.8
221.36	359.6	1.8
223.21	359.9	1.8
225.07	360.3	1.9
226.93	360.8	1.9
228.8	361.3	1.9
230.66	361.8	1.9
232.53	362.2	1.9
234.39	362.7	1.9
236.26	363.2	1.9
238.13	363.9	1.9
240.01	364.4	1.9
241.88	364.8	1.9
243.76	365.3	1.9
245.64	365.8	1.9
247.52	366.5	1.9
249.39	367	1.9
251.27	367.4	1.9
253.16	368.1	1.9
255.04	368.6	1.9
256.92	369.1	1.9
258.8	369.8	1.9
260.69	370.3	1.9
201.65	355.9	1.8
203.57	356.1	1.8
205.5	356.3	1.8
207.44	356.8	1.8
209.37	357.3	1.8
211.31	357.5	1.8
213.25	358	1.8
215.19	358.2	1.8
217.12	358.7	1.8
219.06	359.2	1.8
221	359.4	1.8
222.94	359.9	1.8
224.88	360.3	1.9
226.82	361.1	1.9
228.76	361.3	1.9
230.7	361.8	1.9
232.64	362.2	1.9
234.58	362.7	1.9
236.53	363.4	1.9
238.47	363.9	1.9
240.41	364.6	1.9
242.36	365.1	1.9
244.3	365.5	1.9
246.24	366.2	1.9
248.19	366.7	1.9
250.13	367.4	1.9
252.07	367.9	1.9
254.02	368.6	1.9
255.96	369.1	1.9
257.91	369.8	1.9
259.85	370.3	1.9
261.8	370.7	1.9
263.74	371.4	1.9
265.69	372.2	1.9
267.63	372.6	1.9
269.58	373.3	1.9
271.52	373.8	1.9
273.46	374.3	1.9
275.41	375	1.9
277.35	375.7	1.9
279.3	376.2	1.9
281.24	376.6	1.9
283.19	377.4	1.9
285.13	378.1	1.9
287.08	378.3	1.9
289.02	379.2	1.9
290.96	380	1.9
292.91	380.7	2
294.85	381.4	2
296.79	382.1	2
298.74	383	2
300.68	383.7	2
302.62	384.7	2
304.57	385.4	2
306.51	386.3	2
308.45	387.3	2
310.39	388	2
312.34	388.9	2
314.28	389.6	2
316.22	390.6	2
318.17	391.5	2
320.11	392.5	2
322.05	393.7	2
324	394.4	2
325.94	395.3	2
327.89	396.3	2
329.83	397.2	2
331.77	398.1	2
333.72	399.1	2
335.66	400.3	2
337.61	401.5	2.1
339.55	402.2	2.1
341.5	403.1	2.1
343.44	404.3	2.1
345.39	405	2.1
347.33	405.9	2.1
349.28	407.1	2.1
351.22	408.1	2.1
353.17	409.3	2.1
355.11	410.2	2.1
357.06	411.1	2.1
359	412.1	2.1
360.94	413.3	2.1
362.88	414.2	2.1
364.83	415.2	2.1
366.77	416.3	2.1

System: 1-ethyl-3-methylimidazolium ethyl sulfate; phases: Glass
Fixed: Pressure, kPa = 101.325
Property: Molar entropy, J/K/mol (Glass); method: Small (less than 1 g) adiabatic calorimetry
Temperature, K	Molar entropy, J/K/mol	uncertainty
5	0.34	0.032
10	2.48	0.09
15	6.76	0.19
20	12.72	0.27
25	19.85	0.34
30	27.78	0.39
35	36.22	0.46
40	44.92	0.52
45	53.77	0.6
50	62.67	0.66
60	80.36	0.81
70	97.62	0.94
80	114.3	1
90	130.5	1.2
100	146.1	1.3
110	161.2	1.4
120	175.9	1.5
130	190.2	1.6
140	204.1	1.7
150	217.7	1.9
160	231.1	1.9
170	244.4	2.1
180	257.6	2.1

System: 1-ethyl-3-methylimidazolium ethyl sulfate; phases: Liquid
Fixed: Pressure, kPa = 101.325
Property: Molar entropy, J/K/mol (Liquid); method: Small (less than 1 g) adiabatic calorimetry
Temperature, K	Molar entropy, J/K/mol	uncertainty
190	273.7	2.3
200	291.9	2.4
210	309.3	2.5
220	325.9	2.6
230	341.9	2.8
240	357.4	2.8
250	372.3	3
260	386.8	3
270	400.8	3.2
280	414.4	3.2
290	427.7	3.4
298.15	438.3	3.4
300	440.6	3.4
310	453.3	3.6
320	465.7	3.6
330	477.8	3.7
340	489.8	3.8
350	501.5	3.9
360	513	4
370	524.4	4.1

System: 1-ethyl-3-methylimidazolium ethyl sulfate; phases: Glass
Fixed: Pressure, kPa = 101.325
Property: Molar enthalpy function {Hm(T)-Hm(0)}/T, J/K/mol (Glass); method: Small (less than 1 g) adiabatic calorimetry
Temperature, K	Molar enthalpy function {Hm(T)-Hm(0)}/T, J/K/mol	uncertainty
5	0.255	0.02
10	1.83	0.05
15	4.84	0.09
20	8.87	0.12
25	13.53	0.14
30	18.56	0.18
35	23.74	0.2
40	28.94	0.22
45	34.08	0.25
50	39.13	0.28
60	48.82	0.32
70	57.87	0.37
80	66.3	0.41
90	74.19	0.47
100	81.61	0.5
110	88.62	0.53
120	95.29	0.57
130	101.7	0.6
140	107.8	0.6
150	113.8	0.7
160	119.7	0.7
170	125.5	0.7
180	131.4	0.7

System: 1-ethyl-3-methylimidazolium ethyl sulfate; phases: Liquid
Fixed: Pressure, kPa = 101.325
Property: Molar enthalpy function {Hm(T)-Hm(0)}/T, J/K/mol (Liquid); method: Small (less than 1 g) adiabatic calorimetry
Temperature, K	Molar enthalpy function {Hm(T)-Hm(0)}/T, J/K/mol	uncertainty
190	140.2	0.8
200	150.9	0.8
210	160.7	0.8
220	169.7	0.9
230	177.9	1
240	185.7	1
250	192.9	1.1
260	199.6	1.1
270	206	1.1
280	212	1.2
290	217.7	1.2
298.15	222.2	1.2
300	223.2	1.2
310	228.4	1.2
320	233.5	1.2
330	238.4	1.3
340	243.1	1.3
350	247.8	1.3
360	252.3	1.3
370	256.7	1.3

System: 1-butyl-3-methylimidazolium tetrafluoroborate; phases: Glass, Liquid, Gas
Property: Triple point temperature, K (Glass); method: Adiabatic calorimetry
Triple point temperature, K	uncertainty
181	1

System: 1-butyl-3-methylimidazolium tetrafluoroborate; phases: Glass
Fixed: Pressure, kPa = 101.325
Property: Molar heat capacity at constant pressure, J/K/mol (Glass); method: Small (less than 1 g) adiabatic calorimetry
Temperature, K	Molar heat capacity at constant pressure, J/K/mol	uncertainty
5	1.47	0.05
10	8.59	0.18
15	19.58	0.28
20	32.08	0.32
25	44.7	0.38
30	56.8	0.36
35	67.76	0.41
40	77.68	0.47
45	86.86	0.52
50	95.33	0.56
60	110.5	0.6
70	124.2	0.7
80	136.7	0.7
90	148.1	0.8
100	158.7	0.8
110	169	0.9
120	179.2	1
130	189.1	1
140	198.9	1.1
150	208.9	1.1
160	219.3	1.2
170	230.8	1.2
180	260.4	1.3

System: 1-butyl-3-methylimidazolium tetrafluoroborate; phases: Liquid
Fixed: Pressure, kPa = 101.325
Property: Molar heat capacity at constant pressure, J/K/mol (Liquid); method: Small (less than 1 g) adiabatic calorimetry
Temperature, K	Molar heat capacity at constant pressure, J/K/mol	uncertainty
190	331.5	1.7
200	333	1.7
210	335.1	1.7
220	337.5	1.8
230	340.4	1.8
240	343.6	1.8
250	347.2	1.8
260	350.9	1.8
270	354.9	1.8
280	359	1.8
290	363.2	1.9
298.15	366.7	1.9
300	367.6	1.9
310	372.3	1.9
320	377	1.9
330	381.7	1.9
340	386.4	1.9
350	391.1	2
360	395.9	2
370	400.6	2

System: 1-butyl-3-methylimidazolium tetrafluoroborate; phases: Glass
Fixed: Pressure, kPa = 101.325
Property: Molar heat capacity at constant pressure, J/K/mol (Glass); method: Small (less than 1 g) adiabatic calorimetry
Temperature, K	Molar heat capacity at constant pressure, J/K/mol	uncertainty
5.16	1.62	0.048
5.39	1.822	0.052
5.67	2.094	0.058
5.96	2.397	0.064
6.28	2.762	0.071
6.64	3.192	0.08
7	3.657	0.089
7.36	4.172	0.098
7.73	4.709	0.108
8.11	5.283	0.118
8.49	5.896	0.128
8.87	6.54	0.138
9.26	7.211	0.149
9.64	7.915	0.159
10.03	8.641	0.17
10.52	9.597	0.183
11.13	10.83	0.2
11.75	12.13	0.21
12.36	13.44	0.23
12.97	14.81	0.24
13.59	16.22	0.25
14.22	17.7	0.26
14.85	19.2	0.28
15.58	20.98	0.29
16.44	23.16	0.3
17.29	25.28	0.3
18.15	27.41	0.31
19.01	29.55	0.31
19.88	31.75	0.31
21.08	34.8	0.33
22.63	38.75	0.35
24.2	42.72	0.37
25.76	46.64	0.38
27.21	50.17	0.39
28.7	53.74	0.4
30.28	57.41	0.36
32.02	61.38	0.38
33.93	65.51	0.4
35.84	69.47	0.42
37.75	73.26	0.44
39.66	76.94	0.46
41.67	80.75	0.48
43.78	84.66	0.5
45.89	88.43	0.52
48	92.13	0.54
50.12	95.61	0.56
52.24	99	0.58
54.36	102.2	0.6
56.48	105.3	0.6
58.61	108.4	0.6
60.75	111.5	0.6
62.88	114.5	0.7
65.01	117.4	0.7
67.14	120.3	0.7
69.28	123.1	0.7
71.52	126	0.7
73.86	129.1	0.7
76.21	132.1	0.8
78.57	135.1	0.8
80.92	137.8	0.8
83.28	140.7	0.8
85.56	143.1	0.8
88.1	145.9	0.8
90.56	148.7	0.8
93.04	151.5	0.8
95.54	154.3	0.8
98.06	156.9	0.9
100.58	159.4	0.9
103.12	162	0.9
105.68	164.7	0.9
108.24	167.2	0.9
110.81	169.8	0.9
113.39	172.7	0.9
115.97	175.1	0.9
118.56	177.8	1
121.16	180.5	1
123.76	183.1	1
126.37	185.5	1
128.98	188.1	1
131.59	190.7	1
134.2	193.3	1
136.82	195.9	1
139.43	198.3	1.1
142.05	201.1	1.1
144.67	203.6	1.1
147.29	206.3	1.1
149.9	209.1	1.1
152.52	211.6	1.1
155.13	214.2	1.1
157.74	216.9	1.2
160.35	219.7	1.2
162.96	222.4	1.2
165.57	225.6	1.2
168.19	228.6	1.2
170.79	232	1.2
173.37	236	1.2
175.96	241.5	1.3
178.51	249.7	1.3
180.97	268.6	1.4
78.59	135	0.8
81.08	138.2	0.8
83.48	140.7	0.8
85.91	143.3	0.8
88.36	146.1	0.8
90.83	148.8	0.8
93.31	151.6	0.8
95.81	154.3	0.8
98.33	156.9	0.9
100.87	159.6	0.9
103.41	162.3	0.9
105.97	164.9	0.9
108.53	167.4	0.9
111.11	170.1	0.9
113.69	172.7	0.9
116.27	175.4	0.9
118.87	178	1
121.47	180.7	1
124.08	183.2	1
126.68	185.8	1
129.3	188.4	1
131.91	191	1
134.53	193.6	1
137.15	196.2	1.1
139.77	198.7	1.1
142.38	201.3	1.1
145	203.9	1.1
147.63	206.5	1.1
150.24	209.1	1.1
152.86	211.8	1.1
155.48	214.4	1.1
158.09	217.2	1.2
160.71	219.9	1.2
163.32	222.8	1.2
165.93	225.7	1.2
168.53	228.9	1.2
171.13	232.5	1.2
173.73	236.7	1.2
176.31	242.4	1.3
178.86	251.9	1.3
133.42	192.4	1
136.1	195	1
138.71	197.7	1.1
141.33	200.2	1.1
143.94	202.8	1.1
146.55	205.4	1.1
149.17	208	1.1
151.78	210.6	1.1
154.39	213.3	1.1
157	216	1.1
159.61	218.7	1.2
162.21	221.6	1.2
164.8	224.5	1.2
167.4	227.5	1.2
169.99	230.8	1.2
172.58	234.6	1.2
175.18	239.5	1.3
177.73	247	1.3
180.22	262.1	1.4

System: 1-butyl-3-methylimidazolium tetrafluoroborate; phases: Liquid
Fixed: Pressure, kPa = 101.325
Property: Molar heat capacity at constant pressure, J/K/mol (Liquid); method: Small (less than 1 g) adiabatic calorimetry
Temperature, K	Molar heat capacity at constant pressure, J/K/mol	uncertainty
183.17	322.3	1.7
185.3	329.5	1.7
187.48	331.6	1.7
181.29	276.1	1.5
183.45	329.7	1.7
185.6	330	1.7
187.79	331.2	1.7
189.98	331.5	1.7
192.17	331.7	1.7
194.37	332	1.7
196.58	332.3	1.7
198.79	332.6	1.7
263.82	351.8	1.8
266.12	352.8	1.8
268.4	353.7	1.8
270.68	354.6	1.8
272.95	355.5	1.8
275.23	356.5	1.8
277.5	357.6	1.8
279.78	358.5	1.8
282.05	359.5	1.8
284.33	360.3	1.9
286.6	361.3	1.9
288.87	362.4	1.9
291.14	363.3	1.9
293.42	364.3	1.9
295.69	365.2	1.9
297.95	366.4	1.9
300.22	367.4	1.9
302.49	368.5	1.9
304.75	369.6	1.9
307.02	370.7	1.9
309.28	371.7	1.9
311.54	372.7	1.9
313.8	373.8	1.9
316.06	375	1.9
318.32	376.1	1.9
320.58	377	1.9
322.83	378	1.9
325.09	379.3	1.9
327.34	380.1	1.9
329.59	381.1	2
331.84	382.2	2
334.09	383.3	2
336.34	384.3	2
338.58	385.6	2
340.83	386.7	2
343.08	387.6	2
345.32	388.7	2
347.57	389.7	2
349.81	390.7	2
352.05	391.7	2
354.29	392.8	2
356.53	393.9	2
358.76	394.9	2
361	395.8	2
363.23	397.1	2
365.46	398	2
367.7	399	2
182.48	309.1	1.6
184.59	329.2	1.7
186.77	331	1.7
188.95	331.4	1.7
191.13	331.6	1.7
193.32	331.9	1.7
195.51	332.2	1.7
197.71	332.5	1.7
199.91	332.8	1.7
202.13	333.2	1.7
204.34	333.6	1.7
206.55	334	1.7
208.77	334.5	1.7
210.99	334.9	1.7
213.22	335.4	1.7
215.44	335.9	1.7

System: 1-butyl-3-methylimidazolium tetrafluoroborate; phases: Glass
Fixed: Pressure, kPa = 101.325
Property: Molar entropy, J/K/mol (Glass); method: Small (less than 1 g) adiabatic calorimetry
Temperature, K	Molar entropy, J/K/mol	uncertainty
5	0.495	0.036
10	3.39	0.12
15	8.86	0.25
20	16.2	0.34
25	24.72	0.43
30	33.95	0.47
35	43.55	0.54
40	53.25	0.62
45	62.94	0.7
50	72.53	0.78
60	91.28	0.93
70	109.3	1
80	126.8	1.2
90	143.5	1.3
100	159.7	1.4
110	175.3	1.5
120	190.4	1.7
130	205.2	1.7
140	219.6	1.9
150	233.6	1.9
160	247.4	2.1
170	261	2.2
180	274.8	2.3

System: 1-butyl-3-methylimidazolium tetrafluoroborate; phases: Liquid
Fixed: Pressure, kPa = 101.325
Property: Molar entropy, J/K/mol (Liquid); method: Small (less than 1 g) adiabatic calorimetry
Temperature, K	Molar entropy, J/K/mol	uncertainty
190	291.9	2.4
200	309	2.5
210	325.3	2.6
220	340.9	2.8
230	356	2.8
240	370.5	3
250	384.6	3
260	398.3	3.2
270	411.6	3.3
280	424.6	3.4
290	437.3	3.5
298.15	447.4	3.5
300	449.7	3.6
310	461.8	3.7
320	473.7	3.7
330	485.4	3.9
340	496.8	3.9
350	508.1	3.9
360	519.2	4.1
370	530.1	4.1

System: 1-butyl-3-methylimidazolium tetrafluoroborate; phases: Glass
Fixed: Pressure, kPa = 101.325
Property: Molar enthalpy function {Hm(T)-Hm(0)}/T, J/K/mol (Glass); method: Small (less than 1 g) adiabatic calorimetry
Temperature, K	Molar enthalpy function {Hm(T)-Hm(0)}/T, J/K/mol	uncertainty
5	0.371	0.022
10	2.48	0.06
15	6.27	0.11
20	11.15	0.16
25	16.6	0.18
30	22.31	0.2
35	28.03	0.23
40	33.63	0.26
45	39.04	0.28
50	44.25	0.3
60	54.06	0.36
70	63.1	0.4
80	71.53	0.44
90	79.41	0.49
100	86.81	0.53
110	93.82	0.56
120	100.5	0.6
130	106.9	0.6
140	113.2	0.7
150	119.2	0.7
160	125.1	0.7
170	131	0.7
180	137.1	0.8

System: 1-butyl-3-methylimidazolium tetrafluoroborate; phases: Liquid
Fixed: Pressure, kPa = 101.325
Property: Molar enthalpy function {Hm(T)-Hm(0)}/T, J/K/mol (Liquid); method: Small (less than 1 g) adiabatic calorimetry
Temperature, K	Molar enthalpy function {Hm(T)-Hm(0)}/T, J/K/mol	uncertainty
190	146.6	0.8
200	155.8	0.8
210	164.3	0.9
220	172.1	0.9
230	179.4	1
240	186.2	1
250	192.5	1.1
260	198.6	1.1
270	204.3	1.1
280	209.7	1.1
290	214.9	1.2
298.15	219	1.2
300	220	1.2
310	224.8	1.2
320	229.5	1.2
330	234	1.2
340	238.4	1.3
350	242.7	1.3
360	246.9	1.3
370	251	1.3

System: 1-methyl-3-octylimidazolium tetrafluoroborate; phases: Glass, Liquid, Gas
Property: Triple point temperature, K (Glass); method: Adiabatic calorimetry
Triple point temperature, K	uncertainty
190	1

System: 1-methyl-3-octylimidazolium tetrafluoroborate; phases: Crystal, Liquid, Gas
Property: Triple point temperature, K (Crystal); method: Adiabatic calorimetry
Triple point temperature, K	uncertainty
245.81	0.04

System: 1-methyl-3-octylimidazolium tetrafluoroborate; phases: Crystal, Liquid, Gas
Property: Molar enthalpy of transition or fusion, kJ/mol (Crystal); method: Adiabatic calorimetry
Molar enthalpy of transition or fusion, kJ/mol	uncertainty
15.31	0.05

System: 1-methyl-3-octylimidazolium tetrafluoroborate; phases: Glass
Fixed: Pressure, kPa = 101.325
Property: Molar heat capacity at constant pressure, J/K/mol (Glass); method: Small (less than 1 g) adiabatic calorimetry
Temperature, K	Molar heat capacity at constant pressure, J/K/mol	uncertainty
5	1.78	0.06
10	10.23	0.2
15	23.07	0.33
20	37.79	0.37
25	52.78	0.44
30	67.29	0.41
35	80.71	0.48
40	92.99	0.55
45	104.6	0.6
50	115.6	0.7
60	135	0.7
70	152.5	0.9
80	169.5	1
90	185.3	1
100	200.2	1.1
110	214.7	1.2
120	229	1.2
130	243.4	1.3
140	258.2	1.3
150	273.5	1.4
160	289.3	1.5
170	305.6	1.6
180	325.4	1.7
190	380.4	1.9

System: 1-methyl-3-octylimidazolium tetrafluoroborate; phases: Crystal
Fixed: Pressure, kPa = 101.325
Property: Molar heat capacity at constant pressure, J/K/mol (Crystal); method: Small (less than 1 g) adiabatic calorimetry
Temperature, K	Molar heat capacity at constant pressure, J/K/mol	uncertainty
5	1.51	0.06
10	9.42	0.19
15	21.91	0.31
20	36.32	0.36
25	51.22	0.43
30	65.66	0.4
35	79.1	0.48
40	91.48	0.54
45	103.2	0.6
50	114.1	0.7
60	133.3	0.7
70	150.1	0.9
80	165.4	1
90	179.5	1
100	192.5	1.1
110	204.9	1.1
120	216.7	1.2
130	228.2	1.2
140	239.7	1.3
150	251.3	1.3
160	263.2	1.4
170	276	1.4
180	290	1.5
190	305	1.6
200	320	1.7
210	335	1.7
220	349.9	1.8
230	364.9	1.9
240	379.9	1.9
245.81	388.6	2

System: 1-methyl-3-octylimidazolium tetrafluoroborate; phases: Liquid
Fixed: Pressure, kPa = 101.325
Property: Molar heat capacity at constant pressure, J/K/mol (Liquid); method: Small (less than 1 g) adiabatic calorimetry
Temperature, K	Molar heat capacity at constant pressure, J/K/mol	uncertainty
200	464.9	2.4
210	463.4	2.4
220	463.8	2.4
230	465.8	2.4
240	468.9	2.4
245.81	471	2.4
250	472.6	2.4
260	477.3	2.4
270	482.4	2.4
280	487.7	2.5
290	493.2	2.5
298.15	497.8	2.5
300	498.9	2.5
310	504.8	2.5
320	510.9	2.6
330	517.1	2.6
340	523.6	2.7
350	530.3	2.7
360	537.1	2.7
370	544.2	2.8

System: 1-methyl-3-octylimidazolium tetrafluoroborate; phases: Glass
Fixed: Pressure, kPa = 101.325
Property: Molar entropy, J/K/mol (Glass); method: Small (less than 1 g) adiabatic calorimetry
Temperature, K	Molar entropy, J/K/mol	uncertainty
0	13.9	4.4
5	14.5	4.4
10	18	4.4
15	24.5	4.2
20	33.1	4.2
25	43.1	4.2
30	54.1	4.1
35	65.5	4.1
40	77.1	4.1
45	88.7	4.1
50	100.3	4
60	123.1	4
70	145.2	3.9
80	166.7	3.9
90	187.6	3.7
100	207.9	3.8
110	227.7	3.8
120	247	3.7
130	265.9	3.7
140	284.4	3.7
150	302.8	3.6
160	320.9	3.7
170	338.9	3.7
180	356.9	3.7
190	375.5	3.8

System: 1-methyl-3-octylimidazolium tetrafluoroborate; phases: Crystal
Fixed: Pressure, kPa = 101.325
Property: Molar entropy, J/K/mol (Crystal); method: Small (less than 1 g) adiabatic calorimetry
Temperature, K	Molar entropy, J/K/mol	uncertainty
5	0.507	0.037
10	3.61	0.12
15	9.69	0.27
20	17.96	0.38
25	27.66	0.47
30	38.29	0.51
35	49.44	0.61
40	60.82	0.69
45	72.28	0.79
50	83.73	0.88
60	106.3	1
70	128.1	1.2
80	149.2	1.4
90	169.5	1.5
100	189.1	1.7
110	208	1.9
120	226.3	1.9
130	244.2	2.1
140	261.5	2.2
150	278.4	2.3
160	295	2.4
170	311.3	2.6
180	327.5	2.6
190	343.6	2.8
200	359.6	3
210	375.6	3
220	391.5	3.2
230	407.4	3.2
240	423.2	3.4
245.81	432.4	3.4

System: 1-methyl-3-octylimidazolium tetrafluoroborate; phases: Liquid
Fixed: Pressure, kPa = 101.325
Property: Molar entropy, J/K/mol (Liquid); method: Small (less than 1 g) adiabatic calorimetry
Temperature, K	Molar entropy, J/K/mol	uncertainty
200	398.7	3.7
210	421.4	3.7
220	442.9	3.8
230	463.6	3.8
240	483.5	3.9
245.81	494.7	3.9
250	502.7	3.9
260	521.3	4.1
270	539.4	4.3
280	557	4.3
290	574.3	4.5
298.15	588	4.6
300	591.1	4.6
310	607.5	4.8
320	623.7	4.8
330	639.5	5
340	655	5
350	670.3	5.2
360	685.3	5.4
370	700.1	5.4

System: 1-methyl-3-octylimidazolium tetrafluoroborate; phases: Glass
Fixed: Pressure, kPa = 101.325
Property: Molar enthalpy function {Hm(T)-Hm(0)}/T, J/K/mol (Glass); method: Small (less than 1 g) adiabatic calorimetry
Temperature, K	Molar enthalpy function {Hm(T)-Hm(0)}/T, J/K/mol	uncertainty
5	1311	75
10	658	37
15	444	24
20	341	18
25	282	14
30	245	12
35	220	10
40	203.8	9
45	192.1	8
50	183.9	7.1
60	174.2	5.9
70	169.8	5
80	168.8	4.4
90	169.7	3.9
100	172	3.5
110	175.2	3.1
120	179.1	2.8
130	183.5	2.6
140	188.3	2.4
150	193.5	2.2
160	199	2
170	204.8	1.9
180	210.9	1.8
190	217.9	1.7

System: 1-methyl-3-octylimidazolium tetrafluoroborate; phases: Crystal
Fixed: Pressure, kPa = 101.325
Property: Molar enthalpy function {Hm(T)-Hm(0)}/T, J/K/mol (Crystal); method: Small (less than 1 g) adiabatic calorimetry
Temperature, K	Molar enthalpy function {Hm(T)-Hm(0)}/T, J/K/mol	uncertainty
5	0.38	0.023
10	2.65	0.07
15	6.9	0.12
20	12.45	0.17
25	18.71	0.2
30	25.35	0.22
35	32.08	0.25
40	38.74	0.28
45	45.26	0.31
50	51.61	0.34
60	63.67	0.41
70	74.85	0.46
80	85.23	0.52
90	94.93	0.57
100	104	0.6
110	112.7	0.7
120	120.8	0.7
130	128.7	0.7
140	136.2	0.8
150	143.5	0.8
160	150.6	0.8
170	157.6	0.8
180	164.5	0.9
190	171.5	0.9
200	178.6	1
210	185.7	1
220	192.8	1.1
230	199.9	1.1
240	207.1	1.1
245.81	211.3	1.2

System: 1-methyl-3-octylimidazolium tetrafluoroborate; phases: Liquid
Fixed: Pressure, kPa = 101.325
Property: Molar enthalpy function {Hm(T)-Hm(0)}/T, J/K/mol (Liquid); method: Small (less than 1 g) adiabatic calorimetry
Temperature, K	Molar enthalpy function {Hm(T)-Hm(0)}/T, J/K/mol	uncertainty
200	229.6	1.6
210	240.8	1.5
220	250.9	1.5
230	260.2	1.5
240	268.8	1.4
245.81	273.6	1.4
250	276.9	1.4
260	284.5	1.5
270	291.8	1.5
280	298.7	1.6
290	305.3	1.6
298.15	310.5	1.6
300	311.6	1.7
310	317.8	1.7
320	323.7	1.7
330	329.5	1.7
340	335.1	1.7
350	340.6	1.8
360	345.9	1.8
370	351.2	1.8

System: 1-methyl-3-octylimidazolium tetrafluoroborate; phases: Crystal
Fixed: Pressure, kPa = 101.325
Property: Molar heat capacity at constant pressure, J/K/mol (Crystal); method: Small (less than 1 g) adiabatic calorimetry
Temperature, K	Molar heat capacity at constant pressure, J/K/mol	uncertainty
80.09	165.7	0.9
81.87	168.2	0.9
83.65	170.6	1
85.45	173.2	1
87.26	175.7	1
89.08	178.2	1
90.9	180.7	1
92.74	183.1	1
94.58	185.6	1
96.43	187.9	1
98.29	190.4	1
100.16	192.7	1
102.03	195.1	1
103.91	197.5	1.1
105.8	199.8	1.1
107.69	202.1	1.1
109.58	204.4	1.1
111.49	206.7	1.1
113.39	209	1.1
115.3	211.2	1.1
117.21	213.4	1.1
119.13	215.7	1.1
121.05	218	1.2
122.97	220.2	1.2
124.9	222.4	1.2
126.83	224.6	1.2
128.76	226.8	1.2
130.69	229	1.2
132.62	231.1	1.2
134.56	233.4	1.2
136.5	235.6	1.2
138.44	237.8	1.3
140.38	240	1.3
142.32	242.3	1.3
144.26	244.6	1.3
146.2	246.8	1.3
148.14	249	1.3
150.08	251.3	1.3
152.02	253.6	1.3
153.96	255.9	1.3
155.9	258.3	1.4
157.84	260.6	1.4
159.77	263	1.4
161.71	265.3	1.4
163.64	267.7	1.4
165.57	270.2	1.4
167.5	272.7	1.4
169.43	275.2	1.4
171.36	277.7	1.4
173.28	280.3	1.5
175.2	282.9	1.5
177.12	285.7	1.5
179.03	288.3	1.5
180.94	291.4	1.5
182.85	294.2	1.5
184.75	297	1.5
186.65	299.8	1.6
188.55	302.6	1.6
190.44	305.4	1.6
192.32	308.5	1.6
194.2	311.6	1.6
196.08	314.7	1.6
197.95	317.8	1.6
199.82	320.9	1.7
201.81	324.6	1.7
203.91	328.6	1.7
206.02	332.2	1.7
208.11	335.9	1.7
210.2	339.8	1.8
212.28	344.3	1.8
214.36	348	1.8
216.42	352.2	1.8
218.47	357.6	1.8
220.51	362.9	1.9
222.53	369.1	1.9
224.55	375	1.9
226.56	381	2
228.55	387.4	2
230.53	394.5	2
232.49	402.1	2.1
234.44	412	2.1
236.36	424.6	2.2
238.24	445.5	2.3
240.06	487.8	2.5
79.7	165.1	0.9
81.61	167.8	0.9
83.39	170.3	1
85.19	172.7	1
87	175.2	1
88.81	177.8	1
90.64	180.3	1
92.47	182.7	1
94.31	185.2	1
96.17	187.6	1
98.02	190.1	1
99.89	192.4	1
101.76	194.8	1
103.64	197.2	1.1
105.53	199.4	1.1
107.42	201.7	1.1
109.32	204.1	1.1
111.22	206.4	1.1
113.12	208.7	1.1
115.03	210.9	1.1
116.94	213.1	1.1
118.86	215.4	1.1
120.78	217.6	1.2
122.7	219.9	1.2
124.63	222.1	1.2
126.55	224.3	1.2
128.49	226.5	1.2
130.42	228.7	1.2
132.35	230.9	1.2
134.29	233.1	1.2
136.23	235.3	1.2
138.16	237.5	1.3
140.11	239.7	1.3
142.05	242	1.3
143.99	244.3	1.3
145.93	246.5	1.3
147.87	248.8	1.3
149.81	251.1	1.3
151.75	253.4	1.3
153.69	255.7	1.3
155.63	258	1.4
157.57	260.3	1.4
159.5	262.7	1.4
161.44	265.2	1.4
163.37	267.5	1.4
165.31	270	1.4
167.24	272.5	1.4
169.16	275	1.4
171.09	277.5	1.4
173.01	280.1	1.5
174.93	282.6	1.5
176.85	285.4	1.5
178.76	288.3	1.5
180.67	291.1	1.5
182.58	293.9	1.5
184.48	296.7	1.5
186.38	299.8	1.6
188.27	302.6	1.6
190.16	305.4	1.6
192.04	308.3	1.6
193.92	311.4	1.6
195.8	314.5	1.6
197.67	317.3	1.6
199.54	320.7	1.7
201.46	323.8	1.7
203.44	327.4	1.7
205.42	331.1	1.7
207.4	334.5	1.7
209.37	338.1	1.7
211.34	342.1	1.8
213.29	346	1.8
215.24	350	1.8
217.18	355	1.8
219.11	360.4	1.9
221.02	365.7	1.9
222.93	371.1	1.9
224.82	376.7	1.9
226.7	382.4	2
228.58	388.3	2
230.44	395.1	2
232.29	402.4	2.1
234.12	411.7	2.1
235.93	423.8	2.2
237.7	441.5	2.3
239.43	472	2.4
5.13	1.622	0.048
5.41	1.892	0.054
5.69	2.194	0.06
5.98	2.524	0.067
6.3	2.928	0.075
6.66	3.407	0.085
7.03	3.928	0.095
7.4	4.511	0.105
7.78	5.114	0.116
8.15	5.768	0.128
8.54	6.47	0.139
8.92	7.205	0.151
9.31	7.974	0.163
9.7	8.786	0.176
10.1	9.617	0.187
10.6	10.74	0.2
11.21	12.14	0.22
11.82	13.61	0.24
12.44	15.14	0.25
13.07	16.72	0.27
13.69	18.35	0.28
14.32	20	0.3
14.96	21.77	0.31
15.71	23.92	0.32
16.57	26.44	0.33
17.43	28.91	0.34
18.3	31.39	0.35
19.17	33.9	0.35
20.05	36.43	0.36
21.26	40.04	0.38
22.82	44.72	0.4
24.39	49.42	0.42
25.97	54.13	0.44
27.55	58.67	0.45
29.08	63.06	0.46
30.66	67.49	0.41
32.42	72.33	0.44
34.34	77.4	0.46
36.27	82.31	0.49
38.19	87.1	0.52
40.12	91.75	0.54
42.14	96.59	0.57
44.27	101.5	0.6
46.4	106.3	0.6
48.53	111	0.6
50.66	115.5	0.7
52.79	119.8	0.7
54.93	124	0.7
57.07	128	0.7
59.21	131.9	0.8
61.36	135.7	0.8
63.51	139.5	0.8
65.66	143	0.8
67.81	146.6	0.8
69.96	150.1	0.9
72.22	153.7	0.9
74.59	157.4	0.9
76.96	161	0.9
79.33	164.5	0.9
81.71	167.9	0.9
84.09	171.2	1

System: 1-methyl-3-octylimidazolium tetrafluoroborate; phases: Glass
Fixed: Pressure, kPa = 101.325
Property: Molar heat capacity at constant pressure, J/K/mol (Glass); method: Small (less than 1 g) adiabatic calorimetry
Temperature, K	Molar heat capacity at constant pressure, J/K/mol	uncertainty
80.17	169.7	1
81.93	172.6	1
83.69	175.5	1
85.46	178.2	1
87.24	181	1
89.03	183.9	1
90.83	186.6	1
92.64	189.3	1
92.07	188.5	1
93.91	191.2	1
95.76	193.9	1
97.6	196.8	1.1
99.45	199.4	1.1
101.31	202.1	1.1
103.16	204.8	1.1
105.01	207.5	1.1
106.87	210.2	1.1
108.73	212.9	1.1
110.6	215.5	1.1
112.46	218.2	1.2
114.33	220.8	1.2
116.2	223.4	1.2
118.07	226.1	1.2
119.94	228.8	1.2
121.81	231.5	1.2
123.69	234.2	1.2
125.57	237	1.2
127.44	239.7	1.3
129.32	242.4	1.3
131.2	245.1	1.3
133.08	248	1.3
134.97	250.8	1.3
136.86	253.6	1.3
138.74	256.4	1.3
140.63	259.2	1.4
142.52	262	1.4
144.42	264.9	1.4
146.31	267.8	1.4
148.21	270.7	1.4
150.11	273.6	1.4
152	276.6	1.4
153.91	279.6	1.5
155.81	282.6	1.5
157.72	285.4	1.5
159.62	288.5	1.5
161.53	291.6	1.5
163.44	294.7	1.5
165.35	297.8	1.5
167.26	301.2	1.6
169.17	304.3	1.6
171.09	307.7	1.6
173	311.1	1.6
174.93	314.5	1.6
176.85	318.4	1.6
178.77	322.6	1.7
180.7	327.1	1.7
182.63	332.5	1.7
184.56	339	1.7
186.48	348	1.8
188.39	361.5	1.9
162.37	293	1.5
164.32	296.1	1.5
166.17	299.2	1.6
168.01	302.3	1.6
169.85	305.4	1.6
171.68	308.8	1.6
173.52	311.9	1.6
175.35	315.3	1.6
177.17	319.3	1.7
179	322.9	1.7
180.82	327.4	1.7
182.63	332.5	1.7
184.43	338.1	1.7
186.22	345.5	1.8
187.99	355.9	1.8
189.72	373.1	1.9
5.07	1.855	0.054
5.35	2.152	0.06
5.63	2.475	0.067
5.92	2.835	0.074
6.24	3.263	0.083
6.6	3.776	0.093
6.96	4.337	0.104
7.33	4.94	0.115
7.7	5.576	0.126
8.08	6.258	0.138
8.46	6.988	0.15
8.84	7.752	0.163
9.23	8.549	0.175
9.61	9.38	0.187
10	10.24	0.2
10.5	11.4	0.22
11.11	12.83	0.23
11.73	14.33	0.25
12.34	15.89	0.27
12.96	17.5	0.28
13.58	19.15	0.3
14.2	20.8	0.31
14.83	22.52	0.32
15.57	24.74	0.34
16.43	27.33	0.35
17.29	29.78	0.36
18.15	32.35	0.36
19.01	34.88	0.37
19.88	37.39	0.37
21.09	41.05	0.39
22.65	45.73	0.41
24.21	50.47	0.43
25.78	55.12	0.45
27.35	59.68	0.46
28.87	64.05	0.47
30.42	68.44	0.42
32.16	73.29	0.44
34.07	78.36	0.47
35.98	83.21	0.49
37.9	87.91	0.52
39.82	92.51	0.54
41.83	97.3	0.57
43.94	102.2	0.6
46.06	107	0.6
48.18	111.7	0.6
50.3	116.2	0.7
52.42	120.6	0.7
54.54	124.8	0.7
56.66	128.7	0.7
58.79	132.7	0.8
60.93	136.6	0.8
63.07	140.4	0.8
65.21	144.2	0.8
67.34	147.9	0.8
69.48	151.6	0.9
71.72	155.5	0.9
74.07	159.5	0.9
76.42	163.4	0.9
78.77	167.3	0.9
81.13	171.2	1
83.49	175	1

System: 1-methyl-3-octylimidazolium tetrafluoroborate; phases: Liquid
Fixed: Pressure, kPa = 101.325
Property: Molar heat capacity at constant pressure, J/K/mol (Liquid); method: Small (less than 1 g) adiabatic calorimetry
Temperature, K	Molar heat capacity at constant pressure, J/K/mol	uncertainty
190.27	387.4	2
192.05	444.4	2.3
193.84	466.1	2.4
195.76	466.6	2.4
197.7	465.8	2.4
199.64	464.9	2.4
201.58	464.7	2.4
203.53	464.1	2.4
205.47	463.8	2.4
207.42	463.5	2.4
209.36	463.5	2.4
211.3	463.2	2.4
213.25	463.5	2.4
215.19	463.2	2.4
217.13	463.5	2.4
219.08	463.8	2.4
221.02	463.8	2.4
222.96	464.1	2.4
224.9	464.7	2.4
226.85	464.9	2.4
228.8	465.8	2.4
230.75	466.6	2.4
248.34	472	2.4
250.32	472.8	2.4
252.27	473.7	2.4
254.22	474.5	2.4
256.17	475.4	2.4
258.12	476.2	2.4
260.07	477.3	2.4
262.02	478.2	2.4
263.97	479.3	2.4
265.92	480.1	2.4
267.87	481.3	2.4
269.82	482.1	2.4
271.77	483.2	2.5
273.73	484.4	2.5
275.68	485.2	2.5
277.63	486.6	2.5
279.58	487.8	2.5
281.53	488.9	2.5
283.48	489.7	2.5
285.44	490.9	2.5
287.39	492	2.5
289.34	493.1	2.5
291.29	494.2	2.5
293.24	495.4	2.5
295.19	496.5	2.5
297.15	497.3	2.5
299.1	498.5	2.5
301.05	499.6	2.5
303	500.7	2.5
304.95	502.1	2.5
306.9	503	2.5
308.86	504.4	2.6
310.81	505.2	2.6
312.76	506.4	2.6
314.71	507.5	2.6
316.67	508.9	2.6
318.62	510	2.6
320.57	511.1	2.6
322.53	512.3	2.6
324.48	513.4	2.6
326.44	514.8	2.6
328.39	515.9	2.6
330.34	517.1	2.6
332.3	518.5	2.6
334.25	519.9	2.6
336.21	521	2.6
338.16	522.4	2.6
340.11	523.8	2.7
342.07	524.7	2.7
344.02	526.4	2.7
345.98	527.2	2.7
347.93	528.9	2.7
349.89	530.3	2.7
351.85	531.7	2.7
353.8	533.1	2.7
355.76	534.2	2.7
357.71	535.7	2.7
359.66	536.8	2.7
361.61	538.2	2.7
363.57	539.3	2.7
365.52	540.7	2.7
367.47	542.4	2.7
191.35	408.9	2.1
192.85	463.5	2.4
194.36	466.3	2.4
249.07	472.3	2.4
251	473.1	2.4
252.93	473.9	2.4
254.87	474.8	2.4
256.8	475.6	2.4
258.74	476.5	2.4
260.67	477.6	2.4
262.61	478.5	2.4
264.54	479.6	2.4
266.48	480.4	2.4
268.42	481.6	2.4
270.35	482.4	2.4
272.29	483.5	2.5
274.23	484.7	2.5
276.16	485.5	2.5
278.1	486.6	2.5

System: 1-methyl-3-octylimidazolium tetrafluoroborate; phases: Glass
Property: Molar enthalpy, kJ/mol (Glass); method: Small (less than 1 g) adiabatic calorimetry
Temperature, K	Pressure, kPa	Molar enthalpy, kJ/mol	uncertainty
0	101.325	6.6	0.4
