Measured thermophysical data. Standard molar enthalpy of formation of Ca2[B4O7(OH)2]
Source: Thermochim. Acta, 2005, 10.1016/j.tca.2005.03.010
Compound 1: calcium monoxide, CaO, InChI=1S/Ca.O/q+2;-2
Compound 2: boric acid, BH3O3, InChI=1S/BH3O3/c2-1(3)4/h2-4H
Compound 3: water, H2O, InChI=1S/H2O/h1H2
Compound 4: borate(4-), dihydroxybis[.mu.-[orthoborato(3-)-.kappa.O:.kappa.O']]-.mu.-oxodi-, calcium (1:2), B4Ca2H2O9, InChI=1S/B4H2O9.2Ca/c5-1-9-3(7)11-2(6)12-4(8,10-1)13-3;;/h7-8H;;/q-4;2*+2, purity 99%

Reaction: -2 calcium monoxide + -4 boric acid + 1 borate(4-), dihydroxybis[.mu.-[orthoborato(3-)-.kappa.O:.kappa.O']]-.mu.-oxodi-, calcium (1:2) + 5 water
Property: Molar enthalpy of reaction, kJ/mol
-179.03
