Measured thermophysical data. Thermodynamic properties of potassium nitrate-magnesium nitrate compound  [2KNO3.Mg(NO3)2]
Source: Thermochim. Acta, 2012, 10.1016/j.tca.2011.12.010
Compound 1: bis-potassium magnesium nitrate, K2MgN4O12, InChI=1S/2K.Mg.4NO3/c;;;4*2-1(3)4/q2*+1;+2;4*-1, purity 98%

System: bis-potassium magnesium nitrate; phases: Crystal 2, Crystal 1, Air at 1 atmosphere
Property: Triple point temperature, K (Crystal 2); method: DTA
Triple point temperature, K	uncertainty
404.8	0.5

System: bis-potassium magnesium nitrate; phases: Crystal 1, Liquid, Air at 1 atmosphere
Property: Triple point temperature, K (Crystal 1); method: DTA
Triple point temperature, K	uncertainty
468.85	0.5

System: bis-potassium magnesium nitrate; phases: Crystal 2, Crystal 1, Air at 1 atmosphere
Property: Molar enthalpy of transition or fusion, kJ/mol (Crystal 2); method: DSC
Molar enthalpy of transition or fusion, kJ/mol	uncertainty
2.71	0.2

System: bis-potassium magnesium nitrate; phases: Crystal 1, Liquid, Air at 1 atmosphere
Property: Molar enthalpy of transition or fusion, kJ/mol (Crystal 1); method: DSC
Molar enthalpy of transition or fusion, kJ/mol	uncertainty
20.73	0.63

System: bis-potassium magnesium nitrate; phases: Crystal 2
Fixed: Pressure, kPa = 101.325
Property: Molar heat capacity at constant pressure, J/K/mol (Crystal 2); method: Small sample (50 mg) DSC
Temperature, K	Molar heat capacity at constant pressure, J/K/mol	uncertainty
298.15	308	6.2
299	308.7	6.2
300	309.8	6.2
301	310.5	6.2
302	310.8	6.2
303	311.5	6.2
304	312.2	6.2
305	312.9	6.3
306	314	6.3
307	314.7	6.3
308	315.7	6.3
309	316.4	6.3
310	317.5	6.4
311	318.5	6.4
312	319.2	6.4
313	319.9	6.4
314	322	6.4
315	322	6.4
316	322.7	6.5
317	323.8	6.5
318	324.8	6.5
319	325.9	6.5
320	326.9	6.5
321	328	6.6
321	328	6.6
326	328	6.6
327	329.7	6.6
328	330.4	6.6
329	331.1	6.6
330	331.1	6.6
331	331.8	6.6
332	332.9	6.7
333	334.3	6.7
334	334.3	6.7
335	334.6	6.7
336	335.3	6.7
337	335.7	6.7
338	336.4	6.7
339	336.7	6.7
340	337.1	6.7
341	338.1	6.8
342	338.5	6.8
343	338.8	6.8
344	339.9	6.8
345	341.3	6.8
346	342	6.8
347	341.6	6.8
348	340.6	6.8
349	340.6	6.8
350	340.9	6.8
351	341.3	6.8
352	342	6.8
353	342.7	6.9
354	343.4	6.9
355	344.1	6.9
356	344.8	6.9
357	345.5	6.9
358	346.2	6.9
359	346.9	6.9
360	347.6	7
361	348.3	7
362	349.3	7
363	350.4	7
364	351.4	7
365	352.5	7.1
366	353.5	7.1
367	354.6	7.1
368	355.3	7.1
369	356	7.1
370	356.7	7.1
371	357.7	7.2
372	357.8	7.2
373	358.6	7.2
374	360.4	7.2
375	362.7	7.3
376	367.5	7.4
377	372.4	7.4
378	374.9	7.5
379	375.6	7.5
380	375.8	7.5
381	376	7.5
382	376.3	7.5
383	377.7	7.6
384	379.1	7.6
385	380.8	7.6
386	381.9	7.6
387	382.2	7.6
388	382.6	7.7
389	385	7.7
390	386.8	7.7
391	388.2	7.8
392	389.6	7.8
393	391.3	7.8
394	393.8	7.9
395	395.2	7.9
396	397.6	8
397	399.7	8
398	401.5	8
399	403.2	8.1
400	405.3	8.1
401	409.5	8.2
402	412.7	8.3
403	422.1	8.5
403.15	428.4	8.6
298.15	308	6.2
300	309.8	6.2
305	312.9	6.3
310	317.5	6.4
315	322	6.4
320	326.9	6.5
325	329	6.6
330	331.1	6.6
335	334.6	6.7
340	337.1	6.7
345	341.3	6.8
350	340.9	6.8
355	344.1	6.9
360	347.6	7
365	352.5	7.1
370	356.7	7.1
375	362.7	7.3
380	375.8	7.5
385	380.8	7.6
390	386.8	7.7
395	395.2	7.9
400	405.3	8.1
403	428.4	8.6
404	811	18.6

System: bis-potassium magnesium nitrate; phases: Crystal 1
Fixed: Pressure, kPa = 101.325
Property: Molar heat capacity at constant pressure, J/K/mol (Crystal 1); method: Small sample (50 mg) DSC
Temperature, K	Molar heat capacity at constant pressure, J/K/mol	uncertainty
415.15	402.9	8.1
416	403.2	8.1
417	403.6	8.1
418	404.3	8.1
419	405.3	8.1
420	406.4	8.1
421	409.2	8.2
422	408.5	8.2
423	407.8	8.2
424	407.3	8.1
425	408.5	8.2
426	406.3	8.1
427	405.9	8.1
428	404.1	8.1
429	403.2	8.1
430	405	8.1
431	407.1	8.1
432	409.5	8.2
433	412.7	8.3
434	415.1	8.3
435	417.2	8.3
436	419	8.4
437	417.6	8.4
438	420	8.4
439	421.4	8.4
440	425.3	8.5
441	427.7	8.6
442	429.8	8.6
443	431.6	8.6
444	434	8.7
445	436.5	8.7
446	438.9	8.8
447	441.4	8.8
448	444.5	8.9
449	449.1	9
450	451.5	9
451	454.3	9.1
452	458.9	9.2
453	463.4	9.3
454	469	9.4
455	476	9.5
456	484.1	9.7
457	494.9	9.9
458	508.9	10.2
458.15	511.7	10.2
405	1042.3	21
406	900.2	18.3
407	714.4	14.6
408	611.1	12.3
409	562.5	11.3
410	518	10.4
411	464.1	9.3
412	426.3	8.5
413	409.2	8.2
414	403.6	8.1
415	402.9	8.1
420	406.4	8.1
425	408.5	8.2
430	410	8.2
435	417.2	8.3
440	425.3	8.5
445	436.5	8.7
450	451.5	9
455	476	9.5
458	511.7	10.2
459	532.4	10.7
460	561.4	11.3
461	606.9	12.2
462	680.8	13.8
463	806.8	16.5
464	1030.1	21.7
465	1503.6	33.7
466	2552.2	56.8
467	4003	80.5

System: bis-potassium magnesium nitrate; phases: Liquid
Fixed: Pressure, kPa = 101.325
Property: Molar heat capacity at constant pressure, J/K/mol (Liquid); method: Small sample (50 mg) DSC
Temperature, K	Molar heat capacity at constant pressure, J/K/mol	uncertainty
478.15	463.8	9.3
479	462.4	9.2
480	462.4	9.2
481	462.4	9.2
482	462.6	9.3
483	462.8	9.3
484	463	9.3
485	463.2	9.3
486	463.3	9.3
487	463.4	9.3
488	463.6	9.3
489	463.8	9.3
490	463.9	9.3
491	464.1	9.3
492	464.6	9.3
493	464.6	9.3
494	464.9	9.3
495	465.2	9.3
496	465.5	9.3
497	465.6	9.3
498	465.8	9.3
499	466	9.3
500	466.2	9.3
501	466.4	9.3
502	466.6	9.3
503	466.1	9.3
504	467	9.3
505	467.2	9.3
506	467.4	9.3
507	467	9.3
508	467.8	9.4
509	466.6	9.3
510	466.2	9.3
511	466.2	9.3
512	464.1	9.3
513	465.5	9.3
514	464.5	9.3
515	471.8	9.4
516	470.4	9.4
517	466.9	9.3
518	471.1	9.4
519	476.4	9.5
520	471.8	9.4
521	475.7	9.5
522	480.9	9.6
523	478.1	9.6
524	478.6	9.6
525	479.1	9.6
526	478.1	9.6
527	478.7	9.6
528	478.8	9.6
529	485.8	9.7
530	480.6	9.6
531	474.6	9.5
532	475.7	9.5
533	476	9.5
534	477.4	9.5
535	478.8	9.6
536	480.6	9.6
537	481.3	9.6
538	483.4	9.7
539	484.4	9.7
540	486.5	9.7
541	486.9	9.7
542	487.6	9.8
543	489	9.8
544	490.7	9.8
545	491.8	9.8
546	493.5	9.9
547	494.9	9.9
548	495.6	9.9
549	496.7	9.9
550	498.4	10
551	499.5	10
552	500.9	10
553	502.3	10
554	503	10.1
555	504.4	10.1
556	505.8	10.1
557	506.5	10.1
558	508.2	10.2
559	508.9	10.2
560	510.3	10.2
561	511.4	10.2
562	512.4	10.2
563	513.1	10.3
564	514.2	10.3
565	515.2	10.3
566	517	10.3
567	518	10.4
568	518.4	10.4
569	518.4	10.4
570	519.1	10.4
571	519.4	10.4
572	518.4	10.4
573	519.1	10.4
574	519.1	10.4
575	519.4	10.4
576	519.8	10.4
577	518.7	10.4
578	511.7	10.2
579	512.8	10.3
580	514.2	10.3
581	515.9	10.3
582	517.3	10.3
583	518.7	10.4
584	520.5	10.4
585	521.9	10.4
586	524	10.5
587	525.4	10.5
588	526.8	10.5
589	528.2	10.6
590	529.9	10.6
591	525.4	10.5
592	525.4	10.5
593	526.1	10.5
594	526.4	10.5
595	525.4	10.5
596	526.1	10.5
597	526.1	10.5
598	527.1	10.5
599	525.7	10.5
600	525	10.5
601	526.4	10.5
602	521.9	10.4
603	521.9	10.4
604	519.8	10.4
605	522.6	10.5
606	524.7	10.5
607	524.7	10.5
608	520.8	10.4
609	521.9	10.4
610	526.8	10.5
611	532	10.6
612	525	10.5
613	529.2	10.6
614	536.6	10.7
615	532	10.6
616	533.8	10.7
617	541.5	10.8
618	537.6	10.8
619	543.2	10.9
620	538.7	10.8
621	542.2	10.8
622	543.6	10.9
623	544.3	10.9
623.15	543.9	10.9
469	2955.4	60.1
470	2419.9	50
471	1683.9	36.1
472	1106.4	23.9
473	770	16.4
474	542.5	11.2
475	510	10.2
476	480.6	9.6
477	469	9.4
478	455.6	9.1
485	459.2	9.2
490	463.9	9.3
495	465.2	9.3
500	466.2	9.3
505	467.2	9.3
510	469	9.4
515	471.8	9.4
520	475.7	9.5
525	479.1	9.6
530	480.6	9.6
535	483.4	9.7
540	486.5	9.7
545	491.8	9.8
550	498.4	10
555	504.4	10.1
560	510.3	10.2
565	515.2	10.3
570	519.1	10.4
575	521.4	10.4
580	525.2	10.5
585	529.9	10.6
590	531.4	10.6
595	534.2	10.7
600	537.1	10.7
605	539.5	10.8
610	541	10.8
615	545.6	10.9
620	547.7	11
623.15	552.9	11.1
