Measured thermophysical data. Vapor-liquid equilibria, density and sound velocity measurements of (water or methanol or ethanol + 1,3-propanediol) binary systems at different temperatures
Source: Thermochim. Acta, 2016, 10.1016/j.tca.2016.09.005
Compound 1: propan-1,3-diol, C3H8O2, InChI=1S/C3H8O2/c4-2-1-3-5/h4-5H,1-3H2, purity 99.6%
Compound 2: methanol, CH4O, InChI=1S/CH4O/c1-2/h2H,1H3, purity 99.5%
Compound 3: ethanol, C2H6O, InChI=1S/C2H6O/c1-2-3/h3H,2H2,1H3, purity 99%
Compound 4: water, H2O, InChI=1S/H2O/h1H2

System: propan-1,3-diol; phases: Liquid
Property: Refractive index (Na D-line) (Liquid); method: Standard Abbe refractometry
Temperature, K	Pressure, kPa	Refractive index (Na D-line)	uncertainty
293.15	101.325	1.4393	0.001

System: propan-1,3-diol; phases: Liquid
Fixed: Pressure, kPa = 100
Property: Mass density, kg/m3 (Liquid); method: Vibrating tube method
Temperature, K	Mass density, kg/m3	uncertainty
283.15	1058.85	1.26
293.15	1052.61	1.25
303.15	1046.36	1.24
313.15	1040.07	1.23

System: propan-1,3-diol; phases: Liquid
Fixed: Pressure, kPa = 100
Fixed: Frequency, MHz = 3
Property: Speed of sound, m/s (Liquid); method: Sing-around technique in a fixed-path interferometer
Temperature, K	Speed of sound, m/s	uncertainty
283.15	1659.5	2.6
293.15	1636.3	2.6
303.15	1613.6	2.6
313.15	1591.1	2.6

System: methanol; phases: Liquid
Property: Refractive index (Na D-line) (Liquid); method: Standard Abbe refractometry
Temperature, K	Pressure, kPa	Refractive index (Na D-line)	uncertainty
293.15	101.325	1.3285	0.0009

System: methanol; phases: Liquid
Fixed: Pressure, kPa = 100
Property: Mass density, kg/m3 (Liquid); method: Vibrating tube method
Temperature, K	Mass density, kg/m3	uncertainty
283.15	800.67	0.91
293.15	791.28	0.91
303.15	781.84	0.91
313.15	772.3	0.91

System: methanol; phases: Liquid
Fixed: Pressure, kPa = 100
Fixed: Frequency, MHz = 3
Property: Speed of sound, m/s (Liquid); method: Sing-around technique in a fixed-path interferometer
Temperature, K	Speed of sound, m/s	uncertainty
283.15	1153.3	1.7
293.15	1119.6	1.7
303.15	1086.6	1.7
313.15	1054.2	1.7

System: ethanol; phases: Liquid
Property: Refractive index (Na D-line) (Liquid); method: Standard Abbe refractometry
Temperature, K	Pressure, kPa	Refractive index (Na D-line)	uncertainty
293.15	101.325	1.362	0.001

System: ethanol; phases: Liquid
Fixed: Pressure, kPa = 100
Property: Mass density, kg/m3 (Liquid); method: Vibrating tube method
Temperature, K	Mass density, kg/m3	uncertainty
283.15	798.22	0.93
293.15	789.7	0.93
303.15	781.09	0.93
313.15	772.34	0.93

System: ethanol; phases: Liquid
Fixed: Pressure, kPa = 100
Fixed: Frequency, MHz = 3
Property: Speed of sound, m/s (Liquid); method: Sing-around technique in a fixed-path interferometer
Temperature, K	Speed of sound, m/s	uncertainty
283.15	1196.8	1.9
293.15	1162.3	1.9
303.15	1128.2	1.9
313.15	1094.6	1.9

System: water; phases: Liquid
Property: Refractive index (Na D-line) (Liquid); method: Standard Abbe refractometry
Temperature, K	Pressure, kPa	Refractive index (Na D-line)	uncertainty
293.15	101.325	1.333	0.0009

System: water; phases: Liquid, Gas
Property: Vapor or sublimation pressure, kPa (Liquid); method: Closed cell (Static) method
Temperature, K	Vapor or sublimation pressure, kPa	uncertainty
273.15	0.593	0.019
283.15	1.21	0.038
293.15	2.328	0.071
303.15	4.251	0.129
313.15	7.411	0.224
323.15	12.4	0.374
333.15	20	0.602
343.15	31.215	0.939
353.15	47.296	1.423
363.15	69.771	2.098

System: propan-1,3-diol + water; phases: Liquid, Gas
Property: Vapor or sublimation pressure, kPa (Liquid); method: Closed cell (Static) method
Temperature, K	Mole fraction of water	Vapor or sublimation pressure, kPa	uncertainty
273.15	0.1052	0.062	0.003
273.15	0.2088	0.098	0.005
273.15	0.3623	0.202	0.008
273.15	0.5	0.287	0.011
273.15	0.625	0.371	0.013
273.15	0.75	0.438	0.016
273.15	0.8	0.478	0.017
273.15	0.9	0.522	0.018
273.15	1	0.593	0.021
283.15	0.1052	0.123	0.006
283.15	0.2088	0.203	0.008
283.15	0.3623	0.413	0.015
283.15	0.5	0.594	0.021
283.15	0.625	0.762	0.026
283.15	0.75	0.898	0.031
283.15	0.8	0.976	0.033
283.15	0.9	1.07	0.036
283.15	1	1.21	0.041
293.15	0.1052	0.233	0.009
293.15	0.2088	0.397	0.014
293.15	0.3623	0.799	0.028
293.15	0.5	1.158	0.039
293.15	0.625	1.475	0.048
293.15	0.75	1.735	0.056
293.15	0.8	1.882	0.06
293.15	0.9	2.066	0.065
293.15	1	2.328	0.073
303.15	0.1052	0.421	0.015
303.15	0.2088	0.739	0.026
303.15	0.3623	1.47	0.048
303.15	0.5	2.139	0.068
303.15	0.625	2.713	0.085
303.15	0.75	3.184	0.099
303.15	0.8	3.448	0.107
303.15	0.9	3.787	0.117
303.15	1	4.251	0.131
313.15	0.1052	0.733	0.026
313.15	0.2088	1.315	0.044
313.15	0.3623	2.588	0.081
313.15	0.5	3.773	0.117
313.15	0.625	4.764	0.146
313.15	0.75	5.583	0.171
313.15	0.8	6.034	0.184
313.15	0.9	6.629	0.202
313.15	1	7.411	0.226
323.15	0.1052	1.232	0.043
323.15	0.2088	2.248	0.072
323.15	0.3623	4.378	0.135
323.15	0.5	6.384	0.195
323.15	0.625	8.033	0.245
323.15	0.75	9.399	0.286
323.15	0.8	10.141	0.308
323.15	0.9	11.136	0.338
323.15	1	12.4	0.376
333.15	0.1052	2.005	0.065
333.15	0.2088	3.704	0.116
333.15	0.3623	7.149	0.219
333.15	0.5	10.408	0.317
333.15	0.625	13.059	0.396
333.15	0.75	15.256	0.463
333.15	0.8	16.437	0.498
333.15	0.9	18.032	0.546
333.15	1	20	0.605
343.15	0.1052	3.167	0.101
343.15	0.2088	5.908	0.183
343.15	0.3623	11.303	0.345
343.15	0.5	16.41	0.498
343.15	0.625	20.544	0.622
343.15	0.75	23.965	0.726
343.15	0.8	25.787	0.78
343.15	0.9	28.251	0.855
343.15	1	31.215	0.944
353.15	0.1052	4.87	0.154
353.15	0.2088	9.147	0.282
353.15	0.3623	17.359	0.528
353.15	0.5	25.107	0.761
353.15	0.625	31.377	0.95
353.15	0.75	36.549	1.106
353.15	0.8	39.283	1.188
353.15	0.9	42.967	1.299
353.15	1	47.296	1.429
363.15	0.1052	7.307	0.231
363.15	0.2088	13.786	0.424
363.15	0.3623	25.968	0.789
363.15	0.5	37.384	1.132
363.15	0.625	46.656	1.41
363.15	0.75	54.272	1.64
363.15	0.8	58.27	1.76
363.15	0.9	63.617	1.921
363.15	1	69.771	2.106

System: propan-1,3-diol + water; phases: Liquid
Fixed: Pressure, kPa = 100
Property: Mass density, kg/m3 (Liquid); method: Vibrating tube method
Temperature, K	Mole fraction of water	Mass density, kg/m3	uncertainty
283.15	0	1058.85	1.26
283.15	0.1022	1059.27	1.16
283.15	0.201	1059.47	1.08
283.15	0.2987	1059.49	1.02
283.15	0.3998	1059.07	0.98
283.15	0.4997	1057.91	0.95
283.15	0.5997	1055.48	0.93
283.15	0.6999	1050.47	0.91
283.15	0.7999	1041.86	0.91
283.15	0.8997	1025.27	0.91
283.15	1	999.68	0.9
293.15	0	1052.61	1.25
293.15	0.1022	1053.04	1.15
293.15	0.201	1053.26	1.08
293.15	0.2987	1053.3	1.02
293.15	0.3998	1052.91	0.98
293.15	0.4997	1051.82	0.95
293.15	0.5997	1049.54	0.93
293.15	0.6999	1044.85	0.91
293.15	0.7999	1036.89	0.91
293.15	0.8997	1021.75	0.91
293.15	1	998.19	0.9
303.15	0	1046.36	1.24
303.15	0.1022	1046.79	1.15
303.15	0.201	1047.01	1.07
303.15	0.2987	1047.05	1.02
303.15	0.3998	1046.67	0.97
303.15	0.4997	1045.61	0.94
303.15	0.5997	1043.42	0.92
303.15	0.6999	1039.01	0.91
303.15	0.7999	1031.59	0.91
303.15	0.8997	1017.64	0.91
303.15	1	995.64	0.9
313.15	0	1040.07	1.23
313.15	0.1022	1040.48	1.14
313.15	0.201	1040.68	1.07
313.15	0.2987	1040.7	1.01
313.15	0.3998	1040.3	0.97
313.15	0.4997	1039.25	0.94
313.15	0.5997	1037.1	0.92
313.15	0.6999	1032.92	0.91
313.15	0.7999	1025.94	0.91
313.15	0.8997	1012.95	0.91
313.15	1	992.17	0.9

System: propan-1,3-diol + water; phases: Liquid
Fixed: Pressure, kPa = 100
Fixed: Frequency, MHz = 3
Property: Speed of sound, m/s (Liquid); method: Sing-around technique in a fixed-path interferometer
Temperature, K	Mole fraction of water	Speed of sound, m/s	uncertainty
283.15	0	1659.5	2.6
283.15	0.1022	1672.9	2.5
283.15	0.201	1686.6	2.4
283.15	0.2987	1702	2.3
283.15	0.3998	1717.3	2.2
283.15	0.4997	1732	2.1
283.15	0.5997	1742.7	2
283.15	0.6999	1742	1.9
283.15	0.7999	1718.2	1.8
283.15	0.8997	1637.8	1.9
283.15	1	1448.1	1.7
293.15	0	1636.3	2.6
293.15	0.1022	1650.1	2.5
293.15	0.201	1664	2.4
293.15	0.2987	1679.4	2.3
293.15	0.3998	1695.2	2.1
293.15	0.4997	1710.5	2
293.15	0.5997	1722.7	2
293.15	0.6999	1725.1	1.9
293.15	0.7999	1707.4	1.8
293.15	0.8997	1641.2	1.8
293.15	1	1482.7	1.7
303.15	0	1613.6	2.6
303.15	0.1022	1627.2	2.5
303.15	0.201	1641.4	2.4
303.15	0.2987	1656.8	2.3
303.15	0.3998	1672.8	2.1
303.15	0.4997	1688.7	2
303.15	0.5997	1701.9	2
303.15	0.6999	1707.1	1.9
303.15	0.7999	1695	1.8
303.15	0.8997	1641.6	1.8
303.15	1	1509.4	1.7
313.15	0	1591.1	2.6
313.15	0.1022	1605	2.5
313.15	0.201	1618.9	2.4
313.15	0.2987	1634.1	2.3
313.15	0.3998	1650.2	2.1
313.15	0.4997	1666.4	2
313.15	0.5997	1680.5	2
313.15	0.6999	1688.1	1.9
313.15	0.7999	1680.9	1.8
313.15	0.8997	1639	1.8
313.15	1	1529.2	1.7

System: methanol + propan-1,3-diol; phases: Liquid, Gas
Property: Vapor or sublimation pressure, kPa (Liquid); method: Closed cell (Static) method
Temperature, K	Mole fraction of methanol	Vapor or sublimation pressure, kPa	uncertainty
273.15	0.3887	1.617	0.099
273.15	0.4926	2.096	0.128
273.15	0.5956	2.48	0.151
273.15	0.7034	2.911	0.176
273.15	0.8871	3.642	0.22
283.15	0.3887	2.955	0.179
283.15	0.4926	3.776	0.228
283.15	0.5956	4.544	0.274
283.15	0.7034	5.335	0.322
283.15	0.8871	6.667	0.402
293.15	0.3887	5.15	0.311
293.15	0.4926	6.549	0.395
293.15	0.5956	7.939	0.478
293.15	0.7034	9.322	0.561
293.15	0.8871	11.654	0.702
303.15	0.3887	8.602	0.518
303.15	0.4926	10.974	0.661
303.15	0.5956	13.3	0.801
303.15	0.7034	15.613	0.939
303.15	0.8871	19.551	1.176
313.15	0.3887	13.837	0.833
313.15	0.4926	17.82	1.072
313.15	0.5956	21.462	1.291
313.15	0.7034	25.182	1.515
313.15	0.8871	31.615	1.901
323.15	0.3887	21.521	1.295
323.15	0.4926	28.123	1.692
323.15	0.5956	33.493	2.014
323.15	0.7034	39.27	2.361
323.15	0.8871	49.466	2.974
333.15	0.3887	32.477	1.954
333.15	0.4926	43.237	2.601
333.15	0.5956	50.719	3.05
333.15	0.7034	59.416	3.572
333.15	0.8871	75.131	4.517
343.15	0.3887	47.693	2.871
343.15	0.4926	64.903	3.903
343.15	0.5956	74.746	4.493
343.15	0.7034	87.48	5.259
343.15	0.8871	111.092	6.677

System: methanol + propan-1,3-diol; phases: Liquid
Fixed: Pressure, kPa = 100
Property: Mass density, kg/m3 (Liquid); method: Vibrating tube method
Temperature, K	Mole fraction of methanol	Mass density, kg/m3	uncertainty
283.15	0	1058.85	1.26
283.15	0.05	1052.58	1.2
283.15	0.0996	1045.92	1.16
283.15	0.1503	1038.75	1.12
283.15	0.2	1031.38	1.08
283.15	0.2502	1023.44	1.05
283.15	0.2998	1015.08	1.02
283.15	0.3491	1006.18	1
283.15	0.3998	996.52	0.98
283.15	0.4497	986.31	0.96
283.15	0.5	975.38	0.95
283.15	0.5501	963.77	0.94
283.15	0.5994	951.07	0.94
283.15	0.6501	936.86	0.93
283.15	0.6998	922.43	0.93
283.15	0.7499	906.27	0.93
283.15	0.8	889.44	0.93
283.15	0.8501	869.9	0.93
283.15	0.9	849.27	0.93
283.15	0.9501	826.76	0.94
283.15	1	800.67	0.91
293.15	0	1052.61	1.25
293.15	0.05	1046.29	1.2
293.15	0.0996	1039.56	1.15
293.15	0.1503	1032.32	1.11
293.15	0.2	1024.87	1.07
293.15	0.2502	1016.87	1.04
293.15	0.2998	1008.41	1.01
293.15	0.3491	999.42	0.99
293.15	0.3998	989.65	0.98
293.15	0.4497	979.34	0.96
293.15	0.5	968.29	0.95
293.15	0.5501	956.54	0.94
293.15	0.5994	943.69	0.94
293.15	0.6501	929.32	0.93
293.15	0.6998	914.7	0.93
293.15	0.7499	898.33	0.93
293.15	0.8	881.29	0.93
293.15	0.8501	861.5	0.93
293.15	0.9	840.58	0.94
293.15	0.9501	817.77	0.94
293.15	1	791.28	0.91
303.15	0	1046.36	1.24
303.15	0.05	1039.98	1.19
303.15	0.0996	1033.18	1.14
303.15	0.1503	1025.88	1.1
303.15	0.2	1018.34	1.07
303.15	0.2502	1010.26	1.04
303.15	0.2998	1001.72	1.01
303.15	0.3491	992.64	0.99
303.15	0.3998	982.76	0.97
303.15	0.4497	972.34	0.96
303.15	0.5	961.17	0.95
303.15	0.5501	949.29	0.94
303.15	0.5994	936.28	0.94
303.15	0.6501	921.74	0.93
303.15	0.6998	906.94	0.93
303.15	0.7499	890.37	0.93
303.15	0.8	873.11	0.93
303.15	0.8501	853.06	0.93
303.15	0.9	831.86	0.94
303.15	0.9501	808.72	0.94
303.15	1	781.84	0.91
313.15	0	1040.07	1.23
313.15	0.05	1033.62	1.18
313.15	0.0996	1026.76	1.14
313.15	0.1503	1019.37	1.1
313.15	0.2	1011.73	1.06
313.15	0.2502	1003.55	1.03
313.15	0.2998	994.98	1.01
313.15	0.3491	985.81	0.99
313.15	0.3998	975.82	0.97
313.15	0.4497	965.29	0.96
313.15	0.5	953.99	0.95
313.15	0.5501	941.97	0.94
313.15	0.5994	928.82	0.94
313.15	0.6501	914.15	0.93
313.15	0.6998	899.12	0.93
313.15	0.7499	882.34	0.93
313.15	0.8	864.86	0.93
313.15	0.8501	844.55	0.93
313.15	0.9	823.05	0.94
313.15	0.9501	799.59	0.94
313.15	1	772.3	0.91

System: methanol + propan-1,3-diol; phases: Liquid
Fixed: Pressure, kPa = 100
Fixed: Frequency, MHz = 3
Property: Speed of sound, m/s (Liquid); method: Sing-around technique in a fixed-path interferometer
Temperature, K	Mole fraction of methanol	Speed of sound, m/s	uncertainty
283.15	0	1659.5	2.6
283.15	0.05	1645.8	2.6
283.15	0.0996	1629.2	2.5
283.15	0.1503	1613.8	2.5
283.15	0.2	1596.8	2.4
283.15	0.2502	1578.8	2.3
283.15	0.2998	1560.7	2.3
283.15	0.3491	1540.2	2.2
283.15	0.3998	1519.5	2.2
283.15	0.4497	1497	2.1
283.15	0.5	1474	2.1
283.15	0.5501	1450.2	2
283.15	0.5994	1423.3	2
283.15	0.6501	1394.9	2
283.15	0.6998	1366.9	1.9
283.15	0.7499	1336	1.9
283.15	0.8	1305	1.8
283.15	0.8501	1269.1	1.8
283.15	0.9	1233.7	1.8
283.15	0.9501	1196	1.8
283.15	1	1153.3	1.7
293.15	0	1636.3	2.6
293.15	0.05	1622.5	2.6
293.15	0.0996	1605.8	2.5
293.15	0.1503	1590.1	2.5
293.15	0.2	1572.8	2.4
293.15	0.2502	1554.7	2.3
293.15	0.2998	1536.1	2.3
293.15	0.3491	1515.4	2.2
293.15	0.3998	1494.2	2.2
293.15	0.4497	1471.6	2.1
293.15	0.5	1448	2.1
293.15	0.5501	1423.8	2
293.15	0.5994	1396.4	2
293.15	0.6501	1367.3	2
293.15	0.6998	1338.6	1.9
293.15	0.7499	1307.1	1.9
293.15	0.8	1275.3	1.8
293.15	0.8501	1238.8	1.8
293.15	0.9	1202.3	1.8
293.15	0.9501	1164	1.8
293.15	1	1119.6	1.7
303.15	0	1613.6	2.6
303.15	0.05	1599.5	2.6
303.15	0.0996	1582.6	2.5
303.15	0.1503	1566.8	2.5
303.15	0.2	1549.2	2.4
303.15	0.2502	1530.8	2.3
303.15	0.2998	1511.9	2.3
303.15	0.3491	1490.9	2.2
303.15	0.3998	1469.3	2.2
303.15	0.4497	1446.3	2.1
303.15	0.5	1422.3	2.1
303.15	0.5501	1397.7	2
303.15	0.5994	1369.7	2
303.15	0.6501	1340.1	2
303.15	0.6998	1310.7	1.9
303.15	0.7499	1278.5	1.9
303.15	0.8	1246.1	1.8
303.15	0.8501	1208.7	1.8
303.15	0.9	1171.3	1.8
303.15	0.9501	1132.1	1.8
303.15	1	1086.6	1.7
313.15	0	1591.1	2.6
313.15	0.05	1576.8	2.6
313.15	0.0996	1559.7	2.5
313.15	0.1503	1543.7	2.5
313.15	0.2	1525.8	2.4
313.15	0.2502	1507.1	2.3
313.15	0.2998	1487.9	2.3
313.15	0.3491	1466.6	2.2
313.15	0.3998	1444.7	2.2
313.15	0.4497	1421.4	2.1
313.15	0.5	1397	2.1
313.15	0.5501	1371.9	2
313.15	0.5994	1343.4	2
313.15	0.6501	1313.3	1.9
313.15	0.6998	1283.3	1.9
313.15	0.7499	1250.5	1.9
313.15	0.8	1217.4	1.8
313.15	0.8501	1179.2	1.8
313.15	0.9	1140.9	1.8
313.15	0.9501	1100.8	1.8
313.15	1	1054.2	1.7

System: ethanol + propan-1,3-diol; phases: Liquid
Fixed: Pressure, kPa = 100
Property: Mass density, kg/m3 (Liquid); method: Vibrating tube method
Temperature, K	Mole fraction of ethanol	Mass density, kg/m3	uncertainty
283.15	0	1058.85	1.26
283.15	0.05	1049.7	1.22
283.15	0.1	1040.25	1.18
283.15	0.15	1030.34	1.15
283.15	0.2	1020.03	1.12
283.15	0.2499	1009.63	1.09
283.15	0.3004	998.62	1.06
283.15	0.3502	987.34	1.04
283.15	0.4	975.76	1.03
283.15	0.4501	963.57	1.01
283.15	0.5004	950.95	1
283.15	0.5501	938.39	0.99
283.15	0.6001	924.91	0.98
283.15	0.65	911.17	0.97
283.15	0.7	896.69	0.96
283.15	0.7503	881.71	0.96
283.15	0.8001	866.31	0.95
283.15	0.8502	850.07	0.95
283.15	0.9	833.71	0.95
283.15	0.95	816.56	0.95
283.15	1	798.22	0.93
293.15	0	1052.61	1.25
293.15	0.05	1043.39	1.21
293.15	0.1	1033.87	1.18
293.15	0.15	1023.87	1.14
293.15	0.2	1013.44	1.11
293.15	0.2499	1003	1.08
293.15	0.3004	991.91	1.06
293.15	0.3502	980.54	1.04
293.15	0.4	968.84	1.03
293.15	0.4501	956.56	1.01
293.15	0.5004	943.82	1
293.15	0.5501	931.16	0.99
293.15	0.6001	917.56	0.98
293.15	0.65	903.69	0.97
293.15	0.7	889.09	0.96
293.15	0.7503	873.96	0.96
293.15	0.8001	858.42	0.95
293.15	0.8502	842.04	0.95
293.15	0.9	825.51	0.95
293.15	0.95	808.22	0.95
293.15	1	789.7	0.93
303.15	0	1046.36	1.24
303.15	0.05	1037.07	1.2
303.15	0.1	1027.48	1.17
303.15	0.15	1017.39	1.14
303.15	0.2	1006.78	1.11
303.15	0.2499	996.35	1.08
303.15	0.3004	985.17	1.06
303.15	0.3502	973.69	1.04
303.15	0.4	961.9	1.02
303.15	0.4501	949.5	1.01
303.15	0.5004	936.66	1
303.15	0.5501	923.88	0.99
303.15	0.6001	910.16	0.98
303.15	0.65	896.16	0.97
303.15	0.7	881.42	0.96
303.15	0.7503	866.15	0.96
303.15	0.8001	850.47	0.95
303.15	0.8502	833.92	0.95
303.15	0.9	817.24	0.95
303.15	0.95	799.79	0.95
303.15	1	781.09	0.93
313.15	0	1040.07	1.23
313.15	0.05	1030.71	1.2
313.15	0.1	1021.03	1.16
313.15	0.15	1010.85	1.13
313.15	0.2	999.86	1.1
313.15	0.2499	989.64	1.08
313.15	0.3004	978.36	1.06
313.15	0.3502	966.78	1.04
313.15	0.4	954.88	1.02
313.15	0.4501	942.36	1.01
313.15	0.5004	929.42	1
313.15	0.5501	916.52	0.99
313.15	0.6001	902.67	0.98
313.15	0.65	888.54	0.97
313.15	0.7	873.66	0.96
313.15	0.7503	858.23	0.96
313.15	0.8001	842.41	0.95
313.15	0.8502	825.7	0.95
313.15	0.9	808.85	0.95
313.15	0.95	791.23	0.95
313.15	1	772.34	0.93

System: ethanol + propan-1,3-diol; phases: Liquid
Fixed: Pressure, kPa = 100
Fixed: Frequency, MHz = 3
Property: Speed of sound, m/s (Liquid); method: Sing-around technique in a fixed-path interferometer
Temperature, K	Mole fraction of ethanol	Speed of sound, m/s	uncertainty
283.15	0	1659.5	2.6
283.15	0.05	1642.4	2.6
283.15	0.1	1623.9	2.6
283.15	0.15	1605.2	2.5
283.15	0.2	1585.7	2.5
283.15	0.2499	1565.3	2.5
283.15	0.3004	1544.3	2.4
283.15	0.3502	1523	2.4
283.15	0.4	1501	2.3
283.15	0.4501	1478.2	2.3
283.15	0.5004	1454.4	2.3
283.15	0.5501	1431.2	2.2
283.15	0.6001	1406.4	2.2
283.15	0.65	1382.1	2.2
283.15	0.7	1356.6	2.1
283.15	0.7503	1331.1	2.1
283.15	0.8001	1304.9	2.1
283.15	0.8502	1278.5	2
283.15	0.9	1252.1	2
283.15	0.95	1225.1	2
283.15	1	1196.8	1.9
293.15	0	1636.3	2.6
293.15	0.05	1618.9	2.6
293.15	0.1	1600.1	2.6
293.15	0.15	1580.9	2.5
293.15	0.2	1560.9	2.5
293.15	0.2499	1540.2	2.4
293.15	0.3004	1518.7	2.4
293.15	0.3502	1496.8	2.4
293.15	0.4	1474.2	2.3
293.15	0.4501	1450.8	2.3
293.15	0.5004	1426.5	2.3
293.15	0.5501	1402.8	2.2
293.15	0.6001	1377.6	2.2
293.15	0.65	1352.5	2.2
293.15	0.7	1326.3	2.1
293.15	0.7503	1300.1	2.1
293.15	0.8001	1273.3	2.1
293.15	0.8502	1246.2	2
293.15	0.9	1219	2
293.15	0.95	1191.3	2
293.15	1	1162.3	1.9
303.15	0	1613.6	2.6
303.15	0.05	1595.7	2.6
303.15	0.1	1576.5	2.6
303.15	0.15	1556.8	2.5
303.15	0.2	1536.5	2.5
303.15	0.2499	1515.3	2.4
303.15	0.3004	1493.3	2.4
303.15	0.3502	1470.9	2.4
303.15	0.4	1447.8	2.3
303.15	0.4501	1423.8	2.3
303.15	0.5004	1399	2.3
303.15	0.5501	1374.6	2.2
303.15	0.6001	1348.8	2.2
303.15	0.65	1323.2	2.2
303.15	0.7	1296.4	2.1
303.15	0.7503	1269.4	2.1
303.15	0.8001	1242	2.1
303.15	0.8502	1214.2	2
303.15	0.9	1186.3	2
303.15	0.95	1157.9	2
303.15	1	1128.2	1.9
313.15	0	1591.1	2.6
313.15	0.05	1572.9	2.6
313.15	0.1	1553.2	2.6
313.15	0.15	1533.1	2.5
313.15	0.2	1511	2.5
313.15	0.2499	1490.6	2.4
313.15	0.3004	1468.1	2.4
313.15	0.3502	1445.3	2.4
313.15	0.4	1421.7	2.3
313.15	0.4501	1397.1	2.3
313.15	0.5004	1371.7	2.3
313.15	0.5501	1346.8	2.2
313.15	0.6001	1320.4	2.2
313.15	0.65	1294.2	2.2
313.15	0.7	1266.8	2.1
313.15	0.7503	1239.1	2.1
313.15	0.8001	1211.1	2.1
313.15	0.8502	1182.7	2
313.15	0.9	1154	2
313.15	0.95	1125	2
313.15	1	1094.6	1.9
