Measured thermophysical data. Excess volumes, densities, speeds of sound and viscosities for the binary systems of diisopropyl ether with hydrocarbons at 303.15K
Source: Thermochim. Acta, 2006, 10.1016/j.tca.2005.10.008
Compound 1: diisopropyl ether, C6H14O, InChI=1S/C6H14O/c1-5(2)7-6(3)4/h5-6H,1-4H3, purity 99%
Compound 2: hexane, C6H14, InChI=1S/C6H14/c1-3-5-6-4-2/h3-6H2,1-2H3, purity 99%
Compound 3: heptane, C7H16, InChI=1S/C7H16/c1-3-5-7-6-4-2/h3-7H2,1-2H3, purity 99%
Compound 4: octane, C8H18, InChI=1S/C8H18/c1-3-5-7-8-6-4-2/h3-8H2,1-2H3, purity 99%
Compound 5: 2,2,4-trimethylpentane, C8H18, InChI=1S/C8H18/c1-7(2)6-8(3,4)5/h7H,6H2,1-5H3, purity 99%
Compound 6: benzene, C6H6, InChI=1S/C6H6/c1-2-4-6-5-3-1/h1-6H, purity 99%
Compound 7: cyclohexane, C6H12, InChI=1S/C6H12/c1-2-4-6-5-3-1/h1-6H2, purity 99%
Compound 8: 1,2,3,4-tetrahydronaphthalene, C10H12, InChI=1S/C10H12/c1-2-6-10-8-4-3-7-9(10)5-1/h1-2,5-6H,3-4,7-8H2, purity 99%
Compound 9: decahydronaphthalene, C10H18, InChI=1S/C10H18/c1-2-6-10-8-4-3-7-9(10)5-1/h9-10H,1-8H2, purity 99%

System: diisopropyl ether; phases: Liquid, Gas
Property: Normal boiling temperature, K (Liquid); method: Distillation
Normal boiling temperature, K	uncertainty
341.35	0.1

System: diisopropyl ether; phases: Liquid
Property: Mass density, kg/m3 (Liquid); method: Pycnometric method
Temperature, K	Pressure, kPa	Mass density, kg/m3	uncertainty
298.15	101.325	718.14	0.74

System: diisopropyl ether; phases: Liquid
Property: Mass density, kg/m3 (Liquid); method: Pycnometric method
Temperature, K	Pressure, kPa	Mass density, kg/m3	uncertainty
303.15	101.325	711.97	0.67

System: diisopropyl ether; phases: Liquid
Property: Viscosity, Pa*s (Liquid); method: Capillary tube (Ostwald; Ubbelohde) method
Temperature, K	Pressure, kPa	Viscosity, Pa*s	uncertainty
303.15	101.3	0.00035	4e-06

System: diisopropyl ether; phases: Liquid
Property: Speed of sound, m/s (Liquid); method: Linear variable-path acoustic interferometer
Temperature, K	Pressure, kPa	Speed of sound, m/s	uncertainty
303.15	101.3	974.9	3.3

System: hexane; phases: Liquid, Gas
Property: Normal boiling temperature, K (Liquid); method: Distillation
Normal boiling temperature, K	uncertainty
341.85	0.1

System: hexane; phases: Liquid
Property: Mass density, kg/m3 (Liquid); method: Pycnometric method
Temperature, K	Pressure, kPa	Mass density, kg/m3	uncertainty
298.15	101.325	654.9	0.7

System: hexane; phases: Liquid
Property: Mass density, kg/m3 (Liquid); method: Pycnometric method
Temperature, K	Pressure, kPa	Mass density, kg/m3	uncertainty
303.15	101.325	650.64	0.7

System: hexane; phases: Liquid
Property: Viscosity, Pa*s (Liquid); method: Capillary tube (Ostwald; Ubbelohde) method
Temperature, K	Pressure, kPa	Viscosity, Pa*s	uncertainty
303.15	101.3	0.000309	4e-06

System: hexane; phases: Liquid
Property: Speed of sound, m/s (Liquid); method: Linear variable-path acoustic interferometer
Temperature, K	Pressure, kPa	Speed of sound, m/s	uncertainty
303.15	101.3	1052.9	3.5

System: heptane; phases: Liquid, Gas
Property: Normal boiling temperature, K (Liquid); method: Distillation
Normal boiling temperature, K	uncertainty
371.35	0.1

System: heptane; phases: Liquid
Property: Mass density, kg/m3 (Liquid); method: Pycnometric method
Temperature, K	Pressure, kPa	Mass density, kg/m3	uncertainty
298.15	101.325	678.93	0.72

System: heptane; phases: Liquid
Property: Mass density, kg/m3 (Liquid); method: Pycnometric method
Temperature, K	Pressure, kPa	Mass density, kg/m3	uncertainty
303.15	101.325	674.38	0.71

System: heptane; phases: Liquid
Property: Viscosity, Pa*s (Liquid); method: Capillary tube (Ostwald; Ubbelohde) method
Temperature, K	Pressure, kPa	Viscosity, Pa*s	uncertainty
303.15	101.3	0.000387	4e-06

System: heptane; phases: Liquid
Property: Speed of sound, m/s (Liquid); method: Linear variable-path acoustic interferometer
Temperature, K	Pressure, kPa	Speed of sound, m/s	uncertainty
303.15	101.3	1110.5	3.7

System: octane; phases: Liquid, Gas
Property: Normal boiling temperature, K (Liquid); method: Distillation
Normal boiling temperature, K	uncertainty
399.15	0.1

System: octane; phases: Liquid
Property: Mass density, kg/m3 (Liquid); method: Pycnometric method
Temperature, K	Pressure, kPa	Mass density, kg/m3	uncertainty
298.15	101.325	697.36	0.73

System: octane; phases: Liquid
Property: Mass density, kg/m3 (Liquid); method: Pycnometric method
Temperature, K	Pressure, kPa	Mass density, kg/m3	uncertainty
303.15	101.325	692.56	0.7

System: octane; phases: Liquid
Property: Viscosity, Pa*s (Liquid); method: Capillary tube (Ostwald; Ubbelohde) method
Temperature, K	Pressure, kPa	Viscosity, Pa*s	uncertainty
303.15	101.3	0.000477	5e-06

System: octane; phases: Liquid
Property: Speed of sound, m/s (Liquid); method: Linear variable-path acoustic interferometer
Temperature, K	Pressure, kPa	Speed of sound, m/s	uncertainty
303.15	101.3	1152	4

System: 2,2,4-trimethylpentane; phases: Liquid
Property: Viscosity, Pa*s (Liquid); method: Capillary tube (Ostwald; Ubbelohde) method
Temperature, K	Pressure, kPa	Viscosity, Pa*s	uncertainty
303.15	101.3	0.000455	5e-06

System: 2,2,4-trimethylpentane; phases: Liquid
Property: Speed of sound, m/s (Liquid); method: Linear variable-path acoustic interferometer
Temperature, K	Pressure, kPa	Speed of sound, m/s	uncertainty
303.15	101.3	1060.8	3.5

System: benzene; phases: Liquid, Gas
Property: Normal boiling temperature, K (Liquid); method: Distillation
Normal boiling temperature, K	uncertainty
353.15	0.1

System: benzene; phases: Liquid
Property: Mass density, kg/m3 (Liquid); method: Pycnometric method
Temperature, K	Pressure, kPa	Mass density, kg/m3	uncertainty
298.15	101.325	873.64	0.8

System: benzene; phases: Liquid
Property: Mass density, kg/m3 (Liquid); method: Pycnometric method
Temperature, K	Pressure, kPa	Mass density, kg/m3	uncertainty
303.15	101.325	868.39	0.9

System: benzene; phases: Liquid
Property: Viscosity, Pa*s (Liquid); method: Capillary tube (Ostwald; Ubbelohde) method
Temperature, K	Pressure, kPa	Viscosity, Pa*s	uncertainty
303.15	101.3	0.000566	6e-06

System: benzene; phases: Liquid
Property: Speed of sound, m/s (Liquid); method: Linear variable-path acoustic interferometer
Temperature, K	Pressure, kPa	Speed of sound, m/s	uncertainty
303.15	101.3	1275.5	4.2

System: cyclohexane; phases: Liquid, Gas
Property: Normal boiling temperature, K (Liquid); method: Distillation
Normal boiling temperature, K	uncertainty
353.95	0.1

System: cyclohexane; phases: Liquid
Property: Mass density, kg/m3 (Liquid); method: Pycnometric method
Temperature, K	Pressure, kPa	Mass density, kg/m3	uncertainty
298.15	101.325	773.98	1

System: cyclohexane; phases: Liquid
Property: Mass density, kg/m3 (Liquid); method: Pycnometric method
Temperature, K	Pressure, kPa	Mass density, kg/m3	uncertainty
303.15	101.325	769.14	0.99

System: cyclohexane; phases: Liquid
Property: Viscosity, Pa*s (Liquid); method: Capillary tube (Ostwald; Ubbelohde) method
Temperature, K	Pressure, kPa	Viscosity, Pa*s	uncertainty
303.15	101.3	0.000793	8e-06

System: cyclohexane; phases: Liquid
Property: Speed of sound, m/s (Liquid); method: Linear variable-path acoustic interferometer
Temperature, K	Pressure, kPa	Speed of sound, m/s	uncertainty
303.15	101.3	1231	4

System: 1,2,3,4-tetrahydronaphthalene; phases: Liquid, Gas
Property: Normal boiling temperature, K (Liquid); method: Distillation
Normal boiling temperature, K	uncertainty
481.45	0.1

System: 1,2,3,4-tetrahydronaphthalene; phases: Liquid
Property: Mass density, kg/m3 (Liquid); method: Pycnometric method
Temperature, K	Pressure, kPa	Mass density, kg/m3	uncertainty
298.15	101.325	965.89	0.91

System: 1,2,3,4-tetrahydronaphthalene; phases: Liquid
Property: Mass density, kg/m3 (Liquid); method: Pycnometric method
Temperature, K	Pressure, kPa	Mass density, kg/m3	uncertainty
303.15	101.325	955.44	0.9

System: 1,2,3,4-tetrahydronaphthalene; phases: Liquid
Property: Viscosity, Pa*s (Liquid); method: Capillary tube (Ostwald; Ubbelohde) method
Temperature, K	Pressure, kPa	Viscosity, Pa*s	uncertainty
303.15	101.3	0.001749	1.7e-05

System: 1,2,3,4-tetrahydronaphthalene; phases: Liquid
Property: Speed of sound, m/s (Liquid); method: Linear variable-path acoustic interferometer
Temperature, K	Pressure, kPa	Speed of sound, m/s	uncertainty
303.15	101.3	1477	5

System: decahydronaphthalene; phases: Liquid, Gas
Property: Normal boiling temperature, K (Liquid); method: Distillation
Normal boiling temperature, K	uncertainty
464.25	0.1

System: decahydronaphthalene; phases: Liquid
Property: Mass density, kg/m3 (Liquid); method: Pycnometric method
Temperature, K	Pressure, kPa	Mass density, kg/m3	uncertainty
298.15	101.325	879.14	0.74

System: decahydronaphthalene; phases: Liquid
Property: Mass density, kg/m3 (Liquid); method: Pycnometric method
Temperature, K	Pressure, kPa	Mass density, kg/m3	uncertainty
303.15	101.325	868.5	0.74

System: decahydronaphthalene; phases: Liquid
Property: Viscosity, Pa*s (Liquid); method: Capillary tube (Ostwald; Ubbelohde) method
Temperature, K	Pressure, kPa	Viscosity, Pa*s	uncertainty
303.15	101.3	0.002091	2.1e-05

System: decahydronaphthalene; phases: Liquid
Property: Speed of sound, m/s (Liquid); method: Linear variable-path acoustic interferometer
Temperature, K	Pressure, kPa	Speed of sound, m/s	uncertainty
303.15	101.3	1404	5

System: diisopropyl ether + hexane; phases: Liquid
Fixed: Temperature, K = 303.15
Fixed: Pressure, kPa = 101
Property: Viscosity, Pa*s (Liquid); method: Capillary tube (Ostwald; Ubbelohde) method
Mole fraction of diisopropyl ether	Viscosity, Pa*s	uncertainty
0	0.000309	4e-06
0.1305	0.000312	4e-06
0.2555	0.000315	4e-06
0.392	0.000319	4e-06
0.4661	0.000321	4e-06
0.5633	0.000325	4e-06
0.605	0.000326	4e-06
0.7173	0.000331	4e-06
0.846	0.000338	4e-06
1	0.00035	4e-06

System: diisopropyl ether + hexane; phases: Liquid
Fixed: Temperature, K = 303.15
Fixed: Pressure, kPa = 101
Property: Speed of sound, m/s (Liquid); method: Linear variable-path acoustic interferometer
Mole fraction of diisopropyl ether	Speed of sound, m/s	uncertainty
0	1052.9	3.5
0.1305	1039.2	3.5
0.2555	1027.5	3.4
0.392	1016	3
0.4661	1009.9	3.4
0.5633	1002.6	3.3
0.605	999.6	3.3
0.7173	992.4	3.3
0.846	984.4	3.3
1	974.9	3.3

System: diisopropyl ether + hexane; phases: Liquid
Fixed: Temperature, K = 303.15
Fixed: Pressure, kPa = 101
Property: Excess molar volume, m3/mol (Liquid); method: Direct dilatometry
Mole fraction of diisopropyl ether	Excess molar volume, m3/mol	uncertainty
0.1305	1.37e-07	8e-09
0.2555	2.45e-07	8e-09
0.392	3.26e-07	8e-09
0.4661	3.44e-07	8e-09
0.5633	3.34e-07	8e-09
0.605	3.25e-07	8e-09
0.7173	2.79e-07	8e-09
0.846	1.74e-07	8e-09

System: diisopropyl ether + heptane; phases: Liquid
Fixed: Temperature, K = 303.15
Fixed: Pressure, kPa = 101
Property: Viscosity, Pa*s (Liquid); method: Capillary tube (Ostwald; Ubbelohde) method
Mole fraction of diisopropyl ether	Viscosity, Pa*s	uncertainty
0	0.000387	4e-06
0.1462	0.000385	4e-06
0.2667	0.000377	4e-06
0.4165	0.000365	4e-06
0.4774	0.000359	4e-06
0.5331	0.000356	4e-06
0.6068	0.000352	4e-06
0.7371	0.000346	4e-06
0.8642	0.000345	4e-06
1	0.00035	4e-06

System: diisopropyl ether + heptane; phases: Liquid
Fixed: Temperature, K = 303.15
Fixed: Pressure, kPa = 101
Property: Speed of sound, m/s (Liquid); method: Linear variable-path acoustic interferometer
Mole fraction of diisopropyl ether	Speed of sound, m/s	uncertainty
0	1110.5	3.7
0.1462	1090.7	3.6
0.2667	1072.8	3.6
0.4165	1050.6	3.5
0.4774	1041.8	3.5
0.5331	1033.9	3.4
0.6068	1023.9	3.4
0.7371	1006.9	3.4
0.8642	991.3	3.3
1	974.9	3.3

System: diisopropyl ether + heptane; phases: Liquid
Fixed: Temperature, K = 303.15
Fixed: Pressure, kPa = 101
Property: Excess molar volume, m3/mol (Liquid); method: Direct dilatometry
Mole fraction of diisopropyl ether	Excess molar volume, m3/mol	uncertainty
0.1462	1.67e-07	8e-09
0.2667	2.45e-07	8e-09
0.4165	3.16e-07	8e-09
0.4774	3.24e-07	8e-09
0.5331	3.27e-07	8e-09
0.6068	3.01e-07	8e-09
0.7371	2.61e-07	8e-09
0.8642	1.73e-07	8e-09

System: diisopropyl ether + octane; phases: Liquid
Fixed: Temperature, K = 303.15
Fixed: Pressure, kPa = 101
Property: Viscosity, Pa*s (Liquid); method: Capillary tube (Ostwald; Ubbelohde) method
Mole fraction of diisopropyl ether	Viscosity, Pa*s	uncertainty
0	0.000477	5e-06
0.165	0.000464	5e-06
0.2501	0.000451	5e-06
0.3816	0.000429	5e-06
0.4395	0.000417	5e-06
0.4911	0.000404	4e-06
0.6217	0.000381	4e-06
0.7805	0.00036	4e-06
0.8706	0.000354	4e-06
1	0.00035	4e-06

System: diisopropyl ether + octane; phases: Liquid
Fixed: Temperature, K = 303.15
Fixed: Pressure, kPa = 101
Property: Speed of sound, m/s (Liquid); method: Linear variable-path acoustic interferometer
Mole fraction of diisopropyl ether	Speed of sound, m/s	uncertainty
0	1152	4
0.165	1125.5	3.7
0.2501	1112.3	3.7
0.3816	1090.5	3.6
0.4395	1080.3	3.6
0.4911	1071.7	3.5
0.6217	1048.3	3.5
0.7805	1018.9	3.4
0.8706	1000.4	3.3
1	974.9	3.3

System: diisopropyl ether + octane; phases: Liquid
Fixed: Temperature, K = 303.15
Fixed: Pressure, kPa = 101
Property: Excess molar volume, m3/mol (Liquid); method: Direct dilatometry
Mole fraction of diisopropyl ether	Excess molar volume, m3/mol	uncertainty
0.165	1.58e-07	8e-09
0.2501	2.26e-07	8e-09
0.3816	2.95e-07	8e-09
0.4395	3.04e-07	8e-09
0.4911	3.02e-07	8e-09
0.6217	2.78e-07	8e-09
0.7805	2.03e-07	8e-09
0.8706	1.26e-07	8e-09

System: diisopropyl ether + 2,2,4-trimethylpentane; phases: Liquid
Fixed: Temperature, K = 303.15
Fixed: Pressure, kPa = 101
Property: Viscosity, Pa*s (Liquid); method: Capillary tube (Ostwald; Ubbelohde) method
Mole fraction of diisopropyl ether	Viscosity, Pa*s	uncertainty
0	0.000455	5e-06
0.1561	0.000441	5e-06
0.2397	0.000432	5e-06
0.3083	0.000422	5e-06
0.4565	0.000405	4e-06
0.4804	0.0004	4e-06
0.6222	0.00038	4e-06
0.8133	0.00036	4e-06
0.8775	0.000355	4e-06
1	0.00035	4e-06

System: diisopropyl ether + 2,2,4-trimethylpentane; phases: Liquid
Fixed: Temperature, K = 303.15
Fixed: Pressure, kPa = 101
Property: Speed of sound, m/s (Liquid); method: Linear variable-path acoustic interferometer
Mole fraction of diisopropyl ether	Speed of sound, m/s	uncertainty
0	1060.8	3.5
0.1561	1047.6	3.5
0.2397	1040.4	3.5
0.3083	1034.5	3.4
0.4565	1022.6	3.4
0.4804	1019.7	3.4
0.6222	1007.5	3.4
0.8133	991.1	3.3
0.8775	985.6	3.3
1	974.9	3.3

System: diisopropyl ether + 2,2,4-trimethylpentane; phases: Liquid
Fixed: Temperature, K = 303.15
Fixed: Pressure, kPa = 101
Property: Excess molar volume, m3/mol (Liquid); method: Direct dilatometry
Mole fraction of diisopropyl ether	Excess molar volume, m3/mol	uncertainty
0.1561	1.43e-07	8e-09
0.2397	2.09e-07	8e-09
0.3083	2.28e-07	8e-09
0.4565	2.79e-07	8e-09
0.4804	2.75e-07	8e-09
0.6222	2.5e-07	8e-09
0.8133	1.54e-07	8e-09
0.8775	1.24e-07	8e-09

System: benzene + diisopropyl ether; phases: Liquid
Fixed: Temperature, K = 303.15
Fixed: Pressure, kPa = 101
Property: Viscosity, Pa*s (Liquid); method: Capillary tube (Ostwald; Ubbelohde) method
Mole fraction of diisopropyl ether	Viscosity, Pa*s	uncertainty
0	0.000566	6e-06
0.0962	0.000542	6e-06
0.1813	0.000522	5e-06
0.3084	0.000492	5e-06
0.3375	0.000486	5e-06
0.4703	0.000456	5e-06
0.6323	0.000422	5e-06
0.7927	0.000389	4e-06
1	0.00035	4e-06

System: benzene + diisopropyl ether; phases: Liquid
Fixed: Temperature, K = 303.15
Fixed: Pressure, kPa = 101
Property: Speed of sound, m/s (Liquid); method: Linear variable-path acoustic interferometer
Mole fraction of diisopropyl ether	Speed of sound, m/s	uncertainty
0	1275.5	4.2
0.0962	1232.1	4
0.1813	1201.5	3.9
0.3084	1159.2	3.8
0.3375	1148.4	3.8
0.4703	1108.5	3.7
0.6323	1064.1	3.5
0.7927	1022.2	3.4
1	974.9	3.3

System: benzene + diisopropyl ether; phases: Liquid
Fixed: Temperature, K = 303.15
Fixed: Pressure, kPa = 101
Property: Excess molar volume, m3/mol (Liquid); method: Direct dilatometry
Mole fraction of diisopropyl ether	Excess molar volume, m3/mol	uncertainty
0.0962	-1.61e-07	8e-09
0.1813	-2.87e-07	8e-09
0.3084	-4.17e-07	8e-09
0.3375	-4.42e-07	8e-09
0.4703	-4.86e-07	8e-09
0.6323	-4.62e-07	8e-09
0.7927	-3.32e-07	8e-09

System: diisopropyl ether + cyclohexane; phases: Liquid
Fixed: Temperature, K = 303.15
Fixed: Pressure, kPa = 101
Property: Viscosity, Pa*s (Liquid); method: Capillary tube (Ostwald; Ubbelohde) method
Mole fraction of diisopropyl ether	Viscosity, Pa*s	uncertainty
0	0.000793	8e-06
0.118	0.000666	7e-06
0.2172	0.000589	6e-06
0.357	0.000513	5e-06
0.3972	0.000494	5e-06
0.5029	0.000452	5e-06
0.6777	0.000403	4e-06
0.8199	0.000373	4e-06
1	0.00035	4e-06

System: diisopropyl ether + cyclohexane; phases: Liquid
Fixed: Temperature, K = 303.15
Fixed: Pressure, kPa = 101
Property: Speed of sound, m/s (Liquid); method: Linear variable-path acoustic interferometer
Mole fraction of diisopropyl ether	Speed of sound, m/s	uncertainty
0	1231	4
0.118	1187.4	3.9
0.2172	1157.7	3.8
0.357	1117.9	3.7
0.3972	1106.9	3.7
0.5029	1080.7	3.6
0.6777	1041.6	3.5
0.8199	1011.6	3.4
1	974.9	3.3

System: diisopropyl ether + cyclohexane; phases: Liquid
Fixed: Temperature, K = 303.15
Fixed: Pressure, kPa = 101
Property: Excess molar volume, m3/mol (Liquid); method: Direct dilatometry
Mole fraction of diisopropyl ether	Excess molar volume, m3/mol	uncertainty
0.118	3.2e-08	8e-09
0.2172	4.7e-08	8e-09
0.357	6.3e-08	8e-09
0.3972	6.6e-08	8e-09
0.5029	6.9e-08	8e-09
0.6777	6.3e-08	8e-09
0.8199	3.9e-08	8e-09

System: diisopropyl ether + 1,2,3,4-tetrahydronaphthalene; phases: Liquid
Fixed: Temperature, K = 303.15
Fixed: Pressure, kPa = 101
Property: Viscosity, Pa*s (Liquid); method: Capillary tube (Ostwald; Ubbelohde) method
Mole fraction of diisopropyl ether	Viscosity, Pa*s	uncertainty
0	0.001749	1.7e-05
0.1358	0.001445	1.4e-05
0.2509	0.001223	1.2e-05
0.3997	0.000976	1e-05
0.4474	0.000904	9e-06
0.5718	0.000739	7e-06
0.7163	0.000578	6e-06
0.8473	0.00046	5e-06
1	0.00035	4e-06

System: diisopropyl ether + 1,2,3,4-tetrahydronaphthalene; phases: Liquid
Fixed: Temperature, K = 303.15
Fixed: Pressure, kPa = 101
Property: Speed of sound, m/s (Liquid); method: Linear variable-path acoustic interferometer
Mole fraction of diisopropyl ether	Speed of sound, m/s	uncertainty
0	1477	5
0.1358	1396.1	4.5
0.2509	1342.5	4.4
0.3997	1276.3	4.2
0.4474	1253	4.1
0.5718	1191.8	3.9
0.7163	1119.7	3.7
0.8473	1054.2	3.5
1	974.9	3.3

System: diisopropyl ether + 1,2,3,4-tetrahydronaphthalene; phases: Liquid
Fixed: Temperature, K = 303.15
Fixed: Pressure, kPa = 101
Property: Excess molar volume, m3/mol (Liquid); method: Direct dilatometry
Mole fraction of diisopropyl ether	Excess molar volume, m3/mol	uncertainty
0.1358	-7.08e-07	8e-09
0.2509	-1.135e-06	9e-09
0.3997	-1.459e-06	9e-09
0.4474	-1.505e-06	9e-09
0.5718	-1.503e-06	9e-09
0.7163	-1.261e-06	9e-09
0.8473	-8.13e-07	8e-09

System: decahydronaphthalene + diisopropyl ether; phases: Liquid
Fixed: Temperature, K = 303.15
Fixed: Pressure, kPa = 101
Property: Viscosity, Pa*s (Liquid); method: Capillary tube (Ostwald; Ubbelohde) method
Mole fraction of diisopropyl ether	Viscosity, Pa*s	uncertainty
0	0.002091	2.1e-05
0.1596	0.001586	1.5e-05
0.2785	0.001289	1.3e-05
0.4286	0.000989	1e-05
0.4734	0.000913	9e-06
0.6153	0.000706	7e-06
0.7514	0.000553	6e-06
0.8663	0.000448	5e-06
1	0.00035	4e-06

System: decahydronaphthalene + diisopropyl ether; phases: Liquid
Fixed: Temperature, K = 303.15
Fixed: Pressure, kPa = 101
Property: Speed of sound, m/s (Liquid); method: Linear variable-path acoustic interferometer
Mole fraction of diisopropyl ether	Speed of sound, m/s	uncertainty
0	1404	5
0.1596	1329	4
0.2785	1282.3	4.2
0.4286	1220.1	4
0.4734	1199.7	3.9
0.6153	1141.3	3.8
0.7514	1084.9	3.6
0.8663	1035.8	3.4
1	974.9	3.3

System: decahydronaphthalene + diisopropyl ether; phases: Liquid
Fixed: Temperature, K = 303.15
Fixed: Pressure, kPa = 101
Property: Excess molar volume, m3/mol (Liquid); method: Direct dilatometry
Mole fraction of diisopropyl ether	Excess molar volume, m3/mol	uncertainty
0.1596	-4e-07	8e-09
0.2785	-6.03e-07	8e-09
0.4286	-7.39e-07	8e-09
0.4734	-7.6e-07	8e-09
0.6153	-7.24e-07	8e-09
0.7514	-5.84e-07	8e-09
0.8663	-3.59e-07	8e-09
