Measured thermophysical data. Phase studies on the quasi-binary thallium(I) telluride-gallium(III) telluride system
Source: Thermochim. Acta, 2011, 10.1016/j.tca.2011.02.006
Compound 1: thallium telluride (Tl2Te), TeTl2, InChI=1S/Te.2Tl/q-2;2*+1, purity 98%
Compound 2: gallium telluride (Ga2Te3), Ga2Te3, InChI=1S/2Ga.3Te/q2*+3;3*-2, purity 99%

System: thallium telluride (Tl2Te); phases: Crystal, Liquid, Air at 1 atmosphere
Property: Normal melting temperature, K (Crystal); method: DTA
Normal melting temperature, K	uncertainty
687.5	0.5

System: gallium telluride (Ga2Te3); phases: Crystal, Liquid, Air at 1 atmosphere
Property: Normal melting temperature, K (Crystal); method: DTA
Normal melting temperature, K	uncertainty
1065	0.5

System: gallium telluride (Ga2Te3) + thallium telluride (Tl2Te); phases: Crystal, Crystal of intercomponent compound 1, Liquid, Air at 1 atmosphere
Property: Eutectic temperature, K (Crystal); method: DTA:
Eutectic temperature, K	uncertainty
975.3	0.1

System: gallium telluride (Ga2Te3) + thallium telluride (Tl2Te); phases: Crystal of intercomponent compound 2, Crystal of intercomponent compound 1, Liquid, Air at 1 atmosphere
Property: Eutectic temperature, K (Crystal of intercomponent compound 2); method: DTA:
Eutectic temperature, K	uncertainty
684	0.1

System: gallium telluride (Ga2Te3) + thallium telluride (Tl2Te); phases: Liquid, Crystal
Fixed: Pressure, kPa = 101
Property: Solid-liquid equilibrium temperature, K (Liquid); method: DTA
Mole fraction of gallium telluride (Ga2Te3)	Solid-liquid equilibrium temperature, K	uncertainty
0	687.5	0.5
0.0098	705.4	0.5
0.0199	707.5	0.5
0.0276	709.1	0.5
0.05	710.9	0.5

System: gallium telluride (Ga2Te3) + thallium telluride (Tl2Te); phases: Liquid, Crystal of intercomponent compound 2
Fixed: Pressure, kPa = 101
Property: Solid-liquid equilibrium temperature, K (Liquid); method: DTA
Mole fraction of gallium telluride (Ga2Te3)	Solid-liquid equilibrium temperature, K	uncertainty
0.05	710.9	0.5
0.0607	710.2	0.5
0.0802	704.9	0.5
0.0974	698.6	0.5
0.1078	694.7	0.5
0.1258	691.6	0.5
0.1435	685.4	0.5
0.1554	682.1	0.5

System: gallium telluride (Ga2Te3) + thallium telluride (Tl2Te); phases: Liquid, Crystal of intercomponent compound 1
Fixed: Pressure, kPa = 101
Property: Solid-liquid equilibrium temperature, K (Liquid); method: DTA
Mole fraction of gallium telluride (Ga2Te3)	Solid-liquid equilibrium temperature, K	uncertainty
0.1554	682.1	0.5
0.161	772.1	0.5
0.1655	686.7	0.5
0.1746	890	0.5
0.1962	869	0.5
0.2082	928.5	0.5
0.2292	902.3	0.5
0.2312	895	0.5
0.257	926.5	0.5
0.2573	953.7	0.5
0.272	964.8	0.5
0.2982	937.5	0.5
0.2982	930.3	0.5
0.3162	969.2	0.5
0.3162	965.2	0.5
0.3162	943.4	0.5
0.3189	970.9	0.5
0.3369	968.9	0.5
0.36	961.5	0.5
0.3877	987.6	0.5
0.4437	1005	0.5
0.468	1018.4	0.5
0.468	1013.4	0.5
0.522	1029.6	0.5
0.5445	1034.5	0.5
0.5691	1029	0.5
0.5935	1020.2	0.5
0.6013	1008	0.5
0.6215	1001.2	0.5
0.644	999.1	0.5
0.6487	1010.5	0.5
0.6672	987.7	0.5
0.6823	997.7	0.5
0.6823	984.3	0.5
0.6895	979.7	0.5
0.691	979.5	0.5
0.7106	975.3	0.5
0.7106	965.3	0.5
0.7184	965.5	0.5

System: gallium telluride (Ga2Te3) + thallium telluride (Tl2Te); phases: Liquid, Crystal
Fixed: Pressure, kPa = 101
Property: Solid-liquid equilibrium temperature, K (Liquid); method: DTA
Mole fraction of gallium telluride (Ga2Te3)	Solid-liquid equilibrium temperature, K	uncertainty
0.7106	965.3	0.5
0.7184	965.5	0.5
0.7395	974.7	0.5
0.7422	987.2	0.5
0.7545	1004.3	0.5
0.7545	996.3	0.5
0.7755	1011.7	0.5
0.8036	1020.5	0.5
0.834	1029.7	0.5
0.8558	1036.8	0.5
0.8812	1045.6	0.5
0.9083	1052	0.5
0.9818	1059.5	0.5
1	1065	0.5
