Measured thermophysical data. Experimental study on microcapsules of Ag doped ZnO nanomaterials enhanced Oleic-Myristic acid eutectic PCM for thermal energy storage
Source: Thermochim. Acta, 2019, 10.1016/j.tca.2018.11.010
Compound 1: (Z)-9-octadecenoic acid, C18H34O2, InChI=1S/C18H34O2/c1-2-3-4-5-6-7-8-9-10-11-12-13-14-15-16-17-18(19)20/h9-10H,2-8,11-17H2,1H3,(H,19,20)/b10-9-, purity 98%
Compound 2: tetradecanoic acid, C14H28O2, InChI=1S/C14H28O2/c1-2-3-4-5-6-7-8-9-10-11-12-13-14(15)16/h2-13H2,1H3,(H,15,16), purity 98%

System: (Z)-9-octadecenoic acid + tetradecanoic acid; phases: Crystal, Crystal, Liquid, Air at 1 atmosphere
Property: Eutectic composition: mass fraction of (Z)-9-octadecenoic acid (Crystal); method: Derived from phase diagram analysis
Eutectic composition: mass fraction of (Z)-9-octadecenoic acid	uncertainty
0.9	0.02

System: (Z)-9-octadecenoic acid + tetradecanoic acid; phases: Crystal, Crystal, Liquid, Air at 1 atmosphere
Property: Eutectic temperature, K (Crystal); method: DTA
Eutectic temperature, K	uncertainty
280.62	10.35

System: (Z)-9-octadecenoic acid + tetradecanoic acid; phases: Liquid
Property: Thermal conductivity, W/m/K (Liquid); method: Laser flash apparatus
Mass fraction of (Z)-9-octadecenoic acid	Pressure, kPa	Temperature, K	Thermal conductivity, W/m/K	uncertainty
0.9	100	298	0.2513	0.0057
