Measured thermophysical data. Enthalpies of transfer of amino acids from water to aqueous solutions of formamide
Source: Thermochim. Acta, 2005, 10.1016/j.tca.2005.04.002
Compound 1: 2-aminoacetic acid, C2H5NO2, InChI=1S/C2H5NO2/c3-1-2(4)5/h1,3H2,(H,4,5)
Compound 2: (S)-2-aminopropanoic acid, C3H7NO2, InChI=1S/C3H7NO2/c1-2(4)3(5)6/h2H,4H2,1H3,(H,5,6)/t2-/m0/s1
Compound 3: L-serine, C3H7NO3, InChI=1S/C3H7NO3/c4-2(1-5)3(6)7/h2,5H,1,4H2,(H,6,7)/t2-/m0/s1
Compound 4: water, H2O, InChI=1S/H2O/h1H2, purity 99.99%
Compound 5: formamide, CH3NO, InChI=1S/CH3NO/c2-1-3/h1H,(H2,2,3)

System: 2-aminoacetic acid + water; phases: Liquid
Property: Molar enthalpy of solution, kJ/mol (Liquid); method: CALVET:solid
Temperature, K	Pressure, kPa	Molality, mol/kg of 2-aminoacetic acid	Molar enthalpy of solution, kJ/mol	uncertainty
298.15	101.325	0.1	14.16	0.22

System: (S)-2-aminopropanoic acid + water; phases: Liquid
Property: Molar enthalpy of solution, kJ/mol (Liquid); method: CALVET::solid
Temperature, K	Pressure, kPa	Molality, mol/kg of (S)-2-aminopropanoic acid	Molar enthalpy of solution, kJ/mol	uncertainty
298.15	101.325	0.1	7.8	0.15

System: L-serine + water; phases: Liquid
Property: Molar enthalpy of solution, kJ/mol (Liquid); method: CALVET::solid
Temperature, K	Pressure, kPa	Molality, mol/kg of L-serine	Molar enthalpy of solution, kJ/mol	uncertainty
298.15	101.325	0.1	11.25	0.19

System: 2-aminoacetic acid + formamide + water; phases: Liquid
Fixed: Temperature, K = 298.15
Fixed: Pressure, kPa = 101.325
Property: Molar enthalpy of solution, kJ/mol (Liquid); method: CALVET:solid
Molality, mol/kg of 2-aminoacetic acid	Solvent: Molality, mol/kg of formamide	Molar enthalpy of solution, kJ/mol	uncertainty
0.063099	12.9843	11.74	0.19
0.06893	10.0077	11.74	0.26
0.073521	7.9963	11.95	0.25
0.078765	5.9856	12.36	0.21
0.085055	3.9012	12.77	0.25
0.091651	2.0225	13.36	0.26
0.095675	1.0037	13.79	0.26
0.097779	0.5044	14.03	0.34
0.1	0	14.16	0.22

System: (S)-2-aminopropanoic acid + formamide + water; phases: Liquid
Fixed: Temperature, K = 298.15
Fixed: Pressure, kPa = 101.325
Property: Molar enthalpy of solution, kJ/mol (Liquid); method: CALVET:solid
Molality, mol/kg of (S)-2-aminopropanoic acid	Solvent: Molality, mol/kg of formamide	Molar enthalpy of solution, kJ/mol	uncertainty
0.064908	12.0035	7.51	0.14
0.068884	10.0292	7.57	0.15
0.073424	8.0363	7.55	0.15
0.078765	5.9856	7.5	0.15
0.085571	3.7436	7.55	0.15
0.09173	2.0016	7.52	0.15
0.0957	0.9977	7.59	0.15
0.097714	0.5193	7.72	0.21
0.1	0	7.8	0.15

System: L-serine + formamide + water; phases: Liquid
Fixed: Temperature, K = 298.15
Fixed: Pressure, kPa = 101.325
Property: Molar enthalpy of solution, kJ/mol (Liquid); method: CALVET:solid
Molality, mol/kg of L-serine	Solvent: Molality, mol/kg of formamide	Molar enthalpy of solution, kJ/mol	uncertainty
0.063109	12.9785	8.37	0.15
0.068925	10.0101	8.49	0.16
0.073318	8.0799	8.77	0.16
0.078751	5.9908	9.28	0.17
0.085548	3.7508	9.69	0.17
0.091744	1.998	10.3	0.18
0.095675	1.0037	10.54	0.18
0.097776	0.5049	10.88	0.18
0.1	0	11.25	0.19
