Measured thermophysical data. Experimental Determination and Modeling of Densities, Refractive Indices of the Binary Mixtures  of Dimethylphthalate (or Dimethyladipate) + 1-Butanol, or + 2-Butanol, or + 2-Butanone at T = (288.15  to 323.15) K
Source: Thermochim. Acta, 2012, 10.1016/j.tca.2012.01.013
Compound 1: dimethyl 1,2-benzenedicarboxylate, C10H10O4, InChI=1S/C10H10O4/c1-13-9(11)7-5-3-4-6-8(7)10(12)14-2/h3-6H,1-2H3, purity 99%
Compound 2: dimethyl 1,6-hexanedioate, C8H14O4, InChI=1S/C8H14O4/c1-11-7(9)5-3-4-6-8(10)12-2/h3-6H2,1-2H3, purity 99%
Compound 3: butan-1-ol, C4H10O, InChI=1S/C4H10O/c1-2-3-4-5/h5H,2-4H2,1H3, purity 99.5%
Compound 4: butan-2-ol, C4H10O, InChI=1S/C4H10O/c1-3-4(2)5/h4-5H,3H2,1-2H3, purity 99%
Compound 5: butanone, C4H8O, InChI=1S/C4H8O/c1-3-4(2)5/h3H2,1-2H3, purity 99.5%

System: dimethyl 1,2-benzenedicarboxylate; phases: Liquid
Fixed: Pressure, kPa = 101.325
Property: Refractive index (Na D-line) (Liquid); method: Standard Abbe refractometry
Temperature, K	Refractive index (Na D-line)	uncertainty
288.15	1.51779	0.0004
293.15	1.51565	0.0004
298.15	1.51354	0.0004
303.15	1.51146	0.0004
308.15	1.50943	0.0004
313.15	1.50736	0.0004
318.15	1.50524	0.0004
323.15	1.5032	0.0004

System: dimethyl 1,2-benzenedicarboxylate; phases: Liquid
Fixed: Pressure, kPa = 101
Property: Mass density, kg/m3 (Liquid); method: Vibrating tube method
Temperature, K	Mass density, kg/m3	uncertainty
288.15	1196.257	0.394
293.15	1191.593	0.391
298.15	1186.933	0.387
303.15	1182.276	0.383
308.15	1177.622	0.379
313.15	1172.969	0.372
318.15	1168.316	0.368
323.15	1163.668	0.367

System: dimethyl 1,6-hexanedioate; phases: Liquid
Fixed: Pressure, kPa = 101.325
Property: Refractive index (Na D-line) (Liquid); method: Standard Abbe refractometry
Temperature, K	Refractive index (Na D-line)	uncertainty
288.15	1.4305	0.0004
293.15	1.42842	0.0004
298.15	1.42636	0.0004
303.15	1.42429	0.0004
308.15	1.42222	0.0004
313.15	1.42017	0.0004
318.15	1.41819	0.0004
323.15	1.41614	0.0004

System: dimethyl 1,6-hexanedioate; phases: Liquid
Fixed: Pressure, kPa = 101
Property: Mass density, kg/m3 (Liquid); method: Vibrating tube method
Temperature, K	Mass density, kg/m3	uncertainty
288.15	1066.794	0.288
293.15	1061.928	0.284
298.15	1057.056	0.28
303.15	1052.185	0.276
308.15	1047.308	0.273
313.15	1042.427	0.269
318.15	1037.539	0.265
323.15	1032.645	0.261

System: butan-1-ol; phases: Liquid
Fixed: Pressure, kPa = 101.325
Property: Refractive index (Na D-line) (Liquid); method: Standard Abbe refractometry
Temperature, K	Refractive index (Na D-line)	uncertainty
288.15	1.40135	0.00036
293.15	1.39932	0.00036
298.15	1.3973	0.00036
303.15	1.39523	0.00036
308.15	1.39318	0.00036
313.15	1.3911	0.00036
318.15	1.38901	0.00036
323.15	1.38688	0.00036

System: butan-1-ol; phases: Liquid
Fixed: Pressure, kPa = 101
Property: Mass density, kg/m3 (Liquid); method: Vibrating tube method
Temperature, K	Mass density, kg/m3	uncertainty
288.15	813.373	0.144
293.15	809.573	0.145
298.15	805.762	0.146
303.15	801.923	0.147
308.15	798.053	0.149
313.15	794.147	0.146
318.15	790.231	0.147
323.15	786.238	0.153

System: butan-2-ol; phases: Liquid
Fixed: Pressure, kPa = 101.325
Property: Refractive index (Na D-line) (Liquid); method: Standard Abbe refractometry
Temperature, K	Refractive index (Na D-line)	uncertainty
288.15	1.39951	0.0004
293.15	1.39736	0.0004
298.15	1.39515	0.0004
303.15	1.39293	0.0004
308.15	1.39064	0.0004
313.15	1.38832	0.0004
318.15	1.38596	0.0004
323.15	1.38352	0.0004

System: butan-2-ol; phases: Liquid
Fixed: Pressure, kPa = 101
Property: Mass density, kg/m3 (Liquid); method: Vibrating tube method
Temperature, K	Mass density, kg/m3	uncertainty
288.15	810.689	0.24
293.15	806.646	0.24
298.15	802.528	0.241
303.15	798.326	0.241
308.15	794.03	0.242
313.15	789.632	0.239
318.15	785.117	0.239
323.15	780.515	0.244

System: butanone; phases: Liquid
Fixed: Pressure, kPa = 101.325
Property: Refractive index (Na D-line) (Liquid); method: Standard Abbe refractometry
Temperature, K	Refractive index (Na D-line)	uncertainty
288.15	1.38153	0.00036
293.15	1.37892	0.00036
298.15	1.37631	0.00036
303.15	1.37366	0.00036
308.15	1.37102	0.00036
313.15	1.36834	0.00036
318.15	1.36565	0.00036
323.15	1.36294	0.00036

System: butanone; phases: Liquid
Fixed: Pressure, kPa = 101
Property: Mass density, kg/m3 (Liquid); method: Vibrating tube method
Temperature, K	Mass density, kg/m3	uncertainty
288.15	810.133	0.151
293.15	804.926	0.152
298.15	799.695	0.154
303.15	794.435	0.156
308.15	789.142	0.157
313.15	783.814	0.151
318.15	778.451	0.153
323.15	773.047	0.163

System: butan-1-ol + dimethyl 1,2-benzenedicarboxylate; phases: Liquid
Fixed: Pressure, kPa = 101
Property: Refractive index (Na D-line) (Liquid); method: Standard Abbe refractometry
Temperature, K	Mole fraction of dimethyl 1,2-benzenedicarboxylate	Refractive index (Na D-line)	uncertainty
288.15	0	1.40135	0.00036
288.15	0.0997	1.42114	0.00037
288.15	0.1998	1.43796	0.00037
288.15	0.2994	1.45268	0.00037
288.15	0.3999	1.4657	0.00037
288.15	0.5	1.47709	0.00038
288.15	0.5985	1.48663	0.00038
288.15	0.7001	1.49584	0.00039
288.15	0.8016	1.50398	0.00039
288.15	0.9002	1.51118	0.0004
288.15	1	1.51779	0.0004
293.15	0	1.39932	0.00036
293.15	0.0997	1.41907	0.00037
293.15	0.1998	1.43584	0.00037
293.15	0.2994	1.45052	0.00037
293.15	0.3999	1.46353	0.00038
293.15	0.5	1.47491	0.00038
293.15	0.5985	1.48446	0.00038
293.15	0.7001	1.49365	0.00039
293.15	0.8016	1.50183	0.00039
293.15	0.9002	1.50903	0.0004
293.15	1	1.51565	0.0004
298.15	0	1.3973	0.00036
298.15	0.0997	1.41699	0.00037
298.15	0.1998	1.43374	0.00037
298.15	0.2994	1.44835	0.00037
298.15	0.3999	1.46136	0.00038
298.15	0.5	1.47274	0.00038
298.15	0.5985	1.48227	0.00038
298.15	0.7001	1.49148	0.00039
298.15	0.8016	1.49966	0.00039
298.15	0.9002	1.50689	0.0004
298.15	1	1.51354	0.0004
303.15	0	1.39523	0.00036
303.15	0.0997	1.41489	0.00037
303.15	0.1998	1.43158	0.00037
303.15	0.2994	1.44618	0.00037
303.15	0.3999	1.45918	0.00038
303.15	0.5	1.47057	0.00038
303.15	0.5985	1.4801	0.00038
303.15	0.7001	1.48929	0.00039
303.15	0.8016	1.49753	0.00039
303.15	0.9002	1.50474	0.0004
303.15	1	1.51146	0.0004
308.15	0	1.39318	0.00036
308.15	0.0997	1.41266	0.00037
308.15	0.1998	1.42932	0.00037
308.15	0.2994	1.44399	0.00037
308.15	0.3999	1.45694	0.00038
308.15	0.5	1.46834	0.00038
308.15	0.5985	1.47795	0.00038
308.15	0.7001	1.4871	0.00039
308.15	0.8016	1.49537	0.00039
308.15	0.9002	1.50263	0.0004
308.15	1	1.50943	0.0004
313.15	0	1.3911	0.00036
313.15	0.0997	1.41048	0.00037
313.15	0.1998	1.42712	0.00037
313.15	0.2994	1.4417	0.00037
313.15	0.3999	1.45469	0.00037
313.15	0.5	1.4662	0.00038
313.15	0.5985	1.47585	0.00038
313.15	0.7001	1.48507	0.00039
313.15	0.8016	1.4933	0.00039
313.15	0.9002	1.50061	0.0004
313.15	1	1.50736	0.0004
318.15	0	1.38901	0.00036
318.15	0.0997	1.40835	0.00037
318.15	0.1998	1.42501	0.00037
318.15	0.2994	1.43965	0.00037
318.15	0.3999	1.45257	0.00037
318.15	0.5	1.46395	0.00038
318.15	0.5985	1.47376	0.00038
318.15	0.7001	1.48299	0.00039
318.15	0.8016	1.49121	0.00039
318.15	0.9002	1.49853	0.0004
318.15	1	1.50524	0.0004
323.15	0	1.38688	0.00036
323.15	0.0997	1.40609	0.00037
323.15	0.1998	1.42274	0.00037
323.15	0.2994	1.4375	0.00037
323.15	0.3999	1.45024	0.00038
323.15	0.5	1.46165	0.00038
323.15	0.5985	1.47156	0.00038
323.15	0.7001	1.48083	0.00039
323.15	0.8016	1.48906	0.00039
323.15	0.9002	1.4964	0.0004
323.15	1	1.5032	0.0004

System: butan-1-ol + dimethyl 1,2-benzenedicarboxylate; phases: Liquid
Fixed: Pressure, kPa = 101
Property: Mass density, kg/m3 (Liquid); method: Vibrating tube method
Temperature, K	Mole fraction of dimethyl 1,2-benzenedicarboxylate	Mass density, kg/m3	uncertainty
288.15	0	813.373	0.144
288.15	0.0997	877.193	0.173
288.15	0.1998	932.375	0.159
288.15	0.2994	980.153	0.152
288.15	0.3999	1022.544	0.165
288.15	0.5	1059.925	0.196
288.15	0.5985	1092.775	0.23
288.15	0.7001	1123.063	0.268
288.15	0.8016	1150.286	0.309
288.15	0.9002	1174.239	0.351
288.15	1	1196.257	0.394
293.15	0	809.573	0.145
293.15	0.0997	873.146	0.18
293.15	0.1998	928.143	0.166
293.15	0.2994	975.792	0.158
293.15	0.3999	1018.081	0.168
293.15	0.5	1055.372	0.197
293.15	0.5985	1088.175	0.23
293.15	0.7001	1118.425	0.267
293.15	0.8016	1145.626	0.307
293.15	0.9002	1169.573	0.349
293.15	1	1191.593	0.391
298.15	0	805.762	0.146
298.15	0.0997	869.077	0.18
298.15	0.1998	923.892	0.167
298.15	0.2994	971.414	0.159
298.15	0.3999	1013.603	0.166
298.15	0.5	1050.829	0.195
298.15	0.5985	1083.569	0.227
298.15	0.7001	1113.783	0.264
298.15	0.8016	1140.963	0.304
298.15	0.9002	1164.909	0.345
298.15	1	1186.933	0.387
303.15	0	801.923	0.147
303.15	0.0997	864.981	0.181
303.15	0.1998	919.619	0.167
303.15	0.2994	967.016	0.16
303.15	0.3999	1009.11	0.163
303.15	0.5	1046.264	0.192
303.15	0.5985	1078.957	0.224
303.15	0.7001	1109.141	0.261
303.15	0.8016	1136.307	0.301
303.15	0.9002	1160.249	0.341
303.15	1	1182.276	0.383
308.15	0	798.053	0.149
308.15	0.0997	860.864	0.182
308.15	0.1998	915.319	0.168
308.15	0.2994	962.593	0.161
308.15	0.3999	1004.597	0.161
308.15	0.5	1041.686	0.19
308.15	0.5985	1074.335	0.222
308.15	0.7001	1104.494	0.258
308.15	0.8016	1131.646	0.297
308.15	0.9002	1155.586	0.338
308.15	1	1177.622	0.379
313.15	0	794.147	0.146
313.15	0.0997	856.701	0.177
313.15	0.1998	910.989	0.163
313.15	0.2994	958.146	0.155
313.15	0.3999	1000.064	0.153
313.15	0.5	1037.105	0.182
313.15	0.5985	1069.705	0.214
313.15	0.7001	1099.84	0.251
313.15	0.8016	1126.983	0.29
313.15	0.9002	1150.927	0.331
313.15	1	1172.969	0.372
318.15	0	790.231	0.147
318.15	0.0997	852.519	0.179
318.15	0.1998	906.628	0.165
318.15	0.2994	953.674	0.157
318.15	0.3999	995.51	0.155
318.15	0.5	1032.5	0.18
318.15	0.5985	1065.059	0.212
318.15	0.7001	1095.178	0.248
318.15	0.8016	1122.318	0.287
318.15	0.9002	1146.268	0.328
318.15	1	1168.316	0.368
323.15	0	786.238	0.153
323.15	0.0997	848.279	0.196
323.15	0.1998	902.232	0.181
323.15	0.2994	949.172	0.172
323.15	0.3999	990.935	0.168
323.15	0.5	1027.868	0.187
323.15	0.5985	1060.404	0.217
323.15	0.7001	1090.512	0.252
323.15	0.8016	1117.649	0.289
323.15	0.9002	1141.607	0.328
323.15	1	1163.668	0.367

System: butan-2-ol + dimethyl 1,2-benzenedicarboxylate; phases: Liquid
Fixed: Pressure, kPa = 101
Property: Refractive index (Na D-line) (Liquid); method: Standard Abbe refractometry
Temperature, K	Mole fraction of dimethyl 1,2-benzenedicarboxylate	Refractive index (Na D-line)	uncertainty
288.15	0	1.39951	0.0004
288.15	0.1002	1.41917	0.0004
288.15	0.2014	1.43651	0.0004
288.15	0.3002	1.45122	0.0004
288.15	0.4001	1.46424	0.0004
288.15	0.5002	1.47591	0.0004
288.15	0.5991	1.48597	0.0004
288.15	0.6993	1.49516	0.0004
288.15	0.7996	1.50345	0.0004
288.15	0.9015	1.51115	0.0004
288.15	1	1.51779	0.0004
293.15	0	1.39736	0.0004
293.15	0.1002	1.41698	0.0004
293.15	0.2014	1.43429	0.0004
293.15	0.3002	1.44898	0.0004
293.15	0.4001	1.46209	0.0004
293.15	0.5002	1.47367	0.0004
293.15	0.5991	1.48373	0.0004
293.15	0.6993	1.49296	0.0004
293.15	0.7996	1.50126	0.0004
293.15	0.9015	1.50899	0.0004
293.15	1	1.51565	0.0004
298.15	0	1.39515	0.0004
298.15	0.1002	1.41476	0.0004
298.15	0.2014	1.43205	0.0004
298.15	0.3002	1.44672	0.0004
298.15	0.4001	1.45982	0.0004
298.15	0.5002	1.47143	0.0004
298.15	0.5991	1.48158	0.0004
298.15	0.6993	1.49076	0.0004
298.15	0.7996	1.49911	0.0004
298.15	0.9015	1.50685	0.0004
298.15	1	1.51354	0.0004
303.15	0	1.39293	0.0004
303.15	0.1002	1.41252	0.0004
303.15	0.2014	1.42979	0.0004
303.15	0.3002	1.44444	0.0004
303.15	0.4001	1.45755	0.0004
303.15	0.5002	1.46921	0.0004
303.15	0.5991	1.47934	0.0004
303.15	0.6993	1.48856	0.0004
303.15	0.7996	1.49692	0.0004
303.15	0.9015	1.5047	0.0004
303.15	1	1.51146	0.0004
308.15	0	1.39064	0.0004
308.15	0.1002	1.4102	0.0004
308.15	0.2014	1.42751	0.0004
308.15	0.3002	1.44214	0.0004
308.15	0.4001	1.45527	0.0004
308.15	0.5002	1.46689	0.0004
308.15	0.5991	1.47701	0.0004
308.15	0.6993	1.48633	0.0004
308.15	0.7996	1.49475	0.0004
308.15	0.9015	1.50256	0.0004
308.15	1	1.50943	0.0004
313.15	0	1.38832	0.0004
313.15	0.1002	1.40779	0.0004
313.15	0.2014	1.42515	0.0004
313.15	0.3002	1.43975	0.0004
313.15	0.4001	1.45295	0.0004
313.15	0.5002	1.46458	0.0004
313.15	0.5991	1.47484	0.0004
313.15	0.6993	1.48415	0.0004
313.15	0.7996	1.49263	0.0004
313.15	0.9015	1.50047	0.0004
313.15	1	1.50736	0.0004
318.15	0	1.38596	0.0004
318.15	0.1002	1.40549	0.0004
318.15	0.2014	1.42284	0.0004
318.15	0.3002	1.43749	0.0004
318.15	0.4001	1.45068	0.0004
318.15	0.5002	1.46236	0.0004
318.15	0.5991	1.47262	0.0004
318.15	0.6993	1.48194	0.0004
318.15	0.7996	1.49047	0.0004
318.15	0.9015	1.49835	0.0004
318.15	1	1.50524	0.0004
323.15	0	1.38352	0.0004
323.15	0.1002	1.40309	0.0004
323.15	0.2014	1.42026	0.0004
323.15	0.3002	1.4351	0.0004
323.15	0.4001	1.4483	0.0004
323.15	0.5002	1.46001	0.0004
323.15	0.5991	1.47032	0.0004
323.15	0.6993	1.47972	0.0004
323.15	0.7996	1.48828	0.0004
323.15	0.9015	1.49621	0.0004
323.15	1	1.5032	0.0004

System: butan-2-ol + dimethyl 1,2-benzenedicarboxylate; phases: Liquid
Fixed: Pressure, kPa = 101
Property: Mass density, kg/m3 (Liquid); method: Vibrating tube method
Temperature, K	Mole fraction of dimethyl 1,2-benzenedicarboxylate	Mass density, kg/m3	uncertainty
288.15	0	810.689	0.24
288.15	0.1002	874.348	0.26
288.15	0.2014	929.895	0.253
288.15	0.3002	977.298	0.248
288.15	0.4001	1019.601	0.259
288.15	0.5002	1057.273	0.286
288.15	0.5991	1090.584	0.311
288.15	0.6993	1120.969	0.335
288.15	0.7996	1148.474	0.357
288.15	0.9015	1173.86	0.377
288.15	1	1196.257	0.394
293.15	0	806.646	0.24
293.15	0.1002	870.052	0.265
293.15	0.2014	925.438	0.257
293.15	0.3002	972.737	0.252
293.15	0.4001	1014.971	0.259
293.15	0.5002	1052.596	0.285
293.15	0.5991	1085.884	0.31
293.15	0.6993	1116.262	0.333
293.15	0.7996	1143.777	0.354
293.15	0.9015	1169.182	0.375
293.15	1	1191.593	0.391
298.15	0	802.528	0.241
298.15	0.1002	865.694	0.265
298.15	0.2014	920.934	0.257
298.15	0.3002	968.144	0.252
298.15	0.4001	1010.315	0.256
298.15	0.5002	1047.905	0.282
298.15	0.5991	1081.177	0.306
298.15	0.6993	1111.556	0.329
298.15	0.7996	1139.082	0.35
298.15	0.9015	1164.505	0.371
298.15	1	1186.933	0.387
303.15	0	798.326	0.241
303.15	0.1002	861.267	0.265
303.15	0.2014	916.383	0.257
303.15	0.3002	963.512	0.252
303.15	0.4001	1005.631	0.253
303.15	0.5002	1043.188	0.278
303.15	0.5991	1076.453	0.302
303.15	0.6993	1106.844	0.325
303.15	0.7996	1134.39	0.346
303.15	0.9015	1159.831	0.367
303.15	1	1182.276	0.383
308.15	0	794.03	0.242
308.15	0.1002	856.794	0.265
308.15	0.2014	911.783	0.257
308.15	0.3002	958.844	0.252
308.15	0.4001	1000.925	0.249
308.15	0.5002	1038.469	0.275
308.15	0.5991	1071.73	0.298
308.15	0.6993	1102.127	0.321
308.15	0.7996	1129.692	0.343
308.15	0.9015	1155.162	0.363
308.15	1	1177.622	0.379
313.15	0	789.632	0.239
313.15	0.1002	852.235	0.262
313.15	0.2014	907.129	0.254
313.15	0.3002	954.133	0.248
313.15	0.4001	996.185	0.244
313.15	0.5002	1033.719	0.267
313.15	0.5991	1066.989	0.291
313.15	0.6993	1097.404	0.314
313.15	0.7996	1124.995	0.336
313.15	0.9015	1150.489	0.356
313.15	1	1172.969	0.372
318.15	0	785.117	0.239
318.15	0.1002	847.597	0.263
318.15	0.2014	902.417	0.255
318.15	0.3002	949.381	0.249
318.15	0.4001	991.415	0.245
318.15	0.5002	1028.949	0.264
318.15	0.5991	1062.233	0.288
318.15	0.6993	1092.675	0.311
318.15	0.7996	1120.295	0.332
318.15	0.9015	1145.817	0.353
318.15	1	1168.316	0.368
323.15	0	780.515	0.244
323.15	0.1002	842.887	0.275
323.15	0.2014	897.649	0.265
323.15	0.3002	944.587	0.258
323.15	0.4001	986.618	0.254
323.15	0.5002	1024.163	0.268
323.15	0.5991	1057.467	0.29
323.15	0.6993	1087.937	0.312
323.15	0.7996	1115.591	0.333
323.15	0.9015	1141.144	0.353
323.15	1	1163.668	0.367

System: butanone + dimethyl 1,2-benzenedicarboxylate; phases: Liquid
Fixed: Pressure, kPa = 101
Property: Refractive index (Na D-line) (Liquid); method: Standard Abbe refractometry
Temperature, K	Mole fraction of dimethyl 1,2-benzenedicarboxylate	Refractive index (Na D-line)	uncertainty
288.15	0	1.38153	0.00036
288.15	0.1002	1.40705	0.00037
288.15	0.2001	1.42733	0.00037
288.15	0.3002	1.44555	0.00037
288.15	0.3997	1.46042	0.00038
288.15	0.4982	1.47261	0.00038
288.15	0.6001	1.48425	0.00038
288.15	0.6993	1.49362	0.00039
288.15	0.7993	1.50271	0.00039
288.15	0.9002	1.51071	0.0004
288.15	1	1.51779	0.0004
293.15	0	1.37892	0.00036
293.15	0.1002	1.40471	0.00037
293.15	0.2001	1.42489	0.00037
293.15	0.3002	1.44315	0.00037
293.15	0.3997	1.45808	0.00038
293.15	0.4982	1.4703	0.00038
293.15	0.6001	1.48198	0.00038
293.15	0.6993	1.49141	0.00039
293.15	0.7993	1.50053	0.00039
293.15	0.9002	1.50855	0.0004
293.15	1	1.51565	0.0004
298.15	0	1.37631	0.00036
298.15	0.1002	1.40224	0.00037
298.15	0.2001	1.42243	0.00037
298.15	0.3002	1.44075	0.00037
298.15	0.3997	1.45576	0.00038
298.15	0.4982	1.46801	0.00038
298.15	0.6001	1.47972	0.00038
298.15	0.6993	1.48918	0.00039
298.15	0.7993	1.49835	0.00039
298.15	0.9002	1.5064	0.0004
298.15	1	1.51354	0.0004
303.15	0	1.37366	0.00036
303.15	0.1002	1.39965	0.00037
303.15	0.2001	1.41998	0.00037
303.15	0.3002	1.43839	0.00037
303.15	0.3997	1.45342	0.00038
303.15	0.4982	1.4657	0.00038
303.15	0.6001	1.47746	0.00038
303.15	0.6993	1.48696	0.00039
303.15	0.7993	1.49618	0.00039
303.15	0.9002	1.50426	0.0004
303.15	1	1.51146	0.0004
308.15	0	1.37102	0.00036
308.15	0.1002	1.39705	0.00037
308.15	0.2001	1.41752	0.00037
308.15	0.3002	1.4359	0.00037
308.15	0.3997	1.45091	0.00038
308.15	0.4982	1.46339	0.00038
308.15	0.6001	1.4752	0.00038
308.15	0.6993	1.48475	0.00039
308.15	0.7993	1.49399	0.00039
308.15	0.9002	1.50211	0.0004
308.15	1	1.50943	0.0004
313.15	0	1.36834	0.00036
313.15	0.1002	1.3943	0.00037
313.15	0.2001	1.41502	0.00037
313.15	0.3002	1.43328	0.00037
313.15	0.3997	1.44834	0.00038
313.15	0.4982	1.46101	0.00038
313.15	0.6001	1.47289	0.00038
313.15	0.6993	1.48252	0.00039
313.15	0.7993	1.49187	0.00039
313.15	0.9002	1.50006	0.0004
313.15	1	1.50736	0.0004
318.15	0	1.36565	0.00036
318.15	0.1002	1.39158	0.00037
318.15	0.2001	1.4124	0.00037
318.15	0.3002	1.43077	0.00037
318.15	0.3997	1.44591	0.00038
318.15	0.4982	1.45864	0.00038
318.15	0.6001	1.47061	0.00038
318.15	0.6993	1.48032	0.00039
318.15	0.7993	1.48973	0.00039
318.15	0.9002	1.49796	0.0004
318.15	1	1.50524	0.0004
323.15	0	1.36294	0.00036
323.15	0.1002	1.38878	0.00037
323.15	0.2001	1.40956	0.00037
323.15	0.3002	1.42768	0.00037
323.15	0.3997	1.44306	0.00038
323.15	0.4982	1.45602	0.00038
323.15	0.6001	1.4681	0.00038
323.15	0.6993	1.47795	0.00039
323.15	0.7993	1.48748	0.00039
323.15	0.9002	1.49582	0.0004
323.15	1	1.5032	0.0004

System: butanone + dimethyl 1,2-benzenedicarboxylate; phases: Liquid
Fixed: Pressure, kPa = 101
Property: Mass density, kg/m3 (Liquid); method: Vibrating tube method
Temperature, K	Mole fraction of dimethyl 1,2-benzenedicarboxylate	Mass density, kg/m3	uncertainty
288.15	0	810.133	0.151
288.15	0.1002	878.718	0.178
288.15	0.2001	936.554	0.162
288.15	0.3002	986.029	0.152
288.15	0.3997	1028.421	0.169
288.15	0.4982	1064.972	0.199
288.15	0.6001	1098.15	0.234
288.15	0.6993	1126.71	0.27
288.15	0.7993	1152.382	0.31
288.15	0.9002	1175.594	0.352
288.15	1	1196.257	0.394
293.15	0	804.926	0.152
293.15	0.1002	873.583	0.189
293.15	0.2001	931.496	0.171
293.15	0.3002	981.04	0.161
293.15	0.3997	1023.492	0.172
293.15	0.4982	1060.097	0.2
293.15	0.6001	1093.325	0.234
293.15	0.6993	1121.93	0.27
293.15	0.7993	1147.645	0.308
293.15	0.9002	1170.897	0.349
293.15	1	1191.593	0.391
298.15	0	799.695	0.154
298.15	0.1002	868.432	0.19
298.15	0.2001	926.423	0.173
298.15	0.3002	976.038	0.162
298.15	0.3997	1018.554	0.17
298.15	0.4982	1055.216	0.198
298.15	0.6001	1088.5	0.231
298.15	0.6993	1117.157	0.266
298.15	0.7993	1142.92	0.305
298.15	0.9002	1166.211	0.346
298.15	1	1186.933	0.387
303.15	0	794.435	0.156
303.15	0.1002	863.253	0.191
303.15	0.2001	921.334	0.174
303.15	0.3002	971.032	0.163
303.15	0.3997	1013.619	0.168
303.15	0.4982	1050.34	0.195
303.15	0.6001	1083.676	0.228
303.15	0.6993	1112.377	0.263
303.15	0.7993	1138.181	0.301
303.15	0.9002	1161.513	0.342
303.15	1	1182.276	0.383
308.15	0	789.142	0.157
308.15	0.1002	858.059	0.192
308.15	0.2001	916.232	0.175
308.15	0.3002	966.01	0.164
308.15	0.3997	1008.665	0.166
308.15	0.4982	1045.448	0.192
308.15	0.6001	1078.843	0.225
308.15	0.6993	1107.599	0.26
308.15	0.7993	1133.454	0.298
308.15	0.9002	1156.83	0.338
308.15	1	1177.622	0.379
313.15	0	783.814	0.151
313.15	0.1002	852.838	0.186
313.15	0.2001	911.111	0.168
313.15	0.3002	960.975	0.158
313.15	0.3997	1003.704	0.156
313.15	0.4982	1040.552	0.184
313.15	0.6001	1074.009	0.217
313.15	0.6993	1102.822	0.253
313.15	0.7993	1128.729	0.291
313.15	0.9002	1152.149	0.332
313.15	1	1172.969	0.372
318.15	0	778.451	0.153
318.15	0.1002	847.588	0.19
318.15	0.2001	905.966	0.171
318.15	0.3002	955.922	0.16
318.15	0.3997	998.73	0.156
318.15	0.4982	1035.648	0.182
318.15	0.6001	1069.173	0.215
318.15	0.6993	1098.047	0.25
318.15	0.7993	1124.009	0.288
318.15	0.9002	1147.473	0.329
318.15	1	1168.316	0.368
323.15	0	773.047	0.163
323.15	0.1002	842.312	0.214
323.15	0.2001	900.811	0.193
323.15	0.3002	950.87	0.179
323.15	0.3997	993.761	0.172
323.15	0.4982	1030.746	0.191
323.15	0.6001	1064.331	0.221
323.15	0.6993	1093.257	0.254
323.15	0.7993	1119.269	0.292
323.15	0.9002	1140.78	3
323.15	1	1163.668	0.367

System: butan-1-ol + dimethyl 1,6-hexanedioate; phases: Liquid
Fixed: Pressure, kPa = 101
Property: Refractive index (Na D-line) (Liquid); method: Standard Abbe refractometry
Temperature, K	Mole fraction of dimethyl 1,6-hexanedioate	Refractive index (Na D-line)	uncertainty
288.15	0	1.40135	0.00036
288.15	0.0999	1.40584	0.00036
288.15	0.2004	1.40986	0.00037
288.15	0.2999	1.41343	0.00037
288.15	0.4003	1.41668	0.00037
288.15	0.4999	1.41965	0.00038
288.15	0.6007	1.42221	0.00038
288.15	0.6996	1.42454	0.00039
288.15	0.7994	1.4267	0.00039
288.15	0.8991	1.42867	0.0004
288.15	1	1.4305	0.0004
293.15	0	1.39932	0.00036
293.15	0.0999	1.40378	0.00036
293.15	0.2004	1.40776	0.00037
293.15	0.2999	1.41135	0.00037
293.15	0.4003	1.41458	0.00037
293.15	0.4999	1.41754	0.00038
293.15	0.6007	1.4201	0.00038
293.15	0.6996	1.42243	0.00039
293.15	0.7994	1.4246	0.00039
293.15	0.8991	1.42658	0.0004
293.15	1	1.42842	0.0004
298.15	0	1.3973	0.00036
298.15	0.0999	1.40169	0.00036
298.15	0.2004	1.40568	0.00037
298.15	0.2999	1.40925	0.00037
298.15	0.4003	1.41247	0.00037
298.15	0.4999	1.41541	0.00038
298.15	0.6007	1.418	0.00038
298.15	0.6996	1.42033	0.00039
298.15	0.7994	1.4225	0.00039
298.15	0.8991	1.42451	0.0004
298.15	1	1.42636	0.0004
303.15	0	1.39523	0.00036
303.15	0.0999	1.39959	0.00036
303.15	0.2004	1.40356	0.00037
303.15	0.2999	1.40713	0.00037
303.15	0.4003	1.41033	0.00037
303.15	0.4999	1.41329	0.00038
303.15	0.6007	1.41588	0.00038
303.15	0.6996	1.41823	0.00039
303.15	0.7994	1.42042	0.00039
303.15	0.8991	1.42242	0.0004
303.15	1	1.42429	0.0004
308.15	0	1.39318	0.00036
308.15	0.0999	1.39746	0.00036
308.15	0.2004	1.40144	0.00037
308.15	0.2999	1.40498	0.00037
308.15	0.4003	1.4082	0.00037
308.15	0.4999	1.41109	0.00038
308.15	0.6007	1.41376	0.00038
308.15	0.6996	1.41612	0.00039
308.15	0.7994	1.41832	0.00039
308.15	0.8991	1.42035	0.0004
308.15	1	1.42222	0.0004
313.15	0	1.3911	0.00036
313.15	0.0999	1.39533	0.00036
313.15	0.2004	1.3993	0.00037
313.15	0.2999	1.40285	0.00037
313.15	0.4003	1.40603	0.00037
313.15	0.4999	1.40901	0.00038
313.15	0.6007	1.41163	0.00038
313.15	0.6996	1.41402	0.00039
313.15	0.7994	1.41623	0.00039
313.15	0.8991	1.41828	0.0004
313.15	1	1.42017	0.0004
318.15	0	1.38901	0.00036
318.15	0.0999	1.39323	0.00036
318.15	0.2004	1.39716	0.00037
318.15	0.2999	1.40072	0.00037
318.15	0.4003	1.40393	0.00037
318.15	0.4999	1.40688	0.00038
318.15	0.6007	1.40952	0.00038
318.15	0.6996	1.4119	0.00039
318.15	0.7994	1.41415	0.00039
318.15	0.8991	1.41622	0.0004
318.15	1	1.41819	0.0004
323.15	0	1.38688	0.00036
323.15	0.0999	1.39109	0.00036
323.15	0.2004	1.39505	0.00037
323.15	0.2999	1.39859	0.00037
323.15	0.4003	1.40177	0.00037
323.15	0.4999	1.40473	0.00038
323.15	0.6007	1.4074	0.00038
323.15	0.6996	1.40981	0.00039
323.15	0.7994	1.41207	0.00039
323.15	0.8991	1.41416	0.0004
323.15	1	1.41614	0.0004

System: butan-1-ol + dimethyl 1,6-hexanedioate; phases: Liquid
Fixed: Pressure, kPa = 101
Property: Mass density, kg/m3 (Liquid); method: Vibrating tube method
Temperature, K	Mole fraction of dimethyl 1,6-hexanedioate	Mass density, kg/m3	uncertainty
288.15	0	813.373	0.144
288.15	0.0999	854.546	0.155
288.15	0.2004	890.617	0.15
288.15	0.2999	921.957	0.15
288.15	0.4003	949.859	0.153
288.15	0.4999	974.548	0.16
288.15	0.6007	996.907	0.17
288.15	0.6996	1016.647	0.195
288.15	0.7994	1034.835	0.224
288.15	0.8991	1051.421	0.255
288.15	1	1066.794	0.288
293.15	0	809.573	0.145
293.15	0.0999	850.5	0.16
293.15	0.2004	886.373	0.156
293.15	0.2999	917.562	0.155
293.15	0.4003	945.34	0.158
293.15	0.4999	969.9	0.164
293.15	0.6007	992.211	0.173
293.15	0.6996	1011.892	0.194
293.15	0.7994	1030.032	0.223
293.15	0.8991	1046.58	0.253
293.15	1	1061.928	0.284
298.15	0	805.762	0.146
298.15	0.0999	846.433	0.161
298.15	0.2004	882.112	0.157
298.15	0.2999	913.148	0.156
298.15	0.4003	940.805	0.158
298.15	0.4999	965.3	0.164
298.15	0.6007	987.507	0.174
298.15	0.6996	1007.127	0.191
298.15	0.7994	1025.222	0.219
298.15	0.8991	1041.739	0.249
298.15	1	1057.056	0.28
303.15	0	801.923	0.147
303.15	0.0999	842.341	0.162
303.15	0.2004	877.825	0.158
303.15	0.2999	908.714	0.157
303.15	0.4003	936.253	0.159
303.15	0.4999	960.66	0.165
303.15	0.6007	982.791	0.174
303.15	0.6996	1002.355	0.188
303.15	0.7994	1020.409	0.216
303.15	0.8991	1036.892	0.246
303.15	1	1052.185	0.276
308.15	0	798.053	0.149
308.15	0.0999	838.219	0.163
308.15	0.2004	873.513	0.158
308.15	0.2999	904.259	0.158
308.15	0.4003	931.684	0.16
308.15	0.4999	955.998	0.166
308.15	0.6007	978.06	0.175
308.15	0.6996	997.573	0.187
308.15	0.7994	1015.587	0.213
308.15	0.8991	1032.04	0.242
308.15	1	1047.308	0.273
313.15	0	794.147	0.15
313.15	0.0999	834.066	0.164
313.15	0.2004	869.172	0.159
313.15	0.2999	899.775	0.158
313.15	0.4003	927.091	0.161
313.15	0.4999	951.32	0.167
313.15	0.6007	973.316	0.176
313.15	0.6996	992.781	0.187
313.15	0.7994	1010.757	0.209
313.15	0.8991	1027.183	0.239
313.15	1	1042.427	0.269
318.15	0	790.231	0.151
318.15	0.0999	829.874	0.165
318.15	0.2004	864.799	0.16
318.15	0.2999	895.264	0.159
318.15	0.4003	922.473	0.162
318.15	0.4999	946.622	0.168
318.15	0.6007	968.555	0.176
318.15	0.6996	987.974	0.188
318.15	0.7994	1005.915	0.206
318.15	0.8991	1022.314	0.235
318.15	1	1037.539	0.265
323.15	0	786.238	0.153
323.15	0.0999	825.64	0.173
323.15	0.2004	860.391	0.167
323.15	0.2999	890.725	0.166
323.15	0.4003	917.832	0.167
323.15	0.4999	941.902	0.172
323.15	0.6007	963.778	0.18
323.15	0.6996	983.155	0.19
323.15	0.7994	1001.064	0.205
323.15	0.8991	1017.438	0.233
323.15	1	1032.645	0.261

System: butan-2-ol + dimethyl 1,6-hexanedioate; phases: Liquid
Fixed: Pressure, kPa = 101
Property: Refractive index (Na D-line) (Liquid); method: Standard Abbe refractometry
Temperature, K	Mole fraction of dimethyl 1,6-hexanedioate	Refractive index (Na D-line)	uncertainty
288.15	0	1.39951	0.0004
288.15	0.1	1.40371	0.0004
288.15	0.2001	1.40787	0.0004
288.15	0.3	1.41161	0.0004
288.15	0.4	1.41507	0.0004
288.15	0.5003	1.41815	0.0004
288.15	0.6	1.42105	0.0004
288.15	0.6999	1.42368	0.0004
288.15	0.8005	1.42612	0.0004
288.15	0.8999	1.42837	0.0004
288.15	1	1.4305	0.0004
293.15	0	1.39736	0.0004
293.15	0.1	1.40153	0.0004
293.15	0.2001	1.4057	0.0004
293.15	0.3	1.40945	0.0004
293.15	0.4	1.4129	0.0004
293.15	0.5003	1.41602	0.0004
293.15	0.6	1.41891	0.0004
293.15	0.6999	1.42156	0.0004
293.15	0.8005	1.42403	0.0004
293.15	0.8999	1.42628	0.0004
293.15	1	1.42842	0.0004
298.15	0	1.39515	0.0004
298.15	0.1	1.39933	0.0004
298.15	0.2001	1.40348	0.0004
298.15	0.3	1.40724	0.0004
298.15	0.4	1.41071	0.0004
298.15	0.5003	1.41385	0.0004
298.15	0.6	1.41676	0.0004
298.15	0.6999	1.41943	0.0004
298.15	0.8005	1.42191	0.0004
298.15	0.8999	1.4242	0.0004
298.15	1	1.42636	0.0004
303.15	0	1.39293	0.0004
303.15	0.1	1.39709	0.0004
303.15	0.2001	1.40124	0.0004
303.15	0.3	1.405	0.0004
303.15	0.4	1.40851	0.0004
303.15	0.5003	1.41165	0.0004
303.15	0.6	1.4146	0.0004
303.15	0.6999	1.4173	0.0004
303.15	0.8005	1.41981	0.0004
303.15	0.8999	1.42211	0.0004
303.15	1	1.42429	0.0004
308.15	0	1.39064	0.0004
308.15	0.1	1.39479	0.0004
308.15	0.2001	1.39899	0.0004
308.15	0.3	1.40278	0.0004
308.15	0.4	1.4063	0.0004
308.15	0.5003	1.40948	0.0004
308.15	0.6	1.41244	0.0004
308.15	0.6999	1.41515	0.0004
308.15	0.8005	1.4177	0.0004
308.15	0.8999	1.42004	0.0004
308.15	1	1.42222	0.0004
313.15	0	1.38832	0.0004
313.15	0.1	1.39245	0.0004
313.15	0.2001	1.39669	0.0004
313.15	0.3	1.40049	0.0004
313.15	0.4	1.40404	0.0004
313.15	0.5003	1.40726	0.0004
313.15	0.6	1.41026	0.0004
313.15	0.6999	1.41301	0.0004
313.15	0.8005	1.41557	0.0004
313.15	0.8999	1.41795	0.0004
313.15	1	1.42017	0.0004
318.15	0	1.38596	0.0004
318.15	0.1	1.39013	0.0004
318.15	0.2001	1.39438	0.0004
318.15	0.3	1.39825	0.0004
318.15	0.4	1.4018	0.0004
318.15	0.5003	1.40503	0.0004
318.15	0.6	1.40808	0.0004
318.15	0.6999	1.41088	0.0004
318.15	0.8005	1.41348	0.0004
318.15	0.8999	1.41588	0.0004
318.15	1	1.41819	0.0004
323.15	0	1.38352	0.0004
323.15	0.1	1.38776	0.0004
323.15	0.2001	1.39207	0.0004
323.15	0.3	1.39597	0.0004
323.15	0.4	1.39955	0.0004
323.15	0.5003	1.40283	0.0004
323.15	0.6	1.40592	0.0004
323.15	0.6999	1.40875	0.0004
323.15	0.8005	1.41138	0.0004
323.15	0.8999	1.41382	0.0004
323.15	1	1.41614	0.0004

System: butan-2-ol + dimethyl 1,6-hexanedioate; phases: Liquid
Fixed: Pressure, kPa = 101
Property: Mass density, kg/m3 (Liquid); method: Vibrating tube method
Temperature, K	Mole fraction of dimethyl 1,6-hexanedioate	Mass density, kg/m3	uncertainty
288.15	0	810.689	0.24
288.15	0.1	851.006	0.247
288.15	0.2001	886.929	0.243
288.15	0.3	918.373	0.241
288.15	0.4	946.216	0.239
288.15	0.5003	971.377	0.238
288.15	0.6	994.171	0.238
288.15	0.6999	1014.772	0.249
288.15	0.8005	1033.71	0.263
288.15	0.8999	1050.856	0.276
288.15	1	1066.794	0.288
293.15	0	806.646	0.24
293.15	0.1	846.719	0.25
293.15	0.2001	882.468	0.246
293.15	0.3	913.786	0.244
293.15	0.4	941.538	0.242
293.15	0.5003	966.636	0.24
293.15	0.6	989.387	0.24
293.15	0.6999	1009.958	0.247
293.15	0.8005	1028.875	0.261
293.15	0.8999	1046.005	0.273
293.15	1	1061.928	0.284
298.15	0	802.528	0.241
298.15	0.1	842.377	0.25
298.15	0.2001	877.96	0.247
298.15	0.3	909.164	0.244
298.15	0.4	936.838	0.242
298.15	0.5003	961.876	0.241
298.15	0.6	984.59	0.24
298.15	0.6999	1005.134	0.243
298.15	0.8005	1024.034	0.257
298.15	0.8999	1041.15	0.27
298.15	1	1057.056	0.28
303.15	0	798.326	0.241
303.15	0.1	837.975	0.251
303.15	0.2001	873.411	0.247
303.15	0.3	904.511	0.244
303.15	0.4	932.113	0.242
303.15	0.5003	957.1	0.241
303.15	0.6	979.781	0.24
303.15	0.6999	1000.302	0.239
303.15	0.8005	1019.188	0.253
303.15	0.8999	1036.292	0.266
303.15	1	1052.185	0.276
308.15	0	794.03	0.242
308.15	0.1	833.506	0.251
308.15	0.2001	868.81	0.247
308.15	0.3	899.82	0.244
308.15	0.4	927.355	0.242
308.15	0.5003	952.301	0.241
308.15	0.6	974.955	0.24
308.15	0.6999	995.457	0.239
308.15	0.8005	1014.331	0.249
308.15	0.8999	1031.426	0.262
308.15	1	1047.308	0.273
313.15	0	789.632	0.242
313.15	0.1	828.965	0.251
313.15	0.2001	864.16	0.247
313.15	0.3	895.087	0.244
313.15	0.4	922.569	0.242
313.15	0.5003	947.474	0.241
313.15	0.6	970.109	0.24
313.15	0.6999	990.598	0.239
313.15	0.8005	1009.468	0.246
313.15	0.8999	1026.554	0.258
313.15	1	1042.427	0.269
318.15	0	785.117	0.243
318.15	0.1	824.35	0.252
318.15	0.2001	859.451	0.248
318.15	0.3	890.312	0.245
318.15	0.4	917.75	0.242
318.15	0.5003	942.626	0.241
318.15	0.6	965.245	0.24
318.15	0.6999	985.726	0.239
318.15	0.8005	1004.587	0.242
318.15	0.8999	1021.673	0.255
318.15	1	1037.539	0.265
323.15	0	780.515	0.244
323.15	0.1	819.659	0.256
323.15	0.2001	854.686	0.252
323.15	0.3	885.493	0.248
323.15	0.4	912.894	0.245
323.15	0.5003	937.752	0.243
323.15	0.6	960.363	0.242
323.15	0.6999	980.838	0.241
323.15	0.8005	999.701	0.24
323.15	0.8999	1016.784	0.252
323.15	1	1032.645	0.261

System: butanone + dimethyl 1,6-hexanedioate; phases: Liquid
Fixed: Pressure, kPa = 101
Property: Refractive index (Na D-line) (Liquid); method: Standard Abbe refractometry
Temperature, K	Mole fraction of dimethyl 1,6-hexanedioate	Refractive index (Na D-line)	uncertainty
288.15	0	1.38153	0.00036
288.15	0.1002	1.3909	0.00036
288.15	0.2002	1.39827	0.00037
288.15	0.3002	1.40453	0.00037
288.15	0.4004	1.40995	0.00037
288.15	0.5001	1.41452	0.00038
288.15	0.5999	1.41853	0.00038
288.15	0.6998	1.42204	0.00039
288.15	0.7994	1.42515	0.00039
288.15	0.8997	1.42797	0.0004
288.15	1	1.4305	0.0004
293.15	0	1.37892	0.00036
293.15	0.1002	1.38847	0.00037
293.15	0.2002	1.39586	0.00037
293.15	0.3002	1.40221	0.00037
293.15	0.4004	1.40768	0.00037
293.15	0.5001	1.41229	0.00038
293.15	0.5999	1.41634	0.00038
293.15	0.6998	1.41989	0.00039
293.15	0.7994	1.42303	0.00039
293.15	0.8997	1.42587	0.0004
293.15	1	1.42842	0.0004
298.15	0	1.37631	0.00036
298.15	0.1002	1.38601	0.00037
298.15	0.2002	1.39346	0.00037
298.15	0.3002	1.39988	0.00037
298.15	0.4004	1.4054	0.00037
298.15	0.5001	1.41005	0.00038
298.15	0.5999	1.41416	0.00038
298.15	0.6998	1.41774	0.00039
298.15	0.7994	1.42091	0.00039
298.15	0.8997	1.42378	0.0004
298.15	1	1.42636	0.0004
303.15	0	1.37366	0.00036
303.15	0.1002	1.38348	0.00037
303.15	0.2002	1.39104	0.00037
303.15	0.3002	1.39751	0.00037
303.15	0.4004	1.4031	0.00037
303.15	0.5001	1.4078	0.00038
303.15	0.5999	1.41196	0.00038
303.15	0.6998	1.41557	0.00039
303.15	0.7994	1.41878	0.00039
303.15	0.8997	1.42168	0.0004
303.15	1	1.42429	0.0004
308.15	0	1.37102	0.00036
308.15	0.1002	1.38097	0.00037
308.15	0.2002	1.38859	0.00037
308.15	0.3002	1.39515	0.00037
308.15	0.4004	1.40079	0.00037
308.15	0.5001	1.40555	0.00038
308.15	0.5999	1.40974	0.00038
308.15	0.6998	1.41341	0.00039
308.15	0.7994	1.41667	0.00039
308.15	0.8997	1.41961	0.0004
308.15	1	1.42222	0.0004
313.15	0	1.36834	0.00036
313.15	0.1002	1.37832	0.00037
313.15	0.2002	1.38611	0.00037
313.15	0.3002	1.39277	0.00037
313.15	0.4004	1.39848	0.00037
313.15	0.5001	1.4033	0.00038
313.15	0.5999	1.40756	0.00038
313.15	0.6998	1.41126	0.00039
313.15	0.7994	1.41455	0.00039
313.15	0.8997	1.41751	0.0004
313.15	1	1.42017	0.0004
318.15	0	1.36565	0.00036
318.15	0.1002	1.37568	0.00037
318.15	0.2002	1.38355	0.00037
318.15	0.3002	1.39031	0.00037
318.15	0.4004	1.39611	0.00037
318.15	0.5001	1.401	0.00038
318.15	0.5999	1.40532	0.00038
318.15	0.6998	1.40909	0.00039
318.15	0.7994	1.41243	0.00039
318.15	0.8997	1.41544	0.0004
318.15	1	1.41819	0.0004
323.15	0	1.36294	0.00036
323.15	0.1002	1.37305	0.00037
323.15	0.2002	1.38103	0.00037
323.15	0.3002	1.38784	0.00037
323.15	0.4004	1.39374	0.00038
323.15	0.5001	1.39869	0.00038
323.15	0.5999	1.40307	0.00038
323.15	0.6998	1.40691	0.00039
323.15	0.7994	1.4103	0.00039
323.15	0.8997	1.41336	0.0004
323.15	1	1.41614	0.0004

System: butanone + dimethyl 1,6-hexanedioate; phases: Liquid
Fixed: Pressure, kPa = 101
Property: Mass density, kg/m3 (Liquid); method: Vibrating tube method
Temperature, K	Mole fraction of dimethyl 1,6-hexanedioate	Mass density, kg/m3	uncertainty
288.15	0	810.133	0.151
288.15	0.1002	855.132	0.159
288.15	0.2002	893.327	0.152
288.15	0.3002	926.063	0.151
288.15	0.4004	954.409	0.153
288.15	0.5001	979.016	0.16
288.15	0.5999	1000.719	0.17
288.15	0.6998	1020.034	0.197
288.15	0.7994	1037.276	0.226
288.15	0.8997	1052.862	0.256
288.15	1	1066.794	0.288
293.15	0	804.926	0.152
293.15	0.1002	849.982	0.168
293.15	0.2002	888.227	0.161
293.15	0.3002	921.006	0.158
293.15	0.4004	949.39	0.159
293.15	0.5001	974.03	0.165
293.15	0.5999	995.763	0.173
293.15	0.6998	1015.104	0.196
293.15	0.7994	1032.368	0.224
293.15	0.8997	1047.976	0.254
293.15	1	1061.928	0.284
298.15	0	799.695	0.154
298.15	0.1002	844.812	0.17
298.15	0.2002	883.111	0.162
298.15	0.3002	915.937	0.159
298.15	0.4004	944.361	0.16
298.15	0.5001	969.035	0.165
298.15	0.5999	990.798	0.174
298.15	0.6998	1010.167	0.193
298.15	0.7994	1027.455	0.221
298.15	0.8997	1043.084	0.25
298.15	1	1057.056	0.28
303.15	0	794.435	0.156
303.15	0.1002	839.62	0.171
303.15	0.2002	877.976	0.163
303.15	0.3002	910.852	0.16
303.15	0.4004	939.32	0.161
303.15	0.5001	964.032	0.166
303.15	0.5999	985.828	0.175
303.15	0.6998	1005.225	0.19
303.15	0.7994	1022.538	0.217
303.15	0.8997	1038.19	0.247
303.15	1	1052.185	0.276
308.15	0	789.142	0.157
308.15	0.1002	834.401	0.172
308.15	0.2002	872.82	0.164
308.15	0.3002	905.75	0.161
308.15	0.4004	934.263	0.162
308.15	0.5001	959.015	0.167
308.15	0.5999	980.845	0.175
308.15	0.6998	1000.272	0.187
308.15	0.7994	1017.612	0.214
308.15	0.8997	1033.289	0.243
308.15	1	1047.308	0.273
313.15	0	783.814	0.159
313.15	0.1002	829.151	0.174
313.15	0.2002	867.64	0.166
313.15	0.3002	900.629	0.162
313.15	0.4004	929.193	0.163
313.15	0.5001	953.987	0.168
313.15	0.5999	975.853	0.176
313.15	0.6998	995.312	0.187
313.15	0.7994	1012.68	0.211
313.15	0.8997	1028.382	0.24
313.15	1	1042.427	0.269
318.15	0	778.451	0.161
318.15	0.1002	823.875	0.175
318.15	0.2002	862.438	0.167
318.15	0.3002	895.489	0.164
318.15	0.4004	924.104	0.164
318.15	0.5001	948.941	0.169
318.15	0.5999	970.845	0.177
318.15	0.6998	990.336	0.188
318.15	0.7994	1007.736	0.208
318.15	0.8997	1023.468	0.236
318.15	1	1037.539	0.265
323.15	0	773.047	0.163
323.15	0.1002	818.564	0.188
323.15	0.2002	857.21	0.178
323.15	0.3002	890.33	0.172
323.15	0.4004	919.003	0.171
323.15	0.5001	943.887	0.174
323.15	0.5999	965.832	0.181
323.15	0.6998	985.36	0.191
323.15	0.7994	1002.791	0.206
323.15	0.8997	1018.551	0.234
323.15	1	1032.645	0.261
