Measured thermophysical data. On the thermal characterization of solids by photoacoustic calorimetry: thermal diffusivity and linear thermal expansion coefficient
Source: Thermochim. Acta, 2015, 10.1016/j.tca.2015.06.009
Compound 1: copper, Cu, InChI=1S/Cu
Compound 2: silver, Ag, InChI=1S/Ag
Compound 3: aluminum, Al, InChI=1S/Al

System: copper; phases: Crystal
Property: Isobaric coefficient of expansion, 1/K (Crystal); method: Photoacoustics
Temperature, K	Pressure, kPa	Isobaric coefficient of expansion, 1/K	uncertainty
300	101.325	1.3e-05	1e-06

System: copper; phases: Crystal
Property: Thermal diffusivity, m2/s (Crystal); method: Photoacoustics
Temperature, K	Pressure, kPa	Thermal diffusivity, m2/s	uncertainty
300	101.325	0.000116	4e-06

System: silver; phases: Crystal
Property: Isobaric coefficient of expansion, 1/K (Crystal); method: Photoacoustics
Temperature, K	Pressure, kPa	Isobaric coefficient of expansion, 1/K	uncertainty
300	101.325	1.4e-05	1e-06

System: silver; phases: Crystal
Property: Thermal diffusivity, m2/s (Crystal); method: Photoacoustics
Temperature, K	Pressure, kPa	Thermal diffusivity, m2/s	uncertainty
300	101.325	0.000174	1.2e-05

System: aluminum; phases: Crystal
Property: Isobaric coefficient of expansion, 1/K (Crystal); method: Photoacoustics
Temperature, K	Pressure, kPa	Isobaric coefficient of expansion, 1/K	uncertainty
300	101.325	1.5e-05	1e-06

System: aluminum; phases: Crystal
Property: Thermal diffusivity, m2/s (Crystal); method: Photoacoustics
Temperature, K	Pressure, kPa	Thermal diffusivity, m2/s	uncertainty
300	101.325	9.37e-05	1.6e-06
