Measured thermophysical data. Synthesis and thermochemistry of SrB2O4*2.5H2O and SrB6O10*5H2O
Source: Thermochim. Acta, 2007, 10.1016/j.tca.2007.07.010
Compound 1: boric acid, BH3O3, InChI=1S/BH3O3/c2-1(3)4/h2-4H, purity 99.5%
Compound 2: strontium hydroxide octahydrate Sr(OH)2*8H2O, H18O10Sr, InChI=1S/10H2O.Sr/h10*1H2;/q;;;;;;;;;;+2/p-2, purity 99.5%
Compound 3: strontium borate hydrate, B4H10O13Sr2, InChI=1S/4BO2.5H2O.2Sr/c4*2-1-3;;;;;;;/h;;;;5*1H2;;/q4*-1;;;;;;2*+2, purity 99%
Compound 4: water, H2O, InChI=1S/H2O/h1H2, purity 99.99%
Compound 5: strontium hexaborate hydrate, B6H10O15Sr, InChI=1S/2B2O3.2BO2.5H2O.Sr/c2*3-1-5-2-4;2*2-1-3;;;;;;/h;;;;5*1H2;/q;;2*-1;;;;;;+2, purity 99%

Reaction: -4 boric acid + -2 strontium hydroxide octahydrate Sr(OH)2*8H2O + 1 strontium borate hydrate + 19 water
Property: Molar enthalpy of reaction, kJ/mol
-1.64

Reaction: -6 boric acid + -1 strontium hydroxide octahydrate Sr(OH)2*8H2O + 1 strontium hexaborate hydrate + 13 water
Property: Molar enthalpy of reaction, kJ/mol
27.63
