Measured thermophysical data. Experimental determination and modelling of densities and excess molar volumes of ternary system (1-butanol + cyclohexylamine + n-heptane) and corresponding binaries from 288.15 to 323.15K
Source: Thermochim. Acta, 2009, 10.1016/j.tca.2009.07.002
Compound 1: butan-1-ol, C4H10O, InChI=1S/C4H10O/c1-2-3-4-5/h5H,2-4H2,1H3
Compound 2: cyclohexylamine, C6H13N, InChI=1S/C6H13N/c7-6-4-2-1-3-5-6/h6H,1-5,7H2
Compound 3: heptane, C7H16, InChI=1S/C7H16/c1-3-5-7-6-4-2/h3-7H2,1-2H3

System: butan-1-ol; phases: Liquid
Fixed: Pressure, kPa = 101
Property: Mass density, kg/m3 (Liquid); method: Vibrating tube method
Temperature, K	Mass density, kg/m3	uncertainty
288.15	813.373	0.179
293.15	809.573	0.181
298.15	805.762	0.182
303.15	801.923	0.184
308.15	798.053	0.186
313.15	794.147	0.187
318.15	790.231	0.189
323.15	786.238	0.191

System: cyclohexylamine; phases: Liquid
Fixed: Pressure, kPa = 101
Property: Mass density, kg/m3 (Liquid); method: Vibrating tube method
Temperature, K	Mass density, kg/m3	uncertainty
288.15	871.29	0.301
293.15	866.747	0.302
298.15	862.207	0.302
303.15	857.671	0.302
308.15	853.138	0.303
313.15	848.607	0.303
318.15	844.073	0.303
323.15	839.547	0.304

System: heptane; phases: Liquid
Fixed: Pressure, kPa = 101
Property: Mass density, kg/m3 (Liquid); method: Vibrating tube method
Temperature, K	Mass density, kg/m3	uncertainty
288.15	687.954	0.23
293.15	683.733	0.232
298.15	679.494	0.234
303.15	675.229	0.236
308.15	670.941	0.238
313.15	666.621	0.24
318.15	662.273	0.242
323.15	657.896	0.244

System: butan-1-ol + cyclohexylamine; phases: Liquid
Fixed: Pressure, kPa = 101
Property: Mass density, kg/m3 (Liquid); method: Vibrating tube method
Temperature, K	Mole fraction of butan-1-ol	Mass density, kg/m3	uncertainty
288.15	0	871.29	0.301
288.15	0.0499	870.402	0.292
288.15	0.1019	869.284	0.282
288.15	0.1499	868.221	0.274
288.15	0.1997	867.037	0.265
288.15	0.2995	864.139	0.249
288.15	0.4	860.506	0.234
288.15	0.4994	855.958	0.22
288.15	0.6006	850.147	0.208
288.15	0.6977	843.134	0.199
288.15	0.7497	838.964	0.195
288.15	0.7984	834.505	0.191
288.15	0.85	829.604	0.188
288.15	0.8993	824.498	0.185
288.15	0.9508	819.064	0.182
288.15	1	813.373	0.179
293.15	0	866.747	0.302
293.15	0.0499	865.907	0.292
293.15	0.1019	864.828	0.283
293.15	0.1499	863.8	0.274
293.15	0.1997	862.648	0.266
293.15	0.2995	859.8	0.25
293.15	0.4	856.206	0.235
293.15	0.4994	851.708	0.222
293.15	0.6006	845.964	0.21
293.15	0.6977	839.036	0.201
293.15	0.7497	834.921	0.196
293.15	0.7984	830.511	0.193
293.15	0.85	825.664	0.189
293.15	0.8993	820.606	0.186
293.15	0.9508	815.223	0.184
293.15	1	809.573	0.181
298.15	0	862.207	0.302
298.15	0.0499	861.409	0.293
298.15	0.1019	860.372	0.283
298.15	0.1499	859.375	0.275
298.15	0.1997	858.251	0.266
298.15	0.2995	855.453	0.251
298.15	0.4	851.899	0.236
298.15	0.4994	847.444	0.223
298.15	0.6006	841.767	0.212
298.15	0.6977	834.924	0.202
298.15	0.7497	830.861	0.198
298.15	0.7984	826.498	0.194
298.15	0.85	821.703	0.191
298.15	0.8993	816.697	0.188
298.15	0.9508	811.359	0.186
298.15	1	805.762	0.182
303.15	0	857.671	0.302
303.15	0.0499	856.914	0.293
303.15	0.1019	855.914	0.284
303.15	0.1499	854.945	0.275
303.15	0.1997	853.85	0.267
303.15	0.2995	851.095	0.252
303.15	0.4	847.581	0.237
303.15	0.4994	843.167	0.224
303.15	0.6006	837.554	0.213
303.15	0.6977	830.791	0.204
303.15	0.7497	826.78	0.199
303.15	0.7984	822.464	0.196
303.15	0.85	817.72	0.192
303.15	0.8993	812.762	0.19
303.15	0.9508	807.471	0.187
303.15	1	801.923	0.184
308.15	0	853.138	0.303
308.15	0.0499	852.415	0.294
308.15	0.1019	851.45	0.284
308.15	0.1499	850.509	0.276
308.15	0.1997	849.438	0.268
308.15	0.2995	846.722	0.252
308.15	0.4	843.244	0.238
308.15	0.4994	838.874	0.226
308.15	0.6006	833.322	0.214
308.15	0.6977	826.637	0.205
308.15	0.7497	822.671	0.201
308.15	0.7984	818.404	0.197
308.15	0.85	813.708	0.194
308.15	0.8993	808.799	0.191
308.15	0.9508	803.552	0.189
308.15	1	798.053	0.186
313.15	0	848.607	0.303
313.15	0.0499	847.912	0.294
313.15	0.1019	846.979	0.285
313.15	0.1499	846.063	0.277
313.15	0.1997	845.013	0.269
313.15	0.2995	842.337	0.253
313.15	0.4	838.892	0.239
313.15	0.4994	834.561	0.227
313.15	0.6006	829.067	0.216
313.15	0.6977	822.458	0.206
313.15	0.7497	818.541	0.202
313.15	0.7984	814.315	0.199
313.15	0.85	809.66	0.196
313.15	0.8993	804.804	0.193
313.15	0.9508	799.601	0.19
313.15	1	794.147	0.187
318.15	0	844.073	0.303
318.15	0.0499	843.406	0.295
318.15	0.1019	842.499	0.286
318.15	0.1499	841.605	0.278
318.15	0.1997	840.578	0.27
318.15	0.2995	837.935	0.254
318.15	0.4	834.521	0.24
318.15	0.4994	830.229	0.228
318.15	0.6006	824.783	0.217
318.15	0.6977	818.247	0.208
318.15	0.7497	814.376	0.204
318.15	0.7984	810.191	0.2
318.15	0.85	805.587	0.197
318.15	0.8993	800.769	0.195
318.15	0.9508	795.606	0.192
318.15	1	790.231	0.189
323.15	0	839.547	0.304
323.15	0.0499	838.847	0.295
323.15	0.1019	838.018	0.286
323.15	0.1499	837.144	0.278
323.15	0.1997	836.136	0.271
323.15	0.2995	833.516	0.256
323.15	0.4	830.136	0.242
323.15	0.4994	825.872	0.23
323.15	0.6006	820.478	0.219
323.15	0.6977	814.01	0.21
323.15	0.7497	810.181	0.206
323.15	0.7984	806.034	0.202
323.15	0.85	801.472	0.199
323.15	0.8993	796.696	0.196
323.15	0.9508	791.569	0.194
323.15	1	786.238	0.191

System: butan-1-ol + heptane; phases: Liquid
Fixed: Pressure, kPa = 101
Property: Mass density, kg/m3 (Liquid); method: Vibrating tube method
Temperature, K	Mole fraction of butan-1-ol	Mass density, kg/m3	uncertainty
288.15	0	687.954	0.23
288.15	0.0691	692.997	0.229
288.15	0.0999	695.43	0.228
288.15	0.1495	699.575	0.226
288.15	0.1701	701.352	0.226
288.15	0.2	703.971	0.225
288.15	0.2497	708.55	0.223
288.15	0.2507	708.652	0.223
288.15	0.2999	713.405	0.221
288.15	0.3501	718.522	0.219
288.15	0.3998	723.818	0.217
288.15	0.4497	729.369	0.215
288.15	0.4999	735.288	0.212
288.15	0.5516	741.637	0.21
288.15	0.6497	754.667	0.205
288.15	0.6999	761.833	0.202
288.15	0.7502	769.372	0.2
288.15	0.7999	777.249	0.197
288.15	0.8498	785.51	0.194
288.15	0.9006	794.437	0.191
288.15	1	813.373	0.179
293.15	0	683.733	0.232
293.15	0.0691	688.732	0.231
293.15	0.0999	691.164	0.23
293.15	0.1495	695.309	0.228
293.15	0.1701	697.089	0.227
293.15	0.2	699.708	0.226
293.15	0.2497	704.296	0.225
293.15	0.2507	704.392	0.225
293.15	0.2999	709.158	0.223
293.15	0.3501	714.283	0.221
293.15	0.3998	719.595	0.219
293.15	0.4497	725.163	0.216
293.15	0.4999	731.11	0.214
293.15	0.5516	737.484	0.212
293.15	0.6497	750.57	0.207
293.15	0.6999	757.773	0.204
293.15	0.7502	765.348	0.201
293.15	0.7999	773.267	0.198
293.15	0.8498	781.573	0.195
293.15	0.9006	790.548	0.192
293.15	1	809.573	0.181
298.15	0	679.494	0.234
298.15	0.0691	684.439	0.233
298.15	0.0999	686.867	0.232
298.15	0.1495	691.013	0.23
298.15	0.1701	692.795	0.229
298.15	0.2	695.42	0.228
298.15	0.2497	700.016	0.226
298.15	0.2507	700.109	0.226
298.15	0.2999	704.88	0.225
298.15	0.3501	710.016	0.223
298.15	0.3998	715.341	0.22
298.15	0.4497	720.925	0.218
298.15	0.4999	726.892	0.216
298.15	0.5516	733.291	0.214
298.15	0.6497	746.442	0.208
298.15	0.6999	753.681	0.206
298.15	0.7502	761.298	0.203
298.15	0.7999	769.263	0.2
298.15	0.8498	777.613	0.197
298.15	0.9006	786.635	0.194
298.15	1	805.762	0.182
303.15	0	675.229	0.236
303.15	0.0691	680.112	0.234
303.15	0.0999	682.541	0.234
303.15	0.1495	686.688	0.232
303.15	0.1701	688.469	0.231
303.15	0.2	691.091	0.23
303.15	0.2497	695.692	0.228
303.15	0.2507	695.793	0.228
303.15	0.2999	700.571	0.226
303.15	0.3501	705.715	0.224
303.15	0.3998	711.055	0.222
303.15	0.4497	716.653	0.22
303.15	0.4999	722.64	0.218
303.15	0.5516	729.062	0.215
303.15	0.6497	742.276	0.21
303.15	0.6999	749.559	0.208
303.15	0.7502	757.214	0.205
303.15	0.7999	765.22	0.202
303.15	0.8498	773.62	0.199
303.15	0.9006	782.692	0.195
303.15	1	801.923	0.184
308.15	0	670.941	0.238
308.15	0.0691	675.754	0.236
308.15	0.0999	678.179	0.236
308.15	0.1495	682.323	0.234
308.15	0.1701	684.105	0.233
308.15	0.2	686.729	0.232
308.15	0.2497	691.331	0.23
308.15	0.2507	691.434	0.23
308.15	0.2999	696.222	0.228
308.15	0.3501	701.373	0.226
308.15	0.3998	706.726	0.224
308.15	0.4497	712.34	0.222
308.15	0.4999	718.343	0.22
308.15	0.5516	724.793	0.217
308.15	0.6497	738.07	0.212
308.15	0.6999	745.39	0.209
308.15	0.7502	753.09	0.206
308.15	0.7999	761.14	0.203
308.15	0.8498	769.591	0.2
308.15	0.9006	778.716	0.197
308.15	1	798.053	0.186
313.15	0	666.621	0.24
313.15	0.0691	671.356	0.238
313.15	0.0999	673.778	0.238
313.15	0.1495	677.919	0.236
313.15	0.1701	679.699	0.235
313.15	0.2	682.324	0.234
313.15	0.2497	686.93	0.232
313.15	0.2507	687.035	0.232
313.15	0.2999	691.828	0.23
313.15	0.3501	696.989	0.228
313.15	0.3998	702.355	0.226
313.15	0.4497	707.984	0.224
313.15	0.4999	714.006	0.222
313.15	0.5516	720.478	0.219
313.15	0.6497	733.819	0.214
313.15	0.6999	741.178	0.211
313.15	0.7502	748.919	0.208
313.15	0.7999	757.016	0.205
313.15	0.8498	765.519	0.202
313.15	0.9006	774.698	0.199
313.15	1	794.147	0.187
318.15	0	662.273	0.242
318.15	0.0691	666.921	0.24
318.15	0.0999	669.334	0.24
318.15	0.1495	673.469	0.238
318.15	0.1701	675.246	0.237
318.15	0.2	677.872	0.236
318.15	0.2497	682.482	0.234
318.15	0.2507	682.589	0.234
318.15	0.2999	687.391	0.232
318.15	0.3501	692.557	0.23
318.15	0.3998	697.935	0.228
318.15	0.4497	703.577	0.226
318.15	0.4999	709.618	0.224
318.15	0.5516	716.114	0.221
318.15	0.6497	729.516	0.216
318.15	0.6999	736.918	0.213
318.15	0.7502	744.697	0.21
318.15	0.7999	752.839	0.207
318.15	0.8498	761.397	0.204
318.15	0.9006	770.631	0.201
318.15	1	790.231	0.189
323.15	0	657.896	0.244
323.15	0.0691	662.457	0.242
323.15	0.0999	664.851	0.241
323.15	0.1495	668.978	0.24
323.15	0.1701	670.749	0.239
323.15	0.2	673.376	0.238
323.15	0.2497	677.987	0.236
323.15	0.2507	678.099	0.236
323.15	0.2999	682.909	0.234
323.15	0.3501	688.076	0.232
323.15	0.3998	693.471	0.23
323.15	0.4497	699.118	0.228
323.15	0.4999	705.176	0.226
323.15	0.5516	711.695	0.223
323.15	0.6497	725.167	0.217
323.15	0.6999	732.609	0.215
323.15	0.7502	740.419	0.212
323.15	0.7999	748.617	0.209
323.15	0.8498	757.222	0.206
323.15	0.9006	766.522	0.202
323.15	1	786.238	0.191

System: cyclohexylamine + heptane; phases: Liquid
Fixed: Pressure, kPa = 101
Property: Mass density, kg/m3 (Liquid); method: Vibrating tube method
Temperature, K	Mole fraction of cyclohexylamine	Mass density, kg/m3	uncertainty
288.15	0	687.954	0.23
288.15	0.0501	694.788	0.232
288.15	0.1002	701.818	0.233
288.15	0.1501	709.079	0.234
288.15	0.2305	721.227	0.236
288.15	0.3004	732.296	0.238
288.15	0.401	749.067	0.242
288.15	0.4497	757.546	0.245
288.15	0.5597	777.524	0.251
288.15	0.6001	785.155	0.255
288.15	0.6498	794.839	0.259
288.15	0.6994	804.717	0.264
288.15	0.7999	825.611	0.275
288.15	0.8992	847.523	0.289
288.15	1	871.29	0.301
293.15	0	683.733	0.232
293.15	0.0501	690.573	0.234
293.15	0.1002	697.601	0.235
293.15	0.1501	704.855	0.235
293.15	0.2305	716.988	0.237
293.15	0.3004	728.038	0.239
293.15	0.401	744.783	0.243
293.15	0.4497	753.244	0.246
293.15	0.5597	773.195	0.252
293.15	0.6001	780.814	0.256
293.15	0.6498	790.479	0.26
293.15	0.6994	800.344	0.264
293.15	0.7999	821.199	0.275
293.15	0.8992	843.061	0.289
293.15	1	866.747	0.302
298.15	0	679.494	0.234
298.15	0.0501	686.334	0.236
298.15	0.1002	693.36	0.236
298.15	0.1501	700.609	0.237
298.15	0.2305	712.729	0.239
298.15	0.3004	723.765	0.241
298.15	0.401	740.484	0.245
298.15	0.4497	748.933	0.247
298.15	0.5597	768.854	0.254
298.15	0.6001	776.463	0.257
298.15	0.6498	786.113	0.261
298.15	0.6994	795.962	0.265
298.15	0.7999	816.783	0.276
298.15	0.8992	838.598	0.289
298.15	1	862.207	0.302
303.15	0	675.229	0.236
303.15	0.0501	682.072	0.238
303.15	0.1002	689.097	0.238
303.15	0.1501	696.341	0.239
303.15	0.2305	708.452	0.24
303.15	0.3004	719.477	0.242
303.15	0.401	736.173	0.246
303.15	0.4497	744.614	0.249
303.15	0.5597	764.509	0.255
303.15	0.6001	772.102	0.258
303.15	0.6498	781.744	0.262
303.15	0.6994	791.575	0.266
303.15	0.7999	812.36	0.277
303.15	0.8992	834.132	0.29
303.15	1	857.671	0.302
308.15	0	670.941	0.238
308.15	0.0501	677.784	0.24
308.15	0.1002	684.805	0.24
308.15	0.1501	692.046	0.241
308.15	0.2305	704.15	0.242
308.15	0.3004	715.17	0.244
308.15	0.401	731.847	0.248
308.15	0.4497	740.28	0.25
308.15	0.5597	760.149	0.256
308.15	0.6001	767.732	0.259
308.15	0.6498	777.362	0.263
308.15	0.6994	787.181	0.267
308.15	0.7999	807.934	0.278
308.15	0.8992	829.662	0.291
308.15	1	853.138	0.303
313.15	0	666.621	0.24
313.15	0.0501	673.467	0.241
313.15	0.1002	680.49	0.242
313.15	0.1501	687.73	0.242
313.15	0.2305	699.827	0.244
313.15	0.3004	710.839	0.246
313.15	0.401	727.504	0.249
313.15	0.4497	735.927	0.251
313.15	0.5597	755.773	0.257
313.15	0.6001	763.352	0.26
313.15	0.6498	772.968	0.264
313.15	0.6994	782.776	0.268
313.15	0.7999	803.499	0.279
313.15	0.8992	825.189	0.291
313.15	1	848.607	0.303
318.15	0	662.273	0.242
318.15	0.0501	669.12	0.243
318.15	0.1002	676.146	0.244
318.15	0.1501	683.386	0.244
318.15	0.2305	695.479	0.246
318.15	0.3004	706.489	0.247
318.15	0.401	723.139	0.251
318.15	0.4497	731.554	0.253
318.15	0.5597	751.384	0.259
318.15	0.6001	758.953	0.262
318.15	0.6498	768.563	0.265
318.15	0.6994	778.36	0.27
318.15	0.7999	799.055	0.28
318.15	0.8992	820.71	0.292
318.15	1	844.073	0.303
323.15	0	657.896	0.244
323.15	0.0501	664.739	0.245
323.15	0.1002	671.776	0.245
323.15	0.1501	679.015	0.246
323.15	0.2305	691.106	0.247
323.15	0.3004	702.117	0.249
323.15	0.401	718.756	0.252
323.15	0.4497	727.16	0.254
323.15	0.5597	746.981	0.26
323.15	0.6001	754.544	0.263
323.15	0.6498	764.139	0.266
323.15	0.6994	773.935	0.27
323.15	0.7999	794.605	0.28
323.15	0.8992	816.229	0.292
323.15	1	839.547	0.304

System: butan-1-ol + cyclohexylamine + heptane; phases: Liquid
Fixed: Pressure, kPa = 101
Property: Mass density, kg/m3 (Liquid); method: Vibrating tube method
Temperature, K	Mole fraction of butan-1-ol	Mole fraction of cyclohexylamine	Mass density, kg/m3	uncertainty
288.15	0.0102	0.8998	849.84	0.291
288.15	0.02	0.7999	829.525	0.277
288.15	0.0211	0.8987	851.937	0.291
288.15	0.0289	0.7008	810.179	0.265
288.15	0.04	0.6003	791.821	0.255
288.15	0.0401	0.9	856.197	0.291
288.15	0.0404	0.7997	833.474	0.277
288.15	0.0502	0.5005	774.365	0.248
288.15	0.0597	0.7006	815.802	0.264
288.15	0.0604	0.8994	860.53	0.291
288.15	0.0615	0.3987	757.477	0.241
288.15	0.0698	0.3001	741.383	0.237
288.15	0.0798	0.9002	865.039	0.29
288.15	0.0801	0.7999	841.517	0.276
288.15	0.0802	0.6001	798.605	0.255
288.15	0.0806	0.2001	726.01	0.233
288.15	0.09	0.1001	710.879	0.231
288.15	0.0901	0.8998	867.238	0.29
288.15	0.1	0.5002	782.13	0.246
288.15	0.1197	0.8006	849.752	0.275
288.15	0.1201	0.7001	827.008	0.263
288.15	0.1204	0.4001	766.182	0.24
288.15	0.1401	0.3001	750.604	0.235
288.15	0.1586	0.2066	736.287	0.23
288.15	0.1599	0.6001	812.677	0.252
288.15	0.1604	0.7995	858.178	0.274
288.15	0.1799	0.1	719.997	0.228
288.15	0.1799	0.8001	862.673	0.273
288.15	0.1803	0.6994	838.679	0.261
288.15	0.1998	0.5002	798.549	0.242
288.15	0.2399	0.6	827.615	0.249
288.15	0.2402	0.3999	784.335	0.235
288.15	0.2403	0.6996	851.166	0.259
288.15	0.2698	0.7002	857.6	0.258
288.15	0.2802	0.3	770.031	0.23
288.15	0.3003	0.4997	816.077	0.239
288.15	0.3198	0.2002	755.32	0.225
288.15	0.3203	0.5996	843.452	0.246
288.15	0.3598	0.6002	851.93	0.245
288.15	0.36	0.4	804.131	0.231
288.15	0.3603	0.0998	739.972	0.223
288.15	0.4	0.5	835.319	0.234
288.15	0.4198	0.3003	791.414	0.224
288.15	0.4499	0.5002	845.427	0.232
288.15	0.4788	0.4016	826.078	0.225
288.15	0.4801	0.2	777.83	0.22
288.15	0.4922	0.4415	838.907	0.226
288.15	0.5394	0.101	763.468	0.217
288.15	0.54	0.4	837.77	0.222
288.15	0.5599	0.3001	815.501	0.217
288.15	0.6299	0.3001	828.801	0.213
288.15	0.6399	0.2002	803.889	0.211
288.15	0.7197	0.1003	791.054	0.207
288.15	0.7198	0.2001	818.503	0.207
288.15	0.8101	0.0998	806.918	0.201
293.15	0.0102	0.8998	845.379	0.292
293.15	0.02	0.7999	825.12	0.278
293.15	0.0211	0.8987	847.48	0.291
293.15	0.0289	0.7008	805.808	0.266
293.15	0.04	0.6003	787.478	0.256
293.15	0.0401	0.9	851.74	0.291
293.15	0.0404	0.7997	829.072	0.277
293.15	0.0502	0.5005	770.05	0.249
293.15	0.0597	0.7006	811.442	0.265
293.15	0.0604	0.8994	856.074	0.291
293.15	0.0615	0.3987	753.183	0.242
293.15	0.0698	0.3001	737.112	0.238
293.15	0.0798	0.9002	860.583	0.291
293.15	0.0801	0.7999	837.117	0.277
293.15	0.0802	0.6001	794.271	0.255
293.15	0.0806	0.2001	721.74	0.235
293.15	0.09	0.1001	706.609	0.233
293.15	0.0901	0.8998	862.782	0.29
293.15	0.1	0.5002	777.821	0.247
293.15	0.1197	0.8006	845.361	0.275
293.15	0.1201	0.7001	822.652	0.264
293.15	0.1204	0.4001	761.89	0.241
293.15	0.1401	0.3001	746.325	0.236
293.15	0.1586	0.2066	732.012	0.232
293.15	0.1599	0.6001	808.351	0.253
293.15	0.1604	0.7995	853.789	0.274
293.15	0.1799	0.1	715.732	0.23
293.15	0.1799	0.8001	858.283	0.274
293.15	0.1803	0.6994	834.334	0.262
293.15	0.1998	0.5002	794.25	0.243
293.15	0.2399	0.6	823.306	0.25
293.15	0.2402	0.3999	780.05	0.236
293.15	0.2403	0.6996	846.826	0.26
293.15	0.2698	0.7002	853.259	0.259
293.15	0.2802	0.3	765.761	0.23
293.15	0.3003	0.4997	811.782	0.239
293.15	0.3198	0.2002	751.066	0.225
293.15	0.3203	0.5996	839.149	0.247
293.15	0.3598	0.6002	847.63	0.246
293.15	0.36	0.4	799.862	0.231
293.15	0.3603	0.0998	735.746	0.223
293.15	0.4	0.5	831.051	0.235
293.15	0.4198	0.3003	787.178	0.224
293.15	0.4499	0.5002	841.167	0.234
293.15	0.4788	0.4016	821.85	0.226
293.15	0.4801	0.2	773.639	0.219
293.15	0.4922	0.4415	834.671	0.227
293.15	0.5394	0.101	759.325	0.216
293.15	0.54	0.4	833.562	0.223
293.15	0.5599	0.3001	811.333	0.218
293.15	0.6299	0.3001	824.668	0.215
293.15	0.6399	0.2002	799.792	0.212
293.15	0.7197	0.1003	787.021	0.208
293.15	0.7198	0.2001	814.457	0.208
293.15	0.8101	0.0998	802.957	0.203
298.15	0.0102	0.8998	840.918	0.292
298.15	0.02	0.7999	820.709	0.278
298.15	0.0211	0.8987	843.021	0.292
298.15	0.0289	0.7008	801.429	0.267
298.15	0.04	0.6003	783.135	0.257
298.15	0.0401	0.9	847.278	0.292
298.15	0.0404	0.7997	824.666	0.278
298.15	0.0502	0.5005	765.727	0.25
298.15	0.0597	0.7006	807.074	0.266
298.15	0.0604	0.8994	851.615	0.292
298.15	0.0615	0.3987	748.878	0.244
298.15	0.0698	0.3001	732.824	0.239
298.15	0.0798	0.9002	856.124	0.291
298.15	0.0801	0.7999	832.711	0.277
298.15	0.0802	0.6001	789.932	0.256
298.15	0.0806	0.2001	717.447	0.236
298.15	0.09	0.1001	702.316	0.234
298.15	0.0901	0.8998	858.325	0.291
298.15	0.1	0.5002	773.502	0.248
298.15	0.1197	0.8006	840.963	0.276
298.15	0.1201	0.7001	818.289	0.264
298.15	0.1204	0.4001	757.586	0.242
298.15	0.1401	0.3001	742.019	0.237
298.15	0.1586	0.2066	727.709	0.233
298.15	0.1599	0.6001	804.022	0.254
298.15	0.1604	0.7995	849.393	0.275
298.15	0.1799	0.1	711.438	0.231
298.15	0.1799	0.8001	853.89	0.275
298.15	0.1803	0.6994	829.977	0.263
298.15	0.1998	0.5002	789.937	0.244
298.15	0.2399	0.6	818.978	0.251
298.15	0.2402	0.3999	775.747	0.237
298.15	0.2403	0.6996	842.477	0.261
298.15	0.2698	0.7002	848.912	0.26
298.15	0.2802	0.3	761.467	0.232
298.15	0.3003	0.4997	807.483	0.24
298.15	0.3198	0.2002	746.793	0.227
298.15	0.3203	0.5996	834.835	0.248
298.15	0.3598	0.6002	843.318	0.247
298.15	0.36	0.4	795.583	0.233
298.15	0.3603	0.0998	731.497	0.225
298.15	0.4	0.5	826.765	0.236
298.15	0.4198	0.3003	782.926	0.226
298.15	0.4499	0.5002	836.892	0.235
298.15	0.4788	0.4016	817.606	0.227
298.15	0.4801	0.2	769.431	0.221
298.15	0.4922	0.4415	830.424	0.229
298.15	0.5394	0.101	755.147	0.218
298.15	0.54	0.4	829.34	0.225
298.15	0.5599	0.3001	807.146	0.219
298.15	0.6299	0.3001	820.518	0.216
298.15	0.6399	0.2002	795.667	0.213
298.15	0.7197	0.1003	782.966	0.209
298.15	0.7198	0.2001	810.393	0.21
298.15	0.8101	0.0998	798.974	0.204
303.15	0.0102	0.8998	836.453	0.293
303.15	0.02	0.7999	816.293	0.279
303.15	0.0211	0.8987	838.557	0.292
303.15	0.0289	0.7008	797.047	0.268
303.15	0.04	0.6003	778.782	0.259
303.15	0.0401	0.9	842.818	0.292
303.15	0.0404	0.7997	820.255	0.279
303.15	0.0502	0.5005	761.393	0.251
303.15	0.0597	0.7006	802.698	0.267
303.15	0.0604	0.8994	847.156	0.292
303.15	0.0615	0.3987	744.562	0.245
303.15	0.0698	0.3001	728.515	0.241
303.15	0.0798	0.9002	851.663	0.292
303.15	0.0801	0.7999	828.304	0.278
303.15	0.0802	0.6001	785.583	0.258
303.15	0.0806	0.2001	713.136	0.238
303.15	0.09	0.1001	697.998	0.236
303.15	0.0901	0.8998	853.865	0.292
303.15	0.1	0.5002	769.168	0.249
303.15	0.1197	0.8006	836.557	0.277
303.15	0.1201	0.7001	813.919	0.265
303.15	0.1204	0.4001	753.261	0.244
303.15	0.1401	0.3001	737.7	0.239
303.15	0.1586	0.2066	723.39	0.235
303.15	0.1599	0.6001	799.677	0.255
303.15	0.1604	0.7995	844.991	0.276
303.15	0.1799	0.1	707.118	0.233
303.15	0.1799	0.8001	849.485	0.276
303.15	0.1803	0.6994	825.613	0.264
303.15	0.1998	0.5002	785.612	0.246
303.15	0.2399	0.6	814.642	0.252
303.15	0.2402	0.3999	771.428	0.239
303.15	0.2403	0.6996	838.115	0.262
303.15	0.2698	0.7002	844.553	0.261
303.15	0.2802	0.3	757.158	0.233
303.15	0.3003	0.4997	803.165	0.242
303.15	0.3198	0.2002	742.496	0.229
303.15	0.3203	0.5996	830.507	0.249
303.15	0.3598	0.6002	838.995	0.248
303.15	0.36	0.4	791.285	0.234
303.15	0.3603	0.0998	727.218	0.226
303.15	0.4	0.5	822.466	0.238
303.15	0.4198	0.3003	778.657	0.227
303.15	0.4499	0.5002	832.605	0.236
303.15	0.4788	0.4016	813.343	0.228
303.15	0.4801	0.2	765.197	0.223
303.15	0.4922	0.4415	826.157	0.23
303.15	0.5394	0.101	750.943	0.22
303.15	0.54	0.4	825.103	0.226
303.15	0.5599	0.3001	802.935	0.221
303.15	0.6299	0.3001	816.348	0.218
303.15	0.6399	0.2002	791.52	0.215
303.15	0.7197	0.1003	778.883	0.211
303.15	0.7198	0.2001	806.299	0.211
303.15	0.8101	0.0998	794.962	0.206
308.15	0.0102	0.8998	831.986	0.294
308.15	0.02	0.7999	811.869	0.28
308.15	0.0211	0.8987	834.09	0.293
308.15	0.0289	0.7008	792.653	0.269
308.15	0.04	0.6003	774.414	0.26
308.15	0.0401	0.9	838.353	0.293
308.15	0.0404	0.7997	815.832	0.279
308.15	0.0502	0.5005	757.042	0.252
308.15	0.0597	0.7006	798.307	0.268
308.15	0.0604	0.8994	842.69	0.293
308.15	0.0615	0.3987	740.221	0.247
308.15	0.0698	0.3001	724.18	0.243
308.15	0.0798	0.9002	847.198	0.292
308.15	0.0801	0.7999	823.887	0.279
308.15	0.0802	0.6001	781.218	0.259
308.15	0.0806	0.2001	708.795	0.24
308.15	0.09	0.1001	693.647	0.238
308.15	0.0901	0.8998	849.4	0.292
308.15	0.1	0.5002	764.818	0.251
308.15	0.1197	0.8006	832.144	0.278
308.15	0.1201	0.7001	809.532	0.266
308.15	0.1204	0.4001	748.918	0.245
308.15	0.1401	0.3001	733.356	0.24
308.15	0.1586	0.2066	719.04	0.237
308.15	0.1599	0.6001	795.318	0.256
308.15	0.1604	0.7995	840.58	0.277
308.15	0.1799	0.1	702.762	0.235
308.15	0.1799	0.8001	845.073	0.276
308.15	0.1803	0.6994	821.235	0.265
308.15	0.1998	0.5002	781.263	0.247
308.15	0.2399	0.6	810.287	0.253
308.15	0.2402	0.3999	767.087	0.24
308.15	0.2403	0.6996	833.742	0.262
308.15	0.2698	0.7002	840.18	0.261
308.15	0.2802	0.3	752.822	0.235
308.15	0.3003	0.4997	798.83	0.243
308.15	0.3198	0.2002	738.17	0.23
308.15	0.3203	0.5996	826.161	0.25
308.15	0.3598	0.6002	834.652	0.249
308.15	0.36	0.4	786.965	0.235
308.15	0.3603	0.0998	722.902	0.228
308.15	0.4	0.5	818.148	0.239
308.15	0.4198	0.3003	774.36	0.229
308.15	0.4499	0.5002	828.298	0.237
308.15	0.4788	0.4016	809.057	0.23
308.15	0.4801	0.2	760.931	0.224
308.15	0.4922	0.4415	821.873	0.231
308.15	0.5394	0.101	746.705	0.221
308.15	0.54	0.4	820.843	0.227
308.15	0.5599	0.3001	798.702	0.222
308.15	0.6299	0.3001	812.151	0.219
308.15	0.6399	0.2002	787.347	0.217
308.15	0.7197	0.1003	774.765	0.213
308.15	0.7198	0.2001	802.181	0.213
308.15	0.8101	0.0998	790.918	0.208
313.15	0.0102	0.8998	827.511	0.294
313.15	0.02	0.7999	807.436	0.281
313.15	0.0211	0.8987	829.619	0.294
313.15	0.0289	0.7008	788.252	0.27
313.15	0.04	0.6003	770.031	0.261
313.15	0.0401	0.9	833.882	0.293
313.15	0.0404	0.7997	811.401	0.28
313.15	0.0502	0.5005	752.672	0.254
313.15	0.0597	0.7006	793.906	0.269
313.15	0.0604	0.8994	838.218	0.293
313.15	0.0615	0.3987	735.861	0.248
313.15	0.0698	0.3001	719.82	0.244
313.15	0.0798	0.9002	842.725	0.293
313.15	0.0801	0.7999	819.458	0.28
313.15	0.0802	0.6001	776.834	0.26
313.15	0.0806	0.2001	704.427	0.241
313.15	0.09	0.1001	689.263	0.24
313.15	0.0901	0.8998	844.928	0.293
313.15	0.1	0.5002	760.449	0.252
313.15	0.1197	0.8006	827.718	0.278
313.15	0.1201	0.7001	805.139	0.267
313.15	0.1204	0.4001	744.551	0.246
313.15	0.1401	0.3001	728.984	0.242
313.15	0.1586	0.2066	714.66	0.239
313.15	0.1599	0.6001	790.94	0.257
313.15	0.1604	0.7995	836.155	0.277
313.15	0.1799	0.1	698.368	0.237
313.15	0.1799	0.8001	840.649	0.277
313.15	0.1803	0.6994	816.844	0.266
313.15	0.1998	0.5002	776.895	0.248
313.15	0.2399	0.6	805.921	0.254
313.15	0.2402	0.3999	762.72	0.242
313.15	0.2403	0.6996	829.352	0.263
313.15	0.2698	0.7002	835.792	0.262
313.15	0.2802	0.3	748.459	0.236
313.15	0.3003	0.4997	794.474	0.244
313.15	0.3198	0.2002	733.81	0.232
313.15	0.3203	0.5996	821.799	0.251
313.15	0.3598	0.6002	830.294	0.25
313.15	0.36	0.4	782.622	0.237
313.15	0.3603	0.0998	718.545	0.23
313.15	0.4	0.5	813.81	0.24
313.15	0.4198	0.3003	770.034	0.23
313.15	0.4499	0.5002	823.971	0.238
313.15	0.4788	0.4016	804.75	0.231
313.15	0.4801	0.2	756.634	0.226
313.15	0.4922	0.4415	817.569	0.233
313.15	0.5394	0.101	742.427	0.223
313.15	0.54	0.4	816.56	0.229
313.15	0.5599	0.3001	794.441	0.224
313.15	0.6299	0.3001	807.928	0.221
313.15	0.6399	0.2002	783.14	0.218
313.15	0.7197	0.1003	770.609	0.214
313.15	0.7198	0.2001	798.029	0.214
313.15	0.8101	0.0998	786.838	0.209
318.15	0.0102	0.8998	823.032	0.295
318.15	0.02	0.7999	802.991	0.282
318.15	0.0211	0.8987	825.137	0.294
318.15	0.0289	0.7008	783.839	0.271
318.15	0.04	0.6003	765.631	0.262
318.15	0.0401	0.9	829.402	0.294
318.15	0.0404	0.7997	806.96	0.281
318.15	0.0502	0.5005	748.287	0.255
318.15	0.0597	0.7006	789.487	0.27
318.15	0.0604	0.8994	833.739	0.294
318.15	0.0615	0.3987	731.477	0.25
318.15	0.0698	0.3001	715.43	0.246
318.15	0.0798	0.9002	838.245	0.294
318.15	0.0801	0.7999	815.019	0.28
318.15	0.0802	0.6001	772.434	0.261
318.15	0.0806	0.2001	700.027	0.243
318.15	0.09	0.1001	684.842	0.242
318.15	0.0901	0.8998	840.448	0.293
318.15	0.1	0.5002	756.061	0.253
318.15	0.1197	0.8006	823.281	0.279
318.15	0.1201	0.7001	800.732	0.268
318.15	0.1204	0.4001	740.158	0.248
318.15	0.1401	0.3001	724.582	0.244
318.15	0.1586	0.2066	710.248	0.24
318.15	0.1599	0.6001	786.544	0.258
318.15	0.1604	0.7995	831.72	0.278
318.15	0.1799	0.1	693.933	0.239
318.15	0.1799	0.8001	836.212	0.278
318.15	0.1803	0.6994	812.435	0.267
318.15	0.1998	0.5002	772.503	0.249
318.15	0.2399	0.6	801.533	0.255
318.15	0.2402	0.3999	758.331	0.243
318.15	0.2403	0.6996	824.947	0.264
318.15	0.2698	0.7002	831.389	0.263
318.15	0.2802	0.3	744.064	0.238
318.15	0.3003	0.4997	790.095	0.245
318.15	0.3198	0.2002	729.412	0.234
318.15	0.3203	0.5996	817.415	0.252
318.15	0.3598	0.6002	825.917	0.251
318.15	0.36	0.4	778.252	0.238
318.15	0.3603	0.0998	714.144	0.232
318.15	0.4	0.5	809.441	0.241
318.15	0.4198	0.3003	765.679	0.232
318.15	0.4499	0.5002	819.622	0.24
318.15	0.4788	0.4016	800.417	0.233
318.15	0.4801	0.2	752.299	0.228
318.15	0.4922	0.4415	813.235	0.234
318.15	0.5394	0.101	738.104	0.225
318.15	0.54	0.4	812.251	0.23
318.15	0.5599	0.3001	790.147	0.225
318.15	0.6299	0.3001	803.677	0.222
318.15	0.6399	0.2002	778.898	0.22
318.15	0.7197	0.1003	766.41	0.216
318.15	0.7198	0.2001	793.843	0.216
318.15	0.8101	0.0998	782.718	0.211
323.15	0.0102	0.8998	818.546	0.295
323.15	0.02	0.7999	798.541	0.282
323.15	0.0211	0.8987	820.656	0.295
323.15	0.0289	0.7008	779.421	0.272
323.15	0.04	0.6003	761.216	0.263
323.15	0.0401	0.9	824.918	0.295
323.15	0.0404	0.7997	802.511	0.281
323.15	0.0502	0.5005	743.885	0.256
323.15	0.0597	0.7006	785.058	0.271
323.15	0.0604	0.8994	829.257	0.295
323.15	0.0615	0.3987	727.073	0.251
323.15	0.0698	0.3001	711.013	0.247
323.15	0.0798	0.9002	833.759	0.294
323.15	0.0801	0.7999	810.574	0.281
323.15	0.0802	0.6001	768.014	0.262
323.15	0.0806	0.2001	695.593	0.245
323.15	0.09	0.1001	680.384	0.244
323.15	0.0901	0.8998	835.963	0.294
323.15	0.1	0.5002	751.662	0.254
323.15	0.1197	0.8006	818.835	0.28
323.15	0.1201	0.7001	796.315	0.269
323.15	0.1204	0.4001	735.749	0.248
323.15	0.1401	0.3001	720.151	0.244
323.15	0.1586	0.2066	705.809	0.242
323.15	0.1599	0.6001	782.133	0.259
323.15	0.1604	0.7995	827.274	0.279
323.15	0.1799	0.1	689.46	0.24
323.15	0.1799	0.8001	831.768	0.279
323.15	0.1803	0.6994	808.016	0.267
323.15	0.1998	0.5002	768.09	0.25
323.15	0.2399	0.6	797.136	0.256
323.15	0.2402	0.3999	753.912	0.244
323.15	0.2403	0.6996	820.526	0.265
323.15	0.2698	0.7002	826.969	0.264
323.15	0.2802	0.3	739.645	0.238
323.15	0.3003	0.4997	785.704	0.245
323.15	0.3198	0.2002	724.979	0.234
323.15	0.3203	0.5996	813.015	0.253
323.15	0.3598	0.6002	821.523	0.252
323.15	0.36	0.4	773.854	0.239
323.15	0.3603	0.0998	709.7	0.232
323.15	0.4	0.5	805.064	0.242
323.15	0.4198	0.3003	761.296	0.232
323.15	0.4499	0.5002	815.255	0.241
323.15	0.4788	0.4016	796.058	0.233
323.15	0.4801	0.2	747.939	0.227
323.15	0.4922	0.4415	808.885	0.235
323.15	0.5394	0.101	733.739	0.224
323.15	0.54	0.4	807.924	0.232
323.15	0.5599	0.3001	785.825	0.226
323.15	0.6299	0.3001	799.395	0.224
323.15	0.6399	0.2002	774.627	0.22
323.15	0.7197	0.1003	762.168	0.216
323.15	0.7198	0.2001	789.624	0.217
323.15	0.8101	0.0998	778.556	0.213
