Measured thermophysical data. A Novel Co-crystal of (R,R)-1,2-Cyclohexanediol with (R,R)-Tartaric Acid, a  Key Structure for Resolution of the Racemic (+-)-trans-Diol in Supercritical Carbon  Dioxide, and the Binary Melting Phase Relations.
Source: Thermochim. Acta, 2010, 10.1016/j.tca.2009.09.001
Compound 1: (2R,3R)-2,3-dihydroxybutanedioic acid, C4H6O6, InChI=1S/C4H6O6/c5-1(3(7)8)2(6)4(9)10/h1-2,5-6H,(H,7,8)(H,9,10)/t1-,2-/m1/s1
Compound 2: (1R,2R)-1,2-cyclohexanediol, C6H12O2, InChI=1S/C6H12O2/c7-5-3-1-2-4-6(5)8/h5-8H,1-4H2/t5-,6-/m1/s1
Compound 3: 1,2-cyclohexanediol, (1S,2S)-, C6H12O2, InChI=1S/C6H12O2/c7-5-3-1-2-4-6(5)8/h5-8H,1-4H2/t5-,6-/m0/s1
Compound 4: trans-1,2-cyclohexanediol, C6H12O2, InChI=1S/C6H12O2/c7-5-3-1-2-4-6(5)8/h5-8H,1-4H2/t5-,6-/m1/s1
Compound 5: (R,R)-tartaric acid (R,R)-1,2-cyclohexanediol co-crystal (1:1), C10H18O8, InChI=1S/C6H12O2.C4H6O6/c7-5-3-1-2-4-6(5)8;5-1(3(7)8)2(6)4(9)10/h5-8H,1-4H2;1-2,5-6H,(H,7,8)(H,9,10)/t5-,6-;1-,2-/m11/s1

System: (2R,3R)-2,3-dihydroxybutanedioic acid; phases: Crystal, Liquid, Air at 1 atmosphere
Property: Normal melting temperature, K (Crystal); method: DTA
Normal melting temperature, K	uncertainty
444	1

System: (2R,3R)-2,3-dihydroxybutanedioic acid; phases: Crystal, Liquid, Air at 1 atmosphere
Property: Molar enthalpy of transition or fusion, kJ/mol (Crystal); method: DSC
Molar enthalpy of transition or fusion, kJ/mol	uncertainty
22.4	0.7

System: (1R,2R)-1,2-cyclohexanediol; phases: Crystal, Liquid, Air at 1 atmosphere
Property: Normal melting temperature, K (Crystal); method: DTA
Normal melting temperature, K	uncertainty
381	1

System: (1R,2R)-1,2-cyclohexanediol; phases: Crystal, Liquid, Air at 1 atmosphere
Property: Molar enthalpy of transition or fusion, kJ/mol (Crystal); method: DSC
Molar enthalpy of transition or fusion, kJ/mol	uncertainty
18	0.6

System: 1,2-cyclohexanediol, (1S,2S)-; phases: Crystal, Liquid, Air at 1 atmosphere
Property: Normal melting temperature, K (Crystal); method: DTA
Normal melting temperature, K	uncertainty
377	1

System: 1,2-cyclohexanediol, (1S,2S)-; phases: Crystal, Liquid, Air at 1 atmosphere
Property: Molar enthalpy of transition or fusion, kJ/mol (Crystal); method: DSC
Molar enthalpy of transition or fusion, kJ/mol	uncertainty
15	0.5

System: trans-1,2-cyclohexanediol; phases: Crystal, Liquid, Air at 1 atmosphere
Property: Normal melting temperature, K (Crystal); method: DTA
Normal melting temperature, K	uncertainty
372	1

System: trans-1,2-cyclohexanediol; phases: Crystal, Liquid, Air at 1 atmosphere
Property: Molar enthalpy of transition or fusion, kJ/mol (Crystal); method: DSC
Molar enthalpy of transition or fusion, kJ/mol	uncertainty
34.4	1

System: (R,R)-tartaric acid (R,R)-1,2-cyclohexanediol co-crystal (1:1); phases: Crystal
Property: Mass density, kg/m3 (Crystal); method: X-ray diffraction
Temperature, K	Pressure, kPa	Mass density, kg/m3	uncertainty
295	101.325	1461	16

System: (R,R)-tartaric acid (R,R)-1,2-cyclohexanediol co-crystal (1:1); phases: Crystal, Liquid, Air at 1 atmosphere
Property: Normal melting temperature, K (Crystal); method: DTA
Normal melting temperature, K	uncertainty
406.35	0.5

System: (R,R)-tartaric acid (R,R)-1,2-cyclohexanediol co-crystal (1:1); phases: Crystal, Liquid, Air at 1 atmosphere
Property: Molar enthalpy of transition or fusion, kJ/mol (Crystal); method: DSC
Molar enthalpy of transition or fusion, kJ/mol	uncertainty
56.7	1.5
