Measured thermophysical data. Thermophysical Properties of Lactates
Source: Thermochim. Acta, 2014, 10.1016/j.tca.2013.11.010
Compound 1: methyl 2-hydroxypropanoate, C4H8O3, InChI=1S/C4H8O3/c1-3(5)4(6)7-2/h3,5H,1-2H3, purity 98%
Compound 2: DL-ethyl lactate, C5H10O3, InChI=1S/C5H10O3/c1-3-8-5(7)4(2)6/h4,6H,3H2,1-2H3, purity 98%
Compound 3: butyl 2-hydroxypropanoate, C7H14O3, InChI=1S/C7H14O3/c1-3-4-5-10-7(9)6(2)8/h6,8H,3-5H2,1-2H3, purity 98%

System: methyl 2-hydroxypropanoate; phases: Liquid
Fixed: Pressure, kPa = 101.325
Property: Mass density, kg/m3 (Liquid); method: Vibrating tube method
Temperature, K	Mass density, kg/m3	uncertainty
278.15	1109.606	1.068
280.65	1106.864	1.062
283.15	1104.105	1.056
285.65	1101.338	1.05
288.15	1098.568	1.044
290.65	1095.793	1.038
293.15	1093.013	1.032
295.65	1090.228	1.026
298.15	1087.431	1.02
300.65	1084.636	1.014
303.15	1081.831	1.008
305.65	1079.018	1.002
308.15	1076.201	0.996
310.65	1073.378	0.99
313.15	1070.547	0.984
315.65	1067.709	0.978
318.15	1064.862	0.972
320.65	1062.01	0.966
323.15	1059.149	0.96
325.65	1056.282	0.954
328.15	1053.405	0.948
330.65	1050.522	0.942
333.15	1047.632	0.936
335.65	1044.732	0.93
338.15	1041.827	0.923

System: methyl 2-hydroxypropanoate; phases: Liquid
Fixed: Pressure, kPa = 101.325
Property: Refractive index (Na D-line) (Liquid); method: Standard Abbe refractometry
Temperature, K	Refractive index (Na D-line)	uncertainty
283.15	1.418306	0.000536
285.65	1.417219	0.000536
288.15	1.416128	0.000536
290.65	1.415016	0.000536
293.15	1.41392	0.000536
295.65	1.412812	0.000537
298.15	1.411706	0.000536
300.65	1.410606	0.000536
303.15	1.409495	0.000537
305.65	1.408373	0.000537
308.15	1.407249	0.000537
310.65	1.406145	0.000537
313.15	1.405016	0.000537
315.65	1.403863	0.000537
318.15	1.402762	0.000537
320.65	1.401638	0.000537
323.15	1.40051	0.000537
325.65	1.399367	0.000537
328.15	1.398214	0.000537
330.65	1.397096	0.000537
333.15	1.395956	0.000537
335.65	1.394786	0.000537
338.15	1.393653	0.000537

System: methyl 2-hydroxypropanoate; phases: Liquid
Fixed: Pressure, kPa = 101.325
Property: Speed of sound, m/s (Liquid); method: Sing-around technique in a fixed-path interferometer
Temperature, K	Speed of sound, m/s	uncertainty
278.15	1416.42	2.33
280.65	1407.1	2.33
283.15	1397.57	2.33
285.65	1387.89	2.33
288.15	1378.16	2.32
290.65	1368.22	2.32
293.15	1358.38	2.32
295.65	1348.57	2.32
298.15	1338.8	2.32
300.65	1329.15	2.32
303.15	1319.53	2.32
305.65	1309.92	2.32
308.15	1300.38	2.32
310.65	1290.89	2.32
313.15	1281.37	2.31
315.65	1271.89	2.31
318.15	1262.41	2.31
320.65	1252.96	2.31
323.15	1243.5	2.31
325.65	1234.07	2.31
328.15	1224.61	2.31
330.65	1215.19	2.31
333.15	1205.74	2.31
335.65	1196.32	2.31
338.15	1186.93	2.31

System: methyl 2-hydroxypropanoate; phases: Liquid, Air at 1 atmosphere
Property: Surface tension liquid-gas, N/m (Liquid); method: Drop volume
Temperature, K	Surface tension liquid-gas, N/m	uncertainty
278.15	0.03505	0.00039
280.65	0.0348	0.00039
283.15	0.03453	0.00039
285.65	0.03425	0.00038
288.15	0.03404	0.00038
290.65	0.03373	0.00038
293.15	0.03347	0.00037
295.65	0.03314	0.00037
298.15	0.0329	0.00037
300.65	0.0326	0.00037
303.15	0.03225	0.00036
305.65	0.03195	0.00036
308.15	0.03158	0.00036
310.65	0.03123	0.00035
313.15	0.03087	0.00035
315.65	0.03063	0.00035
318.15	0.03034	0.00034
320.65	0.03008	0.00034
323.15	0.02971	0.00034
325.65	0.02938	0.00033
328.15	0.02903	0.00033
330.65	0.02883	0.00033
333.15	0.02852	0.00032
335.65	0.02822	0.00032
338.15	0.02792	0.00032

System: methyl 2-hydroxypropanoate; phases: Liquid
Fixed: Pressure, kPa = 101.325
Property: Viscosity, Pa*s (Liquid); method: Capillary tube (Ostwald; Ubbelohde) method
Temperature, K	Viscosity, Pa*s	uncertainty
278.15	0.0052104	0.0001193
280.65	0.0047059	0.0001079
283.15	0.0042811	9.81e-05
285.65	0.0039159	8.98e-05
288.15	0.0035879	8.23e-05
290.65	0.0032986	7.57e-05
293.15	0.0030431	6.98e-05
295.65	0.0028188	6.47e-05
298.15	0.0026178	6.01e-05
300.65	0.0024383	5.6e-05
303.15	0.0022773	5.23e-05
305.65	0.0021318	4.9e-05
308.15	0.0019996	4.59e-05
310.65	0.0018806	4.32e-05
313.15	0.0017718	4.07e-05
315.65	0.0016722	3.84e-05
318.15	0.0015798	3.63e-05
320.65	0.0014988	3.45e-05
323.15	0.0014254	3.28e-05
325.65	0.0013451	3.1e-05
328.15	0.0012904	2.97e-05
330.65	0.0012308	2.83e-05
333.15	0.0011754	2.71e-05
335.65	0.0011363	2.62e-05
338.15	0.0010749	2.48e-05

System: methyl 2-hydroxypropanoate; phases: Liquid
Fixed: Pressure, kPa = 101.3
Fixed: Frequency, MHz = 2
Property: Relative permittivity at various frequencies (Liquid); method: Parallel plate capacitor
Temperature, K	Relative permittivity at various frequencies	uncertainty
278.15	18.379	0.184
280.65	18.095	0.181
283.15	17.817	0.178
285.65	17.634	0.176
288.15	17.353	0.174
290.65	17.06	0.171
293.15	16.779	0.168
295.65	16.493	0.165
298.15	16.21	0.162
300.65	15.923	0.159
303.15	15.647	0.156
305.65	15.412	0.154
308.15	15.093	0.151
310.65	14.861	0.149
313.15	14.598	0.146
315.65	14.355	0.144
318.15	14.127	0.141
320.65	13.9	0.139
323.15	13.666	0.137
325.65	13.359	0.134
328.15	13.113	0.131
330.65	12.879	0.129
333.15	12.631	0.126
335.65	12.319	0.123
338.15	12.012	0.12

System: methyl 2-hydroxypropanoate; phases: Liquid, Gas
Property: Vapor or sublimation pressure, kPa (Liquid); method: Ebulliometric method (Recirculating still)
Temperature, K	Vapor or sublimation pressure, kPa	uncertainty
303.15	0.692	0.1
308.15	0.967	0.1
313.15	1.333	0.1
318.15	1.821	0.1
323.15	2.399	0.1
328.15	3.173	0.101
333.15	4.139	0.101
338.15	5.319	0.101
343.15	6.889	0.101
348.15	8.652	0.102
353.15	10.812	0.103
358.15	13.491	0.105
363.15	16.603	0.107
368.15	20.301	0.109
373.15	24.699	0.113
378.15	29.681	0.119
383.15	35.502	0.126
388.15	42.277	0.135
393.15	49.999	0.146
398.15	58.681	0.159
403.15	68.641	0.175
408.15	79.852	0.195
413.15	92.495	0.217

System: DL-ethyl lactate; phases: Liquid
Fixed: Pressure, kPa = 101.325
Property: Mass density, kg/m3 (Liquid); method: Vibrating tube method
Temperature, K	Mass density, kg/m3	uncertainty
278.15	1050.048	0.94
280.65	1047.37	0.935
283.15	1044.684	0.929
285.65	1041.963	0.924
288.15	1039.255	0.918
290.65	1036.54	0.912
293.15	1033.822	0.907
295.65	1031.094	0.901
298.15	1028.365	0.896
300.65	1025.631	0.89
303.15	1022.892	0.884
305.65	1020.147	0.879
308.15	1017.397	0.873
310.65	1014.643	0.867
313.15	1011.878	0.862
315.65	1009.115	0.856
318.15	1006.343	0.851
320.65	1003.565	0.845
323.15	1000.781	0.839
325.65	997.99	0.835
328.15	995.193	0.832
330.65	992.389	0.829
333.15	989.579	0.825
335.65	986.763	0.822
338.15	983.942	0.819

System: DL-ethyl lactate; phases: Liquid
Fixed: Pressure, kPa = 101.325
Property: Refractive index (Na D-line) (Liquid); method: Standard Abbe refractometry
Temperature, K	Refractive index (Na D-line)	uncertainty
283.15	1.417512	0.000536
285.65	1.416437	0.000537
288.15	1.415278	0.000537
290.65	1.414144	0.000537
293.15	1.413009	0.000537
295.65	1.411879	0.000537
298.15	1.41074	0.000537
300.65	1.409595	0.000537
303.15	1.408432	0.000537
305.65	1.407294	0.000537
308.15	1.406147	0.000537
310.65	1.405009	0.000537
313.15	1.403807	0.000537
315.65	1.402671	0.000537
318.15	1.401522	0.000537
320.65	1.400364	0.000537
323.15	1.399175	0.000538
325.65	1.397984	0.000537
328.15	1.396838	0.000538
330.65	1.395602	0.000537
333.15	1.39448	0.000537
335.65	1.393304	0.000537
338.15	1.392153	0.000537

System: DL-ethyl lactate; phases: Liquid
Fixed: Pressure, kPa = 101.325
Property: Speed of sound, m/s (Liquid); method: Sing-around technique in a fixed-path interferometer
Temperature, K	Speed of sound, m/s	uncertainty
278.15	1354.54	2.32
280.65	1345.2	2.32
283.15	1335.71	2.32
285.65	1326.22	2.32
288.15	1316.84	2.32
290.65	1307.54	2.32
293.15	1298.31	2.32
295.65	1289.02	2.32
298.15	1279.73	2.31
300.65	1270.45	2.31
303.15	1261.17	2.31
305.65	1251.89	2.31
308.15	1242.58	2.31
310.65	1233.31	2.31
313.15	1223.98	2.31
315.65	1214.67	2.31
318.15	1205.38	2.31
320.65	1196.09	2.31
323.15	1186.83	2.31
325.65	1177.57	2.31
328.15	1168.36	2.3
330.65	1159.13	2.3
333.15	1149.9	2.3
335.65	1140.72	2.3
338.15	1131.56	2.3

System: DL-ethyl lactate; phases: Liquid, Air at 1 atmosphere
Property: Surface tension liquid-gas, N/m (Liquid); method: Drop volume
Temperature, K	Surface tension liquid-gas, N/m	uncertainty
278.15	0.03147	0.00035
280.65	0.03121	0.00035
283.15	0.03094	0.00035
285.65	0.03079	0.00035
288.15	0.03043	0.00034
290.65	0.03018	0.00034
293.15	0.02995	0.00034
295.65	0.02967	0.00034
298.15	0.02949	0.00033
300.65	0.02923	0.00033
303.15	0.02888	0.00033
305.65	0.02864	0.00033
308.15	0.02842	0.00032
310.65	0.02812	0.00032
313.15	0.02784	0.00032
315.65	0.02746	0.00031
318.15	0.02719	0.00031
320.65	0.02692	0.00031
323.15	0.02665	0.00031
325.65	0.02629	0.0003
328.15	0.02608	0.0003
330.65	0.02592	0.0003
333.15	0.02548	0.00029
335.65	0.02532	0.00029
338.15	0.02505	0.00029

System: DL-ethyl lactate; phases: Liquid
Fixed: Pressure, kPa = 101.325
Property: Viscosity, Pa*s (Liquid); method: Capillary tube (Ostwald; Ubbelohde) method
Temperature, K	Viscosity, Pa*s	uncertainty
278.15	0.0044792	0.0001027
280.65	0.0040906	9.38e-05
283.15	0.0037504	8.6e-05
285.65	0.003451	7.91e-05
288.15	0.0031838	7.3e-05
290.65	0.0029466	6.76e-05
293.15	0.0027346	6.28e-05
295.65	0.0025456	5.84e-05
298.15	0.0023753	5.45e-05
300.65	0.0022214	5.1e-05
303.15	0.0020811	4.78e-05
305.65	0.0019545	4.49e-05
308.15	0.001838	4.22e-05
310.65	0.0017327	3.98e-05
313.15	0.0016359	3.76e-05
315.65	0.0015474	3.56e-05
318.15	0.0014661	3.37e-05
320.65	0.0013913	3.2e-05
323.15	0.0013207	3.04e-05
325.65	0.0012553	2.89e-05
328.15	0.0011957	2.75e-05
330.65	0.0011402	2.63e-05
333.15	0.0010868	2.5e-05
335.65	0.0010373	2.39e-05
338.15	0.0009907	2.28e-05

System: DL-ethyl lactate; phases: Liquid
Fixed: Pressure, kPa = 101.3
Fixed: Frequency, MHz = 2
Property: Relative permittivity at various frequencies (Liquid); method: Parallel plate capacitor
Temperature, K	Relative permittivity at various frequencies	uncertainty
278.15	17.791	0.178
280.65	17.538	0.175
283.15	17.219	0.172
285.65	16.961	0.17
288.15	16.736	0.167
290.65	16.496	0.165
293.15	16.166	0.162
295.65	15.961	0.16
298.15	15.711	0.157
300.65	15.448	0.154
303.15	15.18	0.152
305.65	14.917	0.149
308.15	14.639	0.146
310.65	14.373	0.144
313.15	14.107	0.141
315.65	13.843	0.138
318.15	13.573	0.136
320.65	13.298	0.133
323.15	13.045	0.13
325.65	12.786	0.128
328.15	12.538	0.125
330.65	12.286	0.123
333.15	12.044	0.12
335.65	11.787	0.118
338.15	11.495	0.115

System: DL-ethyl lactate; phases: Liquid, Gas
Property: Vapor or sublimation pressure, kPa (Liquid); method: Ebulliometric method (Recirculating still)
Temperature, K	Vapor or sublimation pressure, kPa	uncertainty
303.15	0.436	0.1
308.15	0.603	0.1
313.15	0.829	0.1
318.15	1.142	0.1
323.15	1.536	0.1
328.15	2.015	0.1
333.15	2.717	0.1
338.15	3.523	0.101
343.15	4.591	0.101
348.15	5.851	0.101
353.15	7.323	0.102
358.15	9.29	0.102
363.15	11.492	0.103
368.15	14.192	0.105
373.15	17.374	0.107
378.15	21.112	0.11
383.15	25.51	0.114
388.15	30.625	0.12
393.15	36.236	0.126
398.15	42.709	0.135
403.15	50.399	0.146
408.15	59.109	0.16
413.15	69.13	0.176
418.15	80.199	0.195
423.15	92.512	0.216

System: butyl 2-hydroxypropanoate; phases: Liquid
Fixed: Pressure, kPa = 101.325
Property: Mass density, kg/m3 (Liquid); method: Vibrating tube method
Temperature, K	Mass density, kg/m3	uncertainty
278.15	996.896	0.834
280.65	994.466	0.831
283.15	992.023	0.828
285.65	989.578	0.825
288.15	987.126	0.822
290.65	984.671	0.819
293.15	982.212	0.816
295.65	979.75	0.813
298.15	977.283	0.811
300.65	974.813	0.808
303.15	972.337	0.805
305.65	969.859	0.802
308.15	967.374	0.799
310.65	964.888	0.796
313.15	962.397	0.793
315.65	959.903	0.79
318.15	957.407	0.788
320.65	954.908	0.785
323.15	952.408	0.782
325.65	949.904	0.779
328.15	947.397	0.776
330.65	944.885	0.773
333.15	942.369	0.771
335.65	939.848	0.768
338.15	937.324	0.765

System: butyl 2-hydroxypropanoate; phases: Liquid
Fixed: Pressure, kPa = 101.325
Property: Refractive index (Na D-line) (Liquid); method: Standard Abbe refractometry
Temperature, K	Refractive index (Na D-line)	uncertainty
283.15	1.425783	0.000536
285.65	1.424719	0.000536
288.15	1.423698	0.000536
290.65	1.422586	0.000536
293.15	1.421498	0.000536
295.65	1.420382	0.000537
298.15	1.419277	0.000537
300.65	1.418151	0.000537
303.15	1.41703	0.000537
305.65	1.415904	0.000537
308.15	1.414765	0.000537
310.65	1.413661	0.000537
313.15	1.412521	0.000537
315.65	1.41139	0.000537
318.15	1.410261	0.000537
320.65	1.409102	0.000537
323.15	1.407968	0.000537
325.65	1.406823	0.000537
328.15	1.405721	0.000538
330.65	1.404413	0.000537
333.15	1.403414	0.000536
335.65	1.402255	0.000537
338.15	1.401141	0.000537

System: butyl 2-hydroxypropanoate; phases: Liquid
Fixed: Pressure, kPa = 101.325
Property: Speed of sound, m/s (Liquid); method: Sing-around technique in a fixed-path interferometer
Temperature, K	Speed of sound, m/s	uncertainty
278.15	1357.22	2.32
280.65	1348.15	2.32
283.15	1339.06	2.32
285.65	1330.11	2.32
288.15	1321.16	2.32
290.65	1312.19	2.32
293.15	1303.21	2.32
295.65	1294.1	2.32
298.15	1285.01	2.32
300.65	1275.95	2.31
303.15	1266.89	2.31
305.65	1257.84	2.31
308.15	1248.79	2.31
310.65	1239.77	2.31
313.15	1230.75	2.31
315.65	1221.74	2.31
318.15	1212.75	2.31
320.65	1203.77	2.31
323.15	1194.86	2.31
325.65	1185.92	2.31
328.15	1176.96	2.31
330.65	1168.04	2.3
333.15	1159.13	2.3
335.65	1150.31	2.3
338.15	1141.49	2.3

System: butyl 2-hydroxypropanoate; phases: Liquid, Air at 1 atmosphere
Property: Surface tension liquid-gas, N/m (Liquid); method: Drop volume
Temperature, K	Surface tension liquid-gas, N/m	uncertainty
278.15	0.03007	0.00034
280.65	0.02986	0.00034
283.15	0.02965	0.00034
285.65	0.02942	0.00033
288.15	0.02914	0.00033
290.65	0.02893	0.00033
293.15	0.02872	0.00033
295.65	0.02838	0.00032
298.15	0.02815	0.00032
300.65	0.02787	0.00032
303.15	0.02764	0.00032
305.65	0.02738	0.00031
308.15	0.02716	0.00031
310.65	0.02692	0.00031
313.15	0.02668	0.00031
315.65	0.02642	0.0003
318.15	0.0261	0.0003
320.65	0.02589	0.0003
323.15	0.0257	0.0003
325.65	0.02543	0.00029
328.15	0.02514	0.00029
330.65	0.02492	0.00029
333.15	0.02467	0.00029
335.65	0.02441	0.00028
338.15	0.02416	0.00028

System: butyl 2-hydroxypropanoate; phases: Liquid
Fixed: Pressure, kPa = 101.325
Property: Viscosity, Pa*s (Liquid); method: Capillary tube (Ostwald; Ubbelohde) method
Temperature, K	Viscosity, Pa*s	uncertainty
278.15	0.0064956	0.0001484
280.65	0.0058729	0.0001343
283.15	0.0053333	0.0001221
285.65	0.0048603	0.0001114
288.15	0.0044458	0.0001019
290.65	0.0040771	9.35e-05
293.15	0.0037529	8.61e-05
295.65	0.0034657	7.95e-05
298.15	0.0032073	7.36e-05
300.65	0.0029782	6.83e-05
303.15	0.0027735	6.36e-05
305.65	0.0025884	5.94e-05
308.15	0.0024225	5.56e-05
310.65	0.002272	5.22e-05
313.15	0.0021342	4.9e-05
315.65	0.002011	4.62e-05
318.15	0.0018974	4.36e-05
320.65	0.0017928	4.12e-05
323.15	0.001695	3.9e-05
325.65	0.0016069	3.69e-05
328.15	0.0015265	3.51e-05
330.65	0.0014502	3.34e-05
333.15	0.0013789	3.17e-05
335.65	0.0013153	3.03e-05
338.15	0.0012569	2.89e-05

System: butyl 2-hydroxypropanoate; phases: Liquid
Fixed: Pressure, kPa = 101.3
Fixed: Frequency, MHz = 2
Property: Relative permittivity at various frequencies (Liquid); method: Parallel plate capacitor
Temperature, K	Relative permittivity at various frequencies	uncertainty
278.15	11.488	0.115
280.65	11.323	0.113
283.15	11.164	0.112
285.65	11.046	0.11
288.15	10.912	0.109
290.65	10.769	0.108
293.15	10.593	0.106
295.65	10.428	0.104
298.15	10.298	0.103
300.65	10.158	0.102
303.15	10.024	0.1
305.65	9.87	0.099
308.15	9.695	0.097
310.65	9.583	0.096
313.15	9.411	0.094
315.65	9.273	0.093
318.15	9.165	0.092
320.65	9.002	0.09
323.15	8.844	0.088
325.65	8.699	0.087
328.15	8.545	0.085
330.65	8.418	0.084
333.15	8.286	0.083
335.65	8.164	0.082
338.15	8.047	0.08

System: butyl 2-hydroxypropanoate; phases: Liquid, Gas
Property: Vapor or sublimation pressure, kPa (Liquid); method: Ebulliometric method (Recirculating still)
Temperature, K	Vapor or sublimation pressure, kPa	uncertainty
303.15	0.102	0.1
308.15	0.149	0.1
313.15	0.201	0.1
318.15	0.273	0.1
323.15	0.371	0.1
328.15	0.511	0.1
333.15	0.679	0.1
338.15	0.899	0.1
343.15	1.192	0.1
348.15	1.541	0.1
353.15	1.979	0.1
358.15	2.502	0.1
363.15	3.224	0.101
368.15	4.057	0.101
373.15	5.075	0.101
378.15	6.271	0.101
383.15	7.753	0.102
388.15	9.531	0.102
393.15	11.639	0.103
398.15	14.119	0.105
403.15	17.002	0.107
408.15	20.431	0.109
413.15	24.391	0.113
418.15	29.202	0.118
423.15	34.597	0.124
428.15	40.781	0.132
433.15	47.901	0.142
438.15	55.971	0.154
443.15	65.303	0.17
448.15	75.812	0.187
453.15	87.701	0.208
