Measured thermophysical data. Studies of viscosities of dilute solutions of alkylamines in non-electrolyte solvents: IV. Alkylamines in 1,4-dioxane and oxolane at 303.15K
Source: Thermochim. Acta, 2009, 10.1016/j.tca.2009.07.008
Compound 1: propan-1-amine, C3H9N, InChI=1S/C3H9N/c1-2-3-4/h2-4H2,1H3, purity 99%
Compound 2: 1-butanamine, C4H11N, InChI=1S/C4H11N/c1-2-3-4-5/h2-5H2,1H3, purity 99%
Compound 3: dipropylamine, C6H15N, InChI=1S/C6H15N/c1-3-5-7-6-4-2/h7H,3-6H2,1-2H3, purity 99%
Compound 4: dibutylamine, C8H19N, InChI=1S/C8H19N/c1-3-5-7-9-8-6-4-2/h9H,3-8H2,1-2H3, purity 99%
Compound 5: triethylamine, C6H15N, InChI=1S/C6H15N/c1-4-7(5-2)6-3/h4-6H2,1-3H3, purity 99%
Compound 6: tripropylamine, C9H21N, InChI=1S/C9H21N/c1-4-7-10(8-5-2)9-6-3/h4-9H2,1-3H3, purity 99%
Compound 7: tributylamine, C12H27N, InChI=1S/C12H27N/c1-4-7-10-13(11-8-5-2)12-9-6-3/h4-12H2,1-3H3, purity 99%
Compound 8: 1,4-dioxane, C4H8O2, InChI=1S/C4H8O2/c1-2-6-4-3-5-1/h1-4H2, purity 99.5%
Compound 9: tetrahydrofuran, C4H8O, InChI=1S/C4H8O/c1-2-4-5-3-1/h1-4H2, purity 99.5%

System: propan-1-amine; phases: Liquid
Property: Viscosity, Pa*s (Liquid); method: Capillary tube (Ostwald; Ubbelohde) method
Temperature, K	Pressure, kPa	Viscosity, Pa*s	uncertainty
303.15	101.325	0.0003527	5e-06

System: 1-butanamine; phases: Liquid
Property: Viscosity, Pa*s (Liquid); method: Capillary tube (Ostwald; Ubbelohde) method
Temperature, K	Pressure, kPa	Viscosity, Pa*s	uncertainty
303.15	101.325	0.0004442	5.4e-06

System: dipropylamine; phases: Liquid
Property: Viscosity, Pa*s (Liquid); method: Capillary tube (Ostwald; Ubbelohde) method
Temperature, K	Pressure, kPa	Viscosity, Pa*s	uncertainty
303.15	101.325	0.0005118	5.8e-06

System: dibutylamine; phases: Liquid
Property: Viscosity, Pa*s (Liquid); method: Capillary tube (Ostwald; Ubbelohde) method
Temperature, K	Pressure, kPa	Viscosity, Pa*s	uncertainty
303.15	101.325	0.0007584	7.1e-06

System: triethylamine; phases: Liquid
Property: Viscosity, Pa*s (Liquid); method: Capillary tube (Ostwald; Ubbelohde) method
Temperature, K	Pressure, kPa	Viscosity, Pa*s	uncertainty
303.15	101.325	0.0003296	4.9e-06

System: tripropylamine; phases: Liquid
Property: Viscosity, Pa*s (Liquid); method: Capillary tube (Ostwald; Ubbelohde) method
Temperature, K	Pressure, kPa	Viscosity, Pa*s	uncertainty
303.15	101.325	0.0005977	6.2e-06

System: tributylamine; phases: Liquid
Property: Viscosity, Pa*s (Liquid); method: Capillary tube (Ostwald; Ubbelohde) method
Temperature, K	Pressure, kPa	Viscosity, Pa*s	uncertainty
303.15	101.325	0.001167	9.7e-06

System: 1,4-dioxane; phases: Liquid
Property: Viscosity, Pa*s (Liquid); method: Capillary tube (Ostwald; Ubbelohde) method
Temperature, K	Pressure, kPa	Viscosity, Pa*s	uncertainty
303.15	101.325	0.001075	7.9e-06

System: tetrahydrofuran; phases: Liquid
Property: Viscosity, Pa*s (Liquid); method: Capillary tube (Ostwald; Ubbelohde) method
Temperature, K	Pressure, kPa	Viscosity, Pa*s	uncertainty
303.15	101.325	0.000326	4.7e-06

System: propan-1-amine + 1,4-dioxane; phases: Liquid
Fixed: Temperature, K = 303.15
Fixed: Pressure, kPa = 101
Property: Viscosity, Pa*s (Liquid); method: Capillary tube (Ostwald; Ubbelohde) method
Molality, mol/kg of propan-1-amine	Viscosity, Pa*s	uncertainty
0.1086	0.00106	7.8e-06
0.2456	0.0010427	7.7e-06
0.3295	0.0010284	7.6e-06
0.478	0.001014	7.6e-06
0.5767	0.0009987	7.5e-06
0.7164	0.0009852	7.4e-06
0.8321	0.0009693	7.4e-06
1.0278	0.0009504	7.3e-06
1.1161	0.0009395	7.2e-06

System: 1-butanamine + 1,4-dioxane; phases: Liquid
Fixed: Temperature, K = 303.15
Fixed: Pressure, kPa = 101
Property: Viscosity, Pa*s (Liquid); method: Capillary tube (Ostwald; Ubbelohde) method
Molality, mol/kg of 1-butanamine	Viscosity, Pa*s	uncertainty
0.1085	0.0010604	7.8e-06
0.2365	0.0010458	7.7e-06
0.3679	0.001032	7.7e-06
0.4745	0.00102	7.6e-06
0.5834	0.0010075	7.6e-06
0.7574	0.0009893	7.5e-06
0.8872	0.0009764	7.4e-06
1.004	0.0009652	7.4e-06
1.1157	0.0009543	7.3e-06

System: 1,4-dioxane + dipropylamine; phases: Liquid
Fixed: Temperature, K = 303.15
Fixed: Pressure, kPa = 101
Property: Viscosity, Pa*s (Liquid); method: Capillary tube (Ostwald; Ubbelohde) method
Molality, mol/kg of dipropylamine	Viscosity, Pa*s	uncertainty
0.0998	0.0010625	7.8e-06
0.2282	0.0010499	7.7e-06
0.341	0.0010391	7.7e-06
0.4787	0.001027	7.7e-06
0.6261	0.0010122	7.6e-06
0.7266	0.0010005	7.5e-06
0.8461	0.0009902	7.5e-06
0.9821	0.0009801	7.5e-06
1.1489	0.0009661	7.4e-06

System: dibutylamine + 1,4-dioxane; phases: Liquid
Fixed: Temperature, K = 303.15
Fixed: Pressure, kPa = 101
Property: Viscosity, Pa*s (Liquid); method: Capillary tube (Ostwald; Ubbelohde) method
Molality, mol/kg of dibutylamine	Viscosity, Pa*s	uncertainty
0.1225	0.0010651	7.8e-06
0.2369	0.0010534	7.8e-06
0.3608	0.0010405	7.7e-06
0.4533	0.0010312	7.7e-06
0.594	0.0010191	7.6e-06
0.7122	0.001006	7.6e-06
0.8855	0.0009937	7.5e-06
0.9669	0.0009865	7.5e-06
1.1382	0.0009766	7.5e-06

System: triethylamine + 1,4-dioxane; phases: Liquid
Fixed: Temperature, K = 303.15
Fixed: Pressure, kPa = 101
Property: Viscosity, Pa*s (Liquid); method: Capillary tube (Ostwald; Ubbelohde) method
Molality, mol/kg of triethylamine	Viscosity, Pa*s	uncertainty
0.159	0.001054	7.8e-06
0.2697	0.001042	7.7e-06
0.4098	0.001018	7.6e-06
0.5388	0.000998	7.5e-06
0.6616	0.00098	7.4e-06
0.8419	0.000955	7.3e-06
0.9909	0.000932	7.2e-06
1.135	0.000914	7.1e-06
1.2695	0.000894	7.1e-06

System: tripropylamine + 1,4-dioxane; phases: Liquid
Fixed: Temperature, K = 303.15
Fixed: Pressure, kPa = 101
Property: Viscosity, Pa*s (Liquid); method: Capillary tube (Ostwald; Ubbelohde) method
Molality, mol/kg of tripropylamine	Viscosity, Pa*s	uncertainty
0.1093	0.0010598	7.8e-06
0.2293	0.0010451	7.7e-06
0.3509	0.0010319	7.7e-06
0.4408	0.0010225	7.6e-06
0.5919	0.0010073	7.6e-06
0.7147	0.0009934	7.5e-06
0.8383	0.0009807	7.5e-06
0.9836	0.0009694	7.4e-06
1.1511	0.0009571	7.4e-06

System: tributylamine + 1,4-dioxane; phases: Liquid
Fixed: Temperature, K = 303.15
Fixed: Pressure, kPa = 101
Property: Viscosity, Pa*s (Liquid); method: Capillary tube (Ostwald; Ubbelohde) method
Molality, mol/kg of tributylamine	Viscosity, Pa*s	uncertainty
0.1229	0.0010621	7.8e-06
0.2173	0.00105	7.8e-06
0.3227	0.001033	7.7e-06
0.4476	0.0010233	7.7e-06
0.5768	0.0010081	7.6e-06
0.7655	0.0009912	7.5e-06
0.8789	0.0009804	7.5e-06
1.0282	0.0009659	7.4e-06
1.1794	0.0009569	7.4e-06

System: propan-1-amine + tetrahydrofuran; phases: Liquid
Fixed: Temperature, K = 303.15
Fixed: Pressure, kPa = 101
Property: Viscosity, Pa*s (Liquid); method: Capillary tube (Ostwald; Ubbelohde) method
Molality, mol/kg of propan-1-amine	Viscosity, Pa*s	uncertainty
0.1123	0.000328	4.7e-06
0.2842	0.0003315	4.7e-06
0.3986	0.0003329	4.7e-06
0.5609	0.0003353	4.7e-06
0.7487	0.0003395	4.7e-06
0.8957	0.0003412	4.8e-06
1.0016	0.0003436	4.8e-06
1.1388	0.0003453	4.8e-06
1.3767	0.0003513	4.8e-06

System: 1-butanamine + tetrahydrofuran; phases: Liquid
Fixed: Temperature, K = 303.15
Fixed: Pressure, kPa = 101
Property: Viscosity, Pa*s (Liquid); method: Capillary tube (Ostwald; Ubbelohde) method
Molality, mol/kg of 1-butanamine	Viscosity, Pa*s	uncertainty
0.1429	0.000329	4.7e-06
0.2304	0.0003312	4.7e-06
0.5054	0.000336	4.7e-06
0.588	0.0003398	4.7e-06
0.7153	0.0003442	4.8e-06
0.8391	0.0003481	4.8e-06
1.0092	0.000351	4.8e-06
1.2698	0.0003549	4.8e-06
1.4071	0.0003619	4.8e-06

System: tetrahydrofuran + dipropylamine; phases: Liquid
Fixed: Temperature, K = 303.15
Fixed: Pressure, kPa = 101
Property: Viscosity, Pa*s (Liquid); method: Capillary tube (Ostwald; Ubbelohde) method
Molality, mol/kg of dipropylamine	Viscosity, Pa*s	uncertainty
0.1794	0.000332	4.7e-06
0.285	0.000335	4.7e-06
0.4155	0.0003388	4.7e-06
0.5881	0.0003437	4.8e-06
0.7109	0.0003491	4.8e-06
0.9435	0.0003545	4.8e-06
1.0507	0.0003574	4.8e-06
1.198	0.000364	4.8e-06
1.3568	0.0003717	4.9e-06

System: tetrahydrofuran + dibutylamine; phases: Liquid
Fixed: Temperature, K = 303.15
Fixed: Pressure, kPa = 101
Property: Viscosity, Pa*s (Liquid); method: Capillary tube (Ostwald; Ubbelohde) method
Molality, mol/kg of dibutylamine	Viscosity, Pa*s	uncertainty
0.1402	0.0003333	4.7e-06
0.2993	0.0003417	4.8e-06
0.4313	0.0003498	4.8e-06
0.5953	0.0003567	4.8e-06
0.7592	0.0003648	4.8e-06
0.8997	0.0003735	4.9e-06
1.0274	0.0003806	4.9e-06
1.2011	0.0003912	4.9e-06
1.3805	0.0004015	5e-06

System: tetrahydrofuran + triethylamine; phases: Liquid
Fixed: Temperature, K = 303.15
Fixed: Pressure, kPa = 101
Property: Viscosity, Pa*s (Liquid); method: Capillary tube (Ostwald; Ubbelohde) method
Molality, mol/kg of triethylamine	Viscosity, Pa*s	uncertainty
0.1482	0.000327	4.7e-06
0.3064	0.0003293	4.7e-06
0.4546	0.0003307	4.7e-06
0.588	0.0003315	4.7e-06
0.7856	0.0003361	4.7e-06
0.8993	0.0003349	4.7e-06
1.0564	0.0003376	4.8e-06
1.2402	0.0003386	4.8e-06
1.4181	0.000341	4.8e-06

System: tripropylamine + tetrahydrofuran; phases: Liquid
Fixed: Temperature, K = 303.15
Fixed: Pressure, kPa = 101
Property: Viscosity, Pa*s (Liquid); method: Capillary tube (Ostwald; Ubbelohde) method
Molality, mol/kg of tripropylamine	Viscosity, Pa*s	uncertainty
0.1317	0.0003305	4.7e-06
0.2429	0.0003364	4.7e-06
0.3465	0.0003397	4.7e-06
0.4545	0.0003447	4.8e-06
0.5811	0.0003523	4.8e-06
0.6842	0.0003577	4.8e-06
0.8378	0.0003607	4.8e-06
0.9371	0.0003681	4.9e-06
1.1141	0.0003753	4.9e-06

System: tributylamine + tetrahydrofuran; phases: Liquid
Fixed: Temperature, K = 303.15
Fixed: Pressure, kPa = 101
Property: Viscosity, Pa*s (Liquid); method: Capillary tube (Ostwald; Ubbelohde) method
Molality, mol/kg of tributylamine	Viscosity, Pa*s	uncertainty
0.1637	0.0003385	4.7e-06
0.3071	0.0003517	4.8e-06
0.4107	0.0003637	4.8e-06
0.5836	0.0003764	4.9e-06
0.7131	0.0003894	4.9e-06
0.9025	0.0004036	5e-06
1.1253	0.0004181	5e-06
1.2042	0.0004323	5.1e-06
1.3105	0.0004444	5.1e-06
