Measured thermophysical data. Molar heat capacity of four aqueous ionic liquid mixtures
Source: Thermochim. Acta, 2011, 10.1016/j.tca.2011.02.027
Compound 1: water, H2O, InChI=1S/H2O/h1H2, purity 99.9%
Compound 2: 1-butyl-3-methylimidazolium chloride, C8H15ClN2, InChI=1S/C8H15N2.ClH/c1-3-4-5-10-7-6-9(2)8-10;/h6-8H,3-5H2,1-2H3;1H/q+1;/p-1, purity 99%
Compound 3: 1-butyl-2,3-dimethylimidazolium tetrafluoroborate, C9H17BF4N2, InChI=1S/C9H17N2.BF4/c1-4-5-6-11-8-7-10(3)9(11)2;2-1(3,4)5/h7-8H,4-6H2,1-3H3;/q+1;-1, purity 99%
Compound 4: 1-butyl-3-methylimidazolium bromide, C8H15BrN2, InChI=1S/C8H15N2.BrH/c1-3-4-5-10-7-6-9(2)8-10;/h6-8H,3-5H2,1-2H3;1H/q+1;/p-1, purity 98%
Compound 5: 1-butyl-2,3-dimethylimidazolium hexafluorophosphate, C9H17F6N2P, InChI=1S/C9H17N2.F6P/c1-4-5-6-11-8-7-10(3)9(11)2;1-7(2,3,4,5)6/h7-8H,4-6H2,1-3H3;/q+1;-1, purity 97%

System: 1-butyl-3-methylimidazolium chloride; phases: Crystal, Liquid, Air at 1 atmosphere
Property: Normal melting temperature, K (Crystal); method: DTA:corrimp
Normal melting temperature, K	uncertainty
330.15	1

System: 1-butyl-3-methylimidazolium chloride; phases: Liquid
Fixed: Pressure, kPa = 101.325
Property: Molar heat capacity at constant pressure, J/K/mol (Liquid); method: Large sample (1 g) DSC
Temperature, K	Molar heat capacity at constant pressure, J/K/mol	uncertainty
343.2	337.2	14.3
348.2	340.3	14.4
353.2	343.3	14.6
358.2	347.1	14.7
363.2	350.6	14.9
368.2	354.3	15
373.2	357.6	15.2
378.2	361	15.3
383.2	364.3	15.5
388.2	367.4	15.6
393.2	370.7	15.7
398.2	374	15.9
403.2	376.8	16

System: 1-butyl-2,3-dimethylimidazolium tetrafluoroborate; phases: Crystal, Liquid, Air at 1 atmosphere
Property: Normal melting temperature, K (Crystal); method: DTA:corrimp
Normal melting temperature, K	uncertainty
305.15	1

System: 1-butyl-2,3-dimethylimidazolium tetrafluoroborate; phases: Liquid
Fixed: Pressure, kPa = 101.325
Property: Molar heat capacity at constant pressure, J/K/mol (Liquid); method: Large sample (1 g) DSC
Temperature, K	Molar heat capacity at constant pressure, J/K/mol	uncertainty
313.2	397.3	16.9
318.2	398.8	16.9
323.2	400.6	17
328.2	403.3	17.1
333.2	405.4	17.2
338.2	407.8	17.3
343.2	410.6	17.4
348.2	413.5	17.5
353.2	416.5	17.7
358.2	420.2	17.8
363.2	423.6	18
368.2	427.3	18.1
373.2	430.6	18.3
378.2	434.4	18.4
383.2	436.3	18.5

System: 1-butyl-3-methylimidazolium bromide; phases: Crystal, Liquid, Air at 1 atmosphere
Property: Normal melting temperature, K (Crystal); method: DTA:corrimp
Normal melting temperature, K	uncertainty
346.15	2

System: 1-butyl-3-methylimidazolium bromide; phases: Liquid
Fixed: Pressure, kPa = 101.325
Property: Molar heat capacity at constant pressure, J/K/mol (Liquid); method: Large sample (1 g) DSC
Temperature, K	Molar heat capacity at constant pressure, J/K/mol	uncertainty
353.2	334.8	14.2
358.2	338.1	14.3
363.2	341.1	14.5
368.2	344.6	14.6
373.2	347.5	14.7
378.2	350.6	14.9
383.2	354.1	15
388.2	356.7	15.1
393.2	359.9	15.3
398.2	363.4	15.4
403.2	366.4	15.5

System: 1-butyl-2,3-dimethylimidazolium hexafluorophosphate; phases: Crystal, Liquid, Air at 1 atmosphere
Property: Normal melting temperature, K (Crystal); method: DTA:corrimp
Normal melting temperature, K	uncertainty
311.15	3

System: 1-butyl-2,3-dimethylimidazolium hexafluorophosphate; phases: Liquid
Fixed: Pressure, kPa = 101.325
Property: Molar heat capacity at constant pressure, J/K/mol (Liquid); method: Large sample (1 g) DSC
Temperature, K	Molar heat capacity at constant pressure, J/K/mol	uncertainty
323.2	439.3	18.6
328.2	442.9	18.8
333.2	446.2	18.9
338.2	449.4	19.1
343.2	452.7	19.2
348.2	457	19.4
353.2	460.1	19.5
358.2	464.4	19.7
363.2	468	19.9
368.2	471.6	20
373.2	475.1	20.2
378.2	478.9	20.3
383.2	482.6	20.5

System: water + 1-butyl-3-methylimidazolium chloride; phases: Liquid
Fixed: Pressure, kPa = 101.3
Property: Molar heat capacity at constant pressure, J/K/mol (Liquid); method: Large sample (1 g) DSC
Temperature, K	Mole fraction of 1-butyl-3-methylimidazolium chloride	Molar heat capacity at constant pressure, J/K/mol	uncertainty
303.2	0.2	125.6	5.3
308.2	0.2	126.7	5.4
313.2	0.2	127.7	5.4
318.2	0.2	128.6	5.5
323.2	0.2	129.9	5.5
328.2	0.2	130.9	5.6
333.2	0.2	131.8	5.6
338.2	0.2	133.1	5.6
343.2	0.2	133.8	5.7
348.2	0.2	135.2	5.7
353.2	0.2	136	5.8
303.2	0.4	170.2	7.2
308.2	0.4	171.6	7.3
313.2	0.4	173	7.3
318.2	0.4	174.5	7.4
323.2	0.4	176.2	7.5
328.2	0.4	177.6	7.5
333.2	0.4	179	7.6
338.2	0.4	180.5	7.7
343.2	0.4	182.2	7.7
348.2	0.4	183.6	7.8
353.2	0.4	185.9	7.9
303.2	0.6	218.6	9.3
308.2	0.6	220	9.3
313.2	0.6	221.8	9.4
318.2	0.6	223.9	9.5
323.2	0.6	225.9	9.6
328.2	0.6	228	9.7
333.2	0.6	230	9.8
338.2	0.6	232	9.8
343.2	0.6	234.1	9.9
348.2	0.6	236.4	10
353.2	0.6	238.6	10.1
303.2	0.8	272.6	11.6
308.2	0.8	274.4	11.6
313.2	0.8	276.3	11.7
318.2	0.8	279.3	11.8
323.2	0.8	280.9	11.9
328.2	0.8	282.9	12
333.2	0.8	285.5	12.1
338.2	0.8	288.2	12.2
343.2	0.8	290.5	12.3
348.2	0.8	293.1	12.4
353.2	0.8	296.3	12.6
343.2	1	337.2	14.3
348.2	1	340.3	14.4
353.2	1	343.3	14.6
358.2	1	347.1	14.7
363.2	1	350.6	14.9
368.2	1	354.3	15
373.2	1	357.6	15.2
378.2	1	361	15.3
383.2	1	364.3	15.5
388.2	1	367.4	15.6
393.2	1	370.7	15.7
398.2	1	374	15.9
403.2	1	376.8	16

System: water + 1-butyl-3-methylimidazolium bromide; phases: Liquid
Fixed: Pressure, kPa = 101.3
Property: Molar heat capacity at constant pressure, J/K/mol (Liquid); method: Large sample (1 g) DSC
Temperature, K	Mole fraction of 1-butyl-3-methylimidazolium bromide	Molar heat capacity at constant pressure, J/K/mol	uncertainty
303.2	0.1	102.2	4.3
308.2	0.1	102.5	4.3
313.2	0.1	103	4.4
318.2	0.1	103.5	4.4
323.2	0.1	104	4.4
328.2	0.1	104.5	4.4
333.2	0.1	104.8	4.4
338.2	0.1	105.4	4.5
343.2	0.1	105.8	4.5
348.2	0.1	106.3	4.5
353.2	0.1	106.8	4.5
303.2	0.2	123.4	5.2
308.2	0.2	124.1	5.3
313.2	0.2	124.9	5.3
318.2	0.2	125.8	5.3
323.2	0.2	126.6	5.4
328.2	0.2	127.5	5.4
333.2	0.2	128.3	5.4
338.2	0.2	129.2	5.5
343.2	0.2	130	5.5
348.2	0.2	131.1	5.6
353.2	0.2	131.9	5.6
303.2	0.3	144.5	6.1
308.2	0.3	145.4	6.2
313.2	0.3	146.3	6.2
318.2	0.3	147.2	6.2
323.2	0.3	148.2	6.3
328.2	0.3	149.2	6.3
333.2	0.3	150.1	6.4
338.2	0.3	151.1	6.4
343.2	0.3	152.1	6.5
348.2	0.3	153.1	6.5
353.2	0.3	154.1	6.5
303.2	0.4	165	7
308.2	0.4	166.1	7
313.2	0.4	167.1	7.1
318.2	0.4	168.1	7.1
323.2	0.4	169.2	7.2
328.2	0.4	170.4	7.2
333.2	0.4	171.6	7.3
338.2	0.4	172.9	7.3
343.2	0.4	173.9	7.4
348.2	0.4	175.2	7.4
353.2	0.4	176.2	7.5
303.2	0.5	186.7	7.9
308.2	0.5	188	8
313.2	0.5	189.2	8
318.2	0.5	190.7	8.1
323.2	0.5	191.8	8.1
328.2	0.5	193.3	8.2
333.2	0.5	194.6	8.3
338.2	0.5	196.1	8.3
343.2	0.5	197.3	8.4
348.2	0.5	198.6	8.4
353.2	0.5	200	8.5
303.2	0.6	209.6	8.9
308.2	0.6	211.2	9
313.2	0.6	212.9	9
318.2	0.6	214.5	9.1
323.2	0.6	216.2	9.2
328.2	0.6	217.9	9.2
333.2	0.6	219.5	9.3
338.2	0.6	221.3	9.4
343.2	0.6	223.1	9.5
348.2	0.6	224.9	9.5
353.2	0.6	226.5	9.6
353.2	1	334.8	14.2
358.2	1	338.1	14.3
363.2	1	341.1	14.5
368.2	1	344.6	14.6
373.2	1	347.5	14.7
378.2	1	350.6	14.9
383.2	1	354.1	15
388.2	1	356.7	15.1
393.2	1	359.9	15.3
398.2	1	363.4	15.4
403.2	1	366.4	15.5

System: water + 1-butyl-2,3-dimethylimidazolium tetrafluoroborate; phases: Liquid
Fixed: Pressure, kPa = 101.3
Property: Molar heat capacity at constant pressure, J/K/mol (Liquid); method: Large sample (1 g) DSC
Temperature, K	Mole fraction of 1-butyl-2,3-dimethylimidazolium tetrafluoroborate	Molar heat capacity at constant pressure, J/K/mol	uncertainty
303.2	0.2	146.9	6.2
308.2	0.2	147.2	6.2
313.2	0.2	147.8	6.3
318.2	0.2	148.4	6.3
323.2	0.2	149.1	6.3
328.2	0.2	149.8	6.4
333.2	0.2	150.4	6.4
338.2	0.2	151.1	6.4
343.2	0.2	151.7	6.4
348.2	0.2	152.4	6.5
353.2	0.2	153.1	6.5
303.2	0.4	217.5	9.2
308.2	0.4	218.2	9.3
313.2	0.4	219.3	9.3
318.2	0.4	220.4	9.4
323.2	0.4	221.7	9.4
328.2	0.4	223.2	9.5
333.2	0.4	224.1	9.5
338.2	0.4	225.2	9.6
343.2	0.4	226.4	9.6
348.2	0.4	227.7	9.7
353.2	0.4	229.2	9.7
303.2	0.6	284.4	12.1
308.2	0.6	285.6	12.1
313.2	0.6	287	12.2
318.2	0.6	288.6	12.2
323.2	0.6	290.3	12.3
328.2	0.6	292.1	12.4
333.2	0.6	293.5	12.5
338.2	0.6	295.7	12.5
343.2	0.6	297.6	12.6
348.2	0.6	299.5	12.7
353.2	0.6	301.7	12.8
303.2	0.8	343	14.6
308.2	0.8	344.2	14.6
313.2	0.8	346.3	14.7
318.2	0.8	348.5	14.8
323.2	0.8	351	14.9
328.2	0.8	353.2	15
333.2	0.8	355.6	15.1
338.2	0.8	358.1	15.2
343.2	0.8	360.8	15.3
348.2	0.8	363.5	15.4
353.2	0.8	366.3	15.5
313.2	1	397.3	16.9
318.2	1	398.8	16.9
323.2	1	400.6	17
328.2	1	403.3	17.1
333.2	1	405.4	17.2
338.2	1	407.8	17.3
343.2	1	410.6	17.4
348.2	1	413.5	17.5
353.2	1	416.5	17.7
358.2	1	420.2	17.8
363.2	1	423.6	18
368.2	1	427.3	18.1
373.2	1	430.6	18.3
378.2	1	434.4	18.4
383.2	1	436.3	18.5

System: water + 1-butyl-2,3-dimethylimidazolium hexafluorophosphate; phases: Liquid
Fixed: Pressure, kPa = 101.3
Property: Molar heat capacity at constant pressure, J/K/mol (Liquid); method: Large sample (1 g) DSC
Temperature, K	Mole fraction of 1-butyl-2,3-dimethylimidazolium hexafluorophosphate	Molar heat capacity at constant pressure, J/K/mol	uncertainty
303.2	0.8	387	16.4
308.2	0.8	389.2	16.5
313.2	0.8	391.2	16.6
318.2	0.8	393.4	16.7
323.2	0.8	395.9	16.8
328.2	0.8	398.9	16.9
333.2	0.8	401.8	17
338.2	0.8	404.5	17.2
343.2	0.8	407.5	17.3
348.2	0.8	411.1	17.4
353.2	0.8	414.1	17.6
303.2	0.85	396.4	16.8
308.2	0.85	398.4	16.9
313.2	0.85	400.5	17
318.2	0.85	402.7	17.1
323.2	0.85	405.5	17.2
328.2	0.85	408.8	17.3
333.2	0.85	411.9	17.5
338.2	0.85	414.9	17.6
343.2	0.85	417.9	17.7
348.2	0.85	421.7	17.9
353.2	0.85	424.8	18
303.2	0.9	407.2	17.3
308.2	0.9	409.4	17.4
313.2	0.9	411.9	17.5
318.2	0.9	414.5	17.6
323.2	0.9	417.7	17.7
328.2	0.9	421.3	17.9
333.2	0.9	424.7	18
338.2	0.9	428	18.2
343.2	0.9	431.2	18.3
348.2	0.9	435.2	18.5
353.2	0.9	438.3	18.6
303.2	0.95	418.3	17.7
308.2	0.95	420.5	17.8
313.2	0.95	423.3	18
318.2	0.95	426	18.1
323.2	0.95	429.4	18.2
328.2	0.95	433.2	18.4
333.2	0.95	436.7	18.5
338.2	0.95	440.1	18.7
343.2	0.95	443.5	18.8
348.2	0.95	447.6	19
353.2	0.95	450.9	19.1
323.2	1	439.3	18.6
328.2	1	442.9	18.8
333.2	1	446.2	18.9
338.2	1	449.4	19.1
343.2	1	452.7	19.2
348.2	1	457	19.4
353.2	1	460.1	19.5
358.2	1	464.4	19.7
363.2	1	468	19.9
368.2	1	471.6	20
373.2	1	475.1	20.2
378.2	1	478.9	20.3
383.2	1	482.6	20.5
