Measured thermophysical data. Low-temperature Heat Capacity and the Standard Molar Enthalpy of Formation of Compound  Chromium(III) Tri(2-Pyrazinecarboxylate)
Source: Thermochim. Acta, 2012, 10.1016/j.tca.2012.05.023
Compound 1: chromium, Cr, InChI=1S/Cr
Compound 2: hydrogen, H2, InChI=1S/H2/h1H
Compound 3: nitrogen, N2, InChI=1S/N2/c1-2
Compound 4: graphite, C
Compound 5: oxygen, O2, InChI=1S/O2/c1-2
Compound 6: chromium (III) hydroxide trihydrate, CrH9O6, InChI=1S/Cr.6H2O/h;6*1H2/q+3;;;;;;/p-3
Compound 7: 2-pyrazinecarboxylic acid, C5H4N2O2, InChI=1S/C5H4N2O2/c8-5(9)4-3-6-1-2-7-4/h1-3H,(H,8,9)
Compound 8: water, H2O, InChI=1S/H2O/h1H2
Compound 9: chromium(III) pyrazine-2-carboxylate, C15H9CrN6O6, InChI=1S/3C5H4N2O2.Cr/c3*8-5(9)4-3-6-1-2-7-4;/h3*1-3H,(H,8,9);/q;;;+3/p-3, purity 98%

System: chromium(III) pyrazine-2-carboxylate; phases: Crystal
Fixed: Pressure, kPa = 101.325
Property: Molar heat capacity at constant pressure, J/K/mol (Crystal); method: Vacuum adiabatic calorimetry
Temperature, K	Molar heat capacity at constant pressure, J/K/mol	uncertainty
78.865	155.98	0.97
80.639	158.92	0.99
83.299	162.11	1.01
85.879	166.03	1.03
88.379	169.59	1.05
90.798	172.28	1.07
93.136	175.35	1.09
95.474	178.53	1.1
97.732	181.47	1.12
99.909	184.54	1.14
102.06	187.64	1.16
104.19	189.79	1.17
106.26	192.72	1.19
108.39	195.56	1.21
110.39	198.32	1.22
112.38	200.9	1.24
114.31	203.62	1.25
116.37	206.2	1.27
118.23	208.83	1.29
120.16	211.45	1.3
122.08	214.08	1.32
125.04	217.8	1.34
128.55	221.83	1.36
131.51	226.29	1.39
134.47	230.41	1.42
137.5	234.21	1.44
140.45	237.72	1.46
143.48	241.61	1.48
146.44	245.42	1.51
149.4	249.27	1.53
152.43	252.82	1.55
155.38	257.11	1.58
158.34	260.91	1.6
161.37	264.59	1.62
164.4	269.32	1.65
167.42	273.11	1.67
170.38	276.93	1.7
173.34	280.52	1.72
176.44	284.26	1.74
179.4	287.73	1.76
182.42	292.31	1.79
186.48	297.74	1.82
190.68	302.64	1.85
193.71	306.32	1.87
196.73	310.4	1.9
199.76	313.83	1.92
202.79	317.64	1.94
205.75	321.74	1.97
208.71	325.63	1.99
211.73	329.9	2.01
214.76	333.75	2.04
217.79	337.53	2.06
220.81	341.42	2.08
223.77	344.95	2.11
226.8	348.56	2.13
229.76	352.76	2.15
232.79	356.86	2.18
235.75	360.47	2.2
238.84	363.97	2.22
242.01	368.73	2.25
245.86	373.07	2.27
249.57	377.69	2.3
252.6	381.55	2.33
255.7	385.19	2.35
258.73	388.65	2.37
261.82	392.4	2.39
264.85	396.6	2.42
267.86	400.48	2.44
270.92	403.75	2.46
273.93	407.18	2.48
276.89	410.85	2.5
279.85	414.48	2.52
282.87	418.25	2.55
285.83	421.97	2.57
288.79	425.74	2.59
291.89	428.76	2.61
294.92	432.73	2.63
297.94	436.5	2.66
300.28	439.48	2.68
302.83	442.7	2.69
305.99	446.12	2.72
309.09	450.09	2.74
312.18	454.16	2.76
315.35	457.58	2.78
318.38	461.21	2.81
321.54	464.38	2.83
324.64	468.15	2.85
327.67	471.32	2.87
330.76	475.09	2.89
333.79	478.57	2.91
336.88	481.84	2.93
339.91	485.31	2.95
343.01	488.64	2.97
345.97	491.76	2.99
349.05	495.84	3.02
352.03	499.11	3.04
355.1	502.61	3.06
358.14	506.45	3.08
361.31	510.02	3.1
364.47	513.54	3.12
367.57	517.31	3.15
370.74	520.43	3.16
373.88	524.09	3.19
377.03	527.59	3.21
380.17	530.85	3.23
383.23	534.71	3.25
386.16	537.95	3.27
389.19	541.27	3.29
392.45	544.56	3.31
395.47	547.81	3.33

System: chromium(III) pyrazine-2-carboxylate; phases: Crystal
Fixed: Pressure, kPa = 101.325
Property: Molar heat capacity at constant pressure, J/K/mol (Crystal); method: Vacuum adiabatic calorimetry
Temperature, K	Molar heat capacity at constant pressure, J/K/mol	uncertainty
80	158.16	0.98
85	164.76	1.02
90	171.35	1.06
95	177.94	1.1
100	184.53	1.14
105	191.12	1.18
110	197.7	1.22
115	204.28	1.26
120	210.86	1.3
125	217.43	1.34
130	223.99	1.38
135	230.55	1.42
140	237.1	1.46
145	243.64	1.5
150	250.18	1.53
155	256.7	1.57
160	263.21	1.61
165	269.71	1.65
170	276.2	1.69
175	282.68	1.73
180	289.15	1.77
185	295.6	1.81
190	302.03	1.85
195	308.46	1.89
200	314.86	1.92
205	321.25	1.96
210	327.63	2
215	333.98	2.04
220	340.32	2.08
225	346.64	2.12
230	352.95	2.15
235	359.23	2.19
240	365.49	2.23
245	371.73	2.27
250	377.95	2.3
255	384.15	2.34
260	390.33	2.38
265	396.49	2.42
270	402.62	2.45
275	408.73	2.49
280	414.81	2.53
285	420.87	2.56
290	426.91	2.6
295	432.92	2.64
298.15	436.69	2.66
300	438.9	2.67
305	444.86	2.71
310	450.79	2.74
315	456.7	2.78
320	462.57	2.81
325	468.42	2.85
330	474.25	2.89
335	480.04	2.92
340	485.8	2.95
345	491.54	2.99
350	497.25	3.02
355	502.92	3.06
360	508.57	3.09
365	514.18	3.13
370	519.77	3.16
375	525.32	3.19
380	530.85	3.23
385	536.34	3.26
390	541.8	3.29
395	547.22	3.33
400	552.62	3.36

System: chromium(III) pyrazine-2-carboxylate; phases: Crystal
Fixed: Pressure, kPa = 101.325
Property: Molar enthalpy, kJ/mol (Crystal); method: Calculated
Temperature, K	Molar enthalpy, kJ/mol	uncertainty
80	-65.379	0.003
85	-64.571	0.003
90	-63.731	0.003
95	-62.858	0.004
100	-61.952	0.004
105	-61.013	0.004
110	-60.04	0.004
115	-59.035	0.004
120	-57.998	0.004
125	-56.927	0.004
130	-55.823	0.005
135	-54.687	0.005
140	-53.518	0.005
145	-52.316	0.005
150	-51.081	0.005
155	-49.814	0.005
160	-48.514	0.005
165	-47.182	0.005
170	-45.817	0.006
175	-44.42	0.006
180	-42.99	0.006
185	-41.528	0.006
190	-40.034	0.006
195	-38.508	0.006
200	-36.95	0.006
205	-35.359	0.006
210	-33.737	0.007
215	-32.083	0.007
220	-30.397	0.007
225	-28.68	0.007
230	-26.931	0.007
235	-25.151	0.007
240	-23.339	0.007
245	-21.496	0.007
250	-19.621	0.008
255	-17.716	0.008
260	-15.78	0.008
265	-13.813	0.008
270	-11.815	0.008
275	-9.7868	0.0082
280	-7.7279	0.0083
285	-5.6387	0.0084
290	-3.5192	0.0085
295	-1.3696	0.0086
298.15	0	1
300	0.80993	0.00882
305	3.0193	0.0089
310	5.2585	0.009
315	7.5272	0.0091
320	9.8254	0.0093
325	12.153	0.009
330	14.51	0.009
335	16.895	0.01
340	19.31	0.01
345	21.753	0.01
350	24.225	0.01
355	26.726	0.01
360	29.255	0.01
365	31.812	0.01
370	34.397	0.01
375	37.009	0.011
380	39.65	0.011
385	42.318	0.011
390	45.013	0.011
395	47.736	0.011
400	50.486	0.011

System: chromium(III) pyrazine-2-carboxylate; phases: Crystal
Fixed: Pressure, kPa = 101.325
Property: Molar entropy, J/K/mol (Crystal); method: Calculated
Temperature, K	Molar entropy, J/K/mol	uncertainty
80	-355.02	0.04
85	-345.28	0.04
90	-335.69	0.04
95	-326.24	0.04
100	-316.92	0.04
105	-307.73	0.04
110	-298.66	0.04
115	-289.7	0.04
120	-280.84	0.04
125	-272.07	0.04
130	-263.4	0.03
135	-254.81	0.03
140	-246.3	0.03
145	-237.87	0.03
150	-229.5	0.03
155	-221.2	0.03
160	-212.96	0.03
165	-204.78	0.03
170	-196.64	0.03
175	-188.56	0.03
180	-180.53	0.03
185	-172.54	0.03
190	-164.58	0.03
195	-156.67	0.03
200	-148.8	0.03
205	-140.96	0.03
210	-133.15	0.03
215	-125.38	0.03
220	-117.63	0.03
225	-109.92	0.03
230	-102.23	0.03
235	-94.572	0.031
240	-86.939	0.03
245	-79.332	0.03
250	-71.75	0.03
255	-64.194	0.03
260	-56.662	0.03
265	-49.155	0.03
270	-41.673	0.03
275	-34.215	0.03
280	-26.781	0.03
285	-19.371	0.03
290	-11.986	0.029
295	-4.6249	0.0294
298.15	0	1
300	2.7117	0.0293
305	10.024	0.029
310	17.312	0.029
315	24.576	0.029
320	31.815	0.029
325	39.031	0.029
330	46.222	0.029
335	53.39	0.029
340	60.535	0.029
345	67.657	0.028
350	74.756	0.028
355	81.835	0.028
360	88.892	0.028
365	95.929	0.028
370	102.95	0.03
375	109.95	0.03
380	116.94	0.03
385	123.91	0.03
390	130.86	0.03
395	137.81	0.03
400	144.75	0.03

Reaction: 1 chromium(III) pyrazine-2-carboxylate + -1 chromium + -4.5 hydrogen + -3 nitrogen + -15 graphite + -3 oxygen
Property: Molar enthalpy of reaction, kJ/mol
-1207.86

Reaction: 1 chromium(III) pyrazine-2-carboxylate + -1 chromium (III) hydroxide trihydrate + -3 2-pyrazinecarboxylic acid + 6 water
Property: Molar enthalpy of reaction, kJ/mol
-17.19
