Measured thermophysical data. Effect of temperature on the process of preferential solvation of 1,4-dioxane and 12-crown-4  ethers in the mixture of water with formamide
Source: Thermochim. Acta, 2012, 10.1016/j.tca.2012.04.004
Compound 1: 1,4-dioxane, C4H8O2, InChI=1S/C4H8O2/c1-2-6-4-3-5-1/h1-4H2, purity 99%
Compound 2: 1,4,7,10-tetraoxacyclododecane, C8H16O4, InChI=1S/C8H16O4/c1-2-10-5-6-12-8-7-11-4-3-9-1/h1-8H2, purity 98%
Compound 3: formamide, CH3NO, InChI=1S/CH3NO/c2-1-3/h1H,(H2,2,3), purity 98%
Compound 4: water, H2O, InChI=1S/H2O/h1H2, purity 99.8%

System: formamide + 1,4-dioxane + water; phases: Liquid, Crystal
Fixed: Pressure, kPa = 101
Property: Molar enthalpy of solution, kJ/mol (Liquid); method: ISOPERIBOL
Temperature, K	Solvent: Mole fraction of water	Molar enthalpy of solution, kJ/mol	uncertainty
293.15	0	-2.02	0.03
293.15	0.1	-2.25	0.03
293.15	0.2	-2.46	0.03
293.15	0.3	-2.86	0.03
293.15	0.4	-3.37	0.04
293.15	0.5	-3.92	0.04
293.15	0.6	-4.63	0.05
293.15	0.7	-5.48	0.06
293.15	0.8	-6.48	0.07
293.15	0.9	-7.74	0.08
293.15	0.92	-8.21	0.09
293.15	0.94	-8.55	0.09
293.15	0.96	-8.93	0.09
293.15	0.98	-9.43	0.1
293.15	1	-10.01	0.1
298.15	0	-2.01	0.03
298.15	0.1	-2.24	0.03
298.15	0.2	-2.44	0.03
298.15	0.3	-2.82	0.03
298.15	0.4	-3.32	0.04
298.15	0.5	-3.86	0.04
298.15	0.6	-4.55	0.05
298.15	0.7	-5.39	0.06
298.15	0.8	-6.33	0.07
298.15	0.9	-7.56	0.08
298.15	0.92	-7.98	0.08
298.15	0.94	-8.33	0.09
298.15	0.96	-8.71	0.09
298.15	0.98	-9.15	0.1
298.15	1	-9.64	0.1
303.15	0	-2	0.03
303.15	0.1	-2.22	0.03
303.15	0.2	-2.42	0.03
303.15	0.3	-2.79	0.03
303.15	0.4	-3.28	0.04
303.15	0.5	-3.78	0.04
303.15	0.6	-4.45	0.05
303.15	0.7	-5.26	0.06
303.15	0.8	-6.18	0.07
303.15	0.9	-7.35	0.08
303.15	0.92	-7.78	0.08
303.15	0.94	-8.12	0.09
303.15	0.96	-8.45	0.09
303.15	0.98	-8.84	0.09
303.15	1	-9.26	0.1
308.15	0	-1.99	0.03
308.15	0.1	-2.21	0.03
308.15	0.2	-2.4	0.03
308.15	0.3	-2.75	0.03
308.15	0.4	-3.23	0.04
308.15	0.5	-3.71	0.04
308.15	0.6	-4.36	0.05
308.15	0.7	-5.16	0.06
308.15	0.8	-6.05	0.06
308.15	0.9	-7.16	0.08
308.15	0.92	-7.57	0.08
308.15	0.94	-7.86	0.08
308.15	0.96	-8.19	0.09
308.15	0.98	-8.54	0.09
308.15	1	-8.89	0.09

System: formamide + 1,4,7,10-tetraoxacyclododecane + water; phases: Liquid, Crystal
Fixed: Pressure, kPa = 101
Property: Molar enthalpy of solution, kJ/mol (Liquid); method: ISOPERIBOL
Temperature, K	Solvent: Mole fraction of water	Molar enthalpy of solution, kJ/mol	uncertainty
293.15	0	-15.88	0.16
293.15	0.1	-16.34	0.17
293.15	0.2	-16.72	0.17
293.15	0.3	-17.34	0.18
293.15	0.4	-18.15	0.19
293.15	0.5	-19.05	0.19
293.15	0.6	-20.5	0.21
293.15	0.7	-22.05	0.23
293.15	0.8	-24.1	0.25
293.15	0.9	-26.3	0.27
293.15	0.92	-26.92	0.27
293.15	0.94	-27.48	0.28
293.15	0.96	-28.17	0.29
293.15	0.98	-29	0.3
293.15	1	-29.75	0.3
298.15	0	-15.55	0.16
298.15	0.1	-15.99	0.16
298.15	0.2	-16.35	0.17
298.15	0.3	-16.92	0.17
298.15	0.4	-17.69	0.18
298.15	0.5	-18.62	0.19
298.15	0.6	-20.08	0.21
298.15	0.7	-21.7	0.22
298.15	0.8	-23.66	0.24
298.15	0.9	-25.85	0.26
298.15	0.92	-26.4	0.27
298.15	0.94	-26.94	0.27
298.15	0.96	-27.63	0.28
298.15	0.98	-28.34	0.29
298.15	1	-28.98	0.3
303.15	0	-15.2	0.16
303.15	0.1	-15.6	0.16
303.15	0.2	-15.92	0.16
303.15	0.3	-16.5	0.17
303.15	0.4	-17.24	0.18
303.15	0.5	-18.15	0.19
303.15	0.6	-19.55	0.2
303.15	0.7	-21.16	0.22
303.15	0.8	-23.2	0.24
303.15	0.9	-25.32	0.26
303.15	0.92	-25.9	0.26
303.15	0.94	-26.4	0.27
303.15	0.96	-27	0.28
303.15	0.98	-27.75	0.28
303.15	1	-28.23	0.29
308.15	0	-14.9	0.15
308.15	0.1	-15.23	0.16
308.15	0.2	-15.52	0.16
308.15	0.3	-16.05	0.16
308.15	0.4	-16.79	0.17
308.15	0.5	-17.68	0.18
308.15	0.6	-19.13	0.2
308.15	0.7	-20.68	0.21
308.15	0.8	-22.69	0.23
308.15	0.9	-24.83	0.25
308.15	0.92	-25.35	0.26
308.15	0.94	-25.82	0.26
308.15	0.96	-26.3	0.27
308.15	0.98	-26.94	0.27
308.15	1	-27.45	0.28
