Measured thermophysical data. Conductivity, Density and Adiabatic Compressibility of 1-Butyl-2,3-dimethylimidazolium chloride  in Aqueous Solutions
Source: Thermochim. Acta, 2013, 10.1016/j.tca.2013.09.034
Compound 1: 1-butyl-2,3-dimethylimidazolium chloride, C9H17ClN2, InChI=1S/C9H17N2.ClH/c1-4-5-6-11-8-7-10(3)9(11)2;/h7-8H,4-6H2,1-3H3;1H/q+1;/p-1, purity 99%
Compound 2: water, H2O, InChI=1S/H2O/h1H2

System: water + 1-butyl-2,3-dimethylimidazolium chloride; phases: Liquid
Fixed: Pressure, kPa = 101
Property: Mass density, kg/m3 (Liquid); method: Vibrating tube method
Temperature, K	Molality, mol/kg of 1-butyl-2,3-dimethylimidazolium chloride	Mass density, kg/m3	uncertainty
288.15	0.0354	999.41	0.295
288.15	0.0466	999.559	0.295
288.15	0.0575	999.712	0.296
288.15	0.0702	999.936	0.296
288.15	0.0932	1000.306	0.296
288.15	0.1164	1000.685	0.296
288.15	0.1401	1000.987	0.296
288.15	0.1635	1001.102	0.296
288.15	0.1862	1001.014	0.296
288.15	0.2082	1000.776	0.296
288.15	0.2329	1000.245	0.296
298.15	0.0354	997.296	0.298
298.15	0.0466	997.434	0.295
298.15	0.0575	997.614	0.296
298.15	0.0702	997.784	0.296
298.15	0.0932	998.103	0.295
298.15	0.1164	998.419	0.295
298.15	0.1401	998.698	0.295
298.15	0.1635	998.836	0.295
298.15	0.1862	998.743	0.295
298.15	0.2082	998.556	0.295
298.15	0.2329	998.134	0.298
308.15	0.0354	994.233	0.295
308.15	0.0466	994.36	0.295
308.15	0.0575	994.516	0.295
308.15	0.0702	994.679	0.295
308.15	0.0932	994.956	0.295
308.15	0.1164	995.243	0.295
308.15	0.1401	995.547	0.295
308.15	0.1635	995.675	0.295
308.15	0.1862	995.587	0.295
308.15	0.2082	995.17	0.296
308.15	0.2329	994.487	0.296

System: water + 1-butyl-2,3-dimethylimidazolium chloride; phases: Liquid
Fixed: Pressure, kPa = 101
Property: Speed of sound, m/s (Liquid); method: Sing-around technique in a fixed-path interferometer
Temperature, K	Molality, mol/kg of 1-butyl-2,3-dimethylimidazolium chloride	Speed of sound, m/s	uncertainty
288.15	0.0354	1471.72	1.37
288.15	0.0466	1480.11	1.37
288.15	0.0575	1484.9	1.38
288.15	0.0702	1489.85	1.38
288.15	0.0932	1497.96	1.38
288.15	0.1164	1502.87	1.38
288.15	0.1401	1505.34	1.38
288.15	0.1635	1506.37	1.38
288.15	0.1862	1507.51	1.38
288.15	0.2082	1508.18	1.38
288.15	0.2329	1509.14	1.38
298.15	0.0354	1502.36	1.38
298.15	0.0466	1508.21	1.38
298.15	0.0575	1512.08	1.38
298.15	0.0702	1515.46	1.39
298.15	0.0932	1520.7	1.39
298.15	0.1164	1525.73	1.39
298.15	0.1401	1527.92	1.39
298.15	0.1635	1529.27	1.39
298.15	0.1862	1530.48	1.39
298.15	0.2082	1531.53	1.39
298.15	0.2329	1532.14	1.39
308.15	0.0354	1525.16	1.39
308.15	0.0466	1530.43	1.39
308.15	0.0575	1533.03	1.39
308.15	0.0702	1535.55	1.39
308.15	0.0932	1539.25	1.39
308.15	0.1164	1543.51	1.39
308.15	0.1401	1546.39	1.4
308.15	0.1635	1547.39	1.4
308.15	0.1862	1549.08	1.4
308.15	0.2082	1550.01	1.4
308.15	0.2329	1550.58	1.4

System: water + 1-butyl-2,3-dimethylimidazolium chloride; phases: Liquid
Fixed: Pressure, kPa = 101
Property: Electrical conductivity, S/m (Liquid); method: Alternating current cell with electrodes
Temperature, K	Molality, mol/kg of 1-butyl-2,3-dimethylimidazolium chloride	Electrical conductivity, S/m	uncertainty
288.15	9.67	0.0478	0.0004
288.15	16.38	0.1116	0.0008
288.15	20.69	0.1458	0.0009
288.15	26.35	0.1971	0.0012
288.15	33.06	0.2541	0.0016
288.15	39.99	0.3179	0.002
288.15	45.87	0.3792	0.0023
288.15	51.55	0.4258	0.0026
288.15	57.47	0.474	0.0029
288.15	63.15	0.5244	0.0032
288.15	68.71	0.5676	0.0034
288.15	74.3	0.6077	0.0037
288.15	79.8	0.6479	0.0039
288.15	86.33	0.6986	0.0042
288.15	93.41	0.7444	0.0045
288.15	98.37	0.7816	0.0047
288.15	103.34	0.8096	0.0049
288.15	107.49	0.8365	0.0051
288.15	111.38	0.8644	0.0052
288.15	115.07	0.8888	0.0054
288.15	118.54	0.9118	0.0055
288.15	123.65	0.9459	0.0057
288.15	127.35	0.9643	0.0058
288.15	132.31	1.002	0.006
288.15	137.7	1.031	0.006
288.15	143.09	1.064	0.006
288.15	146.92	1.093	0.007
288.15	150.34	1.113	0.007
288.15	154.5	1.136	0.007
288.15	157.29	1.154	0.007
288.15	159.67	1.167	0.007
288.15	161.95	1.182	0.007
288.15	163.96	1.196	0.007
288.15	166.17	1.206	0.007
288.15	168.29	1.217	0.007
288.15	170.33	1.231	0.007
288.15	172.33	1.245	0.008
288.15	174.3	1.253	0.008
288.15	176.16	1.263	0.008
298.15	9.22	0.0715	0.0005
298.15	17.47	0.1556	0.001
298.15	21.73	0.1855	0.0012
298.15	25.39	0.2275	0.0014
298.15	31.92	0.2929	0.0018
298.15	37.9	0.3498	0.0021
298.15	46.62	0.4285	0.0026
298.15	53.58	0.4976	0.003
298.15	57.24	0.5232	0.0032
298.15	60.67	0.5575	0.0034
298.15	68.36	0.6145	0.0037
298.15	75.98	0.6778	0.0041
298.15	85.16	0.7493	0.0045
298.15	92.95	0.799	0.0048
298.15	96.56	0.8246	0.005
298.15	104.41	0.8797	0.0053
298.15	107.51	0.9003	0.0054
298.15	113.92	0.9444	0.0057
298.15	117.77	0.9751	0.0059
298.15	120.52	0.9971	0.006
298.15	123.16	1.014	0.006
298.15	126.48	1.04	0.006
298.15	127.4	1.045	0.006
298.15	132.96	1.085	0.007
298.15	137.37	1.113	0.007
298.15	143.6	1.153	0.007
298.15	146.93	1.179	0.007
298.15	150.66	1.202	0.007
298.15	154.8	1.23	0.007
298.15	156.62	1.241	0.008
298.15	158.93	1.256	0.008
298.15	162.07	1.275	0.008
298.15	164.32	1.287	0.008
298.15	166.6	1.301	0.008
298.15	168.56	1.316	0.008
298.15	170.51	1.327	0.008
298.15	172.44	1.335	0.008
298.15	174.86	1.352	0.008
298.15	176.86	1.364	0.008
308.15	10.15	0.0902	0.0005
308.15	20.11	0.2041	0.0013
308.15	28.3	0.2798	0.0017
308.15	36.27	0.3662	0.0022
308.15	44.58	0.4542	0.0028
308.15	52.32	0.5192	0.0031
308.15	59.02	0.5841	0.0035
308.15	65.33	0.6338	0.0038
308.15	72.38	0.6905	0.0042
308.15	77.82	0.7478	0.0045
308.15	82.96	0.7947	0.0048
308.15	87.44	0.8343	0.005
308.15	94.61	0.8918	0.0054
308.15	101.84	0.9435	0.0057
308.15	106.07	0.9686	0.0059
308.15	110.45	1.005	0.006
308.15	115.08	1.033	0.006
308.15	119.02	1.068	0.006
308.15	122.49	1.09	0.007
308.15	126.87	1.118	0.007
308.15	130.67	1.144	0.007
308.15	134.24	1.171	0.007
308.15	138.95	1.203	0.007
308.15	143.48	1.237	0.007
308.15	148.05	1.259	0.008
308.15	151.13	1.283	0.008
308.15	154.12	1.301	0.008
308.15	156.96	1.325	0.008
308.15	159.51	1.34	0.008
308.15	161.82	1.356	0.008
308.15	164.37	1.371	0.008
308.15	166.78	1.38	0.008
308.15	169.04	1.401	0.008
308.15	171.55	1.416	0.009
308.15	173.86	1.431	0.009
308.15	175.83	1.441	0.009
308.15	177.61	1.458	0.009
308.15	179.59	1.466	0.009
308.15	181.66	1.479	0.009
