Measured thermophysical data. Experimental determination and modeling of the solubility phase diagram of the ternary system (Li2SO4+K2SO4+H2O) at 288.15 K
Source: Thermochim. Acta, 2015, 10.1016/j.tca.2015.01.003
Compound 1: potassium sulfate, K2O4S, InChI=1S/2K.H2O4S/c;;1-5(2,3)4/h;;(H2,1,2,3,4)/q2*+1;/p-2
Compound 2: lithium sulfate, Li2O4S, InChI=1S/2Li.H2O4S/c;;1-5(2,3)4/h;;(H2,1,2,3,4)/q2*+1;/p-2
Compound 3: water, H2O, InChI=1S/H2O/h1H2, purity 99%

System: water + potassium sulfate + lithium sulfate; phases: Liquid, Crystal of intercomponent compound 1
Fixed: Temperature, K = 288.15
Fixed: Pressure, kPa = 100
Property: Mass fraction of potassium sulfate (Liquid); method: gravimetric
Mass fraction of lithium sulfate	Mass fraction of potassium sulfate	uncertainty
0.2601	0	
0.2602	0.0045	0.0045
0.2596	0.0103	0.006
0.2598	0.0231	0.006

System: water + potassium sulfate + lithium sulfate; phases: Liquid, Crystal of intercomponent compound 2
Fixed: Temperature, K = 288.15
Fixed: Pressure, kPa = 100
Property: Mass fraction of potassium sulfate (Liquid); method: gravimetric
Mass fraction of lithium sulfate	Mass fraction of potassium sulfate	uncertainty
0.2598	0.0231	0.0065
0.2364	0.0289	0.0065
0.223	0.0325	0.0068
0.2031	0.0394	0.0072
0.1831	0.0481	0.0075
0.1615	0.0583	0.0088
0.1533	0.0628	0.0087
0.1318	0.0809	0.0103
0.1242	0.0896	0.011

System: water + potassium sulfate + lithium sulfate; phases: Liquid, Crystal
Fixed: Temperature, K = 288.15
Fixed: Pressure, kPa = 100
Property: Mass fraction of potassium sulfate (Liquid); method: gravimetric
Mass fraction of lithium sulfate	Mass fraction of potassium sulfate	uncertainty
0.1242	0.0896	0.006
0.1097	0.0905	0.006
0.0936	0.0912	0.006
0.0452	0.0921	0.006
0	0.0924	0.006

System: water + potassium sulfate + lithium sulfate; phases: Liquid, Crystal of intercomponent compound 2, Crystal of intercomponent compound 1
Property: Mass fraction of potassium sulfate (Liquid); method: gravimetric
Temperature, K	Pressure, kPa	Mass fraction of potassium sulfate	uncertainty
288.15	100	0.0231	0.006

System: water + potassium sulfate + lithium sulfate; phases: Liquid, Crystal, Crystal of intercomponent compound 2
Property: Mass fraction of potassium sulfate (Liquid); method: gravimetric
Temperature, K	Pressure, kPa	Mass fraction of potassium sulfate	uncertainty
288.15	100	0.0896	0.006

System: water + potassium sulfate + lithium sulfate; phases: Liquid, Crystal of intercomponent compound 2, Crystal of intercomponent compound 1
Property: Mass fraction of lithium sulfate (Liquid); method: ICP-OES
Temperature, K	Pressure, kPa	Mass fraction of lithium sulfate	uncertainty
288.15	100	0.2598	0.01

System: water + potassium sulfate + lithium sulfate; phases: Liquid, Crystal, Crystal of intercomponent compound 2
Property: Mass fraction of lithium sulfate (Liquid); method: ICP-OES
Temperature, K	Pressure, kPa	Mass fraction of lithium sulfate	uncertainty
288.15	100	0.1242	0.01

System: water + potassium sulfate + lithium sulfate; phases: Liquid
Fixed: Pressure, kPa = 100
Fixed: Temperature, K = 288.15
Property: Mass density, kg/m3 (Liquid); method: Vibrating tube method
Mass fraction of lithium sulfate	Mass fraction of potassium sulfate	Mass density, kg/m3	uncertainty
0.2601	0	1237.48	1.63
0.2602	0.0045	1240.09	1.73
0.2596	0.0103	1245.14	1.8
0.2598	0.0231	1258.28	1.81
0.2364	0.0289	1242.18	1.8
0.223	0.0325	1234.05	1.79
0.2031	0.0394	1218.68	1.77
0.1831	0.0481	1207.27	1.76
0.1615	0.0583	1196.39	1.75
0.1533	0.0628	1193.33	1.74
0.1318	0.0809	1191.13	1.74
0.1242	0.0896	1190.24	1.74
0.1097	0.0905	1180.76	1.73
0.0936	0.0912	1166.45	1.72
0.0452	0.0921	1118.92	1.67
0	0.0924	1077.03	1.22

System: water + lithium sulfate; phases: Liquid, Crystal of intercomponent compound 1
Property: Mass fraction of lithium sulfate (Liquid); method: gravimetric
Temperature, K	Pressure, kPa	Mass fraction of lithium sulfate	uncertainty
288.15	100	0.2601	0.01

System: water + lithium sulfate; phases: Liquid
Property: Mass density, kg/m3 (Liquid); method: Vibrating tube method
Mass fraction of lithium sulfate	Pressure, kPa	Temperature, K	Mass density, kg/m3	uncertainty
0.2601	100	288.15	1237.48	1.63

System: water + potassium sulfate; phases: Liquid, Crystal
Property: Mass fraction of potassium sulfate (Liquid); method: gravimetric
Temperature, K	Pressure, kPa	Mass fraction of potassium sulfate	uncertainty
288.15	100	0.0924	0.006

System: water + potassium sulfate; phases: Liquid
Property: Mass density, kg/m3 (Liquid); method: Vibrating tube method
Mass fraction of potassium sulfate	Pressure, kPa	Temperature, K	Mass density, kg/m3	uncertainty
0.0924	100	288.15	1077.03	1.22
