Measured thermophysical data. Influence of selected potassium salts on thermal stability of ammonium nitrate
Source: Thermochim. Acta, 2019, 10.1016/j.tca.2019.178313
Compound 1: ammonium nitrate, H4N2O3, InChI=1S/NO3.H3N/c2-1(3)4;/h;1H3/q-1;/p+1, purity 98%
Compound 2: potassium sulfate, K2O4S, InChI=1S/2K.H2O4S/c;;1-5(2,3)4/h;;(H2,1,2,3,4)/q2*+1;/p-2, purity 99%
Compound 3: potassium chloride, ClK, InChI=1S/ClH.K/h1H;/q;+1/p-1, purity 99%
Compound 4: potassium nitrate, KNO3, InChI=1S/K.NO3/c;2-1(3)4/q+1;-1, purity 99%
Compound 5: potassium carbonate, CK2O3, InChI=1S/CH2O3.2K/c2-1(3)4;;/h(H2,2,3,4);;/q;2*+1/p-2, purity 99%
Compound 6: monopotassium phosphate, H2KO4P, InChI=1S/K.H3O4P/c;1-5(2,3)4/h;(H3,1,2,3,4)/q+1;/p-1, purity 99.5%
Compound 7: dipotassium hydrogen phosphate, HK2O4P, InChI=1S/2K.H3O4P/c;;1-5(2,3)4/h;;(H3,1,2,3,4)/q2*+1;/p-2, purity 99%
Compound 8: potassium metabisulfite, K2O5S2, InChI=1S/2K.H2O5S2/c;;1-6(2)7(3,4)5/h;;(H,1,2)(H,3,4,5)/q2*+1;/p-2, purity 99%
Compound 9: potassium bicarbonate, CHKO3, InChI=1S/CH2O3.K/c2-1(3)4;/h(H2,2,3,4);/q;+1/p-1, purity 99%

System: ammonium nitrate; phases: Crystal 4, Crystal 3, Air at 1 atmosphere
Property: Triple point temperature, K (Crystal 4); method: DSC
Triple point temperature, K	uncertainty
324.15	2.1

System: ammonium nitrate; phases: Crystal 3, Crystal 2, Air at 1 atmosphere
Property: Triple point temperature, K (Crystal 3); method: DSC
Triple point temperature, K	uncertainty
357.55	2.1

System: ammonium nitrate; phases: Crystal 2, Crystal 1, Air at 1 atmosphere
Property: Triple point temperature, K (Crystal 2); method: DSC
Triple point temperature, K	uncertainty
397.25	2.1

System: ammonium nitrate; phases: Crystal 1, Liquid, Air at 1 atmosphere
Property: Triple point temperature, K (Crystal 1); method: DSC
Triple point temperature, K	uncertainty
439.75	2.1

System: ammonium nitrate + potassium sulfate; phases: Liquid, Crystal of unknown type
Fixed: Pressure, kPa = 100
Property: Solid-liquid equilibrium temperature, K (Liquid); method: DTA:corrimp
Mass fraction of potassium sulfate	Solid-liquid equilibrium temperature, K	uncertainty
0	439.75	2
0.2	434.55	2
0.1	436.85	2
0.02	438.55	2

System: ammonium nitrate + potassium chloride; phases: Liquid, Crystal of unknown type
Fixed: Pressure, kPa = 100
Property: Solid-liquid equilibrium temperature, K (Liquid); method: DTA:corrimp
Mass fraction of potassium chloride	Solid-liquid equilibrium temperature, K	uncertainty
0	439.75	2
0.2	407.15	2
0.1	411.05	2
0.02	431.95	3.2

System: ammonium nitrate + potassium nitrate; phases: Liquid, Crystal of unknown type
Fixed: Pressure, kPa = 100
Property: Solid-liquid equilibrium temperature, K (Liquid); method: DTA:corrimp
Mass fraction of potassium nitrate	Solid-liquid equilibrium temperature, K	uncertainty
0	439.75	2
0.2	428.95	2
0.1	429.95	2
0.02	436.65	2.4

System: ammonium nitrate + potassium carbonate; phases: Liquid, Crystal of unknown type
Fixed: Pressure, kPa = 100
Property: Solid-liquid equilibrium temperature, K (Liquid); method: DTA:corrimp
Mass fraction of potassium carbonate	Solid-liquid equilibrium temperature, K	uncertainty
0	439.75	2
0.2	426.95	2
0.1	428.15	2
0.02	434.25	2

System: ammonium nitrate + monopotassium phosphate; phases: Liquid, Crystal of unknown type
Fixed: Pressure, kPa = 100
Property: Solid-liquid equilibrium temperature, K (Liquid); method: DTA:corrimp
Mass fraction of monopotassium phosphate	Solid-liquid equilibrium temperature, K	uncertainty
0	439.75	2
0.2	419.65	2
0.1	421.15	2
0.02	433.55	2

System: ammonium nitrate + dipotassium hydrogen phosphate; phases: Liquid, Crystal of unknown type
Fixed: Pressure, kPa = 100
Property: Solid-liquid equilibrium temperature, K (Liquid); method: DTA:corrimp
Mass fraction of dipotassium hydrogen phosphate	Solid-liquid equilibrium temperature, K	uncertainty
0	439.75	2
0.2	417.05	2
0.1	417.15	2
0.02	433.65	2

System: ammonium nitrate + potassium metabisulfite; phases: Liquid, Crystal of unknown type
Fixed: Pressure, kPa = 100
Property: Solid-liquid equilibrium temperature, K (Liquid); method: DTA:corrimp
Mass fraction of potassium metabisulfite	Solid-liquid equilibrium temperature, K	uncertainty
0	439.75	2
0.2	428.75	2
0.1	431.65	2
0.02	437.45	2

System: ammonium nitrate + potassium bicarbonate; phases: Liquid, Crystal of unknown type
Fixed: Pressure, kPa = 100
Property: Solid-liquid equilibrium temperature, K (Liquid); method: DTA:corrimp
Mass fraction of potassium bicarbonate	Solid-liquid equilibrium temperature, K	uncertainty
0	439.75	2
0.2	427.95	2
0.1	428.65	2
0.02	437.75	2
