Measured thermophysical data. Low temperature heat capacity of .alpha.-Na2NpO4
Source: Thermochim. Acta, 2015, 10.1016/j.tca.2015.08.029
Compound 1: sodium neptunate, Na2NpO4, InChI=1S/2Na.Np.4O/q2*+1;;;;2*-1, purity 99%

System: sodium neptunate; phases: Crystal 2, Crystal 1, Gas
Property: Triple point temperature, K (Crystal 2); method: relaxation calorimetry
Triple point temperature, K	uncertainty
12.2	0.77

System: sodium neptunate; phases: Crystal 2, Crystal 1, Gas
Property: Molar enthalpy of transition or fusion, kJ/mol (Crystal 2); method: relaxation calorimetry
Molar enthalpy of transition or fusion, kJ/mol	uncertainty
0	1

System: sodium neptunate; phases: Crystal 1
Fixed: Pressure, kPa = 101.325
Property: Molar heat capacity at constant pressure, J/K/mol (Crystal 1); method: RELAXCAL
Temperature, K	Molar heat capacity at constant pressure, J/K/mol	uncertainty
301.03	152.19	10.6
295.6	152.09	10.59
291.16	150.3	10.47
286.79	148.84	10.37
282.49	148.57	10.35
278.25	148.4	10.33
274.09	147.62	10.28
269.97	146.68	10.22
265.93	146.14	10.18
261.93	145.11	10.11
258.01	144.37	10.05
254.15	143.89	10.02
250.33	143.03	9.96
246.57	142.12	9.9
242.88	141.35	9.84
239.23	140.43	9.78
235.63	139.32	9.7
232.09	138.2	9.62
228.6	137.35	9.57
225.18	136.55	9.51
221.8	135.51	9.44
218.47	134.6	9.37
215.18	133.66	9.31
211.96	132.59	9.23
208.77	131.59	9.16
205.64	130.5	9.09
202.55	129.49	9.02
199.51	128.43	8.94
196.52	127.18	8.86
193.56	126.06	8.78
190.64	124.79	8.69
187.78	123.57	8.61
184.95	122.47	8.53
182.17	121.41	8.46
179.44	120.06	8.36
176.75	118.97	8.29
174.09	117.6	8.19
171.48	116.41	8.11
168.9	115.09	8.02
166.36	113.93	7.93
163.87	112.83	7.86
161.4	111.59	7.77
158.98	110.42	7.69
156.58	109.21	7.61
154.23	108.04	7.52
151.91	106.75	7.43
149.62	105.69	6.47
147.37	104.47	6.4
145.15	103.32	6.33
142.97	102.06	6.25
140.81	100.88	6.18
138.67	99.644	6.102
136.6	98.409	6.027
134.54	97.202	5.953
132.52	95.992	5.879
130.53	94.6	5.793
128.57	93.431	5.722
126.64	92.277	5.651
124.73	91.069	5.577
122.86	89.81	5.5
121.02	88.638	5.428
119.19	87.396	5.352
117.41	86.165	5.277
115.63	84.913	5.2
113.89	83.702	5.126
112.18	82.488	5.052
110.5	81.275	4.978
108.83	80.067	4.904
107.2	78.88	4.831
105.58	77.665	4.757
103.99	76.436	4.681
102.42	75.223	4.607
100.88	74.05	4.535
99.36	72.798	3.886
97.86	71.583	3.822
96.38	70.365	3.757
94.92	69.18	3.693
93.5	67.985	3.63
92.1	66.876	3.57
90.72	65.756	3.511
89.36	64.571	3.447
88.01	63.39	3.384
86.69	62.274	3.325
85.38	61.147	3.265
84.1	60.099	3.209
82.83	59.062	3.153
81.58	58.042	3.099
80.37	57.04	3.045
79.16	55.98	2.989
77.97	54.976	2.935
76.79	53.975	2.882
75.64	52.986	2.829
74.5	52.004	2.776
73.37	51.063	2.726
72.27	50.088	2.674
71.18	49.136	2.623
70.11	48.187	2.573
69.05	47.272	1.921
68.01	46.346	1.883
66.99	45.431	1.846
65.99	44.513	1.809
65	43.585	1.771
64.02	42.685	1.734
63.06	41.791	1.698
62.11	40.933	1.663
61.18	40.089	1.629
60.26	39.244	1.595
59.35	38.437	1.562
58.45	37.639	1.529
57.57	36.835	1.497
56.6	35.953	1.461
55.65	35.094	1.426
54.76	34.265	1.392
54.04	33.593	1.365
53.11	32.732	1.33
52.4	32.055	1.303
51.62	31.335	1.273
50.86	30.672	1.246
50.09	29.999	1.219
49.32	29.285	1.19
48.55	28.58	1.162
47.8	27.891	1.134
47.05	27.197	1.105
46.31	26.524	1.078
45.59	25.901	1.053
44.86	25.264	1.027
44.21	24.717	1.005
43.48	24.084	0.979
42.81	23.508	0.956
42.14	22.913	0.931
41.5	22.369	0.909
40.87	21.844	0.888
40.25	21.328	0.867
39.49	20.728	0.843
39.05	20.383	0.829
38.26	19.768	0.804
37.91	19.463	0.791
37.1	18.864	0.767
36.75	18.526	0.753
36.03	17.966	0.73
35.41	17.523	0.712
34.84	17.098	0.695
34.29	16.697	0.679
34.09	16.428	0.668
33.32	15.912	0.647
32.8	15.483	0.63
32.29	15.119	0.615
31.79	14.757	0.6
31.58	14.504	0.59
30.83	13.939	0.567
30.63	13.762	0.56
29.89	13.26	0.539
29.7	13.076	0.532
29.23	12.719	0.518
28.78	12.374	0.504
28.37	12.062	0.491
27.91	11.722	0.477
27.51	11.425	0.465
27.08	11.11	0.452
26.67	10.807	0.44
26.32	10.559	0.43
25.94	10.286	0.419
25.54	10.035	0.409
25.14	9.7829	0.3983
24.76	9.5137	0.3875
24.38	9.2425	0.3765
24.01	8.9696	0.3654
23.66	8.7069	0.3548
23.3	8.4669	0.3451
22.91	8.2054	0.3345
22.58	7.9727	0.325
22.25	7.7453	0.3158
21.87	7.4701	0.3046
21.44	7.194	0.2934
21.03	6.9339	0.2828
20.84	6.8053	0.2776
20.35	6.5073	0.2655
20.21	6.4033	0.2613
19.77	6.1344	0.2495
19.6	6.0246	0.245
19.22	5.7914	0.2356
19.05	5.6738	0.2308
18.66	5.451	0.2217
18.51	5.3523	0.2177
18.13	5.1418	0.2092
17.85	4.9751	0.2024
17.59	4.8219	0.1962
17.34	4.6806	0.1905
17.08	4.5298	0.1843
16.8	4.3864	0.1785
16.54	4.2518	0.173
16.29	4.1183	0.1676
16.05	3.992	0.1625
15.82	3.8733	0.1577
15.58	3.7537	0.1528
15.34	3.6384	0.1481
15.1	3.5225	0.1434
14.87	3.4154	0.139
14.64	3.3122	0.1348
14.42	3.2156	0.1309
14.2	3.1279	0.1273
13.99	3.0468	0.1239
13.79	2.9805	0.1212
13.58	2.923	0.1188
13.37	2.8799	0.117
13.16	2.858	0.1161
12.96	2.8689	0.1166
12.76	2.9377	0.1195
12.57	3.0919	0.1256
12.38	3.312	0.1348

System: sodium neptunate; phases: Crystal 2
Fixed: Pressure, kPa = 101.325
Property: Molar heat capacity at constant pressure, J/K/mol (Crystal 2); method: RELAXCAL
Temperature, K	Molar heat capacity at constant pressure, J/K/mol	uncertainty
12.2	3.3999	0.1382
12.01	3.3446	0.1362
11.85	3.2325	0.1321
11.66	3.0897	0.1265
11.49	2.95	0.121
11.32	2.8053	0.1152
11.15	2.6673	0.1095
10.98	2.5381	0.1042
10.82	2.413	0.0992
10.65	2.291	0.0942
10.49	2.1732	0.0894
10.33	2.0645	0.085
10.18	1.9627	0.0808
10.03	1.8653	0.0768
9.88	1.7736	0.1241
9.72	1.6847	0.1179
9.58	1.6038	0.1123
9.44	1.5222	0.1066
9.3	1.4498	0.1015
9.16	1.3788	0.0965
9.02	1.3096	0.0917
8.89	1.2463	0.0873
8.75	1.1868	0.0831
8.62	1.1278	0.079
8.49	1.0724	0.0751
8.36	1.02	0.0715
8.24	0.97017	0.06805
8.12	0.92307	0.06475
8	0.87669	0.0615
7.88	0.83434	0.05853
7.77	0.79555	0.05583
7.65	0.7549	0.05299
7.56	0.7257	0.05092
7.43	0.68651	0.0482
7.32	0.65198	0.0458
7.21	0.62013	0.04356
7.1	0.58908	0.0414
6.99	0.55891	0.03911
6.85	0.54049	0.03783
6.74	0.51165	0.03597
6.63	0.48608	0.03417
6.52	0.4604	0.03241
6.42	0.43663	0.0307
6.31	0.41577	0.02923
6.21	0.39485	0.0278
6.11	0.3749	0.02638
6.01	0.35696	0.02512
5.91	0.339	0.02386
5.82	0.32442	0.0228
5.72	0.30973	0.0218
5.63	0.29449	0.02078
5.54	0.27982	0.01972
5.45	0.26727	0.01883
5.36	0.25442	0.01793
5.27	0.24251	0.01711
5.19	0.23133	0.0163
5.11	0.22276	0.01566
5.02	0.21299	0.015
4.94	0.20393	0.01436
4.86	0.19601	0.01383
4.78	0.18636	0.01317
4.71	0.17945	0.01263
4.63	0.17245	0.01217
4.56	0.1646	0.01162
4.49	0.15897	0.01116
4.41	0.15396	0.01082
4.34	0.148	0.01043
4.27	0.14273	0.01007
4.21	0.13735	0.0097
4.14	0.13205	0.0093
4.07	0.12757	0.00902
4.01	0.12177	0.00858
3.94	0.11908	0.00835
3.88	0.11518	0.00814
3.82	0.11083	0.00778
3.76	0.10912	0.00774
3.7	0.10205	0.0072
3.64	0.10205	0.00713
3.59	0.09902	0.006959
3.53	0.09687	0.006779
3.47	0.09501	0.006691
3.42	0.09134	0.006425
3.36	0.08997	0.006289
3.31	0.08833	0.006199
3.26	0.08615	0.006051
3.2	0.08398	0.005877
3.15	0.08298	0.005804
3.1	0.08127	0.0057
3.06	0.07993	0.0056
3.01	0.07852	0.005495
2.96	0.07721	0.005404
2.92	0.07607	0.005315
2.87	0.07525	0.005267
2.83	0.07366	0.005142
2.78	0.07362	0.005135
2.74	0.07229	0.005054
2.7	0.07186	0.00501
2.65	0.0712	0.004983
2.62	0.06978	0.004886
2.57	0.06907	0.004815
2.54	0.06899	0.004816
2.5	0.06795	0.004732
2.46	0.06882	0.004794
2.43	0.06753	0.004709
2.39	0.06791	0.004731
2.35	0.06705	0.004685
2.32	0.06658	0.004638
2.29	0.06674	0.004652
2.25	0.06595	0.004597
2.22	0.06612	0.004631
2.19	0.06447	0.004572
2.16	0.06353	0.004447
2.13	0.06313	0.004405

System: sodium neptunate; phases: Crystal 2
Fixed: Pressure, kPa = 101.325
Property: Molar heat capacity at constant pressure, J/K/mol (Crystal 2); method: RELAXCAL
Temperature, K	Molar heat capacity at constant pressure, J/K/mol	uncertainty
1	0.00272	0.0004
2	0.02011	0.00151
3	0.05995	0.0043
4	0.12224	0.00864
5	0.21016	0.01483
6	0.35896	0.02526
7	0.56973	0.04001
8	0.87712	0.06152
9	1.2972	0.0909
10	1.8486	0.1293
10.5	2.1794	0.0918
11	2.5545	0.1075
11.5	2.9523	0.1239
12	3.3337	0.1397

System: sodium neptunate; phases: Crystal 2
Fixed: Pressure, kPa = 101.325
Property: Molar entropy, J/K/mol (Crystal 2); method: relaxation calorimetry
Temperature, K	Molar entropy, J/K/mol	uncertainty
1	0.000919794	0.000154983
2	0.007	0.00076
3	0.0219	0.00232
4	0.04716	0.00496
5	0.08326	0.00874
6	0.13324	0.01397
7	0.20313	0.02128
8	0.29813	0.03122
9	0.4245	0.04444
10	0.58848	0.06157
10.5	0.68653	0.04308
11	0.79637	0.04996
11.5	0.91864	0.05761
12	1.0528	0.066

System: sodium neptunate; phases: Crystal 2
Fixed: Pressure, kPa = 101.325
Property: Molar enthalpy, kJ/mol (Crystal 2); method: relaxation calorimetry
Temperature, K	Molar enthalpy, kJ/mol	uncertainty
1	6.92e-07	2.0069e-07
2	1.0433e-05	8.7e-07
3	4.8529e-05	3.612e-06
4	0.00013785	9.93e-06
5	0.00030128	2.144e-05
6	0.00057767	4.088e-05
7	0.00103	7.27e-05
8	0.00175	0.0001232
9	0.00283	0.0001988
10	0.00439	0.0003076
10.5	0.00539	0.0002286
11	0.00657	0.0002783
11.5	0.00795	0.0003363
12	0.00953	0.0004018

System: sodium neptunate; phases: Crystal 1
Fixed: Pressure, kPa = 101.325
Property: Molar heat capacity at constant pressure, J/K/mol (Crystal 1); method: RELAXCAL
Temperature, K	Molar heat capacity at constant pressure, J/K/mol	uncertainty
12.5	3.1945	0.1332
13	2.8647	0.1193
13.5	2.8995	0.1208
14	3.0425	0.1268
15	3.4667	0.1446
16	3.9464	0.1646
17	4.4837	0.187
18	5.061	0.2111
19	5.6671	0.2363
20	6.295	0.2624
25	9.652	0.4029
30	13.279	0.554
35	17.144	0.715
40	21.224	0.884
45	25.491	1.062
50	29.904	1.246
55	34.421	1.434
60	38.991	1.624
65	43.566	1.815
70	48.093	2.003
75	52.519	2.804
80	56.792	3.032
85	60.856	3.249
90	65.168	3.479
95	69.352	3.703
100	73.362	3.917
110	80.909	4.955
120	87.894	5.383
130	94.375	5.78
140	100.39	6.15
150	105.98	6.49
160	111.17	7.74
170	115.98	8.08
180	120.43	8.39
190	124.55	8.67
200	128.34	8.94
210	131.83	9.18
220	135.03	9.4
230	137.97	9.61
240	140.64	9.79
250	143.07	9.96
260	145.28	10.12
270	147.27	10.26
273.15	147.85	10.3
280	149.06	10.38
290	150.67	10.49
298.15	151.86	10.58
300	152.11	10.59

System: sodium neptunate; phases: Crystal 1
Fixed: Pressure, kPa = 101.325
Property: Molar entropy, J/K/mol (Crystal 1); method: relaxation calorimetry
Temperature, K	Molar entropy, J/K/mol	uncertainty
12.5	1.1893	0.0744
13	1.3064	0.0817
13.5	1.4146	0.0885
14	1.5224	0.0952
15	1.7462	0.1092
16	1.9849	0.1241
17	2.2401	0.14
18	2.5125	0.157
19	2.8023	0.1751
20	3.1088	0.1943
25	4.8683	0.3045
30	6.9449	0.4342
35	9.2791	0.5799
40	11.832	0.739
45	14.577	0.911
50	17.49	1.093
55	20.551	1.284
60	23.742	1.483
65	27.044	1.689
70	30.439	1.901
75	33.908	2.715
80	37.435	2.998
85	41.001	3.283
90	44.601	3.572
95	48.237	3.863
100	51.897	4.156
110	59.248	5.443
120	66.592	6.117
130	73.886	6.787
140	81.103	7.45
150	88.222	8.104
160	95.23	9.948
170	102.12	10.67
180	108.87	11.37
190	115.5	12.07
200	121.98	12.74
210	128.33	13.41
220	134.54	14.05
230	140.61	14.69
240	146.53	15.31
250	152.33	15.91
260	157.98	16.5
270	163.5	17.08
273.15	165.21	17.26
280	168.89	17.64
290	174.15	18.19
298.15	178.34	18.63
300	179.28	18.73

System: sodium neptunate; phases: Crystal 1
Fixed: Pressure, kPa = 101.325
Property: Molar enthalpy, kJ/mol (Crystal 1); method: relaxation calorimetry
Temperature, K	Molar enthalpy, kJ/mol	uncertainty
12.5	0.0112	0.00047
13	0.01269	0.000532
13.5	0.01412	0.000591
14	0.01561	0.000653
15	0.01885	0.000788
16	0.02256	0.000943
17	0.02677	0.001118
18	0.03154	0.001317
19	0.0369	0.001541
20	0.04288	0.00179
25	0.08262	0.003462
30	0.13985	0.00585
35	0.21581	0.00901
40	0.31164	0.013
45	0.42836	0.01787
50	0.5668	0.02363
55	0.72758	0.03033
60	0.9111	0.03797
65	1.1175	0.0466
70	1.3467	0.0561
75	1.5983	0.0854
80	1.8716	0.0999
85	2.1658	0.1156
90	2.4808	0.1325
95	2.8172	0.1504
100	3.1741	0.1695
110	3.9459	0.2418
120	4.7904	0.2935
130	5.7021	0.3493
140	6.6763	0.409
150	7.7085	0.4722
160	8.7946	0.6126
170	9.9307	0.6917
180	11.113	0.774
190	12.338	0.859
200	13.603	0.947
210	14.904	1.038
220	16.239	1.131
230	17.604	1.226
240	18.997	1.323
250	20.416	1.422
260	21.858	1.522
270	23.321	1.624
273.15	23.785	1.656
280	24.802	1.727
290	26.301	1.832
298.15	27.534	1.918
300	27.815	1.937
