Measured thermophysical data. Low-temperature heat capacity and thermodynamic functions of KTh2(PO4)3
Source: Thermochim. Acta, 2014, 10.1016/j.tca.2014.03.033
Compound 1: potassium dithorium trisphosphate, KO12P3Th2, InChI=1S/K.3H3O4P.2Th/c;3*1-5(2,3)4;;/h;3*(H3,1,2,3,4);;/q+1;;;;2*+4/p-9, purity 99.5%

System: potassium dithorium trisphosphate; phases: Crystal
Fixed: Pressure, kPa = 101.325
Property: Molar heat capacity at constant pressure, J/K/mol (Crystal); method: Vacuum adiabatic calorimetry
Temperature, K	Molar heat capacity at constant pressure, J/K/mol	uncertainty
4	0.316	0.013
5	0.395	0.014
6	0.4889	0.0143
7	0.5352	0.0145
8	0.4432	0.0138
9	0.3222	0.0126
10	0.3252	0.0125
15	2.606	0.03
20	6.715	0.052
25	12.67	0.07
30	19.97	0.09
35	28.47	0.1
40	37.38	0.12
45	46.43	0.14
50	56.01	0.16
60	73.35	0.19
70	91.89	0.23
80	109.4	0.3
90	125.4	0.3
100	140	0.3
110	153.5	0.4
120	166.2	0.4
130	178	0.4
140	189.2	0.4
150	199.8	0.4
160	209.9	0.4
170	219.6	0.4
180	229	0.4
190	238.2	0.4
200	247.3	0.5
210	256	0.5
220	264.2	0.5
230	271.8	0.5
240	278.6	0.5
250	284.7	0.5
260	290.3	0.5
270	295.7	0.5
273.15	297.5	0.5
280	301.3	0.5
290	307.4	0.5

System: potassium dithorium trisphosphate; phases: Crystal
Fixed: Pressure, kPa = 101.325
Property: Molar enthalpy, kJ/mol (Crystal); method: Vacuum adiabatic calorimetry
Temperature, K	Molar enthalpy, kJ/mol	uncertainty
4	0.0003	0.0001
5	0.0006	0.0001
6	0.0009	0.0001
7	0.0014	0.0001
8	0.0024	0.0001
9	0.0028	0.0001
10	0.0032	0.0001
15	0.0092	0.0002
20	0.032	0.001
25	0.0801	0.0007
30	0.1607	0.0016
35	0.2809	0.002
40	0.4459	0.0026
45	0.6557	0.0032
50	0.9106	0.004
60	1.556	0.006
70	2.382	0.008
80	3.39	0.01
90	4.565	0.023
100	5.893	0.026
110	7.362	0.03
120	8.961	0.033
130	10.68	0.04
140	12.52	0.04
150	14.46	0.04
160	16.51	0.05
170	18.66	0.05
180	20.9	0.06
190	23.24	0.06
200	25.67	0.07
210	28.18	0.07
220	30.79	0.08
230	33.47	0.08
240	36.22	0.08
250	39.04	0.09
260	41.91	0.09
270	44.84	0.1
273.15	45.78	0.1
280	47.83	0.1
290	50.87	0.11

System: potassium dithorium trisphosphate; phases: Crystal
Fixed: Pressure, kPa = 101.325
Property: Molar entropy, J/K/mol (Crystal); method: Vacuum adiabatic calorimetry
Temperature, K	Molar entropy, J/K/mol	uncertainty
4	0.237	0.018
5	0.316	0.019
6	0.3959	0.0202
7	0.4765	0.0211
8	0.5382	0.0217
9	0.5877	0.0221
10	0.6282	0.0224
15	1.085	0.026
20	2.364	0.036
25	4.489	0.046
30	7.405	0.083
35	11.1	0.09
40	15.49	0.11
45	20.42	0.12
50	25.78	0.14
60	37.5	0.17
70	50.2	0.21
80	63.63	0.25
90	77.46	0.42
100	91.44	0.44
110	105.4	0.5
120	119.3	0.5
130	133.1	0.5
140	146.7	0.5
150	160.1	0.5
160	173.3	0.6
170	186.4	0.6
180	199.2	0.6
190	211.8	0.6
200	224.3	0.6
210	236.5	0.7
220	248.6	0.7
230	260.6	0.7
240	272.3	0.7
250	283.8	0.7
260	295	0.7
270	306.1	0.8
273.15	309.5	0.8
280	317	0.8
290	327.6	0.8

System: potassium dithorium trisphosphate; phases: Crystal
Fixed: Pressure, kPa = 101.325
Property: Mass density, kg/m3 (Crystal); method: X-ray diffraction
Temperature, K	Mass density, kg/m3	uncertainty
298	5423	2
373	5415	2
473	5404	2
573	5391	2
673	5377	2
773	5360	2
873	5346	2
973	5329	2
1073	5311	2
1173	5293	2

System: potassium dithorium trisphosphate; phases: Crystal
Fixed: Pressure, kPa = 101.325
Property: Molar heat capacity at constant pressure, J/K/mol (Crystal); method: Vacuum adiabatic calorimetry
Temperature, K	Molar heat capacity at constant pressure, J/K/mol	uncertainty
5.57	0.4398	0.014
5.87	0.4637	0.0144
6.17	0.5291	0.0148
6.71	0.5734	0.0149
7.19	0.541	0.0148
7.62	0.4424	0.0139
8.01	0.4412	0.0138
8.38	0.3732	0.0131
8.74	0.3888	0.0134
9.05	0.2759	0.0125
9.34	0.3055	0.0124
9.62	0.2761	0.0122
9.87	0.3141	0.0126
10.26	0.3301	0.0133
11.11	0.574	0.0156
11.99	0.8583	0.0185
12.89	1.357	0.023
13.82	1.855	0.026
14.79	2.456	0.03
15.78	3.171	0.034
16.8	3.96	0.038
17.84	4.821	0.042
18.9	5.66	0.046
19.98	6.661	0.051

System: potassium dithorium trisphosphate; phases: Crystal
Fixed: Pressure, kPa = 101.325
Property: Molar heat capacity at constant pressure, J/K/mol (Crystal); method: Vacuum adiabatic calorimetry
Temperature, K	Molar heat capacity at constant pressure, J/K/mol	uncertainty
5.73	0.48	0.0143
6	0.4569	0.014
6.44	0.5093	0.0145
6.96	0.5469	0.0147
7.41	0.4609	0.0139
7.82	0.4941	0.0141
8.2	0.4291	0.0139
8.55	0.383	0.0132
8.9	0.365	0.0132
9.2	0.3007	0.0124
9.48	0.3397	0.0127
9.75	0.3229	0.0126
10	0.2988	0.0126
10.68	0.4323	0.0142
11.54	0.6675	0.0168
12.44	1.105	0.02
13.35	1.531	0.023
14.3	2.088	0.028
15.28	2.842	0.032
16.29	3.556	0.036
17.32	4.357	0.04
18.37	5.19	0.044
19.44	6.164	0.05
20.89	7.741	0.056
22.2	9.259	0.062
23.54	10.9	0.07
24.91	12.5	0.07
26.32	14.41	0.08
27.74	16.28	0.08
29.19	18.66	0.08
30.65	21.04	0.09
32.14	23.32	0.09
33.64	25.91	0.1
35.16	28.79	0.1
36.69	31.62	0.11
38.24	34.31	0.11
39.8	37.02	0.12
41.38	39.92	0.13
42.96	42.83	0.13
44.55	45.64	0.14
46.16	48.44	0.14
47.77	51.38	0.15
50.44	56.91	0.16
53.51	61.81	0.17
55.99	66.17	0.18
58.48	70.49	0.18
60.97	75.27	0.19
63.48	79.85	0.2
65.99	84.48	0.21
68.51	89.13	0.22
71.04	93.73	0.23
73.55	98.33	0.24
76.05	102.6	0.3
78.55	106.8	0.3
81.06	111	0.3
85.27	118	0.3

System: potassium dithorium trisphosphate; phases: Crystal
Fixed: Pressure, kPa = 101.325
Property: Molar heat capacity at constant pressure, J/K/mol (Crystal); method: Vacuum adiabatic calorimetry
Temperature, K	Molar heat capacity at constant pressure, J/K/mol	uncertainty
82.09	112.8	0.3
87.79	122.2	0.3
90.31	126	0.3
92.84	129.9	0.3
95.37	133.4	0.3
97.91	137.3	0.3
100.45	140.9	0.3
103	144.2	0.3
105.54	147.6	0.4
108.09	151.1	0.4
110.65	154.4	0.4
113.21	157.7	0.4
115.77	160.9	0.4
118.34	164.1	0.4
120.91	167	0.4
123.5	170.1	0.4
126.08	173.4	0.4
128.66	176.4	0.4
131.24	179.2	0.4
133.82	182.4	0.4
136.4	185.2	0.4
138.99	188	0.4
141.58	190.8	0.4
144.17	193.8	0.4
146.76	196.5	0.4
147.55	197.2	0.4
149.36	199.1	0.4
150.82	200.6	0.4
151.96	202	0.4
153.42	203	0.4
154.56	204.3	0.4
156.02	205.5	0.4
157.16	207.3	0.4
158.62	208.6	0.4
159.76	209.9	0.4
161.22	211.4	0.4
162.36	212	0.4
163.82	214	0.4
165	214.7	0.4
166.43	216.1	0.4
167.6	217.6	0.4
169.03	218.8	0.4
170.21	219.9	0.4
171.64	220.8	0.4
172.82	222.3	0.4
174.25	223.9	0.4
175.43	225	0.4
176.86	226.1	0.4
178.04	227.2	0.4
179.47	228.5	0.4
180.65	229.6	0.4
182.08	230.9	0.4
183.26	231.9	0.4
184.69	233.2	0.4
185.87	234.5	0.4
187.31	235.5	0.4
188.48	237	0.4
189.95	238.4	0.4
191.1	239.1	0.4
192.57	240.2	0.4
193.71	241.4	0.4
195.18	242.9	0.4
196.33	244.1	0.4
197.8	245.3	0.4
198.95	246.3	0.4
200.42	247.2	0.5
201.57	248.5	0.5
203.03	249.9	0.5
204.2	251	0.5
205.67	251.9	0.5
208.3	254.3	0.5
210.94	256.9	0.5
213.58	258.9	0.5
216.23	261	0.5
218.88	263.2	0.5
221.53	265.5	0.5
224.18	267.8	0.5
226.84	270	0.5
229.5	271.7	0.5
232.24	273.5	0.5
234.91	275.6	0.5
238.25	277.3	0.5
241.54	279.8	0.5
244.22	281.4	0.5
246.9	283.4	0.5
249.59	284.6	0.5
252.28	286.1	0.5
254.97	287.6	0.5
257.66	288.7	0.5
260.36	290.3	0.5
263.06	291.8	0.5
265.76	293.5	0.5
268.46	294.5	0.5
271.17	295.9	0.5
