Measured thermophysical data. Thermodynamic and acoustic properties of binary mixtures of ethers.  IV. Diisopropyl ether or oxolane with N,N-dimethylaniline or N,Ndiethylaniline  at 303.15, 313.15 and 323.15 K
Source: Thermochim. Acta, 2011, 10.1016/j.tca.2011.02.004
Compound 1: diisopropyl ether, C6H14O, InChI=1S/C6H14O/c1-5(2)7-6(3)4/h5-6H,1-4H3, purity 99.5%
Compound 2: tetrahydrofuran, C4H8O, InChI=1S/C4H8O/c1-2-4-5-3-1/h1-4H2, purity 99.5%
Compound 3: N,N-dimethylaniline, C8H11N, InChI=1S/C8H11N/c1-9(2)8-6-4-3-5-7-8/h3-7H,1-2H3, purity 99.5%
Compound 4: N,N-diethylaniline, C10H15N, InChI=1S/C10H15N/c1-3-11(4-2)10-8-6-5-7-9-10/h5-9H,3-4H2,1-2H3, purity 99.5%

System: diisopropyl ether; phases: Liquid
Fixed: Pressure, kPa = 101.3
Property: Speed of sound, m/s (Liquid); method: Linear variable-path acoustic interferometer
Temperature, K	Speed of sound, m/s	uncertainty
303.15	976	2
313.15	932	2
323.15	889	2

System: diisopropyl ether; phases: Liquid
Fixed: Pressure, kPa = 101.3
Property: Mass density, kg/m3 (Liquid); method: Pycnometric method
Temperature, K	Mass density, kg/m3	uncertainty
303.15	712.9	0.3
313.15	702.5	0.3
323.15	691.9	0.3

System: tetrahydrofuran; phases: Liquid
Fixed: Pressure, kPa = 101.3
Property: Speed of sound, m/s (Liquid); method: Linear variable-path acoustic interferometer
Temperature, K	Speed of sound, m/s	uncertainty
303.15	1254	2
313.15	1207	2
323.15	1165	2

System: tetrahydrofuran; phases: Liquid
Fixed: Pressure, kPa = 101.3
Property: Mass density, kg/m3 (Liquid); method: Pycnometric method
Temperature, K	Mass density, kg/m3	uncertainty
303.15	876.9	0.3
313.15	865.7	0.3
323.15	854.8	0.3

System: N,N-dimethylaniline; phases: Liquid
Fixed: Pressure, kPa = 101.3
Property: Speed of sound, m/s (Liquid); method: Linear variable-path acoustic interferometer
Temperature, K	Speed of sound, m/s	uncertainty
303.15	1468	3
313.15	1431	3
323.15	1393	3

System: N,N-dimethylaniline; phases: Liquid
Fixed: Pressure, kPa = 101.3
Property: Mass density, kg/m3 (Liquid); method: Pycnometric method
Temperature, K	Mass density, kg/m3	uncertainty
303.15	948.4	0.3
313.15	939.8	0.3
323.15	931.5	0.4

System: N,N-diethylaniline; phases: Liquid
Fixed: Pressure, kPa = 101.3
Property: Speed of sound, m/s (Liquid); method: Linear variable-path acoustic interferometer
Temperature, K	Speed of sound, m/s	uncertainty
303.15	1434	3
313.15	1396	3
323.15	1358	3

System: N,N-diethylaniline; phases: Liquid
Fixed: Pressure, kPa = 101.3
Property: Mass density, kg/m3 (Liquid); method: Pycnometric method
Temperature, K	Mass density, kg/m3	uncertainty
303.15	926.2	0.3
313.15	917.6	0.3
323.15	909.2	0.4

System: diisopropyl ether + N,N-dimethylaniline; phases: Liquid
Fixed: Pressure, kPa = 101
Property: Speed of sound, m/s (Liquid); method: Linear variable-path acoustic interferometer
Temperature, K	Mole fraction of diisopropyl ether	Speed of sound, m/s	uncertainty
303.15	0	1468	3
303.15	0.0741	1430	3
303.15	0.1589	1385	3
303.15	0.2428	1342	3
303.15	0.3355	1296	2
303.15	0.4294	1250	2
303.15	0.5338	1199	2
303.15	0.6362	1149	2
303.15	0.7466	1096	2
303.15	0.8676	1038	2
303.15	1	976	2
313.15	0	1431	3
313.15	0.0741	1396	3
313.15	0.1589	1353	3
313.15	0.2428	1311	2
313.15	0.3355	1262	2
313.15	0.4294	1214	2
313.15	0.5338	1161	2
313.15	0.6362	1112	2
313.15	0.7466	1059	2
313.15	0.8676	1000	2
313.15	1	932	2
323.15	0	1393	3
323.15	0.0741	1360	3
323.15	0.1589	1318	2
323.15	0.2428	1277	2
323.15	0.3355	1229	2
323.15	0.4294	1182	2
323.15	0.5338	1128	2
323.15	0.6362	1078	2
323.15	0.7466	1024	2
323.15	0.8676	961	2
323.15	1	889	2

System: diisopropyl ether + N,N-dimethylaniline; phases: Liquid
Fixed: Pressure, kPa = 101
Property: Mass density, kg/m3 (Liquid); method: Pycnometric method
Temperature, K	Mole fraction of diisopropyl ether	Mass density, kg/m3	uncertainty
303.15	0	948.4	0.3
303.15	0.0741	932.6	0.3
303.15	0.1589	914	0.3
303.15	0.2428	895.3	0.3
303.15	0.3355	874.3	0.3
303.15	0.4294	852.6	0.3
303.15	0.5338	827.8	0.3
303.15	0.6362	802.8	0.3
303.15	0.7466	775.2	0.3
303.15	0.8676	744.8	0.3
303.15	1	712.9	0.3
313.15	0	939.8	0.3
313.15	0.0741	924.8	0.3
313.15	0.1589	906.5	0.3
313.15	0.2428	887.5	0.3
313.15	0.3355	866.2	0.3
313.15	0.4294	844.2	0.3
313.15	0.5338	819.2	0.3
313.15	0.6362	794.1	0.3
313.15	0.7466	766.4	0.3
313.15	0.8676	735.7	0.3
313.15	1	702.5	0.3
323.15	0	931.5	0.4
323.15	0.0741	916.9	0.4
323.15	0.1589	898.6	0.4
323.15	0.2428	879.6	0.4
323.15	0.3355	858.3	0.4
323.15	0.4294	836.3	0.4
323.15	0.5338	811.5	0.3
323.15	0.6362	786.4	0.3
323.15	0.7466	758.5	0.3
323.15	0.8676	726.9	0.3
323.15	1	691.9	0.3

System: N,N-diethylaniline + diisopropyl ether; phases: Liquid
Fixed: Pressure, kPa = 101
Property: Speed of sound, m/s (Liquid); method: Linear variable-path acoustic interferometer
Temperature, K	Mole fraction of diisopropyl ether	Speed of sound, m/s	uncertainty
303.15	0	1434	3
303.15	0.078	1403	3
303.15	0.1606	1370	3
303.15	0.2581	1330	3
303.15	0.3421	1295	2
303.15	0.4336	1255	2
303.15	0.5341	1209	2
303.15	0.6457	1156	2
303.15	0.7545	1103	2
303.15	0.8762	1042	2
303.15	1	976	2
313.15	0	1396	3
313.15	0.078	1367	3
313.15	0.1606	1336	3
313.15	0.2581	1296	2
313.15	0.3421	1260	2
313.15	0.4336	1218	2
313.15	0.5341	1171	2
313.15	0.6457	1117	2
313.15	0.7545	1063	2
313.15	0.8762	1000	2
313.15	1	932	2
323.15	0	1358	3
323.15	0.078	1332	3
323.15	0.1606	1302	2
323.15	0.2581	1261	2
323.15	0.3421	1224	2
323.15	0.4336	1182	2
323.15	0.5341	1134	2
323.15	0.6457	1080	2
323.15	0.7545	1023	2
323.15	0.8762	958	2
323.15	1	889	2

System: N,N-diethylaniline + diisopropyl ether; phases: Liquid
Fixed: Pressure, kPa = 101
Property: Mass density, kg/m3 (Liquid); method: Pycnometric method
Temperature, K	Mole fraction of diisopropyl ether	Mass density, kg/m3	uncertainty
303.15	0	926.2	0.3
303.15	0.078	914.4	0.3
303.15	0.1606	901	0.3
303.15	0.2581	884	0.3
303.15	0.3421	868.5	0.3
303.15	0.4336	850.7	0.3
303.15	0.5341	829.8	0.3
303.15	0.6457	804.7	0.3
303.15	0.7545	778.3	0.3
303.15	0.8762	746.7	0.3
303.15	1	712.9	0.3
313.15	0	917.6	0.3
313.15	0.078	906.8	0.3
313.15	0.1606	893.6	0.3
313.15	0.2581	876.7	0.3
313.15	0.3421	861.1	0.3
313.15	0.4336	843	0.3
313.15	0.5341	822.1	0.3
313.15	0.6457	797.1	0.3
313.15	0.7545	770.6	0.3
313.15	0.8762	738.3	0.3
313.15	1	702.5	0.3
323.15	0	909.2	0.4
323.15	0.078	899	0.4
323.15	0.1606	886.6	0.4
323.15	0.2581	870.2	0.3
323.15	0.3421	854.7	0.3
323.15	0.4336	836.7	0.3
323.15	0.5341	815.7	0.3
323.15	0.6457	790.6	0.3
323.15	0.7545	764	0.3
323.15	0.8762	730.8	0.3
323.15	1	691.9	0.3

System: tetrahydrofuran + N,N-dimethylaniline; phases: Liquid
Fixed: Pressure, kPa = 101
Property: Speed of sound, m/s (Liquid); method: Linear variable-path acoustic interferometer
Temperature, K	Mole fraction of tetrahydrofuran	Speed of sound, m/s	uncertainty
303.15	0	1468	3
303.15	0.0683	1459	3
303.15	0.1883	1439	3
303.15	0.2797	1423	3
303.15	0.389	1403	3
303.15	0.4723	1387	3
303.15	0.5757	1365	3
303.15	0.6813	1340	3
303.15	0.7866	1314	2
303.15	0.8909	1287	2
303.15	1	1254	2
313.15	0	1431	3
313.15	0.0683	1424	3
313.15	0.1883	1408	3
313.15	0.2797	1391	3
313.15	0.389	1370	3
313.15	0.4723	1354	3
313.15	0.5757	1331	3
313.15	0.6813	1304	2
313.15	0.7866	1276	2
313.15	0.8909	1246	2
313.15	1	1207	2
323.15	0	1393	3
323.15	0.0683	1391	3
323.15	0.1883	1376	3
323.15	0.2797	1359	3
323.15	0.389	1337	3
323.15	0.4723	1319	2
323.15	0.5757	1294	2
323.15	0.6813	1267	2
323.15	0.7866	1238	2
323.15	0.8909	1206	2
323.15	1	1165	2

System: tetrahydrofuran + N,N-dimethylaniline; phases: Liquid
Fixed: Pressure, kPa = 101
Property: Mass density, kg/m3 (Liquid); method: Pycnometric method
Temperature, K	Mole fraction of tetrahydrofuran	Mass density, kg/m3	uncertainty
303.15	0	948.4	0.3
303.15	0.0683	945.8	0.3
303.15	0.1883	940.8	0.3
303.15	0.2797	936.7	0.3
303.15	0.389	931	0.3
303.15	0.4723	926.2	0.3
303.15	0.5757	919.3	0.3
303.15	0.6813	910.9	0.3
303.15	0.7866	901.1	0.3
303.15	0.8909	890.1	0.3
303.15	1	876.9	0.3
313.15	0	939.8	0.3
313.15	0.0683	937.5	0.3
313.15	0.1883	932.9	0.3
313.15	0.2797	928.6	0.3
313.15	0.389	922.9	0.3
313.15	0.4723	918	0.3
313.15	0.5757	911.1	0.3
313.15	0.6813	902.8	0.3
313.15	0.7866	893.2	0.3
313.15	0.8909	881.4	0.3
313.15	1	865.7	0.3
323.15	0	931.5	0.4
323.15	0.0683	929.5	0.4
323.15	0.1883	925.2	0.4
323.15	0.2797	921.1	0.4
323.15	0.389	915.3	0.4
323.15	0.4723	910.2	0.4
323.15	0.5757	903	0.4
323.15	0.6813	894.4	0.4
323.15	0.7866	884.2	0.4
323.15	0.8909	871.7	0.3
323.15	1	854.8	0.3

System: N,N-diethylaniline + tetrahydrofuran; phases: Liquid
Fixed: Pressure, kPa = 101
Property: Speed of sound, m/s (Liquid); method: Linear variable-path acoustic interferometer
Temperature, K	Mole fraction of tetrahydrofuran	Speed of sound, m/s	uncertainty
303.15	0	1434	3
303.15	0.0933	1428	3
303.15	0.1907	1418	3
303.15	0.2899	1405	3
303.15	0.3879	1390	3
303.15	0.4892	1372	3
303.15	0.5937	1352	3
303.15	0.6904	1331	3
303.15	0.7948	1307	2
303.15	0.8935	1283	2
303.15	1	1254	2
313.15	0	1396	3
313.15	0.0933	1390	3
313.15	0.1907	1379	3
313.15	0.2899	1366	3
313.15	0.3879	1351	3
313.15	0.4892	1333	3
313.15	0.5937	1312	2
313.15	0.6904	1291	2
313.15	0.7948	1265	2
313.15	0.8935	1240	2
313.15	1	1207	2
323.15	0	1358	3
323.15	0.0933	1354	3
323.15	0.1907	1343	3
323.15	0.2899	1330	3
323.15	0.3879	1315	2
323.15	0.4892	1296	2
323.15	0.5937	1275	2
323.15	0.6904	1252	2
323.15	0.7948	1226	2
323.15	0.8935	1200	2
323.15	1	1165	2

System: N,N-diethylaniline + tetrahydrofuran; phases: Liquid
Fixed: Pressure, kPa = 101
Property: Mass density, kg/m3 (Liquid); method: Pycnometric method
Temperature, K	Mole fraction of tetrahydrofuran	Mass density, kg/m3	uncertainty
303.15	0	926.2	0.3
303.15	0.0933	923.9	0.3
303.15	0.1907	921.2	0.3
303.15	0.2899	918.2	0.3
303.15	0.3879	914.9	0.3
303.15	0.4892	910.8	0.3
303.15	0.5937	906	0.3
303.15	0.6904	900.9	0.3
303.15	0.7948	894.3	0.3
303.15	0.8935	886.9	0.3
303.15	1	876.9	0.3
313.15	0	917.6	0.3
313.15	0.0933	915.7	0.3
313.15	0.1907	913.3	0.3
313.15	0.2899	910.4	0.3
313.15	0.3879	907.1	0.3
313.15	0.4892	903.2	0.3
313.15	0.5937	898.4	0.3
313.15	0.6904	893.1	0.3
313.15	0.7948	886.2	0.3
313.15	0.8935	877.9	0.3
313.15	1	865.7	0.3
323.15	0	909.2	0.4
323.15	0.0933	907.8	0.4
323.15	0.1907	905.7	0.4
323.15	0.2899	903	0.4
323.15	0.3879	899.6	0.4
323.15	0.4892	895.3	0.4
323.15	0.5937	890.5	0.4
323.15	0.6904	885.1	0.4
323.15	0.7948	878.1	0.3
323.15	0.8935	869.2	0.3
323.15	1	854.8	0.3
