Measured thermophysical data. Fast scanning calorimetry: Sublimation thermodynamics of low volatile and thermally unstable compounds
Source: Thermochim. Acta, 2019, 10.1016/j.tca.2019.05.008
Compound 1: 3,7-dihydro-1,3-dimethyl-1H-purine-2,6-dione, C7H8N4O2, InChI=1S/C7H8N4O2/c1-10-5-4(8-3-9-5)6(12)11(2)7(10)13/h3H,1-2H3,(H,8,9), purity 99%
Compound 2: caffeine, C8H10N4O2, InChI=1S/C8H10N4O2/c1-10-4-9-6-5(10)7(13)12(3)8(14)11(6)2/h4H,1-3H3, purity 99%
Compound 3: 9,10(9H,10H)-anthracenedione, C14H8O2, InChI=1S/C14H8O2/c15-13-9-5-1-2-6-10(9)14(16)12-8-4-3-7-11(12)13/h1-8H, purity 98%

System: 3,7-dihydro-1,3-dimethyl-1H-purine-2,6-dione; phases: Crystal, Gas
Property: Vapor or sublimation pressure, kPa (Crystal); method: Fast Scanning Calorimeter Method
Temperature, K	Vapor or sublimation pressure, kPa	uncertainty
441.6	0.0028	0.0022
447.2	0.0033	0.0026
449.1	0.0047	0.0038
451	0.0061	0.0048
457	0.0072	0.0056
459	0.0108	0.0082
460.4	0.0109	0.0082
466.7	0.0133	0.0096
468.9	0.0192	0.0141
469.8	0.021	0.0153
476.5	0.0261	0.0185
478.7	0.0365	0.0255
479.2	0.0409	0.0285
486.2	0.0532	0.036
488.6	0.0748	0.0503
488.6	0.0774	0.0519
496	0.1094	0.0712
498	0.1408	0.0909
498.5	0.1485	0.096
505.7	0.1888	0.1184
507.4	0.2298	0.1433
508.3	0.2823	0.1753
515.5	0.3649	0.2205
516.8	0.3867	0.2324
518.2	0.4909	0.2935
525.2	0.563	0.3279
526.2	0.8232	0.4776
528.1	0.8994	0.5181
535	1.0014	0.5623
537.9	1.6189	0.8991

System: 3,7-dihydro-1,3-dimethyl-1H-purine-2,6-dione; phases: Crystal
Fixed: Pressure, kPa = 101.325
Property: Molar heat capacity at constant pressure, J/K/mol (Crystal); method: DSC
Temperature, K	Molar heat capacity at constant pressure, J/K/mol	uncertainty
230	159.6	7.4
240	164.8	7.6
250	170	7.9
260	175.1	8.1
270	180.2	8.4
280	185.3	8.6
290	190.3	8.8
300	195.4	9.1
310	200.4	9.3
320	205.3	9.5
330	210.3	9.8
340	215.2	10
350	220.1	10.2
360	224.9	10.4
370	229.7	10.7
380	234.5	10.9
390	239.3	11.1
400	244	11.3
410	248.7	11.5
420	253.4	11.7

System: caffeine; phases: Crystal 1, Gas
Property: Vapor or sublimation pressure, kPa (Crystal 1); method: Fast Scanning Calorimeter Method
Temperature, K	Vapor or sublimation pressure, kPa	uncertainty
394.7	0.0031	0.0026
398.4	0.0035	0.003
399.8	0.0039	0.0032
404.1	0.0067	0.0054
408.2	0.0092	0.0074
409.7	0.0099	0.0078
413.5	0.0116	0.009
417.9	0.0158	0.0121
419.5	0.019	0.0145
422.8	0.023	0.0171
427.7	0.0336	0.0245
429.4	0.0376	0.0273
432.2	0.0467	0.0334
437.4	0.0651	0.0454
439.3	0.0736	0.0511
441.6	0.0874	0.0599
447.2	0.1252	0.0837
449.1	0.1611	0.1068
451	0.1622	0.1066
457	0.2346	0.1503
459	0.2609	0.1658
460.4	0.2914	0.184
466.7	0.4121	0.2535
468.9	0.4821	0.2938
469.8	0.4864	0.2952
476.5	0.7169	0.4232
478.7	0.8343	0.4878
479.2	0.9112	0.5317
486.2	1.0781	0.6116
488.6	1.415	0.7949

System: 9,10(9H,10H)-anthracenedione; phases: Crystal, Gas
Property: Vapor or sublimation pressure, kPa (Crystal); method: Fast Scanning Calorimeter Method
Temperature, K	Vapor or sublimation pressure, kPa	uncertainty
422.8	0.0135	0.01
427.7	0.0152	0.0111
429.2	0.0165	0.0119
432.2	0.0209	0.0149
437.4	0.0345	0.0241
439.1	0.0354	0.0245
441.6	0.0381	0.0261
447.2	0.0511	0.0342
448.9	0.0693	0.0461
451	0.0839	0.0551
457	0.1042	0.0668
458.8	0.148	0.0942
460.4	0.1696	0.1071
466.7	0.1977	0.1216
468.7	0.2749	0.1675
469.8	0.2497	0.1514
476.5	0.3235	0.191
478.5	0.487	0.2851

System: 9,10(9H,10H)-anthracenedione; phases: Crystal
Fixed: Pressure, kPa = 101.325
Property: Molar heat capacity at constant pressure, J/K/mol (Crystal); method: DSC
Temperature, K	Molar heat capacity at constant pressure, J/K/mol	uncertainty
230	182.5	8.5
240	188.9	8.8
250	195.4	9.1
260	201.9	9.4
270	208.3	9.7
280	214.8	10
290	221.3	10.3
300	227.8	10.6
310	234.3	10.9
320	240.8	11.2
330	247.3	11.5
340	253.8	11.8
350	260.4	12.1
360	266.9	12.4
370	273.5	12.7
380	280	13
390	286.6	13.3
400	293.2	13.6
410	299.8	13.9
420	306.4	14.2
