Measured thermophysical data. Pressurization effects on the polymorphic forms of famotidine
Source: Thermochim. Acta, 2005, 10.1016/j.tca.2004.12.009
Compound 1: famotidine, C8H15N7O2S3, InChI=1S/C8H15N7O2S3/c9-6(15-20(12,16)17)1-2-18-3-5-4-19-8(13-5)14-7(10)11/h4H,1-3H2,(H2,9,15)(H2,12,16,17)(H4,10,11,13,14), purity 99.5%

System: famotidine; phases: Metastable crystal, Liquid, Air at 1 atmosphere
Property: Molar enthalpy of transition or fusion, kJ/mol (Metastable crystal); method: DSC:FP
Molar enthalpy of transition or fusion, kJ/mol	uncertainty
51.190964756	3.441976536

System: famotidine; phases: Crystal 1, Liquid, Air at 1 atmosphere
Property: Molar enthalpy of transition or fusion, kJ/mol (Crystal 1); method: DSC:FP
Molar enthalpy of transition or fusion, kJ/mol	uncertainty
55.409073256	1.78814055532

System: famotidine; phases: Metastable crystal, Liquid, Air at 1 atmosphere
Property: Normal melting temperature, K (Metastable crystal); method: DTA:corrimp:FP
Normal melting temperature, K	uncertainty
436.05	0.9

System: famotidine; phases: Crystal 1, Liquid, Air at 1 atmosphere
Property: Normal melting temperature, K (Crystal 1); method: DTA:corrimp:FP
Normal melting temperature, K	uncertainty
443.75	0.6
