Measured thermophysical data. Dilution thermodynamics of the biologically relevant cation mixtures
Source: Thermochim. Acta, 2014, 10.1016/j.tca.2013.10.019
Compound 1: sodium chloride, ClNa, InChI=1S/ClH.Na/h1H;/q;+1/p-1, purity 99%
Compound 2: water, H2O, InChI=1S/H2O/h1H2, purity 99.8%
Compound 3: calcium chloride, CaCl2, InChI=1S/Ca.2ClH/h;2*1H/q+2;;/p-2, purity 97%
Compound 4: potassium chloride, ClK, InChI=1S/ClH.K/h1H;/q;+1/p-1, purity 99.5%
Compound 5: magnesium chloride, Cl2Mg, InChI=1S/2ClH.Mg/h2*1H;/q;;+2/p-2, purity 99%

System: sodium chloride + water; phases: Liquid
Fixed: Initial molality of solute, mol/kg = 1.5
Fixed: Temperature, K = 298.15
Fixed: Pressure, kPa = 101.325
Property: Molar enthalpy of dilution, kJ/mol (Liquid); method: isothermal titration calorimetry
Final molality of solute, mol/kg	Molar enthalpy of dilution, kJ/mol	uncertainty
0.0204	0.4835856	0.0485343
0.0384	0.5392229	0.0541114
0.056	0.6678437	0.0670047
0.0732	0.7109607	0.071327
0.09	0.7005672	0.0702851
0.1064	0.7038013	0.0706093
0.1224	0.7040503	0.0706342
0.1381	0.6990406	0.0701321
0.1534	0.692229	0.0694492
0.1683	0.6856357	0.0687883
0.183	0.6777616	0.0679989
0.1973	0.6706647	0.0672875
0.2113	0.6562638	0.0658439
0.225	0.6480176	0.0650173
0.2384	0.6369735	0.0639102

System: water + calcium chloride; phases: Liquid
Fixed: Initial molality of solute, mol/kg = 1.5
Fixed: Temperature, K = 298.15
Fixed: Pressure, kPa = 101.325
Property: Molar enthalpy of dilution, kJ/mol (Liquid); method: isothermal titration calorimetry
Final molality of solute, mol/kg	Molar enthalpy of dilution, kJ/mol	uncertainty
0.0204	-2.8084877	0.2816008
0.0384	-2.3191313	0.2325432
0.056	-2.0670381	0.2072711
0.0732	-1.8968987	0.1902148
0.09	-1.7734111	0.1778353
0.1064	-1.6784454	0.1683151
0.1224	-1.5732825	0.1577726
0.1381	-1.5019162	0.1506182
0.1534	-1.4363059	0.1440409
0.1683	-1.3773213	0.1381278
0.183	-1.3251543	0.1328981
0.1973	-1.2777153	0.1281425
0.2113	-1.2315128	0.1235108
0.225	-1.1890213	0.1192511
0.2384	-1.1638515	0.1167279

System: potassium chloride + water; phases: Liquid
Fixed: Temperature, K = 298.15
Fixed: Pressure, kPa = 101.325
Property: Molar enthalpy of dilution, kJ/mol (Liquid); method: isothermal titration calorimetry
Initial molality of solute, mol/kg	Final molality of solute, mol/kg	Molar enthalpy of dilution, kJ/mol	uncertainty
1.5	0.0204	0.5768817	0.0578864
1.5	0.0384	0.657757	0.0659936
1.5	0.056	0.689834	0.0692091
1.5	0.0732	0.7075981	0.0709899
1.5	0.09	0.713118	0.0715432
1.5	0.1064	0.7161497	0.0718471
1.5	0.1224	0.7082246	0.0710527
1.5	0.1381	0.7018827	0.0704169
1.5	0.1534	0.6967837	0.0699058
1.5	0.1683	0.6880865	0.0690339
1.5	0.183	0.6783578	0.0680587
1.5	0.1973	0.6695829	0.0671791
1.5	0.2113	0.6551304	0.0657303
1.5	0.225	0.642124	0.0644265
1.5	0.2384	0.632018	0.0634134
1	0.0136	0.1851411	0.0186236
1	0.0256	0.2524702	0.0253698
1	0.0373	0.2834941	0.0284788
1	0.0488	0.2980303	0.0299357
1	0.06	0.3086766	0.0310027
1	0.0709	0.3181655	0.0319537
1	0.0816	0.3228715	0.0324253
1	0.092	0.3239855	0.032537
1	0.1022	0.3265154	0.0327905
1	0.1122	0.3266699	0.032806
1	0.122	0.3242586	0.0325644
1	0.1315	0.3079469	0.0309295
1	0.1409	0.3193021	0.0320676
1	0.15	0.3159668	0.0317333
1	0.1589	0.3147719	0.0316135
0.5	0.0068	-0.0929594	0.0093956
0.5	0.0128	-0.0346578	0.0035944
0.5	0.0187	-0.0003822	0.0007783
0.5	0.0244	0.0274974	0.002894
0.5	0.03	0.0456425	0.0046791
0.5	0.0355	0.0607488	0.0061804
0.5	0.0408	0.0715616	0.0072583
0.5	0.046	0.0773691	0.007838
0.5	0.0511	0.0861601	0.0087161
0.5	0.0561	0.0915716	0.0092569
0.5	0.061	0.092804	0.0093801
0.5	0.0658	0.0989002	0.0099896
0.5	0.0704	0.0993517	0.0100347
0.5	0.075	0.1062144	0.0107211
0.5	0.0795	0.1075076	0.0108505

System: water + magnesium chloride; phases: Liquid
Fixed: Initial molality of solute, mol/kg = 1
Fixed: Temperature, K = 298.15
Fixed: Pressure, kPa = 101.325
Property: Molar enthalpy of dilution, kJ/mol (Liquid); method: isothermal titration calorimetry
Final molality of solute, mol/kg	Molar enthalpy of dilution, kJ/mol	uncertainty
0.0204	-4.7515373	0.4763905
0.0384	-4.1953788	0.4206359
0.056	-3.943153	0.3953504
0.0732	-3.5480422	0.3557407
0.09	-3.3874983	0.3396463
0.1064	-3.2391472	0.3247741
0.1224	-3.110688	0.3118962
0.1381	-2.9962029	0.3004191
0.1534	-2.8956723	0.290341
0.1683	-2.7914792	0.2798957
0.183	-2.7049046	0.2712166
0.1973	-2.6239458	0.2631006
0.2113	-2.5513509	0.255823
0.225	-2.4825255	0.2489233
0.2384	-2.4232593	0.2429819
