Measured thermophysical data. Structure and properties of congruent melting 18-crown-6 crystalline hydrates
Source: Thermochim. Acta, 2010, 10.1016/j.tca.2010.07.009
Compound 1: 1,4,7,10,13,16-hexaoxacyclooctadecane, C12H24O6, InChI=1S/C12H24O6/c1-2-14-5-6-16-9-10-18-12-11-17-8-7-15-4-3-13-1/h1-12H2
Compound 2: 1,4,7,10,13,16-hexaoxacyclooctadecane, hydrate (1:4), C12H32O10, InChI=1S/C12H24O6.4H2O/c1-2-14-5-6-16-9-10-18-12-11-17-8-7-15-4-3-13-1;;;;/h1-12H2;4*1H2
Compound 3: 18-crown-6 hexahydrate, C12H36O12, InChI=1S/C12H24O6.6H2O/c1-2-14-5-6-16-9-10-18-12-11-17-8-7-15-4-3-13-1;;;;;;/h1-12H2;6*1H2

System: 1,4,7,10,13,16-hexaoxacyclooctadecane; phases: Crystal, Liquid, Air at 1 atmosphere
Property: Normal melting temperature, K (Crystal); method: DTA
Normal melting temperature, K	uncertainty
312.25	0.5

System: 1,4,7,10,13,16-hexaoxacyclooctadecane, hydrate (1:4); phases: Crystal
Property: Mass density, kg/m3 (Crystal); method: X-ray diffraction
Temperature, K	Pressure, kPa	Mass density, kg/m3	uncertainty
150	101.325	1247	12

System: 18-crown-6 hexahydrate; phases: Crystal
Property: Mass density, kg/m3 (Crystal); method: X-ray diffraction
Temperature, K	Pressure, kPa	Mass density, kg/m3	uncertainty
200	101.325	1200	11
