Measured thermophysical data. Standard Molar Enthalpies of Formation for the Two Mixed Alkali-Alkaline Earth Metal Borates of  LiBaB9O15 and NaBaB9O15
Source: Thermochim. Acta, 2013, 10.1016/j.tca.2013.04.009
Compound 1: hydrogen chloride, ClH, InChI=1S/ClH/h1H
Compound 2: boric acid, BH3O3, InChI=1S/BH3O3/c2-1(3)4/h2-4H
Compound 3: barium hydroxide octahydrate, BaH18O10, InChI=1S/Ba.10H2O/h;10*1H2/q+2;;;;;;;;;;/p-2
Compound 4: lithium chloride monohydrate, ClH2LiO, InChI=1S/ClH.Li.H2O/h1H;;1H2/q;+1;/p-1
Compound 5: water, H2O, InChI=1S/H2O/h1H2
Compound 6: sodium chloride, ClNa, InChI=1S/ClH.Na/h1H;/q;+1/p-1
Compound 7: lithium, Li, InChI=1S/Li
Compound 8: barium, Ba, InChI=1S/Ba
Compound 9: boron, B, InChI=1S/B
Compound 10: oxygen, O2, InChI=1S/O2/c1-2
Compound 11: sodium, Na, InChI=1S/Na
Compound 12: barium boron lithium oxide (BaB9LiO15), B9BaLiO15, InChI=1S/9B.Ba.Li.15O/q9*+3;+2;+1;15*-2, purity 99%
Compound 13: barium boron sodium oxide (BaB9NaO15), B9BaNaO15, InChI=1S/9B.Ba.Na.15O/q9*+3;+2;+1;15*-2, purity 99%

Reaction: 1 hydrogen chloride + -9 boric acid + -1 barium hydroxide octahydrate + -1 lithium chloride monohydrate + 1 barium boron lithium oxide (BaB9LiO15) + 23 water
Property: Molar enthalpy of reaction, kJ/mol
-371.69

Reaction: 1 hydrogen chloride + -1 sodium chloride + -9 boric acid + -1 barium hydroxide octahydrate + 1 barium boron sodium oxide (BaB9NaO15) + 22 water
Property: Molar enthalpy of reaction, kJ/mol
-322.92

Reaction: -1 lithium + -1 barium + -9 boron + 1 barium boron lithium oxide (BaB9LiO15) + -7.5 oxygen
Property: Molar enthalpy of reaction, kJ/mol
-6796.8

Reaction: -1 sodium + -1 barium + -9 boron + 1 barium boron sodium oxide (BaB9NaO15) + -7.5 oxygen
Property: Molar enthalpy of reaction, kJ/mol
-6829.9
