Measured thermophysical data. Thermophysical study of the furan family
Source: Thermochim. Acta, 2015, 10.1016/j.tca.2015.08.013
Compound 1: furan, C4H4O, InChI=1S/C4H4O/c1-2-4-5-3-1/h1-4H, purity 99%
Compound 2: 2-methylfuran, C5H6O, InChI=1S/C5H6O/c1-5-3-2-4-6-5/h2-4H,1H3, purity 99%
Compound 3: 2,5-dimethylfuran, C6H8O, InChI=1S/C6H8O/c1-5-3-4-6(2)7-5/h3-4H,1-2H3, purity 99%

System: furan; phases: Liquid
Property: Mass density, kg/m3 (Liquid); method: Vibrating tube method
Pressure, kPa	Temperature, K	Mass density, kg/m3	uncertainty
100	283.15	952.36	0.29
100	288.15	945.58	0.29
100	293.15	938.74	0.29
100	298.15	931.84	0.29
100	303.15	924.86	0.29
2500	283.15	954.38	0.29
2500	288.15	947.81	0.29
2500	293.15	940.99	0.29
2500	298.15	934.31	0.29
2500	303.15	927.4	0.3
2500	308.15	920.6	0.3
2500	313.15	913.48	0.3
2500	318.15	906.59	0.3
2500	323.15	899.25	0.3
2500	328.15	892.18	0.3
2500	333.15	884.69	0.3
2500	338.15	877.34	0.3
5000	283.15	956.94	0.3
5000	288.15	950.42	0.3
5000	293.15	943.7	0.3
5000	298.15	937.14	0.3
5000	303.15	930.33	0.3
5000	308.15	923.71	0.3
5000	313.15	916.68	0.3
5000	318.15	909.88	0.3
5000	323.15	902.71	0.3
5000	328.15	895.9	0.31
5000	333.15	888.51	0.31
5000	338.15	881.44	0.31
7500	283.15	959.39	0.3
7500	288.15	953.03	0.3
7500	293.15	946.38	0.3
7500	298.15	939.92	0.3
7500	303.15	933.21	0.3
7500	308.15	926.73	0.31
7500	313.15	919.8	0.31
7500	318.15	913.18	0.31
7500	323.15	906.1	0.31
7500	328.15	899.49	0.31
7500	333.15	892.17	0.31
7500	338.15	885.37	0.31
10000	283.15	961.81	0.3
10000	288.15	955.59	0.3
10000	293.15	948.97	0.3
10000	298.15	942.68	0.31
10000	303.15	936	0.31
10000	308.15	929.66	0.31
10000	313.15	922.81	0.31
10000	318.15	916.44	0.31
10000	323.15	909.42	0.32
10000	328.15	902.97	0.32
10000	333.15	895.74	0.32
10000	338.15	889.16	0.32
20000	283.15	970.97	0.31
20000	288.15	965.03	0.31
20000	293.15	958.75	0.31
20000	298.15	952.79	0.32
20000	303.15	946.46	0.32
20000	308.15	940.5	0.32
20000	313.15	934.04	0.33
20000	318.15	928.06	0.33
20000	323.15	921.53	0.33
20000	328.15	915.52	0.34
20000	333.15	908.84	0.34
20000	338.15	902.71	0.34
30000	283.15	979.35	0.31
30000	288.15	973.69	0.31
30000	293.15	967.71	0.32
30000	298.15	961.99	0.32
30000	303.15	956.04	0.33
30000	308.15	950.3	0.33
30000	313.15	944.27	0.34
30000	318.15	938.56	0.34
30000	323.15	932.47	0.35
30000	328.15	926.72	0.35
30000	333.15	920.52	0.36
30000	338.15	914.72	0.36
40000	283.15	987.2	0.3
40000	288.15	981.69	0.31
40000	293.15	976.04	0.32
40000	298.15	970.53	0.32
40000	303.15	964.82	0.33
40000	308.15	959.34	0.33
40000	313.15	953.57	0.34
40000	318.15	948.09	0.35
40000	323.15	942.39	0.35
40000	328.15	936.8	0.36
40000	333.15	931.04	0.37
40000	338.15	925.5	0.37
50000	283.15	994.5	0.3
50000	288.15	989.18	0.3
50000	293.15	983.77	0.31
50000	298.15	978.42	0.32
50000	303.15	972.99	0.33
50000	308.15	967.69	0.33
50000	313.15	962.21	0.34
50000	318.15	956.88	0.35
50000	323.15	951.44	0.36
50000	328.15	946.08	0.36
50000	333.15	940.62	0.37
50000	338.15	935.32	0.38
60000	283.15	1001.42	0.29
60000	288.15	996.21	0.3
60000	293.15	990.98	0.3
60000	298.15	985.81	0.31
60000	303.15	980.62	0.32
60000	308.15	975.44	0.33
60000	313.15	970.23	0.34
60000	318.15	965.06	0.35
60000	323.15	959.86	0.36
60000	328.15	954.71	0.37
60000	333.15	949.48	0.37
60000	338.15	944.34	0.38
99	278.15	959.086	0.233
99	280.65	955.729	0.233
99	283.15	952.358	0.233
99	285.65	948.976	0.233
99	288.15	945.579	0.233
99	290.65	942.167	0.233
99	293.15	938.739	0.233
99	295.65	935.294	0.233
99	298.15	931.835	0.234
99	300.65	928.357	0.234
99	303.15	924.861	0.234

System: furan; phases: Liquid
Fixed: Pressure, kPa = 101.325
Property: Refractive index (Na D-line) (Liquid); method: Standard Abbe refractometry
Temperature, K	Refractive index (Na D-line)	uncertainty
283.15	1.427839	0.000369
285.65	1.426246	0.000369
288.15	1.424628	0.000369
290.65	1.423026	0.000369
293.15	1.421411	0.000369
295.65	1.419789	0.000369
298.15	1.418142	0.000369
300.65	1.416505	0.000369
303.15	1.414849	0.000369

System: furan; phases: Liquid
Fixed: Pressure, kPa = 101.325
Property: Speed of sound, m/s (Liquid); method: Sing-around technique in a fixed-path interferometer
Temperature, K	Speed of sound, m/s	uncertainty
278.15	1228.11	1.53
280.65	1216.2	1.53
283.15	1204.51	1.53
285.65	1192.75	1.53
288.15	1180.97	1.52
290.65	1169.2	1.52
293.15	1157.43	1.52
295.65	1145.28	1.52
298.15	1133.07	1.52
300.65	1120.87	1.52
303.15	1108.77	1.51

System: furan; phases: Liquid, Air at 1 atmosphere
Property: Surface tension liquid-gas, N/m (Liquid); method: Drop volume
Temperature, K	Surface tension liquid-gas, N/m	uncertainty
278.15	0.02603	0.00023
280.65	0.02569	0.00023
283.15	0.02532	0.00023
285.65	0.02497	0.00023
288.15	0.02459	0.00022
290.65	0.02418	0.00022
293.15	0.02379	0.00022
295.65	0.02335	0.00022
298.15	0.02294	0.00021
300.65	0.02255	0.00021
303.15	0.02208	0.00021

System: furan; phases: Liquid
Fixed: Pressure, kPa = 101.325
Property: Kinematic viscosity, m2/s (Liquid); method: Capillary tube (Ostwald; Ubbelohde) method
Temperature, K	Kinematic viscosity, m2/s	uncertainty
278.15	4.586e-07	9.9e-09
280.65	4.483e-07	9.7e-09
283.15	4.39e-07	9.5e-09
285.65	4.298e-07	9.3e-09
288.15	4.196e-07	9.1e-09
290.65	4.091e-07	8.9e-09
293.15	3.988e-07	8.6e-09
295.65	3.889e-07	8.4e-09
298.15	3.793e-07	8.2e-09
300.65	3.699e-07	8e-09
303.15	3.606e-07	7.8e-09

System: furan; phases: Liquid
Fixed: Pressure, kPa = 99
Fixed: Frequency, MHz = 2
Property: Relative permittivity at various frequencies (Liquid); method: Parallel plate capacitor
Temperature, K	Relative permittivity at various frequencies	uncertainty
278.15	3.124	0.016
280.65	3.094	0.015
283.15	3.068	0.015
285.65	3.036	0.015
288.15	3.009	0.015
290.65	2.988	0.015
293.15	2.958	0.015
295.65	2.934	0.015
298.15	2.913	0.015
300.65	2.892	0.014
303.15	2.865	0.014

System: furan; phases: Liquid, Gas
Property: Vapor or sublimation pressure, kPa (Liquid); method: Ebulliometric method (Recirculating still)
Temperature, K	Vapor or sublimation pressure, kPa	uncertainty
284.4	45.59	0.21
285.86	48.66	0.211
287.16	51.63	0.212
288.34	54.23	0.212
289.2	56.045	0.214
290.4	59.18	0.215
291.7	62.255	0.215
292.2	63.605	0.214
292.79	64.53	0.216
294.55	69.25	0.219
295.55	72.4	0.221
296.9	76.25	0.222
297.36	77.63	0.223
298.44	80.9	0.225
299.63	84.59	0.227
300.76	88.22	0.229
301.52	90.81	0.231
302.4	93.89	0.232
303.86	99.07	0.235
304.46	101.325	0.237

System: 2-methylfuran; phases: Liquid
Property: Mass density, kg/m3 (Liquid); method: Vibrating tube method
Pressure, kPa	Temperature, K	Mass density, kg/m3	uncertainty
100	283.15	928.13	0.29
100	288.15	922.18	0.29
100	293.15	916.2	0.29
100	298.15	910.18	0.29
100	303.15	904.12	0.29
100	308.15	898.02	0.29
100	313.15	891.87	0.29
100	318.15	885.68	0.29
100	323.15	879.43	0.29
100	328.15	873.12	0.29
100	333.15	866.75	0.29
100	338.15	860.33	0.29
2500	283.15	930.56	0.29
2500	288.15	924.54	0.3
2500	293.15	918.63	0.3
2500	298.15	912.71	0.3
2500	303.15	906.73	0.3
2500	308.15	900.91	0.3
2500	313.15	894.72	0.3
2500	318.15	888.8	0.3
2500	323.15	882.68	0.3
2500	328.15	876.29	0.3
2500	333.15	870.11	0.3
2500	338.15	863.95	0.3
5000	283.15	932.75	0.3
5000	288.15	926.97	0.3
5000	293.15	921.3	0.3
5000	298.15	915.3	0.3
5000	303.15	909.46	0.3
5000	308.15	903.72	0.3
5000	313.15	897.62	0.3
5000	318.15	891.79	0.31
5000	323.15	885.8	0.31
5000	328.15	879.75	0.31
5000	333.15	873.62	0.31
5000	338.15	867.36	0.31
7500	283.15	935.07	0.3
7500	288.15	929.48	0.3
7500	293.15	923.72	0.31
7500	298.15	918	0.31
7500	303.15	912.07	0.31
7500	308.15	906.43	0.31
7500	313.15	900.57	0.31
7500	318.15	894.77	0.31
7500	323.15	888.76	0.31
7500	328.15	882.71	0.31
7500	333.15	876.95	0.32
7500	338.15	870.91	0.32
10000	283.15	937.27	0.31
10000	288.15	931.62	0.31
10000	293.15	926.09	0.31
10000	298.15	920.32	0.31
10000	303.15	914.76	0.31
10000	308.15	909.05	0.31
10000	313.15	903.14	0.32
10000	318.15	897.58	0.32
10000	323.15	891.8	0.32
10000	328.15	885.92	0.32
10000	333.15	880.01	0.32
10000	338.15	874.16	0.33
20000	283.15	945.74	0.32
20000	288.15	940.4	0.32
20000	293.15	934.94	0.32
20000	298.15	929.72	0.33
20000	303.15	924.23	0.33
20000	308.15	918.85	0.33
20000	313.15	913.34	0.34
20000	318.15	907.94	0.34
20000	323.15	902.39	0.34
20000	328.15	896.99	0.35
20000	333.15	891.39	0.35
20000	338.15	886.03	0.35
30000	283.15	953.37	0.33
30000	288.15	948.28	0.33
30000	293.15	943.1	0.34
30000	298.15	937.91	0.34
30000	303.15	932.75	0.35
30000	308.15	927.65	0.35
30000	313.15	922.45	0.35
30000	318.15	917.27	0.36
30000	323.15	911.96	0.36
30000	328.15	906.92	0.37
30000	333.15	901.64	0.37
30000	338.15	896.44	0.38
40000	283.15	960.5	0.33
40000	288.15	955.59	0.34
40000	293.15	950.59	0.34
40000	298.15	945.67	0.35
40000	303.15	940.68	0.36
40000	308.15	935.68	0.36
40000	313.15	930.83	0.37
40000	318.15	925.75	0.37
40000	323.15	920.89	0.38
40000	328.15	915.88	0.39
40000	333.15	910.95	0.39
40000	338.15	905.99	0.4
50000	283.15	967.21	0.33
50000	288.15	962.35	0.34
50000	293.15	957.61	0.35
50000	298.15	952.89	0.35
50000	303.15	948.03	0.36
50000	308.15	943.2	0.37
50000	313.15	938.5	0.38
50000	318.15	933.61	0.38
50000	323.15	929.01	0.39
50000	328.15	924.13	0.4
50000	333.15	919.48	0.41
50000	338.15	914.74	0.41
60000	283.15	973.54	0.33
60000	288.15	968.84	0.34
60000	293.15	964.27	0.35
60000	298.15	959.58	0.36
60000	303.15	955.1	0.36
60000	308.15	950.35	0.37
60000	313.15	945.71	0.38
60000	318.15	941.15	0.39
60000	323.15	936.53	0.4
60000	328.15	931.92	0.41
60000	333.15	927.42	0.42
60000	338.15	922.79	0.42
99	278.15	934.034	0.233
99	280.65	931.092	0.233
99	283.15	928.13	0.233
99	285.65	925.161	0.233
99	288.15	922.181	0.233
99	290.65	919.197	0.233
99	293.15	916.198	0.233
99	295.65	913.193	0.234
99	298.15	910.179	0.234
99	300.65	907.155	0.234
99	303.15	904.121	0.234
99	305.65	901.077	0.234
99	308.15	898.02	0.234
99	310.65	894.953	0.234
99	313.15	891.871	0.234
99	315.65	888.779	0.234
99	318.15	885.676	0.234
99	320.65	882.558	0.235
99	323.15	879.425	0.235
99	325.65	876.278	0.235
99	328.15	873.118	0.235
99	330.65	869.944	0.235
99	333.15	866.753	0.235
99	335.65	863.547	0.235
99	338.15	860.327	0.236

System: 2-methylfuran; phases: Liquid
Fixed: Pressure, kPa = 101.325
Property: Refractive index (Na D-line) (Liquid); method: Standard Abbe refractometry
Temperature, K	Refractive index (Na D-line)	uncertainty
283.15	1.439422	0.000369
285.65	1.437943	0.000369
288.15	1.436443	0.000369
290.65	1.43495	0.000369
293.15	1.433438	0.000369
295.65	1.431944	0.000369
298.15	1.430436	0.000369
300.65	1.428933	0.000369
303.15	1.427423	0.000369
305.65	1.425905	0.000369
308.15	1.424396	0.000369
310.65	1.422893	0.000369
313.15	1.421376	0.000369
315.65	1.419844	0.000369
318.15	1.418307	0.000369
320.65	1.416754	0.000369
323.15	1.415206	0.000369
325.65	1.413665	0.000369
328.15	1.412116	0.000369
330.65	1.410594	0.000369
333.15	1.409073	0.000369
335.65	1.407474	0.000369
338.15	1.405895	0.000369

System: 2-methylfuran; phases: Liquid
Fixed: Pressure, kPa = 101.325
Property: Speed of sound, m/s (Liquid); method: Sing-around technique in a fixed-path interferometer
Temperature, K	Speed of sound, m/s	uncertainty
278.15	1254.76	1.53
280.65	1243.38	1.53
283.15	1231.88	1.53
285.65	1220.36	1.53
288.15	1208.95	1.53
290.65	1197.48	1.53
293.15	1186.05	1.52
295.65	1174.62	1.52
298.15	1163.18	1.52
300.65	1151.92	1.52
303.15	1140.6	1.52
305.65	1129.32	1.52
308.15	1118.06	1.52
310.65	1106.84	1.51
313.15	1095.63	1.51
315.65	1084.44	1.51
318.15	1073.28	1.51
320.65	1062.14	1.51
323.15	1051.03	1.51
325.65	1039.93	1.51
328.15	1028.83	1.5
330.65	1017.73	1.5
333.15	1006.66	1.5
335.65	995.68	1.5
338.15	984.65	1.5

System: 2-methylfuran; phases: Liquid, Air at 1 atmosphere
Property: Surface tension liquid-gas, N/m (Liquid); method: Drop volume
Temperature, K	Surface tension liquid-gas, N/m	uncertainty
278.15	0.02702	0.00024
280.65	0.0266	0.00023
283.15	0.02629	0.00023
285.65	0.026	0.00023
288.15	0.02569	0.00023
290.65	0.02526	0.00023
293.15	0.02498	0.00023
295.65	0.02466	0.00022
298.15	0.02434	0.00022
300.65	0.02403	0.00022
303.15	0.02371	0.00022
305.65	0.02341	0.00022
308.15	0.02306	0.00021
310.65	0.02271	0.00021
313.15	0.02237	0.00021
315.65	0.02208	0.00021
318.15	0.02169	0.00021
320.65	0.02135	0.0002
323.15	0.021	0.0002
325.65	0.0207	0.0002
328.15	0.02046	0.0002
330.65	0.02008	0.0002
333.15	0.01974	0.0002
335.65	0.01941	0.00019
338.15	0.01909	0.00019

System: 2-methylfuran; phases: Liquid
Fixed: Pressure, kPa = 101.325
Property: Kinematic viscosity, m2/s (Liquid); method: Capillary tube (Ostwald; Ubbelohde) method
Temperature, K	Kinematic viscosity, m2/s	uncertainty
278.15	5.393e-07	1.16e-08
280.65	5.234e-07	1.13e-08
283.15	5.075e-07	1.09e-08
285.65	4.925e-07	1.06e-08
288.15	4.79e-07	1.03e-08
290.65	4.66e-07	1.01e-08
293.15	4.551e-07	9.8e-09
295.65	4.46e-07	9.6e-09
298.15	4.377e-07	9.5e-09
300.65	4.293e-07	9.3e-09
303.15	4.201e-07	9.1e-09
305.65	4.107e-07	8.9e-09
308.15	4.013e-07	8.7e-09
310.65	3.922e-07	8.5e-09
313.15	3.831e-07	8.3e-09
315.65	3.743e-07	8.1e-09
318.15	3.659e-07	8e-09
320.65	3.578e-07	7.8e-09
323.15	3.498e-07	7.6e-09
325.65	3.424e-07	7.5e-09
328.15	3.358e-07	7.3e-09
330.65	3.277e-07	7.1e-09
333.15	3.199e-07	7e-09
335.65	3.13e-07	6.8e-09
338.15	3.069e-07	6.7e-09

System: 2-methylfuran; phases: Liquid
Fixed: Pressure, kPa = 99
Fixed: Frequency, MHz = 2
Property: Relative permittivity at various frequencies (Liquid); method: Parallel plate capacitor
Temperature, K	Relative permittivity at various frequencies	uncertainty
278.15	2.976	0.015
280.65	2.967	0.015
283.15	2.944	0.015
285.65	2.933	0.015
288.15	2.911	0.015
290.65	2.893	0.014
293.15	2.874	0.014
295.65	2.854	0.014
298.15	2.84	0.014
300.65	2.814	0.014
303.15	2.8	0.014
305.65	2.775	0.014
308.15	2.76	0.014
310.65	2.735	0.014
313.15	2.72	0.014
315.65	2.696	0.013
318.15	2.678	0.013
320.65	2.656	0.013
323.15	2.636	0.013
325.65	2.617	0.013
328.15	2.596	0.013
330.65	2.577	0.013
333.15	2.556	0.013
335.65	2.538	0.013
338.15	2.518	0.013

System: 2-methylfuran; phases: Liquid, Gas
Property: Vapor or sublimation pressure, kPa (Liquid); method: Ebulliometric method (Recirculating still)
Temperature, K	Vapor or sublimation pressure, kPa	uncertainty
285.37	12.575	0.201
286.86	13.65	0.201
289.1	15.22	0.201
291.81	17.26	0.201
293.4	18.52	0.202
294.3	19.48	0.202
295.86	20.63	0.202
297.45	22.335	0.202
299.76	24.68	0.203
300.83	25.805	0.203
303.45	28.685	0.204
305.13	30.8	0.204
307.42	33.935	0.205
308.17	35.04	0.205
310.12	37.925	0.206
312.06	41.034	0.207
314.02	44.295	0.208
316.08	47.94	0.209
317.22	50.08	0.21
319.29	54.16	0.212
321.15	58.19	0.213
323.05	62.23	0.215
325.57	68.18	0.217
327.23	72.315	0.219
329.07	77.175	0.221
331.13	82.865	0.224
333.27	89.15	0.227
334.25	92.22	0.23
336.39	99.03	0.233
337.09	101.325	0.234

System: 2,5-dimethylfuran; phases: Liquid
Property: Mass density, kg/m3 (Liquid); method: Vibrating tube method
Pressure, kPa	Temperature, K	Mass density, kg/m3	uncertainty
100	283.15	912.25	0.29
100	288.15	906.99	0.29
100	293.15	901.64	0.29
100	298.15	896.29	0.29
100	303.15	890.9	0.29
100	308.15	885.45	0.29
100	313.15	879.93	0.29
100	318.15	874.44	0.29
100	323.15	868.85	0.29
100	328.15	863.25	0.29
100	333.15	857.58	0.29
100	338.15	851.85	0.29
2500	283.15	914.37	0.3
2500	288.15	909.13	0.3
2500	293.15	903.82	0.3
2500	298.15	898.6	0.3
2500	303.15	893.25	0.3
2500	308.15	887.9	0.3
2500	313.15	882.45	0.3
2500	318.15	877.03	0.3
2500	323.15	871.55	0.3
2500	328.15	866.05	0.3
2500	333.15	860.47	0.3
2500	338.15	854.88	0.3
5000	283.15	916.47	0.3
5000	288.15	911.29	0.3
5000	293.15	906.07	0.3
5000	298.15	900.94	0.3
5000	303.15	895.65	0.3
5000	308.15	890.36	0.31
5000	313.15	885.02	0.31
5000	318.15	879.68	0.31
5000	323.15	874.3	0.31
5000	328.15	868.91	0.31
5000	333.15	863.42	0.31
5000	338.15	857.96	0.31
7500	283.15	918.52	0.31
7500	288.15	913.42	0.31
7500	293.15	908.26	0.31
7500	298.15	903.16	0.31
7500	303.15	897.97	0.31
7500	308.15	892.78	0.31
7500	313.15	887.51	0.31
7500	318.15	882.27	0.31
7500	323.15	876.94	0.32
7500	328.15	871.68	0.32
7500	333.15	866.28	0.32
7500	338.15	860.93	0.32
10000	283.15	920.53	0.31
10000	288.15	915.49	0.31
10000	293.15	910.4	0.31
10000	298.15	905.39	0.32
10000	303.15	900.25	0.32
10000	308.15	895.14	0.32
10000	313.15	889.95	0.32
10000	318.15	884.79	0.32
10000	323.15	879.54	0.32
10000	328.15	874.38	0.32
10000	333.15	869.07	0.33
10000	338.15	863.81	0.33
20000	283.15	928.2	0.33
20000	288.15	923.34	0.33
20000	293.15	918.5	0.33
20000	298.15	913.73	0.34
20000	303.15	908.83	0.34
20000	308.15	903.98	0.34
20000	313.15	899.05	0.35
20000	318.15	894.18	0.35
20000	323.15	889.25	0.35
20000	328.15	884.36	0.35
20000	333.15	879.4	0.36
20000	338.15	874.45	0.36
30000	283.15	935.24	0.34
30000	288.15	930.62	0.35
30000	293.15	925.97	0.35
30000	298.15	921.4	0.35
30000	303.15	916.74	0.36
30000	308.15	912.1	0.36
30000	313.15	907.41	0.37
30000	318.15	902.74	0.37
30000	323.15	898.07	0.38
30000	328.15	893.38	0.38
30000	333.15	888.7	0.38
30000	338.15	884.02	0.39
40000	283.15	941.89	0.35
40000	288.15	937.41	0.36
40000	293.15	932.94	0.36
40000	298.15	928.44	0.37
40000	303.15	924.06	0.37
40000	308.15	919.56	0.38
40000	313.15	915.12	0.39
40000	318.15	910.6	0.39
40000	323.15	906.13	0.4
40000	328.15	901.61	0.4
40000	333.15	897.22	0.41
40000	338.15	892.61	0.41
50000	283.15	948.12	0.36
50000	288.15	943.72	0.37
50000	293.15	939.57	0.37
50000	298.15	935.19	0.38
50000	303.15	930.89	0.39
50000	308.15	926.54	0.39
50000	313.15	922.3	0.4
50000	318.15	917.91	0.41
50000	323.15	913.67	0.41
50000	328.15	909.29	0.42
50000	333.15	905.17	0.43
50000	338.15	900.74	0.43
60000	283.15	953.98	0.37
60000	288.15	949.78	0.37
60000	293.15	945.6	0.38
60000	298.15	941.44	0.39
60000	303.15	937.27	0.4
60000	308.15	933.08	0.4
60000	313.15	928.9	0.41
60000	318.15	924.74	0.42
60000	323.15	920.58	0.43
60000	328.15	916.43	0.44
60000	333.15	912.4	0.44
60000	338.15	908.17	0.45
99	278.15	917.53	0.233
99	280.65	914.899	0.233
99	283.15	912.247	0.233
99	285.65	909.614	0.233
99	288.15	906.988	0.233
99	290.65	904.299	0.234
99	293.15	901.636	0.234
99	295.65	898.951	0.234
99	298.15	896.285	0.234
99	300.65	893.569	0.234
99	303.15	890.898	0.234
99	305.65	888.151	0.234
99	308.15	885.447	0.234
99	310.65	882.693	0.234
99	313.15	879.927	0.234
99	315.65	877.195	0.234
99	318.15	874.437	0.235
99	320.65	871.651	0.235
99	323.15	868.85	0.235
99	325.65	866.06	0.235
99	328.15	863.248	0.235
99	330.65	860.418	0.235
99	333.15	857.577	0.235
99	335.65	854.721	0.235
99	338.15	851.85	0.236

System: 2,5-dimethylfuran; phases: Liquid
Fixed: Pressure, kPa = 101.325
Property: Refractive index (Na D-line) (Liquid); method: Standard Abbe refractometry
Temperature, K	Refractive index (Na D-line)	uncertainty
283.15	1.4477	0.000369
285.65	1.446448	0.000369
288.15	1.444945	0.000369
290.65	1.443618	0.000369
293.15	1.442179	0.000369
295.65	1.440788	0.000369
298.15	1.439425	0.000369
300.65	1.437958	0.000369
303.15	1.436649	0.000369
305.65	1.435128	0.000369
308.15	1.43383	0.000369
310.65	1.432298	0.000369
313.15	1.430981	0.000369
315.65	1.429468	0.000369
318.15	1.428147	0.000369
320.65	1.426639	0.000369
323.15	1.425251	0.000369
325.65	1.423809	0.000369
328.15	1.422387	0.000369
330.65	1.420979	0.000369
333.15	1.41948	0.000369
335.65	1.418149	0.000369
338.15	1.416573	0.000369

System: 2,5-dimethylfuran; phases: Liquid
Fixed: Pressure, kPa = 101.325
Property: Speed of sound, m/s (Liquid); method: Sing-around technique in a fixed-path interferometer
Temperature, K	Speed of sound, m/s	uncertainty
278.15	1281.91	1.54
280.65	1271.09	1.54
283.15	1260.16	1.53
285.65	1249.19	1.53
288.15	1238.27	1.53
290.65	1227.55	1.53
293.15	1216.5	1.53
295.65	1206.29	1.53
298.15	1194.86	1.52
300.65	1185.03	1.52
303.15	1173.33	1.52
305.65	1163.77	1.52
308.15	1151.93	1.52
310.65	1142.5	1.52
313.15	1130.68	1.52
315.65	1121.24	1.52
318.15	1109.54	1.51
320.65	1099.98	1.51
323.15	1088.51	1.51
325.65	1078.72	1.51
328.15	1067.58	1.51
330.65	1057.45	1.51
333.15	1046.92	1.51
335.65	1036.19	1.5
338.15	1029.19	1.5

System: 2,5-dimethylfuran; phases: Liquid, Air at 1 atmosphere
Property: Surface tension liquid-gas, N/m (Liquid); method: Drop volume
Temperature, K	Surface tension liquid-gas, N/m	uncertainty
278.15	0.0275	0.00024
280.65	0.02719	0.00024
283.15	0.02686	0.00024
285.65	0.02657	0.00023
288.15	0.02622	0.00023
290.65	0.02591	0.00023
293.15	0.02554	0.00023
295.65	0.0253	0.00023
298.15	0.025	0.00023
300.65	0.02467	0.00022
303.15	0.02433	0.00022
305.65	0.02402	0.00022
308.15	0.0237	0.00022
310.65	0.02334	0.00022
313.15	0.02301	0.00021
315.65	0.0227	0.00021
318.15	0.02229	0.00021
320.65	0.02197	0.00021
323.15	0.02169	0.00021
325.65	0.02129	0.0002
328.15	0.02095	0.0002
330.65	0.02058	0.0002
333.15	0.02034	0.0002
335.65	0.02001	0.0002
338.15	0.01965	0.0002

System: 2,5-dimethylfuran; phases: Liquid
Fixed: Pressure, kPa = 101.325
Property: Kinematic viscosity, m2/s (Liquid); method: Capillary tube (Ostwald; Ubbelohde) method
Temperature, K	Kinematic viscosity, m2/s	uncertainty
278.15	6.698e-07	1.44e-08
280.65	6.497e-07	1.4e-08
283.15	6.337e-07	1.36e-08
285.65	6.125e-07	1.32e-08
288.15	5.952e-07	1.28e-08
290.65	5.787e-07	1.25e-08
293.15	5.633e-07	1.21e-08
295.65	5.481e-07	1.18e-08
298.15	5.336e-07	1.15e-08
300.65	5.202e-07	1.12e-08
303.15	5.035e-07	1.09e-08
305.65	4.947e-07	1.07e-08
308.15	4.827e-07	1.04e-08
310.65	4.714e-07	1.02e-08
313.15	4.567e-07	9.9e-09
315.65	4.5e-07	9.7e-09
318.15	4.397e-07	9.5e-09
320.65	4.302e-07	9.3e-09
323.15	4.232e-07	9.2e-09
325.65	4.12e-07	8.9e-09
328.15	4.035e-07	8.7e-09
330.65	3.953e-07	8.6e-09
333.15	3.887e-07	8.4e-09
335.65	3.798e-07	8.2e-09
338.15	3.725e-07	8.1e-09

System: 2,5-dimethylfuran; phases: Liquid
Fixed: Pressure, kPa = 99
Fixed: Frequency, MHz = 2
Property: Relative permittivity at various frequencies (Liquid); method: Parallel plate capacitor
Temperature, K	Relative permittivity at various frequencies	uncertainty
278.15	2.562	0.013
280.65	2.553	0.013
283.15	2.538	0.013
285.65	2.526	0.013
288.15	2.516	0.013
290.65	2.499	0.013
293.15	2.492	0.012
295.65	2.472	0.012
298.15	2.462	0.012
300.65	2.445	0.012
303.15	2.434	0.012
305.65	2.418	0.012
308.15	2.404	0.012
310.65	2.391	0.012
313.15	2.376	0.012
315.65	2.364	0.012
318.15	2.349	0.012
320.65	2.337	0.012
323.15	2.321	0.012
325.65	2.31	0.012
328.15	2.292	0.011
330.65	2.283	0.011
333.15	2.272	0.011
335.65	2.256	0.011
338.15	2.245	0.011

System: 2,5-dimethylfuran; phases: Liquid, Gas
Property: Vapor or sublimation pressure, kPa (Liquid); method: Ebulliometric method (Recirculating still)
Temperature, K	Vapor or sublimation pressure, kPa	uncertainty
283.16	3.015	0.2
288.36	4.037	0.2
290.65	4.575	0.2
293.16	5.195	0.2
298.25	6.75	0.2
302.52	8.37	0.201
309.17	11.585	0.201
314.61	14.805	0.201
319.27	18.095	0.202
324.99	22.855	0.202
328.09	26.07	0.203
332.43	30.955	0.204
335.48	34.85	0.205
338.4	38.815	0.206
340.95	42.52	0.207
343.11	46.09	0.208
345.85	50.775	0.21
348.13	55.055	0.211
350.87	60.505	0.213
352.82	64.61	0.215
354.3	68.125	0.217
356.1	72.15	0.218
357.87	76.61	0.221
359.42	80.63	0.222
361.09	85.015	0.224
362.46	88.855	0.226
363.39	91.385	0.228
364.36	94.28	0.23
365.26	97.05	0.231
366.7	101.325	0.232
