Measured thermophysical data. The interactions between some N-acetyl-N -methyl-l- -amino acid amides and urea in water at 298.15K
Source: Thermochim. Acta, 2006, 10.1016/j.tca.2006.06.009
Compound 1: 2-acetamido-N-methylacetamide, C5H10N2O2, InChI=1S/C5H10N2O2/c1-4(8)7-3-5(9)6-2/h3H2,1-2H3,(H,6,9)(H,7,8)
Compound 2: 2-acetamido-N-methylpropanamide, C6H12N2O2, InChI=1S/C6H12N2O2/c1-4(6(10)7-3)8-5(2)9/h4H,1-3H3,(H,7,10)(H,8,9)
Compound 3: (S)-2-acetamido-N,4-dimethylpentanamide, C9H18N2O2, InChI=1S/C9H18N2O2/c1-6(2)5-8(9(13)10-4)11-7(3)12/h6,8H,5H2,1-4H3,(H,10,13)(H,11,12)/t8-/m0/s1
Compound 4: N-acetyl-N'-methyl-l-alpha-serinamide, C6H12N2O3, InChI=1S/C6H12N2O3/c1-4(10)8-5(3-9)6(11)7-2/h5,9H,3H2,1-2H3,(H,7,11)(H,8,10)/t5-/m0/s1
Compound 5: urea, CH4N2O, InChI=1S/CH4N2O/c2-1(3)4/h(H4,2,3,4)
Compound 6: water, H2O, InChI=1S/H2O/h1H2

System: 2-acetamido-N-methylacetamide + water; phases: Liquid
Property: Molar enthalpy of solution, kJ/mol (Liquid); method: ISOPERIBOL
Amount concentration (molarity), mol/dm3 of 2-acetamido-N-methylacetamide	Temperature, K	Pressure, kPa	Molar enthalpy of solution, kJ/mol	uncertainty
0	298.15	101	1.72	0.02

System: water + 2-acetamido-N-methylpropanamide; phases: Liquid
Property: Molar enthalpy of solution, kJ/mol (Liquid); method: ISOPERIBOL
Molality, mol/kg of 2-acetamido-N-methylpropanamide	Temperature, K	Pressure, kPa	Molar enthalpy of solution, kJ/mol	uncertainty
0	298.15	101	-3.5	0.03

System: water + (S)-2-acetamido-N,4-dimethylpentanamide; phases: Liquid
Property: Molar enthalpy of solution, kJ/mol (Liquid); method: ISOPERIBOL
Molality, mol/kg of (S)-2-acetamido-N,4-dimethylpentanamide	Temperature, K	Pressure, kPa	Molar enthalpy of solution, kJ/mol	uncertainty
0	298.15	101	-9.77	0.19

System: water + N-acetyl-N'-methyl-l-alpha-serinamide; phases: Liquid
Property: Molar enthalpy of solution, kJ/mol (Liquid); method: ISOPERIBOL
Molality, mol/kg of N-acetyl-N'-methyl-l-alpha-serinamide	Temperature, K	Pressure, kPa	Molar enthalpy of solution, kJ/mol	uncertainty
0	298.15	101	1.89	0.18

System: urea + 2-acetamido-N-methylacetamide + water; phases: Liquid
Fixed: Temperature, K = 298.15
Fixed: Pressure, kPa = 101
Fixed: Molality, mol/kg of 2-acetamido-N-methylacetamide = 0
Property: Molar enthalpy of solution, kJ/mol (Liquid); method: ISOPERIBOL
Solvent: Molality, mol/kg of urea	Molar enthalpy of solution, kJ/mol	uncertainty
0.25	1.64	0.04
0.5	1.48	0.02
1	1.27	0.04
1.5	1.04	0.08
2	0.9	0.1
3	0.59	0.04

System: urea + water + 2-acetamido-N-methylpropanamide; phases: Liquid
Fixed: Temperature, K = 298.15
Fixed: Pressure, kPa = 101
Fixed: Molality, mol/kg of 2-acetamido-N-methylpropanamide = 0
Property: Molar enthalpy of solution, kJ/mol (Liquid); method: ISOPERIBOL
Solvent: Molality, mol/kg of urea	Molar enthalpy of solution, kJ/mol	uncertainty
0.5	-3.56	0.05
1	-3.61	0.07
1.5	-3.66	0.03
2	-3.67	0.05
2.5	-3.68	0.03
3	-3.68	0.05

System: urea + water + (S)-2-acetamido-N,4-dimethylpentanamide; phases: Liquid
Fixed: Temperature, K = 298.15
Fixed: Pressure, kPa = 101
Fixed: Molality, mol/kg of (S)-2-acetamido-N,4-dimethylpentanamide = 0
Property: Molar enthalpy of solution, kJ/mol (Liquid); method: ISOPERIBOL
Solvent: Molality, mol/kg of urea	Molar enthalpy of solution, kJ/mol	uncertainty
0.5	-9.55	0.12
1	-9.31	0.08
1.5	-9.08	0.08
2	-8.87	0.07
2.5	-8.71	0.09
3	-8.59	0.07

System: urea + water + N-acetyl-N'-methyl-l-alpha-serinamide; phases: Liquid
Fixed: Temperature, K = 298.15
Fixed: Pressure, kPa = 101
Fixed: Molality, mol/kg of N-acetyl-N'-methyl-l-alpha-serinamide = 0
Property: Molar enthalpy of solution, kJ/mol (Liquid); method: ISOPERIBOL
Solvent: Molality, mol/kg of urea	Molar enthalpy of solution, kJ/mol	uncertainty
0.25	1.75	0.04
0.5	1.62	0.04
1	1.34	0.04
1.5	1.22	0.02
2	1.06	0.04
2.5	0.82	0.02
3	0.76	0.04
