Measured thermophysical data. the vaporization enthaplies and vapor pressures of a series of unstaurated fatty acid methyl esters by correlation gas chromatography
Source: Thermochim. Acta, 2007, 10.1016/j.tca.2007.02.008
Compound 1: methyl dodecanoate, C13H26O2, InChI=1S/C13H26O2/c1-3-4-5-6-7-8-9-10-11-12-13(14)15-2/h3-12H2,1-2H3
Compound 2: methyl tridecanoate, C14H28O2, InChI=1S/C14H28O2/c1-3-4-5-6-7-8-9-10-11-12-13-14(15)16-2/h3-13H2,1-2H3
Compound 3: methyl tetradecanoate, C15H30O2, InChI=1S/C15H30O2/c1-3-4-5-6-7-8-9-10-11-12-13-14-15(16)17-2/h3-14H2,1-2H3
Compound 4: cis-9-tetradecenoic acid, methyl ester, C15H28O2, InChI=1S/C15H28O2/c1-3-4-5-6-7-8-9-10-11-12-13-14-15(16)17-2/h6-7H,3-5,8-14H2,1-2H3/b7-6-
Compound 5: methyl pentadecanoate, C16H32O2, InChI=1S/C16H32O2/c1-3-4-5-6-7-8-9-10-11-12-13-14-15-16(17)18-2/h3-15H2,1-2H3
Compound 6: methyl cis 10-pentadecenoate, C16H30O2, InChI=1S/C16H30O2/c1-3-4-5-6-7-8-9-10-11-12-13-14-15-16(17)18-2/h6-7H,3-5,8-15H2,1-2H3/b7-6-
Compound 7: methyl hexadecanoate, C17H34O2, InChI=1S/C17H34O2/c1-3-4-5-6-7-8-9-10-11-12-13-14-15-16-17(18)19-2/h3-16H2,1-2H3
Compound 8: methyl (Z)-9-hexadecenoate, C17H32O2, InChI=1S/C17H32O2/c1-3-4-5-6-7-8-9-10-11-12-13-14-15-16-17(18)19-2/h8-9H,3-7,10-16H2,1-2H3/b9-8-
Compound 9: methyl heptadecanoate, C18H36O2, InChI=1S/C18H36O2/c1-3-4-5-6-7-8-9-10-11-12-13-14-15-16-17-18(19)20-2/h3-17H2,1-2H3
Compound 10: methyl cis-10-heptadecenoate, C18H34O2, InChI=1S/C18H34O2/c1-3-4-5-6-7-8-9-10-11-12-13-14-15-16-17-18(19)20-2/h8-9H,3-7,10-17H2,1-2H3/b9-8-
Compound 11: methyl octadecanoate, C19H38O2, InChI=1S/C19H38O2/c1-3-4-5-6-7-8-9-10-11-12-13-14-15-16-17-18-19(20)21-2/h3-18H2,1-2H3
Compound 12: methyl cis-9-octadecenoate, C19H36O2, InChI=1S/C19H36O2/c1-3-4-5-6-7-8-9-10-11-12-13-14-15-16-17-18-19(20)21-2/h10-11H,3-9,12-18H2,1-2H3/b11-10-
Compound 13: methyl (Z,Z)-9,12-octadecadienate, C19H34O2, InChI=1S/C19H34O2/c1-3-4-5-6-7-8-9-10-11-12-13-14-15-16-17-18-19(20)21-2/h7-8,10-11H,3-6,9,12-18H2,1-2H3/b8-7-,11-10-
Compound 14: methyl (Z,Z,Z)-9,12,15-octadecatrienoate, C19H32O2, InChI=1S/C19H32O2/c1-3-4-5-6-7-8-9-10-11-12-13-14-15-16-17-18-19(20)21-2/h4-5,7-8,10-11H,3,6,9,12-18H2,1-2H3/b5-4-,8-7-,11-10-
Compound 15: methyl eicosanoate, C21H42O2, InChI=1S/C21H42O2/c1-3-4-5-6-7-8-9-10-11-12-13-14-15-16-17-18-19-20-21(22)23-2/h3-20H2,1-2H3
Compound 16: methyl cis-11-eicosenoate, C21H40O2, InChI=1S/C21H40O2/c1-3-4-5-6-7-8-9-10-11-12-13-14-15-16-17-18-19-20-21(22)23-2/h10-11H,3-9,12-20H2,1-2H3/b11-10-
Compound 17: methyl Z,Z 11,14-eicosadienoate, C21H38O2, InChI=1S/C21H38O2/c1-3-4-5-6-7-8-9-10-11-12-13-14-15-16-17-18-19-20-21(22)23-2/h7-8,10-11H,3-6,9,12-20H2,1-2H3/b8-7-,11-10-
Compound 18: 5,8,11,14-eicosatetraenoic acid, methyl ester, (all-Z)-, C21H34O2, InChI=1S/C21H34O2/c1-3-4-5-6-7-8-9-10-11-12-13-14-15-16-17-18-19-20-21(22)23-2/h7-8,10-11,13-14,16-17H,3-6,9,12,15,18-20H2,1-2H3/b8-7-,11-10-,14-13-,17-16-
Compound 19: methyl Z,Z,Z 11,14,17-eicosatrieneoate, C21H36O2, InChI=1S/C21H36O2/c1-3-4-5-6-7-8-9-10-11-12-13-14-15-16-17-18-19-20-21(22)23-2/h4-5,7-8,10-11H,3,6,9,12-20H2,1-2H3/b5-4-,8-7-,11-10-
Compound 20: methyl docosanoate, C23H46O2, InChI=1S/C23H46O2/c1-3-4-5-6-7-8-9-10-11-12-13-14-15-16-17-18-19-20-21-22-23(24)25-2/h3-22H2,1-2H3
Compound 21: methyl Z,Z,Z,Z,Z 5,8,11,14,17-eicosapentaeneoate, C21H32O2, InChI=1S/C21H32O2/c1-3-4-5-6-7-8-9-10-11-12-13-14-15-16-17-18-19-20-21(22)23-2/h4-5,7-8,10-11,13-14,16-17H,3,6,9,12,15,18-20H2,1-2H3/b5-4-,8-7-,11-10-,14-13-,17-16-
Compound 22: methyl (Z)-13-docosenoate, C23H44O2, InChI=1S/C23H44O2/c1-3-4-5-6-7-8-9-10-11-12-13-14-15-16-17-18-19-20-21-22-23(24)25-2/h10-11H,3-9,12-22H2,1-2H3/b11-10-
Compound 23: methyl Z,Z 13,16-docosadienoate, C23H42O2, InChI=1S/C23H42O2/c1-3-4-5-6-7-8-9-10-11-12-13-14-15-16-17-18-19-20-21-22-23(24)25-2/h7-8,10-11H,3-6,9,12-22H2,1-2H3/b8-7-,11-10-
Compound 24: methyl tetracosanoate, C25H50O2, InChI=1S/C25H50O2/c1-3-4-5-6-7-8-9-10-11-12-13-14-15-16-17-18-19-20-21-22-23-24-25(26)27-2/h3-24H2,1-2H3
Compound 25: (Z)-methyl 15-tetracosenate, C25H48O2, InChI=1S/C25H48O2/c1-3-4-5-6-7-8-9-10-11-12-13-14-15-16-17-18-19-20-21-22-23-24-25(26)27-2/h10-11H,3-9,12-24H2,1-2H3/b11-10-
Compound 26: methyl Z,Z,Z,Z,Z,Z 4,7,10,13,16,19-docosahexaeneoate, C23H34O2, InChI=1S/C23H34O2/c1-3-4-5-6-7-8-9-10-11-12-13-14-15-16-17-18-19-20-21-22-23(24)25-2/h4-5,7-8,10-11,13-14,16-17,19-20H,3,6,9,12,15,18,21-22H2,1-2H3/b5-4-,8-7-,11-10-,14-13-,17-16-,20-19-

System: methyl dodecanoate; phases: Liquid, Gas
Property: Molar enthalpy of vaporization or sublimation, kJ/mol (Liquid); method: Correlation Gas Chromatography
Temperature, K	Molar enthalpy of vaporization or sublimation, kJ/mol	uncertainty
298.15	75.8	0.5

System: methyl tridecanoate; phases: Liquid, Gas
Property: Molar enthalpy of vaporization or sublimation, kJ/mol (Liquid); method: Correlation Gas Chromatography
Temperature, K	Molar enthalpy of vaporization or sublimation, kJ/mol	uncertainty
298.15	80.7	0.5

System: methyl tetradecanoate; phases: Liquid, Gas
Property: Molar enthalpy of vaporization or sublimation, kJ/mol (Liquid); method: Correlation Gas Chromatography
Temperature, K	Molar enthalpy of vaporization or sublimation, kJ/mol	uncertainty
298.15	86.1	1.7

System: cis-9-tetradecenoic acid, methyl ester; phases: Liquid, Gas
Property: Molar enthalpy of vaporization or sublimation, kJ/mol (Liquid); method: Correlation Gas Chromatography
Temperature, K	Molar enthalpy of vaporization or sublimation, kJ/mol	uncertainty
298.15	87.1	1.5

System: cis-9-tetradecenoic acid, methyl ester; phases: Liquid, Gas
Property: Vapor or sublimation pressure, kPa (Liquid); method: Correlation Gas Chromotography
Temperature, K	Vapor or sublimation pressure, kPa	uncertainty
300	2.2566e-05	4.665e-06
350	0.002959151	0.0005923
400	0.085491908	0.017104735
450	0.93271481	0.18660156

System: methyl pentadecanoate; phases: Liquid, Gas
Property: Molar enthalpy of vaporization or sublimation, kJ/mol (Liquid); method: Correlation Gas Chromatography
Temperature, K	Molar enthalpy of vaporization or sublimation, kJ/mol	uncertainty
298.15	90.7	0.5

System: methyl cis 10-pentadecenoate; phases: Liquid, Gas
Property: Molar enthalpy of vaporization or sublimation, kJ/mol (Liquid); method: Correlation Gas Chromatography
Temperature, K	Molar enthalpy of vaporization or sublimation, kJ/mol	uncertainty
298.15	91.7	0.5

System: methyl cis 10-pentadecenoate; phases: Liquid, Gas
Property: Vapor or sublimation pressure, kPa (Liquid); method: Correlation Gas Chromotography
Temperature, K	Vapor or sublimation pressure, kPa	uncertainty
300	2.84548e-06	6.544e-07
350	0.000809679	0.0001622
400	0.03925437	0.007854
450	0.61114439	0.12226728

System: methyl hexadecanoate; phases: Liquid, Gas
Property: Molar enthalpy of vaporization or sublimation, kJ/mol (Liquid); method: Correlation Gas Chromatography
Temperature, K	Molar enthalpy of vaporization or sublimation, kJ/mol	uncertainty
298.15	96.2	1.1

System: methyl (Z)-9-hexadecenoate; phases: Liquid, Gas
Property: Molar enthalpy of vaporization or sublimation, kJ/mol (Liquid); method: Correlation Gas Chromatography
Temperature, K	Molar enthalpy of vaporization or sublimation, kJ/mol	uncertainty
298.15	96.4	1.5

System: methyl (Z)-9-hexadecenoate; phases: Liquid, Gas
Property: Vapor or sublimation pressure, kPa (Liquid); method: Correlation Gas Chromotography
Temperature, K	Vapor or sublimation pressure, kPa	uncertainty
300	6.59877e-06	1.453e-06
350	0.001523689	0.0003051
400	0.063238096	0.012652768
450	0.87185915	0.17442661

System: methyl heptadecanoate; phases: Liquid, Gas
Property: Molar enthalpy of vaporization or sublimation, kJ/mol (Liquid); method: Correlation Gas Chromatography
Temperature, K	Molar enthalpy of vaporization or sublimation, kJ/mol	uncertainty
298.15	100.8	0.5

System: methyl cis-10-heptadecenoate; phases: Liquid, Gas
Property: Molar enthalpy of vaporization or sublimation, kJ/mol (Liquid); method: Correlation Gas Chromatography
Temperature, K	Molar enthalpy of vaporization or sublimation, kJ/mol	uncertainty
298.15	100.8	0.5

System: methyl cis-10-heptadecenoate; phases: Liquid, Gas
Property: Vapor or sublimation pressure, kPa (Liquid); method: Correlation Gas Chromotography
Temperature, K	Vapor or sublimation pressure, kPa	uncertainty
300	2.43944e-06	5.623e-07
350	0.000700564	0.0001403
400	0.034102556	0.006823
450	0.53023946	0.10608121

System: methyl octadecanoate; phases: Liquid, Gas
Property: Molar enthalpy of vaporization or sublimation, kJ/mol (Liquid); method: Correlation Gas Chromatography
Temperature, K	Molar enthalpy of vaporization or sublimation, kJ/mol	uncertainty
298.15	106.1	1.1

System: methyl cis-9-octadecenoate; phases: Liquid, Gas
Property: Molar enthalpy of vaporization or sublimation, kJ/mol (Liquid); method: Correlation Gas Chromatography
Temperature, K	Molar enthalpy of vaporization or sublimation, kJ/mol	uncertainty
298.15	106.2	1.5

System: methyl cis-9-octadecenoate; phases: Liquid, Gas
Property: Vapor or sublimation pressure, kPa (Liquid); method: Correlation Gas Chromotography
Temperature, K	Vapor or sublimation pressure, kPa	uncertainty
300	7.70159e-07	2.035e-07
350	0.000333271	6.68e-05
400	0.020598416	0.004122
450	0.36643381	0.073309791

System: methyl (Z,Z)-9,12-octadecadienate; phases: Liquid, Gas
Property: Molar enthalpy of vaporization or sublimation, kJ/mol (Liquid); method: Correlation Gas Chromatography
Temperature, K	Molar enthalpy of vaporization or sublimation, kJ/mol	uncertainty
298.15	107.8	1.3

System: methyl (Z,Z)-9,12-octadecadienate; phases: Liquid, Gas
Property: Vapor or sublimation pressure, kPa (Liquid); method: Correlation Gas Chromotography
Temperature, K	Vapor or sublimation pressure, kPa	uncertainty
300	5.43827e-07	1.491e-07
350	0.000255334	5.119e-05
400	0.016677494	0.003337
450	0.31015056	0.0620496

System: methyl (Z,Z,Z)-9,12,15-octadecatrienoate; phases: Liquid, Gas
Property: Molar enthalpy of vaporization or sublimation, kJ/mol (Liquid); method: Correlation Gas Chromatography
Temperature, K	Molar enthalpy of vaporization or sublimation, kJ/mol	uncertainty
298.15	110.5	1.1

System: methyl (Z,Z,Z)-9,12,15-octadecatrienoate; phases: Liquid, Gas
Property: Vapor or sublimation pressure, kPa (Liquid); method: Correlation Gas Chromotography
Temperature, K	Vapor or sublimation pressure, kPa	uncertainty
300	2.88029e-07	8.605e-08
350	0.000160042	3.21e-05
400	0.011679488	0.002337
450	0.2338726	0.046789219

System: methyl eicosanoate; phases: Liquid, Gas
Property: Molar enthalpy of vaporization or sublimation, kJ/mol (Liquid); method: Correlation Gas Chromatography
Temperature, K	Molar enthalpy of vaporization or sublimation, kJ/mol	uncertainty
298.15	116	1.3

System: methyl cis-11-eicosenoate; phases: Liquid, Gas
Property: Molar enthalpy of vaporization or sublimation, kJ/mol (Liquid); method: Correlation Gas Chromatography
Temperature, K	Molar enthalpy of vaporization or sublimation, kJ/mol	uncertainty
298.15	115.8	1.5

System: methyl cis-11-eicosenoate; phases: Liquid, Gas
Property: Vapor or sublimation pressure, kPa (Liquid); method: Correlation Gas Chromotography
Temperature, K	Vapor or sublimation pressure, kPa	uncertainty
300	1.06468e-07	3.85e-08
350	8.0271e-05	1.612e-05
400	0.007153849	0.001432
450	0.1638428	0.032778857

System: methyl Z,Z 11,14-eicosadienoate; phases: Liquid, Gas
Property: Molar enthalpy of vaporization or sublimation, kJ/mol (Liquid); method: Correlation Gas Chromatography
Temperature, K	Molar enthalpy of vaporization or sublimation, kJ/mol	uncertainty
298.15	117.5	1.1

System: methyl Z,Z 11,14-eicosadienoate; phases: Liquid, Gas
Property: Vapor or sublimation pressure, kPa (Liquid); method: Correlation Gas Chromotography
Temperature, K	Vapor or sublimation pressure, kPa	uncertainty
300	6.95468e-08	2.701e-08
350	5.79539e-05	1.165e-05
400	0.005557743	0.001112
450	0.13348568	0.026705526

System: 5,8,11,14-eicosatetraenoic acid, methyl ester, (all-Z)-; phases: Liquid, Gas
Property: Molar enthalpy of vaporization or sublimation, kJ/mol (Liquid); method: Correlation Gas Chromatography
Temperature, K	Molar enthalpy of vaporization or sublimation, kJ/mol	uncertainty
298.15	118.3	0.5

System: 5,8,11,14-eicosatetraenoic acid, methyl ester, (all-Z)-; phases: Liquid, Gas
Property: Vapor or sublimation pressure, kPa (Liquid); method: correlation gas chromatography
Temperature, K	Vapor or sublimation pressure, kPa	uncertainty
300	4.98329e-08	2.021e-08
350	4.39856e-05	8.843e-06
400	0.004386548	0.0008778
450	0.10802272	0.021611335

System: methyl Z,Z,Z 11,14,17-eicosatrieneoate; phases: Liquid, Gas
Property: Molar enthalpy of vaporization or sublimation, kJ/mol (Liquid); method: Correlation Gas Chromatography
Temperature, K	Molar enthalpy of vaporization or sublimation, kJ/mol	uncertainty
298.15	122.6	3.2

System: methyl Z,Z,Z 11,14,17-eicosatrieneoate; phases: Liquid, Gas
Property: Vapor or sublimation pressure, kPa (Liquid); method: Correlation Gas Chromotography
Temperature, K	Vapor or sublimation pressure, kPa	uncertainty
300	2.76545e-08	1.348e-08
350	3.07493e-05	6.193e-06
400	0.003561333	0.0007128
450	0.097088608	0.019423825

System: methyl docosanoate; phases: Liquid, Gas
Property: Molar enthalpy of vaporization or sublimation, kJ/mol (Liquid); method: Correlation Gas Chromatography
Temperature, K	Molar enthalpy of vaporization or sublimation, kJ/mol	uncertainty
298.15	127.5	3.8

System: methyl Z,Z,Z,Z,Z 5,8,11,14,17-eicosapentaeneoate; phases: Liquid, Gas
Property: Molar enthalpy of vaporization or sublimation, kJ/mol (Liquid); method: Correlation Gas Chromatography
Temperature, K	Molar enthalpy of vaporization or sublimation, kJ/mol	uncertainty
298.15	121	0.8

System: methyl Z,Z,Z,Z,Z 5,8,11,14,17-eicosapentaeneoate; phases: Liquid, Gas
Property: Vapor or sublimation pressure, kPa (Liquid); method: Correlation Gas Chromotography
Temperature, K	Vapor or sublimation pressure, kPa	uncertainty
300	2.64642e-08	1.228e-08
350	2.77128e-05	5.579e-06
400	0.003084051	0.0006172
450	0.081668792	0.016338892

System: methyl (Z)-13-docosenoate; phases: Liquid, Gas
Property: Molar enthalpy of vaporization or sublimation, kJ/mol (Liquid); method: Correlation Gas Chromatography
Temperature, K	Molar enthalpy of vaporization or sublimation, kJ/mol	uncertainty
298.15	125.6	2.5

System: methyl (Z)-13-docosenoate; phases: Liquid, Gas
Property: Vapor or sublimation pressure, kPa (Liquid); method: Correlation Gas Chromotography
Temperature, K	Vapor or sublimation pressure, kPa	uncertainty
300	1.35388e-08	7.751e-09
350	1.81701e-05	3.666e-06
400	0.002382117	0.0004768
450	0.070555056	0.014115447

System: methyl Z,Z 13,16-docosadienoate; phases: Liquid, Gas
Property: Molar enthalpy of vaporization or sublimation, kJ/mol (Liquid); method: Correlation Gas Chromatography
Temperature, K	Molar enthalpy of vaporization or sublimation, kJ/mol	uncertainty
298.15	127.9	0.5

System: methyl Z,Z 13,16-docosadienoate; phases: Liquid, Gas
Property: Vapor or sublimation pressure, kPa (Liquid); method: Correlation Gas Chromotography
Temperature, K	Vapor or sublimation pressure, kPa	uncertainty
300	8.3225e-09	5.367e-09
350	1.27628e-05	2.58e-06
400	0.001832147	0.0003667
450	0.057872017	0.011578042

System: methyl tetracosanoate; phases: Liquid, Gas
Property: Molar enthalpy of vaporization or sublimation, kJ/mol (Liquid); method: Correlation Gas Chromatography
Temperature, K	Molar enthalpy of vaporization or sublimation, kJ/mol	uncertainty
298.15	135.7	2.1

System: (Z)-methyl 15-tetracosenate; phases: Liquid, Gas
Property: Molar enthalpy of vaporization or sublimation, kJ/mol (Liquid); method: Correlation Gas Chromatography
Temperature, K	Molar enthalpy of vaporization or sublimation, kJ/mol	uncertainty
298.15	135.3	2.3

System: (Z)-methyl 15-tetracosenate; phases: Liquid, Gas
Property: Vapor or sublimation pressure, kPa (Liquid); method: Correlation Gas Chromotography
Temperature, K	Vapor or sublimation pressure, kPa	uncertainty
300	1.78268e-09	1.736e-09
350	4.24834e-06	8.653e-07
400	0.000812071	0.0001626
450	0.030956714	0.006193

System: methyl Z,Z,Z,Z,Z,Z 4,7,10,13,16,19-docosahexaeneoate; phases: Liquid, Gas
Property: Molar enthalpy of vaporization or sublimation, kJ/mol (Liquid); method: Correlation Gas Chromatography
Temperature, K	Molar enthalpy of vaporization or sublimation, kJ/mol	uncertainty
298.15	131.8	0.6

System: methyl Z,Z,Z,Z,Z,Z 4,7,10,13,16,19-docosahexaeneoate; phases: Liquid, Gas
Property: Vapor or sublimation pressure, kPa (Liquid); method: Correlation Gas Chromotography
Temperature, K	Vapor or sublimation pressure, kPa	uncertainty
300	2.60184e-09	2.149e-09
350	5.21588e-06	1.059e-06
400	0.000888589	0.0001779
450	0.031190776	0.00624
