Measured thermophysical data. High pressure thermal expansion of gases: measurements and calibration
Source: Thermochim. Acta, 2005, 10.1016/j.tca.2004.09.020
Compound 1: nitrogen, N2, InChI=1S/N2/c1-2

System: nitrogen; phases: Gas
Property: Isobaric coefficient of expansion, 1/K (Gas); method: Pressure calorimetry
Temperature, K	Pressure, kPa	Isobaric coefficient of expansion, 1/K	uncertainty
302.9	15	0.004	0.0001
302.9	30	0.0036	0.0001
302.9	39.9	0.00322	0.0001
302.9	60	0.00262	8e-05
302.9	70	0.00243	8e-05
302.9	80	0.00224	7e-05
302.9	89.9	0.00209	7e-05
322.9	13	0.0036	0.0001
322.9	14	0.0036	0.0001
322.9	15	0.0036	0.0001
322.9	16	0.0036	0.0001
322.9	18	0.0036	0.0001
322.9	20	0.0036	0.0001
322.9	30	0.00333	0.0001
322.9	40	0.00303	0.0001
322.9	60	0.0025	8e-05
322.9	80	0.00212	7e-05
322.9	13	0.0036	0.0001
322.9	14	0.0036	0.0001
322.9	15	0.0036	0.0001
322.9	16	0.0036	0.0001
322.9	60	0.0025	8e-05
322.9	60	0.00251	8e-05
352.6	14	0.00309	0.0001
352.6	30	0.00297	9e-05
352.6	40	0.0026	0.0001
352.6	50	0.00252	8e-05
352.6	60	0.00232	8e-05
352.6	70	0.002169	6.7e-05
352.6	80	0.002	7e-05
352.6	90	0.00186	6e-05
352.6	30	0.00299	9e-05
422.2	18	0.00244	8e-05
422.2	22	0.00249	8e-05
422.2	24	0.00248	8e-05
422.2	26	0.00238	8e-05
422.2	28	0.00236	8e-05
422.2	30	0.00236	8e-05
422.2	40	0.00225	6e-05
422.2	50	0.00206	6e-05
422.2	60	0.00194	5e-05
422.2	70	0.00184	6e-05
422.2	80	0.00177	6e-05
422.2	90	0.00165	6e-05
