Measured thermophysical data. Viscosities of aqueous LiI solutions at 293 525K and 0.1 40MPa
Source: Thermochim. Acta, 2005, 10.1016/j.tca.2005.08.036
Compound 1: water, H2O, InChI=1S/H2O/h1H2
Compound 2: lithium iodide, ILi, InChI=1S/HI.Li/h1H;/q;+1/p-1, purity 99.5%

System: water; phases: Liquid
Property: Viscosity, Pa*s (Liquid); method: Capillary tube (Ostwald; Ubbelohde) method
Temperature, K	Pressure, kPa	Viscosity, Pa*s	uncertainty
284.56	100	0.001257	1.09e-05
284.56	10000	0.001249	1.08e-05
284.56	40000	0.001231	1.06e-05
304.83	100	0.0007654	7e-06
304.83	10000	0.0007725	7.1e-06
304.83	40000	0.0007745	7e-06
335.46	100	0.0004482	4.4e-06
335.46	10000	0.0004504	4.4e-06
335.46	40000	0.0004635	4.5e-06
368.64	100	0.0002938	3.2e-06
368.64	10000	0.0002966	3.2e-06
368.64	40000	0.0003086	3.2e-06
397.56	10000	0.0002278	2.6e-06
397.56	40000	0.0002358	2.7e-06
435.61	10000	0.0001679	2.2e-06
435.61	40000	0.0001745	2.2e-06

System: water + lithium iodide; phases: Liquid
Property: Viscosity, Pa*s (Liquid); method: Capillary tube (Ostwald; Ubbelohde) method
Temperature, K	Pressure, kPa	Molality, mol/kg of lithium iodide	Viscosity, Pa*s	uncertainty
293.15	100	0.08	0.0010085	9.2e-06
293.15	100	0.16	0.0010151	9.2e-06
293.15	100	0.2832	0.0010246	9.3e-06
293.15	100	0.6621	0.0010497	9.5e-06
293.15	100	1.6046	0.0011218	1e-05
293.15	100	2.1603	0.0011578	1.03e-05
293.15	100	3.0886	0.001227	1.07e-05
293.15	10000	0.08	0.0010046	9.1e-06
293.15	10000	0.16	0.0010118	9.2e-06
293.15	10000	0.2832	0.0010205	9.2e-06
293.15	10000	0.6621	0.0010466	9.4e-06
293.15	10000	1.6046	0.0011184	9.9e-06
293.15	10000	2.1603	0.0011543	1.02e-05
293.15	10000	3.0886	0.0012237	1.07e-05
293.15	40000	0.08	0.0009978	9e-06
293.15	40000	0.16	0.0010041	9e-06
293.15	40000	0.2832	0.0010135	9.1e-06
293.15	40000	0.6621	0.0010393	9.5e-06
293.15	40000	1.6046	0.0011115	9.8e-06
293.15	40000	2.1603	0.0011472	1.01e-05
293.15	40000	3.0886	0.001215	1.06e-05
298.15	100	0.08	0.0008961	8.3e-06
298.15	100	0.16	0.0009025	8.2e-06
298.15	100	0.2832	0.0009114	8.2e-06
298.15	100	0.6621	0.0009363	8.5e-06
298.15	100	1.6046	0.0010021	8.8e-06
298.15	100	2.1603	0.0010395	9e-06
298.15	100	3.0886	0.0011078	9.7e-06
298.15	10000	0.08	0.0008946	8.2e-06
298.15	10000	0.16	0.0009012	8.1e-06
298.15	10000	0.2832	0.0009098	8.1e-06
298.15	10000	0.6621	0.0009351	8.5e-06
298.15	10000	1.6046	0.0010008	8.8e-06
298.15	10000	2.1603	0.0010385	9e-06
298.15	10000	3.0886	0.0011009	9.6e-06
298.15	40000	0.08	0.000892	8.1e-06
298.15	40000	0.16	0.0008979	8e-06
298.15	40000	0.2832	0.000907	8.1e-06
298.15	40000	0.6621	0.0009225	8.3e-06
298.15	40000	1.6046	0.0009979	8.7e-06
298.15	40000	2.1603	0.0010355	8.9e-06
298.15	40000	3.0886	0.0010975	9.5e-06
304.75	100	0.6621	0.0008141	7.2e-06
304.75	10000	0.6621	0.0008149	7.2e-06
304.75	40000	0.6621	0.0008164	7.2e-06
304.77	100	0.08	0.0007764	6.9e-06
304.77	10000	0.08	0.000777	6.9e-06
304.77	40000	0.08	0.0007779	6.9e-06
307.45	100	3.0886	0.0009235	8e-06
307.45	10000	3.0886	0.000925	8e-06
307.45	40000	3.0886	0.0009291	8e-06
308.74	100	0.16	0.0007215	6.6e-06
308.74	10000	0.16	0.0007221	6.6e-06
308.74	40000	0.16	0.0007256	6.6e-06
310.64	100	0.2832	0.0007028	6.5e-06
310.64	10000	0.2832	0.0007047	6.5e-06
310.64	40000	0.2832	0.0007074	6.5e-06
311.74	100	1.6046	0.0007684	7e-06
311.74	10000	1.6046	0.00077	7e-06
311.74	40000	1.6046	0.0007748	7e-06
312.45	100	2.1603	0.0007939	7.2e-06
312.45	10000	2.1603	0.0007957	7.2e-06
312.45	40000	2.1603	0.0008016	7.2e-06
322.51	100	0.2832	0.0005682	5.2e-06
322.51	10000	0.2832	0.0005704	5.2e-06
322.51	40000	0.2832	0.0005768	5.3e-06
323.45	100	1.6046	0.0006301	5.7e-06
323.45	10000	1.6046	0.0006327	5.7e-06
323.45	40000	1.6046	0.0006406	5.7e-06
323.74	100	0.16	0.0005504	5.1e-06
323.74	10000	0.16	0.0005527	5.2e-06
323.74	40000	0.16	0.0005599	5.2e-06
324.02	100	2.1603	0.0006554	5.9e-06
324.02	10000	2.1603	0.0006584	5.9e-06
324.02	40000	2.1603	0.0006666	5.9e-06
324.23	100	0.6621	0.0005733	5.4e-06
324.23	10000	0.6621	0.0005758	5.4e-06
324.23	40000	0.6621	0.0005829	5.4e-06
324.62	100	0.08	0.0005385	5.1e-06
324.62	10000	0.08	0.0005407	5.2e-06
324.62	40000	0.08	0.0005475	5.2e-06
325.64	100	3.0886	0.0006865	6.2e-06
325.64	10000	3.0886	0.0006896	6.2e-06
325.64	40000	3.0886	0.0006986	6.2e-06
341.69	100	0.08	0.0004164	4e-06
341.69	10000	0.08	0.0004192	4.1e-06
341.69	40000	0.08	0.0004252	4.1e-06
343.64	100	0.6621	0.0004337	4.2e-06
343.64	10000	0.6621	0.0004368	4.2e-06
343.64	40000	0.6621	0.0004458	4.3e-06
344.06	100	0.16	0.0004065	4e-06
344.06	10000	0.16	0.0004093	4e-06
344.06	40000	0.16	0.0004177	4.1e-06
344.66	100	1.6046	0.0004673	4.4e-06
344.66	10000	1.6046	0.0004708	4.5e-06
344.66	40000	1.6046	0.0004804	4.5e-06
345.43	100	2.1603	0.0004884	4.6e-06
345.43	10000	2.1603	0.0004912	4.6e-06
345.43	40000	2.1603	0.0005015	4.7e-06
347.42	100	0.2832	0.000394	3.9e-06
347.42	10000	0.2832	0.0003976	4e-06
347.42	40000	0.2832	0.0004052	4e-06
348.24	100	3.0886	0.0005101	4.8e-06
348.24	10000	3.0886	0.0005144	4.8e-06
348.24	40000	3.0886	0.0005255	4.9e-06
363.94	100	3.0886	0.0004275	4.1e-06
363.94	10000	3.0886	0.0004317	4.1e-06
363.94	40000	3.0886	0.0004435	4.2e-06
364.95	100	2.1603	0.0003905	3.9e-06
364.95	10000	2.1603	0.0003944	3.8e-06
364.95	40000	2.1603	0.0004048	3.9e-06
367.05	100	0.2832	0.0003119	3.3e-06
367.05	10000	0.2832	0.0003142	3.3e-06
367.05	40000	0.2832	0.0003227	3.3e-06
368.75	100	1.6046	0.0003544	3.6e-06
368.75	10000	1.6046	0.000358	3.6e-06
368.75	40000	1.6046	0.0003678	3.6e-06
368.79	100	0.16	0.0003014	3.2e-06
368.79	10000	0.16	0.0003044	3.2e-06
368.79	40000	0.16	0.0003128	3.3e-06
369.35	100	0.08	0.0002968	3.2e-06
369.35	10000	0.08	0.0002996	3.2e-06
369.35	40000	0.08	0.0003079	3.2e-06
369.49	100	0.6621	0.0003189	3.4e-06
369.49	10000	0.6621	0.0003222	3.3e-06
369.49	40000	0.6621	0.0003313	3.4e-06
396.7	10000	0.08	0.0002301	2.6e-06
396.7	40000	0.08	0.0002381	2.7e-06
397.72	10000	2.1603	0.0002921	3.1e-06
397.72	40000	2.1603	0.0003023	3.2e-06
397.82	10000	0.16	0.0002304	2.6e-06
397.82	40000	0.16	0.0002385	2.7e-06
398.32	10000	0.2832	0.0002331	2.7e-06
398.32	40000	0.2832	0.0002414	2.7e-06
398.72	10000	3.0886	0.0003165	3.3e-06
398.72	40000	3.0886	0.0003278	3.4e-06
398.94	10000	1.6046	0.0002713	2.9e-06
398.94	40000	1.6046	0.0002809	3e-06
399.03	10000	0.6621	0.0002447	2.8e-06
399.03	40000	0.6621	0.0002534	2.8e-06
421.45	10000	0.6621	0.000206	2.5e-06
421.45	40000	0.6621	0.0002139	2.5e-06
422.12	10000	0.08	0.0001885	2.3e-06
422.12	40000	0.08	0.0001959	2.4e-06
422.41	10000	3.0886	0.0002666	2.9e-06
422.41	40000	3.0886	0.000277	3e-06
422.47	10000	1.6046	0.0002275	2.6e-06
422.47	40000	1.6046	0.0002363	2.7e-06
424.14	10000	0.2832	0.0001913	2.4e-06
424.14	40000	0.2832	0.0001988	2.4e-06
424.41	10000	2.1603	0.00024	2.7e-06
424.41	40000	2.1603	0.0002494	2.8e-06
424.49	10000	0.16	0.0001874	2.3e-06
424.49	40000	0.16	0.0001947	2.4e-06
444.25	10000	2.1603	0.0002119	2.5e-06
444.25	40000	2.1603	0.0002206	2.6e-06
447.54	10000	3.0886	0.0002284	2.6e-06
447.54	40000	3.0886	0.0002383	2.7e-06
447.94	10000	1.6046	0.0001945	2.4e-06
447.94	40000	1.6046	0.0002029	2.4e-06
448.75	10000	0.16	0.0001602	2.1e-06
448.75	40000	0.16	0.0001674	2.2e-06
449.02	10000	0.08	0.0001581	2.1e-06
449.02	40000	0.08	0.0001648	2.2e-06
449.06	10000	0.6621	0.0001725	2.2e-06
449.06	40000	0.6621	0.0001802	2.3e-06
449.71	10000	0.2832	0.0001622	2.1e-06
449.71	40000	0.2832	0.0001696	2.2e-06
472.45	10000	0.08	0.0001387	2e-06
472.45	40000	0.08	0.0001452	2e-06
472.92	10000	0.2832	0.0001429	2e-06
472.92	40000	0.2832	0.0001501	2.1e-06
473.06	10000	1.6046	0.0001699	2.2e-06
473.06	40000	1.6046	0.0001784	2.3e-06
473.07	10000	2.1603	0.0001815	2.3e-06
473.07	40000	2.1603	0.00019	2.3e-06
473.46	10000	0.16	0.0001397	2e-06
473.46	40000	0.16	0.0001467	2e-06
473.71	10000	3.0886	0.0001992	2.4e-06
473.71	40000	3.0886	0.0002091	2.5e-06
474.98	10000	0.6621	0.0001497	2.1e-06
474.98	40000	0.6621	0.0001572	2.1e-06
522.7	10000	0.16	0.0001109	1.8e-06
522.7	40000	0.16	0.0001182	1.8e-06
523.42	10000	3.0886	0.0001603	2.1e-06
523.42	40000	3.0886	0.0001711	2.2e-06
523.72	10000	0.08	0.0001089	1.8e-06
523.72	40000	0.08	0.0001163	1.8e-06
524.07	10000	0.2832	0.0001123	1.8e-06
524.07	40000	0.2832	0.0001199	1.8e-06
524.86	10000	1.6046	0.0001344	1.9e-06
524.86	40000	1.6046	0.0001433	2e-06
525.42	10000	0.6621	0.0001185	1.8e-06
525.42	40000	0.6621	0.0001266	1.9e-06
525.49	10000	2.1603	0.0001435	2e-06
525.49	40000	2.1603	0.0001531	2.1e-06
