Measured thermophysical data. Enthalpy of solution of the ionic liquid BMIBF4 in water
Source: Thermochim. Acta, 2005, 10.1016/j.tca.2005.04.032
Compound 1: water, H2O, InChI=1S/H2O/h1H2
Compound 2: 1-butyl-3-methylimidazolium tetrafluoroborate, C8H15BF4N2, InChI=1S/C8H15N2.BF4/c1-3-4-5-10-7-6-9(2)8-10;2-1(3,4)5/h6-8H,3-5H2,1-2H3;/q+1;-1

System: water + 1-butyl-3-methylimidazolium tetrafluoroborate; phases: Liquid
Fixed: Temperature, K = 298.15
Fixed: Pressure, kPa = 101
Property: Molar enthalpy of solution, kJ/mol (Liquid); method: ISOPERIBOL:UFactor:8
Molality, mol/kg of 1-butyl-3-methylimidazolium tetrafluoroborate	Molar enthalpy of solution, kJ/mol	uncertainty
0.002953	22.45	1.39
0.00402	21.56	1.34
0.005	19.77	1.23
0.007077	19.25	1.19
0.007991	18.68	1.16
0.01	17.47	1.08
0.01999	16.84	1.04
0.03999	17.09	1.06
0.04999	15.52	0.96
0.06002	16.73	1.04
0.07	15.86	0.98
0.07999	15.9	0.99
0.09	15.49	0.96
0.09998	15.64	0.97
0.12	15.85	0.98
0.1402	15.38	0.95
