Measured thermophysical data. Determination of standard molar enthalpies of formation of Bi2Mo3O12 (s), Bi2MoO6 (s), Bi6Mo2O15 (s) and Bi6MoO12 (s) by solution calorimetry
Source: Thermochim. Acta, 2019, 10.1016/j.tca.2019.178401
Compound 1: molybdenum, Mo, InChI=1S/Mo
Compound 2: bismuth, Bi, InChI=1S/Bi
Compound 3: oxygen, O2, InChI=1S/O2/c1-2
Compound 4: bismuth molybdate (Bi2Mo3O12), Bi2Mo3O12, InChI=1S/2Bi.3Mo.12O/q2*+3;3*+6;12*-2, purity 99.9%
Compound 5: bismuth molybdate (Bi2MoO6), Bi2MoO6, InChI=1S/2Bi.Mo.6O/q2*+3;+6;6*-2, purity 99.9%
Compound 6: bismuth molybdate (Bi6Mo2O15), Bi6Mo2O15, InChI=1S/6Bi.2Mo.15O/q6*+3;2*+6;15*-2, purity 99.9%
Compound 7: bismuth molybdate (Bi6MoO12), Bi6MoO12, InChI=1S/6Bi.Mo.12O/q6*+3;+6;12*-2, purity 99.9%
Compound 8: hydrogen chloride, ClH, InChI=1S/ClH/h1H, purity 99%
Compound 9: water, H2O, InChI=1S/H2O/h1H2, purity 99.8%
Compound 10: 2-amino-2-(hydroxymethyl)-1,3-propanediol, C4H11NO3, InChI=1S/C4H11NO3/c5-4(1-6,2-7)3-8/h6-8H,1-3,5H2, purity 99.8%

System: 2-amino-2-(hydroxymethyl)-1,3-propanediol + hydrogen chloride + water; phases: Liquid
Property: Molar enthalpy of solution, kJ/mol (Liquid); method: ISOPERIBOL
Mass fraction of 2-amino-2-(hydroxymethyl)-1,3-propanediol	Pressure, kPa	Temperature, K	Solvent: Molality, mol/kg of hydrogen chloride	Molar enthalpy of solution, kJ/mol	uncertainty
0.0023	100	298.15	0.1	-29.62	0.43

Reaction: -3 molybdenum + -2 bismuth + 1 bismuth molybdate (Bi2Mo3O12) + -6 oxygen
Property: Molar enthalpy of reaction, kJ/mol
-2915.8

Reaction: -1 molybdenum + -2 bismuth + 1 bismuth molybdate (Bi2MoO6) + -3 oxygen
Property: Molar enthalpy of reaction, kJ/mol
-1407.2

Reaction: -1 molybdenum + -2 bismuth + 1 bismuth molybdate (Bi2MoO6) + -3 oxygen
Property: Molar enthalpy of reaction, kJ/mol
-1385.7

Reaction: -2 molybdenum + -6 bismuth + 1 bismuth molybdate (Bi6Mo2O15) + -7.5 oxygen
Property: Molar enthalpy of reaction, kJ/mol
-3346.5

Reaction: -1 molybdenum + -6 bismuth + 1 bismuth molybdate (Bi6MoO12) + -6 oxygen
Property: Molar enthalpy of reaction, kJ/mol
-2605.2
