Measured thermophysical data. Thermal decomposition of mechanoactivated ammonium perchlorate
Source: Thermochim. Acta, 2018, 10.1016/j.tca.2018.09.007
Compound 1: ammonium perchlorate, ClH4NO4, InChI=1S/ClHO4.H3N/c2-1(3,4)5;/h(H,2,3,4,5);1H3, purity 98%

System: ammonium perchlorate; phases: Crystal 2
Property: Mass density, kg/m3 (Crystal 2); method: X-ray diffraction
Temperature, K	Pressure, kPa	Mass density, kg/m3	uncertainty
298	101.325	1977	20

System: ammonium perchlorate; phases: Crystal 2, Crystal 1, Air at 1 atmosphere
Property: Triple point temperature, K (Crystal 2); method: DSC
Triple point temperature, K	uncertainty
513.15	1

System: ammonium perchlorate; phases: Crystal 2, Crystal 1, Air at 1 atmosphere
Property: Molar enthalpy of transition or fusion, kJ/mol (Crystal 2); method: DSC
Molar enthalpy of transition or fusion, kJ/mol	uncertainty
8.665973888	0.901139096
