Measured thermophysical data. A calorimetric study on interactions of amino acids with sodium dodecylsulfate and dodecyltrimethylammonium bromide in aqueous solutions at 298.15K
Source: Thermochim. Acta, 2008, 10.1016/j.tca.2008.09.001
Compound 1: water, H2O, InChI=1S/H2O/h1H2
Compound 2: sodium dodecyl sulfate, C12H25NaO4S, InChI=1S/C12H26O4S.Na/c1-2-3-4-5-6-7-8-9-10-11-12-16-17(13,14)15;/h2-12H2,1H3,(H,13,14,15);/q;+1/p-1
Compound 3: dodecyltrimethylammonium bromide, C15H34BrN, InChI=1S/C15H34N.BrH/c1-5-6-7-8-9-10-11-12-13-14-15-16(2,3)4;/h5-15H2,1-4H3;1H/q+1;/p-1
Compound 4: 2-aminoacetic acid, C2H5NO2, InChI=1S/C2H5NO2/c3-1-2(4)5/h1,3H2,(H,4,5), purity 99%
Compound 5: (S)-2-aminopropanoic acid, C3H7NO2, InChI=1S/C3H7NO2/c1-2(4)3(5)6/h2H,4H2,1H3,(H,5,6)/t2-/m0/s1, purity 99%
Compound 6: L-valine, C5H11NO2, InChI=1S/C5H11NO2/c1-3(2)4(6)5(7)8/h3-4H,6H2,1-2H3,(H,7,8)/t4-/m0/s1, purity 99%
Compound 7: L-serine, C3H7NO3, InChI=1S/C3H7NO3/c4-2(1-5)3(6)7/h2,5H,1,4H2,(H,6,7)/t2-/m0/s1, purity 99%
Compound 8: L-threonine, C4H9NO3, InChI=1S/C4H9NO3/c1-2(6)3(5)4(7)8/h2-3,6H,5H2,1H3,(H,7,8)/t2-,3+/m1/s1, purity 99%

System: 2-aminoacetic acid + water; phases: Liquid
Property: Molar enthalpy of solution, kJ/mol (Liquid); method: ISOPERIBOL
Molality, mol/kg of 2-aminoacetic acid	Temperature, K	Pressure, kPa	Molar enthalpy of solution, kJ/mol	uncertainty
0.1	298.15	101.325	14.17	0.14

System: (S)-2-aminopropanoic acid + water; phases: Liquid
Property: Molar enthalpy of solution, kJ/mol (Liquid); method: ISOPERIBOL
Molality, mol/kg of (S)-2-aminopropanoic acid	Temperature, K	Pressure, kPa	Molar enthalpy of solution, kJ/mol	uncertainty
0.1	298.15	101.325	7.6	0.08

System: L-valine + water; phases: Liquid
Property: Molar enthalpy of solution, kJ/mol (Liquid); method: ISOPERIBOL
Molality, mol/kg of L-valine	Temperature, K	Pressure, kPa	Molar enthalpy of solution, kJ/mol	uncertainty
0.1	298.15	101.325	3.15	0.03

System: L-serine + water; phases: Liquid
Property: Molar enthalpy of solution, kJ/mol (Liquid); method: ISOPERIBOL
Molality, mol/kg of L-serine	Temperature, K	Pressure, kPa	Molar enthalpy of solution, kJ/mol	uncertainty
0.1	298.15	101.325	11.3	0.11

System: L-threonine + water; phases: Liquid
Property: Molar enthalpy of solution, kJ/mol (Liquid); method: ISOPERIBOL
Molality, mol/kg of L-threonine	Temperature, K	Pressure, kPa	Molar enthalpy of solution, kJ/mol	uncertainty
0.1	298.15	101.325	10.35	0.1

System: 2-aminoacetic acid + sodium dodecyl sulfate + water; phases: Liquid
Fixed: Temperature, K = 298.15
Fixed: Pressure, kPa = 101.325
Fixed: Molality, mol/kg of 2-aminoacetic acid = 0.0002
Property: Molar enthalpy of solution, kJ/mol (Liquid); method: ISOPERIBOL
Solvent: Molality, mol/kg of sodium dodecyl sulfate	Molar enthalpy of solution, kJ/mol	uncertainty
9.88	14.17	0.14
19.64	14.31	0.14
29.86	14.47	0.14
39.73	14.55	0.15
49.64	14.67	0.15
59.74	14	0.14
69.65	13.86	0.14
79.89	13.94	0.14
89.96	14.17	0.14
99.72	14.28	0.14

System: (S)-2-aminopropanoic acid + sodium dodecyl sulfate + water; phases: Liquid
Fixed: Temperature, K = 298.15
Fixed: Pressure, kPa = 101.325
Fixed: Molality, mol/kg of (S)-2-aminopropanoic acid = 0.0002
Property: Molar enthalpy of solution, kJ/mol (Liquid); method: ISOPERIBOL
Solvent: Molality, mol/kg of sodium dodecyl sulfate	Molar enthalpy of solution, kJ/mol	uncertainty
9.88	7.63	0.08
19.64	7.8	0.08
29.86	7.94	0.08
39.73	8.08	0.08
49.64	8.15	0.08
59.74	7.57	0.08
69.65	7.42	0.07
79.89	7.57	0.08
89.96	7.78	0.08
99.72	7.86	0.08

System: L-valine + sodium dodecyl sulfate + water; phases: Liquid
Fixed: Temperature, K = 298.15
Fixed: Pressure, kPa = 101.325
Fixed: Molality, mol/kg of L-valine = 0.0002
Property: Molar enthalpy of solution, kJ/mol (Liquid); method: ISOPERIBOL
Solvent: Molality, mol/kg of sodium dodecyl sulfate	Molar enthalpy of solution, kJ/mol	uncertainty
9.88	3.22	0.03
19.64	3.38	0.03
29.86	3.55	0.04
39.73	3.65	0.04
49.64	3.74	0.04
59.74	3.55	0.04
69.65	3.16	0.03
79.89	3.56	0.04
89.96	3.65	0.04
99.72	3.76	0.04

System: L-serine + sodium dodecyl sulfate + water; phases: Liquid
Fixed: Temperature, K = 298.15
Fixed: Pressure, kPa = 101.325
Fixed: Molality, mol/kg of L-serine = 0.0002
Property: Molar enthalpy of solution, kJ/mol (Liquid); method: ISOPERIBOL
Solvent: Molality, mol/kg of sodium dodecyl sulfate	Molar enthalpy of solution, kJ/mol	uncertainty
9.88	11.29	0.11
19.64	11.43	0.11
29.86	11.65	0.12
39.73	11.7	0.12
49.64	11.79	0.12
59.74	11.19	0.11
69.65	11.11	0.11
79.89	11.34	0.11
89.96	11.57	0.12
99.72	11.68	0.12

System: L-threonine + sodium dodecyl sulfate + water; phases: Liquid
Fixed: Temperature, K = 298.15
Fixed: Pressure, kPa = 101.325
Fixed: Molality, mol/kg of L-threonine = 0.0002
Property: Molar enthalpy of solution, kJ/mol (Liquid); method: ISOPERIBOL
Solvent: Molality, mol/kg of sodium dodecyl sulfate	Molar enthalpy of solution, kJ/mol	uncertainty
9.88	10.42	0.1
19.64	10.63	0.11
29.86	10.81	0.11
39.73	10.92	0.11
49.64	10.97	0.11
59.74	10.86	0.11
69.65	10.54	0.11
79.89	10.92	0.11
89.96	11.08	0.11
99.72	11.18	0.11

System: 2-aminoacetic acid + dodecyltrimethylammonium bromide + water; phases: Liquid
Fixed: Temperature, K = 298.15
Fixed: Pressure, kPa = 101.325
Fixed: Molality, mol/kg of 2-aminoacetic acid = 0.0002
Property: Molar enthalpy of solution, kJ/mol (Liquid); method: ISOPERIBOL
Solvent: Molality, mol/kg of dodecyltrimethylammonium bromide	Molar enthalpy of solution, kJ/mol	uncertainty
10.14	14.14	0.14
19.66	14.38	0.14
30.75	14.68	0.15
39.91	14.27	0.14
49.69	14.09	0.14
59.81	13.8	0.14
69.78	13.91	0.14
79.65	14.05	0.14
89.88	14.17	0.14
100	14.3	0.14

System: (S)-2-aminopropanoic acid + dodecyltrimethylammonium bromide + water; phases: Liquid
Fixed: Temperature, K = 298.15
Fixed: Pressure, kPa = 101.325
Fixed: Molality, mol/kg of (S)-2-aminopropanoic acid = 0.0002
Property: Molar enthalpy of solution, kJ/mol (Liquid); method: ISOPERIBOL
Solvent: Molality, mol/kg of dodecyltrimethylammonium bromide	Molar enthalpy of solution, kJ/mol	uncertainty
10.14	7.63	0.08
19.66	7.86	0.08
30.75	8.18	0.08
39.91	7.91	0.08
49.69	7.75	0.08
59.81	7.41	0.07
69.78	7.61	0.08
79.65	7.78	0.08
89.88	7.85	0.08
100	7.93	0.08

System: L-valine + dodecyltrimethylammonium bromide + water; phases: Liquid
Fixed: Temperature, K = 298.15
Fixed: Pressure, kPa = 101.325
Fixed: Molality, mol/kg of L-valine = 0.0002
Property: Molar enthalpy of solution, kJ/mol (Liquid); method: ISOPERIBOL
Solvent: Molality, mol/kg of dodecyltrimethylammonium bromide	Molar enthalpy of solution, kJ/mol	uncertainty
10.14	3.18	0.03
19.66	3.48	0.04
30.75	3.75	0.04
39.91	3.6	0.04
49.69	3.41	0.03
59.81	3.31	0.03
69.78	3.51	0.04
79.65	3.67	0.04
89.88	3.76	0.04
100	3.98	0.04

System: L-serine + dodecyltrimethylammonium bromide + water; phases: Liquid
Fixed: Temperature, K = 298.15
Fixed: Pressure, kPa = 101.325
Fixed: Molality, mol/kg of L-serine = 0.0002
Property: Molar enthalpy of solution, kJ/mol (Liquid); method: ISOPERIBOL
Solvent: Molality, mol/kg of dodecyltrimethylammonium bromide	Molar enthalpy of solution, kJ/mol	uncertainty
10.14	11.29	0.11
19.66	11.58	0.12
30.75	11.83	0.12
39.91	11.54	0.12
49.69	11.42	0.11
59.81	11.24	0.11
69.78	11.38	0.11
79.65	11.41	0.11
89.88	11.5	0.12
100	11.53	0.12

System: L-threonine + dodecyltrimethylammonium bromide + water; phases: Liquid
Fixed: Temperature, K = 298.15
Fixed: Pressure, kPa = 101.325
Fixed: Molality, mol/kg of L-threonine = 0.0002
Property: Molar enthalpy of solution, kJ/mol (Liquid); method: ISOPERIBOL
Solvent: Molality, mol/kg of dodecyltrimethylammonium bromide	Molar enthalpy of solution, kJ/mol	uncertainty
10.14	10.38	0.1
19.66	10.71	0.11
30.75	10.98	0.11
39.91	10.95	0.11
49.69	10.86	0.11
59.81	10.67	0.11
69.78	10.87	0.11
79.65	11.01	0.11
89.88	11.11	0.11
100	11.29	0.11
