Measured thermophysical data. Densities of aqueous mixtures of (choline chloride + ethylene glycol) and (choline chloride + malonic acid) deep eutectic solvents in temperature range 283.15-363.15 K
Source: Thermochim. Acta, 2015, 10.1016/j.tca.2014.11.028
Compound 1: choline chloride, C5H14ClNO, InChI=1S/C5H14NO.ClH/c1-6(2,3)4-5-7;/h7H,4-5H2,1-3H3;1H/q+1;/p-1, purity 99%
Compound 2: 1,2-ethanediol, C2H6O2, InChI=1S/C2H6O2/c3-1-2-4/h3-4H,1-2H2, purity 99.8%
Compound 3: propanedioic acid, C3H4O4, InChI=1S/C3H4O4/c4-2(5)1-3(6)7/h1H2,(H,4,5)(H,6,7), purity 99%
Compound 4: water, H2O, InChI=1S/H2O/h1H2

System: water; phases: Liquid
Fixed: Pressure, kPa = 101
Property: Mass density, kg/m3 (Liquid); method: Vibrating tube method
Temperature, K	Mass density, kg/m3	uncertainty
283.15	999.7	1
293.15	998.2	1
303.15	995.7	1
313.15	992.2	1
323.15	988	1
333.15	983.2	1
343.15	977.8	1
353.15	971.7	1
363.15	965	1
303.15	995.6	1
323.15	988.1	1

System: choline chloride + 1,2-ethanediol + water; phases: Liquid
Fixed: Pressure, kPa = 101
Property: Mass density, kg/m3 (Liquid); method: Vibrating tube method
Temperature, K	Mole fraction of choline chloride	Mole fraction of 1,2-ethanediol	Mass density, kg/m3	uncertainty
283.15	0	0	999.7	1
283.15	0.0333	0.0666	1045.7	1.1
283.15	0.0666	0.1333	1072.4	1.1
283.15	0.1	0.2	1088.9	1.1
283.15	0.1333	0.2665	1099.8	1.1
283.15	0.1665	0.3331	1107	1.1
283.15	0.1999	0.3997	1112.2	1.1
283.15	0.2325	0.4649	1116	1.1
283.15	0.2664	0.5328	1118.8	1.1
283.15	0.2999	0.5998	1121.3	1.1
283.15	0.3333	0.6667	1122.9	1.1
293.15	0	0	998.2	1
293.15	0.0333	0.0666	1042	1.1
293.15	0.0666	0.1333	1067.7	1.1
293.15	0.1	0.2	1083.7	1.1
293.15	0.1333	0.2665	1094.4	1.1
293.15	0.1665	0.3331	1101.5	1.1
293.15	0.1999	0.3997	1106.6	1.1
293.15	0.2325	0.4649	1110.3	1.1
293.15	0.2664	0.5328	1113.1	1.1
293.15	0.2999	0.5998	1115.5	1.1
293.15	0.3333	0.6667	1117.1	1.1
303.15	0	0	995.7	1
303.15	0.0333	0.0666	1037.8	1.1
303.15	0.0666	0.1333	1062.8	1.1
303.15	0.1	0.2	1078.5	1.1
303.15	0.1333	0.2665	1088.9	1.1
303.15	0.1665	0.3331	1095.8	1.1
303.15	0.1999	0.3997	1100.9	1.1
303.15	0.2325	0.4649	1104.6	1.1
303.15	0.2664	0.5328	1107.4	1.1
303.15	0.2999	0.5998	1109.7	1.1
303.15	0.3333	0.6667	1111.4	1.1
313.15	0	0	992.2	1
313.15	0.0333	0.0666	1033.2	1.1
313.15	0.0666	0.1333	1057.6	1.1
313.15	0.1	0.2	1073.1	1.1
313.15	0.1333	0.2665	1083.3	1.1
313.15	0.1665	0.3331	1090.2	1.1
313.15	0.1999	0.3997	1095.3	1.1
313.15	0.2325	0.4649	1098.9	1.1
313.15	0.2664	0.5328	1101.7	1.1
313.15	0.2999	0.5998	1104	1.1
313.15	0.3333	0.6667	1105.7	1.1
323.15	0	0	988	1
323.15	0.0333	0.0666	1028.3	1.1
323.15	0.0666	0.1333	1052.3	1.1
323.15	0.1	0.2	1067.5	1.1
323.15	0.1333	0.2665	1077.7	1.1
323.15	0.1665	0.3331	1084.6	1.1
323.15	0.1999	0.3997	1089.6	1.1
323.15	0.2325	0.4649	1093.2	1.1
323.15	0.2664	0.5328	1096.1	1.1
323.15	0.2999	0.5998	1098.3	1.1
323.15	0.3333	0.6667	1100.1	1.1
333.15	0	0	983.2	1
333.15	0.0333	0.0666	1023.3	1.1
333.15	0.0666	0.1333	1047.2	1.1
333.15	0.1	0.2	1062.3	1.1
333.15	0.1333	0.2665	1072.4	1.1
333.15	0.1665	0.3331	1079.3	1.1
333.15	0.1999	0.3997	1084.3	1.1
333.15	0.2325	0.4649	1087.9	1.1
333.15	0.2664	0.5328	1090.8	1.1
333.15	0.2999	0.5998	1093	1.1
333.15	0.3333	0.6667	1094.7	1.1
343.15	0	0	977.8	1
343.15	0.0333	0.0666	1017.6	1.1
343.15	0.0666	0.1333	1041.4	1.1
343.15	0.1	0.2	1056.4	1.1
343.15	0.1333	0.2665	1066.5	1.1
343.15	0.1665	0.3331	1073.3	1.1
343.15	0.1999	0.3997	1078.3	1.1
343.15	0.2325	0.4649	1081.9	1.1
343.15	0.2664	0.5328	1084.7	1.1
343.15	0.2999	0.5998	1086.9	1.1
343.15	0.3333	0.6667	1088.7	1.1
353.15	0	0	971.7	1
353.15	0.0333	0.0666	1011.2	1.1
353.15	0.0666	0.1333	1034.9	1.1
353.15	0.1	0.2	1049.9	1.1
353.15	0.1333	0.2665	1059.9	1.1
353.15	0.1665	0.3331	1066.6	1.1
353.15	0.1999	0.3997	1071.6	1.1
353.15	0.2325	0.4649	1075.2	1.1
353.15	0.2664	0.5328	1078	1.1
353.15	0.2999	0.5998	1080.2	1.1
353.15	0.3333	0.6667	1081.9	1.1
363.15	0	0	965	1
363.15	0.0333	0.0666	1004.2	1.1
363.15	0.0666	0.1333	1027.7	1.1
363.15	0.1	0.2	1042.6	1.1
363.15	0.1333	0.2665	1052.5	1.1
363.15	0.1665	0.3331	1059.3	1.1
363.15	0.1999	0.3997	1064.2	1.1
363.15	0.2325	0.4649	1067.7	1.1
363.15	0.2664	0.5328	1070.5	1.1
363.15	0.2999	0.5998	1072.7	1.1
363.15	0.3333	0.6667	1074.4	1.1

System: choline chloride + propanedioic acid + water; phases: Liquid
Fixed: Pressure, kPa = 101
Property: Mass density, kg/m3 (Liquid); method: Vibrating tube method
Temperature, K	Mole fraction of choline chloride	Mole fraction of propanedioic acid	Mass density, kg/m3	uncertainty
283.15	0	0	999.7	1
283.15	0.0333	0.0666	1079.6	1.1
283.15	0.0666	0.1332	1118.5	1.1
283.15	0.0999	0.1998	1141	1.1
283.15	0.1333	0.2667	1156	1.1
283.15	0.1667	0.3333	1166.7	1.1
283.15	0.2	0.4	1174.7	1.1
283.15	0.2327	0.4655	1180.5	1.1
283.15	0.2663	0.5325	1185.2	1.1
283.15	0.299	0.5979	1188.7	1.1
283.15	0.3333	0.6667	1191.5	1.1
293.15	0	0	998.2	1
293.15	0.0333	0.0666	1075	1.1
293.15	0.0666	0.1332	1113	1.1
293.15	0.0999	0.1998	1135.2	1.1
293.15	0.1333	0.2667	1150	1.1
293.15	0.1667	0.3333	1160.6	1.1
293.15	0.2	0.4	1168.4	1.1
293.15	0.2327	0.4655	1174.1	1.1
293.15	0.2663	0.5325	1178.8	1.1
293.15	0.299	0.5979	1182.4	1.1
293.15	0.3333	0.6667	1185.1	1.1
303.15	0	0	995.6	1
303.15	0.0333	0.0666	1070	1.1
303.15	0.0666	0.1332	1107.3	1.1
303.15	0.0999	0.1998	1129.3	1.1
303.15	0.1333	0.2667	1143.9	1.1
303.15	0.1667	0.3333	1154.5	1.1
303.15	0.2	0.4	1162.1	1.1
303.15	0.2327	0.4655	1167.8	1.1
303.15	0.2663	0.5325	1172.4	1.1
303.15	0.299	0.5979	1176	1.1
303.15	0.3333	0.6667	1178.6	1.1
313.15	0	0	992.2	1
313.15	0.0333	0.0666	1064.8	1.1
313.15	0.0666	0.1332	1101.6	1.1
313.15	0.0999	0.1998	1123.4	1.1
313.15	0.1333	0.2667	1137.9	1.1
313.15	0.1667	0.3333	1148.5	1.1
313.15	0.2	0.4	1156	1.1
313.15	0.2327	0.4655	1161.6	1.1
313.15	0.2663	0.5325	1166.2	1.1
313.15	0.299	0.5979	1169.6	1.1
313.15	0.3333	0.6667	1172.3	1.1
323.15	0	0	988.1	1
323.15	0.0333	0.0666	1059.3	1.1
323.15	0.0666	0.1332	1095.7	1.1
323.15	0.0999	0.1998	1117.5	1.1
323.15	0.1333	0.2667	1131.9	1.1
323.15	0.1667	0.3333	1142.5	1.1
323.15	0.2	0.4	1149.7	1.1
323.15	0.2327	0.4655	1155.5	1.1
323.15	0.2663	0.5325	1160	1.1
323.15	0.299	0.5979	1163.4	1.1
323.15	0.3333	0.6667	1166	1.1
333.15	0	0	983.2	1
333.15	0.0333	0.0666	1054.1	1.1
333.15	0.0666	0.1332	1090.4	1.1
333.15	0.0999	0.1998	1112	1.1
333.15	0.1333	0.2667	1126.4	1.1
333.15	0.1667	0.3333	1136.9	1.1
333.15	0.2	0.4	1144.1	1.1
333.15	0.2327	0.4655	1149.8	1.1
333.15	0.2663	0.5325	1154.4	1.1
333.15	0.299	0.5979	1157.7	1.1
333.15	0.3333	0.6667	1160.3	1.1
343.15	0	0	977.8	1
343.15	0.0333	0.0666	1048.3	1.1
343.15	0.0666	0.1332	1084.3	1.1
343.15	0.0999	0.1998	1105.9	1.1
343.15	0.1333	0.2667	1120.2	1.1
343.15	0.1667	0.3333	1130.6	1.1
343.15	0.2	0.4	1137.7	1.1
343.15	0.2327	0.4655	1143.5	1.1
343.15	0.2663	0.5325	1148	1.1
343.15	0.299	0.5979	1151.3	1.1
343.15	0.3333	0.6667	1154	1.1
353.15	0	0	971.7	1
353.15	0.0333	0.0666	1041.7	1.1
353.15	0.0666	0.1332	1077.6	1.1
353.15	0.0999	0.1998	1099	1.1
353.15	0.1333	0.2667	1113.2	1.1
353.15	0.1667	0.3333	1123.6	1.1
353.15	0.2	0.4	1130.6	1.1
353.15	0.2327	0.4655	1136.3	1.1
353.15	0.2663	0.5325	1140.8	1.1
353.15	0.299	0.5979	1144.1	1.1
353.15	0.3333	0.6667	1146.6	1.1
363.15	0	0	965	1
363.15	0.0333	0.0666	1034.5	1.1
363.15	0.0666	0.1332	1070.1	1.1
363.15	0.0999	0.1998	1091.4	1.1
363.15	0.1333	0.2667	1105.5	1.1
363.15	0.1667	0.3333	1115.8	1.1
363.15	0.2	0.4	1122.8	1.1
363.15	0.2327	0.4655	1128.4	1.1
363.15	0.2663	0.5325	1132.9	1.1
363.15	0.299	0.5979	1136.1	1.1
363.15	0.3333	0.6667	1138.8	1.1

System: choline chloride + 1,2-ethanediol; phases: Liquid
Fixed: Mole fraction of choline chloride = 0.3333
Fixed: Pressure, kPa = 101
Property: Mass density, kg/m3 (Liquid); method: Vibrating tube method
Temperature, K	Mass density, kg/m3	uncertainty
283.15	1122.9	1.1
293.15	1117.1	1.1
303.15	1111.4	1.1
313.15	1105.7	1.1
323.15	1100.1	1.1
333.15	1094.7	1.1
343.15	1088.7	1.1
353.15	1081.9	1.1
363.15	1074.4	1.1

System: choline chloride + propanedioic acid; phases: Liquid
Fixed: Mole fraction of choline chloride = 0.3333
Fixed: Pressure, kPa = 101
Property: Mass density, kg/m3 (Liquid); method: Vibrating tube method
Temperature, K	Mass density, kg/m3	uncertainty
283.15	1191.5	1.1
293.15	1185.1	1.1
303.15	1178.6	1.1
313.15	1172.3	1.1
323.15	1166	1.1
333.15	1160.3	1.1
343.15	1154	1.1
353.15	1146.6	1.1
363.15	1138.8	1.1
