Measured thermophysical data. Thermodynamic stability of Sm2TeO6
Source: Thermochim. Acta, 2008, 10.1016/j.tca.2007.11.004
Compound 1: tellurium dioxide, O2Te, InChI=1S/O2Te/c1-3-2
Compound 2: samarium oxide (Sm2O3), O3Sm2, InChI=1S/3O.2Sm/q3*-2;2*+3
Compound 3: oxygen, O2, InChI=1S/O2/c1-2
Compound 4: telluric acid (H6TeO6), samarium(3+) salt (1:2), O6Sm2Te, InChI=1S/H6O6Te.2Sm/c1-7(2,3,4,5)6;;/h1-6H;;/q;2*+3/p-6, purity 98%

System: tellurium dioxide; phases: Crystal, Gas
Property: Vapor or sublimation pressure, kPa (Crystal); method: Transpiration method
Temperature, K	Vapor or sublimation pressure, kPa	uncertainty
884	0.0001487	7.5e-06
889	0.0001692	8.6e-06
895	0.0001987	1e-05
899	0.0002538	1.28e-05
905	0.0003102	1.56e-05
909	0.0003271	1.65e-05
915	0.0004741	2.38e-05
925	0.0006099	3.06e-05
925	0.0006023	3.02e-05
925	0.0005679	2.85e-05
926	0.0005409	2.72e-05
935	0.0009295	4.66e-05
940	0.0011548	5.79e-05
941	0.0010718	5.37e-05
946	0.0012551	6.29e-05
951	0.0014646	7.33e-05
960	0.0021684	0.0001085
971	0.0034074	0.0001705
976	0.0037172	0.000186
982	0.0045432	0.0002273
987	0.0049562	0.0002479

Reaction: 1 tellurium dioxide + 1 samarium oxide (Sm2O3) + -1 telluric acid (H6TeO6), samarium(3+) salt (1:2) + .5 oxygen
Property: Thermodynamic equilibrium constant
9.64e-06
1.285e-05
1.554e-05
2.479e-05
4.199e-05
4.957e-05
4.575e-05
5.096e-05
5.354e-05
5.685e-05
9.915e-05
0.00014575
0.00031963
0.00048633
0.00076246
0.00142776
