Measured thermophysical data. Enthalpies of L-threonine dissolution in some aqueous amides at 298.15 K
Source: Thermochim. Acta, 2010, 10.1016/j.tca.2010.03.014
Compound 1: L-threonine, C4H9NO3, InChI=1S/C4H9NO3/c1-2(6)3(5)4(7)8/h2-3,6H,5H2,1H3,(H,7,8)/t2-,3+/m1/s1
Compound 2: formamide, CH3NO, InChI=1S/CH3NO/c2-1-3/h1H,(H2,2,3)
Compound 3: water, H2O, InChI=1S/H2O/h1H2
Compound 4: N-methylformamide, C2H5NO, InChI=1S/C2H5NO/c1-3-2-4/h2H,1H3,(H,3,4)
Compound 5: dimethylformamide, C3H7NO, InChI=1S/C3H7NO/c1-4(2)3-5/h3H,1-2H3
Compound 6: N,N-dimethylethanamide, C4H9NO, InChI=1S/C4H9NO/c1-4(6)5(2)3/h1-3H3

System: L-threonine + formamide + water; phases: Liquid
Fixed: Temperature, K = 298.15
Fixed: Pressure, kPa = 101.325
Fixed: Molality, mol/kg of L-threonine = 0.01
Property: Molar enthalpy of solution, kJ/mol (Liquid); method: Flow calorimetry
Solvent: Molality, mol/kg of formamide	Molar enthalpy of solution, kJ/mol	uncertainty
1.242	10.21	0.13
2.345	10.08	0.12
3.748	9.94	0.12
5.079	9.87	0.12
7.521	9.63	0.12
8.477	9.6	0.12
10.867	9.56	0.12
12.756	9.37	0.11
17.652	9.15	0.11
25.445	9.11	0.11
35.557	8.92	0.11

System: L-threonine + N-methylformamide + water; phases: Liquid
Fixed: Temperature, K = 298.15
Fixed: Pressure, kPa = 101.325
Fixed: Solvent: Molality, mol/kg of L-threonine = 0.01
Property: Molar enthalpy of solution, kJ/mol (Liquid); method: Flow calorimetry
Molality, mol/kg of N-methylformamide	Molar enthalpy of solution, kJ/mol	uncertainty
0.814	10.65	0.13
1.646	11.21	0.14
2.411	11.77	0.14
3.869	12.58	0.15
4.701	12.99	0.16
5.829	13.28	0.16
8.681	13.84	0.17
9.909	14.19	0.17
12.404	14.81	0.18
17.463	15.52	0.19
24.523	16.11	0.2
34.557	15.57	0.19

System: dimethylformamide + L-threonine + water; phases: Liquid
Fixed: Temperature, K = 298.15
Fixed: Pressure, kPa = 101.325
Fixed: Solvent: Molality, mol/kg of L-threonine = 0.01
Property: Molar enthalpy of solution, kJ/mol (Liquid); method: Flow calorimetry
Molality, mol/kg of dimethylformamide	Molar enthalpy of solution, kJ/mol	uncertainty
0.717	11.12	0.14
1.193	11.81	0.14
2.102	12.58	0.15
2.598	13.11	0.16
3.528	13.87	0.17
4.372	14.61	0.18
5.586	15.48	0.19
6.503	16.24	0.2
9.282	17.29	0.21
12.996	18.24	0.22
18.183	18.98	0.23
25.926	19.21	0.24

System: L-threonine + N,N-dimethylethanamide + water; phases: Liquid
Fixed: Temperature, K = 298.15
Fixed: Pressure, kPa = 101.325
Fixed: Solvent: Molality, mol/kg of L-threonine = 0.01
Property: Molar enthalpy of solution, kJ/mol (Liquid); method: Flow calorimetry
Molality, mol/kg of N,N-dimethylethanamide	Molar enthalpy of solution, kJ/mol	uncertainty
0.476	11.29	0.14
0.978	12.15	0.15
1.553	12.76	0.16
2.136	13.46	0.16
2.852	14.38	0.18
3.565	15.17	0.19
4.439	16.18	0.2
5.368	17.12	0.21
6.472	17.78	0.22
7.714	18.24	0.22
10.759	18.32	0.22
15.079	17.73	0.22
