Measured thermophysical data. Characterization of the volumetric properties of betaine in aqueous solutions: Compositional, pressure, and temperature dependence
Source: Thermochim. Acta, 2014, 10.1016/j.tca.2014.03.042
Compound 1: (trimethylammonio)acetate, C5H11NO2, InChI=1S/C5H11NO2/c1-6(2,3)4-5(7)8/h4H2,1-3H3, purity 99%
Compound 2: water, H2O, InChI=1S/H2O/h1H2, purity 99.8%

System: water; phases: Liquid
Property: Mass density, kg/m3 (Liquid); method: Vibrating tube method
Pressure, kPa	Temperature, K	Mass density, kg/m3	uncertainty
100	278.15	999.964	1.079
100	288.15	999.09	1.092
100	298.15	997.043	1.083
100	308.15	994.029	1.083
100	323.15	988.03	1.062
10000	278.15	1004.78	1.08
10000	288.15	1003.67	1.08
10000	298.15	1001.47	1.07
10000	308.15	998.36	1.07
10000	323.15	992.31	1.06
25000	278.15	1011.88	1.08
25000	288.15	1010.42	1.08
25000	298.15	1007.99	1.07
25000	308.15	1004.75	1.07
25000	323.15	998.61	1.06
50000	278.15	1023.2	1.08
50000	288.15	1021.21	1.07
50000	298.15	1018.44	1.07
50000	308.15	1014.97	1.06
50000	323.15	1008.68	1.06
75000	278.15	1033.92	1.07
75000	288.15	1031.47	1.07
75000	298.15	1028.38	1.06
75000	308.15	1024.71	1.06
75000	323.15	1018.27	1.05
100000	278.15	1044.09	1.07
100000	288.15	1041.23	1.07
100000	298.15	1037.86	1.07
100000	308.15	1034	1.06
100000	323.15	1027.42	1.05

System: (trimethylammonio)acetate + water; phases: Liquid
Property: Mass density, kg/m3 (Liquid); method: Vibrating tube method
Pressure, kPa	Molality, mol/kg of (trimethylammonio)acetate	Temperature, K	Mass density, kg/m3	uncertainty
100	0	278.15	999.964	1.079
100	0	288.15	999.09	1.092
100	0	298.15	997.043	1.083
100	0	308.15	994.029	1.083
100	0	323.15	988.03	1.062
100	0.1461	278.15	1002.91	1.08
100	0.1461	288.15	1001.89	1.07
100	0.1461	298.15	999.75	1.06
100	0.1461	308.15	996.67	1.06
100	0.1461	323.15	990.62	1.06
100	0.2486	278.15	1004.92	1.07
100	0.2486	288.15	1003.8	1.07
100	0.2486	298.15	1001.59	1.06
100	0.2486	308.15	998.47	1.06
100	0.2486	323.15	992.39	1.06
100	0.3443	278.15	1006.76	1.07
100	0.3443	288.15	1005.55	1.06
100	0.3443	298.15	1003.27	1.06
100	0.3443	308.15	1000.12	1.05
100	0.3443	323.15	993.99	1.06
100	0.3977	278.15	1007.77	1.07
100	0.3977	288.15	1006.51	1.03
100	0.3977	298.15	1004.2	1.03
100	0.3977	308.15	1001.02	1.02
100	0.3977	323.15	994.88	1.06
100	0.661	278.15	1012.62	1.07
100	0.661	288.15	1011.12	1.06
100	0.661	298.15	1008.64	1.05
100	0.661	308.15	1005.36	1.05
100	0.661	323.15	999.13	1.05
100	0.7875	278.15	1014.86	1.06
100	0.7875	288.15	1013.25	1.05
100	0.7875	298.15	1010.7	1.05
100	0.7875	308.15	1007.36	1.05
100	0.7875	323.15	1001.1	1.05
100	1.2	278.15	1021.82	1.05
100	1.2	288.15	1019.91	1.04
100	1.2	298.15	1017.11	1.04
100	1.2	308.15	1013.61	1.04
100	1.2	323.15	1007.27	1.04
100	2.2709	278.15	1037.8	1.04
100	2.2709	288.15	1035.17	1.03
100	2.2709	298.15	1031.91	1.03
100	2.2709	308.15	1028.14	1.03
100	2.2709	323.15	1021.5	1.03
100	3.7934	278.15	1056.52	1.03
100	3.7934	288.15	1052.93	1.03
100	3.7934	298.15	1049.22	1.02
100	3.7934	308.15	1045.38	1.03
100	3.7934	323.15	1038.4	1
100	4.0452	278.15	1059.26	1.03
100	4.0452	288.15	1055.57	1.03
100	4.0452	298.15	1051.78	1.02
100	4.0452	308.15	1047.87	1.02
100	4.0452	323.15	1040.85	1.02
10000	0	278.15	1004.78	1.08
10000	0	288.15	1003.67	1.08
10000	0	298.15	1001.47	1.07
10000	0	308.15	998.36	1.07
10000	0	323.15	992.31	1.06
10000	0.1461	278.15	1007.65	1.07
10000	0.1461	288.15	1006.41	1.07
10000	0.1461	298.15	1004.11	1.06
10000	0.1461	308.15	1000.94	1.06
10000	0.1461	323.15	994.84	1.06
10000	0.2486	278.15	1009.61	1.07
10000	0.2486	288.15	1008.27	1.06
10000	0.2486	298.15	1005.92	1.06
10000	0.2486	308.15	1002.7	1.06
10000	0.2486	323.15	996.57	1.05
10000	0.3443	278.15	1011.41	1.07
10000	0.3443	288.15	1009.97	1.06
10000	0.3443	298.15	1007.56	1.06
10000	0.3443	308.15	1004.31	1.05
10000	0.3443	323.15	998.14	1.05
10000	0.3977	278.15	1012.4	1.06
10000	0.3977	288.15	1010.92	1.04
10000	0.3977	298.15	1008.48	1.04
10000	0.3977	308.15	1005.2	1.03
10000	0.3977	323.15	999.01	1.05
10000	0.661	278.15	1017.13	1.06
10000	0.661	288.15	1015.42	1.06
10000	0.661	298.15	1012.81	1.05
10000	0.661	308.15	1009.44	1.05
10000	0.661	323.15	1003.17	1.05
10000	0.7875	278.15	1019.3	1.06
10000	0.7875	288.15	1017.5	1.05
10000	0.7875	298.15	1014.83	1.05
10000	0.7875	308.15	1011.4	1.05
10000	0.7875	323.15	1005.1	1.04
10000	1.2	278.15	1026.12	1.05
10000	1.2	288.15	1024.02	1.04
10000	1.2	298.15	1021.11	1.04
10000	1.2	308.15	1017.53	1.04
10000	1.2	323.15	1011.14	1.04
10000	2.2709	278.15	1041.76	1.04
10000	2.2709	288.15	1038.96	1.03
10000	2.2709	298.15	1035.61	1.03
10000	2.2709	308.15	1031.75	1.03
10000	2.2709	323.15	1025.09	1.03
10000	3.7934	278.15	1060.12	1.03
10000	3.7934	288.15	1056.38	1.03
10000	3.7934	298.15	1052.54	1.03
10000	3.7934	308.15	1048.65	1.03
10000	3.7934	323.15	1041.63	1.02
10000	4.0452	278.15	1062.82	1.03
10000	4.0452	288.15	1058.96	1.03
10000	4.0452	298.15	1055.05	1.03
10000	4.0452	308.15	1051.13	1.02
10000	4.0452	323.15	1044.07	1.02
25000	0	278.15	1011.88	1.08
25000	0	288.15	1010.42	1.08
25000	0	298.15	1007.99	1.07
25000	0	308.15	1004.75	1.07
25000	0	323.15	998.61	1.06
25000	0.1461	278.15	1014.66	1.07
25000	0.1461	288.15	1013.06	1.06
25000	0.1461	298.15	1010.54	1.06
25000	0.1461	308.15	1007.25	1.06
25000	0.1461	323.15	1001.05	1.05
25000	0.2486	278.15	1016.55	1.07
25000	0.2486	288.15	1014.86	1.06
25000	0.2486	298.15	1012.29	1.06
25000	0.2486	308.15	1008.95	1.05
25000	0.2486	323.15	1002.72	1.05
25000	0.3443	278.15	1018.29	1.06
25000	0.3443	288.15	1016.52	1.06
25000	0.3443	298.15	1013.89	1.05
25000	0.3443	308.15	1010.52	1.05
25000	0.3443	323.15	1004.25	1.05
25000	0.3977	278.15	1019.24	1.05
25000	0.3977	288.15	1017.43	1.03
25000	0.3977	298.15	1014.76	1.03
25000	0.3977	308.15	1011.38	1.03
25000	0.3977	323.15	1005.09	1.04
25000	0.661	278.15	1023.8	1.06
25000	0.661	288.15	1021.77	1.05
25000	0.661	298.15	1018.97	1.05
25000	0.661	308.15	1015.48	1.05
25000	0.661	323.15	1009.13	1.05
25000	0.7875	278.15	1025.91	1.05
25000	0.7875	288.15	1023.77	1.05
25000	0.7875	298.15	1020.92	1.05
25000	0.7875	308.15	1017.38	1.04
25000	0.7875	323.15	1011	1.04
25000	1.2	278.15	1032.48	1.04
25000	1.2	288.15	1030.06	1.04
25000	1.2	298.15	1027.02	1.04
25000	1.2	308.15	1023.31	1.04
25000	1.2	323.15	1016.89	1.04
25000	2.2709	278.15	1047.62	1.04
25000	2.2709	288.15	1044.57	1.03
25000	2.2709	298.15	1041.07	1.03
25000	2.2709	308.15	1037.25	1.03
25000	2.2709	323.15	1030.49	1.03
25000	3.7934	278.15	1065.42	1.03
25000	3.7934	288.15	1061.51	1.03
25000	3.7934	298.15	1057.68	1.03
25000	3.7934	308.15	1053.7	1.03
25000	3.7934	323.15	1046.67	1.03
25000	4.0452	278.15	1068.05	1.03
25000	4.0452	288.15	1063.98	1.03
25000	4.0452	298.15	1060.16	1.03
25000	4.0452	308.15	1056.13	1.02
25000	4.0452	323.15	1049.03	1.02
50000	0	278.15	1023.2	1.08
50000	0	288.15	1021.21	1.07
50000	0	298.15	1018.44	1.07
50000	0	308.15	1014.97	1.06
50000	0	323.15	1008.68	1.06
50000	0.1461	278.15	1025.83	1.06
50000	0.1461	288.15	1023.72	1.06
50000	0.1461	298.15	1020.86	1.05
50000	0.1461	308.15	1017.33	1.05
50000	0.1461	323.15	1010.99	1.05
50000	0.2486	278.15	1027.62	1.06
50000	0.2486	288.15	1025.42	1.06
50000	0.2486	298.15	1022.51	1.05
50000	0.2486	308.15	1018.95	1.05
50000	0.2486	323.15	1012.57	1.05
50000	0.3443	278.15	1029.27	1.06
50000	0.3443	288.15	1026.98	1.05
50000	0.3443	298.15	1024.02	1.05
50000	0.3443	308.15	1020.43	1.05
50000	0.3443	323.15	1014.02	1.04
50000	0.3977	278.15	1030.16	1.04
50000	0.3977	288.15	1027.85	1.03
50000	0.3977	298.15	1024.85	1.03
50000	0.3977	308.15	1021.23	1.03
50000	0.3977	323.15	1014.81	1.03
50000	0.661	278.15	1034.45	1.06
50000	0.661	288.15	1031.96	1.05
50000	0.661	298.15	1028.83	1.05
50000	0.661	308.15	1025.12	1.05
50000	0.661	323.15	1018.63	1.04
50000	0.7875	278.15	1036.43	1.05
50000	0.7875	288.15	1033.87	1.05
50000	0.7875	298.15	1030.66	1.05
50000	0.7875	308.15	1026.93	1.04
50000	0.7875	323.15	1020.4	1.04
50000	1.2	278.15	1042.6	1.05
50000	1.2	288.15	1039.8	1.04
50000	1.2	298.15	1036.44	1.04
50000	1.2	308.15	1032.58	1.04
50000	1.2	323.15	1025.99	1.04
50000	2.2709	278.15	1056.92	1.04
50000	2.2709	288.15	1053.54	1.04
50000	2.2709	298.15	1049.88	1.04
50000	2.2709	308.15	1045.84	1.04
50000	2.2709	323.15	1039.04	1.03
50000	3.7934	278.15	1073.92	1.05
50000	3.7934	288.15	1069.67	1.04
50000	3.7934	298.15	1065.76	1.04
50000	3.7934	308.15	1061.55	1.04
50000	3.7934	323.15	1054.57	1.03
50000	4.0452	278.15	1076.41	1.04
50000	4.0452	288.15	1072.08	1.04
50000	4.0452	298.15	1068.13	1.04
50000	4.0452	308.15	1063.87	1.04
50000	4.0452	323.15	1056.96	1.03
75000	0	278.15	1033.92	1.07
75000	0	288.15	1031.47	1.07
75000	0	298.15	1028.38	1.06
75000	0	308.15	1024.71	1.06
75000	0	323.15	1018.27	1.05
75000	0.1461	278.15	1036.4	1.06
75000	0.1461	288.15	1033.84	1.06
75000	0.1461	298.15	1030.67	1.05
75000	0.1461	308.15	1026.94	1.05
75000	0.1461	323.15	1020.46	1.05
75000	0.2486	278.15	1038.1	1.06
75000	0.2486	288.15	1035.45	1.06
75000	0.2486	298.15	1032.22	1.05
75000	0.2486	308.15	1028.47	1.05
75000	0.2486	323.15	1021.96	1.05
75000	0.3443	278.15	1039.64	1.06
75000	0.3443	288.15	1036.93	1.05
75000	0.3443	298.15	1033.65	1.05
75000	0.3443	308.15	1029.87	1.05
75000	0.3443	323.15	1023.32	1.04
75000	0.3977	278.15	1040.49	1.04
75000	0.3977	288.15	1037.74	1.04
75000	0.3977	298.15	1034.44	1.03
75000	0.3977	308.15	1030.64	1.03
75000	0.3977	323.15	1024.07	1.03
75000	0.661	278.15	1044.54	1.06
75000	0.661	288.15	1041.64	1.05
75000	0.661	298.15	1038.21	1.05
75000	0.661	308.15	1034.36	1.05
75000	0.661	323.15	1027.71	1.04
75000	0.7875	278.15	1046.41	1.06
75000	0.7875	288.15	1043.44	1.05
75000	0.7875	298.15	1039.97	1.05
75000	0.7875	308.15	1036.1	1.05
75000	0.7875	323.15	1029.42	1.04
75000	1.2	278.15	1052.22	1.05
75000	1.2	288.15	1049.08	1.05
75000	1.2	298.15	1045.49	1.05
75000	1.2	308.15	1041.5	1.04
75000	1.2	323.15	1034.78	1.04
75000	2.2709	278.15	1065.76	1.06
75000	2.2709	288.15	1062.12	1.05
75000	2.2709	298.15	1058.37	1.05
75000	2.2709	308.15	1054.21	1.05
75000	2.2709	323.15	1047.38	1.04
75000	3.7934	278.15	1081.9	1.07
75000	3.7934	288.15	1077.66	1.06
75000	3.7934	298.15	1073.61	1.06
75000	3.7934	308.15	1069.33	1.05
75000	3.7934	323.15	1062.4	1.05
75000	4.0452	278.15	1084.29	1.07
75000	4.0452	288.15	1079.94	1.06
75000	4.0452	298.15	1075.81	1.06
75000	4.0452	308.15	1071.61	1.05
75000	4.0452	323.15	1064.7	1.05
100000	0	278.15	1044.09	1.07
100000	0	288.15	1041.23	1.07
100000	0	298.15	1037.86	1.07
100000	0	308.15	1034	1.06
100000	0	323.15	1027.42	1.05
100000	0.1461	278.15	1046.43	1.07
100000	0.1461	288.15	1043.46	1.06
100000	0.1461	298.15	1040.02	1.06
100000	0.1461	308.15	1036.11	1.05
100000	0.1461	323.15	1029.48	1.05
100000	0.2486	278.15	1048.03	1.07
100000	0.2486	288.15	1044.98	1.06
100000	0.2486	298.15	1041.49	1.06
100000	0.2486	308.15	1037.55	1.05
100000	0.2486	323.15	1030.9	1.05
100000	0.3443	278.15	1049.48	1.07
100000	0.3443	288.15	1046.39	1.06
100000	0.3443	298.15	1042.84	1.06
100000	0.3443	308.15	1038.88	1.05
100000	0.3443	323.15	1032.19	1.05
100000	0.3977	278.15	1050.28	1.07
100000	0.3977	288.15	1047.16	1.05
100000	0.3977	298.15	1043.58	1.05
100000	0.3977	308.15	1039.62	1.04
100000	0.3977	323.15	1032.92	1.05
100000	0.661	278.15	1054.09	1.07
100000	0.661	288.15	1050.83	1.06
100000	0.661	298.15	1047.18	1.06
100000	0.661	308.15	1043.18	1.06
100000	0.661	323.15	1036.45	1.05
100000	0.7875	278.15	1055.84	1.07
100000	0.7875	288.15	1052.52	1.06
100000	0.7875	298.15	1048.86	1.06
100000	0.7875	308.15	1044.84	1.06
100000	0.7875	323.15	1038.1	1.05
100000	1.2	278.15	1061.29	1.07
100000	1.2	288.15	1057.86	1.06
100000	1.2	298.15	1054.13	1.06
100000	1.2	308.15	1050.09	1.06
100000	1.2	323.15	1043.34	1.05
100000	2.2709	278.15	1074.02	1.08
100000	2.2709	288.15	1070.28	1.07
100000	2.2709	298.15	1066.56	1.07
100000	2.2709	308.15	1062.36	1.06
100000	2.2709	323.15	1055.57	1.06
100000	3.7934	278.15	1089.47	1.1
100000	3.7934	288.15	1085.2	1.09
100000	3.7934	298.15	1081.22	1.09
100000	3.7934	308.15	1077.04	1.08
100000	3.7934	323.15	1070.28	1.07
100000	4.0452	278.15	1091.74	1.1
100000	4.0452	288.15	1087.43	1.1
100000	4.0452	298.15	1083.42	1.09
100000	4.0452	308.15	1079.18	1.08
100000	4.0452	323.15	1072.49	1.08
