Measured thermophysical data. Thermodynamic and spectroscopic studies on the phase transition of BaHf(PO4)2
Source: Thermochim. Acta, 2006, 10.1016/j.tca.2006.08.011
Compound 1: BaHf(PO4)2, BaHfO8P2, InChI=1S/Ba.Hf.2H3O4P/c;;2*1-5(2,3)4/h;;2*(H3,1,2,3,4)/q+2;+4;;/p-6, purity 98%

System: BaHf(PO4)2; phases: Crystal 1
Fixed: Pressure, kPa = 101.325
Property: Molar enthalpy, kJ/mol (Crystal 1); method: Small sample (50 mg) DSC
Lower temperature, K	Upper temperature, K	Molar enthalpy, kJ/mol	uncertainty
298.8	787.5	129.924	3.561
298.9	787.7	128.823	2.099
298	837.6	143.856	4.535
298.3	887.4	155.669	5.147
298.6	887.5	156.543	3.845
296.9	986.9	181.621	3.356
298.4	987.1	182.813	3.664
300.7	1086.2	207.42	4.334
299.6	1086.9	208.205	5.925
301.3	1185.9	236.153	6.215
299.5	1186.6	233.48	4.184
301.2	1285.6	270.918	4.197
300	1286.3	268.011	6.602
300	1385.6	301.218	15.841
300.4	1386.3	301.226	9.968
300.9	1435.2	312.894	15.163
301.7	1485.5	326.193	10.281
301.1	1536.2	335.018	8.007
301.4	1566.3	342.972	10.195

System: BaHf(PO4)2; phases: Crystal 2
Fixed: Pressure, kPa = 101.325
Property: Molar enthalpy, kJ/mol (Crystal 2); method: Small sample (50 mg) DSC
Lower temperature, K	Upper temperature, K	Molar enthalpy, kJ/mol	uncertainty
297.4	484.2	42.908	1.281
296.1	535.5	55.279	1.282
296.2	535.6	55.727	0.863
299.1	586.1	69.406	1.833
299.2	586.7	69.779	2.444
298.9	636.9	82.658	2.535
297.9	687.1	97.122	2.506
299.1	687.2	97.706	3.768
298.4	737.5	111.467	2.588
