Measured thermophysical data. Non-isothermal decomposition kinetics of pyridinium nitrate under nitrogen atmosphere
Source: Thermochim. Acta, 2018, 10.1016/j.tca.2018.05.016
Compound 1: pyridinium nitrate, C5H6N2O3, InChI=1S/C5H5N.NO3/c1-2-4-6-5-3-1;2-1(3)4/h1-5H;/q;-1/p+1

System: pyridinium nitrate; phases: Crystal, Liquid, Air at 1 atmosphere
Property: Triple point temperature, K (Crystal); method: DSC
Triple point temperature, K	uncertainty
390	5

System: pyridinium nitrate; phases: Crystal, Liquid, Air at 1 atmosphere
Property: Molar enthalpy of transition or fusion, kJ/mol (Crystal); method: DSC
Molar enthalpy of transition or fusion, kJ/mol	uncertainty
17.26	0.62
