Measured thermophysical data. Phase behavior of aqueous two-phase systems composed of1-alkyl-3-methylimidazolium bromide + Rb2CO3/Cs2CO3+ water
Source: Thermochim. Acta, 2013, 10.1016/j.tca.2013.05.025
Compound 1: 1-ethyl-3-methylimidazolium bromide, C6H11BrN2, InChI=1S/C6H11N2.BrH/c1-3-8-5-4-7(2)6-8;/h4-6H,3H2,1-2H3;1H/q+1;/p-1, purity 99%
Compound 2: 1-methyl-3-propylimidazolium bromide, C7H13BrN2, InChI=1S/C7H13N2.BrH/c1-3-4-9-6-5-8(2)7-9;/h5-7H,3-4H2,1-2H3;1H/q+1;/p-1, purity 99%
Compound 3: 1-butyl-3-methylimidazolium bromide, C8H15BrN2, InChI=1S/C8H15N2.BrH/c1-3-4-5-10-7-6-9(2)8-10;/h6-8H,3-5H2,1-2H3;1H/q+1;/p-1, purity 99%
Compound 4: 1-allyl-3-methylimidazolium bromide, C7H11BrN2, InChI=1S/C7H11N2.BrH/c1-3-4-9-6-5-8(2)7-9;/h3,5-7H,1,4H2,2H3;1H/q+1;/p-1, purity 99%
Compound 5: rubidium carbonate, CO3Rb2, InChI=1S/CH2O3.2Rb/c2-1(3)4;;/h(H2,2,3,4);;/q;2*+1/p-2, purity 99.5%
Compound 6: cesium carbonate, CCs2O3, InChI=1S/CH2O3.2Cs/c2-1(3)4;;/h(H2,2,3,4);;/q;2*+1/p-2, purity 99.5%
Compound 7: water, H2O, InChI=1S/H2O/h1H2

System: rubidium carbonate + water + 1-ethyl-3-methylimidazolium bromide; phases: Liquid
Fixed: Temperature, K = 298.15
Fixed: Pressure, kPa = 101
Property: Mass density, kg/m3 (Liquid); method: Vibrating tube method
Mass fraction of 1-ethyl-3-methylimidazolium bromide	Mass fraction of rubidium carbonate	Mass density, kg/m3	uncertainty
0.0183	0	1002.2	0.1
0.0364	0	1007.31	0.1
0.0546	0	1012.54	0.1
0.0727	0	1017.86	0.11
0.0906	0	1023.08	0.11
0.1092	0	1028.63	0.11
0.1273	0	1034.24	0.11
0.1451	0	1039.61	0.12
0.1634	0	1045.52	0.12
0.1818	0	1051.28	0.13
0.0179	0.0301	1027.58	0.11
0.0348	0.03	1032.48	0.11
0.0536	0.0301	1038.2	0.11
0.0721	0.0299	1043.63	0.11
0.0904	0.03	1049.28	0.12
0.1085	0.03	1054.88	0.12
0.1266	0.03	1060.76	0.12
0.145	0.0299	1066.74	0.13
0.1632	0.0299	1072.4	0.13
0.1821	0.03	1078.83	0.14
0.0183	0.06	1054.06	0.12
0.0362	0.06	1059.15	0.12
0.0544	0.06	1065.04	0.13
0.0724	0.0601	1070.91	0.13
0.0904	0.0599	1076.51	0.13
0.10936	0.06	1082.75	0.14
0.12823	0.06	1088.95	0.14
0.14563	0.0599	1094.82	0.14
0.16453	0.06	1100.59	0.15
0.18228	0.0601	1106.29	0.15

System: rubidium carbonate + water + 1-ethyl-3-methylimidazolium bromide; phases: Liquid
Fixed: Temperature, K = 298.15
Fixed: Pressure, kPa = 101
Property: Refractive index (Na D-line) (Liquid); method: Standard Abbe refractometry
Mass fraction of 1-ethyl-3-methylimidazolium bromide	Mass fraction of rubidium carbonate	Refractive index (Na D-line)	uncertainty
0.0183	0	1.33516	0.00031
0.0364	0	1.33782	0.00031
0.0546	0	1.34055	0.00031
0.0727	0	1.34332	0.00031
0.0906	0	1.34604	0.00031
0.1092	0	1.34892	0.00031
0.1273	0	1.35182	0.00032
0.1451	0	1.35464	0.00032
0.1634	0	1.35771	0.00032
0.1818	0	1.36069	0.00032
0.0179	0.0301	1.33829	0.00031
0.0348	0.03	1.34084	0.00031
0.0536	0.0301	1.34373	0.00031
0.0721	0.0299	1.34659	0.00031
0.0904	0.03	1.34949	0.00031
0.1085	0.03	1.35237	0.00032
0.1266	0.03	1.35534	0.00032
0.145	0.0299	1.35842	0.00032
0.1632	0.0299	1.36136	0.00032
0.1821	0.03	1.36464	0.00032
0.0183	0.06	1.34161	0.00031
0.0362	0.06	1.3443	0.00031
0.0544	0.06	1.34719	0.00031
0.0724	0.0601	1.3501	0.00031
0.0904	0.0599	1.35299	0.00032
0.10936	0.06	1.3561	0.00032
0.12823	0.06	1.35926	0.00032
0.14563	0.0599	1.36219	0.00032
0.16453	0.06	1.3651	0.00032
0.18228	0.0601	1.36797	0.00032

System: rubidium carbonate + water + 1-ethyl-3-methylimidazolium bromide; phases: Liquid mixture 1, Liquid mixture 2
Fixed: Pressure, kPa = 101
Property: Mole fraction of 1-ethyl-3-methylimidazolium bromide (Liquid mixture 1); method: Titration method
Temperature, K	Mole fraction of rubidium carbonate	Mole fraction of 1-ethyl-3-methylimidazolium bromide	uncertainty
288.15	0.0558	0.5574	0.0177
288.15	0.0873	0.4761	0.019
288.15	0.1249	0.4107	0.0164
288.15	0.1618	0.3579	0.0143
288.15	0.1883	0.3206	0.0128
288.15	0.2105	0.2923	0.0117
288.15	0.2319	0.2668	0.0107
288.15	0.2504	0.2452	0.0098
288.15	0.2767	0.2128	0.0085
288.15	0.3	0.187	0.0075
288.15	0.3219	0.1638	0.0066
288.15	0.3367	0.1488	0.006
288.15	0.3526	0.1344	0.0054
288.15	0.3674	0.1207	0.0048
288.15	0.3842	0.106	0.0042
298.15	0.0726	0.5382	0.0185
298.15	0.1077	0.4547	0.0182
298.15	0.1231	0.4235	0.0169
298.15	0.1437	0.3906	0.0156
298.15	0.1586	0.3691	0.0148
298.15	0.1817	0.3373	0.0135
298.15	0.2065	0.3053	0.0122
298.15	0.2293	0.278	0.0111
298.15	0.2494	0.2525	0.0101
298.15	0.2662	0.2332	0.0093
298.15	0.2818	0.2161	0.0086
298.15	0.2977	0.1983	0.0079
298.15	0.3093	0.1854	0.0074
298.15	0.3223	0.1712	0.0068
298.15	0.3335	0.16	0.0064
298.15	0.3433	0.1496	0.006
298.15	0.3941	0.1304	0.0052
298.15	0.4242	0.1146	0.0046
298.15	0.4899	0.0874	0.0035
308.15	0.0473	0.5961	0.0162
308.15	0.0568	0.5589	0.0176
308.15	0.0684	0.5261	0.019
308.15	0.0873	0.4803	0.0192
308.15	0.1052	0.4407	0.0176
308.15	0.124	0.4061	0.0162
308.15	0.157	0.3575	0.0143
308.15	0.1734	0.3278	0.0131
308.15	0.2024	0.2899	0.0116
308.15	0.2328	0.2544	0.0102
308.15	0.2612	0.2238	0.009
308.15	0.2835	0.1999	0.008
308.15	0.3074	0.1758	0.007
308.15	0.324	0.1579	0.0063
308.15	0.3553	0.1305	0.0052
308.15	0.3917	0.1016	0.0041
308.15	0.4296	0.0714	0.0029

System: rubidium carbonate + water + 1-ethyl-3-methylimidazolium bromide; phases: Liquid mixture 1, Liquid mixture 2
Fixed: Temperature, K = 298.15
Fixed: Pressure, kPa = 101
Property: Mass fraction of rubidium carbonate (Liquid mixture 1); method: Density calibration data
Property: Mass fraction of 1-ethyl-3-methylimidazolium bromide (Liquid mixture 2); method: Density calibration data
Property: Mass fraction of rubidium carbonate (Liquid mixture 2); method: Density calibration data
Mass fraction of 1-ethyl-3-methylimidazolium bromide	Mass fraction of rubidium carbonate	uncertainty	Mass fraction of 1-ethyl-3-methylimidazolium bromide	uncertainty	Mass fraction of rubidium carbonate	uncertainty
0.5932	0.0508	0.0001	0.0493	0.0001	0.6266	
0.5009	0.0762	0.0001	0.1048	0.0001	0.4495	
0.69	0.0429	0.0001	0.0356	0.0001	0.7464	
0.8084	0.0007	0.0001	0.0538	0.0001	0.8267	

System: rubidium carbonate + water + 1-methyl-3-propylimidazolium bromide; phases: Liquid
Fixed: Temperature, K = 298.15
Fixed: Pressure, kPa = 101
Property: Mass density, kg/m3 (Liquid); method: Vibrating tube method
Mass fraction of 1-methyl-3-propylimidazolium bromide	Mass fraction of rubidium carbonate	Mass density, kg/m3	uncertainty
0.0171	0	1001.14	0.1
0.0342	0	1005.32	0.1
0.0512	0	1009.54	0.1
0.0683	0	1013.8	0.1
0.0863	0	1018.39	0.11
0.1026	0	1022.55	0.11
0.1199	0	1027.08	0.11
0.1379	0	1031.8	0.11
0.1542	0	1036.23	0.12
0.1718	0	1041.01	0.12
0.0167	0.03	1026.46	0.11
0.0339	0.03	1030.74	0.11
0.0511	0.03	1035.06	0.11
0.0688	0.0301	1039.54	0.11
0.0861	0.03	1044.1	0.11
0.1028	0.03	1048.42	0.12
0.12	0.03	1053.2	0.12
0.1369	0.03	1057.73	0.12
0.1542	0.03	1062.6	0.13
0.1715	0.0301	1067.41	0.13
0.0168	0.0599	1052.95	0.12
0.0336	0.06	1057.52	0.12
0.0509	0.06	1061.83	0.13
0.0689	0.06	1066.58	0.13
0.0854	0.06	1071.37	0.13
0.1023	0.0601	1075.92	0.13
0.1196	0.0599	1080.47	0.14
0.1368	0.0599	1085.55	0.14
0.154	0.0601	1090.33	0.14
0.1718	0.06	1095.44	0.15

System: rubidium carbonate + water + 1-methyl-3-propylimidazolium bromide; phases: Liquid
Fixed: Temperature, K = 298.15
Fixed: Pressure, kPa = 101
Property: Refractive index (Na D-line) (Liquid); method: Standard Abbe refractometry
Mass fraction of 1-methyl-3-propylimidazolium bromide	Mass fraction of rubidium carbonate	Refractive index (Na D-line)	uncertainty
0.0171	0	1.33475	0.00031
0.0342	0	1.33731	0.00031
0.0512	0	1.33978	0.00031
0.0683	0	1.34235	0.00031
0.0863	0	1.34508	0.00031
0.1026	0	1.34759	0.00031
0.1199	0	1.35029	0.00032
0.1379	0	1.35311	0.00032
0.1542	0	1.35574	0.00032
0.1718	0	1.35858	0.00032
0.0167	0.03	1.33806	0.00031
0.0339	0.03	1.3406	0.00031
0.0511	0.03	1.34317	0.00031
0.0688	0.0301	1.34583	0.00031
0.0861	0.03	1.3485	0.00031
0.1028	0.03	1.35109	0.00032
0.12	0.03	1.35386	0.00032
0.1369	0.03	1.35657	0.00032
0.1542	0.03	1.35942	0.00032
0.1715	0.0301	1.36224	0.00032
0.0168	0.0599	1.34132	0.00031
0.0336	0.06	1.34388	0.00031
0.0509	0.06	1.34653	0.00031
0.0689	0.06	1.34929	0.00031
0.0854	0.06	1.35198	0.00031
0.1023	0.0601	1.35464	0.00032
0.1196	0.0599	1.35744	0.00032
0.1368	0.0599	1.36039	0.00032
0.154	0.0601	1.36313	0.00032
0.1718	0.06	1.36609	0.00032

System: rubidium carbonate + water + 1-methyl-3-propylimidazolium bromide; phases: Liquid mixture 1, Liquid mixture 2
Fixed: Temperature, K = 298.15
Fixed: Pressure, kPa = 101
Property: Mass fraction of 1-methyl-3-propylimidazolium bromide (Liquid mixture 1); method: Titration method
Mass fraction of rubidium carbonate	Mass fraction of 1-methyl-3-propylimidazolium bromide	uncertainty
0.0442	0.6258	0.015
0.0549	0.5891	0.0164
0.0771	0.5261	0.019
0.1072	0.4575	0.0183
0.1237	0.419	0.0168
0.1384	0.3932	0.0157
0.1559	0.3639	0.0146
0.1777	0.3314	0.0133
0.2054	0.2944	0.0118
0.2308	0.2577	0.0103
0.2576	0.2253	0.009
0.2807	0.1962	0.0078
0.3046	0.1689	0.0068
0.3246	0.1465	0.0059
0.3479	0.1232	0.0049
0.3672	0.1052	0.0042
0.4108	0.0707	0.0028
0.4391	0.0608	0.0024

System: rubidium carbonate + water + 1-methyl-3-propylimidazolium bromide; phases: Liquid mixture 1, Liquid mixture 2
Fixed: Temperature, K = 298.15
Fixed: Pressure, kPa = 101
Property: Mass fraction of rubidium carbonate (Liquid mixture 1); method: Density calibration data
Property: Mass fraction of 1-methyl-3-propylimidazolium bromide (Liquid mixture 2); method: Density calibration data
Property: Mass fraction of rubidium carbonate (Liquid mixture 2); method: Density calibration data
Mass fraction of 1-methyl-3-propylimidazolium bromide	Mass fraction of rubidium carbonate	uncertainty	Mass fraction of 1-methyl-3-propylimidazolium bromide	uncertainty	Mass fraction of rubidium carbonate	uncertainty
0.5351	0.052	0.0001	0.0587	0.0001	0.4699	
0.673	0.0083	0.0001	0.04	0.0001	0.5667	
0.6369	0.0149	0.0001	0.047	0.0001	0.5347	
0.7047	0.0087	0.0001	0.0257	0.0001	0.6004	
0.8705	0.0003	0.0001	0.0021	0.0001	0.7756	

System: rubidium carbonate + water + 1-butyl-3-methylimidazolium bromide; phases: Liquid
Fixed: Temperature, K = 298.15
Fixed: Pressure, kPa = 101
Property: Mass density, kg/m3 (Liquid); method: Vibrating tube method
Mass fraction of 1-butyl-3-methylimidazolium bromide	Mass fraction of rubidium carbonate	Mass density, kg/m3	uncertainty
0.0171	0	1000.94	0.1
0.034	0	1004.89	0.1
0.0512	0	1008.9	0.1
0.0681	0	1012.91	0.1
0.0853	0	1017.1	0.11
0.1025	0	1021.3	0.11
0.1194	0	1025.5	0.11
0.1366	0	1029.81	0.11
0.1536	0	1034.15	0.12
0.1705	0	1038.49	0.12
0.0172	0.0299	1026.54	0.11
0.0338	0.03	1030.61	0.11
0.0512	0.0299	1034.75	0.11
0.068	0.03	1038.95	0.11
0.0852	0.0299	1043.27	0.11
0.1022	0.0299	1047.55	0.12
0.1191	0.0299	1051.92	0.12
0.1365	0.0299	1056.51	0.12
0.1508	0.0301	1060.43	0.13
0.1734	0.0299	1066.39	0.13
0.0169	0.06	1053.03	0.12
0.0337	0.06	1057.23	0.12
0.0508	0.06	1061.56	0.13
0.0681	0.06	1066	0.13
0.0852	0.06	1070.48	0.13
0.1026	0.06	1075.19	0.13
0.1195	0.06	1079.7	0.14
0.1364	0.0601	1084.4	0.14
0.153	0.06	1088.95	0.14
0.1713	0.06	1094.1	0.15

System: rubidium carbonate + water + 1-butyl-3-methylimidazolium bromide; phases: Liquid
Fixed: Temperature, K = 298.15
Fixed: Pressure, kPa = 101
Property: Refractive index (Na D-line) (Liquid); method: Standard Abbe refractometry
Mass fraction of 1-butyl-3-methylimidazolium bromide	Mass fraction of rubidium carbonate	Refractive index (Na D-line)	uncertainty
0.0171	0	1.33496	0.00031
0.034	0	1.33752	0.00031
0.0512	0	1.34015	0.00031
0.0681	0	1.34278	0.00031
0.0853	0	1.34551	0.00031
0.1025	0	1.34823	0.00031
0.1194	0	1.35097	0.00032
0.1366	0	1.35379	0.00032
0.1536	0	1.3566	0.0003
0.1705	0	1.35943	0.00032
0.0172	0.0299	1.33827	0.00031
0.0338	0.03	1.34087	0.00031
0.0512	0.0299	1.34361	0.00031
0.068	0.03	1.34629	0.00031
0.0852	0.0299	1.34907	0.00031
0.1022	0.0299	1.35187	0.00032
0.1191	0.0299	1.35467	0.00032
0.1365	0.0299	1.35761	0.00032
0.1508	0.0301	1.36005	0.00032
0.1734	0.0299	1.36393	0.00032
0.0169	0.06	1.34151	0.00031
0.0337	0.06	1.34419	0.00031
0.0508	0.06	1.34695	0.00031
0.0681	0.06	1.34977	0.00031
0.0852	0.06	1.35262	0.00031
0.1026	0.06	1.35556	0.00032
0.1195	0.06	1.35846	0.00032
0.1364	0.0601	1.36136	0.00032
0.153	0.06	1.36425	0.00032
0.1713	0.06	1.36751	0.00032

System: rubidium carbonate + water + 1-butyl-3-methylimidazolium bromide; phases: Liquid mixture 1, Liquid mixture 2
Fixed: Temperature, K = 298.15
Fixed: Pressure, kPa = 101
Property: Mass fraction of 1-butyl-3-methylimidazolium bromide (Liquid mixture 1); method: Titration method
Mass fraction of rubidium carbonate	Mass fraction of 1-butyl-3-methylimidazolium bromide	uncertainty
0.0387	0.5838	0.0166
0.0584	0.5165	0.0193
0.0833	0.4694	0.0188
0.0945	0.4418	0.0177
0.1075	0.4152	0.0166
0.1205	0.3903	0.0156
0.1468	0.3467	0.0139
0.158	0.3275	0.0131
0.17	0.3096	0.0124
0.1804	0.2937	0.0117
0.1903	0.2775	0.0111
0.2036	0.2594	0.0104
0.2167	0.2426	0.0097
0.2287	0.2257	0.009
0.2436	0.2069	0.0083
0.2541	0.1925	0.0077
0.2663	0.1772	0.0071
0.2752	0.1663	0.0067
0.3418	0.1186	0.0047
0.3824	0.0953	0.0038
0.4301	0.0635	0.0025
0.4702	0.0517	0.0021

System: rubidium carbonate + water + 1-butyl-3-methylimidazolium bromide; phases: Liquid mixture 1, Liquid mixture 2
Fixed: Temperature, K = 298.15
Fixed: Pressure, kPa = 101
Property: Mass fraction of rubidium carbonate (Liquid mixture 1); method: Density calibration data
Property: Mass fraction of 1-butyl-3-methylimidazolium bromide (Liquid mixture 2); method: Density calibration data
Property: Mass fraction of rubidium carbonate (Liquid mixture 2); method: Density calibration data
Mass fraction of 1-butyl-3-methylimidazolium bromide	Mass fraction of rubidium carbonate	uncertainty	Mass fraction of 1-butyl-3-methylimidazolium bromide	uncertainty	Mass fraction of rubidium carbonate	uncertainty
0.6695	0.0049	0.0001	0.0461	0.0001	0.5408	
0.6037	0.0252	0.0001	0.0507	0.0001	0.4834	
0.5505	0.0426	0.0001	0.0579	0.0001	0.4489	
0.8638	0.0012	0.0001	0.0293	0.0001	0.7434	

System: rubidium carbonate + water + 1-allyl-3-methylimidazolium bromide; phases: Liquid
Fixed: Temperature, K = 298.15
Fixed: Pressure, kPa = 101
Property: Mass density, kg/m3 (Liquid); method: Vibrating tube method
Mass fraction of 1-allyl-3-methylimidazolium bromide	Mass fraction of rubidium carbonate	Mass density, kg/m3	uncertainty
0.0164	0	1001.53	0.1
0.033	0	1006.11	0.1
0.0499	0	1010.83	0.1
0.0665	0	1015.63	0.1
0.0838	0	1020.61	0.11
0.0983	0	1024.83	0.11
0.1163	0	1030.23	0.11
0.133	0	1035.51	0.11
0.1498	0	1039.9	0.12
0.1665	0	1045.2	0.12
0.0162	0.03	1026.85	0.11
0.033	0.03	1031.67	0.11
0.0501	0.03	1036.54	0.11
0.0664	0.0299	1041.37	0.11
0.0829	0.03	1046.25	0.12
0.1	0.03	1051.39	0.12
0.1169	0.03	1056.63	0.12
0.133	0.0299	1061.51	0.12
0.1505	0.0301	1067.09	0.13
0.1665	0.03	1072.1	0.13
0.0165	0.0601	1053.22	0.12
0.0331	0.06	1058.12	0.12
0.05	0.06	1063.28	0.13
0.0662	0.06	1068.24	0.13
0.083	0.06	1073.42	0.13
0.0998	0.0599	1078.68	0.13
0.1165	0.06	1084.11	0.14
0.1324	0.06	1089.06	0.14
0.1513	0.06	1095.43	0.15
0.1665	0.0601	1099.79	0.15

System: rubidium carbonate + water + 1-allyl-3-methylimidazolium bromide; phases: Liquid
Fixed: Temperature, K = 298.15
Fixed: Pressure, kPa = 101
Property: Refractive index (Na D-line) (Liquid); method: Standard Abbe refractometry
Mass fraction of 1-allyl-3-methylimidazolium bromide	Mass fraction of rubidium carbonate	Refractive index (Na D-line)	uncertainty
0.0164	0	1.33503	0.00031
0.033	0	1.33763	0.00031
0.0499	0	1.34034	0.00031
0.0665	0	1.3431	0.00031
0.0838	0	1.34594	0.00031
0.0983	0	1.34832	0.00031
0.1163	0	1.3514	0.00032
0.133	0	1.35442	0.00032
0.1498	0	1.35692	0.00032
0.1665	0	1.35997	0.00032
0.0162	0.03	1.33817	0.00031
0.033	0.03	1.34088	0.00031
0.0501	0.03	1.34366	0.00031
0.0664	0.0299	1.34636	0.00031
0.0829	0.03	1.34912	0.00031
0.1	0.03	1.35202	0.00032
0.1169	0.03	1.35497	0.00032
0.133	0.0299	1.35773	0.00032
0.1505	0.0301	1.36082	0.00032
0.1665	0.03	1.36369	0.00032
0.0165	0.0601	1.34147	0.00031
0.0331	0.06	1.34421	0.00031
0.05	0.06	1.34703	0.00031
0.0662	0.06	1.34978	0.00031
0.083	0.06	1.35266	0.00031
0.0998	0.0599	1.3556	0.00032
0.1165	0.06	1.35856	0.00032
0.1324	0.06	1.36137	0.00032
0.1513	0.06	1.36483	0.00032
0.1665	0.0601	1.36727	0.00032

System: rubidium carbonate + water + 1-allyl-3-methylimidazolium bromide; phases: Liquid mixture 1, Liquid mixture 2
Fixed: Temperature, K = 298.15
Fixed: Pressure, kPa = 101
Property: Mass fraction of 1-allyl-3-methylimidazolium bromide (Liquid mixture 1); method: Titration method
Mass fraction of rubidium carbonate	Mass fraction of 1-allyl-3-methylimidazolium bromide	uncertainty
0.0465	0.5807	0.0168
0.0716	0.5074	0.0197
0.091	0.4716	0.0189
0.1032	0.4496	0.018
0.1186	0.4202	0.0168
0.1452	0.3775	0.0151
0.1758	0.3337	0.0133
0.2026	0.2971	0.0119
0.2275	0.2653	0.0106
0.2506	0.2367	0.0095
0.2712	0.2124	0.0085
0.2876	0.1929	0.0077
0.3041	0.1742	0.007
0.3229	0.1537	0.0061
0.3446	0.1319	0.0053
0.3954	0.1144	0.0046
0.4495	0.0827	0.0033
0.4954	0.0569	0.0023

System: rubidium carbonate + water + 1-allyl-3-methylimidazolium bromide; phases: Liquid mixture 1, Liquid mixture 2
Fixed: Temperature, K = 298.15
Fixed: Pressure, kPa = 101
Property: Mass fraction of rubidium carbonate (Liquid mixture 1); method: Density calibration data
Property: Mass fraction of 1-allyl-3-methylimidazolium bromide (Liquid mixture 2); method: Density calibration data
Property: Mass fraction of rubidium carbonate (Liquid mixture 2); method: Density calibration data
Mass fraction of 1-allyl-3-methylimidazolium bromide	Mass fraction of rubidium carbonate	uncertainty	Mass fraction of 1-allyl-3-methylimidazolium bromide	uncertainty	Mass fraction of rubidium carbonate	uncertainty
0.71	0.0166	0.0001	0.0326	0.0001	0.6036	
0.5414	0.0495	0.0001	0.0693	0.0001	0.4718	
0.7942	0.0124	0.0001	0.0401	0.0001	0.6893	
0.8844	0.008	0.0001	0.019	0.0001	0.7985	

System: cesium carbonate + water + 1-methyl-3-propylimidazolium bromide; phases: Liquid
Fixed: Temperature, K = 298.15
Fixed: Pressure, kPa = 101
Property: Mass density, kg/m3 (Liquid); method: Vibrating tube method
Mass fraction of 1-methyl-3-propylimidazolium bromide	Mass fraction of cesium carbonate	Mass density, kg/m3	uncertainty
0.0171	0	1001.14	0.1
0.0342	0	1005.32	0.1
0.0512	0	1009.54	0.1
0.0683	0	1013.8	0.1
0.0863	0	1018.39	0.11
0.1026	0	1022.55	0.11
0.1199	0	1027.08	0.11
0.1379	0	1031.8	0.11
0.1542	0	1036.23	0.12
0.1718	0	1041.01	0.12
0.0166	0.0301	1026.64	0.11
0.0343	0.0299	1030.97	0.11
0.051	0.0299	1035.24	0.11
0.0683	0.03005	1039.79	0.11
0.0854	0.0299	1044.09	0.11
0.1031	0.03	1048.87	0.12
0.1197	0.0301	1053.46	0.12
0.1368	0.0301	1058.07	0.12
0.1544	0.03	1062.96	0.13
0.1713	0.03	1067.74	0.13
0.0167	0.0599	1053.41	0.12
0.0342	0.0599	1057.89	0.12
0.0512	0.06	1062.44	0.13
0.0684	0.06	1067.1	0.13
0.0854	0.0601	1071.78	0.13
0.1026	0.06	1076.52	0.13
0.1202	0.06	1081.45	0.14
0.1371	0.06	1086.32	0.14
0.15678	0.0599	1091.85	0.14
0.1742	0.06	1097.05	0.15

System: cesium carbonate + water + 1-methyl-3-propylimidazolium bromide; phases: Liquid
Fixed: Temperature, K = 298.15
Fixed: Pressure, kPa = 101
Property: Refractive index (Na D-line) (Liquid); method: Standard Abbe refractometry
Mass fraction of 1-methyl-3-propylimidazolium bromide	Mass fraction of cesium carbonate	Refractive index (Na D-line)	uncertainty
0.0171	0	1.33475	0.00031
0.0342	0	1.33731	0.00031
0.0512	0	1.33978	0.00031
0.0683	0	1.34235	0.00031
0.0863	0	1.34508	0.00031
0.1026	0	1.34759	0.00031
0.1199	0	1.35029	0.00032
0.1379	0	1.35311	0.00032
0.1542	0	1.35574	0.00032
0.1718	0	1.35858	0.00032
0.0166	0.0301	1.3374	0.00031
0.0343	0.0299	1.34	0.00031
0.051	0.0299	1.34254	0.00031
0.0683	0.03005	1.3452	0.00031
0.0854	0.0299	1.3478	0.00031
0.1031	0.03	1.35058	0.00032
0.1197	0.0301	1.35324	0.00032
0.1368	0.0301	1.35599	0.00032
0.1544	0.03	1.35886	0.00032
0.1713	0.03	1.36168	0.00032
0.0167	0.0599	1.34025	0.00031
0.0342	0.0599	1.34289	0.00031
0.0512	0.06	1.34551	0.00031
0.0684	0.06	1.3482	0.00031
0.0854	0.0601	1.35091	0.00031
0.1026	0.06	1.35369	0.00032
0.1202	0.06	1.35656	0.00032
0.1371	0.06	1.35936	0.00032
0.15678	0.0599	1.36262	0.00032
0.1742	0.06	1.36559	0.00032

System: cesium carbonate + water + 1-methyl-3-propylimidazolium bromide; phases: Liquid mixture 1, Liquid mixture 2
Fixed: Temperature, K = 298.15
Fixed: Pressure, kPa = 101
Property: Mass fraction of 1-methyl-3-propylimidazolium bromide (Liquid mixture 1); method: Titration method
Mass fraction of cesium carbonate	Mass fraction of 1-methyl-3-propylimidazolium bromide	uncertainty
0.0727	0.6572	0.0137
0.0947	0.5734	0.0171
0.1127	0.5405	0.0184
0.1347	0.4945	0.0198
0.1513	0.4678	0.0187
0.174	0.4341	0.0174
0.1975	0.4018	0.0161
0.2157	0.3787	0.0151
0.2452	0.3415	0.0137
0.2919	0.2883	0.0115
0.3283	0.2486	0.0099
0.3555	0.2198	0.0088
0.3792	0.195	0.0078
0.3994	0.1746	0.007
0.4263	0.1486	0.0059
0.449	0.128	0.0051

System: cesium carbonate + water + 1-methyl-3-propylimidazolium bromide; phases: Liquid mixture 1, Liquid mixture 2
Fixed: Temperature, K = 298.15
Fixed: Pressure, kPa = 101
Property: Mass fraction of cesium carbonate (Liquid mixture 1); method: Density calibration data
Property: Mass fraction of 1-methyl-3-propylimidazolium bromide (Liquid mixture 2); method: Density calibration data
Property: Mass fraction of cesium carbonate (Liquid mixture 2); method: Density calibration data
Mass fraction of 1-methyl-3-propylimidazolium bromide	Mass fraction of cesium carbonate	uncertainty	Mass fraction of 1-methyl-3-propylimidazolium bromide	uncertainty	Mass fraction of cesium carbonate	uncertainty
0.5605	0.094	0.0001	0.0989	0.0001	0.5744	
0.614	0.0656	0.0001	0.0764	0.0001	0.6134	
0.6003	0.0769	0.0001	0.0844	0.0001	0.6055	
0.6924	0.0439	0.0001	0.0539	0.0001	0.6809	
0.829	0.0008	0.0001	0.0411	0.0001	0.7673	
