Measured thermophysical data. Adducts of antimony triiodide and 2-aminomethylpyridines: Synthesis, characterization and thermochemistry
Source: Thermochim. Acta, 2005, 10.1016/j.tca.2005.08.006
Compound 1: antimony iodide (SbI3), I3Sb, InChI=1S/3HI.Sb/h3*1H;/q;;;+3/p-3
Compound 2: 2-amino-3-methylpyridine, C6H8N2, InChI=1S/C6H8N2/c1-5-3-2-4-8-6(5)7/h2-4H,1H3,(H2,7,8), purity 98%
Compound 3: 2-amino-4-methylpyridine, C6H8N2, InChI=1S/C6H8N2/c1-5-2-3-8-6(7)4-5/h2-4H,1H3,(H2,7,8), purity 98%
Compound 4: 2-amino-5-methylpyridine, C6H8N2, InChI=1S/C6H8N2/c1-5-2-3-6(7)8-4-5/h2-4H,1H3,(H2,7,8), purity 98%
Compound 5: 2-amino-6-methylpyridine, C6H8N2, InChI=1S/C6H8N2/c1-5-3-2-4-6(7)8-5/h2-4H,1H3,(H2,7,8), purity 98%
Compound 6: antimony triiodide - 2-amino-3-methylpyridine complex (1:1), C6H8I3N2Sb, InChI=1S/C6H8N2.3HI.Sb/c1-5-3-2-4-8-6(5)7;;;;/h2-4H,1H3,(H2,7,8);3*1H;/q;;;;+3/p-3
Compound 7: antimony triiodide - 2-amino-4-methylpyridine complex (1:1), C6H8I3N2Sb, InChI=1S/C6H8N2.3HI.Sb/c1-5-2-3-8-6(7)4-5;;;;/h2-4H,1H3,(H2,7,8);3*1H;/q;;;;+3/p-3
Compound 8: antimony triiodide - 2-amino-5-methylpyridine complex (1:1), C6H8I3N2Sb, InChI=1S/C6H8N2.3HI.Sb/c1-5-2-3-6(7)8-4-5;;;;/h2-4H,1H3,(H2,7,8);3*1H;/q;;;;+3/p-3
Compound 9: triiodo(6-methyl-2-pyridinamine)antimony, C6H8I3N2Sb, InChI=1S/C6H8N2.3HI.Sb/c1-5-3-2-4-6(7)8-5;;;;/h2-4H,1H3,(H2,7,8);3*1H;/q;;;;+3/p-3
Compound 10: N,N-dimethylethanamide, C4H9NO, InChI=1S/C4H9NO/c1-4(6)5(2)3/h1-3H3

System: N,N-dimethylethanamide + antimony iodide (SbI3); phases: Liquid
Property: Molar enthalpy of solution, kJ/mol (Liquid); method: ISOPERIBOL:solid
Mole fraction of antimony iodide (SbI3)	Temperature, K	Pressure, kPa	Molar enthalpy of solution, kJ/mol	uncertainty
0	298.15	101	-93.96	0.81

Reaction: -1 2-amino-3-methylpyridine + -1 antimony iodide (SbI3) + 1 antimony triiodide - 2-amino-3-methylpyridine complex (1:1)
Property: Molar enthalpy of reaction, kJ/mol
-97.4

Reaction: -1 2-amino-4-methylpyridine + -1 antimony iodide (SbI3) + 1 antimony triiodide - 2-amino-4-methylpyridine complex (1:1)
Property: Molar enthalpy of reaction, kJ/mol
-56.5

Reaction: -1 2-amino-5-methylpyridine + -1 antimony iodide (SbI3) + 1 antimony triiodide - 2-amino-5-methylpyridine complex (1:1)
Property: Molar enthalpy of reaction, kJ/mol
-73

Reaction: -1 2-amino-6-methylpyridine + -1 antimony iodide (SbI3) + 1 triiodo(6-methyl-2-pyridinamine)antimony
Property: Molar enthalpy of reaction, kJ/mol
-81.9
