Measured thermophysical data. Investigation of the thermal behavior of Labetalol
Source: Thermochim. Acta, 2018, 10.1016/j.tca.2018.08.002
Compound 1: Labetalol hydrochloride, C19H25ClN2O3, InChI=1S/C19H24N2O3.ClH/c1-13(7-8-14-5-3-2-4-6-14)21-12-18(23)15-9-10-17(22)16(11-15)19(20)24;/h2-6,9-11,13,18,21-23H,7-8,12H2,1H3,(H2,20,24);1H

System: Labetalol hydrochloride; phases: Crystal, Liquid, Air at 1 atmosphere
Property: Normal melting temperature, K (Crystal); method: DTA:corrimp
Normal melting temperature, K	uncertainty
466.35	10.2

System: Labetalol hydrochloride; phases: Crystal, Liquid, Air at 1 atmosphere
Property: Normal melting temperature, K (Crystal); method: DTA:corrimp
Normal melting temperature, K	uncertainty
453.95	2.1
