Measured thermophysical data. Vapor pressure of 1-octanol below 5 kPa using DSC
Source: Thermochim. Acta, 2013, 10.1016/j.tca.2013.03.018
Compound 1: octan-1-ol, C8H18O, InChI=1S/C8H18O/c1-2-3-4-5-6-7-8-9/h9H,2-8H2,1H3

System: octan-1-ol; phases: Liquid, Gas
Property: Vapor or sublimation pressure, kPa (Liquid); method: DSC
Temperature, K	Vapor or sublimation pressure, kPa	uncertainty
338.55	0.1973	0.0197
344.5	0.3855	0.0386
349.38	0.587	0.0587
354.96	0.7886	0.0789
358.41	1.071	0.107
364.35	1.474	0.147
370	2.132	0.213
379.35	3.489	0.349
387.87	5.182	0.518
409.3	13.55	1.355
438.8	40.53	4.053
468.15	101.4	10.141
468.47	101.4	10.141
333.97	0.2242	0.0224
343.33	0.372	0.0372
348.72	0.587	0.0587
352.98	0.802	0.0802
357.99	1.057	0.106
362.88	1.434	0.143
369.69	2.105	0.211
379.45	3.489	0.349
387.92	5.169	0.517
407.24	13.57	1.357
438.31	40.53	4.053
333.69	0.2242	0.0224
342.1	0.3855	0.0386
349.1	0.6004	0.06
353.96	0.8087	0.0809
357.9	1.071	0.107
363.3	1.447	0.145
369.9	2.132	0.213
379.49	3.489	0.349
387.2	5.169	0.517
408.44	13.58	1.358
438.58	40.53	4.053
334.46	0.2376	0.0238
341.76	0.3855	0.0386
348.2	0.5736	0.0574
352.09	0.7483	0.0748
357.94	1.057	0.106
363.51	1.46	0.146
369.76	2.092	0.209
379.04	3.436	0.344
387.28	5.156	0.516
408.9	13.55	1.355
435.48	40.47	4.047
