Measured thermophysical data. Solubility of N-(4-chlorophenyl)-2-(pyridin-4-ylcarbonyl)hydrazinecarbothioamide in PEG 400 + water co-solvent mixtures at 298.15 K to 338.15 K
Source: Thermochim. Acta, 2014, 10.1016/j.tca.2014.05.035
Compound 1: N-(4-chlorophenyl)-2-(pyridin-4-ylcarbonyl)hydrazinecarbothioamide, C13H11ClN4OS, InChI=1S/C13H11ClN4OS/c14-10-1-3-11(4-2-10)16-13(20)18-17-12(19)9-5-7-15-8-6-9/h1-8H,(H,17,19)(H2,16,18,20)
Compound 2: water, H2O, InChI=1S/H2O/h1H2

System: water + N-(4-chlorophenyl)-2-(pyridin-4-ylcarbonyl)hydrazinecarbothioamide; phases: Liquid, Crystal
Fixed: Pressure, kPa = 101
Property: Mole fraction of N-(4-chlorophenyl)-2-(pyridin-4-ylcarbonyl)hydrazinecarbothioamide (Liquid); method: Phase equilibration
Temperature, K	Mole fraction of N-(4-chlorophenyl)-2-(pyridin-4-ylcarbonyl)hydrazinecarbothioamide	uncertainty
298.15	5.17e-07	1.8e-08
308.15	5.93e-07	2.1e-08
318.15	7.05e-07	2.5e-08
328.15	8.28e-07	2.9e-08
338.15	9.75e-07	3.4e-08
