Measured thermophysical data. Enhancement of dissolution behavior of antiarthritic drug leflunomide using solid dispersion methods
Source: Thermochim. Acta, 2017, 10.1016/j.tca.2017.09.003
Compound 1: 5-methyl-N-(4-(trifluoromethyl)phenyl)-4-isoxazolecarboxamide, C12H9F3N2O2, InChI=1S/C12H9F3N2O2/c1-7-10(6-16-19-7)11(18)17-9-4-2-8(3-5-9)12(13,14)15/h2-6H,1H3,(H,17,18)

System: 5-methyl-N-(4-(trifluoromethyl)phenyl)-4-isoxazolecarboxamide; phases: Crystal, Liquid, Air at 1 atmosphere
Property: Normal melting temperature, K (Crystal); method: DTA
Normal melting temperature, K	uncertainty
442.15	2
