Measured thermophysical data. Heat capacity, enthalpy and entropy of SrBi2O4 and Sr2Bi2O5
Source: Thermochim. Acta, 2012, 10.1016/j.tca.2012.01.002
Compound 1: bismuth strontium oxide (Bi2SrO4), Bi2O4Sr, InChI=1S/2Bi.4O.Sr/q2*+3;4*-2;+2
Compound 2: bismuth strontium oxide (Bi2Sr2O5), Bi2O5Sr2, InChI=1S/2Bi.5O.2Sr/q2*+3;5*-2;2*+2

System: bismuth strontium oxide (Bi2SrO4); phases: Crystal
Property: Mass density, kg/m3 (Crystal); method: Pycnometric method
Temperature, K	Pressure, kPa	Mass density, kg/m3	uncertainty
298	101.325	7392	381

System: bismuth strontium oxide (Bi2SrO4); phases: Crystal
Fixed: Pressure, kPa = 101.325
Property: Molar heat capacity at constant pressure, J/K/mol (Crystal); method: Relaxation method
Temperature, K	Molar heat capacity at constant pressure, J/K/mol	uncertainty
1.93	0.018	0.001
2.05	0.02	0.001
2.18	0.024	0.001
2.32	0.028	0.002
2.47	0.034	0.002
2.63	0.041	0.002
2.8	0.05	0.002
2.98	0.061	0.003
3.17	0.073	0.003
3.39	0.087	0.004
3.6	0.1	0.01
3.83	0.12	0.01
4.07	0.15	0.01
4.35	0.18	0.01
4.62	0.22	0.01
4.92	0.27	0.01
5.25	0.33	0.01
5.58	0.4	0.02
5.95	0.47	0.02
6.33	0.57	0.02
6.75	0.69	0.03
7.18	0.82	0.03
7.65	0.98	0.04
8.14	1.16	0.05
8.67	1.39	0.06
9.23	1.64	0.07
9.83	1.95	0.08
10.47	2.29	0.09
11.14	2.7	0.11
11.87	3.17	0.13
12.63	3.72	0.15
13.45	4.35	0.17
14.32	5.07	0.2
15.25	5.86	0.24
16.24	6.79	0.27
17.3	7.81	0.31
18.41	8.97	0.36
19.61	10.23	0.41
20.88	11.66	0.47
22.23	13.17	0.53
23.67	14.95	0.6
25.19	16.66	0.67
26.83	18.63	0.75
28.57	21.06	0.84
30.42	23.31	0.93
32.39	25.82	1.03
34.49	28.25	1.13
36.73	30.8	1.23
39.11	33.53	1.34
41.63	36.68	1.47
44.34	39.39	1.58
47.21	42.57	1.7
50.27	45.79	1.83
53.53	49.16	1.97
57	52.61	2.1
60.69	56.15	2.25
64.62	59.71	2.39
68.81	63.35	2.53
73.27	67.04	2.68
78.01	70.73	2.83
83.07	74.5	2.98
88.45	78.36	3.13
94.18	82.21	3.29
100.27	86.32	3.45
106.77	90.17	3.61
113.68	94.22	3.77
121.04	98.18	3.93
128.87	102.21	4.09
137.22	106.15	4.25
146.12	110.09	4.4
155.57	114.17	4.57
165.64	118.29	4.73
176.35	122.28	4.89
187.72	125.98	5.04
200.2	129.53	5.18
201.64	130.72	5.23
203.69	130.78	5.23
205.69	131.14	5.25
207.77	131.68	5.27
209.78	132.28	5.29

System: bismuth strontium oxide (Bi2SrO4); phases: Crystal
Fixed: Pressure, kPa = 101.325
Property: Molar heat capacity at constant pressure, J/K/mol (Crystal); method: Large sample (1 g) DSC
Temperature, K	Molar heat capacity at constant pressure, J/K/mol	uncertainty
253.5	146.55	3.59
256.05	147.15	3.6
260.64	147.4	3.61
265.75	149.06	3.65
270.86	149.96	3.67
275.96	151.09	3.7
281.07	151.83	3.72
286.17	152.74	3.74
291.27	154.04	3.77
296.38	154.85	3.79
301.49	155.46	3.81
306.59	156.69	3.84
311.69	157.57	3.86
316.8	158.48	3.88
321.9	159.08	3.9
327.01	160.09	3.92
332.12	160.97	3.94
337.22	161.75	3.96
342.32	162.52	3.98
347.43	163.81	4.01
352.54	164.24	4.02
256.05	146.75	3.59
260.64	148.14	3.63
265.75	148.96	3.65
270.86	149.72	3.67
275.96	151.04	3.7
281.07	152.31	3.73
286.17	153.46	3.76
291.27	153.9	3.77
296.38	154.83	3.79
301.49	156.02	3.82
306.59	156.68	3.84
311.69	157.56	3.86
316.8	158.62	3.89
321.9	159.31	3.9
327.01	160.48	3.93
332.12	161.44	3.95
337.22	161.99	3.97
342.32	162.97	3.99
347.43	163.44	4
352.54	164.8	4.04

System: bismuth strontium oxide (Bi2SrO4); phases: Crystal
Fixed: Pressure, kPa = 101.325
Property: Molar enthalpy, kJ/mol (Crystal); method: Drop calorimetry
Lower temperature, K	Upper temperature, K	Molar enthalpy, kJ/mol	uncertainty
299.7	570.4	46.2702	2.095
299.9	570.4	45.7635	2.072
299.2	619.7	56.0801	2.5391
299.3	619.7	53.7198	2.4323
299.9	669.5	61.7074	2.7939
300.3	669.6	64.4062	2.9161
299.9	719.1	76.7973	3.4771
300.2	719.1	76.7693	3.4759
300.5	769.4	87.3243	3.9538
300.8	769.4	87.2415	3.95
299.9	819	96.5923	4.3734
300.1	819	93.6381	4.2396
301.1	869.2	104.017	4.7096
301.4	869.2	109.5249	4.959
300.6	918.9	109.8203	4.9723
300.4	919	109.4782	4.9568
300.6	919	107.8748	4.8842
300.9	919	112.0716	5.0743
302.1	969.2	126.9377	5.7473
302.4	969.2	131.0251	5.9324
301.2	972	128.0451	5.7975
301.3	972	120.1508	5.4401
301.1	972.1	123.2246	5.5792
301.7	1019.1	130.9317	5.9282
301.8	1019.2	128.7503	5.8294

System: bismuth strontium oxide (Bi2Sr2O5); phases: Crystal
Property: Mass density, kg/m3 (Crystal); method: Pycnometric method
Temperature, K	Pressure, kPa	Mass density, kg/m3	uncertainty
298	101.325	6628	307

System: bismuth strontium oxide (Bi2Sr2O5); phases: Crystal
Fixed: Pressure, kPa = 101.325
Property: Molar heat capacity at constant pressure, J/K/mol (Crystal); method: Relaxation method
Temperature, K	Molar heat capacity at constant pressure, J/K/mol	uncertainty
1.88	0.009	0.001
2.04	0.011	0.001
2.21	0.015	0.001
2.39	0.018	0.001
2.54	0.022	0.001
2.74	0.022	0.001
2.95	0.028	0.001
3.17	0.039	0.002
3.42	0.051	0.002
3.68	0.066	0.003
3.94	0.079	0.003
4.24	0.1	0.01
4.55	0.12	0.01
4.87	0.15	0.01
5.25	0.19	0.01
5.64	0.25	0.01
6.06	0.3	0.01
6.52	0.39	0.02
7.04	0.51	0.02
7.53	0.64	0.03
8.1	0.83	0.03
8.71	1.08	0.04
9.37	1.37	0.06
10.08	1.75	0.07
10.84	2.24	0.09
11.67	2.83	0.11
12.54	3.54	0.14
13.5	4.39	0.18
14.52	5.4	0.22
15.61	6.6	0.27
16.8	7.91	0.32
18.08	9.48	0.38
19.45	11.22	0.45
20.94	13.18	0.53
22.53	15.39	0.62
24.24	17.76	0.71
26.08	20.49	0.82
28.04	23.48	0.94
30.16	26.77	1.07
32.44	30.39	1.22
34.89	33.76	1.35
37.56	37.87	1.52
40.41	41.84	1.67
43.48	46.23	1.85
46.79	50.88	2.04
50.33	55.56	2.22
54.15	60.85	2.43
58.26	66.24	2.65
62.69	71.79	2.87
67.45	77.56	3.1
72.57	83.54	3.34
78.09	89.43	3.58
84.02	95.72	3.83
90.42	101.77	4.07
97.31	107.91	4.32
104.74	114.44	4.58
112.68	121.18	4.85
121.24	127.51	5.1
130.44	134.16	5.37
140.37	140.3	5.61
151.02	146.22	5.85
162.49	152.31	6.09
174.81	158.8	6.35
188.04	164.41	6.58
202.52	169.48	6.78
204.72	169.98	6.8
206.54	171	6.84
208.56	171.7	6.87
210.6	172.71	6.91
212.63	173.58	6.94
214.65	174.34	6.97
216.68	175.39	7.02
218.71	175.85	7.03
220.75	176.85	7.07
222.78	178.21	7.13
224.81	178.72	7.15
1.88	0.008	0.001
2.05	0.01	0.001
2.22	0.012	0.001
2.41	0.015	0.001
2.56	0.018	0.001
2.76	0.023	0.001
2.98	0.03	0.002
3.2	0.036	0.002
3.43	0.046	0.002
3.69	0.056	0.002
3.97	0.07	0.003
4.27	0.09	0.004
4.57	0.11	0.01
4.91	0.14	0.01
5.27	0.18	0.01
5.66	0.23	0.01
6.08	0.29	0.01
6.54	0.37	0.02
7.06	0.49	0.02
7.54	0.62	0.03
8.11	0.8	0.03
8.73	1.05	0.04
9.38	1.34	0.05
10.09	1.72	0.07
10.86	2.2	0.09
11.68	2.79	0.11
12.56	3.5	0.14
13.51	4.36	0.18
14.53	5.37	0.22
15.64	6.55	0.26
16.82	7.89	0.32
18.1	9.45	0.38
19.47	11.18	0.45
20.97	13.13	0.53
22.56	15.35	0.61
24.27	17.73	0.71
26.1	20.39	0.82
28.07	23.35	0.93
30.19	26.48	1.06
32.48	29.87	1.2
34.95	33.56	1.34
37.61	37.49	1.5
40.46	41.8	1.67
43.52	46.32	1.85
46.81	51.08	2.04
50.36	56.03	2.24
54.17	61.3	2.45
58.29	66.67	2.67
62.71	72.37	2.89
67.48	78.09	3.12
72.6	83.99	3.36
78.1	89.94	3.6
84.05	95.77	3.83
90.46	102.11	4.08
97.35	108.88	4.36
104.75	115.44	4.62
112.7	122.2	4.89
121.25	128.49	5.14
130.46	134.99	5.4
140.35	141.42	5.66
151.01	146.9	5.88
162.47	153.73	6.15
174.79	159.9	6.4
188	165.56	6.62
202.49	171.1	6.84
204.65	171.02	6.84
206.45	170.86	6.83
208.47	172.01	6.88
210.5	172.37	6.89
212.52	173.29	6.93
214.57	174.04	6.96
216.6	175.09	7
218.63	175.75	7.03
220.64	176.28	7.05
222.68	176.73	7.07
224.7	177.72	7.11

System: bismuth strontium oxide (Bi2Sr2O5); phases: Crystal
Fixed: Pressure, kPa = 101.325
Property: Molar heat capacity at constant pressure, J/K/mol (Crystal); method: Large sample (1 g) DSC
Temperature, K	Molar heat capacity at constant pressure, J/K/mol	uncertainty
260.65	191.82	4.7
265.76	193.4	4.74
270.86	195.67	4.79
275.96	196.28	4.81
281.07	197.43	4.84
286.17	198.75	4.87
291.27	199.71	4.89
296.38	202.06	4.95
301.49	203.1	4.97
306.6	203.42	4.98
311.7	205.71	5.04
316.81	205.44	5.03
321.91	206.38	5.06
327.01	207.85	5.09
332.12	208.72	5.11
337.22	210.04	5.14
342.32	211.11	5.17
347.43	211.45	5.18
352.54	212.5	5.21
260.65	192.13	4.71
265.76	193.56	4.74
270.86	195.09	4.78
275.96	196.33	4.81
281.07	197.48	4.84
286.17	198.28	4.86
291.27	199.44	4.89
296.38	201.06	4.92
301.49	202.73	4.97
306.6	203.42	4.98
311.7	204.97	5.02
316.81	205.54	5.03
321.91	206.7	5.06
327.01	206.53	5.06
332.12	208.19	5.1
337.22	209.19	5.12
342.32	211.22	5.17
347.43	211.56	5.18
352.54	212.82	5.21

System: bismuth strontium oxide (Bi2Sr2O5); phases: Crystal
Fixed: Pressure, kPa = 101.325
Property: Molar enthalpy, kJ/mol (Crystal); method: Drop calorimetry
Lower temperature, K	Upper temperature, K	Molar enthalpy, kJ/mol	uncertainty
299.7	671.6	82.5403	3.7372
300.7	671.7	84.5298	3.8272
300.5	671.8	86.4223	3.9129
299.7	722.5	99.7443	4.5161
300.1	722.5	101.2741	4.5854
300.2	772.1	107.2713	4.8569
300.2	772.1	114.0632	5.1644
299.6	773.1	108.6618	4.9199
300.3	822.1	128.0848	5.7993
300.9	822.1	126.381	5.7221
300.5	822.2	118.0719	5.3459
299.5	871.9	145.1333	6.5712
299.8	871.9	138.2486	6.2595
299.9	871.9	136.3218	6.1722
301.8	922.1	154.6628	7.0027
302.5	922.2	147.9008	6.6965
302.5	922.3	144.3657	6.5364
303.5	971.9	158.233	7.1643
302.3	971.9	168.9628	7.6501
302.9	971.9	160.8935	7.2848
301.9	1021.8	176.8995	8.0095
302.5	1021.9	173.2358	7.8436
302.9	1021.9	178.4634	8.0803
302.7	1071.7	188.8395	8.5501
303.6	1071.8	187.2533	8.4783
303.9	1071.8	194.2219	8.7938
300	673.1	86.9	3.9346
300	673.1	84.6	3.8304
300.1	722.7	104	4.7088
300.1	722.8	106.9	4.8401
299.9	772.7	120	5.4332
299.7	772.8	116.9	5.2929
300.2	822.6	131.7	5.963
300.1	822.7	126.3	5.7185
300	873.8	142.6	6.4565
300	873.8	142.8	6.4655
300	923.6	157.7	7.1402
300	923.7	155.3	7.0315
299.8	973.9	157.7	7.1402
299.7	973.9	167.5	7.5839
300.2	1023.8	180.9	8.1906
300	1023.9	181.7	8.2268
