Measured thermophysical data. Influence of different basic raw materials from technical to laboratory grade on the maximum storage capacity of CaBr2*6H2O
Source: Thermochim. Acta, 2018, 10.1016/j.tca.2018.10.026
Compound 1: calcium bromide hexahydrate, Br2CaH12O6, InChI=1S/2BrH.Ca.6H2O/h2*1H;;6*1H2/q;;+2;;;;;;/p-2

System: calcium bromide hexahydrate; phases: Crystal, Liquid, Air at 1 atmosphere
Property: Molar enthalpy of transition or fusion, kJ/mol (Crystal); method: DSC
Molar enthalpy of transition or fusion, kJ/mol	uncertainty
44.04080824	0.92393304
