Measured thermophysical data. Measurement of enthalpies of vaporization of trialkyl  phosphates using correlation gas chromatography
Source: Thermochim. Acta, 2007, 10.1016/j.tca.2007.10.007
Compound 1: tributyl phosphate, C12H27O4P, InChI=1S/C12H27O4P/c1-4-7-10-14-17(13,15-11-8-5-2)16-12-9-6-3/h4-12H2,1-3H3, purity 98%
Compound 2: triisobutyl phosphate, C12H27O4P, InChI=1S/C12H27O4P/c1-10(2)7-14-17(13,15-8-11(3)4)16-9-12(5)6/h10-12H,7-9H2,1-6H3, purity 98%
Compound 3: tri-sec-butyl phosphate, C12H27O4P, InChI=1S/C12H27O4P/c1-7-10(4)14-17(13,15-11(5)8-2)16-12(6)9-3/h10-12H,7-9H2,1-6H3, purity 98%
Compound 4: tripentyl phosphate, C15H33O4P, InChI=1S/C15H33O4P/c1-4-7-10-13-17-20(16,18-14-11-8-5-2)19-15-12-9-6-3/h4-15H2,1-3H3, purity 98%
Compound 5: triisopentyl phosphate, C15H33O4P, InChI=1S/C15H33O4P/c1-13(2)7-10-17-20(16,18-11-8-14(3)4)19-12-9-15(5)6/h13-15H,7-12H2,1-6H3, purity 98%
Compound 6: tri-2-methylbutyl phosphate, C15H33O4P, InChI=1S/C15H33O4P/c1-7-13(4)10-17-20(16,18-11-14(5)8-2)19-12-15(6)9-3/h13-15H,7-12H2,1-6H3, purity 98%
Compound 7: tri-sec-amyl phosphate, C15H33O4P, InChI=1S/C15H33O4P/c1-7-10-13(4)17-20(16,18-14(5)11-8-2)19-15(6)12-9-3/h13-15H,7-12H2,1-6H3, purity 98%
Compound 8: trihexyl phosphate, C18H39O4P, InChI=1S/C18H39O4P/c1-4-7-10-13-16-20-23(19,21-17-14-11-8-5-2)22-18-15-12-9-6-3/h4-18H2,1-3H3, purity 98%
Compound 9: trimethyl orthophosphate, C3H9O4P, InChI=1S/C3H9O4P/c1-5-8(4,6-2)7-3/h1-3H3, purity 99%
Compound 10: ethyl phosphate, C6H15O4P, InChI=1S/C6H15O4P/c1-4-8-11(7,9-5-2)10-6-3/h4-6H2,1-3H3, purity 99%

System: tributyl phosphate; phases: Liquid, Gas
Property: Molar enthalpy of vaporization or sublimation, kJ/mol (Liquid); method: Correlation gas chromatography
Temperature, K	Molar enthalpy of vaporization or sublimation, kJ/mol	uncertainty
298.15	81.29	2.33

System: triisobutyl phosphate; phases: Liquid, Gas
Property: Molar enthalpy of vaporization or sublimation, kJ/mol (Liquid); method: Correlation gas chromatography
Temperature, K	Molar enthalpy of vaporization or sublimation, kJ/mol	uncertainty
298.15	72.97	2.16

System: tri-sec-butyl phosphate; phases: Liquid, Gas
Property: Molar enthalpy of vaporization or sublimation, kJ/mol (Liquid); method: Correlation gas chromatography
Temperature, K	Molar enthalpy of vaporization or sublimation, kJ/mol	uncertainty
298.15	69.55	2.09

System: tripentyl phosphate; phases: Liquid, Gas
Property: Molar enthalpy of vaporization or sublimation, kJ/mol (Liquid); method: Correlation gas chromatography
Temperature, K	Molar enthalpy of vaporization or sublimation, kJ/mol	uncertainty
298.15	92.3	2.55

System: triisopentyl phosphate; phases: Liquid, Gas
Property: Molar enthalpy of vaporization or sublimation, kJ/mol (Liquid); method: Correlation gas chromatography
Temperature, K	Molar enthalpy of vaporization or sublimation, kJ/mol	uncertainty
298.15	86.6	2.43

System: tri-2-methylbutyl phosphate; phases: Liquid, Gas
Property: Molar enthalpy of vaporization or sublimation, kJ/mol (Liquid); method: Correlation gas chromatography
Temperature, K	Molar enthalpy of vaporization or sublimation, kJ/mol	uncertainty
298.15	86.72	2.43

System: tri-sec-amyl phosphate; phases: Liquid, Gas
Property: Molar enthalpy of vaporization or sublimation, kJ/mol (Liquid); method: Correlation gas chromatography
Temperature, K	Molar enthalpy of vaporization or sublimation, kJ/mol	uncertainty
298.15	81.53	2.33

System: trihexyl phosphate; phases: Liquid, Gas
Property: Molar enthalpy of vaporization or sublimation, kJ/mol (Liquid); method: Correlation gas chromatography
Temperature, K	Molar enthalpy of vaporization or sublimation, kJ/mol	uncertainty
298.15	104.91	2.8

System: trimethyl orthophosphate; phases: Liquid, Gas
Property: Molar enthalpy of vaporization or sublimation, kJ/mol (Liquid); method: Correlation gas chromatography
Temperature, K	Molar enthalpy of vaporization or sublimation, kJ/mol	uncertainty
298.15	47.5	1.33

System: ethyl phosphate; phases: Liquid, Gas
Property: Molar enthalpy of vaporization or sublimation, kJ/mol (Liquid); method: Correlation gas chromatography
Temperature, K	Molar enthalpy of vaporization or sublimation, kJ/mol	uncertainty
298.15	55.73	1.53
