Measured thermophysical data. Temperature-dependent thermochemical properties of the Mebicaret (2,4-dimethyl-6,8-diethylglycoluril) solutions in H2O and D2O at the ambient pressure
Source: Thermochim. Acta, 2016, 10.1016/j.tca.2016.01.010
Compound 1: 1,3-diethyl-4,6-dimethyltetrahydroimidazo[4,5-d]imidazole-2,5(1H,3H)-dione, C10H18N4O2, InChI=1S/C10H18N4O2/c1-5-13-7-8(14(6-2)10(13)16)12(4)9(15)11(7)3/h7-8H,5-6H2,1-4H3, purity 95%
Compound 2: water, H2O, InChI=1S/H2O/h1H2
Compound 3: water-d2, D2O, InChI=1S/H2O/h1H2/i/hD2, purity 99.9%

System: 1,3-diethyl-4,6-dimethyltetrahydroimidazo[4,5-d]imidazole-2,5(1H,3H)-dione; phases: Crystal, Liquid, Air at 1 atmosphere
Property: Normal melting temperature, K (Crystal); method: DTA
Normal melting temperature, K	uncertainty
367.7	0.6

System: 1,3-diethyl-4,6-dimethyltetrahydroimidazo[4,5-d]imidazole-2,5(1H,3H)-dione; phases: Crystal, Liquid, Air at 1 atmosphere
Property: Molar enthalpy of transition or fusion, kJ/mol (Crystal); method: DSC
Molar enthalpy of transition or fusion, kJ/mol	uncertainty
25.4	0.7

System: water + 1,3-diethyl-4,6-dimethyltetrahydroimidazo[4,5-d]imidazole-2,5(1H,3H)-dione; phases: Liquid
Fixed: Pressure, kPa = 99.6
Fixed: Mole fraction of 1,3-diethyl-4,6-dimethyltetrahydroimidazo[4,5-d]imidazole-2,5(1H,3H)-dione = 0
Property: Molar enthalpy of solution, kJ/mol (Liquid); method: ISOPERIBOL
Temperature, K	Molar enthalpy of solution, kJ/mol	uncertainty
278.15	-6.95	0.09
279.15	-6.67	0.07
288.15	-4.17	0.05
298.15	-1.47	0.06
308.15	1.41	0.06
313.15	2.8	0.07

System: water + 1,3-diethyl-4,6-dimethyltetrahydroimidazo[4,5-d]imidazole-2,5(1H,3H)-dione; phases: Liquid
Fixed: Temperature, K = 298.15
Fixed: Pressure, kPa = 99.6
Property: Molar enthalpy of dilution, kJ/mol (Liquid); method: ISOPERIBOL
Initial molality of solute, mol/kg	Final molality of solute, mol/kg	Molar enthalpy of dilution, kJ/mol	uncertainty
1.4743	0.0195	-0.4	0.02
1.4743	0.0216	-0.389	0.02
1.7469	0.0219	-0.662	0.034
1.7469	0.0231	-0.675	0.034
1.7469	0.0235	-0.668	0.034

System: water-d2 + 1,3-diethyl-4,6-dimethyltetrahydroimidazo[4,5-d]imidazole-2,5(1H,3H)-dione; phases: Liquid
Fixed: Pressure, kPa = 99.6
Fixed: Mole fraction of 1,3-diethyl-4,6-dimethyltetrahydroimidazo[4,5-d]imidazole-2,5(1H,3H)-dione = 0
Property: Molar enthalpy of solution, kJ/mol (Liquid); method: ISOPERIBOL
Temperature, K	Molar enthalpy of solution, kJ/mol	uncertainty
278.15	-7.35	0.07
279.15	-7.03	0.09
288.15	-4.52	0.08
298.15	-1.76	0.04
308.15	1.17	0.06
313.15	2.64	0.04

System: water-d2 + 1,3-diethyl-4,6-dimethyltetrahydroimidazo[4,5-d]imidazole-2,5(1H,3H)-dione; phases: Liquid
Fixed: Temperature, K = 298.15
Fixed: Pressure, kPa = 99.6
Property: Molar enthalpy of dilution, kJ/mol (Liquid); method: ISOPERIBOL
Initial molality of solute, mol/kg	Final molality of solute, mol/kg	Molar enthalpy of dilution, kJ/mol	uncertainty
0.8853	0.0128	-0.117	0.006
0.8853	0.0169	-0.13	0.007
1.2264	0.016	-0.488	0.025
1.2264	0.0175	-0.491	0.025
1.475	0.0154	-0.792	0.04
1.475	0.0177	-0.802	0.041
