Measured thermophysical data. Volumetric properties of the monoethanolamine methanol mixture at atmospheric pressure from 283.15 to 353.15K
Source: Thermochim. Acta, 2005, 10.1016/j.tca.2004.11.015
Compound 1: 2-aminoethan-1-ol, C2H7NO, InChI=1S/C2H7NO/c3-1-2-4/h4H,1-3H2, purity 99%
Compound 2: methanol, CH4O, InChI=1S/CH4O/c1-2/h2H,1H3, purity 99.93%

System: 2-aminoethan-1-ol; phases: Liquid
Fixed: Pressure, kPa = 101.325
Property: Mass density, kg/m3 (Liquid); method: Vibrating tube method
Temperature, K	Mass density, kg/m3	uncertainty
281.15	1025.55	0.52
283.15	1023.99	0.52
285.15	1022.42	0.52
287.15	1020.84	0.52
289.15	1019.26	0.52
291.15	1017.68	0.52
293.15	1016.1	0.52
295.15	1014.52	0.51
297.15	1012.94	0.51
299.15	1011.35	0.51
301.15	1009.76	0.51
303.15	1008.17	0.51
305.15	1006.58	0.51
307.15	1004.99	0.51
309.15	1003.4	0.51
311.15	1001.8	0.51
313.15	1000.21	0.51
315.15	998.6	0.51
317.15	997	0.51
319.15	995.4	0.5
321.15	993.79	0.5
323.15	992.19	0.5
325.15	990.58	0.5
327.15	988.96	0.5
329.15	987.34	0.5
331.15	985.72	0.5
333.15	984.1	0.5
335.15	982.48	0.5
337.15	980.85	0.5
339.15	979.21	0.5
341.15	977.58	0.5
343.15	975.94	0.5
345.15	974.3	0.5
347.15	972.65	0.49
349.15	970.99	0.49
351.15	969.34	0.49
353.15	967.68	0.49

System: methanol; phases: Liquid
Fixed: Pressure, kPa = 101.325
Property: Mass density, kg/m3 (Liquid); method: Vibrating tube method
Temperature, K	Mass density, kg/m3	uncertainty
283.15	800.67	0.15
288.15	795.99	0.15
293.15	791.29	0.15
298.15	786.58	0.15
303.15	781.86	0.16
308.15	777.1	0.16
313.15	772.32	0.16
318.15	767.52	0.16
323.15	762.67	0.17
328.15	757.77	0.17
333.15	752.83	0.17

System: methanol + 2-aminoethan-1-ol; phases: Liquid
Fixed: Pressure, kPa = 101.325
Property: Mass density, kg/m3 (Liquid); method: Vibrating tube method
Temperature, K	Mole fraction of 2-aminoethan-1-ol	Mass density, kg/m3	uncertainty
283.15	0.012	805.83	0.14
283.15	0.031	813.82	0.14
283.15	0.05	821.45	0.14
283.15	0.1	840.61	0.14
283.15	0.15	858.27	0.15
283.15	0.2002	874.67	0.17
283.15	0.2501	889.65	0.18
283.15	0.2974	902.94	0.2
283.15	0.3502	916.72	0.22
283.15	0.4001	928.53	0.24
283.15	0.4427	938.12	0.26
283.15	0.4502	939.89	0.26
283.15	0.5002	950.16	0.28
283.15	0.5501	959.78	0.3
283.15	0.6001	968.89	0.32
283.15	0.6501	977.39	0.34
283.15	0.7005	985.59	0.36
283.15	0.7479	992.48	0.39
283.15	0.8002	1000.19	0.41
283.15	0.8502	1006.55	0.44
283.15	0.8967	1012.63	0.46
283.15	0.9501	1018.78	0.49
288.15	0.012	801.17	0.14
288.15	0.031	809.2	0.14
288.15	0.05	816.86	0.14
288.15	0.1	836.11	0.15
288.15	0.15	853.79	0.15
288.15	0.2002	870.3	0.17
288.15	0.2501	885.33	0.18
288.15	0.2974	898.66	0.2
288.15	0.3502	912.48	0.22
288.15	0.4001	924.32	0.24
288.15	0.4427	933.94	0.26
288.15	0.4502	935.71	0.26
288.15	0.5002	946.01	0.28
288.15	0.5501	955.65	0.3
288.15	0.6001	964.79	0.32
288.15	0.6501	973.31	0.34
288.15	0.7005	981.53	0.36
288.15	0.7479	988.45	0.39
288.15	0.8002	996.18	0.41
288.15	0.8502	1002.56	0.44
288.15	0.8967	1008.66	0.46
288.15	0.9501	1014.82	0.49
293.15	0.012	796.49	0.15
293.15	0.031	804.57	0.15
293.15	0.05	812.26	0.14
293.15	0.1	831.59	0.15
293.15	0.15	849.33	0.16
293.15	0.2002	865.9	0.17
293.15	0.2501	880.98	0.18
293.15	0.2974	894.35	0.2
293.15	0.3502	908.21	0.22
293.15	0.4001	920.09	0.24
293.15	0.4427	929.73	0.26
293.15	0.4502	931.52	0.26
293.15	0.5002	941.84	0.28
293.15	0.5501	951.5	0.3
293.15	0.6001	960.67	0.32
293.15	0.6501	969.21	0.34
293.15	0.7005	977.45	0.36
293.15	0.7479	984.39	0.38
293.15	0.8002	992.15	0.41
293.15	0.8502	998.55	0.44
293.15	0.8967	1004.66	0.46
293.15	0.9501	1010.85	0.49
298.15	0.012	791.8	0.15
298.15	0.031	799.92	0.15
298.15	0.05	807.64	0.15
298.15	0.1	827.05	0.15
298.15	0.15	844.86	0.16
298.15	0.2002	861.49	0.17
298.15	0.2501	876.62	0.18
298.15	0.2974	890.03	0.2
298.15	0.3502	903.94	0.22
298.15	0.4001	915.84	0.24
298.15	0.4427	925.51	0.26
298.15	0.4502	927.31	0.26
298.15	0.5002	937.66	0.28
298.15	0.5501	947.35	0.3
298.15	0.6001	956.54	0.32
298.15	0.6501	965.1	0.34
298.15	0.7005	973.37	0.36
298.15	0.7479	980.32	0.38
298.15	0.8002	988.11	0.41
298.15	0.8502	994.53	0.43
298.15	0.8967	1000.67	0.46
298.15	0.9501	1006.88	0.49
303.15	0.012	787.1	0.15
303.15	0.031	795.25	0.15
303.15	0.05	803	0.15
303.15	0.1	822.49	0.15
303.15	0.15	840.37	0.16
303.15	0.2002	857.06	0.17
303.15	0.2501	872.24	0.18
303.15	0.2974	885.69	0.2
303.15	0.3502	899.65	0.22
303.15	0.4001	911.58	0.24
303.15	0.4427	921.28	0.26
303.15	0.4502	923.08	0.26
303.15	0.5002	933.46	0.28
303.15	0.5501	943.18	0.3
303.15	0.6001	952.39	0.32
303.15	0.6501	960.97	0.34
303.15	0.7005	969.28	0.36
303.15	0.7479	976.24	0.38
303.15	0.8002	984.06	0.41
303.15	0.8502	990.5	0.43
303.15	0.8967	996.66	0.46
303.15	0.9501	1002.89	0.48
308.15	0.012	782.38	0.15
308.15	0.031	790.55	0.15
308.15	0.05	798.35	0.15
308.15	0.1	817.92	0.15
308.15	0.15	835.87	0.16
308.15	0.2002	852.62	0.17
308.15	0.2501	867.83	0.19
308.15	0.2974	881.34	0.2
308.15	0.3502	895.33	0.22
308.15	0.4001	907.3	0.24
308.15	0.4427	917.02	0.26
308.15	0.4502	918.84	0.26
308.15	0.5002	929.24	0.28
308.15	0.5501	938.99	0.3
308.15	0.6001	948.22	0.32
308.15	0.6501	956.84	0.34
308.15	0.7005	965.16	0.36
308.15	0.7479	972.15	0.38
308.15	0.8002	980	0.41
308.15	0.8502	986.45	0.43
308.15	0.8967	992.63	0.46
308.15	0.9501	998.89	0.48
313.15	0.012	777.63	0.16
313.15	0.031	785.84	0.15
313.15	0.05	793.66	0.15
313.15	0.1	813.31	0.15
313.15	0.15	831.33	0.16
313.15	0.2002	848.14	0.17
313.15	0.2501	863.41	0.19
313.15	0.2974	876.95	0.2
313.15	0.3502	891	0.22
313.15	0.4001	903	0.24
313.15	0.4427	912.75	0.26
313.15	0.4502	914.57	0.26
313.15	0.5002	925	0.28
313.15	0.5501	934.78	0.3
313.15	0.6001	944.04	0.31
313.15	0.6501	952.68	0.34
313.15	0.7005	961.03	0.36
313.15	0.7479	968.04	0.38
313.15	0.8002	975.92	0.41
313.15	0.8502	982.4	0.43
313.15	0.8967	988.6	0.45
313.15	0.9501	994.88	0.48
318.15	0.012	772.84	0.16
318.15	0.031	781.09	0.16
318.15	0.05	788.95	0.16
318.15	0.1	808.68	0.16
318.15	0.15	826.77	0.16
318.15	0.2002	843.64	0.17
318.15	0.2501	858.96	0.19
318.15	0.2974	872.55	0.2
318.15	0.3502	886.63	0.22
318.15	0.4001	898.67	0.24
318.15	0.4427	908.45	0.26
318.15	0.4502	910.28	0.26
318.15	0.5002	920.74	0.28
318.15	0.5501	930.55	0.3
318.15	0.6001	939.84	0.31
318.15	0.6501	948.51	0.33
318.15	0.7005	956.89	0.36
318.15	0.7479	963.92	0.38
318.15	0.8002	971.82	0.4
318.15	0.8502	978.32	0.43
318.15	0.8967	984.55	0.45
318.15	0.9501	990.85	0.48
323.15	0.012	768.02	0.16
323.15	0.031	776.31	0.16
323.15	0.05	784.19	0.16
323.15	0.1	804.01	0.16
323.15	0.15	822.17	0.16
323.15	0.2002	839.11	0.17
323.15	0.2501	854.48	0.19
323.15	0.2974	868.11	0.2
323.15	0.3502	882.25	0.22
323.15	0.4001	894.33	0.24
323.15	0.4427	904.14	0.26
323.15	0.4502	905.97	0.26
323.15	0.5002	916.46	0.28
323.15	0.5501	926.3	0.29
323.15	0.6001	935.62	0.31
323.15	0.6501	944.31	0.33
323.15	0.7005	952.72	0.36
323.15	0.7479	959.78	0.38
323.15	0.8002	967.71	0.4
323.15	0.8502	974.23	0.43
323.15	0.8967	980.48	0.45
323.15	0.9501	986.81	0.48
328.15	0.012	763.16	0.16
328.15	0.031	771.48	0.16
328.15	0.05	779.4	0.16
328.15	0.1	799.31	0.16
328.15	0.15	817.54	0.17
328.15	0.2002	834.54	0.18
328.15	0.2501	849.96	0.19
328.15	0.2974	863.65	0.2
328.15	0.3502	877.83	0.22
328.15	0.4001	889.95	0.24
328.15	0.4427	899.79	0.26
328.15	0.4502	901.63	0.26
328.15	0.5002	912.15	0.28
328.15	0.5501	922.03	0.29
328.15	0.6001	931.37	0.31
328.15	0.6501	940.1	0.33
328.15	0.7005	948.53	0.35
328.15	0.7479	955.62	0.38
328.15	0.8002	963.57	0.4
328.15	0.8502	970.12	0.43
328.15	0.8967	976.39	0.45
328.15	0.9501	982.75	0.48
333.15	0.012	758.24	0.17
333.15	0.031	766.6	0.16
333.15	0.05	774.56	0.16
333.15	0.1	794.56	0.16
333.15	0.15	812.87	0.17
333.15	0.2002	829.94	0.18
333.15	0.2501	845.4	0.19
333.15	0.2974	859.14	0.2
333.15	0.3502	873.37	0.22
333.15	0.4001	885.53	0.24
333.15	0.4427	895.41	0.26
333.15	0.4502	897.26	0.26
333.15	0.5002	907.81	0.28
333.15	0.5501	917.72	0.29
333.15	0.6001	927.1	0.31
333.15	0.6501	935.85	0.33
333.15	0.7005	944.32	0.35
333.15	0.7479	951.43	0.37
333.15	0.8002	959.42	0.4
333.15	0.8502	965.99	0.42
333.15	0.8967	972.29	0.45
333.15	0.9501	978.67	0.47
338.15	0.05	769.67	0.16
338.15	0.1	789.76	0.16
338.15	0.15	808.15	0.17
338.15	0.2002	825.28	0.18
338.15	0.2501	840.8	0.19
338.15	0.2974	854.6	0.2
338.15	0.3502	868.88	0.22
338.15	0.4001	881.08	0.24
338.15	0.4427	890.99	0.26
338.15	0.4502	892.86	0.26
338.15	0.5002	903.44	0.28
338.15	0.5501	913.38	0.29
338.15	0.6001	922.8	0.31
338.15	0.6501	931.59	0.33
338.15	0.7005	940.08	0.35
338.15	0.7479	947.22	0.37
338.15	0.8002	955.24	0.4
338.15	0.8502	961.84	0.42
338.15	0.8967	968.16	0.45
338.15	0.9501	974.57	0.47
343.15	0.05	764.72	0.17
343.15	0.1	784.91	0.17
343.15	0.15	803.39	0.17
343.15	0.2002	820.58	0.18
343.15	0.2501	836.17	0.19
343.15	0.2974	850	0.21
343.15	0.3502	864.35	0.22
343.15	0.4001	876.6	0.24
343.15	0.4427	886.55	0.26
343.15	0.4502	888.42	0.26
343.15	0.5002	899.04	0.28
343.15	0.5501	909.01	0.29
343.15	0.6001	918.47	0.31
343.15	0.6501	927.29	0.33
343.15	0.7005	935.81	0.35
343.15	0.7479	942.98	0.37
343.15	0.8002	951.03	0.4
343.15	0.8502	957.66	0.42
343.15	0.8967	964.01	0.44
343.15	0.9501	970.45	0.47
348.15	0.05	759.71	0.17
348.15	0.1	780	0.17
348.15	0.15	798.56	0.17
348.15	0.2002	815.83	0.18
348.15	0.2501	831.49	0.19
348.15	0.2974	845.36	0.21
348.15	0.3502	859.77	0.22
348.15	0.4001	872.07	0.24
348.15	0.4427	882.06	0.26
348.15	0.4502	883.94	0.26
348.15	0.5002	894.6	0.28
348.15	0.5501	904.62	0.29
348.15	0.6001	914.1	0.31
348.15	0.6501	922.96	0.33
348.15	0.7005	931.52	0.35
348.15	0.7479	938.72	0.37
348.15	0.8002	946.8	0.4
348.15	0.8502	953.46	0.42
348.15	0.8967	959.83	0.44
348.15	0.9501	966.3	0.47
353.15	0.05	754.62	0.17
353.15	0.1	775.02	0.17
353.15	0.15	793.68	0.18
353.15	0.2002	811.02	0.18
353.15	0.2501	826.76	0.19
353.15	0.2974	840.69	0.21
353.15	0.3502	855.14	0.22
353.15	0.4001	867.5	0.24
353.15	0.4427	877.53	0.26
353.15	0.4502	879.42	0.26
353.15	0.5002	890.11	0.28
353.15	0.5501	900.18	0.29
353.15	0.6001	909.7	0.31
353.15	0.6501	918.6	0.33
353.15	0.7005	927.19	0.35
353.15	0.7479	934.42	0.37
353.15	0.8002	942.54	0.39
353.15	0.8502	949.23	0.42
353.15	0.8967	955.62	0.44
353.15	0.9501	962.12	0.47
