Measured thermophysical data. Synthesis, characterization and thermodynamic properties of  NaCs[B4O5(OH)4]*4H2O
Source: Thermochim. Acta, 2009, 10.1016/j.tca.2008.11.003
Compound 1: hydrogen chloride, ClH, InChI=1S/ClH/h1H
Compound 2: sodium chloride, ClNa, InChI=1S/ClH.Na/h1H;/q;+1/p-1
Compound 3: cesium chloride, ClCs, InChI=1S/ClH.Cs/h1H;/q;+1/p-1
Compound 4: boric acid, BH3O3, InChI=1S/BH3O3/c2-1(3)4/h2-4H
Compound 5: water, H2O, InChI=1S/H2O/h1H2
Compound 6: cesium sodium tetraborate hexahydrate, B4CsH12NaO13, InChI=1S/B4H4O9.Cs.Na.4H2O/c5-1(6)11-3(9)13-4(10)12-2(7)8;;;;;;/h5,7,9-10H;;;4*1H2/q-2;2*+1;;;;, purity 99%

Reaction: 1 cesium sodium tetraborate hexahydrate + 2 hydrogen chloride + -1 sodium chloride + -1 cesium chloride + -4 boric acid + -1 water
Property: Molar enthalpy of reaction, kJ/mol
47.86
