Measured thermophysical data. Influence of isoleucyl dipeptide side-chains on the dissociation and intermolecular interactions in water at 298.15K
Source: Thermochim. Acta, 2005, 10.1016/j.tca.2005.08.022
Compound 1: L-isoleucylglycine, C8H16N2O3, InChI=1S/C8H16N2O3/c1-3-5(2)7(9)8(13)10-4-6(11)12/h5,7H,3-4,9H2,1-2H3,(H,10,13)(H,11,12)/t5-,7-/m0/s1, purity 99%
Compound 2: L-isoleucyl-L-alanine, C9H18N2O3, InChI=1S/C9H18N2O3/c1-4-5(2)7(10)8(12)11-6(3)9(13)14/h5-7H,4,10H2,1-3H3,(H,11,12)(H,13,14)/t5?,6-,7-/m0/s1, purity 99%
Compound 3: L-isoleucyl-L-valine, C11H22N2O3, InChI=1S/C11H22N2O3/c1-5-7(4)8(12)10(14)13-9(6(2)3)11(15)16/h6-9H,5,12H2,1-4H3,(H,13,14)(H,15,16)/t7?,8-,9-/m0/s1, purity 99%
Compound 4: L-isoleucyl-L-isoleucine, C12H24N2O3, InChI=1S/C12H24N2O3/c1-5-7(3)9(13)11(15)14-10(12(16)17)8(4)6-2/h7-10H,5-6,13H2,1-4H3,(H,14,15)(H,16,17)/t7-,8-,9-,10-/m0/s1, purity 99%
Compound 5: water, H2O, InChI=1S/H2O/h1H2

System: L-isoleucylglycine + water; phases: Liquid
Property: Molar enthalpy of solution, kJ/mol (Liquid); method: CALVET:solid
Mole fraction of L-isoleucylglycine	Temperature, K	Pressure, kPa	Molar enthalpy of solution, kJ/mol	uncertainty
0	298.15	101	-6.2	0.1

System: L-isoleucylglycine + water; phases: Liquid
Fixed: Temperature, K = 298.15
Fixed: Pressure, kPa = 101.325
Property: Molar enthalpy of dilution, kJ/mol (Liquid); method: Calvet calorimetry
Initial molality of solute, mol/kg	Final molality of solute, mol/kg	Molar enthalpy of dilution, kJ/mol	uncertainty
0.0294	0.0147	-0.0247	0.001
0.0419	0.021	-0.0478	0.0012
0.0588	0.0294	-0.0485	0.0012
0.0839	0.042	-0.075	0.0014
0.1176	0.0588	-0.0997	0.0017
0.2361	0.1176	-0.2089	0.003

System: water + L-isoleucyl-L-alanine; phases: Liquid
Property: Molar enthalpy of solution, kJ/mol (Liquid); method: CALVET:solid
Mole fraction of L-isoleucyl-L-alanine	Temperature, K	Pressure, kPa	Molar enthalpy of solution, kJ/mol	uncertainty
0	298.15	101	-15.7	0.2

System: water + L-isoleucyl-L-alanine; phases: Liquid
Fixed: Temperature, K = 298.15
Fixed: Pressure, kPa = 101.325
Property: Molar enthalpy of dilution, kJ/mol (Liquid); method: Calvet calorimetry
Initial molality of solute, mol/kg	Final molality of solute, mol/kg	Molar enthalpy of dilution, kJ/mol	uncertainty
0.0253	0.0127	-0.0607	0.0013
0.0363	0.0182	-0.0578	0.0013
0.0506	0.0253	-0.0738	0.0014
0.0726	0.0363	-0.0896	0.0016
0.1011	0.0506	-0.1394	0.0022
0.1452	0.0726	-0.2107	0.003
0.2022	0.1011	-0.2787	0.0039
0.2903	0.1452	-0.3633	0.0049

System: water + L-isoleucyl-L-valine; phases: Liquid
Property: Molar enthalpy of solution, kJ/mol (Liquid); method: CALVET:solid
Mole fraction of L-isoleucyl-L-valine	Temperature, K	Pressure, kPa	Molar enthalpy of solution, kJ/mol	uncertainty
0	298.15	101	-15.4	0.2

System: water + L-isoleucyl-L-valine; phases: Liquid
Fixed: Temperature, K = 298.15
Fixed: Pressure, kPa = 101.325
Property: Molar enthalpy of dilution, kJ/mol (Liquid); method: Calvet calorimetry
Initial molality of solute, mol/kg	Final molality of solute, mol/kg	Molar enthalpy of dilution, kJ/mol	uncertainty
0.0337	0.0169	-0.0573	0.0013
0.048	0.024	-0.0629	0.0013
0.0673	0.0337	-0.0561	0.0012
0.0959	0.048	-0.0974	0.0017
0.0959	0.048	-0.098	0.0017
0.1346	0.0673	-0.0897	0.0016
0.1918	0.0959	-0.1721	0.0026
0.2692	0.1346	-0.2084	0.003

System: water + L-isoleucyl-L-isoleucine; phases: Liquid
Property: Molar enthalpy of solution, kJ/mol (Liquid); method: CALVET:solid
Mole fraction of L-isoleucyl-L-isoleucine	Temperature, K	Pressure, kPa	Molar enthalpy of solution, kJ/mol	uncertainty
0	298.15	101	-24.2	0.3

System: water + L-isoleucyl-L-isoleucine; phases: Liquid
Fixed: Temperature, K = 298.15
Fixed: Pressure, kPa = 101.325
Property: Molar enthalpy of dilution, kJ/mol (Liquid); method: Calvet calorimetry
Initial molality of solute, mol/kg	Final molality of solute, mol/kg	Molar enthalpy of dilution, kJ/mol	uncertainty
0.0291	0.0146	-0.0404	0.0011
0.0439	0.022	-0.0879	0.0016
0.0581	0.0291	-0.1292	0.0021
0.0878	0.0439	-0.1888	0.0028
0.1161	0.0581	-0.2704	0.0038
0.1756	0.0878	-0.3713	0.005
0.2322	0.1161	-0.5615	0.0073
