Measured thermophysical data. Aliphatic nitroalkanes: Evaluation of thermochemical data with complementary experimental and computational methods
Source: Thermochim. Acta, 2017, 10.1016/j.tca.2017.07.001
Compound 1: 2-nitropropane, C3H7NO2, InChI=1S/C3H7NO2/c1-3(2)4(5)6/h3H,1-2H3
Compound 2: 2-methyl-2-nitropropane, C4H9NO2, InChI=1S/C4H9NO2/c1-4(2,3)5(6)7/h1-3H3
Compound 3: 2,3-dimethyl-2,3-dinitrobutane, C6H12N2O4, InChI=1S/C6H12N2O4/c1-5(2,7(9)10)6(3,4)8(11)12/h1-4H3

System: 2-nitropropane; phases: Liquid, Gas
Property: Vapor or sublimation pressure, kPa (Liquid); method: Transpiration method
Temperature, K	Vapor or sublimation pressure, kPa	uncertainty
274.7	0.609	0.038
274.8	0.604	0.038
274.8	0.597	0.038
279.6	0.827	0.052
279.5	0.799	0.05
284.4	1.092	0.068
284.4	1.091	0.068
289.3	1.459	0.092
294.2	1.953	0.122
294.3	1.9	0.119
299.2	2.574	0.16
304.1	3.344	0.208
304.2	3.336	0.207
309.1	4.299	0.266
314.1	5.612	0.347
314.1	5.563	0.344

System: 2-methyl-2-nitropropane; phases: Liquid, Gas
Property: Vapor or sublimation pressure, kPa (Liquid); method: Transpiration method
Temperature, K	Vapor or sublimation pressure, kPa	uncertainty
299.3	2.054	0.128
303.2	2.553	0.159
304.2	2.705	0.169
308.2	3.261	0.203
309.2	3.527	0.219
313.2	4.205	0.26
314.2	4.41	0.273
318.2	5.269	0.327
323.2	6.65	0.412
328.1	8.479	0.525

System: 2,3-dimethyl-2,3-dinitrobutane; phases: Crystal 3, Gas
Property: Vapor or sublimation pressure, kPa (Crystal 3); method: Transpiration method
Temperature, K	Vapor or sublimation pressure, kPa	uncertainty
278.4	2e-05	2e-05
283.3	4e-05	2e-05
283.3	3e-05	2e-05
283.3	4e-05	2e-05
283.3	3e-05	2e-05
288.3	7e-05	2e-05
288.3	6e-05	2e-05
293.2	0.00012	2e-05
293.3	0.00013	2e-05
293.4	0.00012	2e-05
298.2	0.00022	2e-05
298.2	0.00023	2e-05
303.2	0.00038	3e-05
303.2	0.00042	4e-05
308.1	0.00066	5e-05
308.2	0.00071	5e-05
313	0.00113	8e-05
313	0.00113	8e-05
313.2	0.00125	0.0001
318	0.00199	0.00013
318	0.00206	0.00014
318.2	0.0019	0.00012
318.2	0.00205	0.00014

System: 2,3-dimethyl-2,3-dinitrobutane; phases: Crystal 2, Gas
Property: Vapor or sublimation pressure, kPa (Crystal 2); method: Transpiration method
Temperature, K	Vapor or sublimation pressure, kPa	uncertainty
333.1	0.00818	0.00057
338.1	0.01282	0.00087
343.1	0.02018	0.00133
348.1	0.03145	0.00204
353.1	0.04799	0.00307
358	0.07047	0.0045
363	0.10308	0.00657
368	0.1546	0.00981
373	0.22389	0.01402

System: 2,3-dimethyl-2,3-dinitrobutane; phases: Crystal 3, Gas
Property: Vapor or sublimation pressure, kPa (Crystal 3); method: Transpiration method
Temperature, K	Vapor or sublimation pressure, kPa	uncertainty
306.5	0.00064	4e-05
311.1	0.00104	6e-05
315.3	0.0017	9e-05
319.4	0.00245	0.00013

System: 2,3-dimethyl-2,3-dinitrobutane; phases: Crystal 2, Gas
Property: Vapor or sublimation pressure, kPa (Crystal 2); method: Transpiration method
Temperature, K	Vapor or sublimation pressure, kPa	uncertainty
328	0.00566	0.00031
332.9	0.00851	0.00046
337.5	0.01355	0.00072
342.3	0.01998	0.00106
347.9	0.03179	0.00168
352.6	0.04791	0.00249
