Measured thermophysical data. Enthalpies of sublimation of fullerenes by thermogravimetry
Source: Thermochim. Acta, 2015, 10.1016/j.tca.2015.09.001
Compound 1: buckminsterfullerene, C60, InChI=1S/C60/c1-2-5-6-3(1)8-12-10-4(1)9-11-7(2)17-21-13(5)23-24-14(6)22-18(8)28-20(12)30-26-16(10)15(9)25-29-19(11)27(17)37-41-31(21)33(23)43-44-34(24)32(22)42-38(28)48-40(30)46-36(26)35(25)45-39(29)47(37)55-49(41)51(43)57-52(44)50(42)56(48)59-54(46)53(45)58(55)60(57)59, purity 99.95%
Compound 2: fullerene carbon 70, C70, InChI=1S/C70/c1-2-22-5-6-24-13-14-26-11-9-23-4-3(21(1)51-52(22)54(24)55(26)53(23)51)33-31(1)61-35-7-8-27-15-16-29-19-20-30-18-17-28-12-10(25(7)56-57(27)59(29)60(30)58(28)56)37(35)63(33)65-36(4)40(9)67(44(17)42(12)65)69-46(11)47(14)70(50(20)49(18)69)68-43(13)39(6)66(45(16)48(19)68)64-34(5)32(2)62(61)38(8)41(15)64, purity 99%
Compound 3: fullerene-C76, C76, InChI=1S/C76/c1-5-17-37-25-9(1)33-30-14-2-6-18-39-26-10(2)34-29(13(1)14)41-21(5)49-45(17)46-19-7-3-11-27-38(19)62(49)74-56(27)72-60-36(11)32-16-4-8-20-40-28-12(4)35-31(15(3)16)43-23(7)50(46)61(37)73-53(25)69-57(33)66-42(30)22(6)51(63(40)75(66)55(28)71(69)59(35)67(43)73)47(18)48(20)52-24(8)44(32)68(60)76(64(39)52)54(26)70(72)58(34)65(41)74

System: buckminsterfullerene; phases: Crystal, Gas
Property: Molar enthalpy of vaporization or sublimation, kJ/mol (Crystal); method: Derived by Second law
Temperature, K	Molar enthalpy of vaporization or sublimation, kJ/mol	uncertainty
945	175	2.1

System: buckminsterfullerene; phases: Crystal
Fixed: Pressure, kPa = 101.325
Property: Molar heat capacity at constant pressure, J/K/mol (Crystal); method: Small sample (50 mg) DSC
Temperature, K	Molar heat capacity at constant pressure, J/K/mol	uncertainty
298.15	535.8	23.8
300	538.6	23.9
350	648.1	28.7
400	742	32.9
450	830.1	36.8
500	917.4	40.7

System: fullerene carbon 70; phases: Crystal, Gas
Property: Molar enthalpy of vaporization or sublimation, kJ/mol (Crystal); method: Derived by Second law
Temperature, K	Molar enthalpy of vaporization or sublimation, kJ/mol	uncertainty
945	182.7	2.4

System: fullerene carbon 70; phases: Crystal
Fixed: Pressure, kPa = 101.325
Property: Molar heat capacity at constant pressure, J/K/mol (Crystal); method: Small sample (50 mg) DSC
Temperature, K	Molar heat capacity at constant pressure, J/K/mol	uncertainty
298.15	626.8	23.1
300	630.1	23.2
350	758.3	27.9
400	855.2	31.5
450	924.8	34.1
500	1005.3	37
550	1105.8	40.7

System: fullerene-C76; phases: Crystal, Gas
Property: Molar enthalpy of vaporization or sublimation, kJ/mol (Crystal); method: Derived by Second law
Temperature, K	Molar enthalpy of vaporization or sublimation, kJ/mol	uncertainty
978	190.4	6.5
