Measured thermophysical data. The phase diagram of the RbF-RbI system
Source: Thermochim. Acta, 2008, 10.1016/j.tca.2008.03.014
Compound 1: rubidium fluoride (RbF), FRb, InChI=1S/FH.Rb/h1H;/q;+1/p-1
Compound 2: rubidium iodide (RbI), IRb, InChI=1S/HI.Rb/h1H;/q;+1/p-1

System: rubidium fluoride (RbF); phases: Crystal, Liquid, Air at 1 atmosphere
Property: Normal melting temperature, K (Crystal); method: DTA
Normal melting temperature, K	uncertainty
1063.15	1

System: rubidium iodide (RbI); phases: Crystal, Liquid, Air at 1 atmosphere
Property: Normal melting temperature, K (Crystal); method: DTA
Normal melting temperature, K	uncertainty
923.15	1

System: rubidium iodide (RbI) + rubidium fluoride (RbF); phases: Liquid, Crystal
Fixed: Pressure, kPa = 101
Property: Solid-liquid equilibrium temperature, K (Liquid); method: DTA
Mole fraction of rubidium fluoride (RbF)	Solid-liquid equilibrium temperature, K	uncertainty
0	923.15	1
0.1	907.15	1
0.2	863.15	1
0.3	824.15	1

System: rubidium iodide (RbI) + rubidium fluoride (RbF); phases: Liquid, Crystal
Fixed: Pressure, kPa = 101
Property: Solid-liquid equilibrium temperature, K (Liquid); method: DTA
Mole fraction of rubidium fluoride (RbF)	Solid-liquid equilibrium temperature, K	uncertainty
0.4	817.15	1
0.55	881.15	1
0.65	968.15	1
0.7	995.15	1
0.8	1019.15	1
0.9	1039.15	1
1	1063.15	1
