Measured thermophysical data. Toward an inherently safer alternative for operating N-oxidation of alkylpyridines: Effect of N-oxide on lutidine - water phase separation
Source: Thermochim. Acta, 2017, 10.1016/j.tca.2017.08.007
Compound 1: 2,6-dimethylpyridine, C7H9N, InChI=1S/C7H9N/c1-6-4-3-5-7(2)8-6/h3-5H,1-2H3, purity 98%
Compound 2: 2,6-dimethylpyridine-N-oxide, C7H9NO, InChI=1S/C7H9NO/c1-6-4-3-5-7(2)8(6)9/h3-5H,1-2H3, purity 98%
Compound 3: water, H2O, InChI=1S/H2O/h1H2, purity 99.8%

System: 2,6-dimethylpyridine + 2,6-dimethylpyridine-N-oxide + water; phases: Liquid mixture 1, Liquid mixture 2
Fixed: Temperature, K = 383.15
Fixed: Pressure, kPa = 100
Property: Mass fraction of 2,6-dimethylpyridine-N-oxide (Liquid mixture 1); method: Titration method
Mass fraction of 2,6-dimethylpyridine	Mass fraction of 2,6-dimethylpyridine-N-oxide	uncertainty
0.6707	0.0748	0.003
0.4962	0.1247	0.005
0.6416	0.0733	0.005
0.574	0.102	0.0071
0.488	0.1213	0.0074
0.3995	0.1345	0.0056
