Measured thermophysical data. Low temperature molar heat capacities and thermal stability of crystalline artemisinin
Source: Thermochim. Acta, 2007, 10.1016/j.tca.2007.04.007
Compound 1: artemisinin, C15H22O5, InChI=1S/C15H22O5/c1-8-4-5-11-9(2)12(16)17-13-15(11)10(8)6-7-14(3,18-13)19-20-15/h8-11,13H,4-7H2,1-3H3/t8-,9-,10+,11+,13-,14-,15-/m1/s1, purity 99.5%

System: artemisinin; phases: Crystal
Fixed: Pressure, kPa = 101.325
Property: Molar heat capacity at constant pressure, J/K/mol (Crystal); method: Large sample (1 g) DSC
Temperature, K	Molar heat capacity at constant pressure, J/K/mol	uncertainty
80.879	106.288	1.647
84.39	107.396	1.664
87.31	111.293	1.724
90.279	115.112	1.783
93.153	118.774	1.84
96.078	122.287	1.895
99.056	126.224	1.956
101.957	129.958	2.013
104.908	133.57	2.069
107.913	137.364	2.128
110.848	141.041	2.185
113.719	144.582	2.24
116.647	147.716	2.289
119.631	151.398	2.346
122.566	154.673	2.396
125.445	158.045	2.449
128.379	161.175	2.497
131.371	164.317	2.546
134.312	167.286	2.592
137.207	170.201	2.637
140.057	173.581	2.689
142.85	175.976	2.726
145.7	178.735	2.769
148.611	181.393	2.81
151.479	184.148	2.853
154.305	188.26	2.917
157.092	189.514	2.936
159.848	190.78	2.956
162.664	193.143	2.992
165.541	194.653	3.016
168.383	196.906	3.05
171.198	197.844	3.065
173.982	199.028	3.083
176.74	201.025	3.114
179.468	203.222	3.148
182.17	204.814	3.173
184.928	207.172	3.21
187.748	209.024	3.238
190.536	210.196	3.256
193.298	211.689	3.28
196.045	214.53	3.324
198.781	218.094	3.38
201.491	234.608	3.636
204.347	248.753	3.854
207.257	254.516	3.943
210.154	259.156	4.015
213.033	263.673	4.085
215.976	268.335	4.157
218.98	272.612	4.223
221.966	277.473	4.299
224.93	283.138	4.387
227.857	300.11	4.65
230.904	305.21	4.728
234.15	304.082	4.711
237.202	300.49	4.655
240.201	312.958	4.848
243.25	303.708	4.706
246.198	290.188	4.496
249.15	291.351	4.514
252.08	292.717	4.535
254.99	294.779	4.567
257.88	295.874	4.584
260.748	297.433	4.608
263.6	299.574	4.641
266.431	301.661	4.673
269.295	304.163	4.712
272.212	307.87	4.77
275.11	309.22	4.79
278.481	312.585	4.843
282.317	315.574	4.889
286.119	318.398	4.933
289.882	323.791	5.016
293.712	327.625	5.076
297.592	331.62	5.137
301.45	336.327	5.21
305.277	339.949	5.267
309.084	344.568	5.338
312.861	351.73	5.449
316.644	334.752	5.186
320.441	337.711	5.232
324.158	338.79	5.249
327.844	344.417	5.336
331.576	356.387	5.521
335.372	360.693	5.588
339.111	368.055	5.702
342.413	376.179	5.828
345.265	376.264	5.829
348.109	388.355	6.017
350.962	394.387	6.11
353.845	397.54	6.159
356.812	403.863	6.257
359.88	413.078	6.4
363.031	429.503	6.655
