Measured thermophysical data. Thermo-analytical study of a melt cast composition based on  cis -1,3,4,6-tetranitrooctahydroimidazo-[4,5 d]imidazole (BCHMX)/trinitrotoluene (TNT) compared with traditional compositions
Source: Thermochim. Acta, 2018, 10.1016/j.tca.2018.06.006
Compound 1: 2,4,6-trinitrotoluene, C7H5N3O6, InChI=1S/C7H5N3O6/c1-4-6(9(13)14)2-5(8(11)12)3-7(4)10(15)16/h2-3H,1H3
Compound 2: 1,3,5-triaza-1,3,5-trinitrocyclohexane, C3H6N6O6, InChI=1S/C3H6N6O6/c10-7(11)4-1-5(8(12)13)3-6(2-4)9(14)15/h1-3H2
Compound 3: cyclotetramethylene tetranitramine, C4H8N8O8, InChI=1S/C4H8N8O8/c13-9(14)5-1-6(10(15)16)3-8(12(19)20)4-7(2-5)11(17)18/h1-4H2

System: 2,4,6-trinitrotoluene; phases: Crystal, Liquid, Air at 1 atmosphere
Property: Triple point temperature, K (Crystal); method: DSC
Triple point temperature, K	uncertainty
353.95	1

System: 1,3,5-triaza-1,3,5-trinitrocyclohexane; phases: Crystal, Liquid, Air at 1 atmosphere
Property: Triple point temperature, K (Crystal); method: DSC
Triple point temperature, K	uncertainty
477.95	1

System: cyclotetramethylene tetranitramine; phases: Crystal 2, Crystal 1, Air at 1 atmosphere
Property: Triple point temperature, K (Crystal 2); method: DSC
Triple point temperature, K	uncertainty
465.25	10
