Measured thermophysical data. Molecular interactions in binary mixtures containing o-toluidine
Source: Thermochim. Acta, 2008, 10.1016/j.tca.2007.12.006
Compound 1: 2-methylaniline, C7H9N, InChI=1S/C7H9N/c1-6-4-2-3-5-7(6)8/h2-5H,8H2,1H3, purity 98%
Compound 2: benzene, C6H6, InChI=1S/C6H6/c1-2-4-6-5-3-1/h1-6H, purity 98%
Compound 3: toluene, C7H8, InChI=1S/C7H8/c1-7-5-3-2-4-6-7/h2-6H,1H3, purity 98%
Compound 4: 1,2-dimethylbenzene, C8H10, InChI=1S/C8H10/c1-7-5-3-4-6-8(7)2/h3-6H,1-2H3, purity 98%
Compound 5: 1,4-dimethylbenzene, C8H10, InChI=1S/C8H10/c1-7-3-5-8(2)6-4-7/h3-6H,1-2H3, purity 98%
Compound 6: 1,3-dimethylbenzene, C8H10, InChI=1S/C8H10/c1-7-4-3-5-8(2)6-7/h3-6H,1-2H3, purity 98%

System: benzene + 2-methylaniline; phases: Liquid
Fixed: Pressure, kPa = 101.3
Fixed: Temperature, K = 308.15
Property: Excess molar volume, m3/mol (Liquid); method: Direct dilatometry
Mole fraction of 2-methylaniline	Excess molar volume, m3/mol	uncertainty
0.054	-1.4e-08	2e-09
0.171	-3.5e-08	2e-09
0.2274	-4.1e-08	2e-09
0.2866	-4.6e-08	2e-09
0.3557	-4.9e-08	2e-09
0.4203	-4.9e-08	2e-09
0.5564	-4.7e-08	2e-09
0.5962	-4.6e-08	2e-09
0.6263	-4.3e-08	2e-09
0.6805	-4.1e-08	2e-09
0.7432	-3.6e-08	2e-09
0.8164	-2.9e-08	2e-09
0.8822	-2.1e-08	2e-09
0.9315	-1.3e-08	2e-09

System: benzene + 2-methylaniline; phases: Liquid
Fixed: Pressure, kPa = 100
Fixed: Temperature, K = 308.15
Property: Excess molar enthalpy (molar enthalpy of mixing), kJ/mol (Liquid); method: Power-compensation calorimetry
Mole fraction of 2-methylaniline	Excess molar enthalpy (molar enthalpy of mixing), kJ/mol	uncertainty
0.0543	0.0441	0.0014
0.1097	0.1031	0.0025
0.1883	0.1978	0.0045
0.2657	0.2894	0.0064
0.3119	0.3378	0.0074
0.3923	0.4038	0.0088
0.4454	0.4311	0.0094
0.5159	0.4447	0.0097
0.6015	0.4248	0.0093
0.6999	0.3557	0.0078
0.7564	0.2976	0.0066
0.8008	0.2896	0.0064
0.858	0.1707	0.0039
0.911	0.1021	0.0025

System: 2-methylaniline + toluene; phases: Liquid
Fixed: Pressure, kPa = 101.3
Fixed: Temperature, K = 308.15
Property: Excess molar volume, m3/mol (Liquid); method: Direct dilatometry
Mole fraction of 2-methylaniline	Excess molar volume, m3/mol	uncertainty
0.0426	-1e-08	2e-09
0.1067	-2.5e-08	2e-09
0.1952	-4.2e-08	2e-09
0.2576	-5.2e-08	2e-09
0.3571	-6.4e-08	2e-09
0.4265	-6.9e-08	2e-09
0.4989	-7.2e-08	2e-09
0.5375	-7.2e-08	2e-09
0.5873	-7e-08	2e-09
0.6268	-6.8e-08	2e-09
0.6923	-6.2e-08	2e-09
0.7534	-5.4e-08	2e-09
0.8642	-3.4e-08	2e-09
0.9483	-1.4e-08	2e-09

System: 2-methylaniline + toluene; phases: Liquid
Fixed: Pressure, kPa = 100
Fixed: Temperature, K = 308.15
Property: Excess molar enthalpy (molar enthalpy of mixing), kJ/mol (Liquid); method: Power-compensation calorimetry
Mole fraction of 2-methylaniline	Excess molar enthalpy (molar enthalpy of mixing), kJ/mol	uncertainty
0.0773	0.0581	0.0016
0.1557	0.1382	0.0032
0.209	0.1978	0.0045
0.2776	0.2743	0.0061
0.3393	0.3371	0.0074
0.4009	0.3899	0.0085
0.4713	0.4336	0.0095
0.5661	0.4579	0.01
0.6339	0.4477	0.0098
0.6983	0.4157	0.0091
0.738	0.385	0.0084
0.7997	0.2572	0.0057
0.8561	0.2471	0.0055
0.9222	0.1426	0.0033

System: 1,2-dimethylbenzene + 2-methylaniline; phases: Liquid
Fixed: Pressure, kPa = 101.3
Fixed: Temperature, K = 308.15
Property: Excess molar volume, m3/mol (Liquid); method: Direct dilatometry
Mole fraction of 2-methylaniline	Excess molar volume, m3/mol	uncertainty
0.0687	3.1e-08	2e-09
0.1145	4.7e-08	2e-09
0.1876	6.4e-08	2e-09
0.2425	7.3e-08	2e-09
0.3113	8e-08	2e-09
0.3903	8.3e-08	2e-09
0.4507	8.3e-08	2e-09
0.5315	8.3e-08	2e-09
0.5886	7.8e-08	2e-09
0.6742	7e-08	2e-09
0.7319	6.4e-08	2e-09
0.7982	5.4e-08	2e-09
0.8382	4.6e-08	2e-09
0.9214	2.6e-08	2e-09

System: 1,2-dimethylbenzene + 2-methylaniline; phases: Liquid
Fixed: Pressure, kPa = 100
Fixed: Temperature, K = 308.15
Property: Excess molar enthalpy (molar enthalpy of mixing), kJ/mol (Liquid); method: Power-compensation calorimetry
Mole fraction of 2-methylaniline	Excess molar enthalpy (molar enthalpy of mixing), kJ/mol	uncertainty
0.067	0.0436	0.0014
0.1314	0.1017	0.0025
0.1997	0.1728	0.004
0.2457	0.2226	0.005
0.3134	0.2937	0.0065
0.3875	0.3624	0.008
0.4345	0.3982	0.0087
0.5059	0.4371	0.0095
0.5897	0.4544	0.0099
0.6365	0.449	0.0098
0.6913	0.4277	0.0093
0.7412	0.394	0.0086
0.8013	0.3349	0.0074
0.9014	0.1919	0.0044

System: 2-methylaniline + 1,4-dimethylbenzene; phases: Liquid
Fixed: Pressure, kPa = 101.3
Fixed: Temperature, K = 308.15
Property: Excess molar volume, m3/mol (Liquid); method: Direct dilatometry
Mole fraction of 2-methylaniline	Excess molar volume, m3/mol	uncertainty
0.0712	-7e-09	2e-09
0.1776	-1.9e-08	2e-09
0.2384	-2.6e-08	2e-09
0.2982	-3.1e-08	2e-09
0.3343	-3.4e-08	2e-09
0.3901	-3.8e-08	2e-09
0.4345	-4.1e-08	2e-09
0.4912	-4.3e-08	2e-09
0.5552	-4.3e-08	2e-09
0.6283	-4.2e-08	2e-09
0.6998	-3.8e-08	2e-09
0.7413	-3.5e-08	2e-09
0.8448	-2.4e-08	2e-09
0.9103	-1.5e-08	2e-09

System: 2-methylaniline + 1,4-dimethylbenzene; phases: Liquid
Fixed: Pressure, kPa = 100
Fixed: Temperature, K = 308.15
Property: Excess molar enthalpy (molar enthalpy of mixing), kJ/mol (Liquid); method: Power-compensation calorimetry
Mole fraction of 2-methylaniline	Excess molar enthalpy (molar enthalpy of mixing), kJ/mol	uncertainty
0.0548	0.0655	0.0018
0.1163	0.1324	0.0031
0.1873	0.2039	0.0046
0.246	0.2602	0.0058
0.3007	0.3107	0.0069
0.3663	0.3688	0.0081
0.4357	0.4256	0.0093
0.5113	0.4784	0.0104
0.5778	0.5126	0.0111
0.6442	0.5297	0.0115
0.7013	0.5258	0.0114
0.7776	0.4847	0.0105
0.8417	0.3194	0.007
0.9333	0.2176	0.0049

System: 2-methylaniline + 1,3-dimethylbenzene; phases: Liquid
Fixed: Pressure, kPa = 101.3
Fixed: Temperature, K = 308.15
Property: Excess molar volume, m3/mol (Liquid); method: Direct dilatometry
Mole fraction of 2-methylaniline	Excess molar volume, m3/mol	uncertainty
0.1887	-8e-09	2e-09
0.2324	-1e-08	2e-09
0.2976	-1.4e-08	2e-09
0.3246	-1.5e-08	2e-09
0.3843	-1.8e-08	2e-09
0.4706	-2.1e-08	2e-09
0.518	-2.3e-08	2e-09
0.5432	-2.3e-08	2e-09
0.6113	-2.4e-08	2e-09
0.6876	-2.3e-08	2e-09
0.7418	-2.2e-08	2e-09
0.8219	-1.8e-08	2e-09
0.8972	-1.2e-08	2e-09
0.9314	-9e-09	2e-09

System: 2-methylaniline + 1,3-dimethylbenzene; phases: Liquid
Fixed: Pressure, kPa = 100
Fixed: Temperature, K = 308.15
Property: Excess molar enthalpy (molar enthalpy of mixing), kJ/mol (Liquid); method: Power-compensation calorimetry
Mole fraction of 2-methylaniline	Excess molar enthalpy (molar enthalpy of mixing), kJ/mol	uncertainty
0.0688	0.0677	0.0018
0.1391	0.1391	0.0033
0.1787	0.1796	0.0041
0.2661	0.2676	0.006
0.3277	0.326	0.0072
0.3907	0.3803	0.0083
0.4477	0.4226	0.0092
0.5008	0.4544	0.0099
0.5693	0.4814	0.0105
0.6457	0.4882	0.0106
0.7315	0.4588	0.01
0.8007	0.4	0.0087
0.8559	0.3265	0.0072
0.917	0.2138	0.0048
