Measured thermophysical data. Synthesis, Characterization, and Thermodynamic Study of Ammonium Benzoate C7H5O2NH4(s)
Source: Thermochim. Acta, 2010, 10.1016/j.tca.2010.01.021
Compound 1: acetic acid, C2H4O2, InChI=1S/C2H4O2/c1-2(3)4/h1H3,(H,3,4)
Compound 2: benzoic acid, C7H6O2, InChI=1S/C7H6O2/c8-7(9)6-4-2-1-3-5-6/h1-5H,(H,8,9)
Compound 3: ammonium acetate, C2H7NO2, InChI=1S/C2H4O2.H3N/c1-2(3)4;/h1H3,(H,3,4);1H3
Compound 4: ammonium benzoate, C7H9NO2, InChI=1S/C7H6O2.H3N/c8-7(9)6-4-2-1-3-5-6;/h1-5H,(H,8,9);1H3

System: ammonium benzoate; phases: Crystal
Fixed: Pressure, kPa = 101.325
Property: Molar heat capacity at constant pressure, J/K/mol (Crystal); method: Small (less than 1 g) adiabatic calorimetry
Temperature, K	Molar heat capacity at constant pressure, J/K/mol	uncertainty
80.235	65.166	0.426
81.767	66.195	0.431
84.025	67.464	0.437
86.202	68.887	0.445
88.379	69.937	0.45
90.556	71.513	0.486
92.571	72.72	0.491
94.64	74.19	0.497
96.64	75.8	0.503
98.619	77.006	0.508
100.55	78.035	0.512
102.41	79.326	0.518
104.34	80.858	0.524
106.2	81.799	0.527
107.97	83.156	0.533
109.83	84.272	0.537
111.6	85.301	0.541
113.37	86.373	0.546
115.15	87.62	0.551
116.84	88.737	0.555
118.61	90.006	0.56
120.31	91.472	0.566
122.97	92.895	0.572
126.27	94.886	0.58
129.18	96.987	0.588
132.16	98.847	0.596
135.06	100.95	0.6
138.04	102.77	0.61
141.02	104.57	0.62
144.01	106.24	0.63
147	108.24	0.63
149.93	110.5	0.64
152.9	112.26	0.65
155.86	113.91	0.66
158.85	116.09	0.66
161.8	118.15	0.67
164.77	120.01	0.68
167.74	121.97	0.69
170.72	124.05	0.7
173.71	125.52	0.7
176.67	127.13	0.71
179.65	129.42	0.72
183.76	131.94	0.73
187.79	134.2	0.74
190.78	136.42	0.75
193.75	138.62	0.75
196.71	140.39	0.76
199.69	142.17	0.77
202.71	144.2	0.78
205.7	146.13	0.78
208.67	148.09	0.79
211.63	149.94	0.8
214.62	152.01	0.81
217.63	153.98	0.82
220.61	155.64	0.82
223.59	157.46	0.83
226.57	159.31	0.84
229.56	161.33	0.85
232.46	163.12	0.85
235.52	164.85	0.86
238.67	166.71	0.87
242.46	169.25	0.88
246.17	170.85	0.88
249.15	172.58	0.89
252.13	174.29	0.9
255.04	176.25	0.91
258.02	177.81	0.91
261.08	179.36	0.92
264.07	180.92	0.92
267.13	182.91	0.93
270.11	184.57	0.94
273.1	186.5	0.95
276.05	188.1	0.95
279	189.37	0.96
281.97	190.96	0.96
284.95	192.56	0.97
287.93	194.07	0.98
291	195.71	0.98
293.98	197.29	0.99
296.96	199.56	1
299.95	200.88	1
302.93	203.11	1.01
305.83	204.55	1.02
308.82	205.93	1.02
311.72	207.7	1.03
314.7	209.41	1.04
317.68	210.92	1.04
320.75	212.63	1.05
323.73	214.01	1.06
326.71	215.52	1.06
329.78	216.96	1.07
332.76	218.8	1.08
335.75	220.31	1.08
338.73	222.08	1.09
341.71	223.72	1.09
344.61	225.36	1.1
347.6	226.81	1.11
350.5	228.38	1.11
353.48	229.7	1.12
356.55	231.21	1.12
359.53	232.72	1.13
362.59	234.1	1.14
365.58	235.61	1.14
368.56	237.58	1.15
371.54	239.09	1.16
374.53	240.86	1.16
377.51	242.44	1.17
380.49	243.95	1.18
383.4	245.72	1.18
386.3	247.56	1.19
389.28	249.39	1.2
392.35	251.17	1.2
395.33	252.68	1.21
398.31	254.12	1.22

Reaction: 1 acetic acid + -1 benzoic acid + -1 ammonium acetate + 1 ammonium benzoate
Property: Molar enthalpy of reaction, kJ/mol
15.58
