Measured thermophysical data. Enthalpies of solution of DL- -Alanyl-DL- -Valine in aqueous solution of amides at 298.15K
Source: Thermochim. Acta, 2009, 10.1016/j.tca.2008.12.016
Compound 1: DL-alanyl-DL-valine, C8H16N2O3, InChI=1S/C8H16N2O3/c1-4(2)6(8(12)13)10-7(11)5(3)9/h4-6H,9H2,1-3H3,(H,10,11)(H,12,13)
Compound 2: formamide, CH3NO, InChI=1S/CH3NO/c2-1-3/h1H,(H2,2,3)
Compound 3: N-methylformamide, C2H5NO, InChI=1S/C2H5NO/c1-3-2-4/h2H,1H3,(H,3,4)
Compound 4: dimethylformamide, C3H7NO, InChI=1S/C3H7NO/c1-4(2)3-5/h3H,1-2H3
Compound 5: N,N-diethylformamide, C5H11NO, InChI=1S/C5H11NO/c1-3-6(4-2)5-7/h5H,3-4H2,1-2H3
Compound 6: N,N-dimethylethanamide, C4H9NO, InChI=1S/C4H9NO/c1-4(6)5(2)3/h1-3H3
Compound 7: water, H2O, InChI=1S/H2O/h1H2

System: formamide + DL-alanyl-DL-valine + water; phases: Liquid
Fixed: Pressure, kPa = 101
Fixed: Temperature, K = 298.15
Fixed: Mole fraction of DL-alanyl-DL-valine = 0
Property: Molar enthalpy of solution, kJ/mol (Liquid); method: ISOPERIBOL
Solvent: Molality, mol/kg of formamide	Molar enthalpy of solution, kJ/mol	uncertainty
1.242	-5.05	0.06
2.345	-4.79	0.06
3.748	-4.09	0.05
5.079	-3.42	0.04
7.521	-2.83	0.05
8.477	-2.21	0.03
10.867	-1.96	0.02
12.756	-1.66	0.02
17.652	-1.03	0.02
25.445	-0.61	0.02
35.557	-0.56	0.02
50.858	-0.11	0.02

System: N-methylformamide + DL-alanyl-DL-valine + water; phases: Liquid
Fixed: Pressure, kPa = 101
Fixed: Temperature, K = 298.15
Fixed: Mole fraction of DL-alanyl-DL-valine = 0
Property: Molar enthalpy of solution, kJ/mol (Liquid); method: ISOPERIBOL
Solvent: Molality, mol/kg of N-methylformamide	Molar enthalpy of solution, kJ/mol	uncertainty
0.814	-4.94	0.06
1.646	-4.16	0.05
2.411	-3.26	0.05
3.869	-2.45	0.03
4.701	-1.53	0.04
5.829	-0.68	0.02
8.681	0.53	0.02
9.909	1.34	0.02
12.404	1.73	0.02
17.463	3.27	0.04
24.523	3.51	0.04
34.557	3.91	0.05

System: dimethylformamide + DL-alanyl-DL-valine + water; phases: Liquid
Fixed: Pressure, kPa = 101
Fixed: Temperature, K = 298.15
Fixed: Mole fraction of DL-alanyl-DL-valine = 0
Property: Molar enthalpy of solution, kJ/mol (Liquid); method: ISOPERIBOL
Solvent: Molality, mol/kg of dimethylformamide	Molar enthalpy of solution, kJ/mol	uncertainty
0.717	-4.71	0.06
1.193	-4.55	0.06
2.102	-3.56	0.05
2.598	-2.42	0.03
3.528	-2.07	0.04
4.372	-1.08	0.02
5.586	-0.32	0.02
6.503	0.84	0.02
9.282	2.11	0.03
12.996	4.03	0.05
18.183	6.38	0.08
25.926	9.41	0.12

System: N,N-diethylformamide + DL-alanyl-DL-valine + water; phases: Liquid
Fixed: Pressure, kPa = 101
Fixed: Temperature, K = 298.15
Fixed: Mole fraction of DL-alanyl-DL-valine = 0
Property: Molar enthalpy of solution, kJ/mol (Liquid); method: ISOPERIBOL
Solvent: Molality, mol/kg of N,N-diethylformamide	Molar enthalpy of solution, kJ/mol	uncertainty
0.805	-4.25	0.05
1.396	-2.73	0.04
1.772	-1.16	0.04
2.468	-0.56	0.02
2.952	0.58	0.04
3.724	0.99	0.02
4.464	1.94	0.02
5.513	2.96	0.04
6.71	3.87	0.05
8.889	5.53	0.07
12.412	6.11	0.08
17.797	7.98	0.1

System: N,N-dimethylethanamide + DL-alanyl-DL-valine + water; phases: Liquid
Fixed: Pressure, kPa = 101
Fixed: Temperature, K = 298.15
Fixed: Mole fraction of DL-alanyl-DL-valine = 0
Property: Molar enthalpy of solution, kJ/mol (Liquid); method: ISOPERIBOL
Solvent: Molality, mol/kg of N,N-dimethylethanamide	Molar enthalpy of solution, kJ/mol	uncertainty
0.507	-3.97	0.05
0.978	-3.52	0.04
1.085	-2.12	0.03
1.763	-0.78	0.02
2.181	0.9	0.02
3.619	2.99	0.04
4.685	5.07	0.06
6.654	7.96	0.1
7.739	9.78	0.12
10.811	11.6	0.14
15.173	11.3	0.14
21.625	11.03	0.14
