Measured thermophysical data. Experimental study of relaxation dynamics in solid solutions of benzene, hexa-substituted benzenes. II
Source: Thermochim. Acta, 2017, 10.1016/j.tca.2017.09.023
Compound 1: pentachlorobenzenamine, C6H2Cl5N, InChI=1S/C6H2Cl5N/c7-1-2(8)4(10)6(12)5(11)3(1)9/h12H2
Compound 2: hexachlorobenzene, C6Cl6, InChI=1S/C6Cl6/c7-1-2(8)4(10)6(12)5(11)3(1)9
Compound 3: hexamethylbenzene, C12H18, InChI=1S/C12H18/c1-7-8(2)10(4)12(6)11(5)9(7)3/h1-6H3
Compound 4: bromopentamethylbenzene, C11H15Br, InChI=1S/C11H15Br/c1-6-7(2)9(4)11(12)10(5)8(6)3/h1-5H3
Compound 5: o-terphenyl, C18H14, InChI=1S/C18H14/c1-3-9-15(10-4-1)17-13-7-8-14-18(17)16-11-5-2-6-12-16/h1-14H

System: pentachlorobenzenamine; phases: Crystal, Liquid, Air at 1 atmosphere
Property: Molar enthalpy of transition or fusion, kJ/mol (Crystal); method: DSC
Molar enthalpy of transition or fusion, kJ/mol	uncertainty
18.494917304	1.300216568

System: pentachlorobenzenamine; phases: Crystal, Liquid, Air at 1 atmosphere
Property: Normal melting temperature, K (Crystal); method: DTA
Normal melting temperature, K	uncertainty
508.5	1.1

System: hexachlorobenzene; phases: Crystal, Liquid, Air at 1 atmosphere
Property: Molar enthalpy of transition or fusion, kJ/mol (Crystal); method: DSC
Molar enthalpy of transition or fusion, kJ/mol	uncertainty
23.9215536	1.2815118

System: hexachlorobenzene; phases: Crystal, Liquid, Air at 1 atmosphere
Property: Normal melting temperature, K (Crystal); method: DTA
Normal melting temperature, K	uncertainty
503.2	2

System: hexachlorobenzene; phases: Crystal, Liquid, Air at 1 atmosphere
Property: Normal melting temperature, K (Crystal); method: DTA
Normal melting temperature, K	uncertainty
504	1.1

System: hexamethylbenzene; phases: Crystal, Liquid, Air at 1 atmosphere
Property: Molar enthalpy of transition or fusion, kJ/mol (Crystal); method: DSC
Molar enthalpy of transition or fusion, kJ/mol	uncertainty
20.559776244	1.46044188

System: hexamethylbenzene; phases: Crystal 1, Liquid, Air at 1 atmosphere
Property: Normal melting temperature, K (Crystal 1); method: DTA
Normal melting temperature, K	uncertainty
439.2	1.1

System: hexamethylbenzene; phases: Crystal 1, Liquid, Air at 1 atmosphere
Property: Normal melting temperature, K (Crystal 1); method: DTA
Normal melting temperature, K	uncertainty
440.6	2

System: hexamethylbenzene; phases: Crystal 2, Crystal 1, Air at 1 atmosphere
Property: Triple point temperature, K (Crystal 2); method: DSC
Triple point temperature, K	uncertainty
384.9	1.2

System: hexamethylbenzene; phases: Crystal 3, Crystal 2, Air at 1 atmosphere
Property: Triple point temperature, K (Crystal 3); method: DSC
Triple point temperature, K	uncertainty
117.4	1.2

System: hexamethylbenzene; phases: Crystal 2, Crystal 1, Air at 1 atmosphere
Property: Molar enthalpy of transition or fusion, kJ/mol (Crystal 2); method: DSC
Molar enthalpy of transition or fusion, kJ/mol	uncertainty
1.671394596	1.395533352

System: hexamethylbenzene; phases: Crystal 3, Crystal 2, Air at 1 atmosphere
Property: Molar enthalpy of transition or fusion, kJ/mol (Crystal 3); method: DSC
Molar enthalpy of transition or fusion, kJ/mol	uncertainty
0.56794962	1.395533352

System: bromopentamethylbenzene; phases: Crystal, Liquid, Air at 1 atmosphere
Property: Molar enthalpy of transition or fusion, kJ/mol (Crystal); method: DSC
Molar enthalpy of transition or fusion, kJ/mol	uncertainty
15.1048632	1.45370112

System: bromopentamethylbenzene; phases: Crystal 1, Liquid, Air at 1 atmosphere
Property: Normal melting temperature, K (Crystal 1); method: DTA
Normal melting temperature, K	uncertainty
436.1	1.1

System: bromopentamethylbenzene; phases: Crystal 2, Crystal 1, Air at 1 atmosphere
Property: Triple point temperature, K (Crystal 2); method: DSC
Triple point temperature, K	uncertainty
411.6	1.2

System: bromopentamethylbenzene; phases: Crystal 2, Crystal 1, Air at 1 atmosphere
Property: Molar enthalpy of transition or fusion, kJ/mol (Crystal 2); method: DSC
Molar enthalpy of transition or fusion, kJ/mol	uncertainty
4.3156752	1.43098704

System: o-terphenyl; phases: Crystal, Liquid, Air at 1 atmosphere
Property: Normal melting temperature, K (Crystal); method: DTA
Normal melting temperature, K	uncertainty
330.3	2

System: pentachlorobenzenamine + hexachlorobenzene; phases: Liquid, Crystal
Fixed: Pressure, kPa = 100
Property: Solid-liquid equilibrium temperature, K (Liquid); method: DTA
Mole fraction of hexachlorobenzene	Solid-liquid equilibrium temperature, K	uncertainty
0	508.5	1.1
0.09	508.7	1.1
0.29	506.2	1.1
0.48	506.1	1.1
0.69	504.2	1.1
0.84	504.8	1.1
1	504	1.1
0.84	503.1	2
0.98	503.2	2
1	503.2	2

System: pentachlorobenzenamine + hexachlorobenzene; phases: Crystal, Liquid
Fixed: Pressure, kPa = 100
Property: Solid-liquid equilibrium temperature, K (Crystal); method: DTA
Mole fraction of hexachlorobenzene	Solid-liquid equilibrium temperature, K	uncertainty
0	508.5	2
0.09	506.4	2
0.29	502	2
0.48	501.2	2
0.69	500.5	2
0.84	500.3	2
0.98	502	2
1	503.2	2

System: hexamethylbenzene + bromopentamethylbenzene; phases: Liquid, Crystal
Fixed: Pressure, kPa = 100
Property: Solid-liquid equilibrium temperature, K (Liquid); method: DTA
Mole fraction of hexamethylbenzene	Solid-liquid equilibrium temperature, K	uncertainty
0	436.1	1.1
0.1	437.8	1.1
0.25	436.5	1.1
0.5	438.7	1.1
0.75	440.4	1.1
0.85	441.3	1.1
1	439.2	1.1
1	440.6	2
0.02	437.1	2
0.04	436.9	2
0.37	437.7	2
0.63	441	2
0.98	440.5	2

System: hexamethylbenzene + bromopentamethylbenzene; phases: Crystal, Liquid
Fixed: Pressure, kPa = 100
Property: Solid-liquid equilibrium temperature, K (Crystal); method: DTA
Mole fraction of hexamethylbenzene	Solid-liquid equilibrium temperature, K	uncertainty
0	436.1	2
0.02	435	2
0.04	434.8	2
0.1	434.2	2
0.25	434.2	2
0.37	434.3	2
0.5	435.7	2
0.63	437.2	2
0.75	438	2
0.85	438.5	2
0.98	439.3	2
1	440.6	2

System: pentachlorobenzenamine + o-terphenyl; phases: Crystal, Crystal, Liquid, Air at 1 atmosphere
Property: Eutectic temperature, K (Crystal); method: DTA
Eutectic temperature, K	uncertainty
326.5	2

System: pentachlorobenzenamine + o-terphenyl; phases: Liquid, Crystal
Fixed: Pressure, kPa = 100
Property: Solid-liquid equilibrium temperature, K (Liquid); method: DTA
Mole fraction of pentachlorobenzenamine	Solid-liquid equilibrium temperature, K	uncertainty
0	330.3	2
0.02	329.9	2
0.08	327	2

System: pentachlorobenzenamine + o-terphenyl; phases: Liquid, Crystal
Fixed: Pressure, kPa = 100
Property: Solid-liquid equilibrium temperature, K (Liquid); method: DTA
Mole fraction of pentachlorobenzenamine	Solid-liquid equilibrium temperature, K	uncertainty
0.08	327	2
0.16	366	2
0.34	428.2	2
0.53	461.2	2
0.75	486.9	2
0.92	501.8	2
1	508.7	2

System: bromopentamethylbenzene + o-terphenyl; phases: Crystal 2, Crystal, Liquid, Air at 1 atmosphere
Property: Eutectic temperature, K (Crystal 2); method: DTA
Eutectic temperature, K	uncertainty
322.9	2

System: bromopentamethylbenzene + o-terphenyl; phases: Liquid, Crystal
Fixed: Pressure, kPa = 100
Property: Solid-liquid equilibrium temperature, K (Liquid); method: DTA
Mole fraction of bromopentamethylbenzene	Solid-liquid equilibrium temperature, K	uncertainty
0	330.3	2
0.02	329.5	2
0.1	326.4	2

System: bromopentamethylbenzene + o-terphenyl; phases: Liquid, Crystal 2
Fixed: Pressure, kPa = 100
Property: Solid-liquid equilibrium temperature, K (Liquid); method: DTA
Mole fraction of bromopentamethylbenzene	Solid-liquid equilibrium temperature, K	uncertainty
0.4	365.1	2
0.5	378	2
0.6	390.1	2
0.7	401.1	2

System: bromopentamethylbenzene + o-terphenyl; phases: Liquid, Crystal 1
Fixed: Pressure, kPa = 100
Property: Solid-liquid equilibrium temperature, K (Liquid); method: DTA
Mole fraction of bromopentamethylbenzene	Solid-liquid equilibrium temperature, K	uncertainty
0.8	417.2	2
0.93	422.4	2
1	436.2	2
