Measured thermophysical data. Solubility of carbon dioxide in a choline chloride-ethylene glycol based deep eutectic solvent
Source: Thermochim. Acta, 2013, 10.1016/j.tca.2012.09.041
Compound 1: carbon dioxide, CO2, InChI=1S/CO2/c2-1-3, purity 99.9%
Compound 2: choline chloride, C5H14ClNO, InChI=1S/C5H14NO.ClH/c1-6(2,3)4-5-7;/h7H,4-5H2,1-3H3;1H/q+1;/p-1, purity 98%
Compound 3: 1,2-ethanediol, C2H6O2, InChI=1S/C2H6O2/c3-1-2-4/h3-4H,1-2H2, purity 98%

System: choline chloride + 1,2-ethanediol + carbon dioxide; phases: Liquid, Gas
Fixed: Solvent: Mole fraction of choline chloride = 0.3333
Property: Molality, mol/kg of carbon dioxide (Liquid); method: gravimetric balance
Temperature, K	Pressure, kPa	Molality, mol/kg of carbon dioxide	uncertainty
303.15	236	0.1062	0.0002
303.15	537	0.2529	0.0007
303.15	1004	0.4809	0.0024
303.15	1923	0.9612	0.0004
303.15	2760	1.4255	0.0075
303.15	3849	2.015	0.0107
303.15	4971	2.6892	0.0142
303.15	5863	3.1265	0.0165
313.15	248	0.0893	0.0002
313.15	565	0.2108	0.0005
313.15	1055	0.4054	0.0017
313.15	1928	0.7609	0.0019
313.15	2782	1.134	0.006
313.15	3889	1.6471	0.0087
313.15	5040	2.2058	0.0117
313.15	5902	2.6142	0.0138
323.15	306	0.0891	0.0002
323.15	603	0.1801	0.0004
323.15	1092	0.3321	0.0012
323.15	1950	0.6023	0.0025
323.15	2833	0.9064	0.0009
323.15	3948	1.3236	0.007
323.15	5110	1.7419	0.0092
323.15	6167	2.1903	0.0116
333.15	332	0.0782	0.0002
333.15	637	0.153	0.0003
333.15	1094	0.2646	0.0007
333.15	1948	0.4836	0.0025
333.15	2831	0.7053	0.0022
333.15	3944	0.9742	0.0003
333.15	5188	1.3726	0.0073
333.15	6104	1.5824	0.0084
343.15	378	0.0716	0.0002
343.15	659	0.1253	0.0003
343.15	1113	0.2111	0.0005
343.15	1960	0.37	0.0015
343.15	2862	0.5486	0.0026
343.15	4024	0.7837	0.0018
343.15	5267	1.04	0.0055
343.15	6323	1.2168	0.0064
