Measured thermophysical data. Thermodynamic functions of alkaline earth chloroapatites M10(PO4)6Cl2 (M=Ba, Sr, Ca) by drop  calorimetry
Source: Thermochim. Acta, 2011, 10.1016/j.tca.2011.08.027
Compound 1: calcium chloride phosphate Ca10(PO4)6Cl2, Ca10Cl2O24P6, InChI=1S/10Ca.2ClH.6H3O4P/c;;;;;;;;;;;;6*1-5(2,3)4/h;;;;;;;;;;2*1H;6*(H3,1,2,3,4)/q10*+2;;;;;;;;/p-20, purity 99.9%
Compound 2: strontium chloride phosphate Sr10(PO4)6Cl2, Cl2O24P6Sr10, InChI=1S/2ClH.6H3O4P.10Sr/c;;6*1-5(2,3)4;;;;;;;;;;/h2*1H;6*(H3,1,2,3,4);;;;;;;;;;/q;;;;;;;;10*+2/p-20, purity 99.9%
Compound 3: barium chloroapatite, Ba10Cl2O24P6, InChI=1S/10Ba.2ClH.6H3O4P/c;;;;;;;;;;;;6*1-5(2,3)4/h;;;;;;;;;;2*1H;6*(H3,1,2,3,4)/q10*+2;;;;;;;;/p-20, purity 99.9%

System: calcium chloride phosphate Ca10(PO4)6Cl2; phases: Crystal
Property: Mass density, kg/m3 (Crystal); method: X-ray diffraction
Temperature, K	Pressure, kPa	Mass density, kg/m3	uncertainty
293	101.325	3215	39

System: calcium chloride phosphate Ca10(PO4)6Cl2; phases: Crystal
Fixed: Pressure, kPa = 101.325
Property: Molar enthalpy, kJ/mol (Crystal); method: Drop calorimetry
Temperature, K	Molar enthalpy, kJ/mol	uncertainty
523	208.593	6.258
573	238.609	7.158
623	306.222	9.187
673	355.71	10.671
723	388.852	11.666
773	447.614	13.428
823	495.892	14.877
873	548.331	16.45
923	601.488	18.045
973	640.535	19.216
1023	709.127	21.274
1073	755.297	22.659
1123	821.785	24.654
1173	883.085	26.493
1223	951.966	28.559
1273	968.476	29.054
1323	1017.01	30.51
1373	1070.886	32.127
1423	1128.097	33.843

System: calcium chloride phosphate Ca10(PO4)6Cl2; phases: Crystal
Fixed: Pressure, kPa = 101.325
Property: Molar heat capacity at constant pressure, J/K/mol (Crystal); method: Drop calorimetry
Temperature, K	Molar heat capacity at constant pressure, J/K/mol	uncertainty
298	761	23
300	765	23
400	893	27
500	954	29
600	989	30
700	1011	30
800	1026	31
900	1038	31
1000	1047	31
1100	1054	32
1200	1060	32
1300	1066	32
1400	1071	32
1500	1075	32

System: strontium chloride phosphate Sr10(PO4)6Cl2; phases: Crystal
Property: Mass density, kg/m3 (Crystal); method: X-ray diffraction
Temperature, K	Pressure, kPa	Mass density, kg/m3	uncertainty
293	101.325	4157	50

System: strontium chloride phosphate Sr10(PO4)6Cl2; phases: Crystal
Fixed: Pressure, kPa = 101.325
Property: Molar enthalpy, kJ/mol (Crystal); method: Drop calorimetry
Temperature, K	Molar enthalpy, kJ/mol	uncertainty
523	216.865	6.506
573	248.969	7.469
623	318.018	9.541
673	378.608	11.358
723	406.983	12.21
773	475.762	14.273
823	511.135	15.334
873	569.073	17.072
923	616.958	18.509
973	652.808	19.584
1023	726.514	21.795
1073	769.508	23.085
1123	835.74	25.072
1173	909.178	27.275
1223	975.75	29.273
1273	999.475	29.984
1323	1031.166	30.935
1373	1090.119	32.704
1423	1167.261	35.018

System: strontium chloride phosphate Sr10(PO4)6Cl2; phases: Crystal
Fixed: Pressure, kPa = 101.325
Property: Molar heat capacity at constant pressure, J/K/mol (Crystal); method: Drop calorimetry
Temperature, K	Molar heat capacity at constant pressure, J/K/mol	uncertainty
298	840	25
300	843	25
400	938	28
500	984	30
600	1012	30
700	1030	31
800	1043	31
900	1054	32
1000	1062	32
1100	1070	32
1200	1077	32
1300	1083	32
1400	1089	33
1500	1095	33

System: barium chloroapatite; phases: Crystal
Property: Mass density, kg/m3 (Crystal); method: X-ray diffraction
Temperature, K	Pressure, kPa	Mass density, kg/m3	uncertainty
293	101.325	4778	57

System: barium chloroapatite; phases: Crystal
Fixed: Pressure, kPa = 101.325
Property: Molar enthalpy, kJ/mol (Crystal); method: Drop calorimetry
Temperature, K	Molar enthalpy, kJ/mol	uncertainty
523	212.435	6.373
573	260.055	7.802
623	326.415	9.792
673	360.905	10.827
723	413.564	12.407
773	476.311	14.289
823	520.55	15.617
873	591.356	17.741
923	634.147	19.024
973	662.739	19.882
1023	737.63	22.129
1073	763.945	22.918
1123	844.171	25.325
1173	920.482	27.614
1223	985.238	29.557
1273	1009.475	30.284
1323	1041.166	31.235
1373	1109.001	33.27
1423	1207.261	36.218

System: barium chloroapatite; phases: Crystal
Fixed: Pressure, kPa = 101.325
Property: Molar heat capacity at constant pressure, J/K/mol (Crystal); method: Drop calorimetry
Temperature, K	Molar heat capacity at constant pressure, J/K/mol	uncertainty
298	788	24
300	792	24
400	930	28
500	995	30
600	1031	31
700	1054	32
800	1070	32
900	1081	32
1000	1090	33
1100	1097	33
1200	1103	33
1300	1109	33
1400	1113	33
1500	1117	34
