Measured thermophysical data. Calibration of a low temperature calorimeter and application in the determination ofisobaric heat capacity of 2-propanol
Source: Thermochim. Acta, 2010, 10.1016/j.tca.2010.05.012
Compound 1: propan-2-ol, C3H8O, InChI=1S/C3H8O/c1-3(2)4/h3-4H,1-2H3

System: propan-2-ol; phases: Liquid
Property: Molar heat capacity at constant pressure, J/K/mol (Liquid); method: Large sample (1 g) DSC
Temperature, K	Pressure, kPa	Molar heat capacity at constant pressure, J/K/mol	uncertainty
253.15	100	129.4	3.2
253.15	20000	126.1	3.1
253.15	40000	125.8	3.1
258.15	100	130.6	3.2
258.15	20000	128.3	3.1
258.15	40000	127.3	3.1
263.15	100	132.6	3.2
263.15	20000	130.7	3.2
263.15	40000	129.2	3.2
268.15	100	135	3.3
268.15	20000	133.4	3.3
268.15	40000	131.5	3.2
273.15	100	138	3.4
273.15	20000	136.3	3.3
273.15	40000	134	3.3
278.15	100	141.4	3.5
278.15	20000	139.4	3.4
278.15	40000	136.8	3.4
283.15	100	145.1	3.6
283.15	20000	142.6	3.5
283.15	40000	140	3.4
288.15	100	148.9	3.6
288.15	20000	146	3.6
288.15	40000	143.3	3.5
293.15	100	152.9	3.7
293.15	20000	149.6	3.7
293.15	40000	146.9	3.6
298.15	100	157	3.8
298.15	20000	153.3	3.8
298.15	40000	150.7	3.7
303.15	100	161.1	3.9
303.15	20000	157.1	3.8
303.15	40000	154.7	3.8
308.15	100	165	4
308.15	20000	161.1	3.9
308.15	40000	159	3.9
313.15	100	168.6	4.1
313.15	20000	165	4
313.15	40000	163.3	4
318.15	100	171.9	4.2
318.15	20000	169.1	4.1
318.15	40000	167.8	4.1
323.15	100	174.9	4.3
323.15	20000	173.2	4.2
323.15	40000	172.4	4.2
