Measured thermophysical data. Thermal stability of Na2CO3-Li2CO3 as a high temperature phase change material for thermal energy storage
Source: Thermochim. Acta, 2017, 10.1016/j.tca.2017.01.002
Compound 1: sodium carbonate, CNa2O3, InChI=1S/CH2O3.2Na/c2-1(3)4;;/h(H2,2,3,4);;/q;2*+1/p-2
Compound 2: lithium carbonate, CLi2O3, InChI=1S/CH2O3.2Li/c2-1(3)4;;/h(H2,2,3,4);;/q;2*+1/p-2

System: sodium carbonate + lithium carbonate; phases: Crystal, Crystal, Liquid, Gas
Property: Eutectic temperature, K (Crystal); method: DTA
Eutectic temperature, K	uncertainty
771.45	0.4

System: sodium carbonate + lithium carbonate; phases: Liquid
Property: Molar enthalpy, kJ/mol (Liquid); method: Small sample (50 mg) DSC
Mass fraction of sodium carbonate	Pressure, kPa	Temperature, K	Molar enthalpy, kJ/mol	uncertainty
0.562	100	771.45	29.4564887686983	1.11307771949434
