Measured thermophysical data. Phase transition in Fe(C11O2H19)3 at 115.25 K
Source: Thermochim. Acta, 2007, 10.1016/j.tca.2007.07.004
Compound 1: iron tris-dipivaloylmethanate, C33H57FeO6, InChI=1S/3C11H19O2.Fe/c3*1-10(2,3)8(12)7-9(13)11(4,5)6;/h3*7H,1-6H3;/q3*-1;+3

System: iron tris-dipivaloylmethanate; phases: Crystal 2, Crystal 1, Gas
Property: Molar enthalpy of transition or fusion, kJ/mol (Crystal 2); method: Adiabatic calorimetry
Molar enthalpy of transition or fusion, kJ/mol	uncertainty
0.663	0.035

System: iron tris-dipivaloylmethanate; phases: Crystal 2, Crystal 1, Gas
Property: Triple point temperature, K (Crystal 2); method: Adiabatic calorimetry
Triple point temperature, K	uncertainty
115.25	0.5

System: iron tris-dipivaloylmethanate; phases: Crystal 1, Liquid, Air at 1 atmosphere
Property: Normal melting temperature, K (Crystal 1); method: VISOBS
Normal melting temperature, K	uncertainty
437	1

System: iron tris-dipivaloylmethanate; phases: Crystal 1
Property: Mass density, kg/m3 (Crystal 1); method: Pycnometric method
Temperature, K	Pressure, kPa	Mass density, kg/m3	uncertainty
293	101.325	1060	6

System: iron tris-dipivaloylmethanate; phases: Crystal 1
Fixed: Pressure, kPa = 101.325
Property: Molar heat capacity at constant pressure, J/K/mol (Crystal 1); method: Vacuum adiabatic calorimetry
Temperature, K	Molar heat capacity at constant pressure, J/K/mol	uncertainty
118.74	484.4	0.69
120.73	475.36	0.68
122.36	473.66	0.67
125.92	473.63	0.67
126.84	475.88	0.68
130.02	482.45	0.68
132.74	489.11	0.69
133.19	489.57	0.69
138.32	503.69	0.71
143.72	517.66	0.72
148.98	531.92	0.73
154.12	545.91	0.75
159.3	560.42	0.76
164.9	575.85	0.78
170.57	592.61	0.79
175.85	604.32	0.81
181.11	619.26	0.82
186.3	630.44	0.83
191.27	644.76	0.85
196.79	658.54	0.86
202.27	670.89	0.87
207.11	683.35	0.88
211.77	692.95	0.89
216.49	705.33	0.91
221.38	715.42	0.92
226.33	727.01	0.93
231.34	738.01	0.94
236.3	747.97	0.95
241.21	758.83	0.96
246.29	769.1	0.97
251.74	783.11	0.98
257.67	796.5	1
264.14	809.77	1.01
270.65	824.16	1.03
274.38	834.45	1.04
277.47	842.17	1.04
277.79	841.35	1.04
282.88	853.43	1.05
284.75	857.03	1.06
288.57	866.69	1.07
291.86	873.77	1.07
294.18	879.1	1.08
299.64	890.12	1.09
300.43	893.87	1.1
305.03	902.2	1.1
310.49	915.56	1.12
316.08	929.02	1.13

System: iron tris-dipivaloylmethanate; phases: Crystal 2
Fixed: Pressure, kPa = 101.325
Property: Molar heat capacity at constant pressure, J/K/mol (Crystal 2); method: Vacuum adiabatic calorimetry
Temperature, K	Molar heat capacity at constant pressure, J/K/mol	uncertainty
57.62	210.66	0.47
61.26	225.01	0.5
64.56	237.69	0.52
67.6	248.9	0.54
70.44	260.38	0.57
73.11	271	0.59
75.64	280.87	0.61
78.06	290.64	0.63
80.55	299.05	0.64
82.6	309.22	0.66
84.72	316.26	0.68
84.75	317.65	0.68
86.41	323.33	0.69
87.16	326.67	0.7
89.09	333.42	0.71
89.7	337.22	0.73
94.11	353.84	0.56
94.16	354.74	0.56
98.42	372.16	0.58
99.26	375.27	0.58
101.67	383.76	0.59
104.47	396.73	0.62
104.81	399.82	0.63
108.22	418.79	0.63
109.75	432.55	0.7
111.82	472.38	0.73
115.01	505.42	0.87
115.25	511.59	0.88
