Measured thermophysical data. Conductometric, refractometric and FT-IR spectroscopic study of [EMIm]NO3, [EMIm]CH3SO3, and [EMIm]OTs in N,N-dimethyl formamide, N,N-dimethyl acetamide and dimethyl sulphoxide
Source: Thermochim. Acta, 2015, 10.1016/j.tca.2014.11.010
Compound 1: 1-ethyl-3-methylimidazolium nitrate, C6H11N3O3, InChI=1S/C6H11N2.NO3/c1-3-8-5-4-7(2)6-8;2-1(3)4/h4-6H,3H2,1-2H3;/q+1;-1, purity 99%
Compound 2: 1-ethyl-3-methylimidazolium methanesulfonate, C7H14N2O3S, InChI=1S/C6H11N2.CH4O3S/c1-3-8-5-4-7(2)6-8;1-5(2,3)4/h4-6H,3H2,1-2H3;1H3,(H,2,3,4)/q+1;/p-1, purity 98%
Compound 3: 1-ethyl-3-methylimidazolium 4-methylbenzenesulfonate, C13H18N2O3S, InChI=1S/C7H8O3S.C6H11N2/c1-6-2-4-7(5-3-6)11(8,9)10;1-3-8-5-4-7(2)6-8/h2-5H,1H3,(H,8,9,10);4-6H,3H2,1-2H3/q;+1/p-1, purity 98%
Compound 4: dimethylformamide, C3H7NO, InChI=1S/C3H7NO/c1-4(2)3-5/h3H,1-2H3, purity 99%
Compound 5: N,N-dimethylethanamide, C4H9NO, InChI=1S/C4H9NO/c1-4(6)5(2)3/h1-3H3, purity 99.5%
Compound 6: dimethyl sulfoxide, C2H6OS, InChI=1S/C2H6OS/c1-4(2)3/h1-2H3, purity 99%

System: dimethylformamide; phases: Liquid
Property: Mass density, kg/m3 (Liquid); method: Vibrating tube method
Temperature, K	Pressure, kPa	Mass density, kg/m3	uncertainty
298.15	101.325	943.7	1

System: dimethylformamide; phases: Liquid
Property: Refractive index (Na D-line) (Liquid); method: Standard Abbe refractometry
Temperature, K	Pressure, kPa	Refractive index (Na D-line)	uncertainty
298.15	101.325	1.4279	0.0005

System: dimethylformamide; phases: Liquid
Property: Viscosity, Pa*s (Liquid); method: Concentric cylinders viscometry
Temperature, K	Pressure, kPa	Viscosity, Pa*s	uncertainty
298.15	101.325	0.00079	2e-05

System: N,N-dimethylethanamide; phases: Liquid
Property: Mass density, kg/m3 (Liquid); method: Vibrating tube method
Temperature, K	Pressure, kPa	Mass density, kg/m3	uncertainty
298.15	101.325	935.9	1

System: N,N-dimethylethanamide; phases: Liquid
Property: Refractive index (Na D-line) (Liquid); method: Standard Abbe refractometry
Temperature, K	Pressure, kPa	Refractive index (Na D-line)	uncertainty
298.15	101.325	1.4351	0.0005

System: N,N-dimethylethanamide; phases: Liquid
Property: Viscosity, Pa*s (Liquid); method: Concentric cylinders viscometry
Temperature, K	Pressure, kPa	Viscosity, Pa*s	uncertainty
298.15	101.325	0.00092	2e-05

System: dimethyl sulfoxide; phases: Liquid
Property: Mass density, kg/m3 (Liquid); method: Vibrating tube method
Temperature, K	Pressure, kPa	Mass density, kg/m3	uncertainty
298.15	101.325	1095.3	1

System: dimethyl sulfoxide; phases: Liquid
Property: Refractive index (Na D-line) (Liquid); method: Standard Abbe refractometry
Temperature, K	Pressure, kPa	Refractive index (Na D-line)	uncertainty
298.15	101.325	1.4773	0.0005

System: dimethyl sulfoxide; phases: Liquid
Property: Viscosity, Pa*s (Liquid); method: Concentric cylinders viscometry
Temperature, K	Pressure, kPa	Viscosity, Pa*s	uncertainty
298.15	101.325	0.00196	4e-05

System: dimethylformamide + 1-ethyl-3-methylimidazolium nitrate; phases: Liquid
Fixed: Pressure, kPa = 101
Fixed: Temperature, K = 298.15
Property: Molar conductivity, S*m2/mol (Liquid); method: Alternating current cell with electrodes
Molality, mol/kg of 1-ethyl-3-methylimidazolium nitrate	Molar conductivity, S*m2/mol	uncertainty
0.001106	0.00862	0.000172
0.002027	0.008431	0.000169
0.002806	0.008301	0.000166
0.003473	0.008198	0.000164
0.004051	0.008124	0.000162
0.004556	0.00808	0.000162
0.005001	0.008027	0.000161
0.005395	0.007974	0.000159
0.005748	0.007941	0.000159
0.006354	0.007879	0.000158
0.006616	0.007854	0.000157
0.007275	0.007779	0.000156
0.007942	0.007708	0.000154
0.008445	0.007671	0.000153
0.009228	0.007611	0.000152

System: dimethylformamide + 1-ethyl-3-methylimidazolium nitrate; phases: Liquid
Property: Mass density, kg/m3 (Liquid); method: Vibrating tube method
Molality, mol/kg of 1-ethyl-3-methylimidazolium nitrate	Pressure, kPa	Temperature, K	Mass density, kg/m3	uncertainty
0.0532	101	298.15	948.6	1

System: dimethylformamide + 1-ethyl-3-methylimidazolium nitrate; phases: Liquid
Property: Refractive index (Na D-line) (Liquid); method: Standard Abbe refractometry
Molality, mol/kg of 1-ethyl-3-methylimidazolium nitrate	Temperature, K	Pressure, kPa	Refractive index (Na D-line)	uncertainty
0.0532	298.15	101	1.431	0.0005

System: dimethylformamide + 1-ethyl-3-methylimidazolium methanesulfonate; phases: Liquid
Fixed: Pressure, kPa = 101
Fixed: Temperature, K = 298.15
Property: Molar conductivity, S*m2/mol (Liquid); method: Alternating current cell with electrodes
Molality, mol/kg of 1-ethyl-3-methylimidazolium methanesulfonate	Molar conductivity, S*m2/mol	uncertainty
0.001035	0.005982	0.00012
0.001898	0.005801	0.000116
0.002628	0.005682	0.000114
0.003251	0.005616	0.000112
0.003793	0.005526	0.000111
0.004265	0.005476	0.00011
0.004682	0.005432	0.000109
0.005384	0.005347	0.000107
0.005682	0.005314	0.000106
0.005952	0.005288	0.000106
0.006627	0.005232	0.000105
0.00699	0.005199	0.000104
0.007568	0.005156	0.000103
0.008105	0.005115	0.000102
0.008578	0.005053	0.000101

System: dimethylformamide + 1-ethyl-3-methylimidazolium methanesulfonate; phases: Liquid
Property: Mass density, kg/m3 (Liquid); method: Vibrating tube method
Molality, mol/kg of 1-ethyl-3-methylimidazolium methanesulfonate	Temperature, K	Pressure, kPa	Mass density, kg/m3	uncertainty
0.0532	298.15	101	950	1

System: dimethylformamide + 1-ethyl-3-methylimidazolium methanesulfonate; phases: Liquid
Property: Refractive index (Na D-line) (Liquid); method: Standard Abbe refractometry
Molality, mol/kg of 1-ethyl-3-methylimidazolium methanesulfonate	Temperature, K	Pressure, kPa	Refractive index (Na D-line)	uncertainty
0.0532	298.15	101	1.4318	0.0005

System: dimethylformamide + 1-ethyl-3-methylimidazolium 4-methylbenzenesulfonate; phases: Liquid
Fixed: Pressure, kPa = 101
Fixed: Temperature, K = 298.15
Property: Molar conductivity, S*m2/mol (Liquid); method: Alternating current cell with electrodes
Molality, mol/kg of 1-ethyl-3-methylimidazolium 4-methylbenzenesulfonate	Molar conductivity, S*m2/mol	uncertainty
0.001039	0.005134	0.000103
0.001906	0.00495	9.9e-05
0.002639	0.004884	9.8e-05
0.003266	0.004802	9.6e-05
0.003809	0.004745	9.5e-05
0.004284	0.004699	9.4e-05
0.004703	0.004643	9.3e-05
0.005074	0.004592	9.2e-05
0.005406	0.004538	9.1e-05
0.005705	0.004515	9e-05
0.006221	0.00444	8.9e-05
0.007017	0.00442	8.8e-05
0.007599	0.00433	8.7e-05
0.008043	0.00427	8.5e-05
0.008543	0.00425	8.5e-05

System: dimethylformamide + 1-ethyl-3-methylimidazolium 4-methylbenzenesulfonate; phases: Liquid
Property: Mass density, kg/m3 (Liquid); method: Vibrating tube method
Molality, mol/kg of 1-ethyl-3-methylimidazolium 4-methylbenzenesulfonate	Temperature, K	Pressure, kPa	Mass density, kg/m3	uncertainty
0.0533	298.15	101	952.4	1

System: dimethylformamide + 1-ethyl-3-methylimidazolium 4-methylbenzenesulfonate; phases: Liquid
Property: Refractive index (Na D-line) (Liquid); method: Standard Abbe refractometry
Molality, mol/kg of 1-ethyl-3-methylimidazolium 4-methylbenzenesulfonate	Temperature, K	Pressure, kPa	Refractive index (Na D-line)	uncertainty
0.0533	298.15	101	1.4323	0.0005

System: N,N-dimethylethanamide + 1-ethyl-3-methylimidazolium nitrate; phases: Liquid
Fixed: Pressure, kPa = 101
Fixed: Temperature, K = 298.15
Property: Molar conductivity, S*m2/mol (Liquid); method: Alternating current cell with electrodes
Molality, mol/kg of 1-ethyl-3-methylimidazolium nitrate	Molar conductivity, S*m2/mol	uncertainty
0.002254	0.004531	9.1e-05
0.00312	0.00444	8.9e-05
0.003863	0.004376	8.8e-05
0.004506	0.004328	8.7e-05
0.005067	0.004277	8.6e-05
0.005563	0.004244	8.5e-05
0.006002	0.004214	8.4e-05
0.006396	0.004185	8.4e-05
0.006749	0.00417	8.3e-05
0.007068	0.004147	8.3e-05
0.007359	0.004127	8.3e-05
0.007869	0.004103	8.2e-05
0.008669	0.004056	8.1e-05
0.009394	0.004023	8e-05
0.010019	0.003983	8e-05

System: N,N-dimethylethanamide + 1-ethyl-3-methylimidazolium nitrate; phases: Liquid
Property: Mass density, kg/m3 (Liquid); method: Vibrating tube method
Molality, mol/kg of 1-ethyl-3-methylimidazolium nitrate	Temperature, K	Pressure, kPa	Mass density, kg/m3	uncertainty
0.0537	298.15	101	940.3	1

System: N,N-dimethylethanamide + 1-ethyl-3-methylimidazolium nitrate; phases: Liquid
Property: Refractive index (Na D-line) (Liquid); method: Standard Abbe refractometry
Molality, mol/kg of 1-ethyl-3-methylimidazolium nitrate	Temperature, K	Pressure, kPa	Refractive index (Na D-line)	uncertainty
0.0537	298.15	101	1.4373	0.0005

System: N,N-dimethylethanamide + 1-ethyl-3-methylimidazolium methanesulfonate; phases: Liquid
Fixed: Pressure, kPa = 101
Fixed: Temperature, K = 298.15
Property: Molar conductivity, S*m2/mol (Liquid); method: Alternating current cell with electrodes
Molality, mol/kg of 1-ethyl-3-methylimidazolium methanesulfonate	Molar conductivity, S*m2/mol	uncertainty
0.001207	0.003841	7.7e-05
0.002214	0.003639	7.3e-05
0.003065	0.003591	7.2e-05
0.003794	0.00352	7e-05
0.004426	0.003451	6.9e-05
0.004977	0.003411	6.8e-05
0.005464	0.003399	6.8e-05
0.005896	0.003349	6.7e-05
0.006631	0.003298	6.6e-05
0.007496	0.003245	6.5e-05
0.008159	0.003216	6.4e-05
0.008838	0.003174	6.3e-05
0.009572	0.003141	6.3e-05
0.010167	0.003113	6.2e-05
0.010646	0.003082	6.2e-05

System: N,N-dimethylethanamide + 1-ethyl-3-methylimidazolium methanesulfonate; phases: Liquid
Property: Mass density, kg/m3 (Liquid); method: Vibrating tube method
Molality, mol/kg of 1-ethyl-3-methylimidazolium methanesulfonate	Temperature, K	Pressure, kPa	Mass density, kg/m3	uncertainty
0.0537	298.15	101	941.5	1

System: N,N-dimethylethanamide + 1-ethyl-3-methylimidazolium methanesulfonate; phases: Liquid
Property: Refractive index (Na D-line) (Liquid); method: Standard Abbe refractometry
Molality, mol/kg of 1-ethyl-3-methylimidazolium methanesulfonate	Temperature, K	Pressure, kPa	Refractive index (Na D-line)	uncertainty
0.0537	298.15	101	1.4386	0.0005

System: N,N-dimethylethanamide + 1-ethyl-3-methylimidazolium 4-methylbenzenesulfonate; phases: Liquid
Fixed: Pressure, kPa = 101
Fixed: Temperature, K = 298.15
Property: Molar conductivity, S*m2/mol (Liquid); method: Alternating current cell with electrodes
Molality, mol/kg of 1-ethyl-3-methylimidazolium 4-methylbenzenesulfonate	Molar conductivity, S*m2/mol	uncertainty
0.001103	0.00373	7.5e-05
0.002022	0.00356	7.1e-05
0.002799	0.003473	6.9e-05
0.003465	0.003391	6.8e-05
0.004042	0.003356	6.7e-05
0.004548	0.003288	6.6e-05
0.004992	0.003251	6.5e-05
0.005741	0.003235	6.5e-05
0.006347	0.003178	6.4e-05
0.006848	0.003132	6.3e-05
0.007627	0.003106	6.2e-05
0.008204	0.003069	6.1e-05
0.008837	0.00303	6.1e-05
0.009413	0.003012	6e-05
0.009815	0.002985	6e-05

System: N,N-dimethylethanamide + 1-ethyl-3-methylimidazolium 4-methylbenzenesulfonate; phases: Liquid
Property: Mass density, kg/m3 (Liquid); method: Vibrating tube method
Molality, mol/kg of 1-ethyl-3-methylimidazolium 4-methylbenzenesulfonate	Temperature, K	Pressure, kPa	Mass density, kg/m3	uncertainty
0.0538	298.15	101	943.3	1

System: N,N-dimethylethanamide + 1-ethyl-3-methylimidazolium 4-methylbenzenesulfonate; phases: Liquid
Property: Refractive index (Na D-line) (Liquid); method: Standard Abbe refractometry
Molality, mol/kg of 1-ethyl-3-methylimidazolium 4-methylbenzenesulfonate	Temperature, K	Pressure, kPa	Refractive index (Na D-line)	uncertainty
0.0538	298.15	101	1.4391	0.0005

System: dimethyl sulfoxide + 1-ethyl-3-methylimidazolium nitrate; phases: Liquid
Fixed: Pressure, kPa = 101
Fixed: Temperature, K = 298.15
Property: Molar conductivity, S*m2/mol (Liquid); method: Alternating current cell with electrodes
Molality, mol/kg of 1-ethyl-3-methylimidazolium nitrate	Molar conductivity, S*m2/mol	uncertainty
0.00187	0.003666	7.3e-05
0.002683	0.00357	7.1e-05
0.003427	0.003506	7e-05
0.004745	0.003406	6.8e-05
0.005874	0.003326	6.7e-05
0.006852	0.003258	6.5e-05
0.007707	0.003206	6.4e-05
0.00846	0.00316	6.3e-05
0.009129	0.003126	6.3e-05
0.009435	0.003116	6.2e-05
0.009724	0.003101	6.2e-05
0.010513	0.003046	6.1e-05
0.011192	0.003016	6e-05
0.011966	0.002981	6e-05
0.012619	0.002962	5.9e-05

System: dimethyl sulfoxide + 1-ethyl-3-methylimidazolium nitrate; phases: Liquid
Property: Mass density, kg/m3 (Liquid); method: Vibrating tube method
Molality, mol/kg of 1-ethyl-3-methylimidazolium nitrate	Temperature, K	Pressure, kPa	Mass density, kg/m3	uncertainty
0.0459	298.15	101	1096.8	1

System: dimethyl sulfoxide + 1-ethyl-3-methylimidazolium nitrate; phases: Liquid
Property: Refractive index (Na D-line) (Liquid); method: Standard Abbe refractometry
Molality, mol/kg of 1-ethyl-3-methylimidazolium nitrate	Temperature, K	Pressure, kPa	Refractive index (Na D-line)	uncertainty
0.0459	298.15	101	1.5257	0.0005

System: dimethyl sulfoxide + 1-ethyl-3-methylimidazolium methanesulfonate; phases: Liquid
Fixed: Pressure, kPa = 101
Fixed: Temperature, K = 298.15
Property: Molar conductivity, S*m2/mol (Liquid); method: Alternating current cell with electrodes
Molality, mol/kg of 1-ethyl-3-methylimidazolium methanesulfonate	Molar conductivity, S*m2/mol	uncertainty
0.001892	0.002969	5.9e-05
0.003467	0.00275	5.5e-05
0.004802	0.00259	5.2e-05
0.005944	0.00253	5.1e-05
0.006934	0.00242	4.8e-05
0.007799	0.00235	4.7e-05
0.008563	0.00232	4.6e-05
0.00924	0.00229	4.6e-05
0.009847	0.00224	4.5e-05
0.010392	0.002194	4.4e-05
0.010883	0.002187	4.4e-05
0.011333	0.00214	4.3e-05
0.01174	0.00212	4.2e-05
0.012109	0.00212	4.2e-05
0.012771	0.00208	4.2e-05

System: dimethyl sulfoxide + 1-ethyl-3-methylimidazolium methanesulfonate; phases: Liquid
Property: Mass density, kg/m3 (Liquid); method: Vibrating tube method
Molality, mol/kg of 1-ethyl-3-methylimidazolium methanesulfonate	Temperature, K	Pressure, kPa	Mass density, kg/m3	uncertainty
0.046	298.15	101	1097.8	1

System: dimethyl sulfoxide + 1-ethyl-3-methylimidazolium methanesulfonate; phases: Liquid
Property: Refractive index (Na D-line) (Liquid); method: Standard Abbe refractometry
Molality, mol/kg of 1-ethyl-3-methylimidazolium methanesulfonate	Temperature, K	Pressure, kPa	Refractive index (Na D-line)	uncertainty
0.046	298.15	101	1.5385	0.0005

System: dimethyl sulfoxide + 1-ethyl-3-methylimidazolium 4-methylbenzenesulfonate; phases: Liquid
Fixed: Pressure, kPa = 101
Fixed: Temperature, K = 298.15
Property: Molar conductivity, S*m2/mol (Liquid); method: Alternating current cell with electrodes
Molality, mol/kg of 1-ethyl-3-methylimidazolium 4-methylbenzenesulfonate	Molar conductivity, S*m2/mol	uncertainty
0.001921	0.002402	4.8e-05
0.003523	0.002183	4.4e-05
0.004878	0.002053	4.1e-05
0.006039	0.001963	3.9e-05
0.007045	0.001853	3.7e-05
0.007925	0.001783	3.6e-05
0.008701	0.001753	3.5e-05
0.009391	0.001723	3.4e-05
0.010009	0.001673	3.3e-05
0.010562	0.001627	3.3e-05
0.011062	0.00162	3.2e-05
0.011516	0.001573	3.1e-05
0.01231	0.001553	3.1e-05
0.012984	0.001493	3e-05
0.013558	0.001463	2.9e-05

System: dimethyl sulfoxide + 1-ethyl-3-methylimidazolium 4-methylbenzenesulfonate; phases: Liquid
Property: Mass density, kg/m3 (Liquid); method: Vibrating tube method
Molality, mol/kg of 1-ethyl-3-methylimidazolium 4-methylbenzenesulfonate	Temperature, K	Pressure, kPa	Mass density, kg/m3	uncertainty
0.0461	298.15	101	1098.4	1

System: dimethyl sulfoxide + 1-ethyl-3-methylimidazolium 4-methylbenzenesulfonate; phases: Liquid
Property: Refractive index (Na D-line) (Liquid); method: Standard Abbe refractometry
Molality, mol/kg of 1-ethyl-3-methylimidazolium 4-methylbenzenesulfonate	Temperature, K	Pressure, kPa	Refractive index (Na D-line)	uncertainty
0.0461	298.15	101	1.539	0.0005
