Measured thermophysical data. Thermal transport properties of heptane-isooctane mixtures
Source: Thermochim. Acta, 2018, 10.1016/j.tca.2018.07.003
Compound 1: heptane, C7H16, InChI=1S/C7H16/c1-3-5-7-6-4-2/h3-7H2,1-2H3, purity 99%
Compound 2: 2,2,4-trimethylpentane, C8H18, InChI=1S/C8H18/c1-7(2)6-8(3,4)5/h7H,6H2,1-5H3, purity 99%
Compound 3: water, H2O, InChI=1S/H2O/h1H2
Compound 4: glycerol, C3H8O3, InChI=1S/C3H8O3/c4-1-3(6)2-5/h3-6H,1-2H2, purity 99.9%
Compound 5: 1,2-ethanediol, C2H6O2, InChI=1S/C2H6O2/c3-1-2-4/h3-4H,1-2H2, purity 99.9%
Compound 6: methanol, CH4O, InChI=1S/CH4O/c1-2/h2H,1H3, purity 99.9%

System: heptane; phases: Liquid
Property: Thermal conductivity, W/m/K (Liquid); method: THOTW
Pressure, kPa	Temperature, K	Thermal conductivity, W/m/K	uncertainty
77	295	0.119	0.004

System: 2,2,4-trimethylpentane; phases: Liquid
Property: Thermal conductivity, W/m/K (Liquid); method: THOTW
Pressure, kPa	Temperature, K	Thermal conductivity, W/m/K	uncertainty
77	295	0.096	0.004

System: water; phases: Liquid
Property: Thermal conductivity, W/m/K (Liquid); method: THOTW
Pressure, kPa	Temperature, K	Thermal conductivity, W/m/K	uncertainty
77	295	0.6	0.02

System: glycerol; phases: Liquid
Property: Thermal conductivity, W/m/K (Liquid); method: THOTW
Pressure, kPa	Temperature, K	Thermal conductivity, W/m/K	uncertainty
77	295	0.289	0.01

System: 1,2-ethanediol; phases: Liquid
Property: Thermal conductivity, W/m/K (Liquid); method: THOTW
Pressure, kPa	Temperature, K	Thermal conductivity, W/m/K	uncertainty
77	295	0.254	0.01

System: methanol; phases: Liquid
Property: Thermal conductivity, W/m/K (Liquid); method: THOTW
Pressure, kPa	Temperature, K	Thermal conductivity, W/m/K	uncertainty
77	295	0.208	0.008

System: heptane + 2,2,4-trimethylpentane; phases: Liquid
Fixed: Pressure, kPa = 77
Fixed: Temperature, K = 295
Property: Thermal conductivity, W/m/K (Liquid); method: THOTW
Mass fraction of 2,2,4-trimethylpentane	Thermal conductivity, W/m/K	uncertainty
0	0.119	0.004
0.2	0.116	0.004
0.4	0.113	0.004
0.6	0.107	0.004
0.8	0.104	0.004
1	0.096	0.004

System: heptane + 2,2,4-trimethylpentane; phases: Liquid
Fixed: Pressure, kPa = 77
Fixed: Temperature, K = 295
Property: Heat capacity at constant pressure per volume, J/K/m3 (Liquid); method: From thermal conductivity and thermal effusivity measured separately
Mass fraction of 2,2,4-trimethylpentane	Heat capacity at constant pressure per volume, J/K/m3	uncertainty
0	1480000	100000
0.2	1390000	90000
0.4	1310000	90000
0.6	1310000	80000
0.8	1290000	80000
1	1340000	90000
