Measured thermophysical data. Experimental evaluation and thermodynamic assessment of the LiF LuF3  phase diagram
Source: Thermochim. Acta, 2013, 10.1016/j.tca.2012.11.015
Compound 1: lutetium(III) fluoride, F3Lu, InChI=1S/3FH.Lu/h3*1H;/q;;;+3/p-3
Compound 2: lithium lutetium fluoride, F4LiLu, InChI=1S/4FH.Li.Lu/h4*1H;;/q;;;;+1;+3/p-4, purity 99%

System: lutetium(III) fluoride; phases: Crystal
Fixed: Pressure, kPa = 101.325
Property: Molar heat capacity at constant pressure, J/K/mol (Crystal); method: Small sample (50 mg) DSC
Temperature, K	Molar heat capacity at constant pressure, J/K/mol	uncertainty
399.7	96.75	1.94
405.1	97.02	1.94
410.5	95.88	1.92
415.8	95.29	1.91
421.1	96.94	1.94
426.3	97.01	1.94
431.5	96.43	1.93
436.7	96.58	1.93
441.9	96.64	1.93
447.1	96.86	1.94
452.2	96.8	1.94
457.3	96.65	1.93
462.5	95.51	1.91
467.6	96.35	1.93
472.6	96.98	1.94
477.7	97.09	1.94
482.8	97.11	1.94
487.8	97.26	1.95
492.9	97.48	1.95
497.9	97.58	1.95
502.9	97.68	1.95
508	97.97	1.96
513	98.13	1.96
518	98.36	1.97
523	98.49	1.97
528	98.56	1.97
533.1	98.68	1.97
538.1	98.84	1.98
543.1	98.87	1.98
548.1	99.13	1.98
553.1	99.24	1.98
558.1	99.48	1.99
563.1	99.09	1.98
568.1	99.13	1.98
573.1	99.33	1.99
578.1	99.5	1.99
583.1	99.58	1.99
588	99.58	1.99
593	99.6	1.99
598	99.71	1.99
603	99.98	2
608	100.29	2.01
613	100.45	2.01
618	100.4	2.01
623	100.24	2
627.9	100.69	2.01
632.9	101.13	2.02
637.9	100.84	2.02
642.9	101.01	2.02
647.9	101.38	2.03
652.9	101.53	2.03
657.9	101.67	2.03
662.8	101.64	2.03
667.8	101.51	2.03
672.8	101.61	2.03
677.8	101.89	2.04
682.8	102.02	2.04
687.8	102.07	2.04
692.8	102.12	2.04
697.7	102.26	2.05
702.7	102.44	2.05
707.7	102.41	2.05
712.7	102.81	2.06
717.7	102.66	2.05
722.7	102.97	2.06
727.6	102.82	2.06
732.6	104.53	2.09
737.6	104.75	2.1
742.6	104.55	2.09
747.6	104.86	2.1
752.6	105.12	2.1
757.6	104.68	2.09
762.6	103.97	2.08
767.5	102.8	2.06
772.5	103.35	2.07
777.5	103.53	2.07
782.5	103	2.06
787.5	103.29	2.07
792.5	103.69	2.07
797.5	103.87	2.08
802.4	103.76	2.08
807.4	104.24	2.08
812.4	103.94	2.08
817.4	104.08	2.08
822.4	104.49	2.09
827.4	104.53	2.09
832.4	104.46	2.09
837.4	104.64	2.09
842.3	104.66	2.09
847.3	104.56	2.09
852.3	104.93	2.1
857.3	104.87	2.1
862.3	104.94	2.1
867.3	105.55	2.11
872.3	105.31	2.11
877.3	105.62	2.11
882.2	105.71	2.11
887.2	105.77	2.12
892.2	105.39	2.11
897.2	105.26	2.11
902.2	105.24	2.1
907.2	105.2	2.1
912.2	105.01	2.1
917.2	103.22	2.06
922.2	101.86	2.04
927.1	101.4	2.03
932.1	101.32	2.03
937.1	102.01	2.04
942.1	103.86	2.08
947.1	104.24	2.08
952.1	104.41	2.09
957.1	104.36	2.09
962.1	105.18	2.1
967.1	105.18	2.1
972.1	104.61	2.09
977	104.97	2.1
982	105.26	2.11
987	104.58	2.09
992	104.27	2.09
997	104.7	2.09
1002	104.37	2.09
1007	105.57	2.11
1012	107.7	2.15
1017	107.28	2.15
1022	106.62	2.13
1027	106.36	2.13
1031.9	106.14	2.12
1036.9	106.21	2.12
1041.9	106.18	2.12
1046.9	106.45	2.13
1051.9	105.23	2.1
1056.9	104.62	2.09
1061.9	103.86	2.08
1066.9	102.81	2.06
1071.9	104.66	2.09
1076.9	107.09	2.14
1081.9	107.68	2.15
1086.9	108.09	2.16
1091.9	108.21	2.16
1096.9	108.47	2.17
1101.9	108.65	2.17
1106.9	108.92	2.18
1111.9	108.53	2.17
1116.9	109.02	2.18
1121.9	108.84	2.18
1126.9	109.6	2.19
1131.9	109.55	2.19
1136.9	109.42	2.19
1141.8	108.84	2.18
1146.8	109.13	2.18
1151.8	109.39	2.19
1156.8	108.91	2.18
1161.8	108.91	2.18
1166.8	109.26	2.19
1171.8	109.47	2.19
1176.8	109.96	2.2
1181.8	108.7	2.17
1186.8	107.48	2.15
1191.8	106.02	2.12
1196.8	104.98	2.1
1201.8	104.23	2.08
1206.8	104.19	2.08
1211.8	107.96	2.16

System: lithium lutetium fluoride; phases: Crystal
Fixed: Pressure, kPa = 101.325
Property: Molar heat capacity at constant pressure, J/K/mol (Crystal); method: Small sample (50 mg) DSC
Temperature, K	Molar heat capacity at constant pressure, J/K/mol	uncertainty
319.1	130.85	2.62
320.6	131.02	2.62
322.3	131.32	2.63
324.2	132.25	2.65
326.3	132.67	2.65
328.5	133	2.66
330.9	133.72	2.67
333.4	133.98	2.68
336	134.52	2.69
338.8	134.79	2.7
341.6	135.17	2.7
344.6	135.52	2.71
347.6	135.82	2.72
350.6	136.23	2.72
353.7	136.42	2.73
356.9	136.86	2.74
360.1	137.1	2.74
363.4	137.35	2.75
366.6	137.71	2.75
369.9	138.05	2.76
373.2	138.18	2.76
376.4	138.33	2.77
379.7	138.6	2.77
382.9	138.79	2.78
386.1	139.07	2.78
389.3	139.36	2.79
392.5	139.51	2.79
395.7	139.75	2.8
398.8	140.02	2.8
401.9	140.28	2.81
405	140.35	2.81
408.1	140.55	2.81
411.1	140.85	2.82
414.1	141	2.82
417.1	141.21	2.82
420.1	141.55	2.83
423.1	141.68	2.83
426	141.88	2.84
428.9	142.09	2.84
431.8	142.34	2.85
434.6	142.51	2.85
437.4	142.74	2.85
440.3	142.93	2.86
443.1	143.15	2.86
445.8	143.38	2.87
448.6	143.52	2.87
451.3	143.71	2.87
454.1	144.09	2.88
456.8	144.11	2.88
459.5	144.4	2.89
462.2	144.65	2.89
464.9	144.87	2.9
467.6	145.03	2.9
470.3	145.2	2.9
473	145.33	2.91
475.6	145.69	2.91
478.3	146.04	2.92
480.9	146.21	2.92
483.5	146.26	2.93
486.2	146.62	2.93
488.8	146.64	2.93
491.4	146.9	2.94
494	147.09	2.94
496.6	147.19	2.94
499.2	147.37	2.95
501.8	147.62	2.95
504.4	147.87	2.96
506.9	148.03	2.96
509.5	148.01	2.96
512.1	148.31	2.97
514.7	148.51	2.97
517.2	148.78	2.98
519.8	148.72	2.97
522.4	148.99	2.98
524.9	149.11	2.98
527.5	149.23	2.98
530	149.4	2.99
532.6	149.69	2.99
535.1	149.98	3
537.6	150.02	3
540.2	150.02	3
542.7	150.2	3
545.2	150.41	3.01
547.8	150.44	3.01
550.3	150.65	3.01
552.8	150.77	3.02
555.4	150.97	3.02
557.9	151.21	3.02
560.4	151.31	3.03
562.9	151.22	3.02
565.4	151.35	3.03
567.9	151.77	3.04
570.4	152.1	3.04
572.9	151.97	3.04
575.4	152.01	3.04
577.9	152.43	3.05
580.4	152.52	3.05
582.9	152.55	3.05
585.4	152.99	3.06
587.9	153.06	3.06
590.4	153.4	3.07
592.8	153.37	3.07
595.3	153.54	3.07
597.8	153.59	3.07
600.3	153.68	3.07
602.8	153.91	3.08
605.3	153.92	3.08
607.7	153.98	3.08
610.2	154.22	3.08
612.7	154.27	3.09
615.2	154.37	3.09
617.6	154.5	3.09
620.1	154.88	3.1
622.6	154.95	3.1
625.1	154.9	3.1
627.5	155.19	3.1
630	155.25	3.11
632.5	155.38	3.11
634.9	155.28	3.11
637.4	155.32	3.11
639.9	155.57	3.11
642.3	155.79	3.12
644.8	156.13	3.12
647.3	155.71	3.11
649.7	156.15	3.12
652.2	156.38	3.13
654.7	156.1	3.12
657.1	156.18	3.12
659.6	156.74	3.13
662.1	156.82	3.14
664.5	156.91	3.14
667	157.05	3.14
669.5	157.26	3.15
671.9	157.26	3.15
674.4	157.34	3.15
676.9	157.51	3.15
679.3	157.82	3.16
681.8	157.78	3.16
684.3	157.7	3.15
686.7	157.84	3.16
689.2	158.11	3.16
691.6	158.21	3.16
694.1	158.28	3.17
696.6	158.3	3.17
699	158.66	3.17
701.5	158.32	3.17
704	158.88	3.18
706.4	158.86	3.18
708.9	158.73	3.17
711.3	159.06	3.18
713.8	159.12	3.18
716.3	159.23	3.18
718.7	159.5	3.19
721.2	159.17	3.18
723.7	159.42	3.19
726.1	159.52	3.19
728.6	159.81	3.2
731	159.67	3.19
733.5	159.82	3.2
736	160.19	3.2
738.4	160.21	3.2
740.9	159.84	3.2
743.4	160.74	3.21
745.8	160.23	3.2
748.3	160.71	3.21
750.8	160.51	3.21
753.2	160.71	3.21
755.7	160.47	3.21
758.1	161.09	3.22
760.6	160.99	3.22
763.1	161.08	3.22
765.5	161.21	3.22
768	161.19	3.22
770.5	161.33	3.23
773	161.68	3.23
775.4	161.44	3.23
777.9	161.42	3.23
780.4	161.69	3.23
782.8	161.76	3.24
785.3	161.68	3.23
787.8	161.79	3.24
790.2	161.81	3.24
792.7	161.94	3.24
795.2	162.55	3.25
797.7	162.37	3.25
800.1	162.27	3.25
802.6	162.36	3.25
805.1	162.55	3.25
807.5	162.68	3.25
810	162.67	3.25
812.5	162.66	3.25
815	162.95	3.26
817.4	162.84	3.26
819.9	162.94	3.26
822.4	163.1	3.26
824.9	163.41	3.27
827.3	163.19	3.26
829.8	163.53	3.27
832.3	163.61	3.27
834.8	163.59	3.27
837.3	163.47	3.27
839.8	163.45	3.27
842.2	163.53	3.27
844.7	163.85	3.28
847.2	163.88	3.28
849.6	163.86	3.28
852.1	163.85	3.28
854.6	163.88	3.28
857.1	163.9	3.28
859.6	164.11	3.28
862.1	164.25	3.29
864.6	164.33	3.29
867	164.11	3.28
869.5	164.63	3.29
872	164.68	3.29
874.5	164.55	3.29
877	164.67	3.29
879.5	164.73	3.29
881.9	165.01	3.3
884.4	164.63	3.29
886.9	165.15	3.3
889.4	164.71	3.29
891.9	164.79	3.3
894.4	164.9	3.3
896.9	165	3.3
899.4	165.27	3.31
901.8	165.61	3.31
904.3	165.53	3.31
906.8	165.9	3.32
909.3	165.68	3.31
911.8	166.05	3.32
914.3	165.94	3.32
916.8	165.71	3.31
919.3	165.93	3.32
921.7	165.89	3.32
924.2	166.2	3.32
926.7	166.37	3.33
929.2	166.53	3.33
931.7	166.66	3.33
934.2	166.07	3.32
936.7	166.68	3.33
939.2	167.32	3.35
941.7	167.41	3.35
944.2	167.52	3.35
946.7	167.43	3.35
949.2	167.53	3.35
951.7	167.51	3.35
