Measured thermophysical data. Thermal conductivity enhancement of lauric acid phase change nanocomposite in solid and liquid state with single-walled carbon nanohorn inclusions
Source: Thermochim. Acta, 2015, 10.1016/j.tca.2014.12.004
Compound 1: dodecanoic acid, C12H24O2, InChI=1S/C12H24O2/c1-2-3-4-5-6-7-8-9-10-11-12(13)14/h2-11H2,1H3,(H,13,14)

System: dodecanoic acid; phases: Crystal, Liquid, Air at 1 atmosphere
Property: Normal melting temperature, K (Crystal); method: DTA:corrimp
Normal melting temperature, K	uncertainty
315.95	5

System: dodecanoic acid; phases: Crystal, Liquid, Air at 1 atmosphere
Property: Molar enthalpy of transition or fusion, kJ/mol (Crystal); method: DSC
Molar enthalpy of transition or fusion, kJ/mol	uncertainty
31.65020608	2.60413088

System: dodecanoic acid; phases: Crystal
Fixed: Pressure, kPa = 101.325
Property: Thermal conductivity, W/m/K (Crystal); method: HOTW:UFactor:4
Temperature, K	Thermal conductivity, W/m/K	uncertainty
303.15	0.216	0.016
308.15	0.218	0.016
313.15	0.208	0.015

System: dodecanoic acid; phases: Liquid
Fixed: Pressure, kPa = 101.325
Property: Thermal conductivity, W/m/K (Liquid); method: HOTW:UFactor:4
Temperature, K	Thermal conductivity, W/m/K	uncertainty
323.15	0.14	0.01
333.15	0.14	0.01
