Measured thermophysical data. THE STANDARD ENTHALPIES OF FORMATION OF  PROLINE ISOMERS
Source: Thermochim. Acta, 2012, 10.1016/j.tca.2012.02.035
Compound 1: carbon dioxide, CO2, InChI=1S/CO2/c2-1-3
Compound 2: nitrogen, N2, InChI=1S/N2/c1-2
Compound 3: water, H2O, InChI=1S/H2O/h1H2
Compound 4: oxygen, O2, InChI=1S/O2/c1-2
Compound 5: D-proline, C5H9NO2, InChI=1S/C5H9NO2/c7-5(8)4-2-1-3-6-4/h4,6H,1-3H2,(H,7,8)/t4-/m1/s1, purity 99%
Compound 6: DL-proline, C5H9NO2, InChI=1S/C5H9NO2/c7-5(8)4-2-1-3-6-4/h4,6H,1-3H2,(H,7,8), purity 98%
Compound 7: L-proline, C5H9NO2, InChI=1S/C5H9NO2/c7-5(8)4-2-1-3-6-4/h4,6H,1-3H2,(H,7,8)/t4-/m0/s1, purity 99.5%

Reaction: -1 D-proline + 5 carbon dioxide + .5 nitrogen + 4.5 water + -6.25 oxygen
Property: Molar internal energy of reaction at constant volume, kJ/mol
-2726.2

Reaction: -1 DL-proline + 5 carbon dioxide + .5 nitrogen + 4.5 water + -6.25 oxygen
Property: Molar internal energy of reaction at constant volume, kJ/mol
-2729.3

Reaction: -1 L-proline + 5 carbon dioxide + .5 nitrogen + 4.5 water + -6.25 oxygen
Property: Molar internal energy of reaction at constant volume, kJ/mol
-2725.3
