Measured thermophysical data. Enthalpies of solution of paracetamol and sodium diclofenac in phosphate buffer and in DMSO at 298.15K
Source: Thermochim. Acta, 2006, 10.1016/j.tca.2005.11.031
Compound 1: dimethyl sulfoxide, C2H6OS, InChI=1S/C2H6OS/c1-4(2)3/h1-2H3
Compound 2: N-acetyl-p-aminophenol, C8H9NO2, InChI=1S/C8H9NO2/c1-6(10)9-7-2-4-8(11)5-3-7/h2-5,11H,1H3,(H,9,10)
Compound 3: sodium diclofenac, C14H10Cl2NNaO2, InChI=1S/C14H11Cl2NO2.Na/c15-10-5-3-6-11(16)14(10)17-12-7-2-1-4-9(12)8-13(18)19;/h1-7,17H,8H2,(H,18,19);/q;+1/p-1

System: dimethyl sulfoxide + N-acetyl-p-aminophenol; phases: Liquid
Property: Molar enthalpy of solution, kJ/mol (Liquid); method: Calvet calorimetry
Mole fraction of N-acetyl-p-aminophenol	Temperature, K	Pressure, kPa	Molar enthalpy of solution, kJ/mol	uncertainty
0	298.15	101	1.89	0.14

System: dimethyl sulfoxide + sodium diclofenac; phases: Liquid
Property: Molar enthalpy of solution, kJ/mol (Liquid); method: Calvet calorimetry
Mole fraction of sodium diclofenac	Temperature, K	Pressure, kPa	Molar enthalpy of solution, kJ/mol	uncertainty
0	298.15	101	2.7	0.4
