Measured thermophysical data. Recommended values for the betaSn solidus line in Sn-Bi alloys
Source: Thermochim. Acta, 2017, 10.1016/j.tca.2017.05.009
Compound 1: bismuth, Bi, InChI=1S/Bi, purity 99.99%
Compound 2: tin, Sn, InChI=1S/Sn, purity 99.95%

System: tin; phases: Crystal, Liquid, Air at 1 atmosphere
Property: Normal melting temperature, K (Crystal); method: DTA
Normal melting temperature, K	uncertainty
505.05	2

System: bismuth + tin; phases: Crystal, Crystal, Liquid, Air at 1 atmosphere
Property: Eutectic temperature, K (Crystal); method: DTA
Eutectic temperature, K	uncertainty
411.65	0.5

System: bismuth + tin; phases: Liquid, Crystal
Fixed: Pressure, kPa = 103
Property: Solid-liquid equilibrium temperature, K (Liquid); method: DTA
Mass fraction of bismuth	Solid-liquid equilibrium temperature, K	uncertainty
0	505.05	2
0.015	503.95	2
0.02	502.95	2
0.041	501.45	2
0.049	500.45	2
0.082	495.65	2
0.142	487.05	2
0.175	483.95	2
0.196	478.95	2
0.211	477.45	2
0.25	473.55	2

System: bismuth + tin; phases: Crystal, Liquid
Fixed: Pressure, kPa = 103
Property: Solid-liquid equilibrium temperature, K (Crystal); method: DTA
Mass fraction of bismuth	Solid-liquid equilibrium temperature, K	uncertainty
0.015	497.15	2.6
0.02	494.65	2.6
0.041	485.65	2.6
0.049	482.15	2.6
0.082	467.15	2.6
0.142	439.65	2.6
0.175	425.15	2.6
