Measured thermophysical data. Heat capacity, enthalpy and entropy of strontium niobate Sr2Nb2O7 and calcium niobate Ca2Nb2O7
Source: Thermochim. Acta, 2008, 10.1016/j.tca.2008.06.010
Compound 1: niobium strontium oxide (Nb2Sr2O7), Nb2O7Sr2, InChI=1S/2Nb.7O.2Sr/q2*+5;7*-2;2*+2
Compound 2: niobium calcium oxide (Nb2Ca2O7), Ca2Nb2O7, InChI=1S/2Ca.2Nb.7O/q2*+2;2*+5;7*-2

System: niobium strontium oxide (Nb2Sr2O7); phases: Crystal
Property: Mass density, kg/m3 (Crystal); method: X-ray diffraction
Temperature, K	Pressure, kPa	Mass density, kg/m3	uncertainty
293	101.325	5206	9

System: niobium strontium oxide (Nb2Sr2O7); phases: Crystal
Fixed: Pressure, kPa = 101.325
Property: Molar heat capacity at constant pressure, J/K/mol (Crystal); method: Relaxation time
Temperature, K	Molar heat capacity at constant pressure, J/K/mol	uncertainty
2	0.006	0.001
2.1	0.005	0.001
2.2	0.006	0.001
2.4	0.007	0.001
2.5	0.008	0.001
2.7	0.009	0.001
2.9	0.01	0.001
3.1	0.012	0.001
3.2	0.015	0.001
3.5	0.017	0.001
3.7	0.02	0.001
3.9	0.024	0.001
4.2	0.03	0.001
4.4	0.035	0.001
4.7	0.043	0.001
5	0.053	0.001
5.4	0.064	0.002
5.7	0.079	0.002
6.1	0.097	0.002
6.5	0.12	0.01
6.9	0.15	0.01
7.4	0.19	0.01
7.9	0.23	0.01
8.4	0.28	0.01
8.9	0.35	0.01
9.5	0.43	0.01
10.1	0.53	0.01
10.8	0.65	0.01
11.5	0.8	0.02
12.2	0.99	0.02
13	1.21	0.03
13.9	1.48	0.03
14.8	1.82	0.04
15.7	2.2	0.05
16.7	2.69	0.06
17.8	3.28	0.07
19	3.97	0.08
20.2	4.78	0.1
21.5	5.72	0.12
22.9	6.83	0.14
24.3	8.09	0.16
25.9	9.56	0.19
27.6	11.22	0.23
29.3	13.09	0.26
31.2	15.16	0.3
33.3	17.47	0.35
35.4	20.05	0.4
37.7	22.84	0.46
40.2	25.86	0.52
42.7	29.26	0.59
45.5	32.91	0.66
48.4	36.66	0.73
51.6	40.57	0.81
54.9	44.95	0.9
58.4	49.55	0.99
62.2	54.39	1.09
66.2	59.43	1.19
70.4	64.72	1.29
75	70.3	1.41
79.8	76.11	1.52
84.9	82.05	1.64
90.4	88.37	1.77
96.2	95.08	1.9
102.4	101.57	2.03
115.9	115.3	2.31
123.4	122.51	2.45
131.3	129.76	2.6
139.7	137.01	2.74
148.6	144.41	2.89
158.2	152.04	3.04
168.3	158.82	3.18
179	166.7	3.33
190.5	173.8	3.48
201.5	179.2	3.58
203	180.19	3.6
203.6	180.24	3.6
205.7	181.22	3.62
207.7	181.67	3.63
209.7	183.21	3.66
211.7	184.53	3.69
213.8	185.64	3.71
215.8	187.13	3.74
217.8	188.51	3.77
219.8	190.01	3.8
221.8	191.02	3.82
223.8	191.53	3.83
225.9	192.06	3.84
227.9	193.45	3.87
229.9	193.04	3.86
231.9	193.63	3.87
233.9	194.26	3.89
235.9	196.53	3.93
238	196.42	3.93
240	197.53	3.95
242	197.69	3.95
244	197.75	3.96
246.1	198.29	3.97
248.1	200	4
250.1	200.61	4.01
252.1	201.6	4.03
254.1	202.35	4.05
256.1	203.13	4.06
258.1	203.04	4.06
260.2	205.33	4.11
262.2	206.4	4.13
264.2	207.59	4.15
266.2	208.79	4.18
268.2	209.43	4.19
270.2	210.44	4.21
272.2	211.82	4.24
274.3	212.04	4.24
276.3	212.05	4.24
278.3	212.41	4.25
280.3	212.81	4.26
282.3	212.94	4.26
284.3	213.33	4.27
286.3	213.1	4.26
288.3	213.9	4.28
290.4	214.19	4.28
292.4	214.81	4.3
294.4	215.93	4.32
296.4	216.6	4.33
298.4	219.18	4.38
300.4	218.65	4.37

System: niobium strontium oxide (Nb2Sr2O7); phases: Crystal
Fixed: Pressure, kPa = 101.325
Property: Molar heat capacity at constant pressure, J/K/mol (Crystal); method: Small sample (50 mg) DSC
Temperature, K	Molar heat capacity at constant pressure, J/K/mol	uncertainty
298.9	216.7	4.33
309.1	221.26	4.43
319.4	223.58	4.47
329.6	227.03	4.54
339.8	229.65	4.59
350	231.41	4.63
298.9	216.43	4.33
309.1	220.04	4.4
319.4	223.41	4.47
329.6	225.88	4.52
339.8	229.32	4.59
350	231.04	4.62
298.9	216.24	4.32
309.1	220.12	4.4
319.4	223	4.46
329.6	225.41	4.51
339.8	228.7	4.57
350	230.36	4.61
298.9	215.85	4.32
309.1	219.84	4.4
319.4	222.69	4.45
329.6	225.86	4.52
339.8	228.74	4.57
350	230.67	4.61
258.1	201.78	4.04
268.3	206.1	4.12
278.5	208.78	4.18
288.7	211.87	4.24
258.1	201.57	4.03
268.3	204.8	4.1
278.5	208.32	4.17
288.7	212.56	4.25
298.9	216.49	4.33
309.1	220.54	4.41
319.4	223.11	4.46
329.6	226.42	4.53
339.8	228.85	4.58
350	230.98	4.62
298.9	215.77	4.32
309.1	219.94	4.4
319.4	223.29	4.47
329.6	225.59	4.51
339.8	228.99	4.58
350	231.39	4.63
298.9	215.89	4.32
309.1	220.29	4.41
319.4	223.87	4.48
329.6	226.13	4.52
339.8	229.92	4.6
350	231.43	4.63
298.9	216.2	4.32
309.1	220.08	4.4
319.4	223.41	4.47
329.6	226.03	4.52
339.8	229.01	4.58
350	230.93	4.62
298.9	216.18	4.32
309.1	220.21	4.4
319.4	223.23	4.46
329.6	226.29	4.53
339.8	228.93	4.58
350	230.63	4.61
298.9	216.39	4.33
309.1	220.14	4.4
319.4	223.23	4.46
329.6	225.64	4.51
339.8	228.81	4.58
350	230.71	4.61
298.9	215.85	4.32
309.1	219.92	4.4
319.4	223.21	4.46
329.6	225.99	4.52
339.8	228.81	4.58
350	230.38	4.61

System: niobium strontium oxide (Nb2Sr2O7); phases: Crystal
Fixed: Pressure, kPa = 101.325
Property: Molar enthalpy, kJ/mol (Crystal); method: Drop calorimetry
Temperature, K	Molar enthalpy, kJ/mol	uncertainty
773	118.8	4.4
773	121.7	4.5
824	138.4	5.1
824	132	4.9
873	151.9	5.6
873	147.1	5.4
924	164.4	6
924	168	6.2
924	163.4	6
973	173.2	6.4
1024	189.2	7
1024	190.7	7
1024	194.5	7.1
1073	213.7	7.9
1073	208	7.6
1124	228	8.4
1124	214.4	7.9
1173	235.4	8.6
1173	231.5	8.5
1223	257.3	9.5
1224	243	8.9
1224	246.1	9
1273	258.1	9.5
1273	257.1	9.4
1373	286.5	10.5

System: niobium calcium oxide (Nb2Ca2O7); phases: Crystal
Property: Mass density, kg/m3 (Crystal); method: X-ray diffraction
Temperature, K	Pressure, kPa	Mass density, kg/m3	uncertainty
293	101.325	4496	7

System: niobium calcium oxide (Nb2Ca2O7); phases: Crystal
Fixed: Pressure, kPa = 101.325
Property: Molar heat capacity at constant pressure, J/K/mol (Crystal); method: Relaxation time
Temperature, K	Molar heat capacity at constant pressure, J/K/mol	uncertainty
2.4	0.003	0.001
2.4	0.003	0.001
2.4	0.003	0.001
2.5	0.004	0.001
2.6	0.004	0.001
2.7	0.004	0.001
2.8	0.005	0.001
2.9	0.005	0.001
3	0.006	0.001
3.1	0.006	0.001
3.2	0.007	0.001
3.3	0.008	0.001
3.4	0.009	0.001
3.6	0.01	0.01
3.7	0.01	0.01
3.9	0.01	0.01
4	0.01	0.01
4.2	0.02	0.01
4.3	0.02	0.01
4.5	0.02	0.01
4.7	0.02	0.01
4.9	0.03	0.01
5.1	0.03	0.01
5.3	0.03	0.01
5.5	0.04	0.01
5.7	0.04	0.01
6	0.04	0.01
6.2	0.05	0.01
6.5	0.05	0.01
6.7	0.06	0.01
7	0.07	0.01
7.3	0.07	0.01
7.6	0.08	0.01
7.9	0.09	0.01
8.3	0.1	0.01
8.6	0.12	0.01
9	0.13	0.01
9.3	0.15	0.01
9.7	0.17	0.01
10.1	0.19	0.01
10.6	0.21	0.01
11	0.24	0.01
11.5	0.28	0.01
11.9	0.31	0.01
12.4	0.36	0.01
13	0.41	0.01
13.5	0.48	0.01
14.1	0.54	0.01
14.7	0.63	0.01
15.3	0.72	0.02
15.9	0.84	0.02
16.6	0.97	0.02
17.3	1.12	0.02
18	1.3	0.03
18.8	1.5	0.03
19.6	1.74	0.04
20.4	2.01	0.04
21.3	2.32	0.05
22.2	2.68	0.05
23.1	3.09	0.06
24.1	3.54	0.07
25.1	4.07	0.08
26.1	4.65	0.09
27.3	5.3	0.11
28.4	6.02	0.12
29.6	6.83	0.14
30.9	7.73	0.16
32.2	8.71	0.18
33.5	9.81	0.2
34.9	11	0.22
36.4	12.29	0.25
37.9	13.69	0.27
39.5	15.2	0.3
41.2	16.8	0.34
42.9	18.52	0.37
44.7	20.39	0.41
46.6	22.4	0.45
48.6	24.51	0.49
50.6	26.84	0.54
52.8	29.27	0.59
55	31.86	0.64
57.3	34.62	0.69
59.7	37.54	0.75
62.2	40.56	0.81
64.9	43.76	0.88
67.6	47.11	0.94
70.4	50.57	1.01
73.4	54.28	1.09
76.5	58.05	1.16
79.7	62.01	1.24
83.1	66.04	1.32
86.6	70.17	1.4
90.2	74.54	1.49
94	78.93	1.58
98	83.46	1.67
102.2	88.15	1.76
106.5	92.82	1.86
110.9	97.77	1.96
115.6	102.52	2.05
120.5	107.49	2.15
125.6	112.43	2.25
130.9	117.59	2.35
136.4	122.63	2.45
142.1	127.79	2.56
148.1	132.7	2.65
154.4	137.58	2.75
160.9	142.93	2.86
167.7	147.95	2.96
174.7	152.51	3.05
182.1	157.46	3.15
189.8	162.54	3.25
197.8	167.58	3.35
206.2	172.3	3.45
214.9	176.7	3.53
223.9	181.75	3.64
233.4	185.32	3.71
243.3	191.27	3.83
253.6	196.49	3.93
264.3	200.37	4.01
275.4	204.42	4.09
287	208.2	4.16
299.1	210.37	4.21

System: niobium calcium oxide (Nb2Ca2O7); phases: Crystal
Fixed: Pressure, kPa = 101.325
Property: Molar heat capacity at constant pressure, J/K/mol (Crystal); method: Small sample (50 mg) DSC
Temperature, K	Molar heat capacity at constant pressure, J/K/mol	uncertainty
260.6	202.93	4.06
265.8	205.06	4.1
270.9	206.94	4.14
276	209.09	4.18
281.1	211.01	4.22
286.2	212.97	4.26
291.3	214.94	4.3
298.3	217.69	4.35
309.1	220.96	4.42
319.4	225.06	4.5
329.6	228.32	4.57
339.8	231.87	4.64
350	235.22	4.7
360.2	237.78	4.76
260.6	202.33	4.05
265.8	204.43	4.09
270.9	206.37	4.13
276	208.77	4.18
281.1	210.93	4.22
286.2	212.62	4.25
291.3	214.5	4.29
298.9	217.25	4.35
309.1	220.41	4.41
319.4	224.66	4.49
329.6	227.58	4.55
339.8	231.04	4.62
350	234.13	4.68
360.2	236.89	4.74

System: niobium calcium oxide (Nb2Ca2O7); phases: Crystal
Fixed: Pressure, kPa = 101.325
Property: Molar enthalpy, kJ/mol (Crystal); method: Drop calorimetry
Temperature, K	Molar enthalpy, kJ/mol	uncertainty
774	125.9	4.6
774	124.6	4.6
874	147.1	5.4
874	151.1	5.6
974	176.7	6.5
974	176.8	6.5
1074	204.9	7.5
1074	204.9	7.5
1174	233.3	8.6
1174	233.4	8.6
1274	262.1	9.6
1274	262.1	9.6
1373	297	10.9
