Measured thermophysical data. Physics and Chemistry of Lithium Halides in 1,3-Dioxolane and Its Binary Mixtures with  Acetonitrile probed by Conductometric, Volumetric, Viscometric, Refractometric and Acoustic Study
Source: Thermochim. Acta, 2012, 10.1016/j.tca.2012.08.009
Compound 1: acetonitrile, C2H3N, InChI=1S/C2H3N/c1-2-3/h1H3, purity 98%
Compound 2: 1,3-dioxolane, C3H6O2, InChI=1S/C3H6O2/c1-2-5-3-4-1/h1-3H2, purity 98%
Compound 3: lithium chloride, ClLi, InChI=1S/ClH.Li/h1H;/q;+1/p-1, purity 99%
Compound 4: lithium bromide, BrLi, InChI=1S/BrH.Li/h1H;/q;+1/p-1, purity 99%
Compound 5: lithium iodide, ILi, InChI=1S/HI.Li/h1H;/q;+1/p-1, purity 99%

System: acetonitrile; phases: Liquid
Property: Refractive index (Na D-line) (Liquid); method: Standard Abbe refractometry
Temperature, K	Pressure, kPa	Refractive index (Na D-line)	uncertainty
298.15	101.325	1.3418	0.0006

System: acetonitrile; phases: Liquid
Property: Viscosity, Pa*s (Liquid); method: Capillary tube (Ostwald; Ubbelohde) method
Temperature, K	Pressure, kPa	Viscosity, Pa*s	uncertainty
298.15	101	0.000343	7e-06

System: acetonitrile; phases: Liquid
Property: Speed of sound, m/s (Liquid); method: Linear variable-path acoustic interferometer
Temperature, K	Pressure, kPa	Speed of sound, m/s	uncertainty
298.15	101	1281.5	2.4

System: acetonitrile; phases: Liquid
Property: Mass density, kg/m3 (Liquid); method: Vibrating tube method
Temperature, K	Pressure, kPa	Mass density, kg/m3	uncertainty
298.15	101	776.74	0.61

System: 1,3-dioxolane; phases: Liquid
Property: Refractive index (Na D-line) (Liquid); method: Standard Abbe refractometry
Temperature, K	Pressure, kPa	Refractive index (Na D-line)	uncertainty
298.15	101.325	1.3974	0.0006

System: 1,3-dioxolane; phases: Liquid
Property: Viscosity, Pa*s (Liquid); method: Capillary tube (Ostwald; Ubbelohde) method
Temperature, K	Pressure, kPa	Viscosity, Pa*s	uncertainty
298.15	101	0.000597	9e-06

System: 1,3-dioxolane; phases: Liquid
Property: Speed of sound, m/s (Liquid); method: Linear variable-path acoustic interferometer
Temperature, K	Pressure, kPa	Speed of sound, m/s	uncertainty
298.15	101	1338.9	2.5

System: 1,3-dioxolane; phases: Liquid
Property: Mass density, kg/m3 (Liquid); method: Vibrating tube method
Temperature, K	Pressure, kPa	Mass density, kg/m3	uncertainty
298.15	101	1058.72	0.96

System: acetonitrile + 1,3-dioxolane; phases: Liquid
Fixed: Temperature, K = 298.15
Fixed: Pressure, kPa = 101
Property: Viscosity, Pa*s (Liquid); method: Capillary tube (Ostwald; Ubbelohde) method
Mass fraction of acetonitrile	Viscosity, Pa*s	uncertainty
0	0.000597	9e-06
0.25	0.000533	9e-06
0.5	0.000471	8e-06
0.75	0.000407	8e-06
1	0.000343	7e-06

System: acetonitrile + 1,3-dioxolane; phases: Liquid
Fixed: Temperature, K = 298.15
Fixed: Pressure, kPa = 101
Property: Refractive index (Na D-line) (Liquid); method: Standard Abbe refractometry
Mass fraction of acetonitrile	Refractive index (Na D-line)	uncertainty
0	1.3974	0.0006
0.25	1.3835	0.0006
0.5	1.3696	0.0006
0.75	1.3557	0.0006
1	1.3418	0.0006

System: acetonitrile + 1,3-dioxolane; phases: Liquid
Fixed: Temperature, K = 298.15
Fixed: Pressure, kPa = 101
Property: Speed of sound, m/s (Liquid); method: Linear variable-path acoustic interferometer
Mass fraction of acetonitrile	Speed of sound, m/s	uncertainty
0	1338.9	2.5
0.25	1324.6	2.5
0.5	1310.2	2.4
0.75	1295.8	2.4
1	1281.5	2.4

System: acetonitrile + 1,3-dioxolane; phases: Liquid
Fixed: Temperature, K = 298.15
Fixed: Pressure, kPa = 101
Property: Mass density, kg/m3 (Liquid); method: Vibrating tube method
Mass fraction of acetonitrile	Mass density, kg/m3	uncertainty
0	1058.72	0.96
0.25	979.95	0.82
0.5	909.57	0.75
0.75	841.47	0.67
1	776.74	0.61

System: 1,3-dioxolane + lithium chloride; phases: Liquid
Fixed: Temperature, K = 298.15
Fixed: Pressure, kPa = 101
Property: Molar conductivity, S*m2/mol (Liquid); method: Alternating current cell with electrodes
Amount concentration (molarity), mol/dm3 of lithium chloride	Molar conductivity, S*m2/mol	uncertainty
3.525e-05	0.003047	1.8e-05
3.871e-05	0.002972	1.8e-05
4.453e-05	0.002875	1.7e-05
4.924e-05	0.002803	1.7e-05
5.609e-05	0.00273	1.6e-05
6.159e-05	0.002693	1.6e-05
6.635e-05	0.002673	1.6e-05
7.162e-05	0.002663	1.6e-05
7.442e-05	0.002672	1.6e-05
7.691e-05	0.002715	1.6e-05
7.721e-05	0.002746	1.6e-05
7.779e-05	0.002778	1.7e-05

System: 1,3-dioxolane + lithium chloride; phases: Liquid
Fixed: Temperature, K = 298.15
Fixed: Pressure, kPa = 101
Property: Viscosity, Pa*s (Liquid); method: Capillary tube (Ostwald; Ubbelohde) method
Amount concentration (molarity), mol/dm3 of lithium chloride	Viscosity, Pa*s	uncertainty
0.0142	0.000597	9e-06
0.0284	0.000598	9e-06
0.0426	0.000601	9e-06
0.0568	0.000603	9e-06
0.071	0.000606	9e-06
0.0852	0.000608	9e-06

System: 1,3-dioxolane + lithium chloride; phases: Liquid
Fixed: Temperature, K = 298.15
Fixed: Pressure, kPa = 101
Property: Refractive index (Na D-line) (Liquid); method: Standard Abbe refractometry
Amount concentration (molarity), mol/dm3 of lithium chloride	Refractive index (Na D-line)	uncertainty
0.0142	1.398	0.0006
0.0284	1.3988	0.0006
0.0426	1.3994	0.0006
0.0568	1.4	0.0006
0.071	1.4005	0.0006
0.0852	1.401	0.0006

System: 1,3-dioxolane + lithium chloride; phases: Liquid
Fixed: Temperature, K = 298.15
Fixed: Pressure, kPa = 101
Property: Speed of sound, m/s (Liquid); method: Linear variable-path acoustic interferometer
Amount concentration (molarity), mol/dm3 of lithium chloride	Speed of sound, m/s	uncertainty
0.0142	1344.6	2.2
0.0284	1356.8	2.2
0.0426	1373.9	2.2
0.0568	1394.7	2.2
0.071	1420.8	2.3
0.0852	1451.4	2.3

System: 1,3-dioxolane + lithium chloride; phases: Liquid
Fixed: Temperature, K = 298.15
Fixed: Pressure, kPa = 101
Property: Mass density, kg/m3 (Liquid); method: Vibrating tube method
Amount concentration (molarity), mol/dm3 of lithium chloride	Mass density, kg/m3	uncertainty
0.0142	1058.75	0.68
0.0284	1058.9	0.68
0.0426	1059.11	0.68
0.0568	1059.4	0.68
0.071	1059.75	0.68
0.0852	1060.14	0.68

System: 1,3-dioxolane + lithium bromide; phases: Liquid
Fixed: Temperature, K = 298.15
Fixed: Pressure, kPa = 101
Property: Molar conductivity, S*m2/mol (Liquid); method: Alternating current cell with electrodes
Amount concentration (molarity), mol/dm3 of lithium bromide	Molar conductivity, S*m2/mol	uncertainty
2.686e-05	0.002392	1.4e-05
3.525e-05	0.002226	1.3e-05
4.178e-05	0.002164	1.3e-05
4.7e-05	0.002136	1.3e-05
5.127e-05	0.002128	1.3e-05
5.483e-05	0.002127	1.3e-05
5.868e-05	0.002129	1.3e-05
6.267e-05	0.002145	1.3e-05
6.635e-05	0.002167	1.3e-05
7.115e-05	0.002199	1.3e-05
7.52e-05	0.002233	1.3e-05
7.917e-05	0.002272	1.4e-05

System: 1,3-dioxolane + lithium bromide; phases: Liquid
Fixed: Temperature, K = 298.15
Fixed: Pressure, kPa = 101
Property: Viscosity, Pa*s (Liquid); method: Capillary tube (Ostwald; Ubbelohde) method
Amount concentration (molarity), mol/dm3 of lithium bromide	Viscosity, Pa*s	uncertainty
0.0142	0.000599	9e-06
0.0284	0.000603	9e-06
0.0426	0.000607	9e-06
0.0569	0.000612	9e-06
0.0712	0.000617	9e-06
0.0855	0.000622	9e-06

System: 1,3-dioxolane + lithium bromide; phases: Liquid
Fixed: Temperature, K = 298.15
Fixed: Pressure, kPa = 101
Property: Refractive index (Na D-line) (Liquid); method: Standard Abbe refractometry
Amount concentration (molarity), mol/dm3 of lithium bromide	Refractive index (Na D-line)	uncertainty
0.0142	1.3984	0.0006
0.0284	1.3993	0.0006
0.0426	1.4001	0.0006
0.0569	1.4008	0.0006
0.0712	1.4014	0.0006
0.0855	1.402	0.0006

System: 1,3-dioxolane + lithium bromide; phases: Liquid
Fixed: Temperature, K = 298.15
Fixed: Pressure, kPa = 101
Property: Speed of sound, m/s (Liquid); method: Linear variable-path acoustic interferometer
Amount concentration (molarity), mol/dm3 of lithium bromide	Speed of sound, m/s	uncertainty
0.0142	1347.4	2.2
0.0284	1366.8	2.2
0.0426	1394.6	2.3
0.0569	1430.9	2.3
0.0712	1475.6	2.4
0.0855	1531.8	2.4

System: 1,3-dioxolane + lithium bromide; phases: Liquid
Fixed: Temperature, K = 298.15
Fixed: Pressure, kPa = 101
Property: Mass density, kg/m3 (Liquid); method: Vibrating tube method
Amount concentration (molarity), mol/dm3 of lithium bromide	Mass density, kg/m3	uncertainty
0.0142	1058.79	0.68
0.0284	1059	0.68
0.0426	1059.29	0.68
0.0569	1059.65	0.68
0.0712	1060.05	0.68
0.0855	1060.52	0.68

System: 1,3-dioxolane + lithium iodide; phases: Liquid
Fixed: Temperature, K = 298.15
Fixed: Pressure, kPa = 101
Property: Molar conductivity, S*m2/mol (Liquid); method: Alternating current cell with electrodes
Amount concentration (molarity), mol/dm3 of lithium iodide	Molar conductivity, S*m2/mol	uncertainty
8.17e-06	0.001792	1.1e-05
1.498e-05	0.000612	4e-06
2.075e-05	0.000192	1e-06
2.568e-05	0.000191	1e-06
2.997e-05	0.000418	3e-06
3.702e-05	0.000994	6e-06
4.495e-05	0.001751	1.1e-05
5.081e-05	0.00241	1.4e-05
5.66e-05	0.003074	1.8e-05
6.421e-05	0.003828	2.3e-05
6.958e-05	0.004382	2.6e-05
7.293e-05	0.004735	2.8e-05

System: 1,3-dioxolane + lithium iodide; phases: Liquid
Fixed: Temperature, K = 298.15
Fixed: Pressure, kPa = 101
Property: Viscosity, Pa*s (Liquid); method: Capillary tube (Ostwald; Ubbelohde) method
Amount concentration (molarity), mol/dm3 of lithium iodide	Viscosity, Pa*s	uncertainty
0.0142	0.000601	9e-06
0.0284	0.000607	9e-06
0.0427	0.000614	9e-06
0.057	0.000621	9e-06
0.0714	0.000628	9e-06
0.0858	0.000635	9e-06

System: 1,3-dioxolane + lithium iodide; phases: Liquid
Fixed: Temperature, K = 298.15
Fixed: Pressure, kPa = 101
Property: Refractive index (Na D-line) (Liquid); method: Standard Abbe refractometry
Amount concentration (molarity), mol/dm3 of lithium iodide	Refractive index (Na D-line)	uncertainty
0.0142	1.3988	0.0006
0.0284	1.3997	0.0006
0.0427	1.4004	0.0006
0.057	1.4011	0.0006
0.0714	1.4018	0.0006
0.0858	1.4024	0.0006

System: 1,3-dioxolane + lithium iodide; phases: Liquid
Fixed: Temperature, K = 298.15
Fixed: Pressure, kPa = 101
Property: Speed of sound, m/s (Liquid); method: Linear variable-path acoustic interferometer
Amount concentration (molarity), mol/dm3 of lithium iodide	Speed of sound, m/s	uncertainty
0.0142	1350.6	2.2
0.0284	1377.7	2.3
0.0427	1416.8	2.3
0.057	1469.7	2.4
0.0714	1539.7	2.6
0.0858	1630.2	2.7

System: 1,3-dioxolane + lithium iodide; phases: Liquid
Fixed: Temperature, K = 298.15
Fixed: Pressure, kPa = 101
Property: Mass density, kg/m3 (Liquid); method: Vibrating tube method
Amount concentration (molarity), mol/dm3 of lithium iodide	Mass density, kg/m3	uncertainty
0.0142	1058.82	0.68
0.0284	1059.06	0.68
0.0427	1059.4	0.68
0.057	1059.82	0.68
0.0714	1060.32	0.68
0.0858	1060.86	0.68

System: acetonitrile + 1,3-dioxolane + lithium chloride; phases: Liquid
Fixed: Temperature, K = 298.15
Fixed: Pressure, kPa = 101
Property: Molar conductivity, S*m2/mol (Liquid); method: Alternating current cell with electrodes
Solvent: Mass fraction of acetonitrile	Amount concentration (molarity), mol/dm3 of lithium chloride	Molar conductivity, S*m2/mol	uncertainty
0	3.525e-05	0.003047	1.8e-05
0	3.871e-05	0.002972	1.8e-05
0	4.453e-05	0.002875	1.7e-05
0	4.924e-05	0.002803	1.7e-05
0	5.609e-05	0.00273	1.6e-05
0	6.159e-05	0.002693	1.6e-05
0	6.635e-05	0.002673	1.6e-05
0	7.162e-05	0.002663	1.6e-05
0	7.442e-05	0.002672	1.6e-05
0	7.691e-05	0.002715	1.6e-05
0	7.721e-05	0.002746	1.6e-05
0	7.779e-05	0.002778	1.7e-05
0.25	0.00015446	0.009485	0.00104
0.25	0.0002231	0.00915	0.000889
0.25	0.00025099	0.00902	0.001047
0.25	0.0002756	0.008908	0.000899
0.25	0.00029747	0.008813	0.000968
0.25	0.00033465	0.008665	0.000412
0.25	0.00036508	0.008569	0.000982
0.25	0.00040158	0.008448	0.000841
0.25	0.00042141	0.008373	0.000835
0.25	0.00046649	0.008224	0.00074
0.25	0.00050606	0.008092	0.000693
0.25	0.00053271	0.008023	0.000673
0.5	0.0002458	0.010304	0.000605
0.5	0.00045063	0.009712	0.000525
0.5	0.00062395	0.00928	0.000504
0.5	0.00077251	0.008984	0.000426
0.5	0.00090126	0.008733	0.00038
0.5	0.00111332	0.008361	0.000338
0.5	0.00128074	0.008083	0.000318
0.5	0.00141627	0.00787	0.000307
0.5	0.00157721	0.007674	0.000285
0.5	0.00170238	0.007469	0.000276
0.5	0.00197303	0.007111	0.000251
0.5	0.00220308	0.006851	0.00023
0.75	0.00053316	0.011702	0.000197
0.75	0.00097745	0.011293	0.000195
0.75	0.00135339	0.010952	0.000193
0.75	0.00167563	0.010661	0.000186
0.75	0.0019549	0.010427	0.000199
0.75	0.00241488	0.009969	0.000203
0.75	0.00277802	0.009631	0.000191
0.75	0.00307199	0.009372	0.000187
0.75	0.00331483	0.009153	0.000176
0.75	0.00377017	0.008784	0.000204
0.75	0.00432136	0.008167	0.000211
0.75	0.0047984	0.007729	0.000189

System: acetonitrile + 1,3-dioxolane + lithium chloride; phases: Liquid
Fixed: Temperature, K = 298.15
Fixed: Pressure, kPa = 101
Property: Viscosity, Pa*s (Liquid); method: Capillary tube (Ostwald; Ubbelohde) method
Amount concentration (molarity), mol/dm3 of lithium chloride	Solvent: Mass fraction of acetonitrile	Viscosity, Pa*s	uncertainty
0.0142	0	0.000597	9e-06
0.0153	0.25	0.000534	8e-06
0.0165	0.5	0.000472	8e-06
0.0178	0.75	0.000409	7e-06
0.0284	0	0.000598	9e-06
0.0306	0.25	0.000536	8e-06
0.033	0.5	0.000474	8e-06
0.0357	0.75	0.000411	7e-06
0.0426	0	0.000601	9e-06
0.046	0.25	0.000538	8e-06
0.0495	0.5	0.000477	8e-06
0.0535	0.75	0.000413	7e-06
0.0568	0	0.000603	9e-06
0.0613	0.25	0.00054	8e-06
0.066	0.5	0.000479	8e-06
0.071	0	0.000606	9e-06
0.0714	0.75	0.000415	7e-06
0.0767	0.25	0.000543	8e-06
0.0826	0.5	0.000481	8e-06
0.0852	0	0.000608	9e-06
0.0892	0.75	0.000417	7e-06
0.092	0.25	0.000545	8e-06
0.0991	0.5	0.000484	8e-06
0.1071	0.75	0.000419	7e-06

System: acetonitrile + 1,3-dioxolane + lithium chloride; phases: Liquid
Fixed: Temperature, K = 298.15
Fixed: Pressure, kPa = 101
Property: Refractive index (Na D-line) (Liquid); method: Standard Abbe refractometry
Amount concentration (molarity), mol/dm3 of lithium chloride	Solvent: Mass fraction of acetonitrile	Refractive index (Na D-line)	uncertainty
0.0142	0	1.398	0.0006
0.0153	0.25	1.3841	0.0006
0.0165	0.5	1.3702	0.0006
0.0178	0.75	1.3562	0.0006
0.0284	0	1.3988	0.0006
0.0306	0.25	1.3847	0.0006
0.033	0.5	1.3709	0.0006
0.0357	0.75	1.3571	0.0006
0.0426	0	1.3994	0.0006
0.046	0.25	1.3853	0.0006
0.0495	0.5	1.3714	0.0006
0.0535	0.75	1.3579	0.0006
0.0568	0	1.4	0.0006
0.0613	0.25	1.3858	0.0006
0.066	0.5	1.372	0.0006
0.071	0	1.4005	0.0006
0.0714	0.75	1.3585	0.0006
0.0767	0.25	1.3863	0.0006
0.0826	0.5	1.3725	0.0006
0.0852	0	1.401	0.0006
0.0892	0.75	1.3592	0.0006
0.092	0.25	1.3868	0.0006
0.0991	0.5	1.373	0.0006
0.1071	0.75	1.3598	0.0006

System: acetonitrile + 1,3-dioxolane + lithium chloride; phases: Liquid
Fixed: Temperature, K = 298.15
Fixed: Pressure, kPa = 101
Property: Speed of sound, m/s (Liquid); method: Linear variable-path acoustic interferometer
Amount concentration (molarity), mol/dm3 of lithium chloride	Solvent: Mass fraction of acetonitrile	Speed of sound, m/s	uncertainty
0.0142	0	1344.6	2.2
0.0153	0.25	1329.4	2.2
0.0165	0.5	1314.2	2.2
0.0178	0.75	1299	2.2
0.0284	0	1356.8	2.2
0.0306	0.25	1339.9	2.2
0.033	0.5	1322.7	2.2
0.0357	0.75	1305.7	2.2
0.0426	0	1373.9	2.2
0.046	0.25	1353.6	2.2
0.0495	0.5	1334.1	2.2
0.0535	0.75	1314.5	2.2
0.0568	0	1394.7	2.2
0.0613	0.25	1371.2	2.2
0.066	0.5	1348.4	2.2
0.071	0	1420.8	2.3
0.0714	0.75	1325.4	2.2
0.0767	0.25	1391.8	2.2
0.0826	0.5	1365.2	2.2
0.0852	0	1451.4	2.3
0.0892	0.75	1338.4	2.2
0.092	0.25	1416.9	2.3
0.0991	0.5	1384.6	2.2
0.1071	0.75	1353	2.2

System: acetonitrile + 1,3-dioxolane + lithium chloride; phases: Liquid
Fixed: Temperature, K = 298.15
Fixed: Pressure, kPa = 101
Property: Mass density, kg/m3 (Liquid); method: Vibrating tube method
Amount concentration (molarity), mol/dm3 of lithium chloride	Solvent: Mass fraction of acetonitrile	Mass density, kg/m3	uncertainty
0.0142	0	1058.75	0.68
0.0153	0.25	980.12	0.57
0.0165	0.5	909.81	0.53
0.0178	0.75	841.8	0.49
0.0284	0	1058.9	0.68
0.0306	0.25	980.35	0.57
0.033	0.5	910.15	0.53
0.0357	0.75	842.22	0.49
0.0426	0	1059.11	0.68
0.046	0.25	980.66	0.57
0.0495	0.5	910.54	0.53
0.0535	0.75	842.78	0.49
0.0568	0	1059.4	0.68
0.0613	0.25	981.01	0.57
0.066	0.5	911	0.53
0.071	0	1059.75	0.68
0.0714	0.75	843.23	0.49
0.0767	0.25	981.43	0.57
0.0826	0.5	911.49	0.53
0.0852	0	1060.14	0.68
0.0892	0.75	843.79	0.49
0.092	0.25	981.89	0.58
0.0991	0.5	912.03	0.53
0.1071	0.75	844.39	0.49

System: acetonitrile + 1,3-dioxolane + lithium bromide; phases: Liquid
Fixed: Temperature, K = 298.15
Fixed: Pressure, kPa = 101
Property: Molar conductivity, S*m2/mol (Liquid); method: Alternating current cell with electrodes
Amount concentration (molarity), mol/dm3 of lithium bromide	Solvent: Mass fraction of acetonitrile	Molar conductivity, S*m2/mol	uncertainty
2.686e-05	0	0.002392	1.4e-05
3.525e-05	0	0.002226	1.3e-05
4.178e-05	0	0.002164	1.3e-05
4.7e-05	0	0.002136	1.3e-05
5.127e-05	0	0.002128	1.3e-05
5.483e-05	0	0.002127	1.3e-05
5.868e-05	0	0.002129	1.3e-05
6.267e-05	0	0.002145	1.3e-05
6.635e-05	0	0.002167	1.3e-05
7.115e-05	0	0.002199	1.3e-05
7.52e-05	0	0.002233	1.3e-05
7.917e-05	0	0.002272	1.4e-05
0.00015446	0.25	0.007479	4.5e-05
0.00019123	0.25	0.007315	4.4e-05
0.0002231	0.25	0.007175	4.3e-05
0.00025099	0.25	0.007057	4.2e-05
0.0002756	0.25	0.006973	4.2e-05
0.00028207	0.5	0.008766	5.3e-05
0.00031704	0.25	0.006823	4.1e-05
0.00035059	0.25	0.006709	4e-05
0.0003783	0.25	0.006639	4e-05
0.00042141	0.25	0.00651	3.9e-05
0.0004534	0.25	0.006429	3.9e-05
0.00047808	0.25	0.006367	3.8e-05
0.00048982	0.75	0.010119	6.1e-05
0.00051365	0.25	0.006266	3.8e-05
0.00051714	0.5	0.008165	4.9e-05
0.00071604	0.5	0.007732	4.6e-05
0.00088652	0.5	0.007395	4.4e-05
0.000898	0.75	0.009312	5.6e-05
0.00103427	0.5	0.00717	4.3e-05
0.00124339	0.75	0.008945	5.4e-05
0.00127763	0.5	0.006791	4.1e-05
0.00146976	0.5	0.006531	3.9e-05
0.00153943	0.75	0.008524	5.1e-05
0.00162529	0.5	0.006341	3.8e-05
0.001796	0.75	0.008232	4.9e-05
0.00180998	0.5	0.006131	3.7e-05
0.00195363	0.5	0.005952	3.6e-05
0.00206855	0.5	0.005826	3.5e-05
0.0022163	0.5	0.005652	3.4e-05
0.00221859	0.75	0.007792	4.7e-05
0.00255222	0.75	0.007521	4.5e-05
0.00293892	0.75	0.007192	4.3e-05
0.0033157	0.75	0.006862	4.1e-05
0.00364994	0.75	0.006591	4e-05
0.00400647	0.75	0.006392	3.8e-05
0.00442587	0.75	0.006071	3.6e-05

System: acetonitrile + 1,3-dioxolane + lithium bromide; phases: Liquid
Fixed: Temperature, K = 298.15
Fixed: Pressure, kPa = 101
Property: Viscosity, Pa*s (Liquid); method: Capillary tube (Ostwald; Ubbelohde) method
Amount concentration (molarity), mol/dm3 of lithium bromide	Solvent: Mass fraction of acetonitrile	Viscosity, Pa*s	uncertainty
0.0142	0	0.000599	9e-06
0.0153	0.25	0.000536	8e-06
0.0165	0.5	0.000474	8e-06
0.0178	0.75	0.000411	7e-06
0.0284	0	0.000603	9e-06
0.0307	0.25	0.00054	8e-06
0.033	0.5	0.000478	8e-06
0.0357	0.75	0.000415	7e-06
0.0426	0	0.000607	9e-06
0.0461	0.25	0.000544	8e-06
0.0496	0.5	0.000483	8e-06
0.0536	0.75	0.000419	7e-06
0.0569	0	0.000612	9e-06
0.0615	0.25	0.000549	8e-06
0.0662	0.5	0.000488	8e-06
0.0712	0	0.000617	9e-06
0.0715	0.75	0.000423	8e-06
0.0769	0.25	0.000553	8e-06
0.0828	0.5	0.000492	8e-06
0.0855	0	0.000622	9e-06
0.0895	0.75	0.000427	8e-06
0.0923	0.25	0.000558	8e-06
0.0994	0.5	0.000497	8e-06
0.1074	0.75	0.000431	8e-06

System: acetonitrile + 1,3-dioxolane + lithium bromide; phases: Liquid
Fixed: Temperature, K = 298.15
Fixed: Pressure, kPa = 101
Property: Refractive index (Na D-line) (Liquid); method: Standard Abbe refractometry
Amount concentration (molarity), mol/dm3 of lithium bromide	Solvent: Mass fraction of acetonitrile	Refractive index (Na D-line)	uncertainty
0.0142	0	1.3984	0.0006
0.0153	0.25	1.3845	0.0006
0.0165	0.5	1.3708	0.0006
0.0178	0.75	1.3569	0.0006
0.0284	0	1.3993	0.0006
0.0307	0.25	1.3857	0.0006
0.033	0.5	1.3714	0.0006
0.0357	0.75	1.3576	0.0006
0.0426	0	1.4001	0.0006
0.0461	0.25	1.3866	0.0006
0.0496	0.5	1.3719	0.0006
0.0536	0.75	1.3582	0.0006
0.0569	0	1.4008	0.0006
0.0615	0.25	1.3874	0.0006
0.0662	0.5	1.3724	0.0006
0.0712	0	1.4014	0.0006
0.0715	0.75	1.3588	0.0006
0.0769	0.25	1.3882	0.0006
0.0828	0.5	1.3729	0.0006
0.0855	0	1.402	0.0006
0.0895	0.75	1.3594	0.0006
0.0923	0.25	1.3889	0.0006
0.0994	0.5	1.3734	0.0006
0.1074	0.75	1.36	0.0006

System: acetonitrile + 1,3-dioxolane + lithium bromide; phases: Liquid
Fixed: Temperature, K = 298.15
Fixed: Pressure, kPa = 101
Property: Speed of sound, m/s (Liquid); method: Linear variable-path acoustic interferometer
Amount concentration (molarity), mol/dm3 of lithium bromide	Solvent: Mass fraction of acetonitrile	Speed of sound, m/s	uncertainty
0.0142	0	1347.4	2.2
0.0153	0.25	1331.8	2.2
0.0165	0.5	1316.4	2.2
0.0178	0.75	1301	2.2
0.0284	0	1366.8	2.2
0.0307	0.25	1347.7	2.2
0.033	0.5	1329.9	2.2
0.0357	0.75	1311.8	2.2
0.0426	0	1394.6	2.3
0.0461	0.25	1370.1	2.2
0.0496	0.5	1348.1	2.2
0.0536	0.75	1326.5	2.2
0.0569	0	1430.9	2.3
0.0615	0.25	1399.3	2.3
0.0662	0.5	1372	2.2
0.0712	0	1475.6	2.4
0.0715	0.75	1344.8	2.2
0.0769	0.25	1434	2.3
0.0828	0.5	1399.9	2.3
0.0855	0	1531.8	2.4
0.0895	0.75	1366.7	2.2
0.0923	0.25	1476.3	2.3
0.0994	0.5	1434.1	2.3
0.1074	0.75	1392.7	2.2

System: acetonitrile + 1,3-dioxolane + lithium bromide; phases: Liquid
Fixed: Temperature, K = 298.15
Fixed: Pressure, kPa = 101
Property: Mass density, kg/m3 (Liquid); method: Vibrating tube method
Amount concentration (molarity), mol/dm3 of lithium bromide	Solvent: Mass fraction of acetonitrile	Mass density, kg/m3	uncertainty
0.0142	0	1058.79	0.68
0.0153	0.25	980.22	0.57
0.0165	0.5	909.95	0.53
0.0178	0.75	841.98	0.49
0.0284	0	1059	0.68
0.0307	0.25	980.58	0.57
0.033	0.5	910.45	0.53
0.0357	0.75	842.59	0.49
0.0426	0	1059.29	0.68
0.0461	0.25	981	0.57
0.0496	0.5	911.02	0.53
0.0536	0.75	843.27	0.49
0.0569	0	1059.65	0.68
0.0615	0.25	981.5	0.57
0.0662	0.5	911.63	0.53
0.0712	0	1060.05	0.68
0.0715	0.75	844	0.49
0.0769	0.25	982.03	0.58
0.0828	0.5	912.29	0.53
0.0855	0	1060.52	0.68
0.0895	0.75	844.77	0.49
0.0923	0.25	982.6	0.58
0.0994	0.5	912.99	0.53
0.1074	0.75	845.55	0.49

System: acetonitrile + 1,3-dioxolane + lithium iodide; phases: Liquid
Fixed: Temperature, K = 298.15
Fixed: Pressure, kPa = 101
Property: Molar conductivity, S*m2/mol (Liquid); method: Alternating current cell with electrodes
Amount concentration (molarity), mol/dm3 of lithium iodide	Solvent: Volume fraction of acetonitrile	Molar conductivity, S*m2/mol	uncertainty
8.17e-06	0	0.001792	1.1e-05
1.498e-05	0	0.000612	4e-06
2.075e-05	0	0.000192	1e-06
2.568e-05	0	0.000191	1e-06
2.997e-05	0	0.000418	3e-06
3.702e-05	0	0.000994	6e-06
4.495e-05	0	0.001751	1.1e-05
5.081e-05	0	0.00241	1.4e-05
5.66e-05	0	0.003074	1.8e-05
6.421e-05	0	0.003828	2.3e-05
6.958e-05	0	0.004382	2.6e-05
7.293e-05	0	0.004735	2.8e-05
0.00015446	0.25	0.005516	3.3e-05
0.00019123	0.25	0.005384	3.2e-05
0.0002231	0.25	0.00528	3.2e-05
0.00025099	0.25	0.005192	3.1e-05
0.0002756	0.25	0.005124	3.1e-05
0.00028561	0.5	0.00752	4.5e-05
0.00031704	0.25	0.005	3e-05
0.00035059	0.25	0.004908	2.9e-05
0.00037157	0.5	0.007278	4.4e-05
0.0003783	0.25	0.004842	2.9e-05
0.00042141	0.25	0.004736	2.8e-05
0.0004534	0.25	0.004668	2.8e-05
0.00047726	0.75	0.008031	4.8e-05
0.00047808	0.25	0.004613	2.8e-05
0.00051365	0.25	0.004533	2.7e-05
0.00051448	0.5	0.00698	4.2e-05
0.00063698	0.5	0.006697	4e-05
0.00074314	0.5	0.006499	3.9e-05
0.00087498	0.75	0.00736	4.4e-05
0.00099086	0.5	0.00611	3.7e-05
0.00121151	0.75	0.00692	4.2e-05
0.00121605	0.5	0.005739	3.4e-05
0.00137196	0.5	0.005532	3.3e-05
0.00149996	0.75	0.006609	4e-05
0.00153274	0.5	0.00535	3.2e-05
0.00172274	0.5	0.005145	3.1e-05
0.00174995	0.75	0.006335	3.8e-05
0.0020578	0.5	0.004751	2.9e-05
0.00216171	0.75	0.005981	3.6e-05
0.00222112	0.5	0.004567	2.7e-05
0.00248678	0.75	0.005697	3.4e-05
0.00286356	0.75	0.005398	3.2e-05
0.00314992	0.75	0.005227	3.1e-05
0.00360928	0.75	0.00491	2.9e-05
0.00386832	0.75	0.004762	2.9e-05
0.00429536	0.75	0.004495	2.7e-05

System: acetonitrile + 1,3-dioxolane + lithium iodide; phases: Liquid
Fixed: Temperature, K = 298.15
Fixed: Pressure, kPa = 101
Property: Viscosity, Pa*s (Liquid); method: Capillary tube (Ostwald; Ubbelohde) method
Amount concentration (molarity), mol/dm3 of lithium iodide	Solvent: Mass fraction of acetonitrile	Viscosity, Pa*s	uncertainty
0.0142	0	0.000601	9e-06
0.0153	0.25	0.000538	8e-06
0.0165	0.5	0.000476	8e-06
0.0179	0.75	0.000413	7e-06
0.0284	0	0.000607	9e-06
0.0307	0.25	0.000544	8e-06
0.0331	0.5	0.000483	8e-06
0.0358	0.75	0.000419	7e-06
0.0427	0	0.000614	9e-06
0.0461	0.25	0.000551	8e-06
0.0497	0.5	0.000489	8e-06
0.0537	0.75	0.000426	8e-06
0.057	0	0.000621	9e-06
0.0616	0.25	0.000558	8e-06
0.0664	0.5	0.000496	8e-06
0.0714	0	0.000628	9e-06
0.0717	0.75	0.000432	8e-06
0.0771	0.25	0.000565	8e-06
0.0831	0.5	0.000503	8e-06
0.0858	0	0.000635	9e-06
0.0897	0.75	0.000438	8e-06
0.0927	0.25	0.000572	8e-06
0.0998	0.5	0.00051	8e-06
0.1078	0.75	0.000445	8e-06

System: acetonitrile + 1,3-dioxolane + lithium iodide; phases: Liquid
Fixed: Temperature, K = 298.15
Fixed: Pressure, kPa = 101
Property: Refractive index (Na D-line) (Liquid); method: Standard Abbe refractometry
Amount concentration (molarity), mol/dm3 of lithium iodide	Solvent: Mass fraction of acetonitrile	Refractive index (Na D-line)	uncertainty
0.0142	0	1.3988	0.0006
0.0153	0.25	1.3851	0.0006
0.0165	0.5	1.3712	0.0006
0.0179	0.75	1.3572	0.0006
0.0284	0	1.3997	0.0006
0.0307	0.25	1.3856	0.0006
0.0331	0.5	1.3718	0.0006
0.0358	0.75	1.3579	0.0006
0.0427	0	1.4004	0.0006
0.0461	0.25	1.3861	0.0006
0.0497	0.5	1.3724	0.0006
0.0537	0.75	1.3586	0.0006
0.057	0	1.4011	0.0006
0.0616	0.25	1.3866	0.0006
0.0664	0.5	1.3729	0.0006
0.0714	0	1.4018	0.0006
0.0717	0.75	1.3592	0.0006
0.0771	0.25	1.387	0.0006
0.0831	0.5	1.3735	0.0006
0.0858	0	1.4024	0.0006
0.0897	0.75	1.3599	0.0006
0.0927	0.25	1.3875	0.0006
0.0998	0.5	1.374	0.0006
0.1078	0.75	1.3605	0.0006

System: acetonitrile + 1,3-dioxolane + lithium iodide; phases: Liquid
Fixed: Temperature, K = 298.15
Fixed: Pressure, kPa = 101
Property: Speed of sound, m/s (Liquid); method: Linear variable-path acoustic interferometer
Amount concentration (molarity), mol/dm3 of lithium iodide	Solvent: Mass fraction of acetonitrile	Speed of sound, m/s	uncertainty
0.0142	0	1350.6	2.2
0.0153	0.25	1334.8	2.2
0.0165	0.5	1319.1	2.2
0.0179	0.75	1303.3	2.2
0.0284	0	1377.7	2.3
0.0307	0.25	1357.9	2.2
0.0331	0.5	1338.6	2.2
0.0358	0.75	1318.8	2.2
0.0427	0	1416.8	2.3
0.0461	0.25	1390.6	2.3
0.0497	0.5	1365.8	2.2
0.0537	0.75	1340.6	2.2
0.057	0	1469.7	2.4
0.0616	0.25	1433.4	2.3
0.0664	0.5	1401.2	2.3
0.0714	0	1539.7	2.6
0.0717	0.75	1368	2.2
0.0771	0.25	1489.8	2.4
0.0831	0.5	1444.8	2.3
0.0858	0	1630.2	2.7
0.0897	0.75	1402	2.3
0.0927	0.25	1558.9	2.5
0.0998	0.5	1500.9	2.4
0.1078	0.75	1444	2.3

System: acetonitrile + 1,3-dioxolane + lithium iodide; phases: Liquid
Fixed: Temperature, K = 298.15
Fixed: Pressure, kPa = 101
Property: Mass density, kg/m3 (Liquid); method: Vibrating tube method
Amount concentration (molarity), mol/dm3 of lithium iodide	Solvent: Mass fraction of acetonitrile	Mass density, kg/m3	uncertainty
0.0142	0	1058.82	0.68
0.0153	0.25	980.29	0.57
0.0165	0.5	910.09	0.53
0.0179	0.75	842.16	0.49
0.0284	0	1059.06	0.68
0.0307	0.25	980.73	0.57
0.0331	0.5	910.73	0.53
0.0358	0.75	842.96	0.49
0.0427	0	1059.4	0.68
0.0461	0.25	981.27	0.57
0.0497	0.5	911.45	0.53
0.0537	0.75	843.83	0.49
0.057	0	1059.82	0.68
0.0616	0.25	981.88	0.57
0.0664	0.5	912.23	0.53
0.0714	0	1060.32	0.68
0.0717	0.75	844.76	0.49
0.0771	0.25	982.54	0.58
0.0831	0.5	913.07	0.53
0.0858	0	1060.86	0.68
0.0897	0.75	845.75	0.49
0.0927	0.25	983.26	0.58
0.0998	0.5	913.93	0.53
0.1078	0.75	846.77	0.49
