Measured thermophysical data. Connecting thermodynamics and dynamics in a supercooled liquid: Cresolphthalein-dimethylether
Source: Thermochim. Acta, 2016, 10.1016/j.tca.2016.05.007
Compound 1: 3,3-bis(4-methoxy-3-methylphenyl)-1(3H)-isobenzofuranone, C24H22O4, InChI=1S/C24H22O4/c1-15-13-17(9-11-21(15)26-3)24(18-10-12-22(27-4)16(2)14-18)20-8-6-5-7-19(20)23(25)28-24/h5-14H,1-4H3

System: 3,3-bis(4-methoxy-3-methylphenyl)-1(3H)-isobenzofuranone; phases: Glass, Liquid, Air at 1 atmosphere
Property: Triple point temperature, K (Glass); method: Adiabatic calorimetry
Triple point temperature, K	uncertainty
314.3	0.1

System: 3,3-bis(4-methoxy-3-methylphenyl)-1(3H)-isobenzofuranone; phases: Crystal, Liquid, Air at 1 atmosphere
Property: Normal melting temperature, K (Crystal); method: DTA
Normal melting temperature, K	uncertainty
383.2	0.4

System: 3,3-bis(4-methoxy-3-methylphenyl)-1(3H)-isobenzofuranone; phases: Crystal, Liquid, Air at 1 atmosphere
Property: Molar enthalpy of transition or fusion, kJ/mol (Crystal); method: DSC
Molar enthalpy of transition or fusion, kJ/mol	uncertainty
27.9	0.6

System: 3,3-bis(4-methoxy-3-methylphenyl)-1(3H)-isobenzofuranone; phases: Crystal
Fixed: Pressure, kPa = 101.325
Property: Molar heat capacity at constant pressure, J/K/mol (Crystal); method: Small (less than 1 g) adiabatic calorimetry
Temperature, K	Molar heat capacity at constant pressure, J/K/mol	uncertainty
6.011	1.6584	0.0535
6.4858	2.1764	0.0645
6.977	2.7971	0.078
7.4984	3.4612	0.0932
8.0606	4.2491	0.1108
8.6496	5.2096	0.1325
9.2737	6.2066	0.1548
9.939	7.4178	0.1286
10.635	8.7635	0.1473
11.339	10.209	0.167
12.026	11.579	0.185
12.712	13.076	0.205
13.408	14.578	0.225
14.127	16.225	0.246
14.887	18.081	0.269
15.677	19.907	0.291
16.489	21.799	0.314
17.043	22.934	0.327
17.915	25.252	0.354
18.784	27.273	0.376
19.67	29.414	0.4
20.58	31.373	0.42
21.499	33.682	0.444
22.448	35.73	0.464
23.443	38.11	0.488
24.477	40.684	0.513
25.543	43.241	0.536
26.634	45.569	0.556
27.74	48.132	0.579
28.859	51.607	0.611
29.986	54.092	0.353
31.116	55.63	0.295
32.249	58.377	0.307
33.391	61.176	0.318
34.557	63.784	0.328
35.742	66.504	0.338
36.945	69.152	0.348
38.167	71.701	0.357
39.404	74.008	0.366
40.657	76.393	0.376
41.941	79.005	0.386
43.233	81.435	0.396
44.51	83.924	0.406
45.785	86.54	0.416
47.059	89.055	0.426
48.333	91.125	0.435
49.603	94.599	0.45
50.873	97.148	0.459
52.143	99.727	0.47
53.413	102.49	0.48
54.682	105	0.49
55.952	107.6	0.5
57.224	109.68	0.51
58.496	112.22	0.52
59.77	114.59	0.53
61.047	116.87	0.54
62.326	119.39	0.55
63.608	121.85	0.56
64.894	123.86	0.57
66.183	125.9	0.57
67.475	128.08	0.58
68.772	130.54	0.59
70.073	132.99	0.6
71.379	135.25	0.61
72.69	137.49	0.62
74.007	139.48	0.63
75.328	141.75	0.64
76.655	144.1	0.65
77.988	146.27	0.66
79.327	148.82	0.67
80.672	150.88	0.68
82.093	152.82	0.68
83.574	155.34	0.69
85.06	157.59	0.7
86.549	160.21	0.71
88.044	162.51	0.72
89.544	164.72	0.73
91.05	167.41	0.7
92.562	169.71	0.71
94.079	172.05	0.72
95.604	174.26	0.72
97.135	176.64	0.73
98.674	178.97	0.74
100.22	181.39	0.75
101.77	183.97	0.76
103.33	186.52	0.77
104.9	188.69	0.77
106.48	190.79	0.78
108.07	193.1	0.79
109.72	195.77	0.8
111.45	198.35	0.81
113.19	200.89	0.82
114.95	203.39	0.82
116.73	205.7	0.83
118.52	209.32	0.85
120.34	211.71	0.85
122.17	213.95	0.86
124.01	216.41	0.87
125.87	218.89	0.88
127.75	221.61	0.89
129.65	224.19	0.9
131.57	226.74	0.91
133.5	229.52	0.91
135.45	232.5	0.92
137.41	235.25	0.93
139.4	237.93	0.94
141.4	240.84	0.95
143.41	243.44	0.96
145.45	246.17	0.97
147.5	249.06	0.98
149.57	252.1	0.99
151.66	254.85	1
153.77	257.6	1.01
155.89	260.26	1.02
158.03	263.29	1.03
160.19	265.94	1.04
162.37	268.95	1.05
164.56	271.82	1.06
166.77	274.83	1.07
169	277.76	1.08
171.25	280.87	1.09
173.51	283.67	1.1
175.79	286.71	1.11
178.09	289.96	1.12
180.41	293.2	1.13
182.75	296.08	1.14
185.1	299.36	1.16
187.47	302.25	1.17
189.86	305.36	1.18
192.26	308.64	1.19
194.69	311.89	1.2
197.13	315.34	1.21
199.32	317.71	1.22
201.85	321.03	1.23
204.39	324.18	1.24
206.95	328.02	1.25
209.51	331.38	1.27
212.09	334.57	1.28
214.68	337.96	1.29
217.29	341.78	1.3
219.9	345.52	1.32
222.52	348.92	1.33
225.16	352.6	1.34
227.81	355.97	1.35
230.47	359.41	1.36
233.14	362.97	1.38
235.82	366.8	1.39
238.52	370.5	1.4
241.23	373.97	1.41
243.95	377.59	1.43
246.68	381.22	1.44
249.42	384.68	1.45
252.17	388.51	1.46
254.94	392.35	1.48
257.72	395.86	1.49
260.51	399.92	1.5
263.31	403.6	1.52
266.12	407.84	1.53
268.94	412.03	1.55
271.78	417	1.56
274.62	419.54	1.57
277.48	423.7	1.59
280.36	427.79	1.6
282.95	430.44	1.61
285.84	434.94	1.62
288.75	438.86	1.64
291.64	442.83	1.65
294.51	446.52	1.66
297.4	449.56	1.67
303.26	457.78	1.7
306.21	461.74	1.72
309.18	465.91	1.73
312.18	470.02	1.75
315.19	474.07	1.76
318.23	478.43	1.77
321.28	482.81	1.79
324.35	487.1	1.8
327.44	491.54	1.82
330.55	495.88	1.84
333.68	500.17	1.85
336.81	504.57	1.87
339.94	508.36	1.88
343.08	512.55	1.89
346.25	517.45	1.91
349.43	521.7	1.92
352.63	525.97	1.94
355.85	530.55	1.96
359.09	535.23	1.97
362.34	540.42	1.99
365.61	545.96	2.01
368.9	551.67	2.03
372.2	556.9	2.05

System: 3,3-bis(4-methoxy-3-methylphenyl)-1(3H)-isobenzofuranone; phases: Glass
Fixed: Pressure, kPa = 101.325
Property: Molar heat capacity at constant pressure, J/K/mol (Glass); method: Small (less than 1 g) adiabatic calorimetry
Temperature, K	Molar heat capacity at constant pressure, J/K/mol	uncertainty
5.8022	2.9675	0.0835
6.2316	3.5255	0.0959
6.6891	4.2344	0.1116
7.1789	5.0035	0.1291
7.7149	5.8717	0.1488
8.2819	6.8851	0.1714
8.8744	8.0443	0.1974
9.4832	9.1868	0.2227
10.104	10.438	0.173
10.728	11.742	0.191
11.348	13.129	0.21
11.976	14.452	0.227
12.623	15.858	0.245
13.284	17.409	0.265
13.964	18.93	0.284
14.664	20.579	0.305
15.391	22.279	0.325
16.151	24.116	0.347
16.938	25.941	0.368
17.661	27.622	0.387
18.489	29.627	0.409
19.338	31.766	0.433
20.215	33.841	0.454
21.105	35.956	0.476
22.028	38.092	0.497
23.004	40.415	0.519
24.023	42.79	0.541
25.077	45.254	0.564
26.158	47.652	0.584
27.26	50.095	0.605
28.376	52.988	0.631
29.5	56.689	0.664
30.63	57.446	0.301
31.76	60.081	0.314
32.9	63.09	0.325
34.063	65.617	0.335
35.246	68.433	0.345
36.448	70.84	0.354
37.666	73.543	0.365
38.898	75.902	0.374
40.147	78.386	0.383
41.412	80.763	0.393
42.676	83.534	0.404
43.933	85.975	0.414
45.192	88.071	0.422
46.451	90.22	0.431
47.709	93.037	0.443
48.967	95.255	0.452
50.225	98.01	0.463
51.484	100.37	0.47
52.743	103.27	0.48
54.004	105.75	0.49
55.265	108.28	0.5
56.528	110.76	0.51
57.792	113.22	0.52
59.058	115.64	0.53
60.327	117.82	0.54
61.598	120.17	0.55
62.873	122.44	0.56
64.151	124.78	0.57
65.433	126.76	0.58
66.719	129.06	0.59
68.009	131.4	0.6
69.303	133.63	0.61
70.602	136.05	0.62
71.907	138.21	0.62
73.216	140.28	0.63
74.591	142.77	0.64
76.029	145.08	0.65
77.469	147.57	0.66
78.913	149.7	0.67
80.36	152.24	0.68
81.811	154.61	0.69
83.267	156.85	0.7
84.727	159.35	0.71
86.193	161.67	0.72
87.664	164.03	0.73
89.141	166.13	0.74
90.624	168.74	0.71
92.113	171.18	0.71
93.61	173.56	0.72
95.113	176.28	0.73
96.624	178.27	0.74
98.142	180.03	0.74
99.668	182.72	0.75
101.2	185	0.76
102.74	186.83	0.77
104.29	189.85	0.78
105.85	192.15	0.79
107.42	194.15	0.79
109	196.63	0.8
110.58	199.21	0.81
112.18	201.62	0.82
113.78	204.03	0.83
115.4	206.27	0.83
117.1	208.63	0.84
118.89	211.16	0.85
120.69	213.89	0.86
122.52	216.46	0.87
124.36	219.13	0.88
126.22	221.66	0.89
128.1	224.36	0.9
129.99	227.11	0.91
131.9	229.75	0.92
133.83	232.44	0.92
135.78	234.99	0.93
137.74	237.67	0.94
139.72	240.4	0.95
141.72	243.28	0.96
143.74	246.09	0.97
145.77	248.92	0.98
147.82	251.76	0.99
149.89	254.31	1
151.97	257.37	1.01
154.07	260.38	1.02
156.2	263.17	1.03
158.33	266.05	1.04
160.48	269	1.05
162.64	272.01	1.06
164.81	275.02	1.07
167	277.98	1.08
169.19	280.78	1.09
171.4	283.98	1.1
173.62	286.89	1.11
175.85	289.88	1.12
178.09	293	1.13
180.35	296.49	1.15
182.62	299.4	1.16
184.9	302.23	1.17
187.19	305.37	1.18
189.49	308.6	1.19
191.81	311.72	1.2
194.14	314.93	1.21
196.48	318.26	1.22
198.84	321.49	1.23
201.2	324.99	1.24
203.58	328.08	1.25
205.97	331.65	1.27
208.37	334.98	1.28
210.79	338.72	1.29
213.22	342.02	1.3
215.66	345.52	1.32
218.12	349.05	1.33
220.58	352.67	1.34
223.06	355.96	1.35
225.55	359.74	1.36
228.02	362.84	1.38
230.46	366.31	1.39
232.95	369.75	1.4
235.43	373.33	1.41
237.94	377.18	1.42
240.46	380.87	1.44
243.01	384.18	1.45
245.58	387.76	1.46
248.17	391.43	1.47
250.78	395.34	1.49
253.42	399.08	1.5
256.07	402.8	1.51
258.74	406.86	1.53
261.44	410.9	1.54
264.16	414.85	1.56
266.89	419.34	1.57
269.65	423.9	1.59
272.43	428.57	1.6
275.22	431.8	1.61
278.04	436.42	1.63
280.88	440.97	1.65
283.74	445.62	1.66
286.62	450.63	1.68
289.52	455.31	1.7
292.44	460.3	1.71
295.38	465.32	1.73
298.34	470.91	1.75
301.33	473.58	1.76
304.32	491.69	1.83
307.3	525.07	1.97
310.26	604.32	2.23
313.23	614.14	2.25

System: 3,3-bis(4-methoxy-3-methylphenyl)-1(3H)-isobenzofuranone; phases: Metastable liquid
Fixed: Pressure, kPa = 101.325
Property: Molar heat capacity at constant pressure, J/K/mol (Metastable liquid); method: Small (less than 1 g) adiabatic calorimetry
Temperature, K	Molar heat capacity at constant pressure, J/K/mol	uncertainty
316.23	622.32	2.69
319.25	625.96	2.7
322.29	629.84	2.72
325.35	633.32	2.73
328.43	636.56	2.75
331.52	639.81	2.76
334.64	642.98	2.77
337.78	646.52	2.79
340.93	649.55	2.8
344.11	652.75	2.81
347.3	656.04	2.82
350.51	659.31	2.84
353.74	662.1	2.85
356.97	665.61	2.86
360.22	669.03	2.88
363.49	672.55	2.89
366.77	676.27	2.91
370.07	680.12	2.92
