Measured thermophysical data. Excess molar enthalpies of dimethylsulfoxide with chloroethanes and chloroethenes at 298.15K
Source: Thermochim. Acta, 2007, 10.1016/j.tca.2007.08.008
Compound 1: dimethyl sulfoxide, C2H6OS, InChI=1S/C2H6OS/c1-4(2)3/h1-2H3
Compound 2: 1,2-dichloroethane, C2H4Cl2, InChI=1S/C2H4Cl2/c3-1-2-4/h1-2H2
Compound 3: 1,1,1-trichloroethane, C2H3Cl3, InChI=1S/C2H3Cl3/c1-2(3,4)5/h1H3
Compound 4: 1,1,2,2-tetrachloroethane, C2H2Cl4, InChI=1S/C2H2Cl4/c3-1(4)2(5)6/h1-2H
Compound 5: trichloroethene, C2HCl3, InChI=1S/C2HCl3/c3-1-2(4)5/h1H
Compound 6: tetrachloroethene, C2Cl4, InChI=1S/C2Cl4/c3-1(4)2(5)6

System: dimethyl sulfoxide; phases: Liquid, Gas
Property: Normal boiling temperature, K (Liquid); method: Ebulliometric method (Recirculating still)
Normal boiling temperature, K	uncertainty
462.19	0.2

System: dimethyl sulfoxide; phases: Liquid
Property: Mass density, kg/m3 (Liquid); method: Pycnometric method
Temperature, K	Pressure, kPa	Mass density, kg/m3	uncertainty
303.15	101.325	1092.4	1.03

System: 1,2-dichloroethane; phases: Liquid, Gas
Property: Normal boiling temperature, K (Liquid); method: Ebulliometric method (Recirculating still)
Normal boiling temperature, K	uncertainty
356.95	0.2

System: 1,2-dichloroethane; phases: Liquid
Property: Mass density, kg/m3 (Liquid); method: Pycnometric method
Temperature, K	Pressure, kPa	Mass density, kg/m3	uncertainty
303.15	101.325	1238.41	1.17

System: 1,1,1-trichloroethane; phases: Liquid, Gas
Property: Normal boiling temperature, K (Liquid); method: Ebulliometric method (Recirculating still)
Normal boiling temperature, K	uncertainty
347.35	0.2

System: 1,1,1-trichloroethane; phases: Liquid
Property: Mass density, kg/m3 (Liquid); method: Pycnometric method
Temperature, K	Pressure, kPa	Mass density, kg/m3	uncertainty
303.15	101.325	1320.97	1.26

System: 1,1,2,2-tetrachloroethane; phases: Liquid, Gas
Property: Normal boiling temperature, K (Liquid); method: Ebulliometric method (Recirculating still)
Normal boiling temperature, K	uncertainty
418.35	0.2

System: 1,1,2,2-tetrachloroethane; phases: Liquid
Property: Mass density, kg/m3 (Liquid); method: Pycnometric method
Temperature, K	Pressure, kPa	Mass density, kg/m3	uncertainty
303.15	101.325	1578.59	1.52

System: trichloroethene; phases: Liquid, Gas
Property: Normal boiling temperature, K (Liquid); method: Ebulliometric method (Recirculating still)
Normal boiling temperature, K	uncertainty
360.25	0.2

System: trichloroethene; phases: Liquid
Property: Mass density, kg/m3 (Liquid); method: Pycnometric method
Temperature, K	Pressure, kPa	Mass density, kg/m3	uncertainty
303.15	101.325	1451.42	1.39

System: tetrachloroethene; phases: Liquid, Gas
Property: Normal boiling temperature, K (Liquid); method: Ebulliometric method (Recirculating still)
Normal boiling temperature, K	uncertainty
394.15	0.2

System: tetrachloroethene; phases: Liquid
Property: Mass density, kg/m3 (Liquid); method: Pycnometric method
Temperature, K	Pressure, kPa	Mass density, kg/m3	uncertainty
303.15	101.325	1606.39	1.55

System: dimethyl sulfoxide + 1,2-dichloroethane; phases: Liquid
Fixed: Temperature, K = 298.15
Fixed: Pressure, kPa = 101.3
Property: Excess molar enthalpy (molar enthalpy of mixing), kJ/mol (Liquid); method: Calvet calorimetry
Mole fraction of 1,2-dichloroethane	Excess molar enthalpy (molar enthalpy of mixing), kJ/mol	uncertainty
0.0732	-0.0591	0.0016
0.1296	-0.0918	0.0023
0.1713	-0.1075	0.0026
0.2259	-0.126	0.003
0.2783	-0.1511	0.0035
0.3275	-0.1915	0.0044
0.3609	-0.2291	0.0051
0.4054	-0.2979	0.0066
0.4636	-0.3762	0.0082
0.5266	-0.4621	0.0101
0.6133	-0.5779	0.0125
0.6613	-0.5986	0.013
0.7158	-0.5474	0.0119
0.7593	-0.5309	0.0115
0.8032	-0.4451	0.0097
0.861	-0.2831	0.0063
0.9269	-0.1191	0.0028

System: dimethyl sulfoxide + 1,1,1-trichloroethane; phases: Liquid
Fixed: Temperature, K = 298.15
Fixed: Pressure, kPa = 101.3
Property: Excess molar enthalpy (molar enthalpy of mixing), kJ/mol (Liquid); method: Calvet calorimetry
Mole fraction of 1,1,1-trichloroethane	Excess molar enthalpy (molar enthalpy of mixing), kJ/mol	uncertainty
0.0243	-0.0425	0.0013
0.0579	-0.0961	0.0024
0.109	-0.1765	0.004
0.1532	-0.2354	0.0053
0.1973	-0.284	0.0063
0.244	-0.3332	0.0073
0.2857	-0.3638	0.008
0.3462	-0.3899	0.0085
0.4106	-0.4124	0.009
0.4797	-0.4129	0.009
0.5571	-0.3955	0.0087
0.6064	-0.3635	0.008
0.6632	-0.3241	0.0071
0.7189	-0.2785	0.0062
0.7771	-0.2201	0.005
0.8537	-0.1351	0.0032
0.9297	-0.0428	0.0013

System: dimethyl sulfoxide + 1,1,2,2-tetrachloroethane; phases: Liquid
Fixed: Temperature, K = 298.15
Fixed: Pressure, kPa = 101.3
Property: Excess molar enthalpy (molar enthalpy of mixing), kJ/mol (Liquid); method: Calvet calorimetry
Mole fraction of 1,1,2,2-tetrachloroethane	Excess molar enthalpy (molar enthalpy of mixing), kJ/mol	uncertainty
0.0378	-0.2946	0.0065
0.0688	-0.6239	0.0135
0.1005	-0.9566	0.0205
0.1295	-1.2863	0.0275
0.1325	-1.2912	0.0276
0.1565	-1.5557	0.0332
0.1793	-1.7718	0.0378
0.2167	-2.0662	0.0441
0.2914	-2.7285	0.0581
0.3555	-3.2401	0.069
0.4111	-3.5093	0.0747
0.4577	-3.5259	0.075
0.4979	-3.5138	0.0748
0.5577	-3.4158	0.0727
0.6277	-3.161	0.0673
0.6654	-2.9783	0.0634
0.7123	-2.7776	0.0592
0.7577	-2.5478	0.0543
0.8121	-2.1495	0.0458
0.8537	-1.8201	0.0389
0.9099	-1.0532	0.0226

System: dimethyl sulfoxide + trichloroethene; phases: Liquid
Fixed: Temperature, K = 298.15
Fixed: Pressure, kPa = 101.3
Property: Excess molar enthalpy (molar enthalpy of mixing), kJ/mol (Liquid); method: Calvet calorimetry
Mole fraction of trichloroethene	Excess molar enthalpy (molar enthalpy of mixing), kJ/mol	uncertainty
0.0673	-0.0958	0.0024
0.1345	-0.2424	0.0054
0.2079	-0.4434	0.0097
0.3016	-0.6367	0.0138
0.3784	-0.6414	0.0139
0.4461	-0.614	0.0133
0.4987	-0.5847	0.0127
0.6022	-0.4612	0.01
0.6641	-0.4271	0.0093
0.7014	-0.4102	0.009
0.737	-0.4084	0.0089
0.8114	-0.3575	0.0078
0.8611	-0.2953	0.0065
0.9151	-0.2011	0.0046

System: dimethyl sulfoxide + tetrachloroethene; phases: Liquid
Fixed: Temperature, K = 298.15
Fixed: Pressure, kPa = 101.3
Property: Excess molar enthalpy (molar enthalpy of mixing), kJ/mol (Liquid); method: Calvet calorimetry
Mole fraction of tetrachloroethene	Excess molar enthalpy (molar enthalpy of mixing), kJ/mol	uncertainty
0.0544	0.1194	0.0028
0.1116	0.2444	0.0055
0.171	0.3816	0.0084
0.2237	0.4888	0.0106
0.2735	0.5916	0.0128
0.3306	0.6504	0.014
0.385	0.6555	0.0142
0.477	0.5817	0.0126
0.5162	0.5132	0.0111
0.5695	0.4376	0.0095
0.6333	0.3623	0.0079
0.701	0.2697	0.006
0.7632	0.2186	0.0049
0.8252	0.2043	0.0046
0.8872	0.1906	0.0043
0.9519	0.1314	0.0031
