Measured thermophysical data. Thermophysical data of liquid vanadium
Source: Thermochim. Acta, 2007, 10.1016/j.tca.2006.12.010
Compound 1: vanadium, V, InChI=1S/V

System: vanadium; phases: Crystal, Liquid, Gas
Property: Molar enthalpy of transition or fusion, kJ/mol (Crystal); method: Resistive pulse heating
Molar enthalpy of transition or fusion, kJ/mol	uncertainty
20.6772057915	

System: vanadium; phases: Crystal, Liquid, Air at 1 atmosphere
Property: Normal melting temperature, K (Crystal); method: Resistive pulse heating
Normal melting temperature, K	uncertainty
2199	

System: vanadium; phases: Crystal
Property: Molar enthalpy, kJ/mol (Crystal); method: Pulse heating
Temperature, K	Pressure, kPa	Molar enthalpy, kJ/mol	uncertainty
2199	101.325	61.6595916	1.1309013

System: vanadium; phases: Liquid
Fixed: Pressure, kPa = 101.325
Property: Molar enthalpy, kJ/mol (Liquid); method: Pulse heating
Temperature, K	Molar enthalpy, kJ/mol	uncertainty
2199	82.33674645	1.5079193415
2250	84.84306825	1.55371575
2300	87.29844855	1.5996140415
2350	89.75382885	1.64541045
2400	92.20920915	1.6913087415
2450	94.66458945	1.73710515
2500	97.11996975	1.7779092915
2550	99.57535005	1.8237057
2600	102.03073035	1.8696039915
2650	104.48611065	1.9154004
2700	106.94149095	1.9611968085
2750	109.39687125	2.0070951
2800	111.85225155	2.0477973585
2850	114.30763185	2.09369565
2900	116.76301215	2.1394920585

System: vanadium; phases: Liquid
Fixed: Pressure, kPa = 101.325
Property: Thermal conductivity, W/m/K (Liquid); method: Resistive pulse heating
Temperature, K	Thermal conductivity, W/m/K	uncertainty
2199	39.08	4.69
2250	39.8	4.78
2300	40.49	4.86
2350	41.17	4.94
2400	41.82	5.02
2450	42.46	5.1
2500	43.08	5.17
2550	43.68	5.24
2600	44.26	5.31
2650	44.83	5.38
2700	45.37	5.44
2750	45.91	5.51
2800	46.42	5.57
2850	46.91	5.63
2900	47.39	5.69

System: vanadium; phases: Crystal
Property: Thermal conductivity, W/m/K (Crystal); method: Resistive pulse heating
Temperature, K	Pressure, kPa	Thermal conductivity, W/m/K	uncertainty
2199	101.325	41.35	
