Measured thermophysical data. Thermodynamics and kinetics analysis of thermal dissociation of tri-n-octylamine hydrochloride in open system: A DFT and TGA study
Source: Thermochim. Acta, 2018, 10.1016/j.tca.2018.05.017
Compound 1: hydrogen chloride, ClH, InChI=1S/ClH/h1H
Compound 2: carbon dioxide, CO2, InChI=1S/CO2/c2-1-3
Compound 3: nitrogen, N2, InChI=1S/N2/c1-2
Compound 4: water, H2O, InChI=1S/H2O/h1H2
Compound 5: oxygen, O2, InChI=1S/O2/c1-2
Compound 6: trioctylamine, C24H51N, InChI=1S/C24H51N/c1-4-7-10-13-16-19-22-25(23-20-17-14-11-8-5-2)24-21-18-15-12-9-6-3/h4-24H2,1-3H3
Compound 7: trioctylammonium chloride, C24H52ClN, InChI=1S/C24H51N.ClH/c1-4-7-10-13-16-19-22-25(23-20-17-14-11-8-5-2)24-21-18-15-12-9-6-3;/h4-24H2,1-3H3;1H

System: trioctylammonium chloride; phases: Crystal, Liquid, Air at 1 atmosphere
Property: Normal melting temperature, K (Crystal); method: DTA:corrimp
Normal melting temperature, K	uncertainty
345.35	5

System: trioctylamine; phases: Liquid, Gas
Property: Molar enthalpy of vaporization or sublimation, kJ/mol (Liquid); method: Derived by Second law
Temperature, K	Molar enthalpy of vaporization or sublimation, kJ/mol	uncertainty
505	71.85	7.29

Reaction: -1 trioctylammonium chloride + 1 hydrogen chloride + 24 carbon dioxide + .5 nitrogen + 25.5 water + -36.75 oxygen
Property: Specific internal energy of reaction at constant volume, J/g
-41413.75

Reaction: 1 trioctylamine + -1 trioctylammonium chloride + 1 hydrogen chloride
Property: Molar enthalpy of reaction, kJ/mol
194.8
