Measured thermophysical data. Enthalpies of Mixing of Liquid In-Sn and In-Sn-Zn Alloys
Source: Thermochim. Acta, 2010, 10.1016/j.tca.2010.02.008
Compound 1: indium, In, InChI=1S/In, purity 99.999%
Compound 2: tin, Sn, InChI=1S/Sn, purity 99.998%
Compound 3: zinc, Zn, InChI=1S/Zn, purity 99.999%

System: tin + indium; phases: Liquid
Fixed: Pressure, kPa = 101
Fixed: Temperature, K = 773.15
Property: Excess molar enthalpy (molar enthalpy of mixing), kJ/mol (Liquid); method: Calvet calorimetry
Mole fraction of tin	Excess molar enthalpy (molar enthalpy of mixing), kJ/mol	uncertainty
0.1	-0.183	0.003
0.1966	-0.374	0.005
0.2981	-0.437	0.005
0.4041	-0.383	0.005
0.5002	-0.331	0.004
0.5005	-0.316	0.004
0.5949	-0.301	0.004
0.6901	-0.241	0.003
0.7891	-0.165	0.003
0.8975	-0.087	0.002

System: tin + zinc + indium; phases: Liquid
Fixed: Pressure, kPa = 101
Fixed: Temperature, K = 773.15
Property: Excess molar enthalpy (molar enthalpy of mixing), kJ/mol (Liquid); method: Calvet calorimetry
Mole fraction of tin	Mole fraction of zinc	Excess molar enthalpy (molar enthalpy of mixing), kJ/mol	uncertainty
0.0601	0.5974	3.144	0.032
0.063	0.5781	3.153	0.033
0.066	0.5576	3.151	0.033
0.0694	0.5352	3.13	0.032
0.0729	0.5115	3.099	0.032
0.0768	0.4854	3.058	0.032
0.081	0.4569	2.995	0.031
0.0858	0.4251	2.892	0.03
0.091	0.3901	2.764	0.029
0.0969	0.3505	2.59	0.027
0.1029	0.3106	2.364	0.025
0.1094	0.267	2.075	0.022
0.1164	0.2197	1.741	0.018
0.1234	0.1732	1.381	0.015
0.1312	0.121	0.933	0.01
0.1398	0.0634	0.381	0.005
0.1425	0.5715	3.088	0.032
0.15	0.5487	3.082	0.032
0.1577	0.5256	3.056	0.032
0.166	0.5006	3.019	0.031
0.1744	0.4754	2.978	0.031
0.1744	0.6516	3.013	0.031
0.1834	0.4484	2.913	0.03
0.1857	0.629	3.041	0.031
0.1931	0.419	2.816	0.029
0.1984	0.6037	3.062	0.032
0.2035	0.3878	2.687	0.028
0.2127	0.5751	3.044	0.031
0.2142	0.3556	2.533	0.026
0.2257	0.321	2.353	0.025
0.2267	0.5471	3.012	0.031
0.2382	0.2836	2.127	0.022
0.2424	0.5157	2.957	0.031
0.2511	0.2448	1.859	0.02
0.2604	0.4797	2.893	0.03
0.2651	0.2026	1.534	0.016
0.2797	0.4413	2.782	0.029
0.2804	0.1566	1.161	0.013
0.2968	0.1073	0.702	0.008
0.299	0.5499	3.2	0.033
0.3002	0.4003	2.631	0.027
0.3147	0.0532	0.155	0.003
0.3163	0.5238	3.148	0.032
0.3229	0.3549	2.419	0.025
0.3337	0.4976	3.079	0.032
0.3486	0.3035	2.166	0.023
0.3525	0.4693	2.995	0.031
0.3563	0.5797	3.199	0.033
0.373	0.4385	2.881	0.03
0.3732	0.5598	3.189	0.033
0.3786	0.2436	1.758	0.019
0.3904	0.5395	3.161	0.033
0.3958	0.4041	2.731	0.028
0.4085	0.5182	3.125	0.032
0.414	0.1729	1.195	0.013
0.4214	0.3655	2.556	0.027
0.4283	0.4948	3.07	0.032
0.4494	0.3234	2.346	0.024
0.45	0.4692	2.998	0.031
0.4541	0.0927	0.483	0.006
0.4733	0.4418	2.914	0.03
0.4788	0.2792	2.096	0.022
0.4982	0.4124	2.798	0.029
0.5054	0.2392	1.829	0.019
0.5257	0.3799	2.661	0.028
0.5336	0.1967	1.51	0.016
0.5558	0.3444	2.474	0.026
0.5645	0.1501	1.138	0.012
0.5887	0.3056	2.251	0.024
0.5969	0.1014	0.729	0.008
0.6243	0.2636	2.008	0.021
0.6297	0.052	0.267	0.004
0.6603	0.2212	1.716	0.018
0.7	0.1743	1.38	0.015
0.7446	0.1217	0.964	0.011
0.7952	0.062	0.465	0.006

System: tin + zinc + indium; phases: Liquid
Fixed: Pressure, kPa = 101
Fixed: Temperature, K = 773.15
Property: Excess molar enthalpy (molar enthalpy of mixing), kJ/mol (Liquid); method: Calvet calorimetry
Mole fraction of indium	Mole fraction of tin	Excess molar enthalpy (molar enthalpy of mixing), kJ/mol	uncertainty
0.1515	0.708	0.992	0.011
0.1586	0.6942	1.061	0.012
0.1663	0.6793	1.117	0.012
0.1741	0.6644	1.175	0.013
0.1821	0.6489	1.24	0.013
0.1908	0.6321	1.291	0.014
0.1915	0.7273	0.557	0.007
0.2002	0.6142	1.352	0.015
0.2004	0.7146	0.586	0.007
0.2097	0.7013	0.616	0.007
0.2103	0.5945	1.426	0.015
0.2197	0.6871	0.656	0.008
0.2215	0.573	1.504	0.016
0.2302	0.6721	0.694	0.008
0.2338	0.5493	1.586	0.017
0.2414	0.6563	0.717	0.008
0.2473	0.5233	1.666	0.018
0.2534	0.6391	0.749	0.009
0.2605	0.4978	1.752	0.019
0.2665	0.6204	0.8	0.009
0.2746	0.4707	1.85	0.02
0.2805	0.6005	0.848	0.009
0.2897	0.4415	1.949	0.02
0.2957	0.5789	0.903	0.01
0.3066	0.4089	2.057	0.022
0.3119	0.5557	0.979	0.011
0.3245	0.3745	2.167	0.023
0.33	0.53	1.039	0.011
0.3439	0.3371	2.275	0.024
0.3501	0.5014	1.125	0.012
0.3647	0.2971	2.399	0.025
0.3698	0.4734	1.175	0.013
0.3867	0.2546	2.522	0.026
0.3912	0.4428	1.263	0.014
0.4096	0.2105	2.636	0.027
0.4151	0.4088	1.361	0.015
0.4331	0.1651	2.779	0.029
0.4419	0.3706	1.474	0.016
0.4595	0.1143	2.923	0.03
0.4711	0.329	1.636	0.017
0.4879	0.0594	3.042	0.031
0.5039	0.2824	1.734	0.018
0.5388	0.2326	1.871	0.02
0.576	0.1797	2.018	0.021
0.6179	0.1199	2.202	0.023
0.6629	0.0559	2.346	0.024
