Measured thermophysical data. Thermodynamic properties of binary liquid mixtures of diethylenetriamine with alcohols at  different temperatures
Source: Thermochim. Acta, 2011, 10.1016/j.tca.2011.06.003
Compound 1: di(2-aminoethyl)amine, C4H13N3, InChI=1S/C4H13N3/c5-1-3-7-4-2-6/h7H,1-6H2, purity 99.5%
Compound 2: 2-methyl-1-propanol, C4H10O, InChI=1S/C4H10O/c1-4(2)3-5/h4-5H,3H2,1-2H3, purity 99.5%
Compound 3: propan-2-ol, C3H8O, InChI=1S/C3H8O/c1-3(2)4/h3-4H,1-2H3, purity 99.5%
Compound 4: butan-1-ol, C4H10O, InChI=1S/C4H10O/c1-2-3-4-5/h5H,2-4H2,1H3, purity 99.5%

System: di(2-aminoethyl)amine; phases: Liquid
Property: Viscosity, Pa*s (Liquid); method: Capillary tube (Ostwald; Ubbelohde) method
Temperature, K	Pressure, kPa	Viscosity, Pa*s	uncertainty
298.15	101.325	0.0056272	3.29e-05

System: di(2-aminoethyl)amine; phases: Liquid
Property: Speed of sound, m/s (Liquid); method: Sing-around technique in a fixed-path interferometer
Temperature, K	Pressure, kPa	Speed of sound, m/s	uncertainty
298.15	101.325	1670.5	1

System: di(2-aminoethyl)amine; phases: Liquid
Property: Mass density, kg/m3 (Liquid); method: Vibrating tube method
Temperature, K	Pressure, kPa	Mass density, kg/m3	uncertainty
298.15	101.325	945.548	0.099

System: 2-methyl-1-propanol; phases: Liquid
Property: Viscosity, Pa*s (Liquid); method: Capillary tube (Ostwald; Ubbelohde) method
Temperature, K	Pressure, kPa	Viscosity, Pa*s	uncertainty
298.15	101.325	0.003307	2e-05

System: 2-methyl-1-propanol; phases: Liquid
Property: Speed of sound, m/s (Liquid); method: Sing-around technique in a fixed-path interferometer
Temperature, K	Pressure, kPa	Speed of sound, m/s	uncertainty
298.15	101.325	1188.8	0.8

System: 2-methyl-1-propanol; phases: Liquid
Property: Mass density, kg/m3 (Liquid); method: Vibrating tube method
Temperature, K	Pressure, kPa	Mass density, kg/m3	uncertainty
298.15	101.325	798.104	0.144

System: propan-2-ol; phases: Liquid
Property: Viscosity, Pa*s (Liquid); method: Capillary tube (Ostwald; Ubbelohde) method
Temperature, K	Pressure, kPa	Viscosity, Pa*s	uncertainty
298.15	101.325	0.002063	1.3e-05

System: propan-2-ol; phases: Liquid
Property: Speed of sound, m/s (Liquid); method: Sing-around technique in a fixed-path interferometer
Temperature, K	Pressure, kPa	Speed of sound, m/s	uncertainty
298.15	101.325	1140.4	0.8

System: propan-2-ol; phases: Liquid
Property: Mass density, kg/m3 (Liquid); method: Vibrating tube method
Temperature, K	Pressure, kPa	Mass density, kg/m3	uncertainty
298.15	101.325	781.482	0.149

System: butan-1-ol; phases: Liquid
Property: Viscosity, Pa*s (Liquid); method: Capillary tube (Ostwald; Ubbelohde) method
Temperature, K	Pressure, kPa	Viscosity, Pa*s	uncertainty
298.15	101.325	0.002565	1.6e-05

System: butan-1-ol; phases: Liquid
Property: Speed of sound, m/s (Liquid); method: Sing-around technique in a fixed-path interferometer
Temperature, K	Pressure, kPa	Speed of sound, m/s	uncertainty
298.15	101.325	1241.1	0.8

System: butan-1-ol; phases: Liquid
Property: Mass density, kg/m3 (Liquid); method: Vibrating tube method
Temperature, K	Pressure, kPa	Mass density, kg/m3	uncertainty
298.15	101.325	805.953	0.141

System: 2-methyl-1-propanol + di(2-aminoethyl)amine; phases: Liquid
Fixed: Pressure, kPa = 101
Property: Viscosity, Pa*s (Liquid); method: CAPTUB:UFactor:2
Temperature, K	Mole fraction of di(2-aminoethyl)amine	Viscosity, Pa*s	uncertainty
298.15	0.054	0.004027	4.5e-05
298.15	0.1043	0.004548	5.1e-05
298.15	0.1529	0.005094	5.7e-05
298.15	0.2068	0.005514	6e-05
298.15	0.2535	0.00573	6.2e-05
298.15	0.305	0.005908	6.3e-05
298.15	0.4057	0.006024	6.4e-05
298.15	0.5036	0.005962	6.4e-05
298.15	0.6053	0.005795	6.2e-05
298.15	0.7048	0.005661	6.1e-05
298.15	0.8098	0.005603	6.1e-05
298.15	0.8522	0.005574	6e-05
298.15	0.9074	0.005541	6e-05
298.15	0.9537	0.005539	6e-05
303.15	0.054	0.003292	3.8e-05
303.15	0.1043	0.003707	4.2e-05
303.15	0.1529	0.004092	4.6e-05
303.15	0.2068	0.004365	4.9e-05
303.15	0.2535	0.004521	5.1e-05
303.15	0.305	0.004656	5.2e-05
303.15	0.4057	0.004762	5.3e-05
303.15	0.5036	0.004732	5.3e-05
303.15	0.6053	0.004695	5.3e-05
303.15	0.7048	0.004652	5.2e-05
303.15	0.8098	0.004575	5.1e-05
303.15	0.8522	0.004525	5.1e-05
303.15	0.9074	0.004508	5.1e-05
303.15	0.9537	0.00449	5e-05
308.15	0.054	0.002815	3.2e-05
308.15	0.1043	0.003146	3.6e-05
308.15	0.1529	0.003463	3.9e-05
308.15	0.2068	0.003654	4.1e-05
308.15	0.2535	0.003768	4.3e-05
308.15	0.305	0.003855	4.4e-05
308.15	0.4057	0.003927	4.4e-05
308.15	0.5036	0.003966	4.5e-05
308.15	0.6053	0.003919	4.4e-05
308.15	0.7048	0.003899	4.4e-05
308.15	0.8098	0.003817	4.3e-05
308.15	0.8522	0.003807	4.3e-05
308.15	0.9074	0.003789	4.3e-05
308.15	0.9537	0.00378	4.3e-05

System: 2-methyl-1-propanol + di(2-aminoethyl)amine; phases: Liquid
Fixed: Pressure, kPa = 101
Property: Speed of sound, m/s (Liquid); method: Sing-around technique in a fixed-path interferometer
Temperature, K	Mole fraction of di(2-aminoethyl)amine	Speed of sound, m/s	uncertainty
293.15	0.054	1243	0.8
293.15	0.1043	1275.2	0.8
293.15	0.1529	1305.2	0.8
293.15	0.2068	1337.4	0.9
293.15	0.2535	1364.9	0.9
293.15	0.305	1390.5	0.9
293.15	0.4057	1439.4	0.9
293.15	0.5036	1484.7	0.9
293.15	0.6053	1531.6	0.9
293.15	0.7048	1570.3	0.9
293.15	0.8098	1613.2	0.9
293.15	0.8522	1630.9	0.9
293.15	0.9074	1653.2	0.9
293.15	0.9537	1671.9	1
298.15	0.054	1226.2	0.8
298.15	0.1043	1258	0.8
298.15	0.1529	1287.9	0.8
298.15	0.2068	1319.8	0.8
298.15	0.2535	1345.4	0.9
298.15	0.305	1372.5	0.9
298.15	0.4057	1421.6	0.9
298.15	0.5036	1466.7	0.9
298.15	0.6053	1511.4	0.9
298.15	0.7048	1551.7	0.9
298.15	0.8098	1594.3	0.9
298.15	0.8522	1611.7	0.9
298.15	0.9074	1633.9	0.9
298.15	0.9537	1651.9	0.9
303.15	0.054	1209.3	0.8
303.15	0.1043	1241.1	0.8
303.15	0.1529	1270.7	0.8
303.15	0.2068	1302.4	0.8
303.15	0.2535	1328.1	0.8
303.15	0.305	1355.1	0.9
303.15	0.4057	1404.1	0.9
303.15	0.5036	1449.2	0.9
303.15	0.6053	1493.2	0.9
303.15	0.7048	1533.6	0.9
303.15	0.8098	1575.5	0.9
303.15	0.8522	1592.9	0.9
303.15	0.9074	1614.5	0.9
303.15	0.9537	1632.6	0.9
308.15	0.054	1192.6	0.8
308.15	0.1043	1224.2	0.8
308.15	0.1529	1254	0.8
308.15	0.2068	1285.4	0.8
308.15	0.2535	1310.6	0.8
308.15	0.305	1337.4	0.8
308.15	0.4057	1386.9	0.9
308.15	0.5036	1431.7	0.9
308.15	0.6053	1475.8	0.9
308.15	0.7048	1515.9	0.9
308.15	0.8098	1556.7	0.9
308.15	0.8522	1574.1	0.9
308.15	0.9074	1595.3	0.9
308.15	0.9537	1613.3	0.9
313.15	0.054	1175.8	0.8
313.15	0.1043	1208	0.8
313.15	0.1529	1237.8	0.8
313.15	0.2068	1269.1	0.8
313.15	0.2535	1294.6	0.8
313.15	0.305	1321.3	0.8
313.15	0.4057	1371	0.9
313.15	0.5036	1414.9	0.9
313.15	0.6053	1459.1	0.9
313.15	0.7048	1499.5	0.9
313.15	0.8098	1538.9	0.9
313.15	0.8522	1555.8	0.9
313.15	0.9074	1576.3	0.9
313.15	0.9537	1593.7	0.9

System: 2-methyl-1-propanol + di(2-aminoethyl)amine; phases: Liquid
Fixed: Pressure, kPa = 101
Property: Mass density, kg/m3 (Liquid); method: Vibrating tube method
Temperature, K	Mole fraction of di(2-aminoethyl)amine	Mass density, kg/m3	uncertainty
293.15	0.054	815.237	0.144
293.15	0.1043	826.644	0.14
293.15	0.1529	836.817	0.136
293.15	0.2068	847.162	0.132
293.15	0.2535	855.512	0.129
293.15	0.305	863.833	0.125
293.15	0.4057	878.879	0.12
293.15	0.5036	892.182	0.116
293.15	0.6053	905.319	0.113
293.15	0.7048	919.507	0.107
293.15	0.8098	929.46	0.1
293.15	0.8522	933.916	0.103
293.15	0.9074	939.952	0.101
293.15	0.9537	944.995	0.1
298.15	0.054	811.313	0.145
298.15	0.1043	822.66	0.14
298.15	0.1529	832.792	0.137
298.15	0.2068	843.096	0.133
298.15	0.2535	851.38	0.13
298.15	0.305	859.744	0.127
298.15	0.4057	874.785	0.122
298.15	0.5036	888.088	0.118
298.15	0.6053	901.203	0.114
298.15	0.7048	915.398	0.109
298.15	0.8098	925.283	0.105
298.15	0.8522	929.73	0.1
298.15	0.9074	935.74	0.1
298.15	0.9537	940.776	0.101
303.15	0.054	807.355	0.146
303.15	0.1043	818.653	0.142
303.15	0.1529	828.735	0.138
303.15	0.2068	839.013	0.135
303.15	0.2535	847.289	0.131
303.15	0.305	855.641	0.128
303.15	0.4057	870.683	0.123
303.15	0.5036	883.968	0.119
303.15	0.6053	897.071	0.115
303.15	0.7048	911.268	0.11
303.15	0.8098	921.103	0.106
303.15	0.8522	925.54	0.11
303.15	0.9074	931.531	0.104
303.15	0.9537	936.554	0.102
308.15	0.054	803.363	0.147
308.15	0.1043	814.618	0.144
308.15	0.1529	824.666	0.14
308.15	0.2068	834.918	0.136
308.15	0.2535	843.178	0.133
308.15	0.305	851.532	0.129
308.15	0.4057	866.568	0.124
308.15	0.5036	879.851	0.12
308.15	0.6053	892.938	0.116
308.15	0.7048	907.117	0.111
308.15	0.8098	916.922	0.108
308.15	0.8522	921.354	0.107
308.15	0.9074	927.328	0.105
308.15	0.9537	932.338	0.104
313.15	0.054	799.326	0.149
313.15	0.1043	810.545	0.145
313.15	0.1529	820.566	0.141
313.15	0.2068	830.795	0.137
313.15	0.2535	839.045	0.134
313.15	0.305	847.399	0.131
313.15	0.4057	862.439	0.126
313.15	0.5036	875.718	0.121
313.15	0.6053	888.795	0.117
313.15	0.7048	902.896	0.114
313.15	0.8098	912.74	0.11
313.15	0.8522	917.161	0.108
313.15	0.9074	923.121	0.106
313.15	0.9537	928.116	0.105

System: propan-2-ol + di(2-aminoethyl)amine; phases: Liquid
Fixed: Pressure, kPa = 101
Property: Viscosity, Pa*s (Liquid); method: CAPTUB:UFactor:2
Temperature, K	Mole fraction of di(2-aminoethyl)amine	Viscosity, Pa*s	uncertainty
298.15	0.0532	0.002514	2.9e-05
298.15	0.1022	0.002884	3.3e-05
298.15	0.1556	0.003313	3.8e-05
298.15	0.2053	0.003628	4.1e-05
298.15	0.2541	0.00397	4.5e-05
298.15	0.3083	0.004268	4.8e-05
298.15	0.4044	0.004708	5.3e-05
298.15	0.5025	0.004984	5.6e-05
298.15	0.6122	0.005192	5.7e-05
298.15	0.711	0.005223	5.8e-05
298.15	0.8021	0.005286	5.8e-05
298.15	0.8555	0.005383	5.9e-05
298.15	0.9092	0.005441	5.9e-05
298.15	0.953	0.00554	6e-05
303.15	0.0532	0.002087	2.5e-05
303.15	0.1022	0.002388	2.8e-05
303.15	0.1556	0.002697	3.1e-05
303.15	0.2053	0.002976	3.4e-05
303.15	0.2541	0.003217	3.7e-05
303.15	0.3083	0.003423	3.9e-05
303.15	0.4044	0.003721	4.2e-05
303.15	0.5025	0.003901	4.4e-05
303.15	0.6122	0.00408	4.6e-05
303.15	0.711	0.004184	4.7e-05
303.15	0.8021	0.004264	4.8e-05
303.15	0.8555	0.004357	4.9e-05
303.15	0.9092	0.004423	5e-05
303.15	0.953	0.00447	5e-05
308.15	0.0532	0.001858	2.2e-05
308.15	0.1022	0.002064	2.4e-05
308.15	0.1556	0.002315	2.7e-05
308.15	0.2053	0.002526	2.9e-05
308.15	0.2541	0.002708	3.1e-05
308.15	0.3083	0.002875	3.3e-05
308.15	0.4044	0.003121	3.6e-05
308.15	0.5025	0.003296	3.8e-05
308.15	0.6122	0.003442	3.9e-05
308.15	0.711	0.003539	4e-05
308.15	0.8021	0.003608	4.1e-05
308.15	0.8555	0.003683	4.2e-05
308.15	0.9092	0.003734	4.2e-05
308.15	0.953	0.003771	4.3e-05

System: propan-2-ol + di(2-aminoethyl)amine; phases: Liquid
Fixed: Pressure, kPa = 101
Property: Speed of sound, m/s (Liquid); method: Sing-around technique in a fixed-path interferometer
Temperature, K	Mole fraction of di(2-aminoethyl)amine	Speed of sound, m/s	uncertainty
293.15	0.0534	1206.4	0.8
293.15	0.1022	1244.9	0.8
293.15	0.1556	1283.2	0.8
293.15	0.2053	1318.6	0.8
293.15	0.2541	1350.5	0.9
293.15	0.3083	1383.9	0.9
293.15	0.4044	1438.7	0.9
293.15	0.5025	1488.6	0.9
293.15	0.6122	1538.2	0.9
293.15	0.711	1583.2	0.9
293.15	0.8021	1618.9	0.9
293.15	0.8555	1638	0.9
293.15	0.9092	1658.5	0.9
293.15	0.953	1673.3	1
298.15	0.0534	1188.7	0.8
298.15	0.1022	1227.2	0.8
298.15	0.1556	1265.5	0.8
298.15	0.2053	1300.9	0.8
298.15	0.2541	1332.6	0.9
298.15	0.3083	1365.9	0.9
298.15	0.4044	1420.7	0.9
298.15	0.5025	1470	0.9
298.15	0.6122	1518.9	0.9
298.15	0.711	1563.1	0.9
298.15	0.8021	1599.5	0.9
298.15	0.8555	1618.5	0.9
298.15	0.9092	1638.7	0.9
298.15	0.953	1653.4	0.9
303.15	0.0534	1171.2	0.8
303.15	0.1022	1209.5	0.8
303.15	0.1556	1247.7	0.8
303.15	0.2053	1282.9	0.8
303.15	0.2541	1314.6	0.8
303.15	0.3083	1347.8	0.9
303.15	0.4044	1402.2	0.9
303.15	0.5025	1452.9	0.9
303.15	0.6122	1503.2	0.9
303.15	0.711	1543	0.9
303.15	0.8021	1579.1	0.9
303.15	0.8555	1599	0.9
303.15	0.9092	1619	0.9
303.15	0.953	1634.5	0.9
308.15	0.0534	1153.7	0.8
308.15	0.1022	1191.8	0.8
308.15	0.1556	1230	0.8
308.15	0.2053	1265.1	0.8
308.15	0.2541	1296.8	0.8
308.15	0.3083	1329.7	0.8
308.15	0.4044	1383.3	0.9
308.15	0.5025	1432.7	0.9
308.15	0.6122	1483.5	0.9
308.15	0.711	1525.3	0.9
308.15	0.8021	1561.5	0.9
308.15	0.8555	1580.4	0.9
308.15	0.9092	1599.6	0.9
308.15	0.953	1615.1	0.9
313.15	0.0534	1136.1	0.8
313.15	0.1022	1174.3	0.8
313.15	0.1556	1212.7	0.8
313.15	0.2053	1247.5	0.8
313.15	0.2541	1278.6	0.8
313.15	0.3083	1311.4	0.8
313.15	0.4044	1365.6	0.9
313.15	0.5025	1415.7	0.9
313.15	0.6122	1467	0.9
313.15	0.711	1509.1	0.9
313.15	0.8021	1543.4	0.9
313.15	0.8555	1562.1	0.9
313.15	0.9092	1580.8	0.9
313.15	0.953	1595.2	0.9

System: propan-2-ol + di(2-aminoethyl)amine; phases: Liquid
Fixed: Pressure, kPa = 101
Property: Mass density, kg/m3 (Liquid); method: Vibrating tube method
Temperature, K	Mole fraction of di(2-aminoethyl)amine	Mass density, kg/m3	uncertainty
293.15	0.0534	803.892	0.153
293.15	0.1022	818.972	0.145
293.15	0.1556	830.953	0.14
293.15	0.2053	842.389	0.136
293.15	0.2541	852.667	0.132
293.15	0.3083	863.147	0.127
293.15	0.4044	880.002	0.121
293.15	0.5025	894.43	0.12
293.15	0.6122	909.336	0.111
293.15	0.711	921.252	0.107
293.15	0.8021	930.895	0.104
293.15	0.8555	936.343	0.102
293.15	0.9092	941.621	0.1
293.15	0.953	945.719	0.099
298.15	0.0534	799.63	0.15
298.15	0.1022	814.391	0.147
298.15	0.1556	826.675	0.141
298.15	0.2053	838.104	0.137
298.15	0.2541	848.377	0.133
298.15	0.3083	858.864	0.129
298.15	0.4044	875.743	0.123
298.15	0.5025	890.185	0.117
298.15	0.6122	905.106	0.112
298.15	0.711	917.035	0.108
298.15	0.8021	926.667	0.105
298.15	0.8555	932.115	0.103
298.15	0.9092	937.389	0.102
298.15	0.953	941.486	0.1
303.15	0.0534	795.321	0.155
303.15	0.1022	809.803	0.148
303.15	0.1556	822.362	0.142
303.15	0.2053	833.79	0.14
303.15	0.2541	844.065	0.134
303.15	0.3083	854.559	0.13
303.15	0.4044	871.471	0.124
303.15	0.5025	885.922	0.119
303.15	0.6122	900.866	0.114
303.15	0.711	912.782	0.11
303.15	0.8021	922.433	0.106
303.15	0.8555	927.887	0.105
303.15	0.9092	933.158	0.103
303.15	0.953	937.25	0.1
308.15	0.0534	790.957	0.156
308.15	0.1022	805.422	0.15
308.15	0.1556	818.019	0.144
308.15	0.2053	829.45	0.14
308.15	0.2541	839.731	0.135
308.15	0.3083	850.238	0.131
308.15	0.4044	867.103	0.125
308.15	0.5025	881.653	0.12
308.15	0.6122	896.616	0.115
308.15	0.711	908.535	0.111
308.15	0.8021	918.202	0.108
308.15	0.8555	923.66	0.11
308.15	0.9092	928.927	0.104
308.15	0.953	933.022	0.103
313.15	0.0534	786.529	0.157
313.15	0.1022	801.012	0.151
313.15	0.1556	813.627	0.145
313.15	0.2053	825.068	0.141
313.15	0.2541	835.36	0.14
313.15	0.3083	845.885	0.133
313.15	0.4044	862.786	0.127
313.15	0.5025	877.353	0.121
313.15	0.6122	892.409	0.117
313.15	0.711	904.278	0.112
313.15	0.8021	913.964	0.109
313.15	0.8555	919.421	0.107
313.15	0.9092	924.691	0.105
313.15	0.953	928.787	0.104

System: butan-1-ol + di(2-aminoethyl)amine; phases: Liquid
Fixed: Pressure, kPa = 101
Property: Viscosity, Pa*s (Liquid); method: CAPTUB:UFactor:2
Temperature, K	Mole fraction of di(2-aminoethyl)amine	Viscosity, Pa*s	uncertainty
298.15	0.0517	0.003066	3.5e-05
298.15	0.1085	0.003551	4e-05
298.15	0.153	0.003907	4.4e-05
298.15	0.2024	0.004256	4.8e-05
298.15	0.2524	0.004526	5.1e-05
298.15	0.3079	0.004772	5.3e-05
298.15	0.4082	0.005076	5.6e-05
298.15	0.5013	0.005214	5.8e-05
298.15	0.6067	0.005317	5.8e-05
298.15	0.7079	0.005331	5.8e-05
298.15	0.8	0.005368	5.9e-05
298.15	0.8548	0.005433	5.9e-05
298.15	0.9075	0.005485	6e-05
298.15	0.9525	0.005562	6e-05
303.15	0.0517	0.002576	3e-05
303.15	0.1085	0.003027	3.5e-05
303.15	0.153	0.003256	3.7e-05
303.15	0.2024	0.00352	4e-05
303.15	0.2524	0.003768	4.3e-05
303.15	0.3079	0.003919	4.4e-05
303.15	0.4082	0.004169	4.7e-05
303.15	0.5013	0.004262	4.8e-05
303.15	0.6067	0.004302	4.8e-05
303.15	0.7079	0.004323	4.9e-05
303.15	0.8	0.004335	4.9e-05
303.15	0.8548	0.004346	4.9e-05
303.15	0.9075	0.004366	4.9e-05
303.15	0.9525	0.004422	5e-05
308.15	0.0517	0.0022697	2.65e-05
308.15	0.1085	0.0026215	3.03e-05
308.15	0.153	0.0028104	3.24e-05
308.15	0.2024	0.0030273	3.47e-05
308.15	0.2524	0.0031979	3.66e-05
308.15	0.3079	0.0033408	3.81e-05
308.15	0.4082	0.0035243	4.01e-05
308.15	0.5013	0.0036174	4.11e-05
308.15	0.6067	0.0036424	4.13e-05
308.15	0.7079	0.0036706	4.16e-05
308.15	0.8	0.0036891	4.18e-05
308.15	0.8548	0.0037121	4.21e-05
308.15	0.9075	0.0037307	4.23e-05
308.15	0.9525	0.0037706	4.27e-05

System: butan-1-ol + di(2-aminoethyl)amine; phases: Liquid
Fixed: Pressure, kPa = 101
Property: Speed of sound, m/s (Liquid); method: Sing-around technique in a fixed-path interferometer
Temperature, K	Mole fraction of di(2-aminoethyl)amine	Speed of sound, m/s	uncertainty
293.15	0.0517	1288	0.8
293.15	0.1085	1319.9	0.8
293.15	0.153	1343.3	0.9
293.15	0.2024	1369.5	0.9
293.15	0.2524	1393.7	0.9
293.15	0.3079	1419.6	0.9
293.15	0.4082	1464.1	0.9
293.15	0.5013	1502.4	0.9
293.15	0.6067	1543.5	0.9
293.15	0.7079	1581.6	0.9
293.15	0.8	1616.5	0.9
293.15	0.8548	1637	0.9
293.15	0.9075	1656.6	0.9
293.15	0.9525	1673.3	1
298.15	0.0517	1271	0.8
298.15	0.1085	1302.9	0.8
298.15	0.153	1327.1	0.8
298.15	0.2024	1351.9	0.9
298.15	0.2524	1376.5	0.9
298.15	0.3079	1402.5	0.9
298.15	0.4082	1446.5	0.9
298.15	0.5013	1484.6	0.9
298.15	0.6067	1525.4	0.9
298.15	0.7079	1562.9	0.9
298.15	0.8	1597.5	0.9
298.15	0.8548	1617.8	0.9
298.15	0.9075	1637.4	0.9
298.15	0.9525	1653.8	0.9
303.15	0.0517	1254.2	0.8
303.15	0.1085	1285.9	0.8
303.15	0.153	1309.9	0.8
303.15	0.2024	1335.1	0.8
303.15	0.2524	1359.6	0.9
303.15	0.3079	1385.5	0.9
303.15	0.4082	1429.3	0.9
303.15	0.5013	1467.1	0.9
303.15	0.6067	1507.7	0.9
303.15	0.7079	1545.1	0.9
303.15	0.8	1579.2	0.9
303.15	0.8548	1598.6	0.9
303.15	0.9075	1617.5	0.9
303.15	0.9525	1633.6	0.9
308.15	0.0517	1237.4	0.8
308.15	0.1085	1269.3	0.8
308.15	0.153	1293.2	0.8
308.15	0.2024	1318.5	0.8
308.15	0.2524	1343	0.8
308.15	0.3079	1368.6	0.9
308.15	0.4082	1412.2	0.9
308.15	0.5013	1450.2	0.9
308.15	0.6067	1490	0.9
308.15	0.7079	1527.2	0.9
308.15	0.8	1560.9	0.9
308.15	0.8548	1580.1	0.9
308.15	0.9075	1598.6	0.9
308.15	0.9525	1614.5	0.9
313.15	0.0517	1220.9	0.8
313.15	0.1085	1253.3	0.8
313.15	0.153	1277.3	0.8
313.15	0.2024	1302.4	0.8
313.15	0.2524	1327.4	0.8
313.15	0.3079	1352.7	0.9
313.15	0.4082	1396.2	0.9
313.15	0.5013	1433.9	0.9
313.15	0.6067	1473.9	0.9
313.15	0.7079	1510.5	0.9
313.15	0.8	1543.6	0.9
313.15	0.8548	1563	0.9
313.15	0.9075	1580.1	0.9
313.15	0.9525	1594.8	0.9

System: butan-1-ol + di(2-aminoethyl)amine; phases: Liquid
Fixed: Pressure, kPa = 101
Property: Mass density, kg/m3 (Liquid); method: Vibrating tube method
Temperature, K	Mole fraction of di(2-aminoethyl)amine	Mass density, kg/m3	uncertainty
293.15	0.0517	821.995	0.141
293.15	0.1085	834.306	0.137
293.15	0.153	843.084	0.133
293.15	0.2024	852.085	0.13
293.15	0.2524	860.585	0.127
293.15	0.3079	869.265	0.123
293.15	0.4082	883.406	0.119
293.15	0.5013	895.464	0.115
293.15	0.6067	908.152	0.111
293.15	0.7079	919.755	0.107
293.15	0.8	929.638	0.104
293.15	0.8548	935.634	0.103
293.15	0.9075	941.042	0.101
293.15	0.9525	945.451	0.099
298.15	0.0517	818.115	0.142
298.15	0.1085	830.363	0.138
298.15	0.153	839.101	0.135
298.15	0.2024	848.068	0.131
298.15	0.2524	856.54	0.13
298.15	0.3079	865.207	0.125
298.15	0.4082	879.335	0.12
298.15	0.5013	891.374	0.116
298.15	0.6067	904.038	0.112
298.15	0.7079	915.617	0.109
298.15	0.8	925.474	0.106
298.15	0.8548	931.448	0.104
298.15	0.9075	936.842	0.102
298.15	0.9525	941.233	0.101
303.15	0.0517	814.209	0.144
303.15	0.1085	826.401	0.14
303.15	0.153	835.096	0.136
303.15	0.2024	844.036	0.133
303.15	0.2524	852.484	0.129
303.15	0.3079	861.136	0.126
303.15	0.4082	875.244	0.121
303.15	0.5013	887.28	0.12
303.15	0.6067	899.921	0.113
303.15	0.7079	911.479	0.11
303.15	0.8	921.305	0.107
303.15	0.8548	927.266	0.105
303.15	0.9075	932.668	0.103
303.15	0.9525	937.017	0.102
308.15	0.0517	810.286	0.145
308.15	0.1085	822.424	0.141
308.15	0.153	831.084	0.137
308.15	0.2024	839.988	0.134
308.15	0.2524	848.419	0.131
308.15	0.3079	857.059	0.127
308.15	0.4082	871.155	0.123
308.15	0.5013	883.174	0.119
308.15	0.6067	895.798	0.115
308.15	0.7079	907.33	0.11
308.15	0.8	917.129	0.108
308.15	0.8548	923.082	0.106
308.15	0.9075	928.432	0.104
308.15	0.9525	932.798	0.103
313.15	0.0517	806.326	0.146
313.15	0.1085	818.415	0.142
313.15	0.153	827.042	0.138
313.15	0.2024	835.917	0.135
313.15	0.2524	844.331	0.132
313.15	0.3079	852.959	0.129
313.15	0.4082	867.047	0.124
313.15	0.5013	879.057	0.12
313.15	0.6067	891.664	0.116
313.15	0.7079	903.173	0.112
313.15	0.8	912.964	0.109
313.15	0.8548	918.81	0.108
313.15	0.9075	924.23	0.106
313.15	0.9525	928.584	0.104
