Measured thermophysical data. Kinetics-based simulation approach to evaluate thermal hazards of benzaldehyde oxime by DSC tests
Source: Thermochim. Acta, 2017, 10.1016/j.tca.2017.07.015
Compound 1: benzaldehyde oxime, C7H7NO, InChI=1S/C7H7NO/c9-8-6-7-4-2-1-3-5-7/h1-6,9H, purity 97%

System: benzaldehyde oxime; phases: Crystal, Liquid, Air at 1 atmosphere
Property: Normal melting temperature, K (Crystal); method: DTA
Normal melting temperature, K	uncertainty
302.85	0.5

System: benzaldehyde oxime; phases: Crystal, Liquid, Air at 1 atmosphere
Property: Molar enthalpy of transition or fusion, kJ/mol (Crystal); method: DSC
Molar enthalpy of transition or fusion, kJ/mol	uncertainty
14.197211864	1.356730144
