Measured thermophysical data. Solubility of 1,3,5,7-tetra azatricyclo[3.3.1.13,7]decane (HMT) in water from 275.15K to 313.15K
Source: Thermochim. Acta, 2006, 10.1016/j.tca.2006.08.010
Compound 1: 1,3,5,7-tetraazaadamantane, C6H12N4, InChI=1S/C6H12N4/c1-7-2-9-4-8(1)5-10(3-7)6-9/h1-6H2
Compound 2: water, H2O, InChI=1S/H2O/h1H2
Compound 3: potassium chloride, ClK, InChI=1S/ClH.K/h1H;/q;+1/p-1

System: 1,3,5,7-tetraazaadamantane + water; phases: Liquid, Crystal
Fixed: Pressure, kPa = 101
Property: Mass fraction of 1,3,5,7-tetraazaadamantane (Liquid); method: Phase equilibration
Temperature, K	Mass fraction of 1,3,5,7-tetraazaadamantane	uncertainty
275.15	0.4552	0.0201
277.15	0.4465	0.0201
279.15	0.4409	0.0201
283.15	0.4311	0.0201
284.15	0.4621	0.0201
285.15	0.4608	0.0201
288.15	0.4559	0.0201
293.15	0.4434	0.0201
298.15	0.4332	0.0201
303.15	0.4438	0.0201
308.15	0.4513	0.0201
313.15	0.4558	0.0201

System: potassium chloride + water; phases: Liquid, Crystal
Fixed: Pressure, kPa = 101
Property: Mass fraction of potassium chloride (Liquid); method: Phase equilibration
Temperature, K	Mass fraction of potassium chloride	uncertainty
275.15	0.2205	0.005
277.15	0.2241	0.005
279.15	0.2282	0.005
283.15	0.2363	0.005
288.15	0.2459	0.005
293.15	0.2551	0.0051
298.15	0.2664	0.0051
303.15	0.2706	0.0051
313.15	0.286	0.0051
