Measured thermophysical data. Density of molten sulfur in the 334 508K range
Source: Thermochim. Acta, 2007, 10.1016/j.tca.2007.03.016
Compound 1: sulfur, S, InChI=1S/S

System: sulfur; phases: Liquid, Gas
Property: Mass density, kg/m3 (Liquid); method: Pycnometric method
Temperature, K	Mass density, kg/m3	uncertainty
334.3	1848.86	27.77
335.3	1848.17	27.77
336.3	1847.82	27.77
337.3	1846.09	27.73
338.3	1844.88	27.73
339.4	1844.36	27.7
340.4	1842.46	27.67
341.4	1841.94	27.67
342.5	1841.42	27.65
343.5	1839.87	27.63
344.5	1839.87	27.63
346.6	1838.15	27.6
348.6	1837.81	27.59
350.8	1835.41	27.58
352.8	1833.18	27.54
354.8	1830.97	27.51
356.9	1829.77	27.52
358.9	1828.24	27.48
361	1823.16	27.41
363.1	1823.16	27.36
365.1	1821.81	27.34
367.3	1821.14	27.37
369.3	1817.43	27.31
371.3	1815.76	27.31
373.4	1813.41	27.25
375.4	1810.74	27.22
377.5	1809.08	27.16
379.5	1808.41	27.15
381.6	1807.08	27.14
383.8	1804.76	27.16
385.8	1801.46	27.1
387.8	1798.16	27.07
389.9	1795.87	26.97
391.9	1794.55	26.96
394	1792.92	26.96
396.1	1789.33	26.88
398.1	1788.19	26.87
400.2	1787.06	26.85
402.2	1784.95	26.81
404.3	1782.84	26.8
406.4	1780.59	26.75
408.4	1778.65	26.72
410.5	1777.37	26.69
412.5	1777.05	26.69
414.6	1774.16	26.71
416.7	1770.65	26.63
418.7	1770.01	26.62
420.8	1766.51	26.53
422.8	1768.1	26.55
424.9	1765.25	26.53
426.9	1762.4	26.49
429.1	1761.77	26.45
431	1760.03	26.42
433.1	1759.56	26.41
435.1	1759.25	26.41
437.3	1757.99	26.4
439.3	1756.73	26.37
441.3	1755.79	26.35
443.4	1757.05	26.37
445.4	1756.11	26.36
447.5	1754.85	26.38
449.6	1751.57	26.3
451.6	1751.57	26.3
453.8	1751.1	26.3
455.8	1749.55	26.27
457.8	1747.68	26.24
459.9	1748.21	26.25
461.9	1746.13	26.22
464	1744.89	26.22
466	1743.04	26.19
468.1	1740.57	26.13
470.3	1742.73	26.16
472.3	1739.95	26.12
474.3	1740.57	26.14
476.3	1739.65	26.12
478.4	1737.49	26.09
480.4	1737.95	26.1
481.5	1736.88	26.07
482.5	1735.96	26.06
483.5	1735.35	26.06
484.6	1736.88	26.1
485.6	1734.74	26.06
486.6	1730.46	26
487.8	1731.83	26.04
488.8	1731.68	26
489.8	1728.64	25.96
490.8	1728.94	25.98
491.8	1728.64	25.97
492.8	1727.73	25.94
493.8	1727.12	25.93
494.9	1727.58	25.94
495.9	1728.03	25.95
496.9	1726.67	25.93
498	1725.3	25.92
499	1724.7	25.91
500	1723.49	25.89
501	1724.09	25.9
502.1	1722.89	25.88
503.1	1721.98	25.89
504.1	1721.53	25.86
505.3	1719.87	25.85
506.3	1720.17	25.84
507.3	1717.47	25.84

System: sulfur; phases: Liquid, Gas
Property: Mass density, kg/m3 (Liquid); method: Pycnometric method
Temperature, K	Mass density, kg/m3	uncertainty
345.65	1861.71	28.04
347.65	1857.67	27.95
349.75	1854.53	27.9
351.75	1852.26	27.87
353.85	1848.7	27.76
355.85	1849.59	27.78
357.95	1846.93	27.79
360.05	1843.39	27.68
362.05	1844.27	27.7
364.15	1842.06	27.8
366.15	1840.06	27.74
368.25	1831.54	27.67
370.35	1830.66	27.51
372.35	1828.89	27.48
374.45	1825.42	27.43
376.45	1824.98	27.43
378.55	1821.96	27.37
380.65	1821.33	27.4
382.65	1817.65	27.34
384.75	1813.8	27.24
386.75	1812.51	27.22
388.85	1812.94	27.22
390.95	1809.95	27.2
392.95	1810.38	27.2
395.05	1806.78	27.16
396.05	1807.57	27.18
397.05	1804.4	27.13
399.15	1802.94	27.09
401.25	1800.6	27.06
403.25	1801.02	27.06
405.35	1796.4	27
407.35	1793.46	26.97
409.45	1794.3	26.95
411.55	1790.13	26.91
413.55	1788.46	26.9
415.65	1786.8	26.84
417.65	1783.45	26.8
419.75	1783.04	26.77
421.85	1780.98	26.76
423.85	1778.92	26.73
425.95	1777.27	26.69
427.95	1776.04	26.67
430.05	1774.4	26.63
432.15	1775.22	26.64
434.15	1774.4	26.63
436.25	1773.18	26.62
438.25	1774.81	26.64
440.35	1771.13	26.61
442.35	1771.95	26.62
444.45	1769.1	26.57
446.55	1768.69	26.56
448.55	1769.1	26.56
450.65	1771.95	26.6
452.65	1769.91	26.56
454.75	1767.88	26.55
456.85	1767.07	26.53
458.85	1765.44	26.5
460.95	1765.44	26.52
462.95	1764.82	26.51
465.05	1760.56	26.44
467.15	1762.36	26.45
469.15	1759.76	26.41
471.25	1760.56	26.43
