Measured thermophysical data. Synthesis, characterization and thermochemical properties of four new  lanthanide complexes with 3,5-diisopropylsalicylic acid and 1,10-phenanthroline
Source: Thermochim. Acta, 2012, 10.1016/j.tca.2012.08.005
Compound 1: lanthanum 3,5-diisopropylsalicylate, complex with 1,10-phenanthroline, C102H118La2N4O18, InChI=1S/6C13H18O3.2C12H8N2.2La/c6*1-7(2)9-5-10(8(3)4)12(14)11(6-9)13(15)16;2*1-3-9-5-6-10-4-2-8-14-12(10)11(9)13-7-1;;/h6*5-8,14H,1-4H3,(H,15,16);2*1-8H;;/q;;;;;;;;2*+3/p-6, purity 99%
Compound 2: neodymium 3,5-diisopropylsalicylate, complex with 1,10-phenanthroline, C102H118N4Nd2O18, InChI=1S/6C13H18O3.2C12H8N2.2Nd/c6*1-7(2)9-5-10(8(3)4)12(14)11(6-9)13(15)16;2*1-3-9-5-6-10-4-2-8-14-12(10)11(9)13-7-1;;/h6*5-8,14H,1-4H3,(H,15,16);2*1-8H;;/q;;;;;;;;2*+3/p-6, purity 99%
Compound 3: europium 3,5-diisopropylsalicylate, complex with 1,10-phenanthroline, C102H118Eu2N4O18, InChI=1S/6C13H18O3.2C12H8N2.2Eu/c6*1-7(2)9-5-10(8(3)4)12(14)11(6-9)13(15)16;2*1-3-9-5-6-10-4-2-8-14-12(10)11(9)13-7-1;;/h6*5-8,14H,1-4H3,(H,15,16);2*1-8H;;/q;;;;;;;;2*+3/p-6, purity 99%
Compound 4: terbium 3,5-diisopropylsalicylate, complex with 1,10-phenanthroline, C102H118N4O18Tb2, InChI=1S/6C13H18O3.2C12H8N2.2Tb/c6*1-7(2)9-5-10(8(3)4)12(14)11(6-9)13(15)16;2*1-3-9-5-6-10-4-2-8-14-12(10)11(9)13-7-1;;/h6*5-8,14H,1-4H3,(H,15,16);2*1-8H;;/q;;;;;;;;2*+3/p-6, purity 99%

System: lanthanum 3,5-diisopropylsalicylate, complex with 1,10-phenanthroline; phases: Crystal
Fixed: Pressure, kPa = 101.325
Property: Molar heat capacity at constant pressure, J/K/mol (Crystal); method: Small sample (50 mg) DSC
Temperature, K	Molar heat capacity at constant pressure, J/K/mol	uncertainty
263.15	2997.06	59.94
267.07	3033.993	60.68
270.99	3074.16	61.48
274.91	3115.144	62.303
278.83	3156.78	63.14
282.75	3199.046	63.981
286.67	3242.536	64.851
290.59	3282.197	65.644
294.51	3326.679	66.534
298.43	3363.962	67.28
302.35	3406.459	68.129
306.27	3444.415	68.889
310.19	3485.167	69.704
314.11	3518.562	70.371
318.03	3555.692	71.114
321.95	3591.003	71.82
325.87	3625.524	72.511
329.79	3659.538	73.191
333.71	3691.901	73.838
337.63	3735.096	74.702
341.55	3773.4	75.5
345.47	3803.06	76.06
349.39	3825.117	76.502
353.31	3850.054	77.001
357.23	3884.81	77.7
361.15	3915.173	78.304
365.07	3935.529	78.711
368.99	3957.852	79.157
372.91	3987.954	79.759
376.83	4016.125	80.323
380.75	4045.76	80.92
384.67	4075.42	81.51
388.59	4100.548	82.011
392.51	4126.267	82.525
396.43	4154.634	83.093
400.35	4183.38	83.67
404.27	4213.919	84.279
408.19	4242.65	84.85
412.11	4269.971	85.4
416.03	4301.36	86.03
419.95	4333.635	86.673
423.87	4360.503	87.21
427.79	4390.605	87.812
431.71	4425.406	88.508
435.63	4459.479	89.19
439.55	4499.263	89.986
443.47	4543.854	90.877
447.39	4589.594	91.792
451.31	4644.928	92.899
455.23	4697.018	93.941
459.15	4754.431	95.089
463.07	4821.855	96.438
466.99	4890.149	97.804
470.91	4955.833	99.117
474.83	5026.899	100.539

System: neodymium 3,5-diisopropylsalicylate, complex with 1,10-phenanthroline; phases: Crystal
Fixed: Pressure, kPa = 101.325
Property: Molar heat capacity at constant pressure, J/K/mol (Crystal); method: Small sample (50 mg) DSC
Temperature, K	Molar heat capacity at constant pressure, J/K/mol	uncertainty
263.15	2666.109	53.322
267.07	2700.506	54.01
270.99	2733.869	54.678
274.91	2766.096	55.322
278.83	2803.023	56.061
282.75	2834.316	56.687
286.67	2864.779	57.296
290.59	2895.06	57.9
294.51	2925.138	58.503
298.43	2953.392	59.068
302.35	2983.109	59.662
306.27	3012.964	60.259
310.19	3040.68	60.81
314.11	3070.293	61.406
318.03	3100.831	62.017
321.95	3128.665	62.573
325.87	3159.983	63.2
329.79	3190.372	63.808
333.71	3222.738	64.455
337.63	3257.984	65.16
341.55	3289.95	65.8
345.47	3325.334	66.507
349.39	3363.323	67.267
353.31	3400.546	68.011
357.23	3436.054	68.721
361.15	3471.375	69.428
365.07	3506.646	70.133
368.99	3542.905	70.858
372.91	3576.21	71.52
376.83	3608.037	72.161
380.75	3639.74	72.79
384.67	3671.182	73.424
388.59	3709.936	74.199
392.51	3744.219	74.885
396.43	3771.495	75.43
400.35	3806.109	76.122
404.27	3839.512	76.79
408.19	3871.048	77.421
412.11	3898.334	77.967
416.03	3927.972	78.56
419.95	3950.395	79.008
423.87	3978.146	79.563
427.79	4012.641	80.253
431.71	4045.852	80.917
435.63	4074.981	81.5
439.55	4110.736	82.215
443.47	4147.46	82.95
447.39	4182.592	83.652
451.31	4222.281	84.446
455.23	4264.93	85.3
459.15	4319.407	86.388
463.07	4360.297	87.206
466.99	4405.964	88.12
470.91	4448.381	88.968
474.83	4486.962	89.739

System: europium 3,5-diisopropylsalicylate, complex with 1,10-phenanthroline; phases: Crystal
Fixed: Pressure, kPa = 101.325
Property: Molar heat capacity at constant pressure, J/K/mol (Crystal); method: Small sample (50 mg) DSC
Temperature, K	Molar heat capacity at constant pressure, J/K/mol	uncertainty
263.15	2615.569	52.312
267.07	2646.056	52.921
270.99	2674.352	53.487
274.91	2705.526	54.111
278.83	2735.007	54.7
282.75	2764.021	55.281
286.67	2791.734	55.835
290.59	2817.903	56.358
294.51	2849.362	56.987
298.43	2880.7	57.6
302.35	2908.588	58.172
306.27	2938.273	58.766
310.19	2974.024	59.481
314.11	3004.232	60.085
318.03	3042.807	60.856
321.95	3083.677	61.674
325.87	3129.059	62.582
329.79	3176.279	63.526
333.71	3217.408	64.349
337.63	3266.296	65.326
341.55	3316.678	66.334
345.47	3362.792	67.256
349.39	3397.054	67.941
353.31	3416.785	68.336
357.23	3424.852	68.497
361.15	3432.626	68.653
365.07	3444.891	68.898
368.99	3464.239	69.285
372.91	3490.787	69.816
376.83	3518.764	70.375
380.75	3551.039	71.021
384.67	3580.052	71.601
388.59	3612.695	72.254
392.51	3638.571	72.772
396.43	3666.299	73.326
400.35	3690.068	73.801
404.27	3720.067	74.401
408.19	3748.846	74.977
412.11	3771.381	75.428
416.03	3799.711	75.994
419.95	3827.221	76.545
423.87	3850.507	77.01
427.79	3878.599	77.572
431.71	3909.863	78.197
435.63	3937.944	78.759
439.55	3964.024	79.281
443.47	3985.767	79.715
447.39	4004.451	80.089
451.31	4021.274	80.426
455.23	4041.741	80.835
459.15	4066.476	81.33
463.07	4084.359	81.687
466.99	4104.772	82.096
470.91	4125.409	82.508
474.83	4150.767	83.015

System: terbium 3,5-diisopropylsalicylate, complex with 1,10-phenanthroline; phases: Crystal
Fixed: Pressure, kPa = 101.325
Property: Molar heat capacity at constant pressure, J/K/mol (Crystal); method: Small sample (50 mg) DSC
Temperature, K	Molar heat capacity at constant pressure, J/K/mol	uncertainty
263.15	2240.169	44.804
267.07	2272.022	45.441
270.99	2303.635	46.073
274.91	2338.748	46.775
278.83	2369.474	47.39
282.75	2404.101	48.082
286.67	2440.151	48.803
290.59	2475.375	49.508
294.51	2509.375	50.188
298.43	2543.866	50.878
302.35	2579.511	51.591
306.27	2611.37	52.23
310.19	2639.437	52.789
314.11	2665.9	53.3
318.03	2688.978	53.78
321.95	2712.442	54.249
325.87	2738.95	54.78
329.79	2767.87	55.36
333.71	2795.014	55.9
337.63	2822.856	56.457
341.55	2849.705	56.994
345.47	2876.544	57.531
349.39	2902.916	58.058
353.31	2930.081	58.602
357.23	2955.295	59.106
361.15	2975.881	59.518
365.07	2989.3	59.8
368.99	2992.65	59.85
372.91	2997.55	59.95
376.83	3007.684	60.154
380.75	3020.296	60.406
384.67	3039.016	60.78
388.59	3057.26	61.15
392.51	3075.188	61.504
396.43	3093.301	61.866
400.35	3112.257	62.245
404.27	3131.483	62.63
408.19	3152.736	63.055
412.11	3172.614	63.452
416.03	3190.717	63.814
419.95	3208.088	64.162
423.87	3222.586	64.452
427.79	3238.779	64.776
431.71	3256.626	65.133
435.63	3269.785	65.396
439.55	3285.792	65.716
443.47	3300.61	66.01
447.39	3314.135	66.283
451.31	3328.111	66.562
455.23	3344.459	66.889
459.15	3361.364	67.227
463.07	3376.955	67.539
466.99	3391.753	67.835
470.91	3403.026	68.061
474.83	3418.121	68.362
