Measured thermophysical data. Thermodynamic characteristics and phonon density of states of Pt(C5H7O2)2
Source: Thermochim. Acta, 2018, 10.1016/j.tca.2018.10.016
Compound 1: platinum acetylacetonate, C10H14O4Pt, InChI=1S/2C5H7O2.Pt/c2*1-4(6)3-5(2)7;/h2*3H,1-2H3;/q2*-1;+2

System: platinum acetylacetonate; phases: Crystal, Liquid, Air at 1 atmosphere
Property: Normal melting temperature, K (Crystal); method: DTA
Normal melting temperature, K	uncertainty
515	6

System: platinum acetylacetonate; phases: Crystal
Fixed: Pressure, kPa = 101.325
Property: Molar heat capacity at constant pressure, J/K/mol (Crystal); method: DSC
Temperature, K	Molar heat capacity at constant pressure, J/K/mol	uncertainty
310	301	16.1
320	308	16.4
330	315	16.8
340	322	17.2
350	329.1	17.6
360	336.1	17.9
370	343	18.3
380	350	18.7
390	357	19.1
400	363.9	19.4
410	370.9	19.8
420	377.9	20.2
430	385	20.6
440	392	20.9
450	399.2	21.3
460	406.4	21.7
470	413.7	22.1
480	421.1	22.5
490	428.7	22.9
500	436.3	23.3
510	444.2	23.7
515	448.2	23.9

System: platinum acetylacetonate; phases: Crystal
Fixed: Pressure, kPa = 101.325
Property: Molar entropy, J/K/mol (Crystal); method: DSC
Temperature, K	Molar entropy, J/K/mol	uncertainty
310	373.5	29.9
320	383.1	30.7
330	392.7	31.4
340	402.2	32.2
350	411.7	33
360	421	33.7
370	430.3	34.5
380	439.6	35.2
390	448.7	35.9
400	457.9	36.7
410	466.9	37.4
420	476	38.1
430	484.9	38.8
440	493.9	39.6
450	502.8	40.3
460	511.6	41
470	520.4	41.7
480	529.2	42.4
490	538	43.1
500	546.7	43.8
510	555.4	44.5
515	559.8	44.8

System: platinum acetylacetonate; phases: Crystal
Fixed: Pressure, kPa = 101.325
Property: Molar enthalpy, kJ/mol (Crystal); method: DSC
Temperature, K	Molar enthalpy, kJ/mol	uncertainty
310	54.9	2.9
320	57.9	3.1
330	61	3.3
340	64.2	3.4
350	67.5	3.6
360	70.8	3.8
370	74.2	4
380	77.6	4.1
390	81.2	4.3
400	84.8	4.5
410	88.5	4.7
420	92.2	4.9
430	96	5.1
440	99.9	5.3
450	103.9	5.5
460	107.9	5.8
470	112	6
480	116.2	6.2
490	120.4	6.4
500	124.7	6.7
510	129.1	6.9
515	131.4	7
