Measured thermophysical data. Effect of temperature on the dilution enthalpies of carboxylic acids in aqueous solutions
Source: Thermochim. Acta, 2009, 10.1016/j.tca.2008.10.013
Compound 1: propanoic acid, C3H6O2, InChI=1S/C3H6O2/c1-2-3(4)5/h2H2,1H3,(H,4,5)
Compound 2: butanoic acid, C4H8O2, InChI=1S/C4H8O2/c1-2-3-4(5)6/h2-3H2,1H3,(H,5,6)
Compound 3: pentanoic acid, C5H10O2, InChI=1S/C5H10O2/c1-2-3-4-5(6)7/h2-4H2,1H3,(H,6,7)
Compound 4: hexanoic acid, C6H12O2, InChI=1S/C6H12O2/c1-2-3-4-5-6(7)8/h2-5H2,1H3,(H,7,8)
Compound 5: water, H2O, InChI=1S/H2O/h1H2

System: propanoic acid + water; phases: Liquid
Fixed: Pressure, kPa = 101.3
Property: Molar enthalpy of dilution, kJ/mol (Liquid); method: Flow calorimetry
Temperature, K	Initial molality of solute, mol/kg	Final molality of solute, mol/kg	Molar enthalpy of dilution, kJ/mol	uncertainty
293.15	0.4816	0.25368	-0.18091	0.00281
293.15	0.6148	0.32238	-0.20361	0.00304
293.15	0.8216	0.42791	-0.24353	0.00344
293.15	1.1356	0.58539	-0.37175	0.00472
293.15	1.5328	0.78	-0.52383	0.00624
293.15	1.8435	0.92877	-0.62561	0.00726
293.15	2.2143	1.10252	-0.74918	0.00849
293.15	2.7614	1.35156	-0.94638	0.01046
293.15	3.9651	1.87077	-1.28743	0.01388
293.15	5.1884	2.36148	-1.27968	0.0138
293.15	7.2616	3.11839	-1.12282	0.01223
298.15	0.4816	0.25368	-0.16539	0.00266
298.15	0.6148	0.32238	-0.19515	0.00295
298.15	0.8216	0.42791	-0.2412	0.00341
298.15	1.1356	0.58539	-0.35618	0.00456
298.15	1.5328	0.78	-0.50396	0.00604
298.15	1.8435	0.92877	-0.61431	0.00714
298.15	2.2143	1.10252	-0.74746	0.00847
298.15	2.7614	1.35156	-0.94495	0.01045
298.15	3.9651	1.87077	-1.23379	0.01334
298.15	5.1884	2.36148	-1.20917	0.01309
298.15	7.2616	3.11839	-1.07162	0.01172
303.15	0.4816	0.25368	-0.15028	0.0025
303.15	0.6148	0.32238	-0.18692	0.00287
303.15	0.8216	0.42791	-0.23894	0.00339
303.15	1.1356	0.58539	-0.34019	0.0044
303.15	1.5328	0.78	-0.48355	0.00584
303.15	1.8435	0.92877	-0.6027	0.00703
303.15	2.2143	1.10252	-0.74578	0.00846
303.15	2.7614	1.35156	-0.9435	0.01044
303.15	3.9651	1.87077	-1.17872	0.01279
303.15	5.1884	2.36148	-1.16903	0.01269
303.15	7.2616	3.11839	-1.12419	0.01224
308.15	0.4816	0.25368	-0.13455	0.00235
308.15	0.6148	0.32238	-0.17835	0.00278
308.15	0.8216	0.42791	-0.23658	0.00337
308.15	1.1356	0.58539	-0.32483	0.00425
308.15	1.5328	0.78	-0.46395	0.00564
308.15	1.8435	0.92877	-0.59155	0.00692
308.15	2.2143	1.10252	-0.74404	0.00844
308.15	2.7614	1.35156	-0.94208	0.01042
308.15	3.9651	1.87077	-1.1258	0.01226
308.15	5.1884	2.36148	-1.08334	0.01184
308.15	7.2616	3.11839	-1.02111	0.01122

System: butanoic acid + water; phases: Liquid
Fixed: Pressure, kPa = 101.3
Property: Molar enthalpy of dilution, kJ/mol (Liquid); method: Flow calorimetry
Temperature, K	Initial molality of solute, mol/kg	Final molality of solute, mol/kg	Molar enthalpy of dilution, kJ/mol	uncertainty
293.15	0.86413	0.44942	-0.50365	0.00604
293.15	1.1245	0.57986	-0.67251	0.00773
293.15	1.64497	0.83404	-0.92792	0.01028
293.15	2.13665	1.06647	-1.06553	0.01166
293.15	2.5106	1.23845	-1.00783	0.01108
293.15	2.63873	1.29646	-0.96919	0.01069
293.15	3.61877	1.72526	-0.72104	0.00822
293.15	3.98508	1.87908	-0.63628	0.00737
293.15	4.6798	2.16173	-0.45268	0.00553
293.15	4.89518	2.24704	-0.40159	0.00502
293.15	5.2893	2.4004	-0.31229	0.00413
293.15	5.6397	2.53386	-0.23232	0.00332
298.15	0.86413	0.44942	-0.48314	0.00583
298.15	1.1245	0.57986	-0.64802	0.00748
298.15	1.64497	0.83404	-0.91014	0.0101
298.15	2.13665	1.06647	-1.02727	0.01127
298.15	2.5106	1.23845	-0.96567	0.01066
298.15	2.63873	1.29646	-0.92707	0.01027
298.15	3.61877	1.72526	-0.6547	0.0076
298.15	3.98508	1.87908	-0.56746	0.00668
298.15	4.6798	2.16173	-0.40255	0.00503
298.15	4.89518	2.24704	-0.35854	0.00459
298.15	5.2893	2.4004	-0.28374	0.00384
298.15	5.6397	2.53386	-0.21948	0.0032
303.15	0.86413	0.44942	-0.46528	0.00565
303.15	1.1245	0.57986	-0.62669	0.00727
303.15	1.64497	0.83404	-0.89466	0.00995
303.15	2.13665	1.06647	-0.99395	0.01094
303.15	2.5106	1.23845	-0.92895	0.01029
303.15	2.63873	1.29646	-0.89038	0.00991
303.15	3.61877	1.72526	-0.59692	0.00697
303.15	3.98508	1.87908	-0.50752	0.00608
303.15	4.6798	2.16173	-0.35889	0.00459
303.15	4.89518	2.24704	-0.32104	0.00421
303.15	5.2893	2.4004	-0.25888	0.00359
303.15	5.6397	2.53386	-0.20829	0.00308
308.15	0.86413	0.44942	-0.44345	0.00544
308.15	1.1245	0.57986	-0.60062	0.00701
308.15	1.64497	0.83404	-0.87573	0.00976
308.15	2.13665	1.06647	-0.95322	0.01053
308.15	2.5106	1.23845	-0.88407	0.00984
308.15	2.63873	1.29646	-0.84554	0.00946
308.15	3.61877	1.72526	-0.5263	0.0063
308.15	3.98508	1.87908	-0.43426	0.00535
308.15	4.6798	2.16173	-0.30553	0.00406
308.15	4.89518	2.24704	-0.27521	0.00376
308.15	5.2893	2.4004	-0.22849	0.00329
308.15	5.6397	2.53386	-0.19462	0.00295

System: pentanoic acid + water; phases: Liquid
Fixed: Pressure, kPa = 101.3
Property: Molar enthalpy of dilution, kJ/mol (Liquid); method: Flow calorimetry
Temperature, K	Initial molality of solute, mol/kg	Final molality of solute, mol/kg	Molar enthalpy of dilution, kJ/mol	uncertainty
293.15	0.1043	0.05564	-0.06444	0.00165
293.15	0.112	0.05973	-0.07134	0.00172
293.15	0.1208	0.06441	-0.08143	0.00182
293.15	0.1289	0.06871	-0.09123	0.00191
293.15	0.1371	0.07306	-0.09694	0.00197
293.15	0.1423	0.07581	-0.10079	0.00201
293.15	0.1516	0.08074	-0.10875	0.00209
293.15	0.1594	0.08488	-0.1134	0.00214
293.15	0.1643	0.08747	-0.11598	0.00216
293.15	0.1713	0.09118	-0.12039	0.00221
293.15	0.1774	0.0944	-0.12392	0.00224
293.15	0.1908	0.10149	-0.12963	0.0023
298.15	0.1043	0.05564	-0.06275	0.00163
298.15	0.112	0.05973	-0.06946	0.0017
298.15	0.1208	0.06441	-0.07929	0.0018
298.15	0.1289	0.06871	-0.08883	0.00189
298.15	0.1371	0.07306	-0.09439	0.00195
298.15	0.1423	0.07581	-0.09814	0.00198
298.15	0.1516	0.08074	-0.10589	0.00206
298.15	0.1594	0.08488	-0.11042	0.00211
298.15	0.1643	0.08747	-0.11293	0.00213
298.15	0.1713	0.09118	-0.11723	0.00217
298.15	0.1774	0.0944	-0.12066	0.00221
298.15	0.1908	0.10149	-0.12622	0.00226
303.15	0.1043	0.05564	-0.06241	0.00163
303.15	0.112	0.05973	-0.06909	0.00169
303.15	0.1208	0.06441	-0.07886	0.00179
303.15	0.1289	0.06871	-0.08836	0.00189
303.15	0.1371	0.07306	-0.09389	0.00194
303.15	0.1423	0.07581	-0.09762	0.00198
303.15	0.1516	0.08074	-0.10532	0.00206
303.15	0.1594	0.08488	-0.10983	0.0021
303.15	0.1643	0.08747	-0.11232	0.00213
303.15	0.1713	0.09118	-0.1166	0.0022
303.15	0.1774	0.0944	-0.12002	0.0022
303.15	0.1908	0.10149	-0.12555	0.00226
308.15	0.1043	0.05564	-0.06004	0.0016
308.15	0.112	0.05973	-0.06646	0.00167
308.15	0.1208	0.06441	-0.07587	0.00176
308.15	0.1289	0.06871	-0.085	0.00185
308.15	0.1371	0.07306	-0.09032	0.00191
308.15	0.1423	0.07581	-0.09391	0.00194
308.15	0.1516	0.08074	-0.10132	0.00202
308.15	0.1594	0.08488	-0.10566	0.00206
308.15	0.1643	0.08747	-0.10805	0.00208
308.15	0.1713	0.09118	-0.11217	0.00212
308.15	0.1774	0.0944	-0.11545	0.00216
308.15	0.1908	0.10149	-0.12077	0.00221

System: hexanoic acid + water; phases: Liquid
Fixed: Pressure, kPa = 101.3
Property: Molar enthalpy of dilution, kJ/mol (Liquid); method: Flow calorimetry
Temperature, K	Initial molality of solute, mol/kg	Final molality of solute, mol/kg	Molar enthalpy of dilution, kJ/mol	uncertainty
293.15	0.0586	0.03131	-0.12081	0.00221
293.15	0.0621	0.03318	-0.12547	0.00226
293.15	0.0645	0.03445	-0.12729	0.00227
293.15	0.0694	0.03707	-0.12808	0.00228
293.15	0.0712	0.03803	-0.13082	0.00231
293.15	0.0749	0.04	-0.13371	0.00234
293.15	0.078	0.04165	-0.13554	0.00236
293.15	0.082	0.04378	-0.13766	0.00238
298.15	0.0586	0.03131	-0.11894	0.00219
298.15	0.0621	0.03318	-0.12056	0.00221
298.15	0.0645	0.03445	-0.12246	0.00223
298.15	0.0694	0.03707	-0.12714	0.00227
298.15	0.0712	0.03803	-0.12926	0.00229
298.15	0.0749	0.04	-0.13032	0.0023
298.15	0.078	0.04165	-0.13437	0.00234
298.15	0.082	0.04378	-0.13632	0.00236
303.15	0.0586	0.03131	-0.11854	0.00219
303.15	0.0621	0.03318	-0.12073	0.00221
303.15	0.0645	0.03445	-0.12348	0.00224
303.15	0.0694	0.03707	-0.12609	0.00226
303.15	0.0712	0.03803	-0.12835	0.00228
303.15	0.0749	0.04	-0.13103	0.00231
303.15	0.078	0.04165	-0.13341	0.00234
303.15	0.082	0.04378	-0.13534	0.00235
308.15	0.0586	0.03131	-0.11711	0.00217
308.15	0.0621	0.03318	-0.11832	0.00218
308.15	0.0645	0.03445	-0.11929	0.00219
308.15	0.0694	0.03707	-0.12666	0.00227
308.15	0.0712	0.03803	-0.12646	0.00227
308.15	0.0749	0.04	-0.13063	0.00231
308.15	0.078	0.04165	-0.13213	0.00232
308.15	0.082	0.04378	-0.1336	0.0023
