Measured thermophysical data. Solubility of CO2 in imidazolium-based tetrafluoroborate ionic liquids
Source: Thermochim. Acta, 2006, 10.1016/j.tca.2005.11.023
Compound 1: carbon dioxide, CO2, InChI=1S/CO2/c2-1-3
Compound 2: 1-butyl-3-methylimidazolium tetrafluoroborate, C8H15BF4N2, InChI=1S/C8H15N2.BF4/c1-3-4-5-10-7-6-9(2)8-10;2-1(3,4)5/h6-8H,3-5H2,1-2H3;/q+1;-1
Compound 3: 1-hexyl-3-methylimidazolium tetrafluoroborate, C10H19BF4N2, InChI=1S/C10H19N2.BF4/c1-3-4-5-6-7-12-9-8-11(2)10-12;2-1(3,4)5/h8-10H,3-7H2,1-2H3;/q+1;-1
Compound 4: 1-methyl-3-octylimidazolium tetrafluoroborate, C12H23BF4N2, InChI=1S/C12H23N2.BF4/c1-3-4-5-6-7-8-9-14-11-10-13(2)12-14;2-1(3,4)5/h10-12H,3-9H2,1-2H3;/q+1;-1

System: carbon dioxide + 1-butyl-3-methylimidazolium tetrafluoroborate; phases: Liquid, Gas
Property: Molality, mol/kg (Liquid); method: Gravimetry
Temperature, K	Pressure, kPa	Molality, mol/kg	uncertainty
307.55	1750	0.99	0.03
307.55	2740	1.55	0.1
307.55	3430	1.89	0.12
307.55	4000	2.17	0.13
307.55	4400	2.39	0.15
307.55	5330	2.79	0.17
307.55	5770	3.07	0.19
307.55	6550	3.39	0.21
307.55	6980	3.6	0.22
307.55	7830	3.88	0.23
312.45	1850	0.93	0.06
312.45	2910	1.47	0.09
312.45	3630	1.84	0.11
312.45	4200	2.08	0.13
312.45	4630	2.28	0.14
312.45	5610	2.69	0.16
312.45	6100	2.94	0.18
312.45	6910	3.26	0.2
312.45	7350	3.43	0.21
312.45	8180	3.67	0.22
317.45	1970	0.91	0.06
317.45	3080	1.37	0.09
317.45	3840	1.76	0.11
317.45	4400	1.97	0.12
317.45	4830	2.17	0.13
317.45	5870	2.56	0.16
317.45	6390	2.78	0.17
317.45	7240	3.08	0.19
317.45	7750	3.22	0.19
317.45	8620	3.54	0.21
322.15	2080	0.88	0.06
322.15	3250	1.31	0.08
322.15	4050	1.63	0.1
322.15	4600	1.81	0.11
322.15	5060	1.97	0.12
322.15	6140	2.46	0.15
322.15	6720	2.63	0.16
322.15	7560	2.97	0.18
322.15	8100	3.08	0.19
322.15	9000	3.36	0.2

System: carbon dioxide + 1-hexyl-3-methylimidazolium tetrafluoroborate; phases: Liquid, Gas
Property: Molality, mol/kg (Liquid); method: Gravimetry
Temperature, K	Pressure, kPa	Molality, mol/kg	uncertainty
307.55	2130	1.33	0.09
307.55	3080	1.94	0.12
307.55	3640	2.27	0.14
307.55	4150	2.5	0.15
307.55	4790	2.9	0.18
307.55	5220	3.14	0.19
307.55	5710	3.53	0.22
307.55	6320	3.82	0.23
307.55	6520	3.96	0.24
307.55	6700	4.04	0.25
307.55	7410	4.52	0.27
312.45	2260	1.22	0.08
312.45	3270	1.9	0.12
312.45	3870	2.24	0.14
312.45	4390	2.41	0.15
312.45	5070	2.78	0.17
312.45	5540	3.01	0.18
312.45	6050	3.35	0.2
312.45	6700	3.68	0.22
312.45	6930	3.78	0.23
312.45	7110	3.85	0.23
312.45	7830	4.25	0.26
317.45	2400	1.16	0.08
317.45	3450	1.76	0.11
317.45	4100	2.07	0.13
317.45	4640	2.24	0.14
317.45	5360	2.62	0.16
317.45	5850	2.84	0.17
317.45	6390	3.21	0.2
317.45	7080	3.44	0.21
317.45	7320	3.55	0.21
317.45	7540	3.6	0.22
317.45	8230	4.02	0.24
322.15	2530	1.12	0.07
322.15	3660	1.67	0.1
322.15	4310	1.99	0.12
322.15	4890	2.11	0.13
322.15	5630	2.52	0.15
322.15	6150	2.72	0.17
322.15	6720	3.02	0.18
322.15	7470	3.26	0.2
322.15	7700	3.39	0.21
322.15	7920	3.43	0.21
322.15	8640	3.74	0.23

System: carbon dioxide + 1-methyl-3-octylimidazolium tetrafluoroborate; phases: Liquid, Gas
Property: Molality, mol/kg (Liquid); method: Gravimetry
Temperature, K	Pressure, kPa	Molality, mol/kg	uncertainty
307.55	4170	2.75	0.17
307.55	4770	3.07	0.19
307.55	5380	3.43	0.21
307.55	5910	3.79	0.23
307.55	6350	4.11	0.25
307.55	6920	4.43	0.27
307.55	7350	4.63	0.28
307.55	7390	4.7	0.28
312.45	4410	2.63	0.16
312.45	5050	2.89	0.18
312.45	5700	3.26	0.2
312.45	6240	3.58	0.22
312.45	6740	3.81	0.23
312.45	7350	4.14	0.25
312.45	7770	4.53	0.28
312.45	7820	4.54	0.28
317.45	4660	2.5	0.15
317.45	5330	2.8	0.17
317.45	6020	3.16	0.19
317.45	6600	3.43	0.21
317.45	7140	3.67	0.22
317.45	7770	4.02	0.24
317.45	8250	4.3	0.26
317.45	8270	4.38	0.27
322.15	4900	2.36	0.14
322.15	5610	2.63	0.16
322.15	6340	2.95	0.18
322.15	6940	3.3	0.2
322.15	7510	3.45	0.21
322.15	8170	3.86	0.23
322.15	8700	4.07	0.25
322.15	8720	4.09	0.25
