Measured thermophysical data. Intercomparative tests on viscosity measurements of phase change materials
Source: Thermochim. Acta, 2018, 10.1016/j.tca.2018.08.017
Compound 1: octadecane, C18H38, InChI=1S/C18H38/c1-3-5-7-9-11-13-15-17-18-16-14-12-10-8-6-4-2/h3-18H2,1-2H3

System: octadecane; phases: Liquid
Fixed: Pressure, kPa = 101.325
Property: Viscosity, Pa*s (Liquid); method: Cone and plate viscometry
Temperature, K	Viscosity, Pa*s	uncertainty
318.15	0.00283	0.000136
317.95	0.00282	0.000136
317.75	0.00284	0.000137
317.55	0.00282	0.000136
317.35	0.00283	0.000137
317.15	0.00286	0.000138
316.95	0.00288	0.000139
316.75	0.00288	0.000139
316.55	0.00288	0.000139
316.35	0.00288	0.000139
316.15	0.00288	0.000139
315.95	0.00289	0.000139
315.75	0.0029	0.00014
315.55	0.00291	0.000141
315.35	0.00291	0.00014
315.15	0.00296	0.000143
314.95	0.00294	0.000142
314.75	0.00297	0.000143
314.55	0.00297	0.000143
314.35	0.00296	0.000143
314.15	0.00299	0.000144
313.95	0.003	0.000145
313.75	0.00301	0.000145
313.55	0.00301	0.000145
313.35	0.00301	0.000146
313.15	0.00303	0.000147
312.95	0.00307	0.000148
312.75	0.00307	0.000149
312.55	0.00307	0.000148
312.35	0.0031	0.000149
312.15	0.0031	0.00015
311.95	0.00311	0.00015
311.75	0.00312	0.00015
311.55	0.00314	0.000151
311.35	0.00314	0.000151
311.15	0.00314	0.000151
310.95	0.00315	0.000152
310.75	0.00317	0.000154
310.55	0.00318	0.000154
310.35	0.00322	0.000155
310.15	0.00321	0.000155
309.95	0.00322	0.000156
309.75	0.00324	0.000156
309.55	0.00328	0.000158
309.35	0.00326	0.000157
309.15	0.00327	0.000157
308.95	0.00329	0.000158
308.75	0.00329	0.000159
308.55	0.00329	0.000159
308.35	0.00331	0.00016
308.15	0.00334	0.000162
307.95	0.00335	0.000162
307.75	0.00338	0.000163
307.55	0.00339	0.000164
307.35	0.0034	0.000164
307.15	0.00342	0.000165
306.95	0.00343	0.000165
306.75	0.00342	0.000165
306.55	0.00344	0.000166
306.35	0.00347	0.000167
306.15	0.00347	0.000167
305.95	0.00346	0.000167
305.75	0.00348	0.000168
305.55	0.0035	0.00017
305.35	0.0035	0.000169
305.15	0.00355	0.000171
304.95	0.00353	0.000171
304.75	0.00356	0.000171
304.55	0.00357	0.000173
304.35	0.00358	0.000174
304.15	0.0036	0.000174
303.95	0.00365	0.000176
303.75	0.00364	0.000176
303.55	0.00363	0.000175
303.35	0.00367	0.000177
303.15	0.00367	0.000178
302.95	0.00369	0.000178
302.75	0.00371	0.000179
302.55	0.00373	0.00018
302.35	0.00372	0.00018
302.15	0.00376	0.000181
301.95	0.00377	0.000182
301.75	0.00376	0.000181
301.55	0.0038	0.000183
301.35	0.0038	0.000183
301.15	0.00381	0.000184
300.95	0.00382	0.000184
300.85	0.00384	0.000185
300.75	0.00384	0.000186
300.55	0.00386	0.000187
300.35	0.00389	0.000188
300.15	0.00391	0.000189
299.95	0.00392	0.000189
299.75	0.00395	0.000191

System: octadecane; phases: Liquid
Fixed: Pressure, kPa = 101.325
Property: Viscosity, Pa*s (Liquid); method: Cone and plate viscometry
Temperature, K	Viscosity, Pa*s	uncertainty
303.15	0.00372	0.00018
308.15	0.00335	0.000162
313.15	0.00304	0.000147
318.15	0.00277	0.000134

System: octadecane; phases: Liquid
Fixed: Pressure, kPa = 101.325
Property: Viscosity, Pa*s (Liquid); method: Concentric cylinders viscometry
Temperature, K	Viscosity, Pa*s	uncertainty
318.65	0.00266	0.000144
318.61	0.002657	0.000144
318.6	0.002659	0.000144
318.58	0.002662	0.000145
318.43	0.002672	0.000145
318.08	0.002693	0.000146
317.46	0.002732	0.000148
316.81	0.002771	0.00015
316.13	0.002812	0.000153
315.41	0.002854	0.000155
314.67	0.002905	0.000158
314	0.002951	0.00016
313.18	0.003011	0.000163
312.45	0.003065	0.000166
311.78	0.003118	0.000169
311.04	0.003171	0.000172
310.32	0.003229	0.000175
309.58	0.003286	0.000178
308.83	0.003349	0.000182
308.07	0.003413	0.000185
307.3	0.003478	0.000189
306.42	0.003556	0.000193
305.7	0.003624	0.000197
304.92	0.003694	0.0002
304.19	0.003769	0.000205
303.42	0.003846	0.000209
302.64	0.003926	0.000213
301.84	0.004009	0.000218

System: octadecane; phases: Liquid
Fixed: Pressure, kPa = 101.325
Property: Viscosity, Pa*s (Liquid); method: Concentric cylinders viscometry
Temperature, K	Viscosity, Pa*s	uncertainty
318.69	0.002655	0.000144
318.59	0.002655	0.000144
318.57	0.002661	0.000144
318.45	0.002665	0.000145
318.26	0.002679	0.000145
317.96	0.002694	0.000146
317.61	0.002715	0.000147
317.2	0.00274	0.000149
316.83	0.002763	0.00015
316.5	0.002785	0.000151
316.12	0.00281	0.000153
315.77	0.002833	0.000154
315.43	0.002857	0.000155
315.01	0.002882	0.000156
314.65	0.002907	0.000158
314.3	0.002931	0.000159
313.93	0.002956	0.00016
313.55	0.002985	0.000162
313.18	0.00301	0.000163
312.69	0.003043	0.000165
312.33	0.003071	0.000167
311.96	0.003099	0.000168
311.54	0.00313	0.00017
311.16	0.003159	0.000171
310.77	0.00319	0.000173
310.41	0.003218	0.000175
310.04	0.003245	0.000176
309.68	0.003276	0.000178
309.3	0.003306	0.000179
308.96	0.003333	0.000181
308.59	0.003363	0.000183
308.11	0.003404	0.000185
307.72	0.003438	0.000187
307.37	0.003469	0.000188
306.98	0.003502	0.00019
306.61	0.003538	0.000192
306.23	0.003571	0.000194
305.84	0.003606	0.000196
305.46	0.003642	0.000198
305.08	0.003678	0.0002
304.58	0.003727	0.000202
304.21	0.003762	0.000204
303.81	0.003799	0.000206
303.38	0.003843	0.000209
302.96	0.003884	0.000211
302.58	0.003927	0.000213
302.18	0.003967	0.000215
301.76	0.004011	0.000218
301.36	0.004052	0.00022
300.96	0.004095	0.000222

System: octadecane; phases: Liquid
Fixed: Pressure, kPa = 101.325
Property: Viscosity, Pa*s (Liquid); method: Concentric cylinders viscometry
Temperature, K	Viscosity, Pa*s	uncertainty
318.64	0.002654	0.000144
318.53	0.002655	0.000144
318.5	0.002654	0.000144
318.49	0.002653	0.000144
318.49	0.002653	0.000144
313.34	0.00301	0.000163
313.26	0.003008	0.000163
313.26	0.003011	0.000163
313.25	0.003009	0.000163
313.24	0.003009	0.000163
307.93	0.003424	0.000186
307.87	0.003426	0.000186
307.85	0.003426	0.000186
307.84	0.003426	0.000186
307.84	0.003427	0.000186
303.4	0.003838	0.000208
303.38	0.003837	0.000208
303.38	0.003836	0.000208
303.38	0.003838	0.000208
303.38	0.003833	0.000208
301.29	0.004063	0.00022
301.29	0.004066	0.000221
301.29	0.004068	0.000221
301.29	0.004068	0.000221
301.29	0.004069	0.000221

System: octadecane; phases: Liquid
Fixed: Pressure, kPa = 101.325
Property: Viscosity, Pa*s (Liquid); method: Cone and plate viscometry
Temperature, K	Viscosity, Pa*s	uncertainty
318.15	0.00283	0.000357
317.95	0.00283	0.000357
317.65	0.00284	0.000358
317.35	0.00284	0.000358
317.15	0.00285	0.000359
316.85	0.00286	0.00036
316.65	0.00287	0.000362
316.35	0.00289	0.000364
316.15	0.0029	0.000365
315.85	0.00292	0.000368
315.65	0.00294	0.00037
315.35	0.00295	0.000372
315.15	0.00297	0.000374
314.85	0.00298	0.000376
314.65	0.003	0.000378
314.35	0.00301	0.000379
314.15	0.00302	0.000381
313.85	0.00304	0.000383
313.65	0.00305	0.000384
313.35	0.00307	0.000387
313.15	0.00308	0.000388
312.85	0.0031	0.000391
312.65	0.00312	0.000393
312.35	0.00314	0.000396
312.15	0.00315	0.000397
311.85	0.00317	0.000399
311.65	0.00319	0.000402
311.35	0.0032	0.000403
311.15	0.00322	0.000406
310.85	0.00324	0.000408
310.65	0.00325	0.00041
310.35	0.00326	0.000411
310.15	0.00328	0.000413
309.85	0.0033	0.000416
309.65	0.00332	0.000418
309.35	0.00334	0.000421
309.15	0.00336	0.000423
308.85	0.00337	0.000425
308.65	0.00339	0.000427
308.35	0.00342	0.000431
308.15	0.00343	0.000432
307.85	0.00345	0.000435
307.65	0.00347	0.000437
307.35	0.00349	0.00044
307.15	0.0035	0.000441
306.85	0.00352	0.000444
306.65	0.00354	0.000446
306.35	0.00356	0.000449
306.15	0.00358	0.000451
305.85	0.0036	0.000454
305.65	0.00362	0.000456
305.35	0.00364	0.000459
305.15	0.00367	0.000462
304.85	0.00369	0.000465
304.65	0.0037	0.000466
304.35	0.00373	0.00047
304.15	0.00375	0.000473
303.85	0.00377	0.000475
303.65	0.00378	0.000476
303.35	0.00381	0.00048
303.15	0.00383	0.000483
302.85	0.00385	0.000485
302.65	0.00388	0.000489
302.35	0.00391	0.000493
302.15	0.00393	0.000495
301.85	0.00396	0.000499
301.65	0.00398	0.000502
301.35	0.004	0.000504
301.15	0.00402	0.000507
300.85	0.00404	0.000509
300.65	0.00406	0.000512
300.35	0.00409	0.000515
300.15	0.00412	0.000519

System: octadecane; phases: Liquid
Fixed: Pressure, kPa = 101.325
Property: Viscosity, Pa*s (Liquid); method: Cone and plate viscometry
Temperature, K	Viscosity, Pa*s	uncertainty
317.75	0.00283	0.000271
317.45	0.00279	0.000266
317.15	0.00281	0.000267
316.65	0.00281	0.000267
316.35	0.00283	0.000269
316.05	0.00284	0.00027
315.65	0.00287	0.000273
315.35	0.00288	0.000274
314.95	0.0029	0.000276
314.55	0.00292	0.000278
314.25	0.00293	0.000279
313.85	0.00296	0.000282
313.45	0.00298	0.000284
313.15	0.00299	0.000285
312.75	0.00301	0.000287
312.45	0.00304	0.000289
312.05	0.00305	0.00029
311.75	0.00307	0.000292
311.35	0.0031	0.000295
310.95	0.00312	0.000297
310.65	0.00314	0.000299
310.25	0.00318	0.000303
309.95	0.0032	0.000305
309.55	0.00322	0.000307
309.25	0.00325	0.000309
308.85	0.00326	0.00031
308.55	0.00328	0.000312
308.15	0.00331	0.000315
307.75	0.00332	0.000316
307.45	0.00335	0.000319
307.05	0.00336	0.00032
306.75	0.00339	0.000323
306.35	0.00342	0.000326
306.05	0.00343	0.000327
305.65	0.00347	0.00033
305.25	0.00348	0.000331
304.95	0.00351	0.000334
304.55	0.00353	0.000336
304.25	0.00356	0.000339
303.85	0.00359	0.000342
303.55	0.00361	0.000344
303.15	0.00363	0.000346
302.85	0.00366	0.000349
302.45	0.00369	0.000351
302.05	0.00371	0.000353
301.75	0.00374	0.000356

System: octadecane; phases: Liquid
Fixed: Pressure, kPa = 101.325
Property: Viscosity, Pa*s (Liquid); method: Cone and plate viscometry
Temperature, K	Viscosity, Pa*s	uncertainty
318.15	0.00279	0.000245
313.15	0.00304	0.000267
308.15	0.00331	0.00029
303.15	0.00365	0.00032

System: octadecane; phases: Liquid
Fixed: Pressure, kPa = 101.325
Property: Viscosity, Pa*s (Liquid); method: Cone and plate viscometry
Temperature, K	Viscosity, Pa*s	uncertainty
318.15	0.003	0.000602
317.65	0.00302	0.000606
317.15	0.00304	0.00061
316.65	0.00306	0.000614
316.15	0.00308	0.000618
315.65	0.0031	0.000622
315.15	0.00313	0.000628
314.65	0.00316	0.000634
314.15	0.00318	0.000638
313.65	0.00321	0.000644
313.15	0.00323	0.000648
312.65	0.00326	0.000654
312.15	0.00328	0.000658
311.65	0.00332	0.000666
311.15	0.00335	0.000672
310.65	0.00338	0.000678
310.15	0.00342	0.000686
309.65	0.00345	0.000692
309.15	0.00349	0.0007
308.65	0.00353	0.000708
308.15	0.00357	0.000716
307.65	0.00362	0.000726
307.15	0.00366	0.000734
306.65	0.00369	0.00074
306.15	0.00372	0.000746
305.65	0.00377	0.000756
305.15	0.00381	0.000764
304.65	0.00385	0.000772
304.15	0.00389	0.00078
303.65	0.00393	0.000788
303.15	0.00397	0.000797
302.65	0.00401	0.000805
302.15	0.00404	0.000811
301.65	0.00409	0.000821
301.15	0.00413	0.000829
300.65	0.00417	0.000837
300.05	0.00421	0.000845
