Measured thermophysical data. Studies of viscosities of dilute solutions of alkylamine in non-electrolyte solvents. II. Haloalkanes and other polar solvents
Source: Thermochim. Acta, 2005, 10.1016/j.tca.2004.08.013
Compound 1: propan-1-amine, C3H9N, InChI=1S/C3H9N/c1-2-3-4/h2-4H2,1H3, purity 99%
Compound 2: 1-butanamine, C4H11N, InChI=1S/C4H11N/c1-2-3-4-5/h2-5H2,1H3, purity 99%
Compound 3: dipropylamine, C6H15N, InChI=1S/C6H15N/c1-3-5-7-6-4-2/h7H,3-6H2,1-2H3, purity 99%
Compound 4: dibutylamine, C8H19N, InChI=1S/C8H19N/c1-3-5-7-9-8-6-4-2/h9H,3-8H2,1-2H3, purity 99%
Compound 5: tripropylamine, C9H21N, InChI=1S/C9H21N/c1-4-7-10(8-5-2)9-6-3/h4-9H2,1-3H3, purity 99%
Compound 6: tributylamine, C12H27N, InChI=1S/C12H27N/c1-4-7-10-13(11-8-5-2)12-9-6-3/h4-12H2,1-3H3, purity 99%
Compound 7: triethylamine, C6H15N, InChI=1S/C6H15N/c1-4-7(5-2)6-3/h4-6H2,1-3H3, purity 99%
Compound 8: tetrachloromethane, CCl4, InChI=1S/CCl4/c2-1(3,4)5, purity 99.5%
Compound 9: trichloromethane, CHCl3, InChI=1S/CHCl3/c2-1(3)4/h1H, purity 99.5%
Compound 10: 1,4-dioxane, C4H8O2, InChI=1S/C4H8O2/c1-2-6-4-3-5-1/h1-4H2, purity 99.5%
Compound 11: ethyl acetate, C4H8O2, InChI=1S/C4H8O2/c1-3-6-4(2)5/h3H2,1-2H3, purity 99.5%
Compound 12: butyl ethanoate, C6H12O2, InChI=1S/C6H12O2/c1-3-4-5-8-6(2)7/h3-5H2,1-2H3, purity 99.5%
Compound 13: butanone, C4H8O, InChI=1S/C4H8O/c1-3-4(2)5/h3H2,1-2H3, purity 99.5%
Compound 14: chlorobenzene, C6H5Cl, InChI=1S/C6H5Cl/c7-6-4-2-1-3-5-6/h1-5H, purity 99.5%
Compound 15: nitrobenzene, C6H5NO2, InChI=1S/C6H5NO2/c8-7(9)6-4-2-1-3-5-6/h1-5H, purity 99.5%

System: propan-1-amine; phases: Liquid
Fixed: Pressure, kPa = 101.325
Property: Viscosity, Pa*s (Liquid); method: CAPTUB:UFactor:2:UFactor:2
Temperature, K	Viscosity, Pa*s	uncertainty
303.15	0.000353	7e-06
313.15	0.000313	7e-06

System: propan-1-amine; phases: Liquid
Fixed: Pressure, kPa = 101.325
Property: Mass density, kg/m3 (Liquid); method: VIBTUB:UFactor:4
Temperature, K	Mass density, kg/m3	uncertainty
303.15	706.1	0.84
313.15	696.04	0.86

System: 1-butanamine; phases: Liquid
Fixed: Pressure, kPa = 101.325
Property: Viscosity, Pa*s (Liquid); method: CAPTUB:UFactor:2
Temperature, K	Viscosity, Pa*s	uncertainty
303.15	0.000444	9e-06
313.15	0.000393	8e-06

System: 1-butanamine; phases: Liquid
Fixed: Pressure, kPa = 101.325
Property: Mass density, kg/m3 (Liquid); method: VIBTUB:UFactor:4
Temperature, K	Mass density, kg/m3	uncertainty
303.15	728.65	0.81
313.15	719.17	0.82

System: dipropylamine; phases: Liquid
Fixed: Pressure, kPa = 101.325
Property: Viscosity, Pa*s (Liquid); method: CAPTUB:UFactor:2
Temperature, K	Viscosity, Pa*s	uncertainty
303.15	0.000512	1e-05
313.15	0.000423	8e-06

System: dipropylamine; phases: Liquid
Fixed: Pressure, kPa = 101.325
Property: Mass density, kg/m3 (Liquid); method: VIBTUB:UFactor:4
Temperature, K	Mass density, kg/m3	uncertainty
303.15	731.21	0.8
313.15	726.15	3

System: dibutylamine; phases: Liquid
Fixed: Pressure, kPa = 101.325
Property: Viscosity, Pa*s (Liquid); method: CAPTUB:UFactor:2
Temperature, K	Viscosity, Pa*s	uncertainty
303.15	0.000758	1.3e-05
313.15	0.000665	1.2e-05

System: dibutylamine; phases: Liquid
Fixed: Pressure, kPa = 101.325
Property: Mass density, kg/m3 (Liquid); method: VIBTUB:UFactor:4
Temperature, K	Mass density, kg/m3	uncertainty
303.15	752.28	0.77
313.15	743.44	0.78

System: tripropylamine; phases: Liquid
Fixed: Pressure, kPa = 101.325
Property: Viscosity, Pa*s (Liquid); method: CAPTUB:UFactor:2
Temperature, K	Viscosity, Pa*s	uncertainty
303.15	0.000598	1.1e-05
313.15	0.000538	1e-05

System: tripropylamine; phases: Liquid
Fixed: Pressure, kPa = 101.325
Property: Mass density, kg/m3 (Liquid); method: VIBTUB:UFactor:4
Temperature, K	Mass density, kg/m3	uncertainty
303.15	749.15	0.78
313.15	740.41	0.79

System: tributylamine; phases: Liquid
Fixed: Pressure, kPa = 101.325
Property: Viscosity, Pa*s (Liquid); method: CAPTUB:UFactor:2
Temperature, K	Viscosity, Pa*s	uncertainty
303.15	0.001167	2e-05
313.15	0.00097	1.7e-05

System: tributylamine; phases: Liquid
Fixed: Pressure, kPa = 101.325
Property: Mass density, kg/m3 (Liquid); method: VIBTUB:UFactor:4
Temperature, K	Mass density, kg/m3	uncertainty
303.15	770.21	0.74
313.15	763.11	0.75

System: triethylamine; phases: Liquid
Property: Mass density, kg/m3 (Liquid); method: VIBTUB:UFactor:4
Temperature, K	Pressure, kPa	Mass density, kg/m3	uncertainty
303.15	101.325	718.44	0.82

System: triethylamine; phases: Liquid
Property: Viscosity, Pa*s (Liquid); method: CAPTUB:UFactor:2
Temperature, K	Pressure, kPa	Viscosity, Pa*s	uncertainty
303.15	101.325	0.00033	7e-06

System: tetrachloromethane; phases: Liquid
Fixed: Pressure, kPa = 101.325
Property: Viscosity, Pa*s (Liquid); method: CAPTUB:UFactor:2
Temperature, K	Viscosity, Pa*s	uncertainty
303.15	0.000852	1.4e-05
313.15	0.00076	1.3e-05

System: tetrachloromethane; phases: Liquid
Fixed: Pressure, kPa = 101.325
Property: Mass density, kg/m3 (Liquid); method: VIBTUB:UFactor:4
Temperature, K	Mass density, kg/m3	uncertainty
303.15	1574.78	1.4
313.15	1555.02	1.36

System: trichloromethane; phases: Liquid
Fixed: Pressure, kPa = 101.325
Property: Viscosity, Pa*s (Liquid); method: CAPTUB:UFactor:2
Temperature, K	Viscosity, Pa*s	uncertainty
303.15	0.00052	9e-06
313.15	0.000471	9e-06

System: trichloromethane; phases: Liquid
Fixed: Pressure, kPa = 101.325
Property: Mass density, kg/m3 (Liquid); method: VIBTUB:UFactor:4
Temperature, K	Mass density, kg/m3	uncertainty
303.15	1470.64	1.19
313.15	1448.43	1.14

System: 1,4-dioxane; phases: Liquid
Property: Mass density, kg/m3 (Liquid); method: VIBTUB:UFactor:4
Temperature, K	Pressure, kPa	Mass density, kg/m3	uncertainty
303.15	101.325	1022.3	0.3

System: 1,4-dioxane; phases: Liquid
Property: Viscosity, Pa*s (Liquid); method: CAPTUB:UFactor:2
Temperature, K	Pressure, kPa	Viscosity, Pa*s	uncertainty
303.15	101.325	0.001086	1.8e-05

System: ethyl acetate; phases: Liquid
Property: Mass density, kg/m3 (Liquid); method: VIBTUB:UFactor:4
Temperature, K	Pressure, kPa	Mass density, kg/m3	uncertainty
303.15	101.325	888.42	0.45

System: ethyl acetate; phases: Liquid
Property: Viscosity, Pa*s (Liquid); method: CAPTUB:UFactor:2
Temperature, K	Pressure, kPa	Viscosity, Pa*s	uncertainty
303.15	101.325	0.000399	8e-06

System: butyl ethanoate; phases: Liquid
Property: Mass density, kg/m3 (Liquid); method: VIBTUB:UFactor:4
Temperature, K	Pressure, kPa	Mass density, kg/m3	uncertainty
303.15	101.325	871.28	0.48

System: butyl ethanoate; phases: Liquid
Property: Viscosity, Pa*s (Liquid); method: CAPTUB:UFactor:2
Temperature, K	Pressure, kPa	Viscosity, Pa*s	uncertainty
303.15	101.325	0.000644	1.1e-05

System: butanone; phases: Liquid
Property: Mass density, kg/m3 (Liquid); method: VIBTUB:UFactor:4
Temperature, K	Pressure, kPa	Mass density, kg/m3	uncertainty
303.15	101.325	799.69	0.61

System: butanone; phases: Liquid
Property: Viscosity, Pa*s (Liquid); method: CAPTUB:UFactor:2
Temperature, K	Pressure, kPa	Viscosity, Pa*s	uncertainty
303.15	101.325	0.000365	7e-06

System: chlorobenzene; phases: Liquid
Property: Mass density, kg/m3 (Liquid); method: VIBTUB:UFactor:4
Temperature, K	Pressure, kPa	Mass density, kg/m3	uncertainty
303.15	101.325	1095.49	0.45

System: chlorobenzene; phases: Liquid
Property: Viscosity, Pa*s (Liquid); method: CAPTUB:UFactor:2
Temperature, K	Pressure, kPa	Viscosity, Pa*s	uncertainty
303.15	101.325	0.000718	1.2e-05

System: nitrobenzene; phases: Liquid
Property: Mass density, kg/m3 (Liquid); method: VIBTUB:UFactor:4
Temperature, K	Pressure, kPa	Mass density, kg/m3	uncertainty
303.15	101.325	1193.4	0.63

System: nitrobenzene; phases: Liquid
Property: Viscosity, Pa*s (Liquid); method: CAPTUB:UFactor:2
Temperature, K	Pressure, kPa	Viscosity, Pa*s	uncertainty
303.15	101.325	0.001617	2.5e-05

System: trichloromethane + tributylamine; phases: Liquid
Fixed: Pressure, kPa = 101.3
Property: Viscosity, Pa*s (Liquid); method: CAPTUB:UFactor:2
Temperature, K	Mole fraction of tributylamine	Viscosity, Pa*s	uncertainty
303.15	0.0102	0.000533	8e-06
303.15	0.0205	0.000545	8e-06
303.15	0.0308	0.000557	8e-06
303.15	0.0404	0.000569	8e-06
303.15	0.0505	0.000583	8e-06
303.15	0.0598	0.000593	9e-06
303.15	0.0695	0.000606	9e-06
303.15	0.0799	0.000615	9e-06
303.15	0.0856	0.000621	9e-06
313.15	0.0102	0.000479	7e-06
313.15	0.0205	0.000488	7e-06
313.15	0.0308	0.000496	7e-06
313.15	0.0404	0.000504	8e-06
313.15	0.0505	0.000513	8e-06
313.15	0.0598	0.000522	8e-06
313.15	0.0695	0.000529	8e-06
313.15	0.0799	0.000538	8e-06
313.15	0.0856	0.000545	8e-06

System: trichloromethane + tributylamine; phases: Liquid
Fixed: Pressure, kPa = 101.3
Property: Mass density, kg/m3 (Liquid); method: VIBTUB:UFactor:4
Temperature, K	Mole fraction of tributylamine	Mass density, kg/m3	uncertainty
303.15	0.0102	1450.1	1.31
303.15	0.0205	1430.19	1.27
303.15	0.0308	1410.92	1.23
303.15	0.0404	1393.58	1.19
303.15	0.0505	1376.08	1.16
303.15	0.0598	1360.44	1.12
303.15	0.0695	1344.77	1.09
303.15	0.0799	1328.42	1.06
303.15	0.0856	1319.72	1.04
313.15	0.0102	1428.49	1.27
313.15	0.0205	1409.15	1.23
313.15	0.0308	1390.4	1.19
313.15	0.0404	1373.58	1.15
313.15	0.0505	1356.5	1.12
313.15	0.0598	1341.35	1.09
313.15	0.0695	1326.07	1.05
313.15	0.0799	1310.05	1.02
313.15	0.0856	1301.56	1

System: triethylamine + 1,4-dioxane; phases: Liquid
Fixed: Pressure, kPa = 101.3
Fixed: Temperature, K = 303.15
Property: Viscosity, Pa*s (Liquid); method: CAPTUB:UFactor:2
Mole fraction of triethylamine	Viscosity, Pa*s	uncertainty
0.0138	0.001059	1.4e-05
0.0232	0.001042	1.4e-05
0.0349	0.001018	1.4e-05
0.0453	0.000998	1.4e-05
0.0551	0.00098	1.3e-05
0.0691	0.000955	1.3e-05
0.0803	0.000932	1.3e-05
0.0909	0.000914	1.2e-05
0.1006	0.000899	1.2e-05
0.1128	0.000877	1.2e-05

System: triethylamine + 1,4-dioxane; phases: Liquid
Fixed: Pressure, kPa = 101.3
Fixed: Temperature, K = 303.15
Property: Mass density, kg/m3 (Liquid); method: VIBTUB:UFactor:4
Mole fraction of triethylamine	Mass density, kg/m3	uncertainty
0.0138	1015.32	0.55
0.0232	1010.65	0.54
0.0349	1004.86	0.53
0.0453	999.87	0.52
0.0551	995.17	0.52
0.0691	988.57	0.52
0.0803	983.41	0.52
0.0909	978.57	0.52
0.1006	974.22	0.52
0.1128	968.78	0.52

System: triethylamine + ethyl acetate; phases: Liquid
Fixed: Pressure, kPa = 101.3
Fixed: Temperature, K = 303.15
Property: Viscosity, Pa*s (Liquid); method: CAPTUB:UFactor:2
Mole fraction of triethylamine	Viscosity, Pa*s	uncertainty
0.0127	0.000395	6e-06
0.0205	0.000389	6e-06
0.0323	0.000386	6e-06
0.0407	0.000382	6e-06
0.0522	0.000379	6e-06
0.0608	0.000376	6e-06
0.0702	0.000374	6e-06
0.0783	0.000371	6e-06
0.09	0.000369	6e-06
0.0996	0.000367	6e-06

System: triethylamine + ethyl acetate; phases: Liquid
Fixed: Pressure, kPa = 101.3
Fixed: Temperature, K = 303.15
Property: Mass density, kg/m3 (Liquid); method: VIBTUB:UFactor:4
Mole fraction of triethylamine	Mass density, kg/m3	uncertainty
0.0127	885.47	0.59
0.0205	883.69	0.59
0.0323	881	0.59
0.0407	879.1	0.59
0.0522	876.53	0.6
0.0608	874.62	0.6
0.0702	872.41	0.6
0.0783	870.58	0.6
0.09	867.91	0.6
0.0996	866.05	0.6

System: triethylamine + butyl ethanoate; phases: Liquid
Fixed: Pressure, kPa = 101.3
Fixed: Temperature, K = 303.15
Property: Viscosity, Pa*s (Liquid); method: CAPTUB:UFactor:2
Mole fraction of triethylamine	Viscosity, Pa*s	uncertainty
0.0065	0.000641	9e-06
0.0144	0.000638	9e-06
0.0226	0.000631	9e-06
0.0293	0.000628	9e-06
0.0378	0.000623	9e-06
0.0454	0.000618	9e-06
0.0509	0.000613	9e-06
0.0596	0.000607	9e-06
0.0668	0.000603	9e-06
0.0733	0.000599	9e-06

System: triethylamine + butyl ethanoate; phases: Liquid
Fixed: Pressure, kPa = 101.3
Fixed: Temperature, K = 303.15
Property: Mass density, kg/m3 (Liquid); method: VIBTUB:UFactor:4
Mole fraction of triethylamine	Mass density, kg/m3	uncertainty
0.0065	870.3	0.61
0.0144	869.1	0.61
0.0226	867.85	0.61
0.0293	866.83	0.61
0.0378	865.53	0.61
0.0454	864.42	0.61
0.0509	863.54	0.61
0.0596	862.22	0.61
0.0668	861.13	0.61
0.0733	860.14	0.61

System: butanone + triethylamine; phases: Liquid
Fixed: Pressure, kPa = 101.3
Fixed: Temperature, K = 303.15
Property: Viscosity, Pa*s (Liquid); method: CAPTUB:UFactor:2
Mole fraction of triethylamine	Viscosity, Pa*s	uncertainty
0.011	0.000362	6e-06
0.0217	0.00036	6e-06
0.0315	0.000357	6e-06
0.0413	0.000355	6e-06
0.0508	0.000353	6e-06
0.0597	0.000351	6e-06
0.0697	0.000347	6e-06
0.0801	0.000344	6e-06
0.0915	0.000341	6e-06
0.1022	0.000338	6e-06

System: butanone + triethylamine; phases: Liquid
Fixed: Pressure, kPa = 101.3
Fixed: Temperature, K = 303.15
Property: Mass density, kg/m3 (Liquid); method: VIBTUB:UFactor:4
Mole fraction of triethylamine	Mass density, kg/m3	uncertainty
0.011	798.96	0.69
0.0217	798.22	0.69
0.0315	797.6	0.69
0.0413	796.87	0.69
0.0508	796.32	0.69
0.0597	795.5	0.69
0.0697	794.8	0.69
0.0801	794.25	0.69
0.0915	793.37	0.69
0.1022	792.79	0.69

System: chlorobenzene + triethylamine; phases: Liquid
Fixed: Pressure, kPa = 101.3
Fixed: Temperature, K = 303.15
Property: Viscosity, Pa*s (Liquid); method: CAPTUB:UFactor:2
Mole fraction of triethylamine	Viscosity, Pa*s	uncertainty
0.0118	0.000709	1e-05
0.0193	0.000702	1e-05
0.0299	0.000694	1e-05
0.0415	0.000685	1e-05
0.0493	0.000677	1e-05
0.0595	0.000672	1e-05
0.071	0.000664	9e-06
0.0792	0.000658	9e-06
0.0893	0.000652	9e-06
0.0994	0.000645	9e-06

System: chlorobenzene + triethylamine; phases: Liquid
Fixed: Pressure, kPa = 101.3
Fixed: Temperature, K = 303.15
Property: Mass density, kg/m3 (Liquid); method: VIBTUB:UFactor:4
Mole fraction of triethylamine	Mass density, kg/m3	uncertainty
0.0118	1089.87	0.65
0.0193	1086.26	0.64
0.0299	1081.32	0.63
0.0415	1075.87	0.62
0.0493	1072.21	0.61
0.0595	1067.48	0.6
0.071	1062.15	0.59
0.0792	1058.37	0.59
0.0893	1053.74	0.58
0.0994	1049.13	0.57

System: nitrobenzene + triethylamine; phases: Liquid
Fixed: Pressure, kPa = 101.3
Fixed: Temperature, K = 303.15
Property: Viscosity, Pa*s (Liquid); method: CAPTUB:UFactor:2
Mole fraction of triethylamine	Viscosity, Pa*s	uncertainty
0.0113	0.00159	2.1e-05
0.0201	0.001569	2.1e-05
0.0288	0.001547	2e-05
0.0404	0.001521	2e-05
0.0506	0.001499	2e-05
0.0601	0.00148	2e-05
0.0688	0.001466	1.9e-05
0.0819	0.00144	1.9e-05
0.091	0.001422	1.9e-05
0.1005	0.001407	1.9e-05

System: nitrobenzene + triethylamine; phases: Liquid
Fixed: Pressure, kPa = 101.3
Fixed: Temperature, K = 303.15
Property: Mass density, kg/m3 (Liquid); method: VIBTUB:UFactor:4
Mole fraction of triethylamine	Mass density, kg/m3	uncertainty
0.0113	1186.81	0.81
0.0201	1181.7	0.79
0.0288	1176.68	0.78
0.0404	1169.97	0.77
0.0506	1164.25	0.76
0.0601	1158.7	0.75
0.0688	1153.74	0.74
0.0819	1146.33	0.72
0.091	1141.21	0.71
0.1005	1136.48	0.7

System: tetrachloromethane + propan-1-amine; phases: Liquid
Fixed: Pressure, kPa = 101.3
Property: Viscosity, Pa*s (Liquid); method: CAPTUB:UFactor:2
Temperature, K	Mole fraction of propan-1-amine	Viscosity, Pa*s	uncertainty
303.15	0.0071	0.000859	1.2e-05
303.15	0.0184	0.000866	1.2e-05
303.15	0.0285	0.000873	1.2e-05
303.15	0.0386	0.000876	1.2e-05
303.15	0.0479	0.00088	1.2e-05
303.15	0.0574	0.000885	1.2e-05
303.15	0.0661	0.000885	1.2e-05
303.15	0.0748	0.000888	1.2e-05
303.15	0.0841	0.000892	1.2e-05
313.15	0.0071	0.000761	1.1e-05
313.15	0.0184	0.000763	1.1e-05
313.15	0.0285	0.000764	1.1e-05
313.15	0.0386	0.000765	1.1e-05
313.15	0.0479	0.000768	1.1e-05
313.15	0.0574	0.00077	1.1e-05
313.15	0.0661	0.000772	1.1e-05
313.15	0.0748	0.000774	1.1e-05
313.15	0.0841	0.000775	1.1e-05

System: tetrachloromethane + propan-1-amine; phases: Liquid
Fixed: Pressure, kPa = 101.3
Property: Mass density, kg/m3 (Liquid); method: VIBTUB:UFactor:4
Temperature, K	Mole fraction of propan-1-amine	Mass density, kg/m3	uncertainty
303.15	0.0071	1569.84	1.53
303.15	0.0184	1561.86	1.51
303.15	0.0285	1554.57	1.5
303.15	0.0386	1547.37	1.48
303.15	0.0479	1540.78	1.47
303.15	0.0574	1533.92	1.45
303.15	0.0661	1527.48	1.44
303.15	0.0748	1521.24	1.42
303.15	0.0841	1514.3	1.41
313.15	0.0071	1550.16	1.49
313.15	0.0184	1542.3	1.48
313.15	0.0285	1535.07	1.46
313.15	0.0386	1527.92	1.44
313.15	0.0479	1521.37	1.43
313.15	0.0574	1514.52	1.41
313.15	0.0661	1508.11	1.4
313.15	0.0748	1501.94	1.38
313.15	0.0841	1495.14	1.37

System: tetrachloromethane + 1-butanamine; phases: Liquid
Fixed: Pressure, kPa = 101.3
Property: Viscosity, Pa*s (Liquid); method: CAPTUB:UFactor:2
Temperature, K	Mole fraction of 1-butanamine	Viscosity, Pa*s	uncertainty
303.15	0.0099	0.000855	1.2e-05
303.15	0.0183	0.000858	1.2e-05
303.15	0.0287	0.000861	1.2e-05
303.15	0.0386	0.000862	1.2e-05
303.15	0.0477	0.000862	1.2e-05
303.15	0.0581	0.000864	1.2e-05
303.15	0.0675	0.000866	1.2e-05
303.15	0.076	0.000869	1.2e-05
303.15	0.0856	0.000871	1.2e-05
313.15	0.0099	0.000763	1.1e-05
313.15	0.0183	0.000765	1.1e-05
313.15	0.0287	0.000768	1.1e-05
313.15	0.0386	0.00077	1.1e-05
313.15	0.0477	0.000773	1.1e-05
313.15	0.0581	0.000776	1.1e-05
313.15	0.0675	0.00078	1.1e-05
313.15	0.076	0.000784	1.1e-05
313.15	0.0856	0.000786	1.1e-05

System: tetrachloromethane + 1-butanamine; phases: Liquid
Fixed: Pressure, kPa = 101.3
Property: Mass density, kg/m3 (Liquid); method: VIBTUB:UFactor:4
Temperature, K	Mole fraction of 1-butanamine	Mass density, kg/m3	uncertainty
303.15	0.0099	1566.74	1.53
303.15	0.0183	1559.88	1.51
303.15	0.0287	1551.36	1.49
303.15	0.0386	1543.06	1.47
303.15	0.0477	1535.31	1.46
303.15	0.0581	1526.57	1.44
303.15	0.0675	1518.67	1.42
303.15	0.076	1511.52	1.4
303.15	0.0856	1503.49	1.39
313.15	0.0099	1547.13	1.49
313.15	0.0183	1540.41	1.47
313.15	0.0287	1532.01	1.45
313.15	0.0386	1523.9	1.44
313.15	0.0477	1516.18	1.42
313.15	0.0581	1507.58	1.4
313.15	0.0675	1499.84	1.38
313.15	0.076	1492.72	1.37
313.15	0.0856	1484.69	1.35

System: tetrachloromethane + dibutylamine; phases: Liquid
Fixed: Pressure, kPa = 101.3
Property: Viscosity, Pa*s (Liquid); method: CAPTUB:UFactor:2
Temperature, K	Mole fraction of dibutylamine	Viscosity, Pa*s	uncertainty
303.15	0.0105	0.000852	1.2e-05
303.15	0.0201	0.000851	1.2e-05
303.15	0.0298	0.00085	1.2e-05
303.15	0.0396	0.00085	1.2e-05
303.15	0.049	0.000849	1.2e-05
303.15	0.0583	0.000847	1.2e-05
303.15	0.0696	0.000846	1.2e-05
303.15	0.0789	0.000845	1.2e-05
303.15	0.089	0.000845	1.2e-05
313.15	0.0105	0.000761	1.1e-05
313.15	0.0201	0.00076	1.1e-05
313.15	0.0298	0.000761	1.1e-05
313.15	0.0396	0.00076	1.1e-05
313.15	0.049	0.000759	1.1e-05
313.15	0.0583	0.000757	1.1e-05
313.15	0.0696	0.000755	1.1e-05
313.15	0.0789	0.000754	1.1e-05
313.15	0.089	0.000752	1e-05

System: tetrachloromethane + dibutylamine; phases: Liquid
Fixed: Pressure, kPa = 101.3
Property: Mass density, kg/m3 (Liquid); method: VIBTUB:UFactor:4
Temperature, K	Mole fraction of dibutylamine	Mass density, kg/m3	uncertainty
303.15	0.0105	1560.01	1.52
303.15	0.0201	1546.59	1.49
303.15	0.0298	1533.23	1.46
303.15	0.0396	1519.86	1.43
303.15	0.049	1507.12	1.4
303.15	0.0583	1494.77	1.38
303.15	0.0696	1480	1.35
303.15	0.0789	1467.95	1.32
303.15	0.089	1455.15	1.29
313.15	0.0105	1540.58	1.48
313.15	0.0201	1527.31	1.45
313.15	0.0298	1514.26	1.42
313.15	0.0396	1501.14	1.39
313.15	0.049	1488.59	1.37
313.15	0.0583	1476.4	1.34
313.15	0.0696	1461.9	1.31
313.15	0.0789	1450.12	1.29
313.15	0.089	1437.55	1.26

System: tetrachloromethane + tripropylamine; phases: Liquid
Fixed: Pressure, kPa = 101.3
Property: Viscosity, Pa*s (Liquid); method: CAPTUB:UFactor:2
Temperature, K	Mole fraction of tripropylamine	Viscosity, Pa*s	uncertainty
303.15	0.0103	0.000848	1.2e-05
303.15	0.0203	0.00084	1.2e-05
303.15	0.0304	0.000829	1.1e-05
303.15	0.0398	0.000819	1.1e-05
303.15	0.0497	0.000811	1.1e-05
303.15	0.0606	0.000802	1.1e-05
303.15	0.0695	0.000795	1.1e-05
303.15	0.0786	0.000788	1.1e-05
303.15	0.0893	0.00078	1.1e-05
313.15	0.0103	0.000754	1.1e-05
313.15	0.0203	0.000747	1e-05
313.15	0.0304	0.000739	1e-05
313.15	0.0398	0.000733	1e-05
313.15	0.0497	0.000726	1e-05
313.15	0.0606	0.000718	1e-05
313.15	0.0695	0.000712	1e-05
313.15	0.0786	0.000706	1e-05
313.15	0.0893	0.000699	1e-05

System: tetrachloromethane + tripropylamine; phases: Liquid
Fixed: Pressure, kPa = 101.3
Property: Mass density, kg/m3 (Liquid); method: VIBTUB:UFactor:4
Temperature, K	Mole fraction of tripropylamine	Mass density, kg/m3	uncertainty
303.15	0.0103	1558.08	1.52
303.15	0.0203	1542.01	1.48
303.15	0.0304	1526.35	1.45
303.15	0.0398	1511.85	1.42
303.15	0.0497	1496.93	1.39
303.15	0.0606	1480.86	1.35
303.15	0.0695	1468.02	1.32
303.15	0.0786	1455.03	1.3
303.15	0.0893	1440.17	1.27
313.15	0.0103	1538.54	1.48
313.15	0.0203	1522.71	1.44
313.15	0.0304	1507.24	1.41
313.15	0.0398	1492.94	1.38
313.15	0.0497	1478.28	1.35
313.15	0.0606	1462.46	1.32
313.15	0.0695	1449.76	1.29
313.15	0.0786	1437.01	1.26
313.15	0.0893	1422.3	1.23

System: trichloromethane + propan-1-amine; phases: Liquid
Fixed: Pressure, kPa = 101.3
Property: Viscosity, Pa*s (Liquid); method: CAPTUB:UFactor:2
Temperature, K	Mole fraction of propan-1-amine	Viscosity, Pa*s	uncertainty
303.15	0.01	0.000523	8e-06
303.15	0.0207	0.000526	8e-06
303.15	0.0296	0.000529	8e-06
303.15	0.0426	0.000533	8e-06
303.15	0.0491	0.000536	8e-06
303.15	0.0595	0.000539	8e-06
303.15	0.0689	0.000542	8e-06
303.15	0.0796	0.000544	8e-06
303.15	0.096	0.000548	8e-06
313.15	0.01	0.000474	7e-06
313.15	0.0207	0.000478	7e-06
313.15	0.0296	0.000481	7e-06
313.15	0.0426	0.000485	7e-06
313.15	0.0491	0.000488	7e-06
313.15	0.0595	0.000491	7e-06
313.15	0.0689	0.000495	7e-06
313.15	0.0796	0.000496	7e-06
313.15	0.096	0.0005	7e-06

System: trichloromethane + propan-1-amine; phases: Liquid
Fixed: Pressure, kPa = 101.3
Property: Mass density, kg/m3 (Liquid); method: VIBTUB:UFactor:4
Temperature, K	Mole fraction of propan-1-amine	Mass density, kg/m3	uncertainty
303.15	0.01	1463.1	1.32
303.15	0.0207	1454.77	1.3
303.15	0.0296	1447.98	1.29
303.15	0.0426	1437.89	1.27
303.15	0.0491	1432.95	1.26
303.15	0.0595	1424.84	1.24
303.15	0.0689	1417.67	1.22
303.15	0.0796	1409.35	1.2
303.15	0.096	1396.86	1.18
313.15	0.01	1441.12	1.28
313.15	0.0207	1433.07	1.26
313.15	0.0296	1426.56	1.25
313.15	0.0426	1416.8	1.22
313.15	0.0491	1411.95	1.21
313.15	0.0595	1403.97	1.2
313.15	0.0689	1396.96	1.18
313.15	0.0796	1388.75	1.16
313.15	0.096	1376.41	1.14

System: trichloromethane + 1-butanamine; phases: Liquid
Fixed: Pressure, kPa = 101.3
Property: Viscosity, Pa*s (Liquid); method: CAPTUB:UFactor:2
Temperature, K	Mole fraction of 1-butanamine	Viscosity, Pa*s	uncertainty
303.15	0.0091	0.000528	8e-06
303.15	0.0196	0.000536	8e-06
303.15	0.0289	0.000544	8e-06
303.15	0.0409	0.00055	8e-06
303.15	0.0483	0.000556	8e-06
303.15	0.0578	0.000562	8e-06
303.15	0.0676	0.000566	8e-06
303.15	0.0775	0.000569	8e-06
303.15	0.0848	0.000573	8e-06
313.15	0.0091	0.000478	7e-06
313.15	0.0196	0.000485	7e-06
313.15	0.0289	0.000493	7e-06
313.15	0.0409	0.000499	7e-06
313.15	0.0483	0.000505	8e-06
313.15	0.0578	0.000511	8e-06
313.15	0.0676	0.000517	8e-06
313.15	0.0775	0.000521	8e-06
313.15	0.0848	0.000525	8e-06

System: trichloromethane + 1-butanamine; phases: Liquid
Fixed: Pressure, kPa = 101.3
Property: Mass density, kg/m3 (Liquid); method: VIBTUB:UFactor:4
Temperature, K	Mole fraction of 1-butanamine	Mass density, kg/m3	uncertainty
303.15	0.0091	1462.78	1.32
303.15	0.0196	1453.53	1.3
303.15	0.0289	1445.49	1.28
303.15	0.0409	1435.01	1.26
303.15	0.0483	1428.52	1.25
303.15	0.0578	1420.29	1.23
303.15	0.0676	1411.7	1.21
303.15	0.0775	1403.16	1.19
313.15	0.0091	1440.74	1.28
313.15	0.0196	1431.89	1.26
313.15	0.0289	1423.81	1.24
313.15	0.0409	1413.72	1.22
313.15	0.0483	1407.41	1.21
313.15	0.0578	1399.24	1.19
313.15	0.0676	1390.72	1.17
313.15	0.0775	1382.3	1.15

System: trichloromethane + dipropylamine; phases: Liquid
Fixed: Pressure, kPa = 101.3
Property: Viscosity, Pa*s (Liquid); method: CAPTUB:UFactor:2
Temperature, K	Mole fraction of dipropylamine	Viscosity, Pa*s	uncertainty
303.15	0.0105	0.000525	8e-06
303.15	0.0217	0.000531	8e-06
303.15	0.0311	0.000535	8e-06
303.15	0.0411	0.000539	8e-06
303.15	0.051	0.000544	8e-06
303.15	0.0608	0.000548	8e-06
303.15	0.0708	0.000552	8e-06
303.15	0.0808	0.000558	8e-06
303.15	0.0914	0.000561	8e-06
313.15	0.0105	0.000473	7e-06
313.15	0.0217	0.000476	7e-06
313.15	0.0311	0.00048	7e-06
313.15	0.0411	0.000483	7e-06
313.15	0.051	0.000486	7e-06
313.15	0.0608	0.000488	7e-06
313.15	0.0708	0.000492	7e-06
313.15	0.0808	0.000494	7e-06
313.15	0.0914	0.000497	7e-06

System: trichloromethane + dipropylamine; phases: Liquid
Fixed: Pressure, kPa = 101.3
Property: Mass density, kg/m3 (Liquid); method: VIBTUB:UFactor:4
Temperature, K	Mole fraction of dipropylamine	Mass density, kg/m3	uncertainty
303.15	0.0105	1457.85	1.31
303.15	0.0217	1444.32	1.29
303.15	0.0311	1433.19	1.26
303.15	0.0411	1421.35	1.24
303.15	0.051	1409.85	1.21
303.15	0.0608	1398.52	1.19
303.15	0.0708	1387.22	1.17
303.15	0.0808	1376	1.14
303.15	0.0914	1364.32	1.12
313.15	0.0105	1435.95	1.27
313.15	0.0217	1422.68	1.24
313.15	0.0311	1411.78	1.22
313.15	0.0411	1400.29	1.2
313.15	0.051	1389.04	1.17
313.15	0.0608	1378.03	1.15
313.15	0.0708	1366.94	1.13
313.15	0.0808	1356.01	1.1
313.15	0.0914	1344.6	1.08

System: trichloromethane + dibutylamine; phases: Liquid
Fixed: Pressure, kPa = 101.3
Property: Viscosity, Pa*s (Liquid); method: CAPTUB:UFactor:2
Temperature, K	Mole fraction of dibutylamine	Viscosity, Pa*s	uncertainty
303.15	0.0103	0.00053	8e-06
303.15	0.0197	0.00054	8e-06
303.15	0.0294	0.000552	8e-06
303.15	0.0381	0.00056	8e-06
303.15	0.0482	0.000572	8e-06
303.15	0.0593	0.000584	8e-06
303.15	0.0684	0.000599	9e-06
303.15	0.0788	0.000612	9e-06
303.15	0.0876	0.000624	9e-06
313.15	0.0103	0.00048	7e-06
313.15	0.0197	0.000489	7e-06
313.15	0.0294	0.000493	7e-06
313.15	0.0381	0.000502	8e-06
313.15	0.0482	0.00051	8e-06
313.15	0.0593	0.000516	8e-06
313.15	0.0684	0.000528	8e-06
313.15	0.0788	0.000535	8e-06
313.15	0.0876	0.000542	8e-06

System: trichloromethane + dibutylamine; phases: Liquid
Fixed: Pressure, kPa = 101.3
Property: Mass density, kg/m3 (Liquid); method: VIBTUB:UFactor:4
Temperature, K	Mole fraction of dibutylamine	Mass density, kg/m3	uncertainty
303.15	0.0103	1455.46	1.31
303.15	0.0197	1441.84	1.28
303.15	0.0294	1428.11	1.26
303.15	0.0381	1415.97	1.23
303.15	0.0482	1401.96	1.2
303.15	0.0593	1387.11	1.17
303.15	0.0684	1375.09	1.14
303.15	0.0788	1361.57	1.12
303.15	0.0876	1350.35	1.09
313.15	0.0103	1433.69	1.27
313.15	0.0197	1420.36	1.24
313.15	0.0294	1406.9	1.21
313.15	0.0381	1394.99	1.19
313.15	0.0482	1381.38	1.16
313.15	0.0593	1366.85	1.13
313.15	0.0684	1355.19	1.11
313.15	0.0788	1342.11	1.08
313.15	0.0876	1331.13	1.06

System: trichloromethane + tripropylamine; phases: Liquid
Fixed: Pressure, kPa = 101.3
Property: Viscosity, Pa*s (Liquid); method: CAPTUB:UFactor:2
Temperature, K	Mole fraction of tripropylamine	Viscosity, Pa*s	uncertainty
303.15	0.0106	0.000531	8e-06
303.15	0.0206	0.000541	8e-06
303.15	0.032	0.000546	8e-06
303.15	0.0396	0.000554	8e-06
303.15	0.0509	0.000563	8e-06
303.15	0.0596	0.000568	8e-06
303.15	0.0693	0.000579	8e-06
303.15	0.0787	0.00059	9e-06
303.15	0.0883	0.000598	9e-06
313.15	0.0106	0.000476	7e-06
313.15	0.0206	0.00048	7e-06
313.15	0.032	0.000485	7e-06
313.15	0.0396	0.000489	7e-06
313.15	0.0509	0.000493	7e-06
313.15	0.0596	0.000501	8e-06
313.15	0.0693	0.000504	8e-06
313.15	0.0787	0.000511	8e-06
313.15	0.0883	0.000516	8e-06

System: trichloromethane + tripropylamine; phases: Liquid
Fixed: Pressure, kPa = 101.3
Property: Mass density, kg/m3 (Liquid); method: VIBTUB:UFactor:4
Temperature, K	Mole fraction of tripropylamine	Mass density, kg/m3	uncertainty
303.15	0.0106	1453.58	1.31
303.15	0.0206	1437.45	1.28
303.15	0.032	1419.7	1.24
303.15	0.0396	1407.99	1.22
303.15	0.0509	1391.16	1.18
303.15	0.0596	1378.63	1.15
303.15	0.0693	1364.78	1.13
303.15	0.0787	1351.78	1.1
303.15	0.0883	1338.63	1.07
313.15	0.0106	1431.77	1.27
313.15	0.0206	1416.02	1.24
313.15	0.032	1398.73	1.2
313.15	0.0396	1387.54	1.18
313.15	0.0509	1370.93	1.14
313.15	0.0596	1358.79	1.12
313.15	0.0693	1345.21	1.09
313.15	0.0787	1332.44	1.06
313.15	0.0883	1319.39	1.04
