Measured thermophysical data. Volumetric and acoustic properties of binary systems (furfural or furfuryl alcohol + toluene) and (furfuryl alcohol + ethanol) at different temperatures
Source: Thermochim. Acta, 2015, 10.1016/j.tca.2015.04.032
Compound 1: 2-furaldehyde, C5H4O2, InChI=1S/C5H4O2/c6-4-5-2-1-3-7-5/h1-4H, purity 99%
Compound 2: 2-hydroxymethylfuran, C5H6O2, InChI=1S/C5H6O2/c6-4-5-2-1-3-7-5/h1-3,6H,4H2, purity 98%
Compound 3: toluene, C7H8, InChI=1S/C7H8/c1-7-5-3-2-4-6-7/h2-6H,1H3, purity 99%
Compound 4: ethanol, C2H6O, InChI=1S/C2H6O/c1-2-3/h3H,2H2,1H3, purity 99%

System: 2-hydroxymethylfuran; phases: Liquid
Fixed: Pressure, kPa = 100
Property: Mass density, kg/m3 (Liquid); method: Vibrating tube method
Temperature, K	Mass density, kg/m3	uncertainty
283.15	1141.46	0.97
293.15	1132.26	0.97
303.15	1122.99	0.97
313.15	1113.63	0.97

System: 2-hydroxymethylfuran; phases: Liquid
Fixed: Pressure, kPa = 100
Fixed: Frequency, MHz = 3
Property: Speed of sound, m/s (Liquid); method: Sing-around technique in a fixed-path interferometer
Temperature, K	Speed of sound, m/s	uncertainty
283.15	1497	1.4
293.15	1464.4	1.4
303.15	1431.9	1.4
313.15	1400	1.4

System: toluene; phases: Liquid
Fixed: Pressure, kPa = 100
Property: Mass density, kg/m3 (Liquid); method: Vibrating tube method
Temperature, K	Mass density, kg/m3	uncertainty
283.15	876.19	0.94
293.15	866.91	0.94
303.15	857.58	0.94
313.15	848.2	0.94

System: toluene; phases: Liquid
Fixed: Pressure, kPa = 100
Fixed: Frequency, MHz = 3
Property: Speed of sound, m/s (Liquid); method: Sing-around technique in a fixed-path interferometer
Temperature, K	Speed of sound, m/s	uncertainty
283.15	1371.4	1.4
293.15	1327.4	1.3
303.15	1284	1.3
313.15	1241.4	1.3

System: 2-furaldehyde + toluene; phases: Liquid
Fixed: Pressure, kPa = 100
Property: Mass density, kg/m3 (Liquid); method: Vibrating tube method
Temperature, K	Mole fraction of 2-furaldehyde	Mass density, kg/m3	uncertainty
283.15	0	876.19	0.94
283.15	0.05	887.95	0.95
283.15	0.1001	900.03	0.95
283.15	0.1501	912.38	0.95
283.15	0.2003	925.04	0.95
283.15	0.25	937.87	0.95
283.15	0.3001	951.07	0.95
283.15	0.3499	964.47	0.95
283.15	0.4	978.24	0.95
283.15	0.45	992.3	0.95
283.15	0.5	1006.7	0.96
283.15	0.6001	1036.47	0.96
283.15	0.6501	1051.85	0.97
283.15	0.7	1067.56	0.97
283.15	0.75	1083.7	0.97
283.15	0.8001	1100.24	0.98
283.15	0.8499	1117.09	0.98
283.15	0.9001	1134.39	0.99
283.15	0.9501	1152.04	0.99
283.15	1	1169.93	0.98
293.15	0	866.91	0.94
293.15	0.05	878.6	0.95
293.15	0.1001	890.62	0.95
293.15	0.1501	902.92	0.95
293.15	0.2003	915.51	0.95
293.15	0.25	928.29	0.95
293.15	0.3001	941.41	0.95
293.15	0.3499	954.77	0.95
293.15	0.4	968.43	0.95
293.15	0.45	982.44	0.95
293.15	0.5	996.77	0.96
293.15	0.6001	1026.43	0.96
293.15	0.6501	1041.7	0.96
293.15	0.7	1057.41	0.97
293.15	0.75	1073.4	0.97
293.15	0.8001	1089.96	0.98
293.15	0.8499	1106.74	0.98
293.15	0.9001	1124	0.98
293.15	0.9501	1141.57	0.99
293.15	1	1159.33	0.98
303.15	0	857.58	0.94
303.15	0.05	869.2	0.95
303.15	0.1001	881.15	0.95
303.15	0.1501	893.38	0.95
303.15	0.2003	905.89	0.95
303.15	0.25	918.62	0.95
303.15	0.3001	931.66	0.95
303.15	0.3499	944.96	0.95
303.15	0.4	958.58	0.95
303.15	0.45	972.54	0.95
303.15	0.5	986.8	0.96
303.15	0.6001	1016.36	0.96
303.15	0.6501	1031.57	0.96
303.15	0.7	1047.22	0.97
303.15	0.75	1063.14	0.97
303.15	0.8001	1079.63	0.97
303.15	0.8499	1096.35	0.98
303.15	0.9001	1113.5	0.98
303.15	0.9501	1131	0.99
303.15	1	1148.69	0.97
313.15	0	848.2	0.94
313.15	0.05	859.77	0.95
313.15	0.1001	871.65	0.95
313.15	0.1501	883.81	0.95
313.15	0.2003	896.26	0.95
313.15	0.25	908.92	0.95
313.15	0.3001	921.9	0.95
313.15	0.3499	935.1	0.95
313.15	0.4	948.66	0.95
313.15	0.45	962.56	0.95
313.15	0.5	976.76	0.96
313.15	0.6001	1006.22	0.96
313.15	0.6501	1021.38	0.96
313.15	0.7	1036.97	0.96
313.15	0.75	1052.82	0.97
313.15	0.8001	1069.24	0.97
313.15	0.8499	1085.9	0.97
313.15	0.9001	1103.03	0.98
313.15	0.9501	1120.48	0.98
313.15	1	1138.01	0.97

System: 2-furaldehyde + toluene; phases: Liquid
Fixed: Pressure, kPa = 100
Fixed: Frequency, MHz = 3
Property: Speed of sound, m/s (Liquid); method: Sing-around technique in a fixed-path interferometer
Temperature, K	Mole fraction of 2-furaldehyde	Speed of sound, m/s	uncertainty
283.15	0	1371.4	1.4
283.15	0.05	1375.8	1.4
283.15	0.1001	1380.9	1.4
283.15	0.1501	1386.2	1.4
283.15	0.2003	1391.5	1.4
283.15	0.25	1396.7	1.4
283.15	0.3001	1402.4	1.4
283.15	0.3499	1407.7	1.4
283.15	0.4	1413.8	1.4
283.15	0.45	1419.7	1.4
283.15	0.5	1426.2	1.4
283.15	0.6001	1438.6	1.4
283.15	0.6501	1445.1	1.4
283.15	0.7	1451.1	1.4
283.15	0.75	1458.3	1.4
283.15	0.8001	1465.4	1.4
283.15	0.8499	1472.7	1.4
283.15	0.9001	1480.2	1.4
283.15	0.9501	1487.7	1.4
283.15	1	1495.4	1.4
293.15	0	1327.4	1.3
293.15	0.05	1332.6	1.3
293.15	0.1001	1338	1.4
293.15	0.1501	1343.4	1.4
293.15	0.2003	1349	1.4
293.15	0.25	1354.9	1.4
293.15	0.3001	1360.8	1.4
293.15	0.3499	1366.7	1.4
293.15	0.4	1373.1	1.4
293.15	0.45	1379.3	1.4
293.15	0.5	1386	1.4
293.15	0.6001	1399.3	1.4
293.15	0.6501	1406.3	1.4
293.15	0.7	1413.4	1.4
293.15	0.75	1420.5	1.4
293.15	0.8001	1427.9	1.4
293.15	0.8499	1435.5	1.4
293.15	0.9001	1443.3	1.4
293.15	0.9501	1451.1	1.4
293.15	1	1458.8	1.4
303.15	0	1284	1.3
303.15	0.05	1289.5	1.3
303.15	0.1001	1295.2	1.3
303.15	0.1501	1301	1.3
303.15	0.2003	1307	1.3
303.15	0.25	1313.2	1.3
303.15	0.3001	1319.4	1.3
303.15	0.3499	1325.7	1.3
303.15	0.4	1332.5	1.3
303.15	0.45	1339.2	1.3
303.15	0.5	1346.1	1.4
303.15	0.6001	1360.2	1.4
303.15	0.6501	1367.7	1.4
303.15	0.7	1375.2	1.4
303.15	0.75	1382.5	1.4
303.15	0.8001	1390.3	1.4
303.15	0.8499	1398.3	1.4
303.15	0.9001	1406.4	1.4
303.15	0.9501	1414.4	1.4
303.15	1	1422.5	1.4
313.15	0	1241.4	1.3
313.15	0.05	1247	1.3
313.15	0.1001	1253	1.3
313.15	0.1501	1259.2	1.3
313.15	0.2003	1265.5	1.3
313.15	0.25	1272	1.3
313.15	0.3001	1278.6	1.3
313.15	0.3499	1285.2	1.3
313.15	0.4	1292.4	1.3
313.15	0.45	1299.4	1.3
313.15	0.5	1306.6	1.3
313.15	0.6001	1321.7	1.3
313.15	0.6501	1329.4	1.3
313.15	0.7	1337.3	1.3
313.15	0.75	1345	1.3
313.15	0.8001	1353.1	1.4
313.15	0.8499	1361.4	1.4
313.15	0.9001	1369.8	1.4
313.15	0.9501	1378.1	1.4
313.15	1	1386.5	1.4

System: 2-hydroxymethylfuran + toluene; phases: Liquid
Fixed: Pressure, kPa = 100
Property: Mass density, kg/m3 (Liquid); method: Vibrating tube method
Temperature, K	Mole fraction of 2-hydroxymethylfuran	Mass density, kg/m3	uncertainty
283.15	0	876.19	0.94
283.15	0.05	887.12	0.95
283.15	0.1001	898.25	0.95
283.15	0.1501	909.54	0.95
283.15	0.2002	921.22	0.95
283.15	0.25	933.17	0.95
283.15	0.3001	945.5	0.95
283.15	0.3499	958.2	0.95
283.15	0.4	970.92	0.95
283.15	0.45	983.88	0.95
283.15	0.55	1010.63	0.96
283.15	0.65	1038.06	0.96
283.15	0.7	1052.07	0.96
283.15	0.7502	1066.39	0.97
283.15	0.8	1080.91	0.97
283.15	0.85	1095.81	0.97
283.15	0.9	1110.87	0.98
283.15	0.9501	1126.08	0.98
283.15	1	1141.46	0.97
293.15	0	866.91	0.94
293.15	0.05	877.76	0.95
293.15	0.1001	888.88	0.95
293.15	0.1501	900.15	0.95
293.15	0.2002	911.8	0.95
293.15	0.25	923.75	0.95
293.15	0.3001	936.09	0.95
293.15	0.3499	948.77	0.95
293.15	0.4	961.49	0.95
293.15	0.45	974.46	0.95
293.15	0.55	1001.22	0.95
293.15	0.65	1028.67	0.96
293.15	0.7	1042.71	0.96
293.15	0.7502	1057.04	0.97
293.15	0.8	1071.59	0.97
293.15	0.85	1086.51	0.97
293.15	0.9	1101.6	0.98
293.15	0.9501	1116.85	0.98
293.15	1	1132.26	0.97
303.15	0	857.58	0.94
303.15	0.05	868.35	0.95
303.15	0.1001	879.44	0.95
303.15	0.1501	890.69	0.95
303.15	0.2002	902.31	0.95
303.15	0.25	914.27	0.95
303.15	0.3001	926.6	0.95
303.15	0.3499	939.27	0.95
303.15	0.4	951.98	0.95
303.15	0.45	964.96	0.95
303.15	0.55	991.75	0.95
303.15	0.65	1019.23	0.96
303.15	0.7	1033.28	0.96
303.15	0.7502	1047.62	0.96
303.15	0.8	1062.2	0.97
303.15	0.85	1077.15	0.97
303.15	0.9	1092.27	0.97
303.15	0.9501	1107.55	0.98
303.15	1	1122.99	0.97
313.15	0	848.2	0.94
313.15	0.05	858.87	0.95
313.15	0.1001	869.92	0.95
313.15	0.1501	881.14	0.95
313.15	0.2002	892.74	0.95
313.15	0.25	904.69	0.95
313.15	0.3001	917.01	0.95
313.15	0.3499	929.67	0.95
313.15	0.4	942.38	0.95
313.15	0.45	955.38	0.95
313.15	0.55	982.17	0.95
313.15	0.65	1009.68	0.96
313.15	0.7	1023.75	0.96
313.15	0.7502	1038.11	0.96
313.15	0.8	1052.72	0.96
313.15	0.85	1067.69	0.97
313.15	0.9	1082.85	0.97
313.15	0.9501	1098.15	0.97
313.15	1	1113.63	0.97

System: 2-hydroxymethylfuran + toluene; phases: Liquid
Fixed: Pressure, kPa = 100
Fixed: Frequency, MHz = 3
Property: Speed of sound, m/s (Liquid); method: Sing-around technique in a fixed-path interferometer
Temperature, K	Mole fraction of 2-hydroxymethylfuran	Speed of sound, m/s	uncertainty
283.15	0	1371.4	1.4
283.15	0.05	1368.2	1.4
283.15	0.1001	1365.9	1.4
283.15	0.1501	1366	1.4
283.15	0.2002	1367.6	1.4
283.15	0.25	1369.9	1.4
283.15	0.3001	1373.5	1.4
283.15	0.3499	1378.2	1.4
283.15	0.4	1383	1.4
283.15	0.45	1388.8	1.4
283.15	0.55	1402.8	1.4
283.15	0.65	1419.7	1.4
283.15	0.7	1429	1.4
283.15	0.7502	1439.4	1.4
283.15	0.8	1449.8	1.4
283.15	0.85	1460.9	1.4
283.15	0.9	1472.8	1.4
283.15	0.9501	1484.9	1.4
283.15	1	1497	1.4
293.15	0	1327.4	1.3
293.15	0.05	1326.2	1.3
293.15	0.1001	1324.7	1.3
293.15	0.1501	1325.3	1.3
293.15	0.2002	1327.3	1.3
293.15	0.25	1330.1	1.3
293.15	0.3001	1334.2	1.3
293.15	0.3499	1339.6	1.3
293.15	0.4	1344.6	1.3
293.15	0.45	1351	1.4
293.15	0.55	1365.9	1.4
293.15	0.65	1383.5	1.4
293.15	0.7	1393.4	1.4
293.15	0.7502	1404	1.4
293.15	0.8	1415	1.4
293.15	0.85	1426.9	1.4
293.15	0.9	1439	1.4
293.15	0.9501	1451.6	1.4
293.15	1	1464.4	1.4
303.15	0	1284	1.3
303.15	0.05	1284.1	1.3
303.15	0.1001	1284.2	1.3
303.15	0.1501	1285.3	1.3
303.15	0.2002	1287.6	1.3
303.15	0.25	1291.1	1.3
303.15	0.3001	1295.5	1.3
303.15	0.3499	1301.4	1.3
303.15	0.4	1306.8	1.3
303.15	0.45	1313.7	1.3
303.15	0.55	1329.5	1.3
303.15	0.65	1348	1.4
303.15	0.7	1358.3	1.4
303.15	0.7502	1369.3	1.4
303.15	0.8	1380.8	1.4
303.15	0.85	1393.1	1.4
303.15	0.9	1405.7	1.4
303.15	0.9501	1418.7	1.4
303.15	1	1431.9	1.4
313.15	0	1241.3	1.3
313.15	0.05	1242.6	1.3
313.15	0.1001	1243.5	1.3
313.15	0.1501	1245.5	1.3
313.15	0.2002	1248.7	1.3
313.15	0.25	1252.7	1.3
313.15	0.3001	1257.6	1.3
313.15	0.3499	1263.8	1.3
313.15	0.4	1269.7	1.3
313.15	0.45	1277.1	1.3
313.15	0.55	1293.8	1.3
313.15	0.65	1313.2	1.3
313.15	0.7	1323.8	1.3
313.15	0.7502	1335.2	1.3
313.15	0.8	1347.2	1.4
313.15	0.85	1359.8	1.4
313.15	0.9	1372.7	1.4
313.15	0.9501	1386.3	1.4
313.15	1	1400	1.4

System: ethanol + 2-hydroxymethylfuran; phases: Liquid
Fixed: Pressure, kPa = 100
Property: Mass density, kg/m3 (Liquid); method: Vibrating tube method
Temperature, K	Mole fraction of 2-hydroxymethylfuran	Mass density, kg/m3	uncertainty
283.15	0	798.51	0.95
283.15	0.05	825	0.98
283.15	0.1001	850.39	0.98
283.15	0.15	874.21	0.97
283.15	0.2	896.97	0.97
283.15	0.2499	918.4	0.97
283.15	0.3	938.55	0.96
283.15	0.3481	957.1	0.96
283.15	0.4	976.26	0.96
283.15	0.4491	993.44	0.96
283.15	0.5001	1010.68	0.96
283.15	0.55	1026.4	0.96
283.15	0.6029	1042.45	0.96
283.15	0.6498	1056.17	0.96
283.15	0.7001	1070.04	0.97
283.15	0.7507	1083.34	0.97
283.15	0.8001	1095.86	0.97
283.15	0.8505	1108.08	0.97
283.15	0.9	1119.58	0.97
283.15	0.9503	1130.9	0.98
283.15	1	1141.46	0.97
293.15	0	789.99	0.95
293.15	0.05	816.4	0.98
293.15	0.1001	841.71	0.98
293.15	0.15	865.47	0.97
293.15	0.2	888.16	0.97
293.15	0.2499	909.55	0.97
293.15	0.3	929.65	0.96
293.15	0.3481	948.16	0.96
293.15	0.4	967.28	0.96
293.15	0.4491	984.43	0.96
293.15	0.5001	1001.63	0.96
293.15	0.55	1017.32	0.96
293.15	0.6029	1033.35	0.96
293.15	0.6498	1047.04	0.96
293.15	0.7001	1060.9	0.96
293.15	0.7507	1074.19	0.97
293.15	0.8001	1086.69	0.97
293.15	0.8505	1098.9	0.97
293.15	0.9	1110.4	0.97
293.15	0.9503	1121.7	0.97
293.15	1	1132.26	0.97
303.15	0	781.38	0.95
303.15	0.05	807.71	0.98
303.15	0.1001	832.94	0.98
303.15	0.15	856.64	0.97
303.15	0.2	879.28	0.97
303.15	0.2499	900.61	0.97
303.15	0.3	920.66	0.96
303.15	0.3481	939.14	0.96
303.15	0.4	958.21	0.96
303.15	0.4491	975.34	0.96
303.15	0.5001	992.5	0.96
303.15	0.55	1008.16	0.96
303.15	0.6029	1024.18	0.96
303.15	0.6498	1037.85	0.96
303.15	0.7001	1051.69	0.96
303.15	0.7507	1064.97	0.96
303.15	0.8001	1077.45	0.97
303.15	0.8505	1089.65	0.97
303.15	0.9	1101.14	0.97
303.15	0.9503	1112.43	0.97
303.15	1	1122.99	0.97
313.15	0	772.64	0.95
313.15	0.05	798.9	0.98
313.15	0.1001	824.05	0.98
313.15	0.15	847.68	0.97
313.15	0.2	870.26	0.97
313.15	0.2499	891.54	0.97
313.15	0.3	911.54	0.96
313.15	0.3481	929.99	0.96
313.15	0.4	949.02	0.96
313.15	0.4491	966.12	0.96
313.15	0.5001	983.26	0.96
313.15	0.55	998.89	0.96
313.15	0.6029	1014.9	0.96
313.15	0.6498	1028.54	0.96
313.15	0.7001	1042.38	0.96
313.15	0.7507	1055.65	0.96
313.15	0.8001	1068.11	0.96
313.15	0.8505	1080.3	0.97
313.15	0.9	1091.79	0.97
313.15	0.9503	1103.07	0.97
313.15	1	1113.63	0.97

System: ethanol + 2-hydroxymethylfuran; phases: Liquid
Fixed: Pressure, kPa = 100
Fixed: Frequency, MHz = 3
Property: Speed of sound, m/s (Liquid); method: Sing-around technique in a fixed-path interferometer
Temperature, K	Mole fraction of 2-hydroxymethylfuran	Speed of sound, m/s	uncertainty
283.15	0	1197.3	1.3
283.15	0.05	1219.9	1.3
283.15	0.1001	1242.7	1.3
283.15	0.15	1264.2	1.3
283.15	0.2	1284.5	1.4
283.15	0.2499	1303.6	1.4
283.15	0.3	1321.5	1.4
283.15	0.3481	1337.9	1.4
283.15	0.4	1355.3	1.4
283.15	0.4491	1370.6	1.4
283.15	0.5001	1386.3	1.4
283.15	0.55	1400.1	1.4
283.15	0.6029	1414.2	1.4
283.15	0.6498	1426.5	1.4
283.15	0.7001	1438.3	1.4
283.15	0.7507	1449.5	1.4
283.15	0.8001	1460.2	1.4
283.15	0.8505	1470.6	1.4
283.15	0.9	1479.9	1.4
283.15	0.9503	1489.1	1.4
283.15	1	1497	1.4
293.15	0	1162.5	1.3
293.15	0.05	1185.4	1.3
293.15	0.1001	1208.1	1.3
293.15	0.15	1229.8	1.3
293.15	0.2	1250.1	1.3
293.15	0.2499	1269.3	1.3
293.15	0.3	1287.1	1.3
293.15	0.3481	1303.6	1.4
293.15	0.4	1321.4	1.4
293.15	0.4491	1336.4	1.4
293.15	0.5001	1352.2	1.4
293.15	0.55	1366	1.4
293.15	0.6029	1380.3	1.4
293.15	0.6498	1392.6	1.4
293.15	0.7001	1404.5	1.4
293.15	0.7507	1415.9	1.4
293.15	0.8001	1426.6	1.4
293.15	0.8505	1437.1	1.4
293.15	0.9	1446.6	1.4
293.15	0.9503	1455.9	1.4
293.15	1	1464.4	1.4
303.15	0	1128.3	1.3
303.15	0.05	1151.3	1.3
303.15	0.1001	1174.1	1.3
303.15	0.15	1195.9	1.3
303.15	0.2	1216.2	1.3
303.15	0.2499	1235.5	1.3
303.15	0.3	1254.2	1.3
303.15	0.3481	1269.9	1.3
303.15	0.4	1287.6	1.3
303.15	0.4491	1302.8	1.3
303.15	0.5001	1318.6	1.3
303.15	0.55	1332.5	1.4
303.15	0.6029	1346.9	1.4
303.15	0.6498	1359.2	1.4
303.15	0.7001	1371.3	1.4
303.15	0.7507	1382.9	1.4
303.15	0.8001	1393.6	1.4
303.15	0.8505	1404.2	1.4
303.15	0.9	1413.8	1.4
303.15	0.9503	1423.3	1.4
303.15	1	1431.9	1.4
313.15	0	1094.6	1.3
313.15	0.05	1117.8	1.3
313.15	0.1001	1140.6	1.3
313.15	0.15	1162.5	1.3
313.15	0.2	1182.9	1.3
313.15	0.2499	1202.3	1.3
313.15	0.3	1220	1.3
313.15	0.3481	1236.8	1.3
313.15	0.4	1254.5	1.3
313.15	0.4491	1269.8	1.3
313.15	0.5001	1285.7	1.3
313.15	0.55	1299.5	1.3
313.15	0.6029	1314.1	1.3
313.15	0.6498	1326.4	1.3
313.15	0.7001	1338.7	1.3
313.15	0.7507	1350.3	1.4
313.15	0.8001	1361.1	1.4
313.15	0.8505	1371.9	1.4
313.15	0.9	1381.5	1.4
313.15	0.9503	1391.2	1.4
313.15	1	1400	1.4
