Measured thermophysical data. Thermodynamic study on some alkanediol solutions: measurement and molecular  modeling
Source: Thermochim. Acta, 2013, 10.1016/j.tca.2013.03.010
Compound 1: propan-1,3-diol, C3H8O2, InChI=1S/C3H8O2/c4-2-1-3-5/h4-5H,1-3H2, purity 98%
Compound 2: 1,2-ethanediol, C2H6O2, InChI=1S/C2H6O2/c3-1-2-4/h3-4H,1-2H2, purity 98%
Compound 3: 1,2-propanediol, C3H8O2, InChI=1S/C3H8O2/c1-3(5)2-4/h3-5H,2H2,1H3, purity 99.7%

System: propan-1,3-diol; phases: Liquid
Fixed: Pressure, kPa = 101
Property: Mass density, kg/m3 (Liquid); method: Vibrating tube method
Temperature, K	Mass density, kg/m3	uncertainty
303.15	1046.2	0.9
308.15	1043.1	0.9
298.15	1049.6	0.9

System: propan-1,3-diol; phases: Liquid
Fixed: Pressure, kPa = 101
Property: Viscosity, Pa*s (Liquid); method: Capillary tube (Ostwald; Ubbelohde) method
Temperature, K	Viscosity, Pa*s	uncertainty
298.15	0.041363	0.000448
303.15	0.032777	0.000356
308.15	0.0263442	0.0002866
308.15	0.026344	0.000287
298.15	0.041362	0.000448

System: 1,2-ethanediol; phases: Liquid
Fixed: Pressure, kPa = 101
Property: Mass density, kg/m3 (Liquid); method: Vibrating tube method
Temperature, K	Mass density, kg/m3	uncertainty
303.15	1106	1.1
308.15	1102.7	1.1
298.15	1109.7	1.1

System: 1,2-ethanediol; phases: Liquid
Fixed: Pressure, kPa = 101
Property: Viscosity, Pa*s (Liquid); method: Capillary tube (Ostwald; Ubbelohde) method
Temperature, K	Viscosity, Pa*s	uncertainty
303.15	0.013588	0.000149
308.15	0.011338	0.000125
298.15	0.016867	0.000184

System: 1,2-propanediol; phases: Liquid
Fixed: Pressure, kPa = 101
Property: Mass density, kg/m3 (Liquid); method: Vibrating tube method
Temperature, K	Mass density, kg/m3	uncertainty
303.15	1028.8	0.2
308.15	1025.2	0.2
298.15	1032.7	0.2

System: 1,2-propanediol; phases: Liquid
Fixed: Pressure, kPa = 101
Property: Viscosity, Pa*s (Liquid); method: Capillary tube (Ostwald; Ubbelohde) method
Temperature, K	Viscosity, Pa*s	uncertainty
298.15	0.044785	0.000198
303.15	0.033754	0.000152
308.15	0.026996	0.000122

System: 1,2-propanediol + 1,2-ethanediol; phases: Liquid
Fixed: Pressure, kPa = 101
Property: Mass density, kg/m3 (Liquid); method: Vibrating tube method
Temperature, K	Mole fraction of 1,2-ethanediol	Mass density, kg/m3	uncertainty
298.15	0	1032.7	0.2
298.15	0.1208	1041	0.2
298.15	0.2353	1048.6	0.3
298.15	0.3454	1056.1	0.3
298.15	0.4345	1062.3	0.3
298.15	0.5508	1070.8	0.4
298.15	0.6303	1077	0.5
298.15	0.7473	1086.6	0.6
298.15	0.8302	1093.7	0.8
298.15	0.9065	1100.6	0.9
298.15	1	1109.7	1.1
303.15	0	1028.8	0.2
303.15	0.1208	1036.9	0.2
303.15	0.2353	1044.6	0.3
303.15	0.3454	1052.1	0.3
303.15	0.4345	1058.4	0.3
303.15	0.5508	1066.9	0.4
303.15	0.6303	1073.1	0.5
303.15	0.7473	1082.7	0.6
303.15	0.8302	1089.8	0.8
303.15	0.9065	1096.8	0.9
303.15	1	1106	1.1
308.15	0	1025.2	0.2
308.15	0.1208	1033.3	0.2
308.15	0.2353	1041	0.3
308.15	0.3454	1048.5	0.3
308.15	0.4345	1054.7	0.3
308.15	0.5508	1063.4	0.4
308.15	0.6303	1069.5	0.5
308.15	0.7473	1079.2	0.6
308.15	0.8302	1086.4	0.8
308.15	0.9065	1093.4	0.9
308.15	1	1102.7	1.1

System: 1,2-propanediol + 1,2-ethanediol; phases: Liquid
Fixed: Pressure, kPa = 101
Property: Viscosity, Pa*s (Liquid); method: Capillary tube (Ostwald; Ubbelohde) method
Temperature, K	Mole fraction of 1,2-ethanediol	Viscosity, Pa*s	uncertainty
298.15	0	0.044785	0.000198
298.15	0.1208	0.042412	0.000207
298.15	0.2353	0.040027	0.000218
298.15	0.3454	0.037275	0.000228
298.15	0.4345	0.034741	0.000233
298.15	0.5508	0.031352	0.000235
298.15	0.6303	0.028908	0.000233
298.15	0.7473	0.02533	0.000227
298.15	0.8302	0.022717	0.000218
298.15	0.9065	0.020159	0.000205
298.15	1	0.016867	0.000184
303.15	0	0.033754	0.000152
303.15	0.1208	0.032098	0.000159
303.15	0.2353	0.030138	0.000166
303.15	0.3454	0.028085	0.000173
303.15	0.4345	0.026244	0.000177
303.15	0.5508	0.023803	0.00018
303.15	0.6303	0.022057	0.000179
303.15	0.7473	0.019522	0.000176
303.15	0.8302	0.017625	0.00017
303.15	0.9065	0.015855	0.000162
303.15	1	0.013588	0.000149
308.15	0	0.026996	0.000122
308.15	0.1208	0.025651	0.000128
308.15	0.2353	0.02413	0.000134
308.15	0.3454	0.022514	0.00014
308.15	0.4345	0.021048	0.000143
308.15	0.5508	0.01911	0.000145
308.15	0.6303	0.017778	0.000145
308.15	0.7473	0.01582	0.000143
308.15	0.8302	0.014389	0.000139
308.15	0.9065	0.013071	0.000134
308.15	1	0.011338	0.000125

System: 1,2-ethanediol + propan-1,3-diol; phases: Liquid
Fixed: Pressure, kPa = 101
Property: Mass density, kg/m3 (Liquid); method: Vibrating tube method
Temperature, K	Mole fraction of 1,2-ethanediol	Mass density, kg/m3	uncertainty
298.15	0	1049.6	0.9
298.15	0.1107	1055.3	1
298.15	0.2024	1060.1	1
298.15	0.3597	1069.3	1
298.15	0.4617	1075.7	1
298.15	0.551	1081.4	1
298.15	0.6258	1086.2	1
298.15	0.7354	1093.1	1
298.15	0.8285	1099.1	1
298.15	0.9105	1104.5	1.1
298.15	1	1109.7	1.1
303.15	0	1046.2	0.9
303.15	0.1107	1051.7	0.9
303.15	0.2024	1056.5	1
303.15	0.3597	1065.7	1
303.15	0.4617	1072	1
303.15	0.551	1077.6	1
303.15	0.6258	1082.3	1
303.15	0.7354	1089.2	1
303.15	0.8285	1095.2	1
303.15	0.9105	1100.7	1
303.15	1	1106	1.1
308.15	0	1043.1	0.9
308.15	0.1107	1048.5	0.9
308.15	0.2024	1053.1	0.9
308.15	0.3597	1061.9	1
308.15	0.4617	1068.1	1
308.15	0.551	1073.6	1
308.15	0.6258	1078.3	1
308.15	0.7354	1085.2	1
308.15	0.8285	1091.1	1
308.15	0.9105	1096.5	1
308.15	1	1102.7	1.1

System: 1,2-ethanediol + propan-1,3-diol; phases: Liquid
Fixed: Pressure, kPa = 101
Property: Viscosity, Pa*s (Liquid); method: Capillary tube (Ostwald; Ubbelohde) method
Temperature, K	Mole fraction of 1,2-ethanediol	Viscosity, Pa*s	uncertainty
298.15	0	0.041363	0.000448
298.15	0.1107	0.039555	0.000428
298.15	0.2024	0.037698	0.000408
298.15	0.3597	0.034328	0.000372
298.15	0.4617	0.031957	0.000347
298.15	0.551	0.029748	0.000323
298.15	0.6258	0.027757	0.000302
298.15	0.7354	0.024775	0.00027
298.15	0.8285	0.022087	0.000241
298.15	0.9105	0.019624	0.000214
298.15	1	0.016867	0.000184
303.15	0	0.032777	0.000356
303.15	0.1107	0.031195	0.000339
303.15	0.2024	0.029749	0.000323
303.15	0.3597	0.02696	0.000293
303.15	0.4617	0.025058	0.000273
303.15	0.551	0.023319	0.000254
303.15	0.6258	0.021773	0.000237
303.15	0.7354	0.019448	0.000212
303.15	0.8285	0.017388	0.00019
303.15	0.9105	0.015641	0.000171
303.15	1	0.013588	0.000149
308.15	0	0.0263442	0.0002866
308.15	0.1107	0.024941	0.000272
308.15	0.2024	0.023699	0.000258
308.15	0.3597	0.021425	0.000234
308.15	0.4617	0.019914	0.000218
308.15	0.551	0.018564	0.000203
308.15	0.6258	0.017387	0.00019
308.15	0.7354	0.015656	0.000172
308.15	0.8285	0.014154	0.000155
308.15	0.9105	0.012821	0.000141
308.15	1	0.011338	0.000125

System: 1,2-propanediol + propan-1,3-diol; phases: Liquid
Fixed: Pressure, kPa = 101
Property: Mass density, kg/m3 (Liquid); method: Vibrating tube method
Temperature, K	Mole fraction of 1,2-propanediol	Mass density, kg/m3	uncertainty
298.15	0	1049.6	0.9
298.15	0.1002	1049.1	0.8
298.15	0.2105	1048.3	0.6
298.15	0.2994	1047.8	0.5
298.15	0.4088	1046.9	0.4
298.15	0.5002	1045.9	0.4
298.15	0.5937	1044.7	0.3
298.15	0.7125	1042.6	0.3
298.15	0.7996	1040.2	0.2
298.15	0.9217	1036.5	0.2
298.15	1	1032.7	0.2
303.15	0	1046.2	0.9
303.15	0.1002	1046	0.8
303.15	0.2105	1045.6	0.6
303.15	0.2994	1045.1	0.5
303.15	0.4088	1044.1	0.4
303.15	0.5002	1043	0.4
303.15	0.5937	1041.7	0.3
303.15	0.7126	1039.3	0.3
303.15	0.7996	1036.7	0.2
303.15	0.9217	1033	0.2
303.15	1	1028.8	0.2
308.15	0	1043.1	0.9
308.15	0.1002	1043	0.8
308.15	0.2105	1042.8	0.6
308.15	0.2994	1042.2	0.5
308.15	0.4088	1041	0.4
308.15	0.5002	1039.9	0.4
308.15	0.5937	1038.5	0.3
308.15	0.7126	1036	0.3
308.15	0.7996	1033.5	0.2
308.15	0.9217	1029.7	0.2
308.15	1	1025.2	0.2

System: 1,2-propanediol + propan-1,3-diol; phases: Liquid
Fixed: Pressure, kPa = 101
Property: Viscosity, Pa*s (Liquid); method: Capillary tube (Ostwald; Ubbelohde) method
Temperature, K	Mole fraction of 1,2-propanediol	Viscosity, Pa*s	uncertainty
298.15	0	0.041362	0.000448
298.15	0.1002	0.041774	0.00042
298.15	0.2105	0.042227	0.000388
298.15	0.2994	0.042587	0.000363
298.15	0.4088	0.043025	0.000333
298.15	0.5002	0.043382	0.000308
298.15	0.5937	0.043725	0.000283
298.15	0.7125	0.04408	0.000253
298.15	0.7996	0.044306	0.000233
298.15	0.9217	0.044622	0.000209
298.15	1	0.044785	0.000198
303.15	0	0.032777	0.000356
303.15	0.1002	0.032931	0.000332
303.15	0.2105	0.033117	0.000306
303.15	0.2994	0.033255	0.000285
303.15	0.4088	0.033432	0.00026
303.15	0.5002	0.033556	0.000239
303.15	0.5937	0.033662	0.000219
303.15	0.7125	0.033735	0.000195
303.15	0.7996	0.033746	0.000179
303.15	0.9217	0.033764	0.000161
303.15	1	0.033754	0.000152
308.15	0	0.026344	0.000287
308.15	0.1002	0.026453	0.000267
308.15	0.2105	0.026558	0.000246
308.15	0.2994	0.026663	0.000229
308.15	0.4088	0.026753	0.000209
308.15	0.5002	0.026838	0.000192
308.15	0.5937	0.026912	0.000176
308.15	0.7125	0.026944	0.000157
308.15	0.7996	0.026959	0.000144
308.15	0.9217	0.026991	0.000129
308.15	1	0.026996	0.000122
