Measured thermophysical data. Study of Glass Transition Phenomena in the Supercooled Liquid Phase of Methocarbamol, Acetaminophen and Mephensin
Source: Thermochim. Acta, 2014, 10.1016/j.tca.2013.10.035
Compound 1: (S)-(+)-naproxen, C14H14O3, InChI=1S/C14H14O3/c1-9(14(15)16)10-3-4-12-8-13(17-2)6-5-11(12)7-10/h3-9H,1-2H3,(H,15,16)/t9-/m0/s1, purity 98%
Compound 2: 2-(4-(2-hydroxy-3-(isopropylamino)propoxy)phenyl)acetamide, C14H22N2O3, InChI=1S/C14H22N2O3/c1-10(2)16-8-12(17)9-19-13-5-3-11(4-6-13)7-14(15)18/h3-6,10,12,16-17H,7-9H2,1-2H3,(H2,15,18), purity 98%
Compound 3: 2-hydroxy-3-(2-methoxyphenoxy)propyl carbamate, C11H15NO5, InChI=1S/C11H15NO5/c1-15-9-4-2-3-5-10(9)16-6-8(13)7-17-11(12)14/h2-5,8,13H,6-7H2,1H3,(H2,12,14), purity 98%
Compound 4: N-acetyl-p-aminophenol, C8H9NO2, InChI=1S/C8H9NO2/c1-6(10)9-7-2-4-8(11)5-3-7/h2-5,11H,1H3,(H,9,10), purity 99%
Compound 5: 3-(2-methylphenoxy)-1,2-propanediol, C10H14O3, InChI=1S/C10H14O3/c1-8-4-2-3-5-10(8)13-7-9(12)6-11/h2-5,9,11-12H,6-7H2,1H3, purity 98%

System: (S)-(+)-naproxen; phases: Crystal, Liquid, Air at 1 atmosphere
Property: Molar enthalpy of transition or fusion, kJ/mol (Crystal); method: DSC
Molar enthalpy of transition or fusion, kJ/mol	uncertainty
29	0.8

System: (S)-(+)-naproxen; phases: Crystal, Liquid, Air at 1 atmosphere
Property: Normal melting temperature, K (Crystal); method: DTA
Normal melting temperature, K	uncertainty
426.7	0.5

System: 2-(4-(2-hydroxy-3-(isopropylamino)propoxy)phenyl)acetamide; phases: Crystal, Liquid, Air at 1 atmosphere
Property: Molar enthalpy of transition or fusion, kJ/mol (Crystal); method: DSC
Molar enthalpy of transition or fusion, kJ/mol	uncertainty
37.6	1

System: 2-(4-(2-hydroxy-3-(isopropylamino)propoxy)phenyl)acetamide; phases: Crystal, Liquid, Air at 1 atmosphere
Property: Normal melting temperature, K (Crystal); method: DTA
Normal melting temperature, K	uncertainty
425.9	0.5

System: 2-hydroxy-3-(2-methoxyphenoxy)propyl carbamate; phases: Crystal, Liquid, Air at 1 atmosphere
Property: Molar enthalpy of transition or fusion, kJ/mol (Crystal); method: DSC
Molar enthalpy of transition or fusion, kJ/mol	uncertainty
38.6	1.1

System: 2-hydroxy-3-(2-methoxyphenoxy)propyl carbamate; phases: Crystal, Liquid, Air at 1 atmosphere
Property: Normal melting temperature, K (Crystal); method: DTA
Normal melting temperature, K	uncertainty
368.5	0.5

System: 2-hydroxy-3-(2-methoxyphenoxy)propyl carbamate; phases: Glass, Liquid, Gas
Property: Triple point temperature, K (Glass); method: DTA
Triple point temperature, K	uncertainty
276.4	0.5

System: N-acetyl-p-aminophenol; phases: Metastable crystal, Liquid, Air at 1 atmosphere
Property: Molar enthalpy of transition or fusion, kJ/mol (Metastable crystal); method: DSC
Molar enthalpy of transition or fusion, kJ/mol	uncertainty
24.9	0.7

System: N-acetyl-p-aminophenol; phases: Crystal 1, Liquid, Air at 1 atmosphere
Property: Molar enthalpy of transition or fusion, kJ/mol (Crystal 1); method: DSC
Molar enthalpy of transition or fusion, kJ/mol	uncertainty
26	0.8

System: N-acetyl-p-aminophenol; phases: Metastable crystal, Liquid, Air at 1 atmosphere
Property: Normal melting temperature, K (Metastable crystal); method: DTA
Normal melting temperature, K	uncertainty
429.8	0.5

System: N-acetyl-p-aminophenol; phases: Crystal 1, Liquid, Air at 1 atmosphere
Property: Normal melting temperature, K (Crystal 1); method: DTA
Normal melting temperature, K	uncertainty
442.4	0.5

System: N-acetyl-p-aminophenol; phases: Glass, Liquid, Gas
Property: Triple point temperature, K (Glass); method: DTA
Triple point temperature, K	uncertainty
294.4	0.5

System: 3-(2-methylphenoxy)-1,2-propanediol; phases: Crystal 1, Liquid, Air at 1 atmosphere
Property: Molar enthalpy of transition or fusion, kJ/mol (Crystal 1); method: DSC
Molar enthalpy of transition or fusion, kJ/mol	uncertainty
29.8	0.9

System: 3-(2-methylphenoxy)-1,2-propanediol; phases: Crystal 1, Liquid, Air at 1 atmosphere
Property: Normal melting temperature, K (Crystal 1); method: DTA
Normal melting temperature, K	uncertainty
343.1	0.5

System: 3-(2-methylphenoxy)-1,2-propanediol; phases: Glass, Liquid, Gas
Property: Triple point temperature, K (Glass); method: DTA
Triple point temperature, K	uncertainty
238.6	0.5
