Measured thermophysical data. Melting temperature and heat of fusion of cytosine revealed from fast scanning calorimetry
Source: Thermochim. Acta, 2017, 10.1016/j.tca.2017.09.013
Compound 1: 4-amino-2-hydroxypyrimidine, C4H5N3O, InChI=1S/C4H5N3O/c5-3-1-2-6-4(8)7-3/h1-2H,(H3,5,6,7,8)
Compound 2: anthracene, C14H10, InChI=1S/C14H10/c1-2-6-12-10-14-8-4-3-7-13(14)9-11(12)5-1/h1-10H

System: 4-amino-2-hydroxypyrimidine; phases: Crystal, Liquid, Air at 1 atmosphere
Property: Normal melting temperature, K (Crystal); method: DTA
Normal melting temperature, K	uncertainty
607	3

System: 4-amino-2-hydroxypyrimidine; phases: Glass, Liquid, Air at 1 atmosphere
Property: Triple point temperature, K (Glass); method: DSC
Triple point temperature, K	uncertainty
388	3

System: 4-amino-2-hydroxypyrimidine; phases: Crystal, Liquid, Air at 1 atmosphere
Property: Molar enthalpy of transition or fusion, kJ/mol (Crystal); method: DSC
Molar enthalpy of transition or fusion, kJ/mol	uncertainty
34.88606568	2.33314452

System: 4-amino-2-hydroxypyrimidine; phases: Metastable liquid
Fixed: Pressure, kPa = 101.325
Property: Molar heat capacity at constant pressure, J/K/mol (Metastable liquid); method: Small sample (50 mg) DSC
Temperature, K	Molar heat capacity at constant pressure, J/K/mol	uncertainty
408	268	36
413	269	38
418	271	40
423	272	42
428	274	44

System: anthracene; phases: Crystal, Liquid, Air at 1 atmosphere
Property: Molar enthalpy of transition or fusion, kJ/mol (Crystal); method: DSC
Molar enthalpy of transition or fusion, kJ/mol	uncertainty
27.2690676	2.8516672
