Measured thermophysical data. The heat capacity and thermodynamic functions of celestine SrSO4
Source: Thermochim. Acta, 2013, 10.1016/j.tca.2013.05.017
Compound 1: sulfuric acid, strontium salt (1:1), O4SSr, InChI=1S/H2O4S.Sr/c1-5(2,3)4;/h(H2,1,2,3,4);/q;+2/p-2, purity 99%

System: sulfuric acid, strontium salt (1:1); phases: Crystal 2
Fixed: Pressure, kPa = 101.325
Property: Molar heat capacity at constant pressure, J/K/mol (Crystal 2); method: Small (less than 1 g) adiabatic calorimetry
Temperature, K	Molar heat capacity at constant pressure, J/K/mol	uncertainty
81.29	45.47087518	0.326956808
84.99	47.247095592	0.336140988
88.05	48.756974784	0.343488332
85.54	47.51894732	0.337977824
89.28	49.229041636	0.345325168
92.35	50.588300276	0.402267084
95.43	51.886943328	0.407777592
98.51	53.124970792	0.4132881
101.61	54.309730012	0.416961772
104.71	55.4724472	0.42247228
107.82	56.596590832	0.426145952
110.94	57.742776496	0.43165646
114.06	58.771404656	0.435330132
117.2	59.814727504	0.439003804
120.33	60.867234532	0.442677476
123.49	61.838920776	0.448187984
126.64	62.834485888	0.451861656
129.8	63.85760354	0.455535328
132.97	64.768674196	0.459209
136.16	65.793628684	0.462882672
139.35	66.653267932	0.466556344
142.54	67.617606832	0.470230016
145.74	68.466225064	0.473903688
148.95	69.415869276	0.47757736
152.16	70.247955984	0.481251032
155.38	71.080042692	0.484924704
158.6	72.002134364	0.488598376
161.84	72.826873728	0.490435212
165.09	73.59283434	0.494108884
168.34	74.314710888	0.497782556
171.6	75.189044824	0.501456228
174.86	75.967863288	0.503293064
178.13	76.741171244	0.506966736
181.41	77.483252988	0.510640408
184.69	78.219824224	0.512477244
187.99	78.943537608	0.516150916
191.28	79.70949822	0.517987752
194.56	80.473621996	0.521661424
197.83	81.24325628	0.525335096
201.09	81.917375092	0.527171932
204.35	82.541899332	0.530845604
207.6	83.179281424	0.53268244
210.83	83.807479336	0.534519276
214.05	84.435677248	0.538192948
217.26	85.041833128	0.540029784
220.45	85.671867876	0.54186662
223.62	86.309249968	0.545540292
226.78	86.941121552	0.547377128
229.93	87.576666808	0.5510508
233.05	88.237927768	0.552887636
236.17	88.82938896	0.554724472
239.32	89.455750036	0.558398144
242.4	90.054558572	0.56023498
245.47	90.640509256	0.562071816
248.53	91.222786268	0.565745488
251.58	91.849147344	0.567582324
254.61	92.431424356	0.56941916
257.63	93.004517188	0.571255996
260.65	93.583120528	0.574929668
263.66	94.158050196	0.576766504
266.66	94.769716584	0.57860334
269.66	95.388730316	0.582277012
272.64	95.958149476	0.584113848
275.63	96.37878492	0.585950684
278.61	96.872893804	0.58778752
281.59	97.378023704	0.589624356
284.56	97.833559032	0.591461192
287.65	98.391957176	0.593298028
290.61	98.906271256	0.595134864
293.57	99.370990764	0.5969717
296.52	99.835710272	0.598808536
299.46	100.339003336	0.600645372
302.4	100.792701828	0.602482208
305.33	101.187621568	0.604319044
308.26	101.584378144	0.60615588
311.18	102.006850424	0.607992716
314.09	102.444017392	0.609829552
316.99	102.815058264	0.611666388
319.89	103.149362416	0.613503224
322.78	103.571834696	0.613503224
79.87	44.728793436	0.323283136
83.56	46.57297678	0.332467316
86.61	48.025914056	0.33981466
89.67	49.418235744	0.347162004
92.74	50.753615516	0.402267084
95.81	52.057769076	0.407777592
98.89	53.273754508	0.4132881
101.98	54.460350564	0.418798608
105.08	55.6102099	0.42247228
108.19	56.7582324	0.427982788
111.31	57.808902592	0.43165646
114.43	58.877941144	0.435330132
117.56	59.967184892	0.44084064
120.71	60.959076332	0.444514312
123.85	61.960151952	0.448187984
127.01	62.93000136	0.451861656
130.19	63.914545456	0.455535328
133.35	64.930315764	0.459209
136.53	65.82301806	0.462882672
139.72	66.803888484	0.466556344
142.91	67.65066988	0.470230016
146.11	68.548882684	0.473903688
149.31	69.494853224	0.47757736
152.52	70.411434388	0.481251032
155.74	71.271073636	0.484924704
158.97	72.088465656	0.488598376
162.22	72.916878692	0.492272048
165.46	73.732433876	0.494108884
168.72	74.489210308	0.497782556
171.99	75.266191936	0.501456228
175.25	76.01745786	0.503293064
178.53	76.766886948	0.506966736
181.81	77.525500216	0.510640408
185.09	78.293297664	0.512477244
188.38	78.967416476	0.516150916
191.67	79.799503184	0.519824588
194.96	80.635263564	0.52349826
198.25	81.333261244	0.525335096
201.53	81.90451724	0.527171932
204.81	82.545573004	0.530845604
208.08	83.1627499	0.53268244
211.34	83.827684532	0.534519276
214.58	84.498129672	0.538192948
217.8	85.107959224	0.540029784
221.01	85.739830808	0.543703456
224.21	86.355170868	0.545540292
227.39	86.957653076	0.547377128
230.55	87.5711563	0.5510508
233.75	88.272827652	0.552887636
236.88	88.888167712	0.554724472
239.99	89.501670936	0.558398144
243.09	90.061905916	0.56023498
246.17	90.673572304	0.562071816
249.24	91.228296776	0.565745488
252.29	91.854657852	0.567582324
255.33	92.46632424	0.56941916
258.36	93.055948596	0.573092832
261.38	93.647409788	0.574929668
264.39	94.259076176	0.576766504
267.4	94.850537368	0.57860334
270.4	95.471387936	0.582277012
273.39	95.91957592	0.584113848
276.38	96.386132264	0.585950684
279.36	96.86554646	0.58778752
282.43	97.363329016	0.589624356
285.4	97.914379816	0.591461192
288.36	98.428693896	0.593298028
291.32	98.9595395	0.595134864
294.28	99.433443188	0.5969717
297.22	99.876120664	0.598808536
300.17	100.261856224	0.600645372
303.1	100.803722844	0.602482208
306.03	101.215174108	0.604319044
308.95	101.591725488	0.60615588
311.87	101.986645228	0.607992716
314.78	102.403607	0.609829552
317.69	102.78934256	0.611666388
320.59	103.180588628	0.613503224
85.53	47.507926304	0.337977824
89.26	49.194141752	0.345325168
92.33	50.553400392	0.402267084
95.41	51.852043444	0.407777592
98.5	53.07537622	0.4132881
101.59	54.274830128	0.416961772
104.69	55.443057824	0.42247228
107.8	56.578222472	0.426145952
110.92	57.669303056	0.429819624
114.04	58.721810084	0.435330132
117.18	59.76145926	0.439003804
120.32	60.793761092	0.442677476
123.46	61.804020892	0.448187984
126.62	62.799586004	0.451861656
129.77	63.776782756	0.455535328
132.94	64.724590132	0.459209
136.13	65.68525536	0.462882672
139.32	66.682657308	0.466556344
142.51	67.529438704	0.470230016
145.71	68.409283148	0.473903688
148.91	69.2946381	0.47757736
152.12	70.27734536	0.481251032
155.34	71.045142808	0.484924704
158.56	71.972744988	0.488598376
161.8	72.788300172	0.490435212
165.05	73.581813324	0.494108884
168.3	74.28164784	0.497782556
171.55	75.152308104	0.501456228
174.82	75.932963404	0.503293064
178.09	76.675045148	0.506966736
181.37	77.4226374	0.508803572
184.66	78.144513948	0.512477244
187.96	78.91047456	0.516150916
191.26	79.7186824	0.517987752
194.56	80.514032388	0.521661424
197.85	81.223051084	0.525335096
201.14	81.80349126	0.527171932
204.42	82.411483976	0.529008768
207.7	82.949676924	0.53268244
210.94	83.68624816	0.534519276
214.18	84.33832494	0.538192948
217.41	84.948154492	0.540029784
220.61	85.609415452	0.54186662
223.8	86.217408168	0.545540292
226.98	86.85479026	0.547377128
230.13	87.475640828	0.549213964
233.27	88.127717608	0.552887636
236.39	88.627337	0.554724472
239.54	89.385950268	0.558398144
242.63	89.953532592	0.56023498
245.71	90.5560148	0.562071816
248.77	91.145639156	0.563908652
251.81	91.784858084	0.567582324
254.84	92.368971932	0.56941916
257.87	92.942064764	0.571255996
260.88	93.562915332	0.574929668
263.89	94.130497656	0.576766504
266.89	94.701753652	0.57860334
269.89	95.29505168	0.580440176
272.87	95.80936576	0.584113848
275.85	96.246532728	0.584113848
278.83	96.751662628	0.58778752
281.8	97.225566316	0.589624356
284.76	97.730696216	0.591461192
287.81	98.241336624	0.593298028
290.76	98.74830336	0.595134864
293.71	99.21669654	0.5969717
296.64	99.690600228	0.598808536
299.56	100.142461884	0.600645372
302.48	100.579628852	0.602482208
305.39	100.996590624	0.604319044
308.3	101.41171556	0.60615588
311.19	101.8066353	0.607992716
314.08	102.286049496	0.609829552
316.97	102.719542792	0.611666388
319.85	103.136504564	0.611666388
322.73	103.573671532	0.613503224
5.083	0.0450484029	0.020815025552
5.422	0.042328048784	0.020763594144
5.622	0.055432036808	0.02099503548
5.831	0.054642197328	0.02097666712
6.044	0.066930630168	0.021189740096
6.354	0.080244017496	0.021424855104
6.759	0.101828677332	0.02179405914
7.169	0.125193231252	0.022185305208
7.591	0.154501786468	0.022668393076
8.021	0.18730216692	0.02319923868
8.448	0.22725334992	0.02386049964
8.881	0.27073125804	0.02455849732
9.317	0.32166672032	0.0253483368
9.755	0.37983931644	0.0262667548
10.2	0.44513883624	0.02729538296
10.86	0.56468012312	0.02905874552
11.75	0.74057553848	0.03163031592
12.65	0.95025036788	0.03456925352
13.55	1.1968823376	0.03791229504
14.47	1.483704279	0.04164107212
15.39	1.81251629136	0.04566374296
16.32	2.148179702	0.049594572
17.26	2.5307926408	0.0538192948
18.2	2.9604285812	0.0584113848
19.14	3.4319443824	0.0631871584
20.1	3.9067664884	0.0675955648
21.53	4.686687054	0.0742081744
23.44	5.783278146	0.0822902528
25.37	6.9904467652	0.0898212804
27.32	8.3133360524	0.09643389
6.285	0.070622670528	0.021255866192
6.677	0.097282508232	0.021709564684
7.066	0.120547873008	0.022104484424
7.482	0.14751629916	0.022552672408
7.904	0.177688167296	0.023046781292
8.33	0.2150934956	0.02365844768
8.763	0.25425483912	0.02430134028
9.197	0.30460251388	0.02509117976
9.635	0.36308737212	0.02602796612
10.08	0.42699089656	0.0270014892
10.75	0.54300545832	0.0287464834
11.64	0.715447622	0.03128131708
12.54	0.91944662816	0.03414678124
13.45	1.16027419612	0.03741634932
14.36	1.44608587772	0.04116349476
15.29	1.77058132548	0.04514942888
16.22	2.1051977396	0.0490435212
17.16	2.4876269948	0.0534519276
18.1	2.927916584	0.0582277012
19.05	3.383451912	0.0626361076
20.01	3.8397219744	0.0668608304
21.44	4.6380109	0.0738408072
23.36	5.733683574	0.0819228856
25.3	6.9452605996	0.0896375968
27.25	8.2503325776	0.0960665228
29.2	9.6244695892	0.10102598
31.17	11.032037016	0.1557636928
33.14	12.4392370756	0.1629273532
35.1	13.9917308628	0.1706420644
37.07	15.5146515904	0.1783567756
30.75	10.7403474592	0.154294224
32.62	12.0990550484	0.1610905172
34.6	13.5753201416	0.1686215448
36.58	15.1239565732	0.176336256
38.55	16.706941838	0.1842346508
40.53	18.2926823568	0.1921330456
42.52	19.845176144	0.200215124
44.51	21.395465728	0.207562468
46.49	22.953102656	0.214909812
48.48	24.45747134	0.222257156
50.48	25.998576744	0.231441336
52.46	27.60764508	0.23878868
54.45	29.143239976	0.246136024
56.45	30.476782912	0.253483368
58.44	31.733178736	0.258993876
60.44	33.276120976	0.26634122
62.43	34.65191114	0.273688564
64.42	35.96524888	0.279199072
66.35	37.120618724	0.286546416
68.21	38.274151732	0.292056924
70	39.322985088	0.297567432
72.39	40.75020666	0.30307794
75.41	42.41254324	0.31226212
78.44	44.039979936	0.319609464
81.48	45.582922176	0.328793644
34.76	13.7125317908	0.1691725956
36.73	15.2345341004	0.1768873068
38.7	16.81164149	0.1847857016
40.68	18.38672836	0.19286778
42.65	19.959059976	0.200215124
44.63	21.4909812	0.207562468
46.61	22.99718672	0.214909812
48.59	24.49420806	0.222257156
50.57	26.020618776	0.231441336
52.55	27.611318752	0.23878868
54.52	29.135892632	0.246136024
56.51	30.487803928	0.253483368
58.49	31.78644698	0.258993876
60.48	33.281631484	0.26634122
62.46	34.662932156	0.273688564
64.44	35.895449112	0.279199072
66.35	37.146334428	0.286546416
68.19	38.257620208	0.292056924
69.98	39.3082904	0.297567432
72.35	40.737348808	0.30307794
75.34	42.372132848	0.31226212
78.33	43.975690676	0.319609464
81.33	45.522306588	0.326956808

System: sulfuric acid, strontium salt (1:1); phases: Crystal 2
Fixed: Pressure, kPa = 101.325
Property: Molar heat capacity at constant pressure, J/K/mol (Crystal 2); method: Small (less than 1 g) adiabatic calorimetry
Temperature, K	Molar heat capacity at constant pressure, J/K/mol	uncertainty
5	0.03816	0.02074
10	0.4163	0.0269
15	1.665	0.044
20	3.864	0.067
25	6.782	0.089
30	10.21	0.15
35	13.95	0.17
40	17.87	0.19
45	21.83	0.21
50	25.73	0.23
55	29.5	0.25
60	33.05	0.27
65	36.36	0.28
70	39.45	0.3
75	42.32	0.31
80	44.96	0.33
85	47.4	0.34
90	49.69	0.4
95	51.83	0.41
100	53.84	0.42
110	57.52	0.43
120	60.88	0.44
130	64.04	0.46
140	67.03	0.47
150	69.86	0.48
160	72.51	0.49
170	74.99	0.5
180	77.33	0.51
190	79.65	0.52
200	81.87	0.53
210	83.8	0.54
220	85.76	0.54
230	87.75	0.55
240	89.75	0.56
250	91.7	0.57
260	93.66	0.57
270	95.59	0.58
273.15	96.15	0.58
280	97.3	0.59
290	98.96	0.6
298.15	100.3	0.6
300	100.59	0.6
310	102.03	0.61
320	103.44	0.61

System: sulfuric acid, strontium salt (1:1); phases: Crystal 2
Fixed: Pressure, kPa = 101.325
Property: Molar entropy, J/K/mol (Crystal 2); method: Small (less than 1 g) adiabatic calorimetry
Temperature, K	Molar entropy, J/K/mol	uncertainty
5	0.01272	0.03035
10	0.1188	0.0329
15	0.4903	0.0404
20	1.25	0.053
25	2.413	0.066
30	3.947	0.18
35	5.8	0.194
40	7.917	0.21
45	10.25	0.23
50	12.75	0.25
55	15.38	0.27
60	18.11	0.29
65	20.88	0.31
70	23.69	0.33
75	26.51	0.35
80	29.33	0.37
85	32.13	0.39
90	34.9	0.51
95	37.65	0.53
100	40.36	0.54
110	45.67	0.57
120	50.82	0.61
130	55.82	0.64
140	60.67	0.66
150	65.39	0.69
160	69.99	0.72
170	74.46	0.75
180	78.81	0.77
190	83.06	0.8
200	87.2	0.82
210	91.24	0.85
220	95.18	0.87
230	99.04	0.89
240	102.82	0.92
250	106.52	0.94
260	110.15	0.96
270	113.73	0.98
273.15	114.84	0.99
280	117.23	1
290	120.68	1.02
298.15	123.44	1.04
300	124.06	1.04
310	127.38	1.06
320	130.64	1.08

System: sulfuric acid, strontium salt (1:1); phases: Crystal 2
Fixed: Pressure, kPa = 101.325
Property: Molar enthalpy, kJ/mol (Crystal 2); method: Small (less than 1 g) adiabatic calorimetry
Temperature, K	Molar enthalpy, kJ/mol	uncertainty
5	4.77e-05	0.00010092
10	0.0009146	0.0002149
15	0.005703	0.0003816
20	0.01916	0.000635
25	0.04551	0.000965
30	0.087838	0.003445
35	0.14816	0.00425
40	0.22767	0.00515
45	0.32691	0.00615
50	0.44586	0.00725
55	0.58404	0.00844
60	0.7405	0.00972
65	0.91412	0.01109
70	1.1038	0.0125
75	1.3083	0.0141
80	1.5266	0.0157
85	1.7575	0.0173
90	2.0003	0.026
95	2.2542	0.028
100	2.5184	0.0301
110	3.0756	0.0343
120	3.6678	0.0387
130	4.2925	0.0432
140	4.948	0.0478
150	5.6326	0.0525
160	6.3447	0.0574
170	7.0824	0.0623
180	7.8441	0.0674
190	8.6288	0.0725
200	9.4366	0.0778
210	10.265	0.083
220	11.113	0.088
230	11.98	0.094
240	12.868	0.099
250	13.775	0.105
260	14.702	0.111
270	15.648	0.117
273.15	15.95	0.118
280	16.613	0.122
290	17.594	0.128
298.15	18.406	0.133
300	18.592	0.134
310	19.605	0.14
320	20.632	0.147
