Measured thermophysical data. Phase equilibria in the GeSe2 PbTe system
Source: Thermochim. Acta, 2007, 10.1016/j.tca.2007.04.001
Compound 1: germanium diselenide, GeSe2, InChI=1S/Ge.2Se/q+4;2*-2, purity 99%
Compound 2: lead monotelluride, PbTe, InChI=1S/Pb.Te/q+2;-2, purity 99%

System: lead monotelluride + germanium diselenide; phases: Liquid, Crystal
Fixed: Pressure, kPa = 101
Property: Solid-liquid equilibrium temperature, K (Liquid); method: DTA
Mole fraction of lead monotelluride	Solid-liquid equilibrium temperature, K	uncertainty
0	740	1
0.03	710	1
0.05	680	1
0.1	656	1
0.15	637	1
0.2	632	1
0.25	593	1
0.3	584	1
0.333	565	1
0.4	517	1
0.45	471	1
0.5	425	1

System: lead monotelluride + germanium diselenide; phases: Liquid, Crystal
Fixed: Pressure, kPa = 101
Property: Solid-liquid equilibrium temperature, K (Liquid); method: DTA
Mole fraction of lead monotelluride	Solid-liquid equilibrium temperature, K	uncertainty
0.55	440	1
0.6	500	1
0.667	600	1
0.75	730	1
0.8	800	1
0.9	890	1
0.95	895	1
0.98	910	1
1	925	1
