Measured thermophysical data. Volumetric, compressibility and viscometric studies on sodium cholate/sodium deoxycholate amino acid interactions in aqueous medium
Source: Thermochim. Acta, 2015, 10.1016/j.tca.2015.02.014
Compound 1: water, H2O, InChI=1S/H2O/h1H2
Compound 2: sodium cholate, C24H39NaO5, InChI=1S/C24H40O5.Na/c1-13(4-7-21(28)29)16-5-6-17-22-18(12-20(27)24(16,17)3)23(2)9-8-15(25)10-14(23)11-19(22)26;/h13-20,22,25-27H,4-12H2,1-3H3,(H,28,29);/q;+1/p-1/t13-,14+,15-,16-,17+,18+,19-,20+,22+,23+,24-;/m1./s1, purity 98%
Compound 3: sodium deoxycholate, C24H39NaO4, InChI=1S/C24H40O4.Na/c1-14(4-9-22(27)28)18-7-8-19-17-6-5-15-12-16(25)10-11-23(15,2)20(17)13-21(26)24(18,19)3;/h14-21,25-26H,4-13H2,1-3H3,(H,27,28);/q;+1/p-1/t14-,15-,16-,17+,18-,19+,20+,21+,23+,24-;/m1./s1, purity 98%
Compound 4: 2-aminoacetic acid, C2H5NO2, InChI=1S/C2H5NO2/c3-1-2(4)5/h1,3H2,(H,4,5), purity 99%
Compound 5: L-leucine, C6H13NO2, InChI=1S/C6H13NO2/c1-4(2)3-5(7)6(8)9/h4-5H,3,7H2,1-2H3,(H,8,9)/t5-/m0/s1, purity 99%
Compound 6: L-methionine, C5H11NO2S, InChI=1S/C5H11NO2S/c1-9-3-2-4(6)5(7)8/h4H,2-3,6H2,1H3,(H,7,8)/t4-/m0/s1, purity 98%
Compound 7: L-histidine, C6H9N3O2, InChI=1S/C6H9N3O2/c7-5(6(10)11)1-4-2-8-3-9-4/h2-3,5H,1,7H2,(H,8,9)(H,10,11)/t5-/m0/s1, purity 99%

System: water; phases: Liquid
Fixed: Pressure, kPa = 100
Property: Mass density, kg/m3 (Liquid); method: Vibrating tube method
Temperature, K	Mass density, kg/m3	uncertainty
293.15	998.218	0.116
298.15	997.055	0.118
303.15	995.651	0.123
308.15	994.032	0.127
313.15	992.244	0.131
318.15	990.256	0.134

System: water; phases: Liquid
Fixed: Pressure, kPa = 100
Fixed: Frequency, MHz = 3
Property: Speed of sound, m/s (Liquid); method: Sing-around technique in a fixed-path interferometer
Temperature, K	Speed of sound, m/s	uncertainty
293.15	1482.96	1.34
298.15	1497.06	1.33
303.15	1509.39	1.31
308.15	1520.08	1.29
313.15	1529.19	1.27
318.15	1536.52	1.26

System: water; phases: Liquid
Fixed: Pressure, kPa = 100
Property: Viscosity, Pa*s (Liquid); method: Capillary tube (Ostwald; Ubbelohde) method
Temperature, K	Viscosity, Pa*s	uncertainty
293.15	0.0010019	2.13e-05
298.15	0.0008903	2.11e-05
303.15	0.0007973	2.08e-05
308.15	0.000719	2.07e-05
313.15	0.0006526	2.05e-05
318.15	0.000596	2.05e-05

System: sodium cholate + water; phases: Liquid
Fixed: Pressure, kPa = 100
Property: Mass density, kg/m3 (Liquid); method: Vibrating tube method
Molality, mol/kg of sodium cholate	Temperature, K	Mass density, kg/m3	uncertainty
0	293.15	998.218	0.124
0.001	293.15	998.33	0.123
0.002	293.15	998.422	0.123
0.003	293.15	998.533	0.122
0.004	293.15	998.618	0.122
0.006	293.15	998.805	0.122
0.008	293.15	999.003	0.124
0.01	293.15	999.241	0.125
0.014	293.15	999.685	0.122
0.018	293.15	1000.141	0.145
0.022	293.15	1000.588	0.125
0.026	293.15	1001.003	0.126
0.03	293.15	1001.441	0.127
0	298.15	997.055	0.139
0.001	298.15	997.158	0.125
0.002	298.15	997.267	0.125
0.003	298.15	997.369	0.124
0.004	298.15	997.455	0.124
0.006	298.15	997.635	0.124
0.008	298.15	997.835	0.124
0.01	298.15	998.035	0.125
0.014	298.15	998.454	0.126
0.018	298.15	998.905	0.127
0.022	298.15	999.354	0.126
0.026	298.15	999.746	0.126
0.03	298.15	1000.143	0.125
0	303.15	995.651	0.148
0.001	303.15	995.785	0.132
0.002	303.15	995.901	0.13
0.003	303.15	996.001	0.129
0.004	303.15	996.102	0.13
0.006	303.15	996.301	0.128
0.008	303.15	996.513	0.129
0.01	303.15	996.724	0.13
0.014	303.15	997.167	0.128
0.018	303.15	997.524	0.128
0.022	303.15	997.945	0.129
0.026	303.15	998.31	0.13
0.03	303.15	998.815	0.129
0	308.15	994.032	0.144
0.001	308.15	994.145	0.135
0.002	308.15	994.255	0.133
0.003	308.15	994.348	0.133
0.004	308.15	994.455	0.137
0.006	308.15	994.7	0.134
0.008	308.15	994.885	0.133
0.01	308.15	995.101	0.134
0.014	308.15	995.521	0.134
0.018	308.15	995.957	0.133
0.022	308.15	996.357	0.133
0.026	308.15	996.744	0.133
0.03	308.15	997.176	0.133
0	313.15	992.244	0.148
0.001	313.15	992.351	0.137
0.002	313.15	992.449	0.137
0.003	313.15	992.547	0.138
0.004	313.15	992.655	0.14
0.006	313.15	992.873	0.139
0.008	313.15	993.087	0.139
0.01	313.15	993.304	0.139
0.014	313.15	993.711	0.138
0.018	313.15	994.126	0.138
0.022	313.15	994.505	0.138
0.026	313.15	994.935	0.139
0.03	313.15	995.354	0.137
0	318.15	990.256	0.139
0.001	318.15	990.351	0.139
0.002	318.15	990.445	0.139
0.003	318.15	990.539	0.139
0.004	318.15	990.629	0.141
0.006	318.15	990.864	0.141
0.008	318.15	991.051	0.14
0.01	318.15	991.257	0.141
0.014	318.15	991.671	0.235
0.018	318.15	992.088	0.153
0.022	318.15	992.491	0.14
0.026	318.15	992.905	0.141
0.03	318.15	993.313	0.141

System: sodium cholate + water; phases: Liquid
Fixed: Pressure, kPa = 100
Fixed: Frequency, MHz = 3
Property: Speed of sound, m/s (Liquid); method: Sing-around technique in a fixed-path interferometer
Molality, mol/kg of sodium cholate	Temperature, K	Speed of sound, m/s	uncertainty
0	293.15	1482.96	1.34
0.001	293.15	1482.99	1.34
0.002	293.15	1483.33	1.35
0.003	293.15	1483.57	1.35
0.004	293.15	1483.82	1.35
0.006	293.15	1484.43	1.35
0.008	293.15	1485.04	1.35
0.01	293.15	1485.76	1.35
0.014	293.15	1486.92	1.34
0.018	293.15	1487.93	1.67
0.022	293.15	1488.79	1.34
0.026	293.15	1489.66	1.34
0.03	293.15	1490.25	1.34
0	298.15	1497.06	1.35
0.001	298.15	1497.05	1.33
0.002	298.15	1497.35	1.34
0.003	298.15	1497.61	1.33
0.004	298.15	1497.86	1.34
0.006	298.15	1498.43	1.34
0.008	298.15	1499.09	1.34
0.01	298.15	1499.67	1.33
0.014	298.15	1500.77	1.33
0.018	298.15	1501.73	1.33
0.022	298.15	1502.57	1.33
0.026	298.15	1503.37	1.33
0.03	298.15	1504.01	1.33
0	303.15	1509.39	1.33
0.001	303.15	1509.52	1.31
0.002	303.15	1509.79	1.31
0.003	303.15	1509.99	1.31
0.004	303.15	1510.2	1.31
0.006	303.15	1510.72	1.31
0.008	303.15	1511.27	1.31
0.01	303.15	1511.81	1.31
0.014	303.15	1512.85	1.31
0.018	303.15	1513.82	1.31
0.022	303.15	1514.61	1.31
0.026	303.15	1515.36	1.31
0.03	303.15	1516.06	1.31
0	308.15	1520.08	1.31
0.001	308.15	1520.21	1.29
0.002	308.15	1520.48	1.29
0.003	308.15	1520.69	1.29
0.004	308.15	1520.9	1.29
0.006	308.15	1521.41	1.29
0.008	308.15	1521.95	1.29
0.01	308.15	1522.38	1.29
0.014	308.15	1523.37	1.29
0.018	308.15	1524.23	1.29
0.022	308.15	1525.03	1.29
0.026	308.15	1525.77	1.29
0.03	308.15	1526.4	1.29
0	313.15	1529.19	1.3
0.001	313.15	1529.34	1.27
0.002	313.15	1529.61	1.27
0.003	313.15	1529.77	1.27
0.004	313.15	1529.97	1.28
0.006	313.15	1530.41	1.27
0.008	313.15	1530.9	1.27
0.01	313.15	1531.34	1.28
0.014	313.15	1532.28	1.27
0.018	313.15	1533.13	1.27
0.022	313.15	1533.86	1.27
0.026	313.15	1534.58	1.27
0.03	313.15	1535.17	1.27
0	318.15	1536.52	1.27
0.001	318.15	1536.89	1.27
0.002	318.15	1537.15	1.27
0.003	318.15	1537.32	1.27
0.004	318.15	1537.49	1.27
0.006	318.15	1537.87	1.27
0.008	318.15	1538.26	1.27
0.01	318.15	1538.71	1.27
0.014	318.15	1539.5	1.27
0.018	318.15	1540.41	1.27
0.022	318.15	1541.17	1.27
0.026	318.15	1541.94	1.27
0.03	318.15	1542.45	1.27

System: sodium cholate + water; phases: Liquid
Fixed: Pressure, kPa = 100
Property: Viscosity, Pa*s (Liquid); method: Capillary tube (Ostwald; Ubbelohde) method
Molality, mol/kg of sodium cholate	Temperature, K	Viscosity, Pa*s	uncertainty
0	293.15	0.0010019	2.13e-05
0.001	293.15	0.0010027	2.13e-05
0.002	293.15	0.0010037	2.13e-05
0.003	293.15	0.0010053	2.13e-05
0.004	293.15	0.001007	2.13e-05
0.006	293.15	0.001011	2.13e-05
0.008	293.15	0.001016	2.13e-05
0.01	293.15	0.001021	2.14e-05
0.014	293.15	0.001033	2.2e-05
0.018	293.15	0.001041	2.36e-05
0.022	293.15	0.001048	2.14e-05
0.026	293.15	0.001056	2.14e-05
0.03	293.15	0.001063	2.15e-05
0	298.15	0.0008903	2.12e-05
0.001	298.15	0.0008906	2.11e-05
0.002	298.15	0.0008925	2.11e-05
0.003	298.15	0.0008939	2.11e-05
0.004	298.15	0.0008955	2.11e-05
0.006	298.15	0.0008987	2.11e-05
0.008	298.15	0.000902	2.11e-05
0.01	298.15	0.0009055	2.11e-05
0.014	298.15	0.0009168	2.11e-05
0.018	298.15	0.0009239	2.11e-05
0.022	298.15	0.0009315	2.12e-05
0.026	298.15	0.0009373	2.12e-05
0.03	298.15	0.0009429	2.12e-05
0	303.15	0.0007973	2.09e-05
0.001	303.15	0.000798	2.08e-05
0.002	303.15	0.0007991	2.08e-05
0.003	303.15	0.0007999	2.08e-05
0.004	303.15	0.0008022	2.08e-05
0.006	303.15	0.0008047	2.08e-05
0.008	303.15	0.0008075	2.09e-05
0.01	303.15	0.0008105	2.09e-05
0.014	303.15	0.0008215	2.09e-05
0.018	303.15	0.0008281	2.09e-05
0.022	303.15	0.0008321	2.09e-05
0.026	303.15	0.000838	2.09e-05
0.03	303.15	0.0008429	2.09e-05
0	308.15	0.000719	2.07e-05
0.001	308.15	0.0007202	2.07e-05
0.002	308.15	0.0007212	2.07e-05
0.003	308.15	0.0007225	2.07e-05
0.004	308.15	0.0007241	2.07e-05
0.006	308.15	0.0007265	2.07e-05
0.008	308.15	0.0007295	2.07e-05
0.01	308.15	0.0007323	2.07e-05
0.014	308.15	0.0007415	2.07e-05
0.018	308.15	0.0007461	2.07e-05
0.022	308.15	0.0007509	2.07e-05
0.026	308.15	0.0007561	2.07e-05
0.03	308.15	0.0007619	2.08e-05
0	313.15	0.0006526	2.06e-05
0.001	313.15	0.0006535	2.05e-05
0.002	313.15	0.0006544	2.05e-05
0.003	313.15	0.0006556	2.05e-05
0.004	313.15	0.0006571	2.05e-05
0.006	313.15	0.0006595	2.06e-05
0.008	313.15	0.000662	2.06e-05
0.01	313.15	0.0006648	2.06e-05
0.014	313.15	0.0006722	2.06e-05
0.018	313.15	0.0006772	2.06e-05
0.022	313.15	0.0006813	2.06e-05
0.026	313.15	0.0006865	2.06e-05
0.03	313.15	0.0006918	2.06e-05
0	318.15	0.000596	2.05e-05
0.001	318.15	0.0005973	2.05e-05
0.002	318.15	0.0005985	2.05e-05
0.003	318.15	0.0005997	2.05e-05
0.004	318.15	0.0006013	2.05e-05
0.006	318.15	0.0006035	2.05e-05
0.008	318.15	0.0006062	2.05e-05
0.01	318.15	0.000609	2.05e-05
0.014	318.15	0.0006161	2.11e-05
0.018	318.15	0.0006201	2.05e-05
0.022	318.15	0.0006245	2.05e-05
0.026	318.15	0.0006291	2.05e-05
0.03	318.15	0.0006328	2.05e-05

System: L-histidine + sodium cholate + water; phases: Liquid
Fixed: Pressure, kPa = 100
Fixed: Solvent: Molality, mol/kg of L-histidine = 0.1
Property: Mass density, kg/m3 (Liquid); method: Vibrating tube method
Molality, mol/kg of sodium cholate	Temperature, K	Mass density, kg/m3	uncertainty
0	293.15	1003.99	0.271
0.001	293.15	1004.143	0.27
0.002	293.15	1004.264	0.268
0.003	293.15	1004.361	0.267
0.004	293.15	1004.46	0.268
0.006	293.15	1004.679	0.268
0.008	293.15	1004.901	0.269
0.01	293.15	1005.121	0.269
0.014	293.15	1005.584	0.265
0.018	293.15	1006.011	0.269
0.022	293.15	1006.464	0.27
0.026	293.15	1006.883	0.269
0.03	293.15	1007.248	0.27
0	298.15	1002.805	0.278
0.001	298.15	1002.925	0.268
0.002	298.15	1003.041	0.268
0.003	298.15	1003.134	0.267
0.004	298.15	1003.234	0.268
0.006	298.15	1003.45	0.268
0.008	298.15	1003.659	0.268
0.01	298.15	1003.882	0.269
0.014	298.15	1004.339	0.269
0.018	298.15	1004.757	0.269
0.022	298.15	1005.209	0.27
0.026	298.15	1005.62	0.269
0.03	298.15	1005.979	0.268
0	303.15	1001.329	0.276
0.001	303.15	1001.455	0.269
0.002	303.15	1001.567	0.268
0.003	303.15	1001.665	0.268
0.004	303.15	1001.764	0.269
0.006	303.15	1001.98	0.269
0.008	303.15	1002.185	0.269
0.01	303.15	1002.383	0.27
0.014	303.15	1002.825	0.27
0.018	303.15	1003.28	0.27
0.022	303.15	1003.725	0.271
0.026	303.15	1004.132	0.27
0.03	303.15	1004.514	0.269
0	308.15	999.656	0.277
0.001	308.15	999.789	0.27
0.002	308.15	999.9	0.269
0.003	308.15	1000	0.269
0.004	308.15	1000.1	0.269
0.006	308.15	1000.301	0.269
0.008	308.15	1000.51	0.269
0.01	308.15	1000.705	0.27
0.014	308.15	1001.135	0.27
0.018	308.15	1001.572	0.271
0.022	308.15	1001.984	0.271
0.026	308.15	1002.405	0.271
0.03	308.15	1002.779	0.27
0	313.15	997.795	0.278
0.001	313.15	997.927	0.272
0.002	313.15	998.029	0.271
0.003	313.15	998.126	0.271
0.004	313.15	998.225	0.271
0.006	313.15	998.43	0.271
0.008	313.15	998.64	0.271
0.01	313.15	998.83	0.271
0.014	313.15	999.265	0.271
0.018	313.15	999.704	0.271
0.022	313.15	1000.131	0.271
0.026	313.15	1000.54	0.271
0.03	313.15	1000.916	0.27
0	318.15	995.765	0.273
0.001	318.15	995.888	0.272
0.002	318.15	995.991	0.271
0.003	318.15	996.087	0.271
0.004	318.15	996.182	0.271
0.006	318.15	996.381	0.272
0.008	318.15	996.581	0.272
0.01	318.15	996.79	0.272
0.014	318.15	997.22	0.314
0.018	318.15	997.655	0.289
0.022	318.15	998.081	0.272
0.026	318.15	998.486	0.272
0.03	318.15	998.831	0.271

System: L-histidine + sodium cholate + water; phases: Liquid
Fixed: Pressure, kPa = 100
Fixed: Solvent: Molality, mol/kg of L-histidine = 0.1
Fixed: Frequency, MHz = 3
Property: Speed of sound, m/s (Liquid); method: Sing-around technique in a fixed-path interferometer
Molality, mol/kg of sodium cholate	Temperature, K	Speed of sound, m/s	uncertainty
0	293.15	1491.85	1.7
0.001	293.15	1492.28	1.7
0.002	293.15	1492.65	1.7
0.003	293.15	1492.88	1.7
0.004	293.15	1493.15	1.7
0.006	293.15	1493.76	1.7
0.008	293.15	1494.35	1.7
0.01	293.15	1494.89	1.7
0.014	293.15	1495.91	2.12
0.018	293.15	1496.94	1.72
0.022	293.15	1497.79	1.7
0.026	293.15	1498.63	1.7
0.03	293.15	1499.57	1.71
0	298.15	1505.32	1.73
0.001	298.15	1505.85	1.7
0.002	298.15	1506.21	1.69
0.003	298.15	1506.52	1.69
0.004	298.15	1506.77	1.69
0.006	298.15	1507.31	1.69
0.008	298.15	1507.87	1.69
0.01	298.15	1508.39	1.69
0.014	298.15	1509.45	1.69
0.018	298.15	1510.51	1.69
0.022	298.15	1511.49	1.69
0.026	298.15	1512.53	1.69
0.03	298.15	1513.48	1.69
0	303.15	1517.41	1.73
0.001	303.15	1517.85	1.68
0.002	303.15	1518.19	1.68
0.003	303.15	1518.41	1.67
0.004	303.15	1518.6	1.68
0.006	303.15	1519.07	1.67
0.008	303.15	1519.6	1.67
0.01	303.15	1520.14	1.67
0.014	303.15	1521.08	1.67
0.018	303.15	1522	1.67
0.022	303.15	1522.92	1.67
0.026	303.15	1523.79	1.67
0.03	303.15	1524.58	1.67
0	308.15	1527.61	1.7
0.001	308.15	1528.09	1.66
0.002	308.15	1528.39	1.66
0.003	308.15	1528.66	1.66
0.004	308.15	1528.87	1.66
0.006	308.15	1529.33	1.66
0.008	308.15	1529.8	1.66
0.01	308.15	1530.27	1.66
0.014	308.15	1531.19	1.66
0.018	308.15	1532.15	1.66
0.022	308.15	1532.89	1.66
0.026	308.15	1533.79	1.66
0.03	308.15	1534.59	1.66
0	313.15	1536.35	1.69
0.001	313.15	1536.84	1.65
0.002	313.15	1537.1	1.65
0.003	313.15	1537.38	1.65
0.004	313.15	1537.64	1.65
0.006	313.15	1538.1	1.65
0.008	313.15	1538.56	1.65
0.01	313.15	1538.96	1.65
0.014	313.15	1539.77	1.65
0.018	313.15	1540.61	1.65
0.022	313.15	1541.43	1.65
0.026	313.15	1542.23	1.65
0.03	313.15	1542.9	1.64
0	318.15	1543.75	1.65
0.001	318.15	1544.15	1.65
0.002	318.15	1544.43	1.65
0.003	318.15	1544.65	1.64
0.004	318.15	1544.79	1.64
0.006	318.15	1545.22	1.64
0.008	318.15	1545.65	1.64
0.01	318.15	1546.07	1.64
0.014	318.15	1546.85	1.64
0.018	318.15	1547.7	1.65
0.022	318.15	1548.45	1.64
0.026	318.15	1549.21	1.64
0.03	318.15	1549.76	1.64

System: L-histidine + sodium cholate + water; phases: Liquid
Fixed: Pressure, kPa = 100
Fixed: Solvent: Molality, mol/kg of L-histidine = 0.1
Property: Viscosity, Pa*s (Liquid); method: Capillary tube (Ostwald; Ubbelohde) method
Molality, mol/kg of sodium cholate	Temperature, K	Viscosity, Pa*s	uncertainty
0	293.15	0.0010516	2.21e-05
0.001	293.15	0.0010522	2.21e-05
0.002	293.15	0.0010526	2.22e-05
0.003	293.15	0.0010531	2.22e-05
0.004	293.15	0.0010539	2.22e-05
0.006	293.15	0.0010555	2.22e-05
0.008	293.15	0.0010571	2.22e-05
0.01	293.15	0.0010599	2.22e-05
0.014	293.15	0.0010675	2.26e-05
0.018	293.15	0.0010841	2.29e-05
0.022	293.15	0.0010976	2.23e-05
0.026	293.15	0.0011073	2.23e-05
0.03	293.15	0.001111	2.23e-05
0	298.15	0.000928	2.19e-05
0.001	298.15	0.0009285	2.17e-05
0.002	298.15	0.000929	2.17e-05
0.003	298.15	0.0009294	2.17e-05
0.004	298.15	0.0009302	2.17e-05
0.006	298.15	0.0009318	2.17e-05
0.008	298.15	0.0009333	2.17e-05
0.01	298.15	0.000936	2.18e-05
0.014	298.15	0.0009435	2.18e-05
0.018	298.15	0.0009598	2.19e-05
0.022	298.15	0.0009731	2.19e-05
0.026	298.15	0.0009827	2.19e-05
0.03	298.15	0.0009863	2.19e-05
0	303.15	0.0008289	2.14e-05
0.001	303.15	0.0008293	2.14e-05
0.002	303.15	0.0008297	2.14e-05
0.003	303.15	0.0008302	2.14e-05
0.004	303.15	0.000831	2.14e-05
0.006	303.15	0.0008325	2.14e-05
0.008	303.15	0.000834	2.14e-05
0.01	303.15	0.0008366	2.14e-05
0.014	303.15	0.000844	2.14e-05
0.018	303.15	0.0008601	2.15e-05
0.022	303.15	0.0008732	2.15e-05
0.026	303.15	0.0008826	2.15e-05
0.03	303.15	0.0008862	2.15e-05
0	308.15	0.0007447	2.12e-05
0.001	308.15	0.0007452	2.11e-05
0.002	308.15	0.0007456	2.11e-05
0.003	308.15	0.0007461	2.11e-05
0.004	308.15	0.0007468	2.11e-05
0.006	308.15	0.0007483	2.11e-05
0.008	308.15	0.0007498	2.11e-05
0.01	308.15	0.0007524	2.11e-05
0.014	308.15	0.0007596	2.11e-05
0.018	308.15	0.0007755	2.12e-05
0.022	308.15	0.0007884	2.12e-05
0.026	308.15	0.0007976	2.12e-05
0.03	308.15	0.0008011	2.12e-05
0	313.15	0.0006783	2.12e-05
0.001	313.15	0.000679	2.1e-05
0.002	313.15	0.0006794	2.1e-05
0.003	313.15	0.0006798	2.1e-05
0.004	313.15	0.0006806	2.1e-05
0.006	313.15	0.000682	2.1e-05
0.008	313.15	0.0006835	2.1e-05
0.01	313.15	0.000686	2.1e-05
0.014	313.15	0.0006931	2.1e-05
0.018	313.15	0.0007088	2.11e-05
0.022	313.15	0.0007216	2.11e-05
0.026	313.15	0.0007307	2.11e-05
0.03	313.15	0.0007342	2.11e-05
0	318.15	0.0005915	2.09e-05
0.001	318.15	0.000592	2.09e-05
0.002	318.15	0.0005924	2.09e-05
0.003	318.15	0.0005928	2.09e-05
0.004	318.15	0.0005935	2.09e-05
0.006	318.15	0.0005949	2.09e-05
0.008	318.15	0.0005962	2.09e-05
0.01	318.15	0.0005986	2.09e-05
0.014	318.15	0.0006054	2.09e-05
0.018	318.15	0.0006202	2.12e-05
0.022	318.15	0.0006322	2.1e-05
0.026	318.15	0.0006408	2.1e-05
0.03	318.15	0.000644	2.1e-05

System: 2-aminoacetic acid + sodium cholate + water; phases: Liquid
Fixed: Pressure, kPa = 100
Fixed: Solvent: Molality, mol/kg of 2-aminoacetic acid = 0.1
Property: Mass density, kg/m3 (Liquid); method: Vibrating tube method
Molality, mol/kg of sodium cholate	Temperature, K	Mass density, kg/m3	uncertainty
0	293.15	1001.515	0.267
0.001	293.15	1001.649	0.267
0.002	293.15	1001.765	0.266
0.003	293.15	1001.873	0.265
0.004	293.15	1001.967	0.266
0.006	293.15	1002.18	0.266
0.008	293.15	1002.395	0.266
0.01	293.15	1002.606	0.266
0.014	293.15	1003.036	0.263
0.018	293.15	1003.457	0.267
0.022	293.15	1003.874	0.268
0.026	293.15	1004.32	0.268
0.03	293.15	1004.739	0.268
0	298.15	1000.322	0.274
0.001	298.15	1000.445	0.266
0.002	298.15	1000.559	0.265
0.003	298.15	1000.661	0.265
0.004	298.15	1000.757	0.266
0.006	298.15	1000.965	0.266
0.008	298.15	1001.175	0.266
0.01	298.15	1001.385	0.266
0.014	298.15	1001.807	0.266
0.018	298.15	1002.218	0.267
0.022	298.15	1002.63	0.267
0.026	298.15	1003.049	0.268
0.03	298.15	1003.472	0.267
0	303.15	998.885	0.276
0.001	303.15	999.022	0.268
0.002	303.15	999.135	0.267
0.003	303.15	999.229	0.266
0.004	303.15	999.323	0.267
0.006	303.15	999.528	0.267
0.008	303.15	999.74	0.267
0.01	303.15	999.949	0.267
0.014	303.15	1000.371	0.267
0.018	303.15	1000.771	0.267
0.022	303.15	1001.186	0.268
0.026	303.15	1001.61	0.268
0.03	303.15	1002.02	0.267
0	308.15	997.231	0.277
0.001	308.15	997.374	0.27
0.002	308.15	997.487	0.268
0.003	308.15	997.579	0.268
0.004	308.15	997.674	0.269
0.006	308.15	997.875	0.268
0.008	308.15	998.08	0.269
0.01	308.15	998.285	0.269
0.014	308.15	998.697	0.269
0.018	308.15	999.097	0.269
0.022	308.15	999.499	0.269
0.026	308.15	999.925	0.269
0.03	308.15	1000.342	0.268
0	313.15	995.401	0.277
0.001	313.15	995.524	0.271
0.002	313.15	995.638	0.271
0.003	313.15	995.745	0.27
0.004	313.15	995.842	0.27
0.006	313.15	996.033	0.27
0.008	313.15	996.23	0.27
0.01	313.15	996.435	0.271
0.014	313.15	996.845	0.271
0.018	313.15	997.245	0.271
0.022	313.15	997.649	0.271
0.026	313.15	998.07	0.271
0.03	313.15	998.473	0.27
0	318.15	993.385	0.272
0.001	318.15	993.501	0.272
0.002	318.15	993.612	0.272
0.003	318.15	993.716	0.271
0.004	318.15	993.81	0.271
0.006	318.15	994.001	0.271
0.008	318.15	994.195	0.271
0.01	318.15	994.388	0.271
0.014	318.15	994.795	0.271
0.018	318.15	995.192	0.277
0.022	318.15	995.587	0.272
0.026	318.15	996.002	0.272
0.03	318.15	996.406	0.272

System: 2-aminoacetic acid + sodium cholate + water; phases: Liquid
Fixed: Pressure, kPa = 100
Fixed: Solvent: Molality, mol/kg of 2-aminoacetic acid = 0.1
Fixed: Frequency, MHz = 3
Property: Speed of sound, m/s (Liquid); method: Sing-around technique in a fixed-path interferometer
Molality, mol/kg of sodium cholate	Temperature, K	Speed of sound, m/s	uncertainty
0	293.15	1488.2	1.71
0.001	293.15	1488.57	1.71
0.002	293.15	1488.91	1.71
0.003	293.15	1489.18	1.7
0.004	293.15	1489.41	1.7
0.006	293.15	1489.95	1.7
0.008	293.15	1490.51	1.7
0.01	293.15	1491.11	1.7
0.014	293.15	1492.3	1.71
0.018	293.15	1493.28	1.75
0.022	293.15	1494.13	1.7
0.026	293.15	1495.08	1.7
0.03	293.15	1495.56	1.7
0	298.15	1502.2	1.73
0.001	298.15	1502.55	1.7
0.002	298.15	1502.87	1.7
0.003	298.15	1503.07	1.69
0.004	298.15	1503.3	1.7
0.006	298.15	1503.78	1.7
0.008	298.15	1504.4	1.7
0.01	298.15	1504.95	1.7
0.014	298.15	1506.09	1.69
0.018	298.15	1506.93	1.69
0.022	298.15	1507.73	1.69
0.026	298.15	1508.64	1.69
0.03	298.15	1509.14	1.69
0	303.15	1514.42	1.71
0.001	303.15	1514.75	1.68
0.002	303.15	1515.05	1.68
0.003	303.15	1515.32	1.68
0.004	303.15	1515.51	1.68
0.006	303.15	1515.95	1.68
0.008	303.15	1516.48	1.68
0.01	303.15	1516.95	1.68
0.014	303.15	1517.9	1.67
0.018	303.15	1518.82	1.67
0.022	303.15	1519.57	1.67
0.026	303.15	1520.45	1.67
0.03	303.15	1521.05	1.67
0	308.15	1524.97	1.69
0.001	308.15	1525.29	1.66
0.002	308.15	1525.58	1.66
0.003	308.15	1525.85	1.66
0.004	308.15	1526.01	1.66
0.006	308.15	1526.42	1.66
0.008	308.15	1526.87	1.66
0.01	308.15	1527.31	1.66
0.014	308.15	1528.22	1.66
0.018	308.15	1529.1	1.66
0.022	308.15	1529.85	1.66
0.026	308.15	1530.71	1.66
0.03	308.15	1531.3	1.66
0	313.15	1533.93	1.68
0.001	313.15	1534.25	1.65
0.002	313.15	1534.51	1.65
0.003	313.15	1534.69	1.65
0.004	313.15	1534.88	1.65
0.006	313.15	1535.35	1.65
0.008	313.15	1535.8	1.65
0.01	313.15	1536.19	1.65
0.014	313.15	1537.07	1.65
0.018	313.15	1537.89	1.65
0.022	313.15	1538.56	1.65
0.026	313.15	1539.34	1.65
0.03	313.15	1539.97	1.65
0	318.15	1541.33	1.65
0.001	318.15	1541.67	1.65
0.002	318.15	1541.95	1.65
0.003	318.15	1542.2	1.65
0.004	318.15	1542.43	1.65
0.006	318.15	1542.82	1.64
0.008	318.15	1543.2	1.64
0.01	318.15	1543.56	1.64
0.014	318.15	1544.37	1.64
0.018	318.15	1545.11	1.75
0.022	318.15	1545.82	1.64
0.026	318.15	1546.53	1.64
0.03	318.15	1547.09	1.64

System: 2-aminoacetic acid + sodium cholate + water; phases: Liquid
Fixed: Pressure, kPa = 100
Fixed: Solvent: Molality, mol/kg of 2-aminoacetic acid = 0.1
Property: Viscosity, Pa*s (Liquid); method: Capillary tube (Ostwald; Ubbelohde) method
Molality, mol/kg of sodium cholate	Temperature, K	Viscosity, Pa*s	uncertainty
0	293.15	0.001016	2.2e-05
0.001	293.15	0.0010168	2.2e-05
0.002	293.15	0.0010172	2.2e-05
0.003	293.15	0.0010177	2.2e-05
0.004	293.15	0.0010185	2.2e-05
0.006	293.15	0.0010201	2.2e-05
0.008	293.15	0.0010217	2.2e-05
0.01	293.15	0.0010244	2.2e-05
0.014	293.15	0.001032	2.22e-05
0.018	293.15	0.0010485	2.22e-05
0.022	293.15	0.0010619	2.21e-05
0.026	293.15	0.0010716	2.21e-05
0.03	293.15	0.0010754	2.21e-05
0	298.15	0.0009031	2.17e-05
0.001	298.15	0.0009037	2.16e-05
0.002	298.15	0.0009041	2.16e-05
0.003	298.15	0.0009046	2.16e-05
0.004	298.15	0.0009054	2.16e-05
0.006	298.15	0.0009069	2.16e-05
0.008	298.15	0.0009085	2.16e-05
0.01	298.15	0.0009111	2.16e-05
0.014	298.15	0.0009186	2.17e-05
0.018	298.15	0.0009348	2.17e-05
0.022	298.15	0.000948	2.18e-05
0.026	298.15	0.0009575	2.18e-05
0.03	298.15	0.0009612	2.18e-05
0	303.15	0.000808	2.13e-05
0.001	303.15	0.0008085	2.13e-05
0.002	303.15	0.0008089	2.13e-05
0.003	303.15	0.0008094	2.13e-05
0.004	303.15	0.0008102	2.13e-05
0.006	303.15	0.0008116	2.13e-05
0.008	303.15	0.0008132	2.13e-05
0.01	303.15	0.0008158	2.13e-05
0.014	303.15	0.0008231	2.13e-05
0.018	303.15	0.0008391	2.14e-05
0.022	303.15	0.0008522	2.14e-05
0.026	303.15	0.0008616	2.14e-05
0.03	303.15	0.0008651	2.14e-05
0	308.15	0.0007271	2.11e-05
0.001	308.15	0.0007275	2.1e-05
0.002	308.15	0.0007279	2.1e-05
0.003	308.15	0.0007283	2.1e-05
0.004	308.15	0.0007291	2.1e-05
0.006	308.15	0.0007306	2.1e-05
0.008	308.15	0.0007321	2.1e-05
0.01	308.15	0.0007346	2.1e-05
0.014	308.15	0.0007418	2.11e-05
0.018	308.15	0.0007576	2.11e-05
0.022	308.15	0.0007705	2.11e-05
0.026	308.15	0.0007797	2.11e-05
0.03	308.15	0.0007832	2.12e-05
0	313.15	0.0006645	2.09e-05
0.001	313.15	0.000665	2.09e-05
0.002	313.15	0.0006654	2.09e-05
0.003	313.15	0.0006658	2.09e-05
0.004	313.15	0.0006666	2.09e-05
0.006	313.15	0.000668	2.09e-05
0.008	313.15	0.0006695	2.09e-05
0.01	313.15	0.000672	2.09e-05
0.014	313.15	0.0006791	2.09e-05
0.018	313.15	0.0006947	2.1e-05
0.022	313.15	0.0007074	2.1e-05
0.026	313.15	0.0007166	2.1e-05
0.03	313.15	0.00072	2.1e-05
0	318.15	0.0005988	2.07e-05
0.001	318.15	0.0005993	2.08e-05
0.002	318.15	0.0005997	2.08e-05
0.003	318.15	0.0006001	2.08e-05
0.004	318.15	0.0006008	2.08e-05
0.006	318.15	0.0006022	2.08e-05
0.008	318.15	0.0006036	2.08e-05
0.01	318.15	0.000606	2.08e-05
0.014	318.15	0.0006129	2.15e-05
0.018	318.15	0.0006281	2.08e-05
0.022	318.15	0.0006404	2.09e-05
0.026	318.15	0.0006492	2.09e-05
0.03	318.15	0.0006526	2.09e-05

System: L-methionine + sodium cholate + water; phases: Liquid
Fixed: Pressure, kPa = 100
Fixed: Solvent: Molality, mol/kg of L-methionine = 0.1
Property: Mass density, kg/m3 (Liquid); method: Vibrating tube method
Molality, mol/kg of sodium cholate	Temperature, K	Mass density, kg/m3	uncertainty
0	293.15	1002.785	0.431
0.001	293.15	1002.919	0.43
0.002	293.15	1003.033	0.43
0.003	293.15	1003.142	0.43
0.004	293.15	1003.233	0.429
0.006	293.15	1003.414	0.43
0.008	293.15	1003.604	0.43
0.01	293.15	1003.803	0.431
0.014	293.15	1004.223	0.429
0.018	293.15	1004.629	0.448
0.022	293.15	1005.043	0.432
0.026	293.15	1005.4	0.432
0.03	293.15	1005.803	0.433
0	298.15	1001.575	0.434
0.001	298.15	1001.71	0.43
0.002	298.15	1001.825	0.429
0.003	298.15	1001.93	0.429
0.004	298.15	1002.022	0.429
0.006	298.15	1002.195	0.429
0.008	298.15	1002.375	0.429
0.01	298.15	1002.568	0.43
0.014	298.15	1002.979	0.43
0.018	298.15	1003.378	0.431
0.022	298.15	1003.787	0.431
0.026	298.15	1004.143	0.431
0.03	298.15	1004.549	0.431
0	303.15	1000.165	0.436
0.001	303.15	1000.299	0.429
0.002	303.15	1000.41	0.429
0.003	303.15	1000.508	0.428
0.004	303.15	1000.589	0.429
0.006	303.15	1000.769	0.428
0.008	303.15	1000.95	0.429
0.01	303.15	1001.137	0.429
0.014	303.15	1001.54	0.43
0.018	303.15	1001.929	0.43
0.022	303.15	1002.325	0.431
0.026	303.15	1002.683	0.431
0.03	303.15	1003.078	0.431
0	308.15	998.461	0.433
0.001	308.15	998.595	0.429
0.002	308.15	998.697	0.429
0.003	308.15	998.789	0.429
0.004	308.15	998.875	0.429
0.006	308.15	999.044	0.429
0.008	308.15	999.236	0.429
0.01	308.15	999.418	0.429
0.014	308.15	999.821	0.429
0.018	308.15	1000.21	0.43
0.022	308.15	1000.611	0.43
0.026	308.15	1000.958	0.43
0.03	308.15	1001.359	0.43
0	313.15	996.591	0.433
0.001	313.15	996.725	0.43
0.002	313.15	996.817	0.429
0.003	313.15	996.909	0.429
0.004	313.15	997.001	0.429
0.006	313.15	997.175	0.429
0.008	313.15	997.348	0.429
0.01	313.15	997.544	0.43
0.014	313.15	997.943	0.43
0.018	313.15	998.33	0.43
0.022	313.15	998.726	0.43
0.026	313.15	999.07	0.43
0.03	313.15	999.466	0.43
0	318.15	994.572	0.43
0.001	318.15	994.695	0.429
0.002	318.15	994.784	0.429
0.003	318.15	994.874	0.429
0.004	318.15	994.957	0.429
0.006	318.15	995.129	0.429
0.008	318.15	995.312	0.429
0.01	318.15	995.494	0.429
0.014	318.15	995.887	0.43
0.018	318.15	996.271	0.431
0.022	318.15	996.663	0.43
0.026	318.15	997.005	0.43
0.03	318.15	997.398	0.43

System: L-methionine + sodium cholate + water; phases: Liquid
Fixed: Pressure, kPa = 100
Fixed: Solvent: Molality, mol/kg of L-methionine = 0.1
Fixed: Frequency, MHz = 3
Property: Speed of sound, m/s (Liquid); method: Sing-around technique in a fixed-path interferometer
Molality, mol/kg of sodium cholate	Temperature, K	Speed of sound, m/s	uncertainty
0	293.15	1493	1.93
0.001	293.15	1493.45	1.93
0.002	293.15	1493.88	1.93
0.003	293.15	1494.19	1.93
0.004	293.15	1494.5	1.93
0.006	293.15	1494.91	1.92
0.008	293.15	1495.52	1.93
0.01	293.15	1495.96	1.92
0.014	293.15	1497	1.92
0.018	293.15	1497.84	1.93
0.022	293.15	1498.81	1.92
0.026	293.15	1499.47	1.92
0.03	293.15	1499.99	1.92
0	298.15	1506.65	1.96
0.001	298.15	1507.08	1.92
0.002	298.15	1507.55	1.92
0.003	298.15	1507.85	1.92
0.004	298.15	1508.04	1.92
0.006	298.15	1508.34	1.92
0.008	298.15	1508.83	1.92
0.01	298.15	1509.27	1.92
0.014	298.15	1510.33	1.92
0.018	298.15	1511.1	1.92
0.022	298.15	1512.03	1.91
0.026	298.15	1512.55	1.91
0.03	298.15	1513.35	1.91
0	303.15	1518.45	1.94
0.001	303.15	1518.82	1.91
0.002	303.15	1519.24	1.9
0.003	303.15	1519.4	1.9
0.004	303.15	1519.55	1.9
0.006	303.15	1520.01	1.9
0.008	303.15	1520.55	1.9
0.01	303.15	1520.98	1.9
0.014	303.15	1521.91	1.9
0.018	303.15	1522.72	1.9
0.022	303.15	1523.5	1.9
0.026	303.15	1524.08	1.9
0.03	303.15	1524.85	1.9
0	308.15	1528.65	1.92
0.001	308.15	1528.98	1.89
0.002	308.15	1529.32	1.89
0.003	308.15	1529.57	1.89
0.004	308.15	1529.81	1.89
0.006	308.15	1530.12	1.89
0.008	308.15	1530.62	1.89
0.01	308.15	1531.07	1.89
0.014	308.15	1531.91	1.89
0.018	308.15	1532.67	1.89
0.022	308.15	1533.4	1.89
0.026	308.15	1533.98	1.89
0.03	308.15	1534.74	1.89
0	313.15	1537.05	1.91
0.001	313.15	1537.54	1.89
0.002	313.15	1537.9	1.88
0.003	313.15	1538.27	1.88
0.004	313.15	1538.48	1.88
0.006	313.15	1538.77	1.88
0.008	313.15	1539.13	1.88
0.01	313.15	1539.59	1.88
0.014	313.15	1540.35	1.88
0.018	313.15	1541.05	1.88
0.022	313.15	1541.77	1.88
0.026	313.15	1542.32	1.88
0.03	313.15	1543.11	1.88
0	318.15	1544.18	1.89
0.001	318.15	1544.68	1.88
0.002	318.15	1544.98	1.88
0.003	318.15	1545.25	1.88
0.004	318.15	1545.45	1.88
0.006	318.15	1545.78	1.88
0.008	318.15	1546.18	1.88
0.01	318.15	1546.55	1.88
0.014	318.15	1547.34	1.92
0.018	318.15	1547.98	1.87
0.022	318.15	1548.61	1.87
0.026	318.15	1549.18	1.87
0.03	318.15	1549.8	1.87

System: L-methionine + sodium cholate + water; phases: Liquid
Fixed: Pressure, kPa = 100
Fixed: Solvent: Molality, mol/kg of L-methionine = 0.1
Property: Viscosity, Pa*s (Liquid); method: Capillary tube (Ostwald; Ubbelohde) method
Molality, mol/kg of sodium cholate	Temperature, K	Viscosity, Pa*s	uncertainty
0	293.15	0.0010339	2.25e-05
0.001	293.15	0.0010347	2.25e-05
0.002	293.15	0.0010352	2.25e-05
0.003	293.15	0.0010356	2.25e-05
0.004	293.15	0.0010365	2.25e-05
0.006	293.15	0.001038	2.25e-05
0.008	293.15	0.0010396	2.25e-05
0.01	293.15	0.0010422	2.26e-05
0.014	293.15	0.0010555	2.29e-05
0.018	293.15	0.0010709	2.27e-05
0.022	293.15	0.001082	2.27e-05
0.026	293.15	0.0010886	2.27e-05
0.03	293.15	0.0010923	2.27e-05
0	298.15	0.00092	2.22e-05
0.001	298.15	0.0009206	2.2e-05
0.002	298.15	0.000921	2.2e-05
0.003	298.15	0.0009215	2.2e-05
0.004	298.15	0.0009223	2.2e-05
0.006	298.15	0.0009238	2.21e-05
0.008	298.15	0.0009253	2.21e-05
0.01	298.15	0.0009279	2.21e-05
0.014	298.15	0.000941	2.22e-05
0.018	298.15	0.0009563	2.22e-05
0.022	298.15	0.0009674	2.22e-05
0.026	298.15	0.0009739	2.22e-05
0.03	298.15	0.0009775	2.23e-05
0	303.15	0.0008289	2.17e-05
0.001	303.15	0.0008295	2.17e-05
0.002	303.15	0.0008299	2.17e-05
0.003	303.15	0.0008303	2.17e-05
0.004	303.15	0.0008311	2.17e-05
0.006	303.15	0.0008326	2.17e-05
0.008	303.15	0.0008341	2.17e-05
0.01	303.15	0.0008367	2.17e-05
0.014	303.15	0.0008497	2.18e-05
0.018	303.15	0.0008649	2.18e-05
0.022	303.15	0.0008759	2.18e-05
0.026	303.15	0.0008824	2.18e-05
0.03	303.15	0.000886	2.18e-05
0	308.15	0.0007461	2.14e-05
0.001	308.15	0.0007466	2.13e-05
0.002	308.15	0.000747	2.13e-05
0.003	308.15	0.0007474	2.13e-05
0.004	308.15	0.0007482	2.13e-05
0.006	308.15	0.0007496	2.14e-05
0.008	308.15	0.0007511	2.14e-05
0.01	308.15	0.0007537	2.14e-05
0.014	308.15	0.0007666	2.14e-05
0.018	308.15	0.0007816	2.15e-05
0.022	308.15	0.0007925	2.15e-05
0.026	308.15	0.0007989	2.15e-05
0.03	308.15	0.0008024	2.15e-05
0	313.15	0.0006799	2.11e-05
0.001	313.15	0.0006806	2.11e-05
0.002	313.15	0.000681	2.11e-05
0.003	313.15	0.0006814	2.11e-05
0.004	313.15	0.0006822	2.11e-05
0.006	313.15	0.0006836	2.11e-05
0.008	313.15	0.000685	2.11e-05
0.01	313.15	0.0006875	2.12e-05
0.014	313.15	0.0007003	2.12e-05
0.018	313.15	0.0007151	2.13e-05
0.022	313.15	0.0007259	2.13e-05
0.026	313.15	0.0007322	2.13e-05
0.03	313.15	0.0007356	2.13e-05
0	318.15	0.0006105	2.1e-05
0.001	318.15	0.000611	2.1e-05
0.002	318.15	0.0006113	2.1e-05
0.003	318.15	0.0006117	2.1e-05
0.004	318.15	0.0006125	2.1e-05
0.006	318.15	0.0006138	2.1e-05
0.008	318.15	0.0006153	2.1e-05
0.01	318.15	0.0006177	2.1e-05
0.014	318.15	0.00063	2.14e-05
0.018	318.15	0.0006444	2.11e-05
0.022	318.15	0.0006549	2.11e-05
0.026	318.15	0.000661	2.11e-05
0.03	318.15	0.0006643	2.11e-05

System: L-leucine + sodium cholate + water; phases: Liquid
Fixed: Pressure, kPa = 100
Fixed: Solvent: Molality, mol/kg of L-leucine = 0.1
Property: Mass density, kg/m3 (Liquid); method: Vibrating tube method
Molality, mol/kg of sodium cholate	Temperature, K	Mass density, kg/m3	uncertainty
0	293.15	1000.793	0.266
0.001	293.15	1000.922	0.266
0.002	293.15	1001.033	0.265
0.003	293.15	1001.127	0.264
0.004	293.15	1001.219	0.265
0.006	293.15	1001.415	0.265
0.008	293.15	1001.613	0.265
0.01	293.15	1001.809	0.265
0.014	293.15	1002.209	0.267
0.018	293.15	1002.605	0.284
0.022	293.15	1003.002	0.266
0.026	293.15	1003.409	0.267
0.03	293.15	1003.806	0.267
0	298.15	999.575	0.274
0.001	298.15	999.697	0.265
0.002	298.15	999.803	0.265
0.003	298.15	999.9	0.264
0.004	298.15	999.993	0.265
0.006	298.15	1000.189	0.265
0.008	298.15	1000.38	0.265
0.01	298.15	1000.58	0.265
0.014	298.15	1000.977	0.266
0.018	298.15	1001.375	0.266
0.022	298.15	1001.776	0.266
0.026	298.15	1002.177	0.266
0.03	298.15	1002.552	0.266
0	303.15	998.115	0.275
0.001	303.15	998.259	0.268
0.002	303.15	998.366	0.267
0.003	303.15	998.465	0.266
0.004	303.15	998.552	0.266
0.006	303.15	998.74	0.266
0.008	303.15	998.926	0.266
0.01	303.15	999.115	0.267
0.014	303.15	999.508	0.267
0.018	303.15	999.9	0.267
0.022	303.15	1000.287	0.267
0.026	303.15	1000.678	0.267
0.03	303.15	1001.034	0.266
0	308.15	996.485	0.281
0.001	308.15	996.615	0.27
0.002	308.15	996.719	0.269
0.003	308.15	996.813	0.268
0.004	308.15	996.897	0.269
0.006	308.15	997.081	0.268
0.008	308.15	997.265	0.268
0.01	308.15	997.455	0.269
0.014	308.15	997.841	0.269
0.018	308.15	998.231	0.269
0.022	308.15	998.609	0.269
0.026	308.15	999.003	0.269
0.03	308.15	999.382	0.268
0	313.15	994.559	0.287
0.001	313.15	994.697	0.273
0.002	313.15	994.799	0.272
0.003	313.15	994.89	0.272
0.004	313.15	994.972	0.272
0.006	313.15	995.15	0.272
0.008	313.15	995.328	0.272
0.01	313.15	995.509	0.272
0.014	313.15	995.887	0.272
0.018	313.15	996.269	0.273
0.022	313.15	996.651	0.273
0.026	313.15	997.011	0.273
0.03	313.15	997.412	0.272
0	318.15	992.305	0.275
0.001	318.15	992.42	0.275
0.002	318.15	992.511	0.274
0.003	318.15	992.6	0.274
0.004	318.15	992.687	0.274
0.006	318.15	992.863	0.274
0.008	318.15	993.045	0.274
0.01	318.15	993.226	0.274
0.014	318.15	993.585	0.276
0.018	318.15	993.95	0.272
0.022	318.15	994.299	0.275
0.026	318.15	994.675	0.275
0.03	318.15	995.046	0.275

System: L-leucine + sodium cholate + water; phases: Liquid
Fixed: Pressure, kPa = 100
Fixed: Solvent: Molality, mol/kg of L-leucine = 0.1
Fixed: Frequency, MHz = 3
Property: Speed of sound, m/s (Liquid); method: Sing-around technique in a fixed-path interferometer
Molality, mol/kg of sodium cholate	Temperature, K	Speed of sound, m/s	uncertainty
0	293.15	1494.87	1.71
0.001	293.15	1495.39	1.7
0.002	293.15	1495.72	1.7
0.003	293.15	1496	1.7
0.004	293.15	1496.19	1.7
0.006	293.15	1496.66	1.7
0.008	293.15	1497.16	1.7
0.01	293.15	1497.64	1.7
0.014	293.15	1498.79	1.87
0.018	293.15	1499.85	1.74
0.022	293.15	1500.86	1.7
0.026	293.15	1501.81	1.7
0.03	293.15	1502.3	1.69
0	298.15	1508.3	1.73
0.001	298.15	1508.77	1.7
0.002	298.15	1509.16	1.69
0.003	298.15	1509.43	1.69
0.004	298.15	1509.6	1.69
0.006	298.15	1510.12	1.69
0.008	298.15	1510.55	1.69
0.01	298.15	1511.18	1.69
0.014	298.15	1512.31	1.69
0.018	298.15	1513.09	1.69
0.022	298.15	1513.99	1.69
0.026	298.15	1514.86	1.69
0.03	298.15	1515.46	1.68
0	303.15	1520.2	1.71
0.001	303.15	1520.55	1.68
0.002	303.15	1520.89	1.67
0.003	303.15	1521.13	1.67
0.004	303.15	1521.31	1.67
0.006	303.15	1521.78	1.67
0.008	303.15	1522.26	1.67
0.01	303.15	1522.73	1.67
0.014	303.15	1523.81	1.67
0.018	303.15	1524.66	1.67
0.022	303.15	1525.49	1.67
0.026	303.15	1526.22	1.67
0.03	303.15	1526.81	1.67
0	308.15	1530.27	1.7
0.001	308.15	1530.68	1.66
0.002	308.15	1531.03	1.66
0.003	308.15	1531.23	1.66
0.004	308.15	1531.42	1.66
0.006	308.15	1531.85	1.66
0.008	308.15	1532.27	1.66
0.01	308.15	1532.7	1.66
0.014	308.15	1533.73	1.66
0.018	308.15	1534.47	1.66
0.022	308.15	1535.24	1.66
0.026	308.15	1536.02	1.66
0.03	308.15	1536.56	1.65
0	313.15	1538.84	1.68
0.001	313.15	1539.22	1.65
0.002	313.15	1539.43	1.65
0.003	313.15	1539.7	1.65
0.004	313.15	1539.87	1.65
0.006	313.15	1540.32	1.65
0.008	313.15	1540.75	1.65
0.01	313.15	1541.14	1.65
0.014	313.15	1542.02	1.65
0.018	313.15	1542.79	1.65
0.022	313.15	1543.51	1.65
0.026	313.15	1544.3	1.64
0.03	313.15	1544.78	1.64
0	318.15	1545.9	1.65
0.001	318.15	1546.27	1.65
0.002	318.15	1546.55	1.64
0.003	318.15	1546.78	1.64
0.004	318.15	1546.99	1.64
0.006	318.15	1547.38	1.64
0.008	318.15	1547.75	1.64
0.01	318.15	1548.07	1.64
0.014	318.15	1548.81	1.66
0.018	318.15	1549.61	1.64
0.022	318.15	1550.33	1.64
0.026	318.15	1551.01	1.64
0.03	318.15	1551.59	1.64

System: L-leucine + sodium cholate + water; phases: Liquid
Fixed: Pressure, kPa = 100
Fixed: Solvent: Molality, mol/kg of L-leucine = 0.1
Property: Viscosity, Pa*s (Liquid); method: Capillary tube (Ostwald; Ubbelohde) method
Molality, mol/kg of sodium cholate	Temperature, K	Viscosity, Pa*s	uncertainty
0	293.15	0.0010603	2.21e-05
0.001	293.15	0.001061	2.21e-05
0.002	293.15	0.0010614	2.21e-05
0.003	293.15	0.0010619	2.22e-05
0.004	293.15	0.0010628	2.22e-05
0.006	293.15	0.0010643	2.22e-05
0.008	293.15	0.0010659	2.22e-05
0.01	293.15	0.0010701	2.22e-05
0.014	293.15	0.0010857	2.31e-05
0.018	293.15	0.0011002	2.23e-05
0.022	293.15	0.001109	2.23e-05
0.026	293.15	0.0011157	2.23e-05
0.03	293.15	0.0011187	2.23e-05
0	298.15	0.0009398	2.19e-05
0.001	298.15	0.0009401	2.18e-05
0.002	298.15	0.0009406	2.18e-05
0.003	298.15	0.000941	2.18e-05
0.004	298.15	0.0009418	2.18e-05
0.006	298.15	0.0009433	2.18e-05
0.008	298.15	0.0009449	2.18e-05
0.01	298.15	0.000949	2.18e-05
0.014	298.15	0.0009644	2.19e-05
0.018	298.15	0.0009787	2.19e-05
0.022	298.15	0.0009873	2.19e-05
0.026	298.15	0.0009939	2.19e-05
0.03	298.15	0.0009968	2.19e-05
0	303.15	0.0008362	2.15e-05
0.001	303.15	0.0008366	2.14e-05
0.002	303.15	0.000837	2.14e-05
0.003	303.15	0.0008375	2.14e-05
0.004	303.15	0.0008383	2.14e-05
0.006	303.15	0.0008397	2.14e-05
0.008	303.15	0.0008413	2.14e-05
0.01	303.15	0.0008453	2.14e-05
0.014	303.15	0.0008605	2.15e-05
0.018	303.15	0.0008746	2.15e-05
0.022	303.15	0.0008831	2.15e-05
0.026	303.15	0.0008896	2.15e-05
0.03	303.15	0.0008924	2.15e-05
0	308.15	0.0007509	2.12e-05
0.001	308.15	0.0007512	2.11e-05
0.002	308.15	0.0007516	2.11e-05
0.003	308.15	0.000752	2.11e-05
0.004	308.15	0.0007528	2.11e-05
0.006	308.15	0.0007542	2.11e-05
0.008	308.15	0.0007557	2.11e-05
0.01	308.15	0.0007597	2.12e-05
0.014	308.15	0.0007746	2.12e-05
0.018	308.15	0.0007885	2.12e-05
0.022	308.15	0.0007969	2.12e-05
0.026	308.15	0.0008033	2.12e-05
0.03	308.15	0.0008061	2.12e-05
0	313.15	0.0006801	2.1e-05
0.001	313.15	0.0006806	2.09e-05
0.002	313.15	0.000681	2.09e-05
0.003	313.15	0.0006814	2.09e-05
0.004	313.15	0.0006822	2.1e-05
0.006	313.15	0.0006836	2.1e-05
0.008	313.15	0.000685	2.1e-05
0.01	313.15	0.0006889	2.1e-05
0.014	313.15	0.0007037	2.1e-05
0.018	313.15	0.0007174	2.1e-05
0.022	313.15	0.0007257	2.11e-05
0.026	313.15	0.000732	2.11e-05
0.03	313.15	0.0007347	2.11e-05
0	318.15	0.0006014	2.08e-05
0.001	318.15	0.0006019	2.08e-05
0.002	318.15	0.0006022	2.08e-05
0.003	318.15	0.0006026	2.08e-05
0.004	318.15	0.0006034	2.08e-05
0.006	318.15	0.0006047	2.08e-05
0.008	318.15	0.0006061	2.08e-05
0.01	318.15	0.0006098	2.09e-05
0.014	318.15	0.0006239	2.09e-05
0.018	318.15	0.000637	2.19e-05
0.022	318.15	0.0006449	2.09e-05
0.026	318.15	0.0006509	2.09e-05
0.03	318.15	0.0006535	2.09e-05

System: sodium deoxycholate + water; phases: Liquid
Fixed: Pressure, kPa = 100
Property: Mass density, kg/m3 (Liquid); method: Vibrating tube method
Temperature, K	Molality, mol/kg of sodium deoxycholate	Mass density, kg/m3	uncertainty
293.15	0.001	998.465	0.136
293.15	0.002	998.579	0.123
293.15	0.003	998.669	0.121
293.15	0.004	998.749	0.12
293.15	0.005	998.815	0.121
293.15	0.006	998.905	0.122
293.15	0.007	998.995	0.122
293.15	0.009	999.185	0.123
293.15	0.011	999.39	0.123
293.15	0.013	999.585	0.124
293.15	0.015	999.795	0.124
293.15	0.017	999.993	0.124
298.15	0.001	997.29	0.136
298.15	0.002	997.395	0.124
298.15	0.003	997.475	0.123
298.15	0.004	997.555	0.123
298.15	0.005	997.635	0.123
298.15	0.006	997.715	0.123
298.15	0.007	997.805	0.126
298.15	0.009	997.996	0.125
298.15	0.011	998.185	0.125
298.15	0.013	998.388	0.125
298.15	0.015	998.572	0.125
298.15	0.017	998.772	0.122
303.15	0.001	995.88	0.139
303.15	0.002	995.983	0.128
303.15	0.003	996.059	0.127
303.15	0.004	996.137	0.127
303.15	0.005	996.215	0.127
303.15	0.006	996.289	0.127
303.15	0.007	996.377	0.129
303.15	0.009	996.557	0.129
303.15	0.011	996.745	0.129
303.15	0.013	996.921	0.129
303.15	0.015	997.109	0.129
303.15	0.017	997.29	0.126
308.15	0.001	994.255	0.143
308.15	0.002	994.355	0.132
308.15	0.003	994.435	0.131
308.15	0.004	994.509	0.131
308.15	0.005	994.587	0.131
308.15	0.006	994.659	0.131
308.15	0.007	994.739	0.133
308.15	0.009	994.914	0.132
308.15	0.011	995.094	0.133
308.15	0.013	995.282	0.133
308.15	0.015	995.452	0.132
308.15	0.017	995.616	0.13
313.15	0.001	992.421	0.143
313.15	0.002	992.515	0.137
313.15	0.003	992.6	0.136
313.15	0.004	992.681	0.136
313.15	0.005	992.757	0.135
313.15	0.006	992.817	0.135
313.15	0.007	992.91	0.137
313.15	0.009	993.064	0.136
313.15	0.011	993.239	0.137
313.15	0.013	993.428	0.137
313.15	0.015	993.595	0.136
313.15	0.017	993.737	0.134
318.15	0.001	990.405	0.143
318.15	0.002	990.499	0.139
318.15	0.003	990.576	0.138
318.15	0.004	990.651	0.138
318.15	0.005	990.732	0.138
318.15	0.006	990.802	0.138
318.15	0.007	990.892	0.138
318.15	0.009	991.03	0.138
318.15	0.011	991.199	0.139
318.15	0.013	991.379	0.139
318.15	0.015	991.535	0.139
318.15	0.017	991.705	0.139
293.15	0	998.218	0.152
298.15	0	997.055	0.173
303.15	0	995.651	0.172
308.15	0	994.032	0.169
313.15	0	992.244	0.163
318.15	0	990.256	0.146

System: sodium deoxycholate + water; phases: Liquid
Fixed: Pressure, kPa = 100
Fixed: Frequency, MHz = 3
Property: Speed of sound, m/s (Liquid); method: Sing-around technique in a fixed-path interferometer
Molality, mol/kg of sodium deoxycholate	Temperature, K	Speed of sound, m/s	uncertainty
0.001	293.15	1483.43	1.35
0.002	293.15	1483.85	1.34
0.003	293.15	1484.17	1.34
0.004	293.15	1484.47	1.34
0.005	293.15	1484.63	1.34
0.006	293.15	1484.99	1.34
0.007	293.15	1485.16	1.34
0.009	293.15	1485.51	1.55
0.011	293.15	1485.82	1.34
0.013	293.15	1486.2	1.34
0.015	293.15	1486.51	1.63
0.017	293.15	1486.83	1.34
0.001	298.15	1497.18	1.33
0.002	298.15	1497.45	1.33
0.003	298.15	1497.76	1.33
0.004	298.15	1497.88	1.33
0.005	298.15	1498.13	1.33
0.006	298.15	1498.38	1.33
0.007	298.15	1498.71	1.33
0.009	298.15	1499.17	1.33
0.011	298.15	1499.53	1.33
0.013	298.15	1499.92	1.33
0.015	298.15	1500.21	1.33
0.017	298.15	1500.56	1.33
0.001	303.15	1509.57	1.31
0.002	303.15	1509.89	1.31
0.003	303.15	1510.02	1.31
0.004	303.15	1510.19	1.31
0.005	303.15	1510.51	1.31
0.006	303.15	1510.72	1.31
0.007	303.15	1510.97	1.31
0.009	303.15	1511.34	1.31
0.011	303.15	1511.78	1.31
0.013	303.15	1512.05	1.31
0.015	303.15	1512.33	1.31
0.017	303.15	1512.67	1.31
0.001	308.15	1520.11	1.29
0.002	308.15	1520.45	1.29
0.003	308.15	1520.74	1.29
0.004	308.15	1520.8	1.29
0.005	308.15	1520.99	1.29
0.006	308.15	1521.32	1.29
0.007	308.15	1521.53	1.29
0.009	308.15	1521.88	1.29
0.011	308.15	1522.22	1.29
0.013	308.15	1522.56	1.29
0.015	308.15	1522.83	1.29
0.017	308.15	1523.15	1.29
0.001	313.15	1529.31	1.27
0.002	313.15	1529.49	1.27
0.003	313.15	1529.72	1.27
0.004	313.15	1529.83	1.27
0.005	313.15	1530.05	1.27
0.006	313.15	1530.3	1.27
0.007	313.15	1530.53	1.28
0.009	313.15	1530.86	1.27
0.011	313.15	1531.17	1.27
0.013	313.15	1531.5	1.27
0.015	313.15	1531.76	1.27
0.017	313.15	1532.04	1.27
0.001	318.15	1536.87	1.27
0.002	318.15	1537.06	1.27
0.003	318.15	1537.29	1.27
0.004	318.15	1537.35	1.27
0.005	318.15	1537.51	1.27
0.006	318.15	1537.69	1.27
0.007	318.15	1537.92	1.27
0.009	318.15	1538.33	1.27
0.011	318.15	1538.62	1.27
0.013	318.15	1538.93	1.27
0.015	318.15	1539.16	1.27
0.017	318.15	1539.45	1.27
0	293.15	1482.96	1.36
0	298.15	1497.06	1.36
0	303.15	1509.39	1.34
0	308.15	1520.08	1.31
0	313.15	1529.19	1.3
0	318.15	1536.52	1.27

System: sodium deoxycholate + water; phases: Liquid
Fixed: Pressure, kPa = 100
Property: Viscosity, Pa*s (Liquid); method: Capillary tube (Ostwald; Ubbelohde) method
Molality, mol/kg of sodium deoxycholate	Temperature, K	Viscosity, Pa*s	uncertainty
0	293.15	0.0010019	2.13e-05
0.001	293.15	0.0010032	2.13e-05
0.002	293.15	0.0010045	2.13e-05
0.003	293.15	0.0010056	2.13e-05
0.004	293.15	0.0010086	2.14e-05
0.005	293.15	0.0010141	2.16e-05
0.006	293.15	0.0010272	2.18e-05
0.007	293.15	0.0010363	2.14e-05
0.009	293.15	0.0010447	2.15e-05
0.011	293.15	0.0010492	2.14e-05
0.013	293.15	0.0010535	2.14e-05
0.015	293.15	0.0010616	2.18e-05
0.017	293.15	0.0010688	2.14e-05
0	298.15	0.0008903	2.12e-05
0.001	298.15	0.0008914	2.11e-05
0.002	298.15	0.0008926	2.11e-05
0.003	298.15	0.0008937	2.11e-05
0.004	298.15	0.0008967	2.11e-05
0.005	298.15	0.0009021	2.14e-05
0.006	298.15	0.000915	2.15e-05
0.007	298.15	0.000924	2.12e-05
0.009	298.15	0.0009323	2.12e-05
0.011	298.15	0.0009368	2.11e-05
0.013	298.15	0.000941	2.12e-05
0.015	298.15	0.0009489	2.12e-05
0.017	298.15	0.000956	2.13e-05
0	303.15	0.0007973	2.09e-05
0.001	303.15	0.0007987	2.08e-05
0.002	303.15	0.0007999	2.08e-05
0.003	303.15	0.000801	2.08e-05
0.004	303.15	0.0008039	2.09e-05
0.005	303.15	0.0008092	2.12e-05
0.006	303.15	0.000822	2.13e-05
0.007	303.15	0.0008309	2.1e-05
0.009	303.15	0.0008391	2.09e-05
0.011	303.15	0.0008434	2.09e-05
0.013	303.15	0.0008476	2.09e-05
0.015	303.15	0.0008554	2.1e-05
0.017	303.15	0.0008624	2.1e-05
0	308.15	0.000719	2.07e-05
0.001	308.15	0.0007203	2.07e-05
0.002	308.15	0.0007215	2.07e-05
0.003	308.15	0.0007225	2.07e-05
0.004	308.15	0.0007254	2.07e-05
0.005	308.15	0.0007307	2.1e-05
0.006	308.15	0.0007433	2.11e-05
0.007	308.15	0.000752	2.08e-05
0.009	308.15	0.0007601	2.07e-05
0.011	308.15	0.0007644	2.07e-05
0.013	308.15	0.0007685	2.08e-05
0.015	308.15	0.0007762	2.08e-05
0.017	308.15	0.0007831	2.09e-05
0	313.15	0.0006526	2.05e-05
0.001	313.15	0.0006543	2.05e-05
0.002	313.15	0.0006554	2.05e-05
0.003	313.15	0.0006565	2.06e-05
0.004	313.15	0.0006593	2.06e-05
0.005	313.15	0.0006645	2.09e-05
0.006	313.15	0.000677	2.1e-05
0.007	313.15	0.0006857	2.07e-05
0.009	313.15	0.0006936	2.06e-05
0.011	313.15	0.0006979	2.06e-05
0.013	313.15	0.0007019	2.06e-05
0.015	313.15	0.0007096	2.07e-05
0.017	313.15	0.0007164	2.07e-05
0	318.15	0.000596	2.05e-05
0.001	318.15	0.0005973	2.05e-05
0.002	318.15	0.0005984	2.05e-05
0.003	318.15	0.0005994	2.05e-05
0.004	318.15	0.0006022	2.05e-05
0.005	318.15	0.0006074	2.08e-05
0.006	318.15	0.0006197	2.09e-05
0.007	318.15	0.0006283	2.06e-05
0.009	318.15	0.0006361	2.19e-05
0.011	318.15	0.0006403	2.05e-05
0.013	318.15	0.0006443	2.05e-05
0.015	318.15	0.0006518	2.05e-05
0.017	318.15	0.0006586	2.06e-05

System: L-histidine + sodium deoxycholate + water; phases: Liquid
Fixed: Pressure, kPa = 100
Fixed: Solvent: Molality, mol/kg of L-histidine = 0.1
Property: Mass density, kg/m3 (Liquid); method: Vibrating tube method
Molality, mol/kg of sodium deoxycholate	Temperature, K	Mass density, kg/m3	uncertainty
0.001	293.15	1004.189	0.271
0.002	293.15	1004.305	0.267
0.003	293.15	1004.389	0.266
0.004	293.15	1004.445	0.265
0.005	293.15	1004.502	0.266
0.006	293.15	1004.574	0.267
0.007	293.15	1004.657	0.267
0.009	293.15	1004.825	0.266
0.011	293.15	1004.997	0.268
0.013	293.15	1005.197	0.268
0.015	293.15	1005.355	0.266
0.017	293.15	1005.524	0.268
0.001	298.15	1002.962	0.27
0.002	298.15	1003.08	0.267
0.003	298.15	1003.149	0.266
0.004	298.15	1003.21	0.266
0.005	298.15	1003.268	0.265
0.006	298.15	1003.327	0.266
0.007	298.15	1003.399	0.267
0.009	298.15	1003.579	0.267
0.011	298.15	1003.73	0.267
0.013	298.15	1003.914	0.267
0.015	298.15	1004.049	0.267
0.017	298.15	1004.196	0.266
0.001	303.15	1001.489	0.27
0.002	303.15	1001.591	0.268
0.003	303.15	1001.669	0.266
0.004	303.15	1001.715	0.266
0.005	303.15	1001.79	0.267
0.006	303.15	1001.851	0.267
0.007	303.15	1001.924	0.268
0.009	303.15	1002.093	0.267
0.011	303.15	1002.235	0.268
0.013	303.15	1002.405	0.268
0.015	303.15	1002.529	0.268
0.017	303.15	1002.709	0.267
0.001	308.15	999.819	0.271
0.002	308.15	999.914	0.268
0.003	308.15	999.986	0.267
0.004	308.15	1000.037	0.267
0.005	308.15	1000.106	0.267
0.006	308.15	1000.166	0.267
0.007	308.15	1000.226	0.268
0.009	308.15	1000.388	0.268
0.011	308.15	1000.524	0.268
0.013	308.15	1000.705	0.268
0.015	308.15	1000.828	0.268
0.017	308.15	1001.007	0.268
0.001	313.15	997.947	0.272
0.002	313.15	998.041	0.27
0.003	313.15	998.109	0.269
0.004	313.15	998.157	0.269
0.005	313.15	998.221	0.269
0.006	313.15	998.279	0.269
0.007	313.15	998.349	0.27
0.009	313.15	998.489	0.269
0.011	313.15	998.632	0.269
0.013	313.15	998.773	0.27
0.015	313.15	998.923	0.27
0.017	313.15	999.101	0.269
0.001	318.15	995.912	0.273
0.002	318.15	995.996	0.27
0.003	318.15	996.047	0.27
0.004	318.15	996.111	0.27
0.005	318.15	996.174	0.27
0.006	318.15	996.235	0.27
0.007	318.15	996.293	0.27
0.009	318.15	996.426	0.391
0.011	318.15	996.574	0.27
0.013	318.15	996.705	0.27
0.015	318.15	996.864	0.269
0.017	318.15	997.015	0.271
0	293.15	1003.99	0.275
0	298.15	1002.805	0.283
0	303.15	1001.329	0.28
0	308.15	999.656	0.281
0	313.15	997.795	0.28
0	318.15	995.765	0.275

System: L-histidine + sodium deoxycholate + water; phases: Liquid
Fixed: Pressure, kPa = 100
Fixed: Solvent: Molality, mol/kg of L-histidine = 0.1
Fixed: Frequency, MHz = 3
Property: Speed of sound, m/s (Liquid); method: Sing-around technique in a fixed-path interferometer
Molality, mol/kg of sodium deoxycholate	Temperature, K	Speed of sound, m/s	uncertainty
0.001	293.15	1492.24	1.7
0.002	293.15	1492.51	1.7
0.003	293.15	1492.64	1.7
0.004	293.15	1492.83	1.7
0.005	293.15	1493.05	1.7
0.006	293.15	1493.33	1.71
0.007	293.15	1493.54	1.7
0.009	293.15	1493.97	2.61
0.011	293.15	1494.37	1.7
0.013	293.15	1494.68	1.7
0.015	293.15	1494.98	1.75
0.017	293.15	1495.21	1.7
0.001	298.15	1505.97	1.7
0.002	298.15	1506.35	1.69
0.003	298.15	1506.57	1.69
0.004	298.15	1506.78	1.69
0.005	298.15	1506.97	1.69
0.006	298.15	1507.27	1.69
0.007	298.15	1507.46	1.69
0.009	298.15	1507.81	1.69
0.011	298.15	1508.02	1.69
0.013	298.15	1508.31	1.69
0.015	298.15	1508.51	1.69
0.017	298.15	1508.92	1.69
0.001	303.15	1518.01	1.68
0.002	303.15	1518.28	1.68
0.003	303.15	1518.54	1.67
0.004	303.15	1518.76	1.67
0.005	303.15	1518.88	1.67
0.006	303.15	1519.14	1.67
0.007	303.15	1519.33	1.67
0.009	303.15	1519.47	1.67
0.011	303.15	1519.79	1.67
0.013	303.15	1520.21	1.67
0.015	303.15	1520.36	1.67
0.017	303.15	1520.59	1.67
0.001	308.15	1528.22	1.67
0.002	308.15	1528.55	1.66
0.003	308.15	1528.75	1.66
0.004	308.15	1528.93	1.66
0.005	308.15	1529.15	1.66
0.006	308.15	1529.31	1.66
0.007	308.15	1529.48	1.66
0.009	308.15	1529.67	1.66
0.011	308.15	1529.93	1.66
0.013	308.15	1530.21	1.66
0.015	308.15	1530.55	1.66
0.017	308.15	1530.76	1.66
0.001	313.15	1537.11	1.66
0.002	313.15	1537.49	1.65
0.003	313.15	1537.69	1.65
0.004	313.15	1537.86	1.65
0.005	313.15	1537.95	1.65
0.006	313.15	1538.1	1.65
0.007	313.15	1538.22	1.65
0.009	313.15	1538.34	1.65
0.011	313.15	1538.6	1.65
0.013	313.15	1538.83	1.65
0.015	313.15	1539.12	1.65
0.017	313.15	1539.28	1.65
0.001	318.15	1544.13	1.64
0.002	318.15	1544.38	1.64
0.003	318.15	1544.53	1.64
0.004	318.15	1544.68	1.64
0.005	318.15	1544.85	1.64
0.006	318.15	1545.07	1.64
0.007	318.15	1545.26	1.64
0.009	318.15	1545.54	1.91
0.011	318.15	1545.69	1.64
0.013	318.15	1546	1.64
0.015	318.15	1546.27	1.65
0.017	318.15	1546.41	1.64
0	293.15	1491.85	1.7
0	298.15	1505.32	1.75
0	303.15	1517.41	1.74
0	308.15	1527.61	1.71
0	313.15	1536.35	1.72
0	318.15	1543.75	1.65

System: L-histidine + sodium deoxycholate + water; phases: Liquid
Fixed: Pressure, kPa = 100
Fixed: Solvent: Molality, mol/kg of L-histidine = 0.1
Property: Viscosity, Pa*s (Liquid); method: Capillary tube (Ostwald; Ubbelohde) method
Molality, mol/kg of sodium deoxycholate	Temperature, K	Viscosity, Pa*s	uncertainty
0	293.15	0.0010516	2.22e-05
0.001	293.15	0.0010531	2.22e-05
0.002	293.15	0.0010545	2.22e-05
0.003	293.15	0.001056	2.22e-05
0.004	293.15	0.0010589	2.23e-05
0.005	293.15	0.0010673	2.25e-05
0.006	293.15	0.0010773	2.25e-05
0.007	293.15	0.0010842	2.24e-05
0.009	293.15	0.0010951	2.31e-05
0.011	293.15	0.001103	2.23e-05
0.013	293.15	0.0011073	2.23e-05
0.015	293.15	0.0011128	2.26e-05
0.017	293.15	0.0011189	2.24e-05
0	298.15	0.000928	2.19e-05
0.001	298.15	0.0009295	2.17e-05
0.002	298.15	0.0009308	2.17e-05
0.003	298.15	0.0009322	2.18e-05
0.004	298.15	0.0009351	2.19e-05
0.005	298.15	0.0009435	2.21e-05
0.006	298.15	0.0009533	2.2e-05
0.007	298.15	0.0009601	2.19e-05
0.009	298.15	0.0009709	2.19e-05
0.011	298.15	0.0009786	2.19e-05
0.013	298.15	0.0009828	2.19e-05
0.015	298.15	0.0009882	2.19e-05
0.017	298.15	0.0009942	2.21e-05
0	303.15	0.0008289	2.14e-05
0.001	303.15	0.0008306	2.14e-05
0.002	303.15	0.0008319	2.14e-05
0.003	303.15	0.0008333	2.14e-05
0.004	303.15	0.0008361	2.15e-05
0.005	303.15	0.0008444	2.17e-05
0.006	303.15	0.0008541	2.17e-05
0.007	303.15	0.0008608	2.15e-05
0.009	303.15	0.0008715	2.15e-05
0.011	303.15	0.0008791	2.15e-05
0.013	303.15	0.0008832	2.15e-05
0.015	303.15	0.0008885	2.15e-05
0.017	303.15	0.0008945	2.16e-05
0	308.15	0.0007447	2.11e-05
0.001	308.15	0.0007463	2.11e-05
0.002	308.15	0.0007476	2.11e-05
0.003	308.15	0.0007489	2.11e-05
0.004	308.15	0.0007517	2.12e-05
0.005	308.15	0.0007599	2.14e-05
0.006	308.15	0.0007695	2.14e-05
0.007	308.15	0.0007761	2.12e-05
0.009	308.15	0.0007866	2.12e-05
0.011	308.15	0.0007941	2.12e-05
0.013	308.15	0.0007982	2.12e-05
0.015	308.15	0.0008034	2.12e-05
0.017	308.15	0.0008093	2.13e-05
0	313.15	0.0006783	2.12e-05
0.001	313.15	0.00068	2.1e-05
0.002	313.15	0.0006813	2.1e-05
0.003	313.15	0.0006826	2.1e-05
0.004	313.15	0.0006854	2.11e-05
0.005	313.15	0.0006934	2.13e-05
0.006	313.15	0.000703	2.12e-05
0.007	313.15	0.0007095	2.12e-05
0.009	313.15	0.0007198	2.11e-05
0.011	313.15	0.0007273	2.11e-05
0.013	313.15	0.0007313	2.11e-05
0.015	313.15	0.0007365	2.11e-05
0.017	313.15	0.0007423	2.11e-05
0	318.15	0.0005915	2.09e-05
0.001	318.15	0.0005936	2.09e-05
0.002	318.15	0.0005948	2.09e-05
0.003	318.15	0.000596	2.09e-05
0.004	318.15	0.0005987	2.1e-05
0.005	318.15	0.0006063	2.11e-05
0.006	318.15	0.0006153	2.11e-05
0.007	318.15	0.0006214	2.1e-05
0.009	318.15	0.0006312	2.15e-05
0.011	318.15	0.0006382	2.1e-05
0.013	318.15	0.000642	2.1e-05
0.015	318.15	0.0006469	2.14e-05
0.017	318.15	0.0006524	2.1e-05

System: 2-aminoacetic acid + sodium deoxycholate + water; phases: Liquid
Fixed: Pressure, kPa = 100
Fixed: Solvent: Molality, mol/kg of 2-aminoacetic acid = 0.1
Property: Mass density, kg/m3 (Liquid); method: Vibrating tube method
Molality, mol/kg of sodium deoxycholate	Temperature, K	Mass density, kg/m3	uncertainty
0.001	293.15	1001.694	0.269
0.002	293.15	1001.812	0.264
0.003	293.15	1001.863	0.263
0.004	293.15	1001.905	0.263
0.005	293.15	1001.947	0.263
0.006	293.15	1002	0.264
0.007	293.15	1002.089	0.264
0.009	293.15	1002.226	0.313
0.011	293.15	1002.408	0.265
0.013	293.15	1002.583	0.265
0.015	293.15	1002.725	0.266
0.017	293.15	1002.906	0.266
0.001	298.15	1000.485	0.267
0.002	298.15	1000.594	0.264
0.003	298.15	1000.65	0.263
0.004	298.15	1000.683	0.263
0.005	298.15	1000.723	0.263
0.006	298.15	1000.788	0.264
0.007	298.15	1000.867	0.265
0.009	298.15	1001.008	0.264
0.011	298.15	1001.182	0.265
0.013	298.15	1001.326	0.265
0.015	298.15	1001.486	0.265
0.017	298.15	1001.652	0.264
0.001	303.15	999.052	0.268
0.002	303.15	999.144	0.265
0.003	303.15	999.199	0.264
0.004	303.15	999.234	0.264
0.005	303.15	999.281	0.264
0.006	303.15	999.325	0.264
0.007	303.15	999.384	0.266
0.009	303.15	999.528	0.266
0.011	303.15	999.703	0.266
0.013	303.15	999.852	0.266
0.015	303.15	1000.017	0.266
0.017	303.15	1000.178	0.265
0.001	308.15	997.395	0.27
0.002	308.15	997.473	0.267
0.003	308.15	997.523	0.266
0.004	308.15	997.565	0.266
0.005	308.15	997.612	0.266
0.006	308.15	997.646	0.266
0.007	308.15	997.709	0.267
0.009	308.15	997.859	0.267
0.011	308.15	998.005	0.267
0.013	308.15	998.153	0.268
0.015	308.15	998.314	0.268
0.017	308.15	998.512	0.267
0.001	313.15	995.545	0.271
0.002	313.15	995.624	0.269
0.003	313.15	995.68	0.268
0.004	313.15	995.72	0.268
0.005	313.15	995.759	0.268
0.006	313.15	995.8	0.268
0.007	313.15	995.865	0.269
0.009	313.15	996.009	0.269
0.011	313.15	996.163	0.269
0.013	313.15	996.283	0.269
0.015	313.15	996.465	0.27
0.017	313.15	996.616	0.269
0.001	318.15	993.523	0.272
0.002	318.15	993.609	0.27
0.003	318.15	993.653	0.269
0.004	318.15	993.692	0.269
0.005	318.15	993.713	0.269
0.006	318.15	993.767	0.269
0.007	318.15	993.816	0.27
0.009	318.15	993.957	0.289
0.011	318.15	994.101	0.27
0.013	318.15	994.229	0.27
0.015	318.15	994.402	0.269
0.017	318.15	994.559	0.271
0	293.15	1001.515	0.271
0	298.15	1000.322	0.279
0	303.15	998.885	0.28
0	308.15	997.231	0.28
0	313.15	995.401	0.28
0	318.15	993.385	0.274

System: 2-aminoacetic acid + sodium deoxycholate + water; phases: Liquid
Fixed: Pressure, kPa = 100
Fixed: Solvent: Molality, mol/kg of 2-aminoacetic acid = 0.1
Fixed: Frequency, MHz = 3
Property: Speed of sound, m/s (Liquid); method: Sing-around technique in a fixed-path interferometer
Molality, mol/kg of sodium deoxycholate	Temperature, K	Speed of sound, m/s	uncertainty
0.001	293.15	1488.63	1.71
0.002	293.15	1488.95	1.71
0.003	293.15	1489.3	1.71
0.004	293.15	1489.55	1.71
0.005	293.15	1489.84	1.71
0.006	293.15	1490.14	1.7
0.007	293.15	1490.36	1.7
0.009	293.15	1490.85	1.77
0.011	293.15	1491.33	1.7
0.013	293.15	1491.75	1.7
0.015	293.15	1492.15	1.72
0.017	293.15	1492.57	1.7
0.001	298.15	1502.61	1.7
0.002	298.15	1503.03	1.7
0.003	298.15	1503.33	1.7
0.004	298.15	1503.59	1.7
0.005	298.15	1503.81	1.69
0.006	298.15	1504.05	1.69
0.007	298.15	1504.24	1.7
0.009	298.15	1504.7	1.69
0.011	298.15	1505.18	1.69
0.013	298.15	1505.59	1.69
0.015	298.15	1505.94	1.69
0.017	298.15	1506.32	1.69
0.001	303.15	1514.79	1.68
0.002	303.15	1515.24	1.68
0.003	303.15	1515.53	1.68
0.004	303.15	1515.77	1.68
0.005	303.15	1515.93	1.68
0.006	303.15	1516.15	1.68
0.007	303.15	1516.37	1.68
0.009	303.15	1516.79	1.67
0.011	303.15	1517.19	1.67
0.013	303.15	1517.61	1.67
0.015	303.15	1517.98	1.67
0.017	303.15	1518.26	1.67
0.001	308.15	1525.33	1.67
0.002	308.15	1525.69	1.66
0.003	308.15	1525.96	1.66
0.004	308.15	1526.15	1.66
0.005	308.15	1526.35	1.66
0.006	308.15	1526.55	1.66
0.007	308.15	1526.69	1.66
0.009	308.15	1527.06	1.66
0.011	308.15	1527.31	1.66
0.013	308.15	1527.65	1.66
0.015	308.15	1527.88	1.66
0.017	308.15	1528.15	1.66
0.001	313.15	1534.26	1.65
0.002	313.15	1534.61	1.65
0.003	313.15	1534.85	1.65
0.004	313.15	1535.03	1.65
0.005	313.15	1535.19	1.65
0.006	313.15	1535.33	1.65
0.007	313.15	1535.51	1.65
0.009	313.15	1535.91	1.65
0.011	313.15	1536.15	1.65
0.013	313.15	1536.51	1.65
0.015	313.15	1536.71	1.65
0.017	313.15	1536.92	1.65
0.001	318.15	1541.67	1.65
0.002	318.15	1542.02	1.65
0.003	318.15	1542.35	1.65
0.004	318.15	1542.59	1.65
0.005	318.15	1542.81	1.65
0.006	318.15	1543.01	1.65
0.007	318.15	1543.1	1.65
0.009	318.15	1543.47	1.66
0.011	318.15	1543.69	1.64
0.013	318.15	1543.95	1.64
0.015	318.15	1544.18	1.65
0.017	318.15	1544.32	1.64
0	293.15	1488.2	1.71
0	298.15	1502.2	1.74
0	303.15	1514.42	1.71
0	308.15	1524.97	1.7
0	313.15	1533.93	1.68
0	318.15	1541.33	1.65

System: 2-aminoacetic acid + sodium deoxycholate + water; phases: Liquid
Fixed: Pressure, kPa = 100
Fixed: Solvent: Molality, mol/kg of 2-aminoacetic acid = 0.1
Property: Viscosity, Pa*s (Liquid); method: Capillary tube (Ostwald; Ubbelohde) method
Molality, mol/kg of sodium deoxycholate	Temperature, K	Viscosity, Pa*s	uncertainty
0	293.15	0.001016	2.2e-05
0.001	293.15	0.0010178	2.2e-05
0.002	293.15	0.0010194	2.2e-05
0.003	293.15	0.0010208	2.2e-05
0.004	293.15	0.0010237	2.21e-05
0.005	293.15	0.0010299	2.22e-05
0.006	293.15	0.0010391	2.24e-05
0.007	293.15	0.0010505	2.22e-05
0.009	293.15	0.0010623	2.21e-05
0.011	293.15	0.0010672	2.21e-05
0.013	293.15	0.0010711	2.21e-05
0.015	293.15	0.0010755	2.26e-05
0.017	293.15	0.0010791	2.21e-05
0	298.15	0.0009031	2.17e-05
0.001	298.15	0.0009048	2.16e-05
0.002	298.15	0.0009063	2.16e-05
0.003	298.15	0.0009077	2.16e-05
0.004	298.15	0.0009106	2.17e-05
0.005	298.15	0.0009167	2.19e-05
0.006	298.15	0.0009258	2.21e-05
0.007	298.15	0.0009371	2.19e-05
0.009	298.15	0.0009487	2.18e-05
0.011	298.15	0.0009535	2.18e-05
0.013	298.15	0.0009573	2.18e-05
0.015	298.15	0.0009616	2.18e-05
0.017	298.15	0.0009652	2.19e-05
0	303.15	0.000808	2.13e-05
0.001	303.15	0.0008093	2.13e-05
0.002	303.15	0.0008108	2.13e-05
0.003	303.15	0.0008122	2.13e-05
0.004	303.15	0.000815	2.14e-05
0.005	303.15	0.000821	2.15e-05
0.006	303.15	0.00083	2.17e-05
0.007	303.15	0.0008411	2.15e-05
0.009	303.15	0.0008526	2.14e-05
0.011	303.15	0.0008574	2.14e-05
0.013	303.15	0.0008611	2.14e-05
0.015	303.15	0.0008654	2.14e-05
0.017	303.15	0.0008689	2.15e-05
0	308.15	0.0007271	2.11e-05
0.001	308.15	0.0007288	2.1e-05
0.002	308.15	0.0007302	2.1e-05
0.003	308.15	0.0007316	2.1e-05
0.004	308.15	0.0007344	2.11e-05
0.005	308.15	0.0007404	2.12e-05
0.006	308.15	0.0007492	2.14e-05
0.007	308.15	0.0007602	2.12e-05
0.009	308.15	0.0007715	2.12e-05
0.011	308.15	0.0007762	2.11e-05
0.013	308.15	0.0007799	2.11e-05
0.015	308.15	0.0007841	2.11e-05
0.017	308.15	0.0007875	2.12e-05
0	313.15	0.0006645	2.09e-05
0.001	313.15	0.0006661	2.09e-05
0.002	313.15	0.0006676	2.09e-05
0.003	313.15	0.0006689	2.09e-05
0.004	313.15	0.0006717	2.09e-05
0.005	313.15	0.0006776	2.11e-05
0.006	313.15	0.0006864	2.13e-05
0.007	313.15	0.0006972	2.11e-05
0.009	313.15	0.0007085	2.1e-05
0.011	313.15	0.0007131	2.1e-05
0.013	313.15	0.0007167	2.1e-05
0.015	313.15	0.0007209	2.1e-05
0.017	313.15	0.0007242	2.1e-05
0	318.15	0.0005988	2.08e-05
0.001	318.15	0.0006003	2.08e-05
0.002	318.15	0.0006017	2.08e-05
0.003	318.15	0.000603	2.08e-05
0.004	318.15	0.0006057	2.08e-05
0.005	318.15	0.0006114	2.1e-05
0.006	318.15	0.00062	2.11e-05
0.007	318.15	0.0006305	2.1e-05
0.009	318.15	0.0006414	2.09e-05
0.011	318.15	0.0006459	2.09e-05
0.013	318.15	0.0006494	2.09e-05
0.015	318.15	0.0006535	2.09e-05
0.017	318.15	0.0006567	2.09e-05

System: L-methionine + sodium deoxycholate + water; phases: Liquid
Fixed: Pressure, kPa = 100
Fixed: Solvent: Molality, mol/kg of L-methionine = 0.1
Property: Mass density, kg/m3 (Liquid); method: Vibrating tube method
Molality, mol/kg of sodium deoxycholate	Temperature, K	Mass density, kg/m3	uncertainty
0.001	293.15	1002.943	0.43
0.002	293.15	1003.037	0.429
0.003	293.15	1003.086	0.428
0.004	293.15	1003.127	0.428
0.005	293.15	1003.181	0.428
0.006	293.15	1003.235	0.429
0.007	293.15	1003.307	0.429
0.009	293.15	1003.455	0.458
0.011	293.15	1003.597	0.43
0.013	293.15	1003.743	0.43
0.015	293.15	1003.899	0.429
0.017	293.15	1004.097	0.431
0.001	298.15	1001.731	0.429
0.002	298.15	1001.819	0.428
0.003	298.15	1001.871	0.427
0.004	298.15	1001.911	0.427
0.005	298.15	1001.962	0.427
0.006	298.15	1002.005	0.428
0.007	298.15	1002.085	0.428
0.009	298.15	1002.219	0.428
0.011	298.15	1002.345	0.429
0.013	298.15	1002.506	0.429
0.015	298.15	1002.641	0.429
0.017	298.15	1002.818	0.429
0.001	303.15	1000.312	0.429
0.002	303.15	1000.387	0.427
0.003	303.15	1000.432	0.427
0.004	303.15	1000.486	0.427
0.005	303.15	1000.531	0.427
0.006	303.15	1000.585	0.427
0.007	303.15	1000.655	0.428
0.009	303.15	1000.771	0.428
0.011	303.15	1000.905	0.428
0.013	303.15	1001.058	0.428
0.015	303.15	1001.195	0.428
0.017	303.15	1001.327	0.428
0.001	308.15	998.605	0.429
0.002	308.15	998.668	0.428
0.003	308.15	998.715	0.427
0.004	308.15	998.764	0.427
0.005	308.15	998.809	0.428
0.006	308.15	998.866	0.428
0.007	308.15	998.934	0.428
0.009	308.15	999.045	0.428
0.011	308.15	999.187	0.428
0.013	308.15	999.325	0.428
0.015	308.15	999.487	0.428
0.017	308.15	999.605	0.428
0.001	313.15	996.733	0.429
0.002	313.15	996.789	0.428
0.003	313.15	996.839	0.428
0.004	313.15	996.891	0.428
0.005	313.15	996.935	0.428
0.006	313.15	996.995	0.428
0.007	313.15	997.052	0.428
0.009	313.15	997.175	0.428
0.011	313.15	997.304	0.428
0.013	313.15	997.434	0.429
0.015	313.15	997.608	0.429
0.017	313.15	997.726	0.428
0.001	318.15	994.701	0.429
0.002	318.15	994.754	0.428
0.003	318.15	994.802	0.428
0.004	318.15	994.856	0.428
0.005	318.15	994.905	0.428
0.006	318.15	994.96	0.428
0.007	318.15	995.019	0.428
0.009	318.15	995.116	0.467
0.011	318.15	995.249	0.428
0.013	318.15	995.389	0.428
0.015	318.15	995.541	0.44
0.017	318.15	995.678	0.429
0	293.15	1002.785	0.432
0	298.15	1001.575	0.436
0	303.15	1000.165	0.437
0	308.15	998.461	0.434
0	313.15	996.591	0.434
0	318.15	994.572	0.43

System: L-methionine + sodium deoxycholate + water; phases: Liquid
Fixed: Pressure, kPa = 100
Fixed: Solvent: Molality, mol/kg of L-methionine = 0.1
Fixed: Frequency, MHz = 3
Property: Speed of sound, m/s (Liquid); method: Sing-around technique in a fixed-path interferometer
Molality, mol/kg of sodium deoxycholate	Temperature, K	Speed of sound, m/s	uncertainty
0.001	293.15	1493.34	1.93
0.002	293.15	1493.7	1.93
0.003	293.15	1493.88	1.93
0.004	293.15	1494.15	1.93
0.005	293.15	1494.43	1.93
0.006	293.15	1494.75	1.93
0.007	293.15	1495.04	1.92
0.009	293.15	1495.34	2.94
0.011	293.15	1495.77	1.92
0.013	293.15	1496.05	1.92
0.015	293.15	1496.32	2
0.017	293.15	1496.45	1.92
0.001	298.15	1506.96	1.92
0.002	298.15	1507.33	1.92
0.003	298.15	1507.65	1.92
0.004	298.15	1507.83	1.92
0.005	298.15	1507.89	1.92
0.006	298.15	1508.16	1.92
0.007	298.15	1508.42	1.92
0.009	298.15	1508.71	1.92
0.011	298.15	1509.11	1.92
0.013	298.15	1509.36	1.92
0.015	298.15	1509.69	1.92
0.017	298.15	1509.81	1.92
0.001	303.15	1518.72	1.9
0.002	303.15	1519.03	1.9
0.003	303.15	1519.35	1.9
0.004	303.15	1519.61	1.9
0.005	303.15	1519.75	1.9
0.006	303.15	1519.86	1.9
0.007	303.15	1520.06	1.9
0.009	303.15	1520.35	1.9
0.011	303.15	1520.76	1.9
0.013	303.15	1520.95	1.9
0.015	303.15	1521.29	1.9
0.017	303.15	1521.54	1.9
0.001	308.15	1528.95	1.89
0.002	308.15	1529.25	1.89
0.003	308.15	1529.42	1.89
0.004	308.15	1529.65	1.89
0.005	308.15	1529.79	1.89
0.006	308.15	1530	1.89
0.007	308.15	1530.15	1.89
0.009	308.15	1530.45	1.89
0.011	308.15	1530.8	1.89
0.013	308.15	1530.99	1.89
0.015	308.15	1531.34	1.89
0.017	308.15	1531.51	1.89
0.001	313.15	1537.45	1.88
0.002	313.15	1537.69	1.88
0.003	313.15	1537.89	1.88
0.004	313.15	1538.07	1.88
0.005	313.15	1538.27	1.88
0.006	313.15	1538.51	1.88
0.007	313.15	1538.69	1.88
0.009	313.15	1538.95	1.88
0.011	313.15	1539.2	1.88
0.013	313.15	1539.48	1.88
0.015	313.15	1539.74	1.88
0.017	313.15	1539.97	1.88
0.001	318.15	1544.57	1.88
0.002	318.15	1544.92	1.88
0.003	318.15	1545.17	1.88
0.004	318.15	1545.34	1.88
0.005	318.15	1545.52	1.88
0.006	318.15	1545.69	1.88
0.007	318.15	1545.77	1.88
0.009	318.15	1546.02	2.11
0.011	318.15	1546.39	1.88
0.013	318.15	1546.48	1.87
0.015	318.15	1546.73	1.96
0.017	318.15	1546.95	1.87
0	293.15	1493	1.93
0	298.15	1506.65	1.95
0	303.15	1518.45	1.93
0	308.15	1528.65	1.92
0	313.15	1537.05	1.91
0	318.15	1544.18	1.88

System: L-methionine + sodium deoxycholate + water; phases: Liquid
Fixed: Pressure, kPa = 100
Fixed: Solvent: Molality, mol/kg of L-methionine = 0.1
Property: Viscosity, Pa*s (Liquid); method: Capillary tube (Ostwald; Ubbelohde) method
Molality, mol/kg of sodium deoxycholate	Temperature, K	Viscosity, Pa*s	uncertainty
0	293.15	0.0010339	2.25e-05
0.001	293.15	0.0010362	2.25e-05
0.002	293.15	0.0010383	2.25e-05
0.003	293.15	0.0010401	2.26e-05
0.004	293.15	0.001043	2.27e-05
0.005	293.15	0.0010531	2.29e-05
0.006	293.15	0.0010608	2.28e-05
0.007	293.15	0.001067	2.27e-05
0.009	293.15	0.0010764	2.31e-05
0.011	293.15	0.0010823	2.27e-05
0.013	293.15	0.0010879	2.27e-05
0.015	293.15	0.0010951	2.27e-05
0.017	293.15	0.001102	2.28e-05
0	298.15	0.00092	2.21e-05
0.001	298.15	0.0009224	2.21e-05
0.002	298.15	0.0009245	2.21e-05
0.003	298.15	0.0009263	2.21e-05
0.004	298.15	0.0009292	2.22e-05
0.005	298.15	0.0009392	2.24e-05
0.006	298.15	0.0009468	2.23e-05
0.007	298.15	0.0009531	2.22e-05
0.009	298.15	0.0009623	2.22e-05
0.011	298.15	0.0009681	2.22e-05
0.013	298.15	0.0009737	2.23e-05
0.015	298.15	0.0009809	2.23e-05
0.017	298.15	0.0009877	2.25e-05
0	303.15	0.0008289	2.16e-05
0.001	303.15	0.0008317	2.17e-05
0.002	303.15	0.000834	2.17e-05
0.003	303.15	0.0008362	2.17e-05
0.004	303.15	0.0008391	2.18e-05
0.005	303.15	0.0008484	2.2e-05
0.006	303.15	0.000856	2.19e-05
0.007	303.15	0.0008622	2.18e-05
0.009	303.15	0.0008714	2.18e-05
0.011	303.15	0.0008772	2.18e-05
0.013	303.15	0.0008828	2.19e-05
0.015	303.15	0.0008899	2.19e-05
0.017	303.15	0.0008967	2.19e-05
0	308.15	0.0007461	2.14e-05
0.001	308.15	0.0007486	2.14e-05
0.002	308.15	0.000751	2.14e-05
0.003	308.15	0.0007531	2.14e-05
0.004	308.15	0.000756	2.15e-05
0.005	308.15	0.0007652	2.17e-05
0.006	308.15	0.0007727	2.16e-05
0.007	308.15	0.0007789	2.15e-05
0.009	308.15	0.000788	2.15e-05
0.011	308.15	0.0007937	2.15e-05
0.013	308.15	0.0007992	2.15e-05
0.015	308.15	0.0008063	2.16e-05
0.017	308.15	0.000813	2.17e-05
0	313.15	0.0006799	2.12e-05
0.001	313.15	0.0006828	2.12e-05
0.002	313.15	0.0006851	2.12e-05
0.003	313.15	0.0006873	2.12e-05
0.004	313.15	0.0006901	2.13e-05
0.005	313.15	0.0006992	2.14e-05
0.006	313.15	0.0007067	2.14e-05
0.007	313.15	0.0007127	2.13e-05
0.009	313.15	0.0007218	2.13e-05
0.011	313.15	0.0007274	2.13e-05
0.013	313.15	0.0007329	2.13e-05
0.015	313.15	0.0007398	2.13e-05
0.017	313.15	0.0007464	2.13e-05
0	318.15	0.0006105	2.1e-05
0.001	318.15	0.0006124	2.1e-05
0.002	318.15	0.0006146	2.1e-05
0.003	318.15	0.0006167	2.1e-05
0.004	318.15	0.0006194	2.11e-05
0.005	318.15	0.0006283	2.13e-05
0.006	318.15	0.0006355	2.12e-05
0.007	318.15	0.0006414	2.11e-05
0.009	318.15	0.0006501	2.13e-05
0.011	318.15	0.0006556	2.11e-05
0.013	318.15	0.0006609	2.11e-05
0.015	318.15	0.0006676	2.11e-05
0.017	318.15	0.0006741	2.12e-05

System: L-leucine + sodium deoxycholate + water; phases: Liquid
Fixed: Pressure, kPa = 100
Fixed: Solvent: Molality, mol/kg of L-leucine = 0.1
Property: Mass density, kg/m3 (Liquid); method: Vibrating tube method
Molality, mol/kg of sodium deoxycholate	Temperature, K	Mass density, kg/m3	uncertainty
0.001	293.15	1000.935	0.265
0.002	293.15	1001.009	0.263
0.003	293.15	1001.063	0.263
0.004	293.15	1001.113	0.263
0.005	293.15	1001.167	0.262
0.006	293.15	1001.205	0.263
0.007	293.15	1001.272	0.263
0.009	293.15	1001.407	0.27
0.011	293.15	1001.542	0.263
0.013	293.15	1001.672	0.264
0.015	293.15	1001.845	0.265
0.017	293.15	1001.999	0.265
0.001	298.15	999.707	0.265
0.002	298.15	999.772	0.263
0.003	298.15	999.821	0.262
0.004	298.15	999.875	0.263
0.005	298.15	999.924	0.262
0.006	298.15	999.971	0.263
0.007	298.15	1000.033	0.263
0.009	298.15	1000.15	0.263
0.011	298.15	1000.3	0.264
0.013	298.15	1000.421	0.263
0.015	298.15	1000.545	0.264
0.017	298.15	1000.702	0.263
0.001	303.15	998.269	0.267
0.002	303.15	998.321	0.264
0.003	303.15	998.369	0.264
0.004	303.15	998.415	0.264
0.005	303.15	998.453	0.264
0.006	303.15	998.507	0.265
0.007	303.15	998.571	0.265
0.009	303.15	998.677	0.264
0.011	303.15	998.794	0.265
0.013	303.15	998.91	0.265
0.015	303.15	999.055	0.265
0.017	303.15	999.2	0.264
0.001	308.15	996.619	0.268
0.002	308.15	996.669	0.266
0.003	308.15	996.715	0.266
0.004	308.15	996.752	0.266
0.005	308.15	996.793	0.267
0.006	308.15	996.853	0.267
0.007	308.15	996.905	0.267
0.009	308.15	997.021	0.267
0.011	308.15	997.118	0.267
0.013	308.15	997.252	0.267
0.015	308.15	997.404	0.268
0.017	308.15	997.54	0.266
0.001	313.15	994.689	0.272
0.002	313.15	994.741	0.27
0.003	313.15	994.793	0.27
0.004	313.15	994.825	0.27
0.005	313.15	994.863	0.27
0.006	313.15	994.924	0.27
0.007	313.15	994.978	0.271
0.009	313.15	995.086	0.27
0.011	313.15	995.191	0.27
0.013	313.15	995.302	0.27
0.015	313.15	995.408	0.271
0.017	313.15	995.574	0.27
0.001	318.15	992.409	0.274
0.002	318.15	992.465	0.272
0.003	318.15	992.508	0.272
0.004	318.15	992.543	0.272
0.005	318.15	992.587	0.272
0.006	318.15	992.645	0.272
0.007	318.15	992.689	0.272
0.009	318.15	992.795	0.272
0.011	318.15	992.898	0.272
0.013	318.15	993.007	0.273
0.015	318.15	993.113	0.285
0.017	318.15	993.21	0.273
0	293.15	1000.793	0.267
0	298.15	999.575	0.275
0	303.15	998.115	0.276
0	308.15	996.485	0.281
0	313.15	994.559	0.286
0	318.15	992.305	0.274

System: L-leucine + sodium deoxycholate + water; phases: Liquid
Fixed: Pressure, kPa = 100
Fixed: Solvent: Molality, mol/kg of L-leucine = 0.1
Fixed: Frequency, MHz = 3
Property: Speed of sound, m/s (Liquid); method: Sing-around technique in a fixed-path interferometer
Molality, mol/kg of sodium deoxycholate	Temperature, K	Speed of sound, m/s	uncertainty
0.001	293.15	1495.23	1.7
0.002	293.15	1495.53	1.7
0.003	293.15	1495.74	1.7
0.004	293.15	1495.89	1.7
0.005	293.15	1496.05	1.7
0.006	293.15	1496.27	1.7
0.007	293.15	1496.47	1.7
0.009	293.15	1496.89	1.77
0.011	293.15	1497.35	1.7
0.013	293.15	1497.73	1.7
0.015	293.15	1498.19	1.79
0.017	293.15	1498.58	1.7
0.001	298.15	1508.58	1.69
0.002	298.15	1508.85	1.69
0.003	298.15	1509.11	1.69
0.004	298.15	1509.35	1.69
0.005	298.15	1509.57	1.69
0.006	298.15	1509.8	1.69
0.007	298.15	1510.01	1.69
0.009	298.15	1510.47	1.69
0.011	298.15	1510.91	1.69
0.013	298.15	1511.33	1.69
0.015	298.15	1511.77	1.69
0.017	298.15	1512.22	1.69
0.001	303.15	1520.39	1.67
0.002	303.15	1520.63	1.67
0.003	303.15	1520.85	1.67
0.004	303.15	1521.03	1.67
0.005	303.15	1521.23	1.67
0.006	303.15	1521.43	1.67
0.007	303.15	1521.65	1.67
0.009	303.15	1522.11	1.67
0.011	303.15	1522.49	1.67
0.013	303.15	1522.87	1.67
0.015	303.15	1523.25	1.67
0.017	303.15	1523.66	1.67
0.001	308.15	1530.45	1.66
0.002	308.15	1530.65	1.66
0.003	308.15	1530.81	1.66
0.004	308.15	1530.98	1.66
0.005	308.15	1531.16	1.66
0.006	308.15	1531.34	1.66
0.007	308.15	1531.51	1.66
0.009	308.15	1531.85	1.66
0.011	308.15	1532.21	1.66
0.013	308.15	1532.55	1.66
0.015	308.15	1532.88	1.65
0.017	308.15	1533.18	1.65
0.001	313.15	1539.16	1.65
0.002	313.15	1539.41	1.65
0.003	313.15	1539.57	1.65
0.004	313.15	1539.62	1.65
0.005	313.15	1539.73	1.65
0.006	313.15	1539.83	1.65
0.007	313.15	1539.95	1.65
0.009	313.15	1540.27	1.65
0.011	313.15	1540.6	1.65
0.013	313.15	1540.9	1.65
0.015	313.15	1541.22	1.65
0.017	313.15	1541.59	1.64
0.001	318.15	1546.24	1.64
0.002	318.15	1546.4	1.64
0.003	318.15	1546.54	1.64
0.004	318.15	1546.65	1.64
0.005	318.15	1546.77	1.64
0.006	318.15	1546.93	1.64
0.007	318.15	1547.1	1.64
0.009	318.15	1547.35	1.9
0.011	318.15	1547.69	1.64
0.013	318.15	1547.9	1.64
0.015	318.15	1548.17	1.64
0.017	318.15	1548.45	1.64
0	293.15	1494.87	1.7
0	298.15	1508.3	1.72
0	303.15	1520.2	1.7
0	308.15	1530.27	1.68
0	313.15	1538.84	1.68
0	318.15	1545.9	1.65

System: L-leucine + sodium deoxycholate + water; phases: Liquid
Fixed: Pressure, kPa = 100
Fixed: Solvent: Molality, mol/kg of L-leucine = 0.1
Property: Viscosity, Pa*s (Liquid); method: Capillary tube (Ostwald; Ubbelohde) method
Molality, mol/kg of sodium deoxycholate	Temperature, K	Viscosity, Pa*s	uncertainty
0	293.15	0.0010603	2.22e-05
0.001	293.15	0.0010623	2.22e-05
0.002	293.15	0.0010644	2.22e-05
0.003	293.15	0.0010663	2.22e-05
0.004	293.15	0.001072	2.24e-05
0.005	293.15	0.0010802	2.24e-05
0.006	293.15	0.0010872	2.24e-05
0.007	293.15	0.0010936	2.23e-05
0.009	293.15	0.0011031	2.79e-05
0.011	293.15	0.0011108	2.23e-05
0.013	293.15	0.0011158	2.23e-05
0.015	293.15	0.0011206	2.29e-05
0.017	293.15	0.0011246	2.23e-05
0	298.15	0.0009398	2.18e-05
0.001	298.15	0.0009416	2.18e-05
0.002	298.15	0.0009436	2.18e-05
0.003	298.15	0.0009455	2.18e-05
0.004	298.15	0.0009511	2.2e-05
0.005	298.15	0.0009592	2.2e-05
0.006	298.15	0.0009662	2.2e-05
0.007	298.15	0.0009724	2.19e-05
0.009	298.15	0.0009818	2.19e-05
0.011	298.15	0.0009895	2.19e-05
0.013	298.15	0.0009943	2.19e-05
0.015	298.15	0.000999	2.19e-05
0.017	298.15	0.001003	2.2e-05
0	303.15	0.0008362	2.15e-05
0.001	303.15	0.0008379	2.14e-05
0.002	303.15	0.0008399	2.14e-05
0.003	303.15	0.0008417	2.15e-05
0.004	303.15	0.0008473	2.16e-05
0.005	303.15	0.0008553	2.16e-05
0.006	303.15	0.0008622	2.16e-05
0.007	303.15	0.0008684	2.15e-05
0.009	303.15	0.0008776	2.16e-05
0.011	303.15	0.0008851	2.15e-05
0.013	303.15	0.0008899	2.15e-05
0.015	303.15	0.0008945	2.15e-05
0.017	303.15	0.0008985	2.16e-05
0	308.15	0.0007509	2.11e-05
0.001	308.15	0.0007527	2.11e-05
0.002	308.15	0.0007547	2.11e-05
0.003	308.15	0.0007565	2.12e-05
0.004	308.15	0.0007619	2.13e-05
0.005	308.15	0.0007699	2.13e-05
0.006	308.15	0.0007766	2.13e-05
0.007	308.15	0.0007827	2.12e-05
0.009	308.15	0.0007919	2.13e-05
0.011	308.15	0.0007993	2.12e-05
0.013	308.15	0.0008041	2.12e-05
0.015	308.15	0.0008086	2.12e-05
0.017	308.15	0.0008124	2.13e-05
0	313.15	0.0006801	2.1e-05
0.001	313.15	0.0006819	2.1e-05
0.002	313.15	0.0006839	2.1e-05
0.003	313.15	0.0006857	2.1e-05
0.004	313.15	0.0006911	2.11e-05
0.005	313.15	0.0006989	2.12e-05
0.006	313.15	0.0007057	2.12e-05
0.007	313.15	0.0007117	2.11e-05
0.009	313.15	0.0007207	2.11e-05
0.011	313.15	0.0007281	2.11e-05
0.013	313.15	0.0007328	2.11e-05
0.015	313.15	0.0007372	2.11e-05
0.017	313.15	0.000741	2.11e-05
0	318.15	0.0006014	2.08e-05
0.001	318.15	0.000603	2.08e-05
0.002	318.15	0.0006048	2.08e-05
0.003	318.15	0.0006065	2.09e-05
0.004	318.15	0.0006117	2.1e-05
0.005	318.15	0.0006192	2.11e-05
0.006	318.15	0.0006257	2.1e-05
0.007	318.15	0.0006314	2.1e-05
0.009	318.15	0.00064	2.1e-05
0.011	318.15	0.0006471	2.1e-05
0.013	318.15	0.0006516	2.09e-05
0.015	318.15	0.0006558	2.14e-05
0.017	318.15	0.0006594	2.1e-05

System: L-histidine + water; phases: Liquid
Fixed: Pressure, kPa = 100
Fixed: Molality, mol/kg of L-histidine = 0.1
Property: Mass density, kg/m3 (Liquid); method: Vibrating tube method
Temperature, K	Mass density, kg/m3	uncertainty
293.15	1003.99	0.271
298.15	1002.805	0.278
303.15	1001.329	0.276
308.15	999.656	0.277
313.15	997.795	0.278
318.15	995.765	0.273

System: L-histidine + water; phases: Liquid
Fixed: Pressure, kPa = 100
Fixed: Molality, mol/kg of L-histidine = 0.1
Fixed: Frequency, MHz = 3
Property: Speed of sound, m/s (Liquid); method: Sing-around technique in a fixed-path interferometer
Temperature, K	Speed of sound, m/s	uncertainty
293.15	1491.85	1.7
298.15	1505.32	1.73
303.15	1517.41	1.73
308.15	1527.61	1.7
313.15	1536.35	1.69
318.15	1543.75	1.65

System: L-histidine + water; phases: Liquid
Fixed: Pressure, kPa = 100
Fixed: Molality, mol/kg of L-histidine = 0.1
Property: Viscosity, Pa*s (Liquid); method: Capillary tube (Ostwald; Ubbelohde) method
Temperature, K	Viscosity, Pa*s	uncertainty
293.15	0.0010516	2.21e-05
298.15	0.000928	2.19e-05
303.15	0.0008289	2.14e-05
308.15	0.0007447	2.12e-05
313.15	0.0006783	2.12e-05
318.15	0.0005915	2.09e-05

System: 2-aminoacetic acid + water; phases: Liquid
Fixed: Pressure, kPa = 100
Fixed: Molality, mol/kg of 2-aminoacetic acid = 0.1
Property: Mass density, kg/m3 (Liquid); method: Vibrating tube method
Temperature, K	Mass density, kg/m3	uncertainty
293.15	1001.515	0.267
298.15	1000.322	0.274
303.15	998.885	0.276
308.15	997.231	0.277
313.15	995.401	0.277
318.15	993.385	0.272

System: 2-aminoacetic acid + water; phases: Liquid
Fixed: Pressure, kPa = 100
Fixed: Molality, mol/kg of 2-aminoacetic acid = 0.1
Fixed: Frequency, MHz = 3
Property: Speed of sound, m/s (Liquid); method: Sing-around technique in a fixed-path interferometer
Temperature, K	Speed of sound, m/s	uncertainty
293.15	1488.2	1.71
298.15	1502.2	1.73
303.15	1514.42	1.71
308.15	1524.97	1.69
313.15	1533.93	1.68
318.15	1541.33	1.65

System: 2-aminoacetic acid + water; phases: Liquid
Fixed: Pressure, kPa = 100
Fixed: Molality, mol/kg of 2-aminoacetic acid = 0.1
Property: Viscosity, Pa*s (Liquid); method: Capillary tube (Ostwald; Ubbelohde) method
Temperature, K	Viscosity, Pa*s	uncertainty
293.15	0.001016	2.2e-05
298.15	0.0009031	2.17e-05
303.15	0.000808	2.13e-05
308.15	0.0007271	2.11e-05
313.15	0.0006645	2.09e-05
318.15	0.0005988	2.07e-05

System: L-methionine + water; phases: Liquid
Fixed: Pressure, kPa = 100
Fixed: Molality, mol/kg of L-methionine = 0.1
Property: Mass density, kg/m3 (Liquid); method: Vibrating tube method
Temperature, K	Mass density, kg/m3	uncertainty
293.15	1002.785	0.431
298.15	1001.575	0.434
303.15	1000.165	0.436
308.15	998.461	0.433
313.15	996.591	0.433
318.15	994.572	0.43

System: L-methionine + water; phases: Liquid
Fixed: Pressure, kPa = 100
Fixed: Molality, mol/kg of L-methionine = 0.1
Fixed: Frequency, MHz = 3
Property: Speed of sound, m/s (Liquid); method: Sing-around technique in a fixed-path interferometer
Temperature, K	Speed of sound, m/s	uncertainty
293.15	1493	1.93
298.15	1506.65	1.96
303.15	1518.45	1.94
308.15	1528.65	1.92
313.15	1537.05	1.91
318.15	1544.18	1.89

System: L-methionine + water; phases: Liquid
Fixed: Pressure, kPa = 100
Fixed: Molality, mol/kg of L-methionine = 0.1
Property: Viscosity, Pa*s (Liquid); method: Capillary tube (Ostwald; Ubbelohde) method
Temperature, K	Viscosity, Pa*s	uncertainty
293.15	0.0010339	2.25e-05
298.15	0.00092	2.22e-05
303.15	0.0008289	2.17e-05
308.15	0.0007461	2.14e-05
313.15	0.0006799	2.11e-05
318.15	0.0006105	2.1e-05

System: L-leucine + water; phases: Liquid
Fixed: Pressure, kPa = 100
Fixed: Molality, mol/kg of L-leucine = 0.1
Property: Mass density, kg/m3 (Liquid); method: Vibrating tube method
Temperature, K	Mass density, kg/m3	uncertainty
293.15	1000.793	0.266
298.15	999.575	0.274
303.15	998.115	0.275
308.15	996.485	0.281
313.15	994.559	0.287
318.15	992.305	0.275

System: L-leucine + water; phases: Liquid
Fixed: Pressure, kPa = 100
Fixed: Molality, mol/kg of L-leucine = 0.1
Fixed: Frequency, MHz = 3
Property: Speed of sound, m/s (Liquid); method: Sing-around technique in a fixed-path interferometer
Temperature, K	Speed of sound, m/s	uncertainty
293.15	1494.87	1.71
298.15	1508.3	1.73
303.15	1520.2	1.71
308.15	1530.27	1.7
313.15	1538.84	1.68
318.15	1545.9	1.65

System: L-leucine + water; phases: Liquid
Fixed: Pressure, kPa = 100
Fixed: Molality, mol/kg of L-leucine = 0.1
Property: Viscosity, Pa*s (Liquid); method: Capillary tube (Ostwald; Ubbelohde) method
Temperature, K	Viscosity, Pa*s	uncertainty
293.15	0.0010603	2.21e-05
298.15	0.0009398	2.19e-05
303.15	0.0008362	2.15e-05
308.15	0.0007509	2.12e-05
313.15	0.0006801	2.1e-05
318.15	0.0006014	2.08e-05
