Measured thermophysical data. Selective interactions of 18-crown-6 with d-glucose and d-galactose in aqueous solutions: Titration calorimetry, densimetry, viscosimetry
Source: Thermochim. Acta, 2005, 10.1016/j.tca.2005.05.002
Compound 1: 1,4,7,10,13,16-hexaoxacyclooctadecane, C12H24O6, InChI=1S/C12H24O6/c1-2-14-5-6-16-9-10-18-12-11-17-8-7-15-4-3-13-1/h1-12H2, purity 98%
Compound 2: D-glucose, C6H12O6, InChI=1S/C6H12O6/c7-1-3(9)5(11)6(12)4(10)2-8/h1,3-6,8-12H,2H2/t3-,4+,5+,6+/m0/s1, purity 99%
Compound 3: (+)-galactose, C6H12O6, InChI=1S/C6H12O6/c7-1-3(9)5(11)6(12)4(10)2-8/h1,3-6,8-12H,2H2/t3-,4+,5+,6-/m0/s1, purity 99%
Compound 4: water, H2O, InChI=1S/H2O/h1H2

System: D-glucose + water + 1,4,7,10,13,16-hexaoxacyclooctadecane; phases: Liquid
Fixed: Temperature, K = 298.15
Fixed: Pressure, kPa = 101
Property: Viscosity, Pa*s (Liquid); method: Capillary tube (Ostwald; Ubbelohde) method
Molality, mol/kg of 1,4,7,10,13,16-hexaoxacyclooctadecane	Molality, mol/kg of D-glucose	Viscosity, Pa*s	uncertainty
0	0	0.0008937	5.6e-06
0	0.01516	0.0008996	5.6e-06
0	0.02007	0.0009007	5.6e-06
0	0.02498	0.0009038	5.7e-06
0	0.03023	0.0009065	5.7e-06
0	0.04002	0.0009099	5.7e-06
0	0.04513	0.0009121	5.7e-06
0	0.05024	0.0009142	5.7e-06
0	0.05822	0.0009172	5.7e-06
0	0.0701	0.0009223	5.8e-06
0	0.08114	0.0009269	5.8e-06
0.040102	0	0.0009225	5.8e-06
0.040102	0.01681	0.0009301	5.8e-06
0.040102	0.01998	0.0009317	5.8e-06
0.040102	0.0251	0.0009343	5.8e-06
0.040102	0.03002	0.0009359	5.8e-06
0.040102	0.03498	0.0009387	5.8e-06
0.040102	0.04002	0.000941	5.9e-06
0.040102	0.04895	0.0009452	5.9e-06
0.040102	0.05752	0.0009486	5.9e-06
0.040102	0.06303	0.0009508	5.9e-06
0.040102	0.07055	0.0009536	5.9e-06
0.040102	0.08013	0.0009576	5.9e-06

System: D-glucose + water + 1,4,7,10,13,16-hexaoxacyclooctadecane; phases: Liquid
Fixed: Temperature, K = 298.15
Fixed: Pressure, kPa = 101
Property: Mass density, kg/m3 (Liquid); method: BUOYAN
Molality, mol/kg of 1,4,7,10,13,16-hexaoxacyclooctadecane	Molality, mol/kg of D-glucose	Mass density, kg/m3	uncertainty
0	0	997.04	0.08
0	0.01516	998.07	0.08
0	0.02007	998.43	0.07
0	0.02498	998.75	0.07
0	0.03023	999.12	0.07
0	0.04002	999.77	0.08
0	0.04513	1000.13	0.08
0	0.05024	1000.49	0.08
0	0.05822	1001.03	0.08
0	0.0701	1001.83	0.08
0	0.08114	1002.6	0.08
0.040102	0	998.71	0.09
0.040102	0.01681	999.87	0.09
0.040102	0.01998	1000.09	0.09
0.040102	0.0251	1000.44	0.09
0.040102	0.03002	1000.77	0.09
0.040102	0.03498	1001.12	0.09
0.040102	0.04002	1001.46	0.09
0.040102	0.04895	1002.08	0.09
0.040102	0.05752	1002.65	0.09
0.040102	0.06303	1003.02	0.09
0.040102	0.07055	1003.55	0.09
0.040102	0.08013	1004.15	0.09

System: (+)-galactose + water + 1,4,7,10,13,16-hexaoxacyclooctadecane; phases: Liquid
Fixed: Temperature, K = 298.15
Fixed: Pressure, kPa = 101
Property: Viscosity, Pa*s (Liquid); method: Capillary tube (Ostwald; Ubbelohde) method
Molality, mol/kg of 1,4,7,10,13,16-hexaoxacyclooctadecane	Molality, mol/kg of (+)-galactose	Viscosity, Pa*s	uncertainty
0	0	0.0008937	5.6e-06
0	0.01648	0.0009005	5.6e-06
0	0.01994	0.0009017	5.6e-06
0	0.02502	0.0009036	5.7e-06
0	0.0299	0.0009058	5.7e-06
0	0.03503	0.0009076	5.7e-06
0	0.04986	0.0009134	5.7e-06
0	0.05474	0.0009154	5.7e-06
0	0.06103	0.0009181	5.7e-06
0	0.0701	0.0009212	5.7e-06
0	0.08003	0.0009252	5.8e-06
0.039965	0	0.0009225	5.8e-06
0.039965	0.01495	0.0009293	5.8e-06
0.039965	0.0198	0.0009312	5.8e-06
0.039965	0.02513	0.000933	5.8e-06
0.039965	0.03031	0.0009347	5.8e-06
0.039965	0.0349	0.0009366	5.8e-06
0.039965	0.04011	0.0009381	5.8e-06
0.039965	0.04492	0.0009396	5.8e-06
0.039965	0.05026	0.0009436	5.9e-06
0.039965	0.05548	0.0009461	5.9e-06
0.039965	0.06064	0.0009485	5.9e-06
0.039965	0.07012	0.000952	5.9e-06
0.039965	0.08029	0.0009555	5.9e-06

System: (+)-galactose + water + 1,4,7,10,13,16-hexaoxacyclooctadecane; phases: Liquid
Fixed: Temperature, K = 298.15
Fixed: Pressure, kPa = 101
Property: Mass density, kg/m3 (Liquid); method: BUOYAN
Molality, mol/kg of 1,4,7,10,13,16-hexaoxacyclooctadecane	Molality, mol/kg of (+)-galactose	Mass density, kg/m3	uncertainty
0	0	997.04	0.08
0	0.01648	998.17	0.08
0	0.01994	998.43	0.08
0	0.02502	998.78	0.08
0	0.0299	999.12	0.08
0	0.03503	999.48	0.08
0	0.04986	1000.5	0.08
0	0.05474	1000.82	0.08
0	0.06103	1001.25	0.08
0	0.0701	1001.9	0.09
0	0.08003	1002.55	0.08
0.039965	0	998.71	0.09
0.039965	0.01495	999.74	0.09
0.039965	0.0198	1000.08	0.09
0.039965	0.02513	1000.47	0.09
0.039965	0.03031	1000.84	0.09
0.039965	0.0349	1001.18	0.09
0.039965	0.04011	1001.57	0.09
0.039965	0.04492	1001.89	0.09
0.039965	0.05026	1002.26	0.09
0.039965	0.05548	1002.6	0.09
0.039965	0.06064	1002.94	0.09
0.039965	0.07012	1003.6	0.09
0.039965	0.08029	1004.29	0.09
