Measured thermophysical data. D2O-H2O solvent isotope effects on the enthalpy of 1,3-  dimethylpropyleneurea hydration at temperatures from  (278.15 to 313.15) K and atmospheric pressure
Source: Thermochim. Acta, 2011, 10.1016/j.tca.2010.11.025
Compound 1: 1,3-dimethyl-3,4,5,6-tetrahydro-2(1H)-pyrimidinone, C6H12N2O, InChI=1S/C6H12N2O/c1-7-4-3-5-8(2)6(7)9/h3-5H2,1-2H3
Compound 2: water, H2O, InChI=1S/H2O/h1H2
Compound 3: water-d2, D2O, InChI=1S/H2O/h1H2/i/hD2

System: 1,3-dimethyl-3,4,5,6-tetrahydro-2(1H)-pyrimidinone; phases: Liquid
Property: Refractive index (Na D-line) (Liquid); method: Standard Abbe refractometry
Temperature, K	Pressure, kPa	Refractive index (Na D-line)	uncertainty
298.15	101.325	1.4878	0.0007

System: 1,3-dimethyl-3,4,5,6-tetrahydro-2(1H)-pyrimidinone; phases: Liquid
Property: Mass density, kg/m3 (Liquid); method: Pycnometric method
Temperature, K	Pressure, kPa	Mass density, kg/m3	uncertainty
298.15	101.325	1060.06	0.96

System: 1,3-dimethyl-3,4,5,6-tetrahydro-2(1H)-pyrimidinone + water-d2; phases: Liquid
Fixed: Pressure, kPa = 101
Property: Molar enthalpy of solution, kJ/mol (Liquid); method: ISOPERIBOL
Temperature, K	Molality, mol/kg of 1,3-dimethyl-3,4,5,6-tetrahydro-2(1H)-pyrimidinone	Molar enthalpy of solution, kJ/mol	uncertainty
278.15	0.0185	-27.35	0.23
283.15	0.0201	-26.4	0.26
288.15	0.0174	-25.47	0.22
298.15	0.0189	-23.52	0.19
313.15	0.0256	-20.61	0.2

System: 1,3-dimethyl-3,4,5,6-tetrahydro-2(1H)-pyrimidinone + water; phases: Liquid
Fixed: Pressure, kPa = 101
Property: Molar enthalpy of solution, kJ/mol (Liquid); method: ISOPERIBOL
Temperature, K	Molality, mol/kg of 1,3-dimethyl-3,4,5,6-tetrahydro-2(1H)-pyrimidinone	Molar enthalpy of solution, kJ/mol	uncertainty
278.15	0.0197	-26.41	0.22
283.15	0.0226	-25.52	0.23
288.15	0.0201	-24.61	0.2
298.15	0.0252	-22.87	0.18
313.15	0.021	-20.22	12.32
