Measured thermophysical data. Studies on the thermal behaviour and safety of a novel thermostable explosive 5,5',6,6'-tetranitro-2,2'-bibenzimidazole
Source: Thermochim. Acta, 2018, 10.1016/j.tca.2018.08.019
Compound 1: 5,5',6,6'-tetranitro-1H,1'H-2,2'-bibenzo[d]imidazole, C14H6N8O8, InChI=1S/C14H6N8O8/c23-19(24)9-1-5-6(2-10(9)20(25)26)16-13(15-5)14-17-7-3-11(21(27)28)12(22(29)30)4-8(7)18-14/h1-4H,(H,15,16)(H,17,18)

System: 5,5',6,6'-tetranitro-1H,1'H-2,2'-bibenzo[d]imidazole; phases: Crystal 2, Crystal 1, Air at 1 atmosphere
Property: Triple point temperature, K (Crystal 2); method: DSC
Triple point temperature, K	uncertainty
469.65	2.1

System: 5,5',6,6'-tetranitro-1H,1'H-2,2'-bibenzo[d]imidazole; phases: Crystal 2, Crystal 1, Air at 1 atmosphere
Property: Molar enthalpy of transition or fusion, kJ/mol (Crystal 2); method: DSC
Molar enthalpy of transition or fusion, kJ/mol	uncertainty
10.231890032	1.946958832

System: 5,5',6,6'-tetranitro-1H,1'H-2,2'-bibenzo[d]imidazole; phases: Crystal 2
Fixed: Pressure, kPa = 101.325
Property: Molar heat capacity at constant pressure, J/K/mol (Crystal 2); method: DSC
Temperature, K	Molar heat capacity at constant pressure, J/K/mol	uncertainty
213.15	299.50026288	14.91287616
233.15	324.35505648	16.15561584
253.15	349.20985008	17.39835552
273.15	374.06464368	18.6410952
293.15	399.33368384	19.88383488
313.15	425.01697056	21.12657456
333.15	450.70025728	22.36931424
353.15	476.79779056	24.02630048
373.15	503.3095704	25.26904016
393.15	529.82135024	26.51177984
413.15	556.33313008	27.75451952
433.15	583.67340304	28.9972592
443.15	596.92929296	29.82575232

System: 5,5',6,6'-tetranitro-1H,1'H-2,2'-bibenzo[d]imidazole; phases: Crystal 1
Fixed: Pressure, kPa = 101.325
Property: Molar heat capacity at constant pressure, J/K/mol (Crystal 1); method: DSC
Temperature, K	Molar heat capacity at constant pressure, J/K/mol	uncertainty
533.15	654.09531824	32.72547824
543.15	654.92381136	32.72547824
553.15	656.16655104	32.72547824
563.15	657.40929072	32.72547824
573.15	659.06627696	33.1397248
583.15	661.55175632	33.1397248
