Measured thermophysical data. Novel measurement of isobaric specific heat capacity for kerosene RP-3 at high temperature and high pressure
Source: Thermochim. Acta, 2016, 10.1016/j.tca.2016.06.015
Compound 1: water, H2O, InChI=1S/H2O/h1H2, purity 99.8%
Compound 2: decane, C10H22, InChI=1S/C10H22/c1-3-5-7-9-10-8-6-4-2/h3-10H2,1-2H3, purity 99%

System: water; phases: Liquid
Fixed: Pressure, kPa = 3000
Property: Molar heat capacity at constant pressure, J/K/mol (Liquid); method: Flow calorimetry
Temperature, K	Molar heat capacity at constant pressure, J/K/mol	uncertainty
305.9	77.2855512	4.8641256
315.6	72.961884	4.6839728
325.4	73.1420368	4.6839728
335.8	76.56494	4.8641256
345.8	74.5832592	4.6839728
354	78.0061624	5.0442784
366.2	74.2229536	4.6839728
381.2	77.6458568	5.0442784
394.4	74.5832592	4.6839728
407.3	76.2046344	4.8641256
419.9	76.3847872	4.8641256
433.9	76.0244816	4.8641256

System: decane; phases: Liquid
Fixed: Pressure, kPa = 4000
Property: Molar heat capacity at constant pressure, J/K/mol (Liquid); method: Flow calorimetry
Temperature, K	Molar heat capacity at constant pressure, J/K/mol	uncertainty
305.7	293.1002608	18.4966184
316.2	305.905612	19.9194352
326.5	304.4827952	19.9194352
335.3	315.8653296	19.9194352
344	324.4022304	21.342252
354.1	322.9794136	19.9194352
366.8	327.247864	21.342252
377.6	340.0532152	21.342252
389.8	335.7847648	21.342252
401.5	344.3216656	21.342252
423.6	361.3954672	22.7650688
432.6	367.0867344	22.7650688
443.4	372.7780016	24.1878856
453.9	377.046452	24.1878856
463.9	389.8518032	24.1878856
475.4	396.9658872	25.6107024
486.6	419.730956	27.0335192
496	414.0396888	27.0335192
504.1	432.5363072	27.0335192
516.7	415.4625056	27.0335192
528.9	423.9994064	27.0335192
539.4	433.959124	27.0335192
551.9	453.8785592	28.456336
564.4	453.8785592	28.456336
574.2	470.9523608	29.8791528
584.4	488.0261624	31.3019696
595.2	507.9455976	32.7247864
603.1	513.6368648	32.7247864
608.6	486.6033456	31.3019696
614.1	497.98588	31.3019696
