Measured thermophysical data. Phase polymorphism of [Zn(DMSO)6](ClO4)2 studied by differential scanning calorimetry
Source: Thermochim. Acta, 2006, 10.1016/j.tca.2006.02.005
Compound 1: Hexadimethylsulphoxidezinc(II) chlorate(VII), C12H36Cl2O14S6Zn, InChI=1S/6C2H6OS.2ClHO4.Zn/c6*1-4(2)3;2*2-1(3,4)5;/h6*1-2H3;2*(H,2,3,4,5);/q;;;;;;;;+2/p-2

System: Hexadimethylsulphoxidezinc(II) chlorate(VII); phases: Crystal 3, Crystal 2, Gas
Property: Molar enthalpy of transition or fusion, kJ/mol (Crystal 3); method: DSC
Molar enthalpy of transition or fusion, kJ/mol	uncertainty
2.37	0.3

System: Hexadimethylsulphoxidezinc(II) chlorate(VII); phases: Crystal 2, Crystal 1, Gas
Property: Molar enthalpy of transition or fusion, kJ/mol (Crystal 2); method: DSC
Molar enthalpy of transition or fusion, kJ/mol	uncertainty
25.33	0.73

System: Hexadimethylsulphoxidezinc(II) chlorate(VII); phases: Crystal 3, Crystal 2, Gas
Property: Triple point temperature, K (Crystal 3); method: DTA
Triple point temperature, K	uncertainty
341	1

System: Hexadimethylsulphoxidezinc(II) chlorate(VII); phases: Crystal 2, Crystal 1, Gas
Property: Triple point temperature, K (Crystal 2); method: DTA
Triple point temperature, K	uncertainty
355	1
