Measured thermophysical data. D2O H2O solvent isotope effects on the thermodynamic properties of 1,3-dimethyl-2-imidazolidinone hydration between 288.15 and 318.15K
Source: Thermochim. Acta, 2008, 10.1016/j.tca.2008.09.005
Compound 1: 1,3-dimethyl-2-imidazolidinone, C5H10N2O, InChI=1S/C5H10N2O/c1-6-3-4-7(2)5(6)8/h3-4H2,1-2H3
Compound 2: water, H2O, InChI=1S/H2O/h1H2
Compound 3: water-d2, D2O, InChI=1S/H2O/h1H2/i/hD2

System: 1,3-dimethyl-2-imidazolidinone; phases: Liquid
Property: Refractive index (Na D-line) (Liquid); method: Standard Abbe refractometry
Temperature, K	Pressure, kPa	Refractive index (Na D-line)	uncertainty
298.15	101.325	1.4713	0.0008

System: 1,3-dimethyl-2-imidazolidinone; phases: Liquid
Property: Mass density, kg/m3 (Liquid); method: Vibrating tube method
Temperature, K	Pressure, kPa	Mass density, kg/m3	uncertainty
298.15	101.325	1052.23	1.22

System: water; phases: Liquid
Property: Electrical conductivity, S/m (Liquid); method: UNKNOWN
Temperature, K	Pressure, kPa	Electrical conductivity, S/m	uncertainty
298.15	101.325	1.3e-05	1e-06

System: 1,3-dimethyl-2-imidazolidinone + water; phases: Liquid
Fixed: Pressure, kPa = 101
Property: Molar enthalpy of solution, kJ/mol (Liquid); method: ISOPERIBOL
Temperature, K	Molality, mol/kg of 1,3-dimethyl-2-imidazolidinone	Molar enthalpy of solution, kJ/mol	uncertainty
288.15	0.03585	-18.51	0.17
298.15	0.01819	-17.21	0.15
308.15	0.03615	-15.99	0.15
318.15	0.02885	-14.67	0.17

System: 1,3-dimethyl-2-imidazolidinone + water-d2; phases: Liquid
Fixed: Pressure, kPa = 101
Property: Molar enthalpy of solution, kJ/mol (Liquid); method: ISOPERIBOL
Temperature, K	Molality, mol/kg of 1,3-dimethyl-2-imidazolidinone	Molar enthalpy of solution, kJ/mol	uncertainty
288.15	0.0356	-19.87	0.15
298.15	0.02005	-18.28	0.14
308.15	0.02345	-16.76	0.14
318.15	0.03185	-15.13	0.12
