Measured thermophysical data. Thermochemistry of adducts of some bivalent transition metal bromides with aniline
Source: Thermochim. Acta, 2006, 10.1016/j.tca.2005.11.026
Compound 1: methanol, CH4O, InChI=1S/CH4O/c1-2/h2H,1H3
Compound 2: manganese(II) bromide, Br2Mn, InChI=1S/2BrH.Mn/h2*1H;/q;;+2/p-2, purity 99%
Compound 3: dibromoiron, Br2Fe, InChI=1S/2BrH.Fe/h2*1H;/q;;+2/p-2, purity 99%
Compound 4: cobalt(II) bromide, Br2Co, InChI=1S/2BrH.Co/h2*1H;/q;;+2/p-2, purity 99%
Compound 5: zinc bromide, Br2Zn, InChI=1S/2BrH.Zn/h2*1H;/q;;+2/p-2, purity 99%
Compound 6: aniline, C6H7N, InChI=1S/C6H7N/c7-6-4-2-1-3-5-6/h1-5H,7H2
Compound 7: manganese dibromide bis-aniline, C12H14Br2MnN2, InChI=1S/2C6H7N.2BrH.Mn/c2*7-6-4-2-1-3-5-6;;;/h2*1-5H,7H2;2*1H;/q;;;;+2/p-2
Compound 8: iron dibromide bis-aniline, C12H14Br2FeN2, InChI=1S/2C6H7N.2BrH.Fe/c2*7-6-4-2-1-3-5-6;;;/h2*1-5H,7H2;2*1H;/q;;;;+2/p-2
Compound 9: bis(aniline)dibromocobalt, C12H14Br2CoN2, InChI=1S/2C6H7N.2BrH.Co/c2*7-6-4-2-1-3-5-6;;;/h2*1-5H,7H2;2*1H;/q;;;;+2/p-2
Compound 10: nickel bromide, Br2Ni, InChI=1S/2BrH.Ni/h2*1H;/q;;+2/p-2, purity 99%
Compound 11: nickel dibromide bis-aniline, C12H14Br2N2Ni, InChI=1S/2C6H7N.2BrH.Ni/c2*7-6-4-2-1-3-5-6;;;/h2*1-5H,7H2;2*1H;/q;;;;+2/p-2
Compound 12: copper dibromide, Br2Cu, InChI=1S/2BrH.Cu/h2*1H;/q;;+2/p-2, purity 99%
Compound 13: copper dibromide bis-aniline, C12H14Br2CuN2, InChI=1S/2C6H7N.2BrH.Cu/c2*7-6-4-2-1-3-5-6;;;/h2*1-5H,7H2;2*1H;/q;;;;+2/p-2
Compound 14: zinc dibromide bis-aniline, C12H14Br2N2Zn, InChI=1S/2C6H7N.2BrH.Zn/c2*7-6-4-2-1-3-5-6;;;/h2*1-5H,7H2;2*1H;/q;;;;+2/p-2

System: methanol + manganese(II) bromide; phases: Liquid
Property: Molar enthalpy of solution, kJ/mol (Liquid); method: Calvet calorimetry
Mole fraction of manganese(II) bromide	Temperature, K	Pressure, kPa	Molar enthalpy of solution, kJ/mol	uncertainty
0	298.15	101.325	-76.58	3.6

System: methanol + dibromoiron; phases: Liquid
Property: Molar enthalpy of solution, kJ/mol (Liquid); method: Calvet calorimetry
Mole fraction of dibromoiron	Temperature, K	Pressure, kPa	Molar enthalpy of solution, kJ/mol	uncertainty
0	298.15	101.325	-79.21	4.24

System: methanol + cobalt(II) bromide; phases: Liquid
Property: Molar enthalpy of solution, kJ/mol (Liquid); method: Calvet calorimetry
Mole fraction of cobalt(II) bromide	Temperature, K	Pressure, kPa	Molar enthalpy of solution, kJ/mol	uncertainty
0	298.15	101.325	-105.99	2.55

System: methanol + zinc bromide; phases: Liquid
Property: Molar enthalpy of solution, kJ/mol (Liquid); method: Calvet calorimetry
Mole fraction of zinc bromide	Temperature, K	Pressure, kPa	Molar enthalpy of solution, kJ/mol	uncertainty
0	298.15	101.325	-48.39	1.13

Reaction: -2 aniline + 1 manganese dibromide bis-aniline + -1 manganese(II) bromide
Property: Molar enthalpy of reaction, kJ/mol
-63.23

Reaction: -2 aniline + -1 dibromoiron + 1 iron dibromide bis-aniline
Property: Molar enthalpy of reaction, kJ/mol
-116.26

Reaction: -2 aniline + -1 cobalt(II) bromide + 1 bis(aniline)dibromocobalt
Property: Molar enthalpy of reaction, kJ/mol
-97.56

Reaction: -2 aniline + -1 nickel bromide + 1 nickel dibromide bis-aniline
Property: Molar enthalpy of reaction, kJ/mol
-93.45

Reaction: -2 aniline + -1 copper dibromide + 1 copper dibromide bis-aniline
Property: Molar enthalpy of reaction, kJ/mol
-80.33

Reaction: -2 aniline + -1 zinc bromide + 1 zinc dibromide bis-aniline
Property: Molar enthalpy of reaction, kJ/mol
-97.22
