Measured thermophysical data. DSC study and phase diagrams calculation of binary systems of paracetamol
Source: Thermochim. Acta, 2012, 10.1016/j.tca.2012.09.024
Compound 1: N-acetyl-p-aminophenol, C8H9NO2, InChI=1S/C8H9NO2/c1-6(10)9-7-2-4-8(11)5-3-7/h2-5,11H,1H3,(H,9,10)
Compound 2: caffeine, C8H10N4O2, InChI=1S/C8H10N4O2/c1-10-4-9-6-5(10)7(13)12(3)8(14)11(6)2/h4H,1-3H3
Compound 3: L-ascorbic acid, C6H8O6, InChI=1S/C6H8O6/c7-1-2(8)5-3(9)4(10)6(11)12-5/h2,5,7-10H,1H2/t2-,5+/m0/s1
Compound 4: citric acid, C6H8O7, InChI=1S/C6H8O7/c7-3(8)1-6(13,5(11)12)2-4(9)10/h13H,1-2H2,(H,7,8)(H,9,10)(H,11,12)

System: N-acetyl-p-aminophenol; phases: Crystal, Liquid, Air at 1 atmosphere
Property: Normal melting temperature, K (Crystal); method: DTA:corrimp
Normal melting temperature, K	uncertainty
441.85	0.7

System: N-acetyl-p-aminophenol; phases: Crystal, Liquid, Air at 1 atmosphere
Property: Molar enthalpy of transition or fusion, kJ/mol (Crystal); method: DSC
Molar enthalpy of transition or fusion, kJ/mol	uncertainty
27.844143552	0.801161568

System: caffeine; phases: Crystal, Liquid, Air at 1 atmosphere
Property: Normal melting temperature, K (Crystal); method: DTA:corrimp
Normal melting temperature, K	uncertainty
508.75	0.5

System: caffeine; phases: Crystal, Liquid, Air at 1 atmosphere
Property: Molar enthalpy of transition or fusion, kJ/mol (Crystal); method: DSC
Molar enthalpy of transition or fusion, kJ/mol	uncertainty
20.37059394	0.60199086

System: L-ascorbic acid; phases: Crystal, Liquid, Air at 1 atmosphere
Property: Normal melting temperature, K (Crystal); method: DTA:corrimp
Normal melting temperature, K	uncertainty
463.95	1.1

System: L-ascorbic acid; phases: Crystal, Liquid, Air at 1 atmosphere
Property: Molar enthalpy of transition or fusion, kJ/mol (Crystal); method: DSC
Molar enthalpy of transition or fusion, kJ/mol	uncertainty
37.003677612	1.021519896

System: citric acid; phases: Crystal, Liquid, Air at 1 atmosphere
Property: Normal melting temperature, K (Crystal); method: DTA:corrimp
Normal melting temperature, K	uncertainty
428.55	0.7

System: citric acid; phases: Crystal, Liquid, Air at 1 atmosphere
Property: Molar enthalpy of transition or fusion, kJ/mol (Crystal); method: DSC
Molar enthalpy of transition or fusion, kJ/mol	uncertainty
41.844502656	1.15274112

System: caffeine + N-acetyl-p-aminophenol; phases: Liquid, Crystal, Crystal, Air at 1 atmosphere
Property: Eutectic temperature, K (Liquid); method: DTA
Eutectic temperature, K	uncertainty
411.61	0.01

System: caffeine + N-acetyl-p-aminophenol; phases: Liquid, Crystal
Fixed: Pressure, kPa = 101
Property: Solid-liquid equilibrium temperature, K (Liquid); method: DTA
Mole fraction of N-acetyl-p-aminophenol	Solid-liquid equilibrium temperature, K	uncertainty
0.2	487.05	0.5
0.2	486.15	0.5
0.3	464.85	0.5
0.3	466.75	0.5
0.4	451.35	0.5
0.4	453.85	0.5
0.45	440.05	0.5
0.45	442.35	0.5
0.45	446.45	0.5

System: caffeine + N-acetyl-p-aminophenol; phases: Liquid, Crystal
Fixed: Pressure, kPa = 101
Property: Solid-liquid equilibrium temperature, K (Liquid); method: DTA
Mole fraction of N-acetyl-p-aminophenol	Solid-liquid equilibrium temperature, K	uncertainty
0.7	422.25	0.5
0.78	427.15	0.5
0.9	434.25	0.5

System: L-ascorbic acid + N-acetyl-p-aminophenol; phases: Liquid, Crystal, Crystal, Air at 1 atmosphere
Property: Eutectic temperature, K (Liquid); method: DTA
Eutectic temperature, K	uncertainty
424.99	0.01

System: L-ascorbic acid + N-acetyl-p-aminophenol; phases: Liquid, Crystal
Fixed: Pressure, kPa = 101
Property: Solid-liquid equilibrium temperature, K (Liquid); method: DTA
Mole fraction of N-acetyl-p-aminophenol	Solid-liquid equilibrium temperature, K	uncertainty
0.1	460.65	0.5
0.2	456.05	0.5
0.3	453.05	0.5
0.3	452.65	0.5
0.4	448.65	0.5
0.4	449.05	0.5
0.5	447.15	0.5

System: L-ascorbic acid + N-acetyl-p-aminophenol; phases: Liquid, Crystal
Fixed: Pressure, kPa = 101
Property: Solid-liquid equilibrium temperature, K (Liquid); method: DTA
Mole fraction of N-acetyl-p-aminophenol	Solid-liquid equilibrium temperature, K	uncertainty
0.8	432.05	0.5
0.9	437.45	0.5

System: citric acid + N-acetyl-p-aminophenol; phases: Liquid, Crystal, Crystal, Air at 1 atmosphere
Property: Eutectic temperature, K (Liquid); method: DTA
Eutectic temperature, K	uncertainty
396.28	0.01

System: citric acid + N-acetyl-p-aminophenol; phases: Liquid, Crystal
Fixed: Pressure, kPa = 101
Property: Solid-liquid equilibrium temperature, K (Liquid); method: DTA
Mole fraction of N-acetyl-p-aminophenol	Solid-liquid equilibrium temperature, K	uncertainty
0.1	424.15	0.5
0.2	420.45	0.5
0.3	415.45	0.5
0.3	414.75	0.5
0.4	410.55	0.5

System: citric acid + N-acetyl-p-aminophenol; phases: Liquid, Crystal
Fixed: Pressure, kPa = 101
Property: Solid-liquid equilibrium temperature, K (Liquid); method: DTA
Mole fraction of N-acetyl-p-aminophenol	Solid-liquid equilibrium temperature, K	uncertainty
0.8	431.85	0.5
0.9	436.75	0.5
