Measured thermophysical data. Dielectric and thermodynamic study of camphor and borneol enantiomers and their binary systems
Source: Thermochim. Acta, 2018, 10.1016/j.tca.2018.04.014
Compound 1: d-camphor, C10H16O, InChI=1S/C10H16O/c1-9(2)7-4-5-10(9,3)8(11)6-7/h7H,4-6H2,1-3H3/t7-,10+/m1/s1, purity 98%
Compound 2: (1S)-1,7,7-trimethylbicyclo[2.2.1]heptan-2-one, C10H16O, InChI=1S/C10H16O/c1-9(2)7-4-5-10(9,3)8(11)6-7/h7H,4-6H2,1-3H3/t7-,10+/m0/s1, purity 99%
Compound 3: d-borneol, C10H18O, InChI=1S/C10H18O/c1-9(2)7-4-5-10(9,3)8(11)6-7/h7-8,11H,4-6H2,1-3H3/t7-,8+,10+/m1/s1, purity 97%
Compound 4: (1S-endo)-1,7,7-trimethylbicyclo[2.2.1]heptan-2-ol, C10H18O, InChI=1S/C10H18O/c1-9(2)7-4-5-10(9,3)8(11)6-7/h7-8,11H,4-6H2,1-3H3/t7-,8+,10+/m0/s1, purity 97%

System: d-camphor; phases: Crystal 1, Liquid, Air at 1 atmosphere
Property: Triple point temperature, K (Crystal 1); method: DSC
Triple point temperature, K	uncertainty
452.7	3.1

System: d-camphor; phases: Crystal 2, Crystal 1, Air at 1 atmosphere
Property: Triple point temperature, K (Crystal 2); method: DSC
Triple point temperature, K	uncertainty
372.3	3.1

System: d-camphor; phases: Crystal 3, Crystal 2, Air at 1 atmosphere
Property: Triple point temperature, K (Crystal 3); method: DSC
Triple point temperature, K	uncertainty
242.8	3.1

System: d-camphor; phases: Crystal 2, Crystal 1, Air at 1 atmosphere
Property: Molar enthalpy of transition or fusion, kJ/mol (Crystal 2); method: DSC
Molar enthalpy of transition or fusion, kJ/mol	uncertainty
0.15	0.71

System: d-camphor; phases: Crystal 3, Crystal 2, Air at 1 atmosphere
Property: Molar enthalpy of transition or fusion, kJ/mol (Crystal 3); method: DSC
Molar enthalpy of transition or fusion, kJ/mol	uncertainty
11.23	0.76

System: (1S)-1,7,7-trimethylbicyclo[2.2.1]heptan-2-one; phases: Crystal 1, Liquid, Air at 1 atmosphere
Property: Triple point temperature, K (Crystal 1); method: DSC
Triple point temperature, K	uncertainty
453.9	3.1

System: (1S)-1,7,7-trimethylbicyclo[2.2.1]heptan-2-one; phases: Crystal 2, Crystal 1, Air at 1 atmosphere
Property: Triple point temperature, K (Crystal 2); method: DSC
Triple point temperature, K	uncertainty
375.3	3.1

System: (1S)-1,7,7-trimethylbicyclo[2.2.1]heptan-2-one; phases: Crystal 3, Crystal 2, Air at 1 atmosphere
Property: Triple point temperature, K (Crystal 3); method: DSC
Triple point temperature, K	uncertainty
246.3	3.1

System: (1S)-1,7,7-trimethylbicyclo[2.2.1]heptan-2-one; phases: Crystal 2, Crystal 1, Air at 1 atmosphere
Property: Molar enthalpy of transition or fusion, kJ/mol (Crystal 2); method: DSC
Molar enthalpy of transition or fusion, kJ/mol	uncertainty
0.16	0.71

System: (1S)-1,7,7-trimethylbicyclo[2.2.1]heptan-2-one; phases: Crystal 3, Crystal 2, Air at 1 atmosphere
Property: Molar enthalpy of transition or fusion, kJ/mol (Crystal 3); method: DSC
Molar enthalpy of transition or fusion, kJ/mol	uncertainty
13.25	0.77

System: d-borneol; phases: Crystal 1, Liquid, Air at 1 atmosphere
Property: Triple point temperature, K (Crystal 1); method: DSC
Triple point temperature, K	uncertainty
481.6	3.1

System: d-borneol; phases: Crystal 2, Crystal 1, Air at 1 atmosphere
Property: Triple point temperature, K (Crystal 2); method: DSC
Triple point temperature, K	uncertainty
346.7	3.1

System: d-borneol; phases: Crystal 3, Crystal 2, Air at 1 atmosphere
Property: Triple point temperature, K (Crystal 3); method: DSC
Triple point temperature, K	uncertainty
213.5	3.1

System: d-borneol; phases: Crystal 2, Crystal 1, Air at 1 atmosphere
Property: Molar enthalpy of transition or fusion, kJ/mol (Crystal 2); method: DSC
Molar enthalpy of transition or fusion, kJ/mol	uncertainty
3.03	0.73

System: d-borneol; phases: Crystal 3, Crystal 2, Air at 1 atmosphere
Property: Molar enthalpy of transition or fusion, kJ/mol (Crystal 3); method: DSC
Molar enthalpy of transition or fusion, kJ/mol	uncertainty
0.75	0.72

System: (1S-endo)-1,7,7-trimethylbicyclo[2.2.1]heptan-2-ol; phases: Crystal 1, Liquid, Air at 1 atmosphere
Property: Triple point temperature, K (Crystal 1); method: DSC
Triple point temperature, K	uncertainty
479.7	3.1

System: (1S-endo)-1,7,7-trimethylbicyclo[2.2.1]heptan-2-ol; phases: Crystal 2, Crystal 1, Air at 1 atmosphere
Property: Triple point temperature, K (Crystal 2); method: DSC
Triple point temperature, K	uncertainty
347.4	3.1

System: (1S-endo)-1,7,7-trimethylbicyclo[2.2.1]heptan-2-ol; phases: Crystal 3, Crystal 2, Air at 1 atmosphere
Property: Triple point temperature, K (Crystal 3); method: DSC
Triple point temperature, K	uncertainty
212.3	3.1

System: (1S-endo)-1,7,7-trimethylbicyclo[2.2.1]heptan-2-ol; phases: Crystal 2, Crystal 1, Air at 1 atmosphere
Property: Molar enthalpy of transition or fusion, kJ/mol (Crystal 2); method: DSC
Molar enthalpy of transition or fusion, kJ/mol	uncertainty
2.99	0.73

System: (1S-endo)-1,7,7-trimethylbicyclo[2.2.1]heptan-2-ol; phases: Crystal 3, Crystal 2, Air at 1 atmosphere
Property: Molar enthalpy of transition or fusion, kJ/mol (Crystal 3); method: DSC
Molar enthalpy of transition or fusion, kJ/mol	uncertainty
0.72	0.72

System: d-camphor + (1S-endo)-1,7,7-trimethylbicyclo[2.2.1]heptan-2-ol; phases: Crystal, Liquid
Fixed: Pressure, kPa = 100
Property: Solid-liquid equilibrium temperature, K (Crystal); method: DTA
Mole fraction of (1S-endo)-1,7,7-trimethylbicyclo[2.2.1]heptan-2-ol	Solid-liquid equilibrium temperature, K	uncertainty
0.1	454.9	3.1
0.3	463.1	3.1
0.5	466.9	3.1
0.7	473.6	3.1
0.9	478	3.1

System: d-camphor + (1S-endo)-1,7,7-trimethylbicyclo[2.2.1]heptan-2-ol; phases: Liquid, Crystal
Fixed: Pressure, kPa = 100
Property: Solid-liquid equilibrium temperature, K (Liquid); method: DTA
Mole fraction of (1S-endo)-1,7,7-trimethylbicyclo[2.2.1]heptan-2-ol	Solid-liquid equilibrium temperature, K	uncertainty
1	481.6	3
0	452.7	3
0.1	457.6	3.2
0.3	466.3	3.1
0.5	473.6	3.1
0.7	478.1	3
0.9	480.6	3

System: d-camphor + d-borneol; phases: Crystal, Liquid
Fixed: Pressure, kPa = 100
Property: Solid-liquid equilibrium temperature, K (Crystal); method: DTA
Mole fraction of d-borneol	Solid-liquid equilibrium temperature, K	uncertainty
0.1	455.7	3.1
0.3	461.6	3.1
0.5	467.1	3.1
0.7	473.1	3.1
0.9	477.3	3.1

System: d-camphor + d-borneol; phases: Liquid, Crystal
Fixed: Pressure, kPa = 100
Property: Solid-liquid equilibrium temperature, K (Liquid); method: DTA
Mole fraction of d-borneol	Solid-liquid equilibrium temperature, K	uncertainty
1	479.7	3
0	452.7	3
0.1	457.6	3.1
0.3	463.9	3.1
0.5	469.7	3.1
0.7	475.3	3.1
0.9	479	3

System: (1S)-1,7,7-trimethylbicyclo[2.2.1]heptan-2-one + (1S-endo)-1,7,7-trimethylbicyclo[2.2.1]heptan-2-ol; phases: Crystal, Liquid
Fixed: Pressure, kPa = 100
Property: Solid-liquid equilibrium temperature, K (Crystal); method: DTA
Mole fraction of (1S-endo)-1,7,7-trimethylbicyclo[2.2.1]heptan-2-ol	Solid-liquid equilibrium temperature, K	uncertainty
0.1	458.1	3.1
0.3	465.8	3.1
0.5	471.8	3.1
0.7	476.2	3.1
0.9	480.3	3

System: (1S)-1,7,7-trimethylbicyclo[2.2.1]heptan-2-one + (1S-endo)-1,7,7-trimethylbicyclo[2.2.1]heptan-2-ol; phases: Liquid, Crystal
Fixed: Pressure, kPa = 100
Property: Solid-liquid equilibrium temperature, K (Liquid); method: DTA
Mole fraction of (1S-endo)-1,7,7-trimethylbicyclo[2.2.1]heptan-2-ol	Solid-liquid equilibrium temperature, K	uncertainty
1	481.6	3
0	453.9	3
0.1	463.6	3.2
0.3	468.8	3.1
0.5	475.5	3.1
0.7	480	3.1
0.9	485.3	3
