Measured thermophysical data. Interaction of antibacterial drug ampicillin with glycine and its dipeptides  analyzed by volumetric and acoustic methods at different temperatures
Source: Thermochim. Acta, 2013, 10.1016/j.tca.2012.10.018
Compound 1: glycylglycine, C4H8N2O3, InChI=1S/C4H8N2O3/c5-1-3(7)6-2-4(8)9/h1-2,5H2,(H,6,7)(H,8,9), purity 99%
Compound 2: glycyl-L-leucine, C8H16N2O3, InChI=1S/C8H16N2O3/c1-5(2)3-6(8(12)13)10-7(11)4-9/h5-6H,3-4,9H2,1-2H3,(H,10,11)(H,12,13)/t6-/m0/s1, purity 99%
Compound 3: 2-aminoacetic acid, C2H5NO2, InChI=1S/C2H5NO2/c3-1-2(4)5/h1,3H2,(H,4,5), purity 99.5%
Compound 4: 6-[D-(2-amino-2-phenylacetyl)amino]-3,3-dimethyl-7-oxo-4-thia-1-azabicyclo[3.2.0]heptane-2-carboxylic acid, C16H19N3O4S, InChI=1S/C16H19N3O4S/c1-16(2)11(15(22)23)19-13(21)10(14(19)24-16)18-12(20)9(17)8-6-4-3-5-7-8/h3-7,9-11,14H,17H2,1-2H3,(H,18,20)(H,22,23), purity 99%
Compound 5: water, H2O, InChI=1S/H2O/h1H2, purity 99.99%

System: water; phases: Liquid
Fixed: Pressure, kPa = 101
Property: Speed of sound, m/s (Liquid); method: Sing-around technique in a fixed-path interferometer
Temperature, K	Speed of sound, m/s	uncertainty
305.15	1513.49	0.74
310.15	1523.5	0.75
315.15	1532.17	0.75

System: water; phases: Liquid
Fixed: Pressure, kPa = 101
Property: Mass density, kg/m3 (Liquid); method: Vibrating tube method
Temperature, K	Mass density, kg/m3	uncertainty
305.15	995.132	2
310.15	992.274	2
315.15	991.385	2

System: glycylglycine + water; phases: Liquid
Fixed: Pressure, kPa = 101
Property: Speed of sound, m/s (Liquid); method: Sing-around technique in a fixed-path interferometer
Molality, mol/kg of glycylglycine	Temperature, K	Speed of sound, m/s	uncertainty
0	305.15	1513.49	0.76
0	310.15	1523.5	0.8
0	315.15	1532.17	0.76
0.01976	305.15	1514.97	0.76
0.01976	310.15	1524.89	0.76
0.01976	315.15	1533.41	0.76
0.03098	305.15	1515.79	0.76
0.03098	310.15	1525.65	0.76
0.03098	315.15	1534.11	0.76
0.06804	305.15	1518.52	0.76
0.06804	310.15	1528.12	0.76
0.06804	315.15	1536.32	0.76
0.08258	305.15	1519.55	0.76
0.08258	310.15	1529.11	0.76
0.08258	315.15	1537.23	0.76
0.11961	305.15	1522.07	0.76
0.11961	310.15	1531.45	0.76
0.11961	315.15	1539.43	0.76

System: glycylglycine + water; phases: Liquid
Fixed: Pressure, kPa = 101
Property: Mass density, kg/m3 (Liquid); method: Vibrating tube method
Temperature, K	Molality, mol/kg of glycylglycine	Mass density, kg/m3	uncertainty
305.15	0	995.132	2.001
305.15	0.01976	996.227	2.001
305.15	0.03098	996.841	2.001
305.15	0.06804	998.809	2.001
305.15	0.08258	999.555	2.001
305.15	0.11961	1001.397	2.001
310.15	0	992.274	2
310.15	0.01976	993.362	2.001
310.15	0.03098	993.969	2.001
310.15	0.06804	995.921	2.001
310.15	0.08258	996.662	2.001
310.15	0.11961	998.494	2.001
315.15	0	991.385	2.001
315.15	0.01976	992.463	2.001
315.15	0.03098	993.064	2.001
315.15	0.06804	994.996	2.001
315.15	0.08258	995.732	2.001
315.15	0.11961	997.528	2.001

System: 2-aminoacetic acid + water; phases: Liquid
Fixed: Pressure, kPa = 101
Property: Speed of sound, m/s (Liquid); method: Sing-around technique in a fixed-path interferometer
Temperature, K	Molality, mol/kg of 2-aminoacetic acid	Speed of sound, m/s	uncertainty
305.15	0	1513.49	0.74
305.15	0.03272	1515.02	0.74
305.15	0.04933	1515.74	0.74
305.15	0.0581	1516.12	0.74
305.15	0.09278	1517.68	0.74
305.15	0.1392	1519.59	0.74
310.15	0	1523.5	0.75
310.15	0.03272	1524.86	0.75
310.15	0.04933	1525.55	0.75
310.15	0.0581	1525.91	0.75
310.15	0.09278	1527.34	0.75
310.15	0.1392	1529.02	0.75
315.15	0	1532.17	0.75
315.15	0.03272	1533.37	0.75
315.15	0.04933	1534.01	0.75
315.15	0.0581	1534.31	0.75
315.15	0.09278	1535.59	0.75
315.15	0.1392	1537.15	0.75

System: 2-aminoacetic acid + water; phases: Liquid
Fixed: Pressure, kPa = 101
Property: Mass density, kg/m3 (Liquid); method: Vibrating tube method
Temperature, K	Molality, mol/kg of 2-aminoacetic acid	Mass density, kg/m3	uncertainty
305.15	0	995.132	2
305.15	0.03272	996.158	2
305.15	0.04933	996.664	2
305.15	0.0581	996.929	2
305.15	0.09278	997.971	2
305.15	0.1392	999.339	2
310.15	0	992.274	2
310.15	0.03272	993.281	2.001
310.15	0.04933	993.779	2.001
310.15	0.0581	994.038	2
310.15	0.09278	995.054	2
310.15	0.1392	996.391	2.001
315.15	0	991.385	2
315.15	0.03272	992.376	2
315.15	0.04933	992.866	2
315.15	0.0581	993.122	2
315.15	0.09278	994.122	2
315.15	0.1392	995.416	2

System: glycyl-L-leucine + water; phases: Liquid
Fixed: Pressure, kPa = 101
Property: Speed of sound, m/s (Liquid); method: Sing-around technique in a fixed-path interferometer
Molality, mol/kg of glycyl-L-leucine	Temperature, K	Speed of sound, m/s	uncertainty
0	305.15	1513.49	0.79
0	310.15	1523.5	0.8
0	315.15	1532.17	0.79
0.03308	305.15	1518.11	0.79
0.03308	310.15	1527.98	0.79
0.03308	315.15	1536.47	0.79
0.05972	305.15	1521.83	0.8
0.05972	310.15	1531.6	0.8
0.05972	315.15	1539.93	0.79
0.09457	305.15	1526.75	0.8
0.09457	310.15	1536.34	0.8
0.09457	315.15	1544.42	0.8
0.11154	305.15	1529.12	0.8
0.11154	310.15	1538.63	0.78
0.11154	315.15	1546.56	0.8

System: glycyl-L-leucine + water; phases: Liquid
Fixed: Pressure, kPa = 101
Property: Mass density, kg/m3 (Liquid); method: Vibrating tube method
Molality, mol/kg of glycyl-L-leucine	Temperature, K	Mass density, kg/m3	uncertainty
0	305.15	995.132	2.003
0	310.15	992.274	2.001
0	315.15	991.385	2.003
0.03308	305.15	996.762	2.003
0.03308	310.15	993.879	2.003
0.03308	315.15	992.968	2.002
0.05972	305.15	998.038	2.003
0.05972	310.15	995.132	2.002
0.05972	315.15	994.198	2.002
0.09457	305.15	999.652	2.002
0.09457	310.15	996.722	2.003
0.09457	315.15	995.757	2.002
0.11154	305.15	1000.423	2.002
0.11154	310.15	997.479	2.007
0.11154	315.15	996.494	2.002

System: 6-[D-(2-amino-2-phenylacetyl)amino]-3,3-dimethyl-7-oxo-4-thia-1-azabicyclo[3.2.0]heptane-2-carboxylic acid + water; phases: Liquid
Fixed: Pressure, kPa = 101
Property: Speed of sound, m/s (Liquid); method: Sing-around technique in a fixed-path interferometer
Temperature, K	Molality, mol/kg of 6-[D-(2-amino-2-phenylacetyl)amino]-3,3-dimethyl-7-oxo-4-thia-1-azabicyclo[3.2.0]heptane-2-carboxylic acid	Speed of sound, m/s	uncertainty
305.15	0.0005	1513.6	0.74
305.15	0.001	1513.79	0.74
305.15	0.002	1514.11	0.74
305.15	0.004	1514.18	0.74
310.15	0.0005	1523.43	0.75
310.15	0.001	1523.57	0.75
310.15	0.002	1524.06	0.75
310.15	0.004	1523.97	0.75
315.15	0.0005	1531.86	0.75
315.15	0.001	1531.97	0.75
315.15	0.002	1532.39	0.75
315.15	0.004	1532.38	0.75
315.15	0.004	1531.86	0.75

System: 6-[D-(2-amino-2-phenylacetyl)amino]-3,3-dimethyl-7-oxo-4-thia-1-azabicyclo[3.2.0]heptane-2-carboxylic acid + water; phases: Liquid
Fixed: Pressure, kPa = 101
Property: Mass density, kg/m3 (Liquid); method: Vibrating tube method
Temperature, K	Molality, mol/kg of 6-[D-(2-amino-2-phenylacetyl)amino]-3,3-dimethyl-7-oxo-4-thia-1-azabicyclo[3.2.0]heptane-2-carboxylic acid	Mass density, kg/m3	uncertainty
305.15	0.0005	995.119	2.009
305.15	0.001	995.211	2.004
305.15	0.002	995.313	2.003
305.15	0.004	995.507	2.003
310.15	0.0005	993.425	2.025
310.15	0.001	993.515	2.005
310.15	0.002	993.607	2.003
310.15	0.004	993.805	2.001
315.15	0.0005	991.53	2.01
315.15	0.001	991.614	2.004
315.15	0.002	991.711	2.003
315.15	0.004	991.91	2

System: 2-aminoacetic acid + 6-[D-(2-amino-2-phenylacetyl)amino]-3,3-dimethyl-7-oxo-4-thia-1-azabicyclo[3.2.0]heptane-2-carboxylic acid + water; phases: Liquid
Fixed: Pressure, kPa = 101
Property: Speed of sound, m/s (Liquid); method: Sing-around technique in a fixed-path interferometer
Temperature, K	Molality, mol/kg of 2-aminoacetic acid	Solvent: Molality, mol/kg of 6-[D-(2-amino-2-phenylacetyl)amino]-3,3-dimethyl-7-oxo-4-thia-1-azabicyclo[3.2.0]heptane-2-carboxylic acid	Speed of sound, m/s	uncertainty
305.15	0	0.0005	1513.6	0.74
305.15	0	0.001	1513.79	0.74
305.15	0	0.002	1514.11	0.74
305.15	0	0.004	1514.18	0.74
305.15	0.02975	0.0005	1514.54	0.74
305.15	0.03179	0.001	1514.97	0.74
305.15	0.0369	0.002	1515.58	0.74
305.15	0.03828	0.004	1515.71	0.74
305.15	0.053	0.001	1515.68	0.74
305.15	0.06204	0.0005	1515.54	0.74
305.15	0.06317	0.004	1516.68	0.74
305.15	0.0697	0.002	1516.68	0.74
305.15	0.08047	0.001	1516.51	0.74
305.15	0.08223	0.004	1517.39	0.74
305.15	0.09269	0.0005	1516.49	0.74
305.15	0.09382	0.002	1517.39	0.74
305.15	0.11897	0.0005	1517.28	0.74
305.15	0.12004	0.002	1518.11	0.74
305.15	0.12522	0.001	1517.62	0.74
305.15	0.12884	0.004	1519.19	0.74
310.15	0	0.0005	1523.43	0.75
310.15	0	0.001	1523.57	0.75
310.15	0	0.002	1524.06	0.75
310.15	0	0.004	1523.97	0.75
310.15	0.02975	0.0005	1524.48	0.75
310.15	0.03179	0.001	1524.97	0.75
310.15	0.0369	0.002	1525.92	0.75
310.15	0.03828	0.004	1525.93	0.75
310.15	0.053	0.001	1525.89	0.75
310.15	0.06204	0.0005	1525.61	0.75
310.15	0.06317	0.004	1527.28	0.75
310.15	0.0697	0.002	1527.36	0.75
310.15	0.08047	0.001	1526.97	0.75
310.15	0.08223	0.004	1528.28	0.75
310.15	0.09269	0.0005	1526.66	0.75
310.15	0.09382	0.002	1528.49	0.75
310.15	0.11897	0.0005	1527.55	0.75
310.15	0.12004	0.002	1529.48	0.75
310.15	0.12522	0.001	1528.64	0.75
310.15	0.12884	0.004	1530.72	0.75
315.15	0	0.0005	1531.86	0.75
315.15	0	0.001	1531.97	0.75
315.15	0	0.002	1532.39	0.75
315.15	0	0.004	1532.38	0.75
315.15	0.02975	0.0005	1533.03	0.75
315.15	0.03179	0.001	1533.61	0.75
315.15	0.0369	0.002	1534.74	0.75
315.15	0.03828	0.004	1534.99	0.75
315.15	0.053	0.001	1534.72	0.75
315.15	0.06204	0.0005	1534.36	0.75
315.15	0.06317	0.004	1536.71	0.75
315.15	0.0697	0.002	1536.63	0.75
315.15	0.08047	0.001	1535.98	0.75
315.15	0.08223	0.004	1537.99	0.75
315.15	0.09269	0.0005	1535.55	0.75
315.15	0.09382	0.002	1537.93	0.75
315.15	0.11897	0.0005	1536.64	0.75
315.15	0.12004	0.002	1539.18	0.75
315.15	0.12522	0.001	1537.89	0.75
315.15	0.12884	0.004	1541.05	0.75

System: 2-aminoacetic acid + 6-[D-(2-amino-2-phenylacetyl)amino]-3,3-dimethyl-7-oxo-4-thia-1-azabicyclo[3.2.0]heptane-2-carboxylic acid + water; phases: Liquid
Fixed: Pressure, kPa = 101
Property: Mass density, kg/m3 (Liquid); method: Vibrating tube method
Temperature, K	Molality, mol/kg of 2-aminoacetic acid	Solvent: Molality, mol/kg of 6-[D-(2-amino-2-phenylacetyl)amino]-3,3-dimethyl-7-oxo-4-thia-1-azabicyclo[3.2.0]heptane-2-carboxylic acid	Mass density, kg/m3	uncertainty
305.15	0	0.0005	995.119	2.002
305.15	0	0.001	995.211	2.002
305.15	0	0.002	995.313	2.002
305.15	0	0.004	995.507	2.002
305.15	0.02975	0.0005	996.041	2.002
305.15	0.03179	0.001	996.192	2.002
305.15	0.0369	0.002	996.411	2.002
305.15	0.03828	0.004	996.501	2.002
305.15	0.053	0.001	996.823	2.002
305.15	0.06204	0.0005	997.031	2.002
305.15	0.06317	0.004	997.131	2.002
305.15	0.0697	0.002	997.349	2.002
305.15	0.08047	0.001	997.621	2.002
305.15	0.08223	0.004	997.606	2.002
305.15	0.09269	0.0005	997.938	2.002
305.15	0.09382	0.002	998.016	2.002
305.15	0.11897	0.0005	998.696	2.002
305.15	0.12004	0.002	998.725	2.002
305.15	0.12522	0.001	998.903	2.002
305.15	0.12884	0.004	998.726	2.002
310.15	0	0.0005	993.425	2.002
310.15	0	0.001	993.515	2.002
310.15	0	0.002	993.607	2.002
310.15	0	0.004	993.805	2.002
310.15	0.02975	0.0005	994.295	2.002
310.15	0.03179	0.001	994.317	2.002
310.15	0.0369	0.002	994.388	2.002
310.15	0.03828	0.004	994.484	2.001
310.15	0.053	0.001	994.784	2.002
310.15	0.06204	0.0005	995.212	2.002
310.15	0.06317	0.004	994.841	2.001
310.15	0.0697	0.002	995.009	2.001
310.15	0.08047	0.001	995.372	2.002
310.15	0.08223	0.004	995.106	2.001
310.15	0.09269	0.0005	996.063	2.002
310.15	0.09382	0.002	995.369	2.001
310.15	0.11897	0.0005	996.7673	2.0015
310.15	0.12004	0.002	995.806	2.001
310.15	0.12522	0.001	996.257	2.002
310.15	0.12884	0.004	995.752	2.001
315.15	0	0.0005	991.53	2
315.15	0	0.001	991.614	2.002
315.15	0	0.002	991.711	2.001
315.15	0	0.004	991.91	2
315.15	0.02975	0.0005	992.283	2.002
315.15	0.03179	0.001	992.211	2.002
315.15	0.0369	0.002	992.072	2.001
315.15	0.03828	0.004	992.132	2.001
315.15	0.053	0.001	992.538	2.001
315.15	0.06204	0.0005	993.067	2.002
315.15	0.06317	0.004	992.217	2.001
315.15	0.0697	0.002	992.349	2.001
315.15	0.08047	0.001	992.969	2.001
315.15	0.08223	0.004	992.282	2.001
315.15	0.09269	0.0005	993.799	2.002
315.15	0.09382	0.002	992.537	2.001
315.15	0.11897	0.0005	994.404	2.002
315.15	0.12004	0.002	992.712	2.002
315.15	0.12522	0.001	993.627	2.001
315.15	0.12884	0.004	992.354	2.001

System: 6-[D-(2-amino-2-phenylacetyl)amino]-3,3-dimethyl-7-oxo-4-thia-1-azabicyclo[3.2.0]heptane-2-carboxylic acid + glycylglycine + water; phases: Liquid
Fixed: Pressure, kPa = 101
Property: Speed of sound, m/s (Liquid); method: Sing-around technique in a fixed-path interferometer
Temperature, K	Molality, mol/kg of glycylglycine	Solvent: Molality, mol/kg of 6-[D-(2-amino-2-phenylacetyl)amino]-3,3-dimethyl-7-oxo-4-thia-1-azabicyclo[3.2.0]heptane-2-carboxylic acid	Speed of sound, m/s	uncertainty
305.15	0	0.0005	1513.6	0.7
305.15	0	0.001	1513.79	0.74
305.15	0	0.002	1514.11	0.74
305.15	0	0.004	1514.18	0.74
305.15	0.032	0.004	1516.29	0.74
305.15	0.03281	0.001	1516.08	0.74
305.15	0.0329	0.002	1516.79	0.74
305.15	0.03396	0.0005	1515.57	0.74
305.15	0.05629	0.0005	1516.81	0.74
305.15	0.06223	0.002	1519.26	0.74
305.15	0.06402	0.001	1518.13	0.74
305.15	0.07001	0.004	1518.68	0.74
305.15	0.08956	0.0005	1518.54	0.74
305.15	0.09072	0.001	1519.71	0.74
305.15	0.09086	0.002	1521.52	0.74
305.15	0.09493	0.004	1520.11	0.74
305.15	0.1153	0.002	1523.42	0.75
305.15	0.11861	0.004	1521.41	0.74
305.15	0.13063	0.001	1521.96	0.74
305.15	0.13158	0.0005	1520.73	0.74
310.15	0	0.0005	1523.43	0.75
310.15	0	0.001	1523.57	0.75
310.15	0	0.002	1524.06	0.75
310.15	0	0.004	1523.97	0.75
310.15	0.032	0.004	1525.98	0.75
310.15	0.03281	0.001	1525.86	0.75
310.15	0.0329	0.002	1526.97	0.75
310.15	0.03396	0.0005	1525.05	0.75
310.15	0.05629	0.0005	1526.07	0.75
310.15	0.06223	0.002	1529.52	0.75
310.15	0.06402	0.001	1527.85	0.75
310.15	0.07001	0.004	1528.21	0.75
310.15	0.08956	0.0005	1527.52	0.75
310.15	0.09072	0.001	1529.49	0.75
310.15	0.09086	0.002	1532.09	0.75
310.15	0.09493	0.004	1529.58	0.75
310.15	0.1153	0.002	1534.42	0.75
310.15	0.11861	0.004	1530.89	0.75
310.15	0.13063	0.001	1531.78	0.75
310.15	0.13158	0.0005	1529.18	0.75
315.15	0	0.0005	1531.86	0.75
315.15	0	0.001	1531.97	0.75
315.15	0	0.002	1532.39	0.75
315.15	0	0.004	1531.86	0.75
315.15	0.032	0.004	1533.68	0.75
315.15	0.03281	0.001	1534.26	0.75
315.15	0.0329	0.002	1535.48	0.75
315.15	0.03396	0.0005	1533.14	0.75
315.15	0.05629	0.0005	1533.91	0.75
315.15	0.06223	0.002	1538.27	0.75
315.15	0.06402	0.001	1536.24	0.75
315.15	0.07001	0.004	1535.74	0.75
315.15	0.08956	0.0005	1534.99	0.75
315.15	0.09072	0.001	1537.89	0.75
315.15	0.09086	0.002	1540.86	0.75
315.15	0.09493	0.004	1537.02	0.75
315.15	0.1153	0.002	1542.96	0.75
315.15	0.11861	0.004	1538.25	0.75
315.15	0.13063	0.001	1540.19	0.75
315.15	0.13158	0.0005	1536.27	0.75

System: 6-[D-(2-amino-2-phenylacetyl)amino]-3,3-dimethyl-7-oxo-4-thia-1-azabicyclo[3.2.0]heptane-2-carboxylic acid + glycylglycine + water; phases: Liquid
Fixed: Pressure, kPa = 101
Property: Mass density, kg/m3 (Liquid); method: Vibrating tube method
Temperature, K	Molality, mol/kg of glycylglycine	Solvent: Molality, mol/kg of 6-[D-(2-amino-2-phenylacetyl)amino]-3,3-dimethyl-7-oxo-4-thia-1-azabicyclo[3.2.0]heptane-2-carboxylic acid	Mass density, kg/m3	uncertainty
305.15	0	0.0005	995.119	2.004
305.15	0	0.001	995.211	2.004
305.15	0	0.002	995.313	2.004
305.15	0	0.004	995.507	2.004
305.15	0.032	0.004	997.192	2.004
305.15	0.03281	0.001	996.845	2.004
305.15	0.0329	0.002	996.796	2.003
305.15	0.03396	0.0005	996.964	2.004
305.15	0.05629	0.0005	998.165	2.004
305.15	0.06223	0.002	997.981	2.003
305.15	0.06402	0.001	998.345	2.004
305.15	0.07001	0.004	999.154	2.004
305.15	0.08956	0.0005	999.935	2.004
305.15	0.09072	0.001	999.583	2.003
305.15	0.09086	0.002	999.181	2.003
305.15	0.09493	0.004	1000.415	2.004
305.15	0.1153	0.002	1000.166	2.004
305.15	0.11861	0.004	1001.584	2.004
305.15	0.13063	0.001	1001.345	2.003
305.15	0.13158	0.0005	1002.141	2.004
310.15	0	0.0005	993.425	2.004
310.15	0	0.001	993.515	2.004
310.15	0	0.002	993.607	2.003
310.15	0	0.004	993.805	2.004
310.15	0.032	0.004	995.436	2.004
310.15	0.03281	0.001	995.044	2.004
310.15	0.0329	0.002	994.778	2.003
310.15	0.03396	0.0005	995.265	2.004
310.15	0.05629	0.0005	996.463	2.004
310.15	0.06223	0.002	995.784	2.003
310.15	0.06402	0.001	996.428	2.003
310.15	0.07001	0.004	997.319	2.004
310.15	0.08956	0.0005	998.226	2.004
310.15	0.09072	0.001	997.552	2.003
310.15	0.09086	0.002	996.607	2.003
310.15	0.09493	0.004	998.537	2.004
310.15	0.1153	0.002	997.194	2.004
310.15	0.11861	0.004	999.691	2.003
310.15	0.13063	0.001	999.152	2.003
310.15	0.13158	0.0005	1000.424	2.004
315.15	0	0.0005	991.53	2
315.15	0	0.001	991.614	2.004
315.15	0	0.002	991.711	2.003
315.15	0	0.004	991.91	2
315.15	0.032	0.004	993.491	2.004
315.15	0.03281	0.001	993.021	2.003
315.15	0.0329	0.002	992.606	2.003
315.15	0.03396	0.0005	993.361	2.004
315.15	0.05629	0.0005	994.552	2.004
315.15	0.06223	0.002	993.272	2.003
315.15	0.06402	0.001	994.295	2.003
315.15	0.07001	0.004	995.323	2.004
315.15	0.08956	0.0005	996.304	2.004
315.15	0.09072	0.001	995.319	2.003
315.15	0.09086	0.002	993.936	2.003
315.15	0.09493	0.004	996.501	2.004
315.15	0.1153	0.002	994.472	2.005
315.15	0.11861	0.004	997.616	2.004
315.15	0.13063	0.001	996.798	2.003
315.15	0.13158	0.0005	998.491	2.004

System: 6-[D-(2-amino-2-phenylacetyl)amino]-3,3-dimethyl-7-oxo-4-thia-1-azabicyclo[3.2.0]heptane-2-carboxylic acid + glycyl-L-leucine + water; phases: Liquid
Fixed: Pressure, kPa = 101
Property: Speed of sound, m/s (Liquid); method: Sing-around technique in a fixed-path interferometer
Temperature, K	Molality, mol/kg of glycyl-L-leucine	Solvent: Molality, mol/kg of 6-[D-(2-amino-2-phenylacetyl)amino]-3,3-dimethyl-7-oxo-4-thia-1-azabicyclo[3.2.0]heptane-2-carboxylic acid	Speed of sound, m/s	uncertainty
305.15	0	0.0005	1513.6	0.74
305.15	0	0.001	1513.79	0.74
305.15	0	0.002	1514.11	0.74
305.15	0	0.004	1514.18	0.74
305.15	0.02543	0.0005	1516.93	0.74
305.15	0.03136	0.002	1518.37	0.74
305.15	0.03194	0.004	1518.51	0.74
305.15	0.04214	0.001	1519.34	0.74
305.15	0.05783	0.0005	1521.21	0.74
305.15	0.05822	0.002	1522.06	0.74
305.15	0.065	0.001	1522.24	0.74
305.15	0.06799	0.004	1523.49	0.75
305.15	0.07556	0.002	1523.76	0.75
305.15	0.08094	0.001	1524.24	0.75
305.15	0.09045	0.004	1526.59	0.75
305.15	0.09301	0.0005	1525.91	0.75
305.15	0.10591	0.0005	1527.64	0.75
305.15	0.11737	0.001	1528.82	0.75
305.15	0.11976	0.002	1531.16	0.75
305.15	0.12377	0.004	1531.18	0.75
310.15	0	0.0005	1523.43	0.75
310.15	0	0.001	1523.57	0.75
310.15	0	0.002	1524.06	0.75
310.15	0	0.004	1523.97	0.75
310.15	0.02543	0.0005	1526.72	0.75
310.15	0.03136	0.002	1528.66	0.75
310.15	0.03194	0.004	1528.09	0.75
310.15	0.04214	0.001	1528.98	0.75
310.15	0.05783	0.0005	1530.95	0.75
310.15	0.05822	0.002	1532.53	0.75
310.15	0.065	0.001	1531.78	0.75
310.15	0.06799	0.004	1532.84	0.75
310.15	0.07556	0.002	1534.71	0.75
310.15	0.08094	0.001	1533.68	0.75
310.15	0.09045	0.004	1535.86	0.75
310.15	0.09301	0.0005	1535.59	0.75
310.15	0.10591	0.0005	1537.25	0.75
310.15	0.11737	0.001	1538.02	0.75
310.15	0.11976	0.002	1542.52	0.75
310.15	0.12377	0.004	1540.21	0.75
315.15	0	0.0005	1531.86	0.75
315.15	0	0.001	1531.97	0.75
315.15	0	0.002	1532.39	0.75
315.15	0	0.004	1531.86	0.75
315.15	0.02543	0.0005	1535.01	0.75
315.15	0.03136	0.002	1537.32	0.75
315.15	0.03194	0.004	1535.85	0.75
315.15	0.04214	0.001	1537.19	0.75
315.15	0.05783	0.0005	1539.08	0.75
315.15	0.05822	0.002	1541.61	0.75
315.15	0.065	0.001	1539.84	0.75
315.15	0.06799	0.004	1540.38	0.75
315.15	0.07556	0.002	1543.96	0.75
315.15	0.08094	0.001	1541.66	0.75
315.15	0.09045	0.004	1543.21	0.75
315.15	0.09301	0.0005	1543.43	0.75
315.15	0.10591	0.0005	1544.98	0.75
315.15	0.11737	0.001	1545.81	0.75
315.15	0.11976	0.002	1551.69	0.76
315.15	0.12377	0.004	1547.39	0.76

System: 6-[D-(2-amino-2-phenylacetyl)amino]-3,3-dimethyl-7-oxo-4-thia-1-azabicyclo[3.2.0]heptane-2-carboxylic acid + glycyl-L-leucine + water; phases: Liquid
Fixed: Pressure, kPa = 101
Property: Mass density, kg/m3 (Liquid); method: Vibrating tube method
Temperature, K	Molality, mol/kg of glycyl-L-leucine	Solvent: Molality, mol/kg of 6-[D-(2-amino-2-phenylacetyl)amino]-3,3-dimethyl-7-oxo-4-thia-1-azabicyclo[3.2.0]heptane-2-carboxylic acid	Mass density, kg/m3	uncertainty
305.15	0	0.0005	995.119	2.004
305.15	0	0.001	995.211	2.004
305.15	0	0.002	995.313	2.004
305.15	0	0.004	995.507	2.004
305.15	0.02543	0.0005	996.348	2.004
305.15	0.03136	0.002	996.787	2.004
305.15	0.03194	0.004	997.057	2.004
305.15	0.04214	0.001	997.201	2.004
305.15	0.05783	0.0005	997.857	2.003
305.15	0.05822	0.002	997.966	2.003
305.15	0.065	0.001	998.208	2.003
305.15	0.06799	0.004	998.691	2.003
305.15	0.07556	0.002	998.683	2.003
305.15	0.08094	0.001	998.885	2.003
305.15	0.09045	0.004	999.651	2.003
305.15	0.09301	0.0005	999.416	2.003
305.15	0.10591	0.0005	999.965	2.003
305.15	0.11737	0.001	1000.368	2.003
305.15	0.11976	0.002	1000.432	2.003
305.15	0.12377	0.004	1001.021	2.003
310.15	0	0.0005	993.425	2.004
310.15	0	0.001	993.515	2.004
310.15	0	0.002	993.607	2.003
310.15	0	0.004	993.805	2.004
310.15	0.02543	0.0005	994.652	2.004
310.15	0.03136	0.002	994.715	2.003
310.15	0.03194	0.004	995.328	2.004
310.15	0.04214	0.001	995.482	2.004
310.15	0.05783	0.0005	996.158	2.004
310.15	0.05822	0.002	995.599	2.003
310.15	0.065	0.001	996.473	2.003
310.15	0.06799	0.004	996.926	2.003
310.15	0.07556	0.002	996.121	2.003
310.15	0.08094	0.001	997.152	2.003
310.15	0.09045	0.004	997.878	2.003
310.15	0.09301	0.0005	997.717	2.003
310.15	0.10591	0.0005	998.272	2.003
310.15	0.11737	0.001	998.631	2.003
310.15	0.11976	0.002	997.402	2.003
310.15	0.12377	0.004	999.218	2.003
315.15	0	0.0005	991.53	2
315.15	0	0.001	991.614	2.004
315.15	0	0.002	991.711	2.003
315.15	0	0.004	991.91	2
315.15	0.02543	0.0005	992.747	2.004
315.15	0.03136	0.002	992.297	2.003
315.15	0.03194	0.004	993.411	2.004
315.15	0.04214	0.001	993.565	2.004
315.15	0.05783	0.0005	994.238	2.004
315.15	0.05822	0.002	992.764	2.003
315.15	0.065	0.001	994.546	2.003
315.15	0.06799	0.004	994.987	2.003
315.15	0.07556	0.002	993.036	2.003
315.15	0.08094	0.001	995.209	2.003
315.15	0.09045	0.004	995.927	2.003
315.15	0.09301	0.0005	995.783	2.003
315.15	0.10591	0.0005	996.332	2.003
315.15	0.11737	0.001	996.679	2.003
315.15	0.11976	0.002	993.605	2.004
315.15	0.12377	0.004	997.243	2.003
