Measured thermophysical data. Fusion characterization of biomass ash
Source: Thermochim. Acta, 2016, 10.1016/j.tca.2016.06.008
Compound 1: potassium chloride, ClK, InChI=1S/ClH.K/h1H;/q;+1/p-1, purity 98%
Compound 2: potassium carbonate, CK2O3, InChI=1S/CH2O3.2K/c2-1(3)4;;/h(H2,2,3,4);;/q;2*+1/p-2, purity 98%
Compound 3: potassium sulfate, K2O4S, InChI=1S/2K.H2O4S/c;;1-5(2,3)4/h;;(H2,1,2,3,4)/q2*+1;/p-2, purity 98%

System: potassium chloride; phases: Crystal, Liquid, Air at 1 atmosphere
Property: Triple point temperature, K (Crystal); method: Volume change
Triple point temperature, K	uncertainty
1045.15	4

System: potassium carbonate; phases: Crystal, Liquid, Air at 1 atmosphere
Property: Triple point temperature, K (Crystal); method: Volume change
Triple point temperature, K	uncertainty
1171.15	4

System: potassium sulfate; phases: Crystal, Liquid, Air at 1 atmosphere
Property: Triple point temperature, K (Crystal); method: Volume change
Triple point temperature, K	uncertainty
1343.15	4
