Measured thermophysical data. Thermodynamics of sublimation of aluminium triacetylacetonate
Source: Thermochim. Acta, 2006, 10.1016/j.tca.2006.08.008
Compound 1: aluminum triacetylacetonate, C15H21AlO6, InChI=1S/3C5H7O2.Al/c3*1-4(6)3-5(2)7;/h3*3H,1-2H3;/q3*-1;+3, purity 99%

System: aluminum triacetylacetonate; phases: Crystal, Gas
Property: Vapor or sublimation pressure, kPa (Crystal); method: Closed cell (Static) method
Temperature, K	Vapor or sublimation pressure, kPa	uncertainty
423.61	0.12	0.005
423.94	0.06	0.002
424.07	0.1	0.007
425.25	0.14	0.003
428.7	0.16	0.003
428.71	0.18	0.003
434.07	0.2	0.005
434.16	0.18	0.005
434.17	0.18	0.005
434.22	0.17	0.005
439.01	0.29	0.005
439.17	0.31	0.005
443.96	0.38	0.006
443.96	0.38	0.006
444.16	0.41	0.006
444.3	0.43	0.006
448.75	0.52	0.007
449.01	0.56	0.007
449.15	0.51	0.01
454.25	0.76	0.009
459.2	1.06	0.012
464.29	1.43	0.013
467.45	1.73	0.014

System: aluminum triacetylacetonate; phases: Crystal, Gas
Property: Vapor or sublimation pressure, kPa (Crystal); method: Calculated from knudsen effusion weight loss
Temperature, K	Vapor or sublimation pressure, kPa	uncertainty
376.15	0.0019	0.0003
383.15	0.0028	0.0005
387.15	0.0053	0.0009
392.15	0.007	0.0011
398.15	0.0111	0.0024
403.15	0.027	0.006
408.15	0.046	0.008
416.15	0.061	0.011
418.15	0.084	0.015
427.15	0.1	0.018
431.15	0.14	0.028
434.15	0.19	0.037
439.15	0.24	0.047
442.15	0.32	0.065
450.15	0.5	0.102
456.15	0.77	0.159
461.15	0.96	0.203
467.15	1.4	0.3
