Measured thermophysical data. Liquid-Liquid Equilibria of Ionic Liquid N-ethylpyridinium tetrafluoroborate + Trisodium  citrate/Ammonium citrate tribasic/Sodium succinate/Sodium tartrate Aqueous Two-Phase Systems at  298.15K
Source: Thermochim. Acta, 2012, 10.1016/j.tca.2012.09.034
Compound 1: 1-ethylpyridinium tetrafluoroborate, C7H10BF4N, InChI=1S/C7H10N.BF4/c1-2-8-6-4-3-5-7-8;2-1(3,4)5/h3-7H,2H2,1H3;/q+1;-1, purity 99%
Compound 2: trisodium citrate, C6H5Na3O7, InChI=1S/C6H8O7.3Na/c7-3(8)1-6(13,5(11)12)2-4(9)10;;;/h13H,1-2H2,(H,7,8)(H,9,10)(H,11,12);;;/q;3*+1/p-3, purity 99%
Compound 3: ammonium 2-hydroxypropane-1,2,3-tricarboxylate, C6H17N3O7, InChI=1S/C6H8O7.3H3N/c7-3(8)1-6(13,5(11)12)2-4(9)10;;;/h13H,1-2H2,(H,7,8)(H,9,10)(H,11,12);3*1H3, purity 99%
Compound 4: disodium L-tartrate, C4H4Na2O6, InChI=1S/C4H6O6.2Na/c5-1(3(7)8)2(6)4(9)10;;/h1-2,5-6H,(H,7,8)(H,9,10);;/q;2*+1/p-2/t1-,2-;;/m1../s1, purity 99%
Compound 5: disodium succinate, C4H4Na2O4, InChI=1S/C4H6O4.2Na/c5-3(6)1-2-4(7)8;;/h1-2H2,(H,5,6)(H,7,8);;/q;2*+1/p-2, purity 99%
Compound 6: water, H2O, InChI=1S/H2O/h1H2, purity 99.9%

System: trisodium citrate + 1-ethylpyridinium tetrafluoroborate + water; phases: Liquid mixture 1, Liquid mixture 2
Fixed: Temperature, K = 298.15
Fixed: Pressure, kPa = 101
Property: Mass fraction of trisodium citrate (Liquid mixture 1); method: Titration method
Mass fraction of 1-ethylpyridinium tetrafluoroborate	Mass fraction of trisodium citrate	uncertainty
0.0972	0.2367	0.0095
0.1024	0.2312	0.0092
0.1123	0.2244	0.009
0.116	0.2168	0.0087
0.1207	0.2121	0.0085
0.1251	0.2076	0.0083
0.1295	0.2032	0.0081
0.1335	0.1993	0.008
0.1376	0.1952	0.0078
0.1415	0.1914	0.0077
0.1453	0.1875	0.0075
0.1494	0.1839	0.0074
0.1526	0.1806	0.0072
0.1561	0.1772	0.0071
0.1596	0.1739	0.007
0.1627	0.1708	0.0068
0.1656	0.1678	0.0067
0.1744	0.1635	0.0065
0.1782	0.1604	0.0064
0.1807	0.1577	0.0063
0.1834	0.1551	0.0062
0.1857	0.1528	0.0061
0.1926	0.1493	0.006
0.1998	0.1458	0.0058
0.2057	0.1426	0.0057
0.2119	0.1394	0.0056
0.2176	0.1365	0.0055
0.2226	0.1338	0.0054
0.2272	0.1312	0.0052
0.2318	0.1287	0.0051
0.2368	0.1263	0.0051
0.2415	0.1237	0.005
0.2466	0.1213	0.0049
0.2544	0.1183	0.0047
0.259	0.116	0.0046
0.2656	0.1134	0.0045
0.269	0.1115	0.0045
0.2756	0.109	0.0044
0.2836	0.106	0.0042
0.289	0.1038	0.0042
0.2939	0.1018	0.0041
0.2992	0.0997	0.004
0.3045	0.0977	0.0039
0.3102	0.0956	0.0038
0.3161	0.0935	0.0037
0.3209	0.0917	0.0037
0.3267	0.0897	0.0036
0.3321	0.0878	0.0035
0.3365	0.0861	0.0034
0.3396	0.0847	0.0034
0.3442	0.083	0.0033
0.3488	0.0815	0.0033
0.3532	0.08	0.0032
0.3576	0.0785	0.0031
0.3619	0.0771	0.0031
0.3658	0.0757	0.003
0.3677	0.074	0.003
0.3728	0.0725	0.0029
0.3763	0.0713	0.0029
0.3798	0.0701	0.0028
0.3832	0.069	0.0028
0.3865	0.0679	0.0027
0.3898	0.0668	0.0027
0.3929	0.0658	0.0026
0.3971	0.0646	0.0026
0.4001	0.0636	0.0025
0.403	0.0627	0.0025
0.4056	0.0617	0.0025
0.4094	0.0607	0.0024
0.4121	0.0598	0.0024
0.4148	0.059	0.0024
0.4183	0.058	0.0023
0.4217	0.057	0.0023
0.4239	0.0563	0.0023
0.4264	0.0555	0.0022
0.4293	0.0546	0.0022
0.4323	0.0538	0.0022
0.4352	0.053	0.0021
0.4379	0.0522	0.0021
0.4413	0.0513	0.0021
0.4425	0.0508	0.002
0.4452	0.0501	0.002
0.4477	0.0494	0.002
0.4495	0.0488	0.002
0.4527	0.048	0.0019
0.4544	0.0474	0.0019
0.4567	0.0468	0.0019
0.459	0.0462	0.0018
0.4617	0.0455	0.0018
0.4638	0.045	0.0018
0.4655	0.0444	0.0018
0.4671	0.0439	0.0018
0.4697	0.0433	0.0017
0.4711	0.0428	0.0017
0.4736	0.0422	0.0017
0.4756	0.0417	0.0017
0.4775	0.0412	0.0016
0.4793	0.0407	0.0016
0.4821	0.04	0.0016
0.4844	0.0395	0.0016
0.4861	0.039	0.0016
0.4882	0.0385	0.0015
0.4902	0.038	0.0015
0.4922	0.0375	0.0015
0.4942	0.037	0.0015
0.4967	0.0365	0.0015
0.4979	0.0361	0.0014
0.5001	0.0356	0.0014
0.5024	0.0351	0.0014
0.5042	0.0347	0.0014
0.5059	0.0343	0.0014
0.5075	0.0339	0.0014
0.5092	0.0335	0.0013
0.5111	0.0331	0.0013
0.5307	0.0311	0.0012
0.5448	0.0275	0.0011
0.567	0.0239	0.001
0.5847	0.019	0.0008

System: trisodium citrate + 1-ethylpyridinium tetrafluoroborate + water; phases: Liquid mixture 1, Liquid mixture 2
Fixed: Temperature, K = 289.15
Fixed: Pressure, kPa = 101.3
Property: Mass fraction of trisodium citrate (Liquid mixture 1); method: Titration method
Property: Mass fraction of 1-ethylpyridinium tetrafluoroborate (Liquid mixture 2); method: Titration method
Property: Mass fraction of trisodium citrate (Liquid mixture 2); method: Titration method
Mass fraction of 1-ethylpyridinium tetrafluoroborate	Mass fraction of trisodium citrate	uncertainty	Mass fraction of 1-ethylpyridinium tetrafluoroborate	uncertainty	Mass fraction of trisodium citrate	uncertainty
0.6141	0.0183	0.0007	0.141	0.0056	0.1894	
0.656	0.0137	0.0006	0.109	0.0044	0.2132	
0.5824	0.0236	0.0009	0.1741	0.007	0.1675	
0.7053	0.0095	0.0004	0.1003	0.004	0.2203	

System: 1-ethylpyridinium tetrafluoroborate + ammonium 2-hydroxypropane-1,2,3-tricarboxylate + water; phases: Liquid mixture 1, Liquid mixture 2
Fixed: Temperature, K = 298.15
Fixed: Pressure, kPa = 101
Property: Mass fraction of ammonium 2-hydroxypropane-1,2,3-tricarboxylate (Liquid mixture 1); method: Titration method
Mass fraction of 1-ethylpyridinium tetrafluoroborate	Mass fraction of ammonium 2-hydroxypropane-1,2,3-tricarboxylate	uncertainty
0.0727	0.3802	0.0152
0.0746	0.3646	0.0146
0.0811	0.3575	0.0143
0.0822	0.341	0.0136
0.0859	0.3301	0.0132
0.0983	0.3075	0.0123
0.1011	0.2985	0.0119
0.1153	0.2771	0.0111
0.1189	0.2837	0.0113
0.1233	0.2686	0.0107
0.1416	0.2496	0.01
0.1498	0.2367	0.0095
0.1729	0.2265	0.0091
0.1888	0.2097	0.0084
0.2068	0.1958	0.0078
0.2147	0.1789	0.0072
0.2411	0.1627	0.0065
0.2557	0.1519	0.0061
0.275	0.1416	0.0057
0.2967	0.1345	0.0054
0.3066	0.1268	0.0051
0.3367	0.118	0.0047
0.3537	0.1103	0.0044
0.3559	0.1095	0.0044
0.3678	0.1048	0.0042
0.3758	0.1011	0.004
0.3869	0.0971	0.0039
0.4036	0.0891	0.0036
0.4234	0.0837	0.0033
0.4374	0.0782	0.0031
0.4443	0.0757	0.003
0.4627	0.0699	0.0028
0.4799	0.0655	0.0026
0.5044	0.0582	0.0023
0.5349	0.0501	0.002
0.6049	0.0406	0.0016
0.6603	0.0257	0.001
0.7022	0.0211	0.0008
0.7593	0.0156	0.0006
0.7828	0.008	0.0003

System: 1-ethylpyridinium tetrafluoroborate + ammonium 2-hydroxypropane-1,2,3-tricarboxylate + water; phases: Liquid mixture 2, Liquid mixture 1
Fixed: Temperature, K = 298.15
Fixed: Pressure, kPa = 101.3
Property: Mass fraction of 1-ethylpyridinium tetrafluoroborate (Liquid mixture 2); method: Titration method
Property: Mass fraction of ammonium 2-hydroxypropane-1,2,3-tricarboxylate (Liquid mixture 1); method: Titration method
Property: Mass fraction of 1-ethylpyridinium tetrafluoroborate (Liquid mixture 1); method: Titration method
Mass fraction of ammonium 2-hydroxypropane-1,2,3-tricarboxylate	Mass fraction of 1-ethylpyridinium tetrafluoroborate	uncertainty	Mass fraction of ammonium 2-hydroxypropane-1,2,3-tricarboxylate	uncertainty	Mass fraction of 1-ethylpyridinium tetrafluoroborate	uncertainty
0.2332	0.1687	0.0067	0.0204	0.0008	0.697	
0.2266	0.1763	0.0071	0.0292	0.0012	0.6325	
0.2745	0.1261	0.005	0.0156	0.0006	0.7325	

System: 1-ethylpyridinium tetrafluoroborate + disodium L-tartrate + water; phases: Liquid mixture 1, Liquid mixture 2
Fixed: Temperature, K = 298.15
Fixed: Pressure, kPa = 101
Property: Mass fraction of disodium L-tartrate (Liquid mixture 1); method: Titration method
Mass fraction of 1-ethylpyridinium tetrafluoroborate	Mass fraction of disodium L-tartrate	uncertainty
0.2074	0.1667	0.0067
0.2201	0.1602	0.0064
0.2316	0.1543	0.0062
0.2421	0.1488	0.006
0.2516	0.1438	0.0058
0.2607	0.139	0.0056
0.2749	0.1331	0.0053
0.2827	0.1289	0.0052
0.2947	0.1239	0.005
0.3058	0.1192	0.0048
0.3159	0.115	0.0046
0.3255	0.111	0.0044
0.3349	0.1072	0.0043
0.3434	0.1037	0.0041
0.3546	0.0996	0.004
0.3615	0.0966	0.0039
0.3684	0.0937	0.0037
0.3775	0.0904	0.0036
0.3837	0.0879	0.0035
0.3917	0.085	0.0034
0.3969	0.0828	0.0033
0.4042	0.0802	0.0032
0.4088	0.0783	0.0031
0.4155	0.0759	0.003
0.422	0.0737	0.0029
0.4258	0.072	0.0029
0.4314	0.07	0.0028
0.4375	0.068	0.0027
0.4413	0.0665	0.0027
0.4463	0.0647	0.0026
0.4511	0.0631	0.0025
0.4556	0.0615	0.0025
0.46	0.0601	0.0024
0.4639	0.0587	0.0024
0.4693	0.0571	0.0023
0.473	0.0558	0.0022
0.4766	0.0546	0.0022
0.4803	0.0534	0.0021
0.4835	0.0522	0.0021
0.4879	0.051	0.002
0.492	0.0498	0.002
0.4947	0.0489	0.002
0.4996	0.0475	0.0019
0.5022	0.0466	0.0019
0.5057	0.0456	0.0018
0.5091	0.0447	0.0018
0.5125	0.0437	0.0017
0.5159	0.0428	0.0017
0.5189	0.0419	0.0017
0.522	0.041	0.0016
0.5248	0.0402	0.0016
0.5284	0.0393	0.0016
0.5321	0.0384	0.0015
0.5347	0.0377	0.0015
0.5373	0.037	0.0015
0.5403	0.0363	0.0015
0.5432	0.0355	0.0014
0.546	0.0348	0.0014
0.5607	0.0286	0.0011
0.5852	0.0233	0.0009
0.6217	0.0175	0.0007
0.6603	0.011	0.0004
0.757	0.0018	0.0001

System: 1-ethylpyridinium tetrafluoroborate + disodium L-tartrate + water; phases: Liquid mixture 2, Liquid mixture 1
Fixed: Temperature, K = 298.15
Fixed: Pressure, kPa = 101.3
Property: Mass fraction of disodium L-tartrate (Liquid mixture 2); method: Titration method
Property: Mass fraction of disodium L-tartrate (Liquid mixture 1); method: Titration method
Property: Mass fraction of 1-ethylpyridinium tetrafluoroborate (Liquid mixture 1); method: Titration method
Mass fraction of 1-ethylpyridinium tetrafluoroborate	Mass fraction of disodium L-tartrate	uncertainty	Mass fraction of disodium L-tartrate	uncertainty	Mass fraction of 1-ethylpyridinium tetrafluoroborate	uncertainty
0.1178	0.2049	0.0082	0.0165	0.0007	0.6248	
0.157	0.185	0.0074	0.0191	0.0008	0.61	
0.13	0.1984	0.0079	0.0156	0.0006	0.6303	

System: disodium succinate + 1-ethylpyridinium tetrafluoroborate + water; phases: Liquid mixture 1, Liquid mixture 2
Fixed: Temperature, K = 298.15
Fixed: Pressure, kPa = 101
Property: Mass fraction of disodium succinate (Liquid mixture 1); method: Titration method
Mass fraction of 1-ethylpyridinium tetrafluoroborate	Mass fraction of disodium succinate	uncertainty
0.2141	0.1576	0.0063
0.2172	0.1536	0.0061
0.2266	0.1482	0.0059
0.2349	0.1435	0.0057
0.2427	0.1389	0.0056
0.2549	0.1334	0.0053
0.2628	0.1292	0.0052
0.2742	0.1242	0.005
0.2885	0.1186	0.0047
0.2977	0.1145	0.0046
0.31	0.1098	0.0044
0.3249	0.1046	0.0042
0.3384	0.1001	0.004
0.3534	0.0952	0.0038
0.3675	0.0908	0.0036
0.3826	0.0862	0.0034
0.396	0.0822	0.0033
0.4083	0.0785	0.0031
0.4218	0.0746	0.003
0.4339	0.0711	0.0028
0.446	0.0678	0.0027
0.4556	0.065	0.0026
0.4652	0.0623	0.0025
0.4692	0.0592	0.0024
0.5014	0.0506	0.002
0.5256	0.0447	0.0018
0.5413	0.0422	0.0017
0.5471	0.0408	0.0016
0.5525	0.0394	0.0016
0.5729	0.034	0.0014
0.5839	0.0323	0.0013
0.5904	0.0309	0.0012
0.5953	0.0294	0.0012
0.5954	0.0298	0.0012
0.6006	0.0288	0.0012
0.6058	0.0277	0.0011
0.6189	0.0243	0.001
0.6351	0.0219	0.0009
0.6526	0.0192	0.0008
0.672	0.0162	0.0006
0.6915	0.0131	0.0005
0.7115	0.0101	0.0004
0.7322	0.0071	0.0003
0.7884	0.0037	0.0001

System: disodium succinate + 1-ethylpyridinium tetrafluoroborate + water; phases: Liquid mixture 2, Liquid mixture 1
Fixed: Temperature, K = 298.15
Fixed: Pressure, kPa = 101.3
Property: Mass fraction of disodium succinate (Liquid mixture 2); method: Titration method
Property: Mass fraction of disodium succinate (Liquid mixture 1); method: Titration method
Property: Mass fraction of 1-ethylpyridinium tetrafluoroborate (Liquid mixture 1); method: Titration method
Mass fraction of 1-ethylpyridinium tetrafluoroborate	Mass fraction of disodium succinate	uncertainty	Mass fraction of disodium succinate	uncertainty	Mass fraction of 1-ethylpyridinium tetrafluoroborate	uncertainty
0.1786	0.1633	0.0065	0.0071	0.0003	0.7512	
0.1851	0.1607	0.0064	0.0078	0.0003	0.7436	
0.1635	0.1696	0.0068	0.0045	0.0002	0.7885	
0.1383	0.1807	0.0072	0.004	0.0002	0.7968	
