Measured thermophysical data. Enthalpies of dilution of aqueous Li2B4O7 solutions at 298.15K and application of ion-interaction model
Source: Thermochim. Acta, 2005, 10.1016/j.tca.2005.04.007
Compound 1: lithium borate, B4Li2O7, InChI=1S/B4O7.2Li/c5-3-7-1-8-4(6,11-3)10-2-9-3;;/q-2;2*+1
Compound 2: water, H2O, InChI=1S/H2O/h1H2

System: water + lithium borate; phases: Liquid
Fixed: Temperature, K = 298.15
Fixed: Pressure, kPa = 101.325
Property: Molar enthalpy of dilution, kJ/mol (Liquid); method: Calvet calorimetry
Initial molality of solute, mol/kg	Final molality of solute, mol/kg	Molar enthalpy of dilution, kJ/mol	uncertainty
0.0212	0.0009	-14.291	0.118
0.0282	0.0014	-16.731	0.138
0.041	0.0029	-17.791	0.146
0.0599	0.0019	-19.941	0.164
0.076	0.0023	-21.231	0.174
0.1121	0.0033	-21.561	0.177
0.1445	0.0116	-16.68	0.137
0.3393	0.01	-20.979	0.172
0.4168	0.0114	-21.083	0.173
0.5321	0.0097	-23.31	0.191
0.7906	0.0114	-23.541	0.193
1.2497	0.0047	-29.203	0.24
1.7096	0.0055	-28.635	0.235
2.153	0.0089	-28.18	0.231
