Measured thermophysical data. REFINED HEAT CAPACITY OF LAPO4 IN THE TEMPERATURE RANGE 0-1600 K
Source: Thermochim. Acta, 2008, 10.1016/j.tca.2008.05.004
Compound 1: lanthanum orthophosphate, LaO4P, InChI=1S/La.H3O4P/c;1-5(2,3)4/h;(H3,1,2,3,4)/q+3;/p-3

System: lanthanum orthophosphate; phases: Crystal
Property: Mass density, kg/m3 (Crystal); method: X-ray diffraction
Temperature, K	Pressure, kPa	Mass density, kg/m3	uncertainty
293	101.325	5076	6

System: lanthanum orthophosphate; phases: Crystal
Fixed: Pressure, kPa = 101.325
Property: Molar heat capacity at constant pressure, J/K/mol (Crystal); method: Small (less than 1 g) adiabatic calorimetry
Temperature, K	Molar heat capacity at constant pressure, J/K/mol	uncertainty
25.03	3.418	0.055
25.8	3.691	0.056
26.57	3.997	0.058
27.34	4.269	0.059
28.12	4.62	0.061
28.89	4.94	0.062
29.68	5.294	0.064
30.46	5.695	0.129
31.24	6.098	0.131
32.03	6.511	0.133
32.86	6.925	0.135
33.65	7.346	0.137
34.44	7.659	0.139
35.24	8.049	0.141
36.04	8.576	0.143
36.84	9.023	0.146
37.64	9.523	0.148
38.44	9.994	0.15
39.25	10.48	0.15
40.05	10.95	0.16
40.86	11.44	0.16
41.67	11.92	0.16
42.48	12.4	0.16
43.29	12.88	0.16
44.1	13.34	0.17
44.92	13.87	0.17
45.76	14.39	0.17
48.2	16.03	0.18
49.02	16.52	0.18
49.84	17.11	0.19
50.65	17.64	0.19
51.47	18.19	0.19
52.29	18.72	0.19
53.11	19.27	0.2
53.93	19.79	0.2
54.75	20.27	0.2
55.57	20.78	0.2
56.4	21.36	0.21
57.22	21.86	0.21
58.04	22.41	0.21
58.89	22.97	0.22
59.72	23.49	0.22
60.54	24.01	0.22
61.37	24.55	0.22
62.2	25.1	0.23
63.03	25.6	0.23
63.86	26.14	0.23
64.69	26.66	0.23
65.52	27.24	0.24
66.35	27.76	0.24
67.19	28.22	0.24
68.02	28.62	0.24
68.86	29.07	0.25
69.7	29.48	0.25
70.93	30.26	0.25
72.58	31.21	0.26
73.58	31.56	0.26
74.82	32.17	0.26
76.07	33.31	0.27
77.32	33.78	0.27
78.55	34.74	0.27
80.58	36.06	0.28
82.23	36.9	0.28
83.88	37.58	0.29
85.53	38.39	0.29
87.18	39.57	0.3
88.83	40.58	0.3
90.48	41.33	0.37
92.13	42.17	0.37
93.78	42.97	0.37
95.43	43.79	0.38
97.08	44.53	0.38
101.86	46.91	0.39
102.42	47.17	0.39
104.27	47.95	0.39
104.88	48.25	0.39
106.71	49.05	0.4
107.34	49.42	0.4
109.16	50.14	0.4
109.8	50.46	0.4
111.6	51.16	0.4
112.25	51.55	0.41
114.04	52.08	0.41
114.7	52.52	0.41
116.47	53.12	0.41
117.16	53.55	0.41
119.61	54.49	0.42
122.06	55.51	0.42
124.51	56.3	0.43
126.96	57.27	0.43
129.4	58.21	0.43
131.85	59.09	0.44
134.29	59.99	0.44
136.73	60.84	0.44
139.17	61.67	0.45
141.61	62.6	0.45
144.05	63.49	0.45
146.46	64.31	0.46
148.9	65.12	0.46
151.33	65.92	0.46
153.76	66.8	0.47
156.18	67.59	0.47
158.61	68.21	0.47
161.03	69.15	0.48
163.45	69.96	0.48
165.87	70.75	0.48
168.29	71.39	0.49
170.7	72.25	0.49
173.11	73.03	0.49
175.52	73.72	0.49
177.92	74.42	0.5
180.31	75.07	0.5
182.7	75.83	0.5
185.04	76.53	0.51
187.44	77.24	0.51
189.83	77.9	0.51
192.21	78.51	0.51
199.36	80.46	0.52
202.14	81.27	0.53
205.3	82.08	0.53
208.46	82.89	0.53
211.61	83.64	0.53
214.75	84.46	0.54
217.89	85.24	0.54
220.27	86.55	0.55
223.51	87.38	0.55
226.73	88.15	0.55
229.94	88.77	0.56
233.13	89.33	0.56
236.34	89.95	0.56
239.53	90.87	0.56
242.69	91.56	0.57
245.83	92.05	0.57
248.99	92.61	0.57
252.14	93.33	0.57
255.28	94.2	0.58
258.37	94.93	0.58
261.31	95.4	0.58
264.37	95.93	0.58
267.41	96.5	0.59
270.48	97.19	0.59
273.52	97.78	0.59
276.54	98.45	0.59
279.55	99	0.6
282.53	99.55	0.6
285.49	100.2	0.6
288.42	100.6	0.6
291.33	101.2	0.6
294.21	101.7	0.6
297.05	102.3	0.6
299.79	102.8	0.6
302.76	103.4	0.6
306.59	104.1	0.6
310.93	105	0.6
315.5	105.8	0.6
320	106.5	0.6
324.45	106.9	0.6

System: lanthanum orthophosphate; phases: Crystal
Fixed: Pressure, kPa = 101.325
Property: Molar heat capacity at constant pressure, J/K/mol (Crystal); method: Small (less than 1 g) adiabatic calorimetry
Temperature, K	Molar heat capacity at constant pressure, J/K/mol	uncertainty
2	0.00122	0.02003
4	0.01153	0.02022
6	0.03674	0.02066
8	0.08437	0.02143
10	0.1669	0.0227
12	0.2994	0.0246
14	0.4971	0.0273
16	0.7738	0.0307
18	1.141	0.035
20	1.605	0.04
25	3.201	0.053
30	5.306	0.127
35	7.89	0.14
40	10.82	0.15
45	13.97	0.17
50	17.23	0.19
60	23.73	0.22
70	29.93	0.25
80	35.68	0.28
90	40.96	0.36
100	45.82	0.38
110	50.3	0.4
120	54.48	0.42
130	58.4	0.43
140	62.1	0.45
150	65.6	0.46
160	68.93	0.48
170	72.09	0.49
180	75.12	0.5
190	78.01	0.51
200	80.78	0.52
210	83.44	0.53
220	85.98	0.54
230	88.41	0.55
240	90.75	0.56
250	92.99	0.57
260	95.13	0.58
270	97.19	0.59
280	99.17	0.6
290	101.1	0.6
300	102.9	0.6
320	106.3	0.6
340	109.4	0.6
360	112.3	0.7
373	113.9	0.7
400	117.1	0.7
450	122	0.7
500	126	0.7
550	129.4	0.7
600	132.4	0.7
650	135.2	0.7
700	137.7	0.8
750	140.1	0.8
800	142.4	0.8
850	144.6	0.8
900	146.7	0.8
950	148.7	0.8
1000	150.8	0.8
1050	152.8	0.8
1100	154.7	0.8
1150	156.6	0.8
1200	158.5	0.8
1250	160.4	0.8
1300	162.3	0.9
1350	164.2	0.9
1400	166	0.9
1450	167.9	0.9
1500	169.7	0.9
1550	171.5	0.9
1600	173.4	0.9

System: lanthanum orthophosphate; phases: Crystal
Fixed: Pressure, kPa = 101.325
Property: Molar enthalpy, kJ/mol (Crystal); method: Small (less than 1 g) adiabatic calorimetry
Temperature, K	Molar enthalpy, kJ/mol	uncertainty
2	6.1e-07	4.002e-05
4	1.169e-05	8.022e-05
6	5.778e-05	0.00012103
8	0.0001754	0.000163
10	0.0004214	0.0002068
12	0.0008805	0.0002535
14	0.001668	0.000304
16	0.002928	0.00036
18	0.004831	0.000423
20	0.007565	0.000492
25	0.01934	0.0007
30	0.04039	0.0032
35	0.07321	0.00387
40	0.1199	0.0046
45	0.1818	0.0054
50	0.2598	0.0063
60	0.4647	0.0083
70	0.7333	0.0107
80	1.062	0.013
90	1.445	0.024
100	1.88	0.028
110	2.361	0.031
120	2.885	0.036
130	3.449	0.04
140	4.052	0.044
150	4.691	0.049
160	5.363	0.053
170	6.069	0.058
180	6.805	0.063
190	7.57	0.068
200	8.365	0.073
210	9.186	0.079
220	10.03	0.084
230	10.9	0.09
240	11.8	0.095
250	12.72	0.101
260	13.66	0.107
270	14.62	0.112
280	15.6	0.118
290	16.6	0.124
300	17.62	0.13
320	19.72	0.143
340	21.87	0.155
360	24.09	0.168
373	25.56	0.177
400	28.68	0.195
450	34.67	0.229
500	40.87	0.263
550	47.26	0.299
600	53.81	0.335
650	60.5	0.372
700	67.32	0.409
750	74.27	0.447
800	81.33	0.485
850	88.5	0.524
900	95.78	0.563
950	103.17	0.603
1000	110.66	0.643
1050	118.25	0.683
1100	125.93	0.724
1150	133.72	0.765
1200	141.6	0.806
1250	149.57	0.848
1300	157.64	0.891
1350	165.8	0.933
1400	174.06	0.976
1450	182.41	1.02
1500	190.85	1.063
1550	199.38	1.108
1600	208	1.152

System: lanthanum orthophosphate; phases: Crystal
Fixed: Pressure, kPa = 101.325
Property: Molar entropy, J/K/mol (Crystal); method: Small (less than 1 g) adiabatic calorimetry
Temperature, K	Molar entropy, J/K/mol	uncertainty
2	0.00041	0.03001
4	0.00372	0.0301
6	0.01262	0.03033
8	0.0291	0.03073
10	0.0561	0.03135
12	0.09746	0.03223
14	0.1576	0.0334
16	0.2412	0.0349
18	0.3527	0.0368
20	0.4961	0.039
25	1.015	0.045
30	1.776	0.163
35	2.783	0.171
40	4.024	0.18
45	5.479	0.191
50	7.119	0.204
60	10.84	0.23
70	14.97	0.26
80	19.34	0.3
90	23.86	0.44
100	28.43	0.47
110	33.01	0.5
120	37.56	0.53
130	42.08	0.55
140	46.55	0.58
150	50.59	0.6
160	55.29	0.63
170	59.57	0.66
180	63.77	0.68
190	67.91	0.71
200	71.98	0.73
210	75.99	0.76
220	79.93	0.78
230	83.81	0.8
240	87.62	0.83
250	91.37	0.85
260	95.06	0.87
270	98.69	0.89
280	102.3	0.9
290	105.8	0.9
300	109.2	1
320	116	1
340	122.5	1
360	128.8	1.1
373	132.9	1.1
400	141	1.1
450	155.1	1.2
500	168.2	1.3
550	180.3	1.4
600	191.7	1.5
650	202.4	1.5
700	212.6	1.6
750	222.1	1.6
800	231.3	1.7
850	240	1.7
900	248.3	1.8
950	256.3	1.8
1000	263.9	1.9
1050	271.3	1.9
1100	278.5	2
1150	285.4	2
1200	292.1	2.1
1250	298.6	2.1
1300	305	2.1
1350	311.1	2.2
1400	317.1	2.2
1450	323	2.2
1500	328.7	2.3
1550	334.3	2.3
1600	339.8	2.3
