Measured thermophysical data. Thermodynamic properties of cyclohexanamines: Experimental and theoretical study
Source: Thermochim. Acta, 2015, 10.1016/j.tca.2015.03.016
Compound 1: cyclohexylamine, C6H13N, InChI=1S/C6H13N/c7-6-4-2-1-3-5-6/h6H,1-5,7H2, purity 99.9%
Compound 2: N-methylcyclohexylamine, C7H15N, InChI=1S/C7H15N/c1-8-7-5-3-2-4-6-7/h7-8H,2-6H2,1H3, purity 99%
Compound 3: N,N-dimethylcyclohexylamine, C8H17N, InChI=1S/C8H17N/c1-9(2)8-6-4-3-5-7-8/h8H,3-7H2,1-2H3, purity 99%
Compound 4: N-cyclohexylcyclohexanamine, C12H23N, InChI=1S/C12H23N/c1-3-7-11(8-4-1)13-12-9-5-2-6-10-12/h11-13H,1-10H2, purity 99%

System: cyclohexylamine; phases: Liquid, Gas
Property: Vapor or sublimation pressure, kPa (Liquid); method: Transpiration method
Temperature, K	Vapor or sublimation pressure, kPa	uncertainty
283.2	0.4635	0.0291
286.2	0.5583	0.0351
290.1	0.7237	0.0454
293.3	0.9124	0.0569
296.2	1.0605	0.0659
298.1	1.182	0.0738
299.3	1.28	0.0802
302.3	1.5408	0.0958
305.3	1.7879	0.1111
308.3	2.1146	0.1314

System: N-methylcyclohexylamine; phases: Liquid, Gas
Property: Vapor or sublimation pressure, kPa (Liquid); method: Transpiration method
Temperature, K	Vapor or sublimation pressure, kPa	uncertainty
275.2	0.1412	0.0091
278.2	0.1788	0.0113
281.2	0.2211	0.014
284.2	0.2727	0.0171
287.2	0.3362	0.0211
290.4	0.4224	0.0264
293.2	0.4889	0.0306
296.2	0.606	0.0381
299.2	0.7392	0.0463
302.2	0.8882	0.0553
305.2	1.0435	0.0652
308.3	1.2785	0.0799
311.2	1.51	0.0941
314.2	1.7839	0.1108

System: N,N-dimethylcyclohexylamine; phases: Liquid, Gas
Property: Vapor or sublimation pressure, kPa (Liquid); method: Transpiration method
Temperature, K	Vapor or sublimation pressure, kPa	uncertainty
275.3	0.0902	0.0058
275.3	0.0943	0.006
275.4	0.0923	0.0058
278.3	0.1123	0.0071
281.2	0.1456	0.0093
284.2	0.1766	0.011
287.2	0.2125	0.0133
290.3	0.2601	0.0163
293.2	0.3186	0.02
296.2	0.383	0.024
299.2	0.472	0.0295
302.2	0.5659	0.0353
305.3	0.6634	0.0414
308.3	0.8071	0.0502
311.2	0.912	0.0567
314.3	1.1057	0.0689

System: N-cyclohexylcyclohexanamine; phases: Liquid, Gas
Property: Vapor or sublimation pressure, kPa (Liquid); method: Transpiration method
Temperature, K	Vapor or sublimation pressure, kPa	uncertainty
295.4	0.00322	0.00026
298.3	0.00416	0.00031
301.2	0.0055	0.00039
304.2	0.00706	0.00048
307.2	0.00889	0.00061
310.2	0.01123	0.00076
313.2	0.01433	0.00094
315.1	0.0165	0.00109
318.3	0.02093	0.00136
321.2	0.02576	0.00166
324.2	0.03192	0.00204
327.2	0.03941	0.00252
330.2	0.0492	0.00312
333.2	0.05903	0.00371
