Measured thermophysical data. Construction of solid liquid phase diagrams in ternary systems by titration calorimetry
Source: Thermochim. Acta, 2006, 10.1016/j.tca.2006.02.017
Compound 1: methanol, CH4O, InChI=1S/CH4O/c1-2/h2H,1H3
Compound 2: vanillin, C8H8O3, InChI=1S/C8H8O3/c1-11-8-4-6(5-9)2-3-7(8)10/h2-5,10H,1H3
Compound 3: water, H2O, InChI=1S/H2O/h1H2, purity 99.99%
Compound 4: ethanol, C2H6O, InChI=1S/C2H6O/c1-2-3/h3H,2H2,1H3, purity 99.5%
Compound 5: propan-1-ol, C3H8O, InChI=1S/C3H8O/c1-2-3-4/h4H,2-3H2,1H3
Compound 6: 2-methoxybenzaldehyde, C8H8O2, InChI=1S/C8H8O2/c1-10-8-5-3-2-4-7(8)6-9/h2-6H,1H3
Compound 7: 1,3,5-trimethoxybenzene, C9H12O3, InChI=1S/C9H12O3/c1-10-7-4-8(11-2)6-9(5-7)12-3/h4-6H,1-3H3

System: methanol + vanillin + water; phases: Liquid, Crystal
Fixed: Pressure, kPa = 101
Property: Mole fraction of vanillin (Liquid); method: Titration method
Temperature, K	Mole fraction of methanol	Mole fraction of vanillin	uncertainty
303.15	0	0.0396	0.0011
303.15	0.0265	0.0215	0.0006
303.15	0.0353	0.023	0.0006
303.15	0.046	0.0132	0.0003
303.15	0.1015	0.0219	0.0006
303.15	0.104	0.006	0.0003
303.15	0.1743	0.0465	0.0027
303.15	0.1866	0.0256	0.0024
303.15	0.21	0.017	0.0025
303.15	0.223	0.0921	0.0033
303.15	0.2671	0.1138	0.0031
303.15	0.274	0.114	0.0031
303.15	0.2843	0.1345	0.0035
303.15	0.316	0.136	0.0033
303.15	0.3837	0.2231	0.0053
303.15	0.394	0.26	0.0063
303.15	0.4412	0.2179	0.005
303.15	0.4491	0.2213	0.0054
303.15	0.465	0.294	0.007
303.15	0.4768	0.2542	0.0059
303.15	0.5647	0.246	0.0056
303.15	0.5709	0.2574	0.0058
303.15	0.6958	0.3043	0.0062
303.15	0.7047	0.2953	0.006
303.15	0.726	0.274	0.0054
303.15	0.741	0.259	0.005
303.15	0	0.002	0.0001
303.15	0.21	0.071	0.0029
313.15	0	0.008	0.0004
313.15	0.043	0.0106	0.0003
313.15	0.0917	0.0578	0.0017
313.15	0.1412	0.1974	0.0058
313.15	0.1875	0.2668	0.008
313.15	0.272	0.2726	0.0075
313.15	0.3425	0.2861	0.0075
313.15	0.413	0.315	0.0079
313.15	0.4901	0.3086	0.0073
313.15	0.682	0.318	0.0066

System: ethanol + vanillin + water; phases: Liquid, Crystal
Fixed: Pressure, kPa = 101
Property: Mole fraction of vanillin (Liquid); method: Titration method
Temperature, K	Mole fraction of ethanol	Mole fraction of vanillin	uncertainty
303.15	0	0.0396	0.0011
303.15	0.0575	0.0405	0.001
303.15	0.067	0.008	0.0007
303.15	0.1083	0.0361	0.0019
303.15	0.137	0.066	0.0024
303.15	0.1429	0.0711	0.0024
303.15	0.1488	0.0799	0.0025
303.15	0.203	0.15	0.0057
303.15	0.2039	0.1641	0.0059
303.15	0.215	0.14	0.0034
303.15	0.2349	0.1664	0.0039
303.15	0.2556	0.1684	0.0038
303.15	0.2777	0.1968	0.0042
303.15	0.278	0.196	0.0042
303.15	0.2798	0.1906	0.0041
303.15	0.3159	0.224	0.0046
303.15	0.3586	0.2228	0.0044
303.15	0.359	0.222	0.0044
303.15	0.3847	0.2397	0.0046
303.15	0.427	0.231	0.0042
303.15	0.465	0.236	0.0041
303.15	0.4692	0.2432	0.0042
303.15	0.518	0.238	0.004
303.15	0.5561	0.2382	0.0039
303.15	0.6015	0.2297	0.0036
303.15	0.62	0.231	0.0035
303.15	0.6749	0.2277	0.0033
303.15	0.768	0.232	0.003
303.15	0.779	0.221	0.0028
303.15	0	0.002	0.0001
303.15	0.137	0.066	0.0024
303.15	0.465	0.237	0.0041
313.15	0	0.008	0.0004
313.15	0.0267	0.0104	0.0004
313.15	0.0458	0.0144	0.0004
313.15	0.0564	0.0361	0.0009
313.15	0.0675	0.0728	0.0019
313.15	0.0828	0.1508	0.004
313.15	0.1141	0.221	0.0061
313.15	0.144	0.2568	0.007
313.15	0.1647	0.2847	0.0076
313.15	0.1843	0.3302	0.0089
313.15	0.2404	0.3226	0.0079
313.15	0.2771	0.319	0.0074
313.15	0.2859	0.3343	0.0077
313.15	0.33	0.3351	0.0073
313.15	0.4173	0.3391	0.0067
313.15	0.4902	0.3566	0.0065
313.15	0.663	0.337	0.0052

System: propan-1-ol + vanillin + water; phases: Liquid, Crystal
Fixed: Pressure, kPa = 101
Property: Mole fraction of vanillin (Liquid); method: Titration method
Temperature, K	Mole fraction of propan-1-ol	Mole fraction of vanillin	uncertainty
303.15	0	0.0396	0.0011
303.15	0.0671	0.0424	0.0014
303.15	0.1	0.097	0.0026
303.15	0.1163	0.1023	0.0027
303.15	0.135	0.147	0.0036
303.15	0.1476	0.1393	0.0032
303.15	0.1947	0.1746	0.0037
303.15	0.2378	0.1954	0.004
303.15	0.2917	0.2227	0.0041
303.15	0.3638	0.2354	0.0038
303.15	0.482	0.235	0.0033
303.15	0.4889	0.2334	0.0033
303.15	0.8247	0.1753	0.0016
303.15	0	0.002	0.0001
303.15	0.1	0.098	0.0026
313.15	0	0.008	0.0004
313.15	0.0184	0.1243	0.0034
313.15	0.057	0.1566	0.0043
313.15	0.0827	0.2136	0.0057
313.15	0.1188	0.276	0.0071
313.15	0.175	0.301	0.007
313.15	0.2196	0.3436	0.0076
313.15	0.2632	0.3403	0.0069
313.15	0.3419	0.3313	0.0058
313.15	0.4496	0.3449	0.0052
313.15	0.6951	0.3049	0.005

System: ethanol + 2-methoxybenzaldehyde + water; phases: Liquid, Crystal
Fixed: Temperature, K = 303.15
Fixed: Pressure, kPa = 101
Property: Mole fraction of 2-methoxybenzaldehyde (Liquid); method: Titration method
Mole fraction of ethanol	Mole fraction of 2-methoxybenzaldehyde	uncertainty
0	0.0652	0.0016
0.0332	0.1016	0.0024
0.0653	0.1584	0.0038
0.0686	0.7454	0.0468
0.0692	0.2981	0.0083
0.0697	0.3878	0.0122
0.0712	0.5756	0.0244
0.0718	0.6616	0.0333
0.0885	0.473	0.0161
0.0924	0.7491	0.043
0.1075	0.757	0.0418
0.1257	0.7705	0.0411
0.1415	0.7996	0.0431
0.2	0.8	0.0355

System: ethanol + 1,3,5-trimethoxybenzene + water; phases: Liquid, Crystal
Fixed: Pressure, kPa = 101
Fixed: Temperature, K = 303.15
Property: Mole fraction of 1,3,5-trimethoxybenzene (Liquid); method: Titration method
Mole fraction of ethanol	Mole fraction of 1,3,5-trimethoxybenzene	uncertainty
0	0.0023	0.0001
0.0001	0.0713	0.0022
0.0676	0.1127	0.0309
0.1957	0.0544	0.0213
0.2477	0.0549	0.0195
0.3036	0.0644	0.0029
0.3784	0.0548	0.0025
0.5223	0.0486	0.0046
0.6491	0.0676	0.0098
0.912	0.088	0.0069
