Measured thermophysical data. Heat capacity, enthalpy and entropy of bismuth strontium niobate and bismuth strontium tantalate
Source: Thermochim. Acta, 2006, 10.1016/j.tca.2006.09.006
Compound 1: bismuth niobium strontium oxide (Bi2Nb2SrO9), Bi2Nb2O9Sr, InChI=1S/2Bi.2Nb.9O.Sr/q2*+3;2*+5;9*-2;+2, purity 92%
Compound 2: strontium bismuth tantalate, Bi2O9SrTa2, InChI=1S/2Bi.9O.Sr.2Ta/q2*+3;9*-2;+2;2*+5, purity 95%

System: bismuth niobium strontium oxide (Bi2Nb2SrO9); phases: Crystal
Fixed: Pressure, kPa = 101.325
Property: Molar heat capacity at constant pressure, J/K/mol (Crystal); method: Large sample (1 g) DSC
Temperature, K	Molar heat capacity at constant pressure, J/K/mol	uncertainty
307.9	291.7	
317.8	295.4	
327.7	299.4	
337.7	301.5	
347.6	303.6	
357.6	306	
367.5	308.4	
377.5	310.7	
387.4	313.3	
397.4	316.5	
407.3	318.7	
417.3	320.5	
427.2	322.5	
437.2	324.2	
447.1	326.5	
457	330	
464.5	329.8	
469.4	331.1	
474.4	333.2	
479.4	332.9	
484.3	333.7	
489.3	334	
493.9	337.2	
499.2	335.5	
504.2	336.9	
509.2	337.1	
513.8	339.2	
519.1	340.2	
524.1	340.6	
529	341.9	
533.7	339.7	
538.6	341.7	
543.6	343.5	
548.5	342.6	
553.5	343.4	
558.5	344.9	
562.2	343.6	
569.1	345.4	

System: bismuth niobium strontium oxide (Bi2Nb2SrO9); phases: Crystal
Fixed: Pressure, kPa = 101.325
Property: Molar heat capacity at constant pressure, J/K/mol (Crystal); method: AC calorimetry
Temperature, K	Molar heat capacity at constant pressure, J/K/mol	uncertainty
2.1	0.01	
2.2	0.02	
2.3	0.02	
2.5	0.02	
2.6	0.02	
2.6	0.03	
2.8	0.03	
2.9	0.03	
3	0.04	
3.2	0.04	
3.3	0.05	
3.5	0.06	
3.7	0.07	
3.8	0.08	
4	0.09	
4.2	0.11	
4.4	0.13	
4.6	0.15	
4.8	0.17	
5	0.2	
5.3	0.23	
5.5	0.27	
5.7	0.32	
6	0.38	
6.3	0.44	
6.6	0.52	
6.8	0.58	
7.2	0.69	
7.4	0.78	
7.8	0.9	
8.1	1.04	
8.5	1.21	
8.9	1.41	
9.3	1.63	
9.8	1.88	
10.2	2.17	
10.7	2.48	
11.2	2.84	
11.7	3.24	
12.3	3.68	
12.8	4.16	
13.4	4.71	
14.1	5.27	
14.7	5.93	
15.4	6.71	
16.1	7.5	
16.9	8.17	
17.7	9.24	
18.5	10.32	
19.3	11.46	
20.2	12.29	
21.2	13.34	
22.2	15.18	
23.2	16.03	
24.3	18.14	
25.4	19.71	
26.6	21.78	
27.9	23.43	
29.2	25.45	
30.5	27.53	
32	29.91	
33.5	32.63	
35	35.12	
36.7	36.75	
38.4	40.79	
40.2	44.46	
42.1	47.48	
44.1	50.73	
46.1	53.07	
48.3	56.8	
50.6	60.58	
52.9	64.5	
55.4	68.6	
58	72.87	
60.7	77.34	
63.6	81.84	
66.6	86.39	
69.7	91.1	
73	95.91	
76.4	100.7	
80	105.8	
83.7	110.8	
87.7	116.4	
91.8	122	
96.1	127.9	
100.6	133.9	
105.3	140.1	
110.3	146.1	
115.5	152.2	
120.9	158.3	
126.5	164.5	
132.5	170.5	
138.7	177	
145.2	183.1	
152	188.9	

System: bismuth niobium strontium oxide (Bi2Nb2SrO9); phases: Crystal
Fixed: Pressure, kPa = 101.325
Property: Molar enthalpy, kJ/mol (Crystal); method: Drop calorimetry
Temperature, K	Molar enthalpy, kJ/mol	uncertainty
772.7	161.491	
772.8	166.626	
822.2	180.657	
822.2	178.821	
822.4	177.68	
873	201.248	
873	195.492	
923.1	213.163	
923.3	214.081	
973.4	238.979	
973.5	242.274	
1023.5	258.516	
1023.5	257.532	
1023.6	247.457	
1073.7	283.781	
1073.8	276.23	
1123	282.217	
1123	289.654	
1174	311.192	
1223.3	327.265	
1223.3	335.376	
1223.5	333.917	
1273.5	340.456	
1322.8	373.592	
1322.9	367.291	
1323	362.06	
1372.2	375.423	
1372.3	381.994	

System: strontium bismuth tantalate; phases: Crystal
Fixed: Pressure, kPa = 101.325
Property: Molar heat capacity at constant pressure, J/K/mol (Crystal); method: AC calorimetry
Temperature, K	Molar heat capacity at constant pressure, J/K/mol	uncertainty
2.1	0.01	
2.2	0.01	
2.3	0.02	
2.4	0.02	
2.5	0.02	
2.6	0.02	
2.7	0.02	
2.8	0.03	
2.9	0.03	
3	0.03	
3.1	0.04	
3.2	0.04	
3.4	0.05	
3.5	0.05	
3.6	0.06	
3.8	0.07	
3.9	0.08	
4	0.09	
4.2	0.1	
4.4	0.12	
4.5	0.14	
4.7	0.16	
4.9	0.18	
5	0.2	
5.1	0.21	
5.2	0.24	
5.3	0.24	
5.5	0.29	
5.8	0.35	
6.1	0.43	
6.3	0.51	
6.7	0.6	
7	0.74	
7.3	0.85	
7.7	1.01	
8.1	1.2	
8.5	1.42	
8.9	1.68	
9.4	1.98	
9.8	2.32	
10.3	2.72	
10.9	3.15	
11.4	3.65	
12	4.19	
12.6	4.8	
13.3	5.47	
14	6.22	
14.7	7.07	
15.4	7.93	
16.2	8.89	
17.1	10.01	
18	11.21	
18.9	12.45	
19.9	13.91	
20.9	15.42	
22	17.02	
23.1	18.76	
24.3	20.56	
25.5	22.61	
26.8	25.07	
28.2	27.26	
29.7	29.85	
31.2	32.62	
32.8	35.53	
34.5	38.25	
36.3	41.61	
38.2	44.85	
40.2	47.83	
42.2	51.03	
44.4	54.83	
46.7	59.22	
49.1	63.41	
51.7	67.7	
54.3	72.32	
57.1	77.03	
60.1	81.95	
63.2	86.97	
66.5	92.11	
69.9	97.37	
73.6	102.7	
77.4	108.2	
81.4	113.8	
85.6	119.5	
90	125.6	
94.7	132	
99.6	138.5	
104.7	145.2	
110.2	151.9	
115.9	158.6	
121.9	165	
128.2	171.5	
134.8	178.2	
141.8	185	
149.2	191.2	

System: strontium bismuth tantalate; phases: Crystal
Fixed: Pressure, kPa = 101.325
Property: Molar heat capacity at constant pressure, J/K/mol (Crystal); method: Large sample (1 g) DSC
Temperature, K	Molar heat capacity at constant pressure, J/K/mol	uncertainty
307.7	290.4	
315.6	293.5	
317.6	294	
320.5	296.2	
327.6	297.5	
328	298.4	
337.5	300.2	
337.9	301.8	
347.4	302.8	
347.9	303.4	
357.4	305.4	
357.8	306	
367.3	307.9	
367.7	308.3	
377.2	310.3	
377.6	310.6	
387.1	312.5	
387.6	312.7	
397	314.8	
397.5	314.3	
407	317.1	
407.4	316.9	
416.9	319	
417.3	318.6	
426.8	321.4	
427.2	320.8	
436.7	323	
437.2	322.6	
445.1	325.4	
446.7	325.2	
449.6	325.6	
454.6	326.5	
456.6	326.5	
459.5	327.2	
464.1	328.7	
465	328.7	
469	329.3	
469.4	329.2	
474	330.6	
474.4	329.7	
478.9	330.2	
479.4	330.4	
483.9	331	
484.8	332.6	
488.9	332.2	
489.3	332.9	
493.8	333	
494.3	334	
498.8	334.3	
499.2	333.6	
503.8	335.8	
504.7	334.2	
508.7	335.3	
509.2	335	
513.7	336	
514.1	336	
518.6	336.7	
519.1	336.9	
523.6	337.2	
524.5	337	
529	337.5	
533.5	337.4	
534	338.9	
538.5	338.7	
538.9	341.3	
543.5	341.4	
544.4	340.7	
548.4	340.2	
548.9	341	
553.4	341.1	
553.8	342.1	
558.3	342.2	
558.8	342.9	
564.3	343.8	
564.5	343	
567	343.2	

System: strontium bismuth tantalate; phases: Crystal
Fixed: Pressure, kPa = 101.325
Property: Molar enthalpy, kJ/mol (Crystal); method: Drop calorimetry
Temperature, K	Molar enthalpy, kJ/mol	uncertainty
772.6	156.745	
772.6	155.716	
821.6	182.454	
821.7	174.175	
872.7	197.073	
872.7	200.269	
922.9	209.727	
922.9	214.121	
972.8	235.747	
972.9	230.245	
1022.6	247.199	
1022.6	245.787	
1072.9	265.666	
1122.9	282.911	
1122.9	294.21	
1222.9	327.165	
1222.9	320.125	
1322.5	359.916	
1322.5	361.688	
