Measured thermophysical data. Thermal conductivity of the tungsten-copper composites
Source: Thermochim. Acta, 2012, 10.1016/j.tca.2012.03.022
Compound 1: tungsten, W, InChI=1S/W
Compound 2: copper, Cu, InChI=1S/Cu

System: tungsten + copper; phases: Crystal
Fixed: Pressure, kPa = 101
Property: Molar heat capacity at constant pressure, J/K/mol (Crystal); method: Small sample (50 mg) DSC
Mass fraction of tungsten	Temperature, K	Molar heat capacity at constant pressure, J/K/mol	uncertainty
0.728	295.15	25.8970242004527	1.10432483703899
0.728	373.15	26.5887441533233	1.12859571257831
0.728	473.15	27.1105679774187	1.15286658811762
0.728	573.15	27.4260893594298	1.16500202588728
0.728	673.15	27.8872359946768	1.17713746365694
0.761	295.15	24.669249513691	1.05056321684779
0.761	373.15	25.1249154872635	1.06322060500259
0.761	473.15	25.6058962371456	1.08853538131217
0.761	573.15	25.9096735528607	1.10119276946696
0.761	673.15	26.0362474344086	1.10119276946696
0.837	295.15	26.9600359345168	1.13796920828341
0.837	373.15	27.5219960373728	1.16606721342621
0.837	473.15	28.0699071376574	1.19416521856901
0.837	573.15	28.407083199371	1.20821422114041
0.837	673.15	28.6599652456562	1.22226322371181
0.889	295.15	25.6589720760969	1.0938105325512
0.889	373.15	26.2058773423725	1.1090023455033
0.889	473.15	26.6768235438876	1.1393859714075
0.889	573.15	26.9502761770254	1.1393859714075
0.889	673.15	27.193345184259	1.1545777843596
0.913	295.15	25.8075229883628	1.0891248233621
0.913	373.15	26.0758580897708	1.10490924109198
0.913	473.15	26.4546841152881	1.12069365882187
0.913	573.15	26.7545880521559	1.13647807655176
0.913	673.15	26.880863393995	1.13647807655176
