Measured thermophysical data. Novel model for the prediction of SSLE temperatures andcrystallization paths of any mixture containing palmitic, stearic, oleic,linoleic and linolenic acid
Source: Thermochim. Acta, 2017, 10.1016/j.tca.2017.03.015
Compound 1: hexadecanoic acid, C16H32O2, InChI=1S/C16H32O2/c1-2-3-4-5-6-7-8-9-10-11-12-13-14-15-16(17)18/h2-15H2,1H3,(H,17,18)
Compound 2: octadecanoic acid, C18H36O2, InChI=1S/C18H36O2/c1-2-3-4-5-6-7-8-9-10-11-12-13-14-15-16-17-18(19)20/h2-17H2,1H3,(H,19,20)
Compound 3: (Z)-9-octadecenoic acid, C18H34O2, InChI=1S/C18H34O2/c1-2-3-4-5-6-7-8-9-10-11-12-13-14-15-16-17-18(19)20/h9-10H,2-8,11-17H2,1H3,(H,19,20)/b10-9-
Compound 4: (Z,Z)-9,12-octadecadienoic acid, C18H32O2, InChI=1S/C18H32O2/c1-2-3-4-5-6-7-8-9-10-11-12-13-14-15-16-17-18(19)20/h6-7,9-10H,2-5,8,11-17H2,1H3,(H,19,20)/b7-6-,10-9-
Compound 5: all-cis-9,12,15-octadecatrienoic acid, C18H30O2, InChI=1S/C18H30O2/c1-2-3-4-5-6-7-8-9-10-11-12-13-14-15-16-17-18(19)20/h3-4,6-7,9-10H,2,5,8,11-17H2,1H3,(H,19,20)/b4-3-,7-6-,10-9-

System: hexadecanoic acid; phases: Crystal, Liquid, Air at 1 atmosphere
Property: Normal melting temperature, K (Crystal); method: DTA
Normal melting temperature, K	uncertainty
335.69	0.87

System: octadecanoic acid; phases: Crystal, Liquid, Air at 1 atmosphere
Property: Normal melting temperature, K (Crystal); method: DTA
Normal melting temperature, K	uncertainty
342.51	0.87

System: (Z)-9-octadecenoic acid; phases: Crystal 1, Liquid, Air at 1 atmosphere
Property: Normal melting temperature, K (Crystal 1); method: DTA
Normal melting temperature, K	uncertainty
286.26	0.87

System: (Z)-9-octadecenoic acid; phases: Crystal 2, Crystal 1, Air at 1 atmosphere
Property: Triple point temperature, K (Crystal 2); method: DSC
Triple point temperature, K	uncertainty
266.53	1.07

System: (Z,Z)-9,12-octadecadienoic acid; phases: Crystal, Liquid, Air at 1 atmosphere
Property: Normal melting temperature, K (Crystal); method: DTA
Normal melting temperature, K	uncertainty
267.94	0.87

System: all-cis-9,12,15-octadecatrienoic acid; phases: Crystal, Liquid, Air at 1 atmosphere
Property: Normal melting temperature, K (Crystal); method: DTA
Normal melting temperature, K	uncertainty
262.28	0.87

System: hexadecanoic acid + (Z)-9-octadecenoic acid; phases: Crystal, Crystal, Liquid, Air at 1 atmosphere
Property: Eutectic temperature, K (Crystal); method: DTA
Eutectic temperature, K	uncertainty
285.24	0.87

System: hexadecanoic acid + (Z)-9-octadecenoic acid; phases: Liquid, Crystal
Fixed: Pressure, kPa = 101.8
Property: Solid-liquid equilibrium temperature, K (Liquid); method: DTA
Mole fraction of hexadecanoic acid	Solid-liquid equilibrium temperature, K	uncertainty
0	286.26	0.87
0.02	285.72	0.88

System: hexadecanoic acid + (Z)-9-octadecenoic acid; phases: Liquid, Crystal
Fixed: Pressure, kPa = 101.8
Property: Solid-liquid equilibrium temperature, K (Liquid); method: DTA
Mole fraction of hexadecanoic acid	Solid-liquid equilibrium temperature, K	uncertainty
0.04	285.42	0.97
0.06	289.57	0.97
0.08	293.74	0.98
0.1	298.52	1
0.2	308.02	0.89
0.3	314.66	0.88
1	335.69	0.87

System: hexadecanoic acid + (Z,Z)-9,12-octadecadienoic acid; phases: Crystal, Crystal, Liquid, Air at 1 atmosphere
Property: Eutectic temperature, K (Crystal); method: DTA
Eutectic temperature, K	uncertainty
267.2	0.87

System: hexadecanoic acid + (Z,Z)-9,12-octadecadienoic acid; phases: Liquid, Crystal
Fixed: Pressure, kPa = 101.8
Property: Solid-liquid equilibrium temperature, K (Liquid); method: DTA
Mole fraction of hexadecanoic acid	Solid-liquid equilibrium temperature, K	uncertainty
0.02	273.87	1.57
0.04	286.9	1.24
0.06	291.4	0.97
0.08	295.27	0.93
0.1	297.89	0.91
0.2	308.75	0.89
0.3	314.71	0.88
1	335.69	0.87

System: hexadecanoic acid + all-cis-9,12,15-octadecatrienoic acid; phases: Crystal, Crystal, Liquid, Air at 1 atmosphere
Property: Eutectic temperature, K (Crystal); method: DTA
Eutectic temperature, K	uncertainty
261.29	0.87

System: hexadecanoic acid + all-cis-9,12,15-octadecatrienoic acid; phases: Liquid, Crystal
Fixed: Pressure, kPa = 101.8
Property: Solid-liquid equilibrium temperature, K (Liquid); method: DTA
Mole fraction of hexadecanoic acid	Solid-liquid equilibrium temperature, K	uncertainty
0.02	279.47	1.22
0.04	287.91	1.13
0.06	293.68	0.99
0.08	297.2	0.95
0.1	301.1	0.96
0.2	311.11	0.89
0.3	316.01	0.88
1	335.69	0.87

System: octadecanoic acid + (Z)-9-octadecenoic acid; phases: Crystal, Crystal, Liquid, Air at 1 atmosphere
Property: Eutectic temperature, K (Crystal); method: DTA
Eutectic temperature, K	uncertainty
286	0.87

System: octadecanoic acid + (Z)-9-octadecenoic acid; phases: Liquid, Crystal
Fixed: Pressure, kPa = 101.8
Property: Solid-liquid equilibrium temperature, K (Liquid); method: DTA
Mole fraction of octadecanoic acid	Solid-liquid equilibrium temperature, K	uncertainty
0.02	285.97	1.47
0.04	297.83	1.21
0.06	302.83	0.95
0.08	305.43	0.92
0.1	308.76	0.94
0.2	318.03	0.89
0.3	323.8	0.88
1	342.51	0.87

System: octadecanoic acid + (Z,Z)-9,12-octadecadienoic acid; phases: Crystal, Crystal, Liquid, Air at 1 atmosphere
Property: Eutectic temperature, K (Crystal); method: DTA
Eutectic temperature, K	uncertainty
267.48	0.87

System: octadecanoic acid + (Z,Z)-9,12-octadecadienoic acid; phases: Liquid, Crystal
Fixed: Pressure, kPa = 101.8
Property: Solid-liquid equilibrium temperature, K (Liquid); method: DTA
Mole fraction of octadecanoic acid	Solid-liquid equilibrium temperature, K	uncertainty
0.02	290.05	1.14
0.04	297.38	1.09
0.06	303.19	0.99
0.08	306.63	0.93
0.099	309.07	0.91
0.2	318.91	0.89
0.3	324.12	0.88
1	342.51	0.87

System: octadecanoic acid + all-cis-9,12,15-octadecatrienoic acid; phases: Crystal, Crystal, Liquid, Air at 1 atmosphere
Property: Eutectic temperature, K (Crystal); method: DTA
Eutectic temperature, K	uncertainty
261.17	0.87

System: octadecanoic acid + all-cis-9,12,15-octadecatrienoic acid; phases: Liquid, Crystal
Fixed: Pressure, kPa = 101.8
Property: Solid-liquid equilibrium temperature, K (Liquid); method: DTA
Mole fraction of octadecanoic acid	Solid-liquid equilibrium temperature, K	uncertainty
0.02	290.87	1.22
0.04	299.43	1.1
0.06	304.33	0.97
0.08	307.75	0.93
0.1	310.35	0.91
0.2	318.93	0.89
0.3	325.4	0.88
1	342.51	0.87
