Measured thermophysical data. Thermochemistry of decomposition of RE2O2CO3 (RE = Sm, Eu)
Source: Thermochim. Acta, 2008, 10.1016/j.tca.2008.08.008
Compound 1: samarium oxide (Sm2O3), O3Sm2, InChI=1S/3O.2Sm/q3*-2;2*+3
Compound 2: carbon dioxide, CO2, InChI=1S/CO2/c2-1-3
Compound 3: europium oxide (Eu2O3), Eu2O3, InChI=1S/2Eu.3O/q2*+3;3*-2
Compound 4: samarium carbonate oxide (Sm2(CO3)O2), CO5Sm2, InChI=1S/CH2O3.2O.2Sm/c2-1(3)4;;;;/h(H2,2,3,4);;;;/q;2*-2;2*+3/p-2
Compound 5: europium carbonate oxide (Eu2(CO3)O2), CEu2O5, InChI=1S/CH2O3.2Eu.2O/c2-1(3)4;;;;/h(H2,2,3,4);;;;/q;2*+3;2*-2/p-2

Reaction: -1 samarium carbonate oxide (Sm2(CO3)O2) + 1 samarium oxide (Sm2O3) + 1 carbon dioxide
Property: Equilibrium constant in terms of partial pressure, kPa^n
433
889
2644
4819
11159
23388
52575
101325

Reaction: -1 europium carbonate oxide (Eu2(CO3)O2) + 1 europium oxide (Eu2O3) + 1 carbon dioxide
Property: Equilibrium constant in terms of partial pressure, kPa^n
276
602
1287
3905
6248
12088
30333
49021
67510
101325
