Measured thermophysical data. Thermodynamic study of Ba3CuO4 (s) in Ba-Cu-O system
Source: Thermochim. Acta, 2019, 10.1016/j.tca.2019.05.006
Compound 1: barium carbonate, CBaO3, InChI=1S/CH2O3.Ba/c2-1(3)4;/h(H2,2,3,4);/q;+2/p-2
Compound 2: copper(II) oxide, CuO, InChI=1S/Cu.O/q+2;-2, purity 99.98%
Compound 3: carbon dioxide, CO2, InChI=1S/CO2/c2-1-3
Compound 4: barium copper oxide (Ba3CuO4), Ba3CuO4, InChI=1S/3Ba.Cu.4O/q4*+2;4*-2
Compound 5: barium oxide (BaO), BaO, InChI=1S/Ba.O/q+2;-2, purity 99.98%

System: barium copper oxide (Ba3CuO4); phases: Crystal
Property: Mass density, kg/m3 (Crystal); method: X-ray diffraction
Temperature, K	Pressure, kPa	Mass density, kg/m3	uncertainty
298	101.325	6422	11

System: barium copper oxide (Ba3CuO4); phases: Crystal
Fixed: Pressure, kPa = 101.325
Property: Molar heat capacity at constant pressure, J/K/mol (Crystal); method: DSC
Temperature, K	Molar heat capacity at constant pressure, J/K/mol	uncertainty
303.5	186.1	24.9
317.9	189.4	24.9
337.7	193.3	25
356.6	196.6	23.1
375.2	199.4	23.1
393.8	201.9	23.1
412.4	204.2	23.2
431	206.2	27
449.7	208	27
468.6	209.7	27
487.4	211.3	23.2
506.2	212.8	27.1
524.9	214.2	29
543.7	215.5	29
562.5	216.7	25.2
581.3	217.8	25.2
600.1	218.9	25.2
618.9	219.9	27.1
637.7	220.9	27.1
656.5	221.9	23.4
675.3	222.8	23.4
694	223.7	29.1
712.8	224.6	23.4
731.6	225.4	27.2
750.4	226.2	23.4
767.9	226.9	25.3
769.4	227	25.3

System: copper(II) oxide; phases: Crystal
Fixed: Pressure, kPa = 101.325
Property: Molar heat capacity at constant pressure, J/K/mol (Crystal); method: DSC
Temperature, K	Molar heat capacity at constant pressure, J/K/mol	uncertainty
300	44.4	22.1
325	45.8	28
350	46.8	28
375	47.7	22.1
400	48.5	26.1
425	49.2	24.1
450	49.7	28.1
475	50.3	24.1
500	50.8	26.1
525	51.2	28.1
550	51.6	26.1
575	51.9	26.1
600	52.3	22.1
625	52.6	26.1
650	52.9	28.1
675	53.2	28.1
700	53.5	24.1
725	53.8	26.1
750	54	28.1
775	54.3	26.1
800	54.5	24.1
825	54.7	24.1

System: barium oxide (BaO); phases: Crystal
Fixed: Pressure, kPa = 101.325
Property: Molar heat capacity at constant pressure, J/K/mol (Crystal); method: DSC
Temperature, K	Molar heat capacity at constant pressure, J/K/mol	uncertainty
300	47.6	20.1
325	48.5	22.1
350	49.3	26.1
375	49.9	24.1
400	50.5	20.1
425	50.9	24.1
450	51.4	24.1
475	51.9	26.1
500	52.3	22.1
525	52.6	20.1
550	52.9	22.1
575	53.3	26.1
600	53.6	24.1
625	53.9	22.1
650	54.2	20.1
675	54.5	24.1
700	54.7	26.1
725	55	26.1
750	55.3	24.1
775	55.5	22.1
800	55.7	24.1
825	56	26.1

Reaction: -3 barium carbonate + -1 copper(II) oxide + 1 barium copper oxide (Ba3CuO4) + 3 carbon dioxide
Property: Molar Gibbs energy of reaction, kJ/mol
378.9
376.3
368.5
362.5
355.2
353.3
340.8
329.3
316.6
318.9
309.6
293.9
285.6
277.3
263.3
255.9
