Measured thermophysical data. Thermodynamics of solution of L-valine in water
Source: Thermochim. Acta, 2017, 10.1016/j.tca.2017.10.020
Compound 1: L-valine, C5H11NO2, InChI=1S/C5H11NO2/c1-3(2)4(6)5(7)8/h3-4H,6H2,1-2H3,(H,7,8)/t4-/m0/s1, purity 99%
Compound 2: water, H2O, InChI=1S/H2O/h1H2

System: L-valine + water; phases: Liquid
Fixed: Pressure, kPa = 101.33
Fixed: Mole fraction of L-valine = 0
Property: Molar enthalpy of solution, kJ/mol (Liquid); method: ISOPERIBOL
Temperature, K	Molar enthalpy of solution, kJ/mol	uncertainty
279.15	0.29	0.03
283.15	0.93	0.04
288.15	1.44	0.06
293.15	2.15	0.09
298.15	3.09	0.13
303.15	3.59	0.15
308.15	4.59	0.19
313.15	5.44	0.22
318.15	6.07	0.25
323.15	7.17	0.29
