Measured thermophysical data. Enthalpies of dilution of glycine, l-alanine and l-serine in aqueous potassium chloride solutions
Source: Thermochim. Acta, 2005, 10.1016/j.tca.2004.05.021
Compound 1: 2-aminoacetic acid, C2H5NO2, InChI=1S/C2H5NO2/c3-1-2(4)5/h1,3H2,(H,4,5)
Compound 2: (S)-2-aminopropanoic acid, C3H7NO2, InChI=1S/C3H7NO2/c1-2(4)3(5)6/h2H,4H2,1H3,(H,5,6)/t2-/m0/s1
Compound 3: L-serine, C3H7NO3, InChI=1S/C3H7NO3/c4-2(1-5)3(6)7/h2,5H,1,4H2,(H,6,7)/t2-/m0/s1
Compound 4: water, H2O, InChI=1S/H2O/h1H2
Compound 5: potassium chloride, ClK, InChI=1S/ClH.K/h1H;/q;+1/p-1

System: 2-aminoacetic acid + water; phases: Liquid
Fixed: Temperature, K = 298.15
Fixed: Pressure, kPa = 101.3
Property: Molar enthalpy of dilution, kJ/mol (Liquid); method: Flow calorimetry
Initial molality of solute, mol/kg	Final molality of solute, mol/kg	Molar enthalpy of dilution, kJ/mol	uncertainty
0.1053	0.0521	0.02328	0.00096
0.1439	0.0708	0.03232	0.00103
0.1786	0.0881	0.03897	0.00108
0.2081	0.1026	0.04518	0.00112
0.233	0.1147	0.05004	0.00116
0.2461	0.1212	0.05199	0.00118
0.2723	0.1337	0.0584	0.00123
0.2898	0.1425	0.06135	0.00125
0.3046	0.1492	0.06347	0.00127
0.3319	0.163	0.06921	0.00131
0.3555	0.1745	0.07389	0.00135
0.4206	0.2062	0.08503	0.00143

System: (S)-2-aminopropanoic acid + water; phases: Liquid
Fixed: Temperature, K = 298.15
Fixed: Pressure, kPa = 101.3
Property: Molar enthalpy of dilution, kJ/mol (Liquid); method: FLOW:
Initial molality of solute, mol/kg	Final molality of solute, mol/kg	Molar enthalpy of dilution, kJ/mol	uncertainty
0.144	0.0688	-0.01546	0.00089
0.2177	0.1044	-0.02377	0.00096
0.2731	0.1306	-0.03012	0.00101
0.3523	0.168	-0.03921	0.00108
0.3979	0.1897	-0.04379	0.00111
0.4633	0.2204	-0.05149	0.00117
0.55	0.2608	-0.06156	0.00125
0.5729	0.2716	-0.06415	0.00127
0.6342	0.2999	-0.07115	0.00133
0.6609	0.3121	-0.07477	0.00135
0.6975	0.3297	-0.07797	0.00138
0.7481	0.3524	-0.08415	0.00143

System: L-serine + water; phases: Liquid
Fixed: Temperature, K = 298.15
Fixed: Pressure, kPa = 101.3
Property: Molar enthalpy of dilution, kJ/mol (Liquid); method: FLOW:
Initial molality of solute, mol/kg	Final molality of solute, mol/kg	Molar enthalpy of dilution, kJ/mol	uncertainty
0.0791	0.0388	0.02774	0.00099
0.1119	0.0549	0.03854	0.00107
0.1427	0.0699	0.04842	0.00115
0.1672	0.0819	0.05632	0.00121
0.1967	0.0963	0.06567	0.00128
0.2222	0.1086	0.07381	0.00135
0.2769	0.1352	0.09001	0.00147
0.3039	0.1481	0.09803	0.00153
0.332	0.1619	0.1058	0.00159
0.3606	0.1754	0.11415	0.00166
0.3835	0.1867	0.12002	0.0017
0.4123	0.2001	0.12875	0.00177

System: 2-aminoacetic acid + potassium chloride + water; phases: Liquid
Fixed: Temperature, K = 298.15
Fixed: Pressure, kPa = 101.3
Property: Molar enthalpy of dilution, kJ/mol (Liquid); method: Flow calorimetry
Solvent: Molality, mol/kg of potassium chloride	Initial molality of solute, mol/kg	Final molality of solute, mol/kg	Molar enthalpy of dilution, kJ/mol	uncertainty
0	0.1053	0.0521	0.02328	0.00096
0	0.1439	0.0708	0.03232	0.00103
0	0.1786	0.0881	0.03897	0.00108
0	0.2081	0.1026	0.04518	0.00112
0	0.233	0.1147	0.05004	0.00116
0	0.2461	0.1212	0.05199	0.00118
0	0.2723	0.1337	0.0584	0.00123
0	0.2898	0.1425	0.06135	0.00125
0	0.3046	0.1492	0.06347	0.00127
0	0.3319	0.163	0.06921	0.00131
0	0.3555	0.1745	0.07389	0.00135
0	0.4206	0.2062	0.08503	0.00143
0.2001	0.2305	0.1148	0.04596	0.00113
0.2001	0.2673	0.1332	0.05101	0.00117
0.2001	0.2988	0.1484	0.05906	0.00123
0.2001	0.3302	0.1635	0.06463	0.00128
0.2001	0.372	0.1848	0.07146	0.00133
0.2001	0.4081	0.2025	0.07772	0.00138
0.2001	0.4747	0.2358	0.0885	0.00146
0.2001	0.5294	0.2615	0.09809	0.00153
0.2001	0.5757	0.2834	0.10467	0.00159
0.2001	0.6689	0.3294	0.11852	0.00169
0.2001	0.7133	0.3507	0.12498	0.00174
0.2001	0.7607	0.3743	0.13131	0.00179
0.2001	0.8379	0.4122	0.14035	0.00186
0.3796	0.2574	0.1265	0.04738	0.00114
0.3796	0.3198	0.1565	0.05787	0.00122
0.3796	0.3571	0.1748	0.06405	0.00127
0.3796	0.4107	0.2009	0.07238	0.00134
0.3796	0.4587	0.224	0.07988	0.00139
0.3796	0.5071	0.2474	0.08701	0.00145
0.3796	0.5537	0.2696	0.0939	0.0015
0.3796	0.5904	0.2873	0.09927	0.00154
0.3796	0.6576	0.3194	0.10868	0.00162
0.3796	0.7055	0.3422	0.11495	0.00167
0.3796	0.7449	0.3606	0.12098	0.00171
0.3796	0.8016	0.3885	0.12725	0.00176
0.3796	0.8912	0.431	0.13846	0.00185
0.6107	0.2345	0.1131	0.03909	0.00108
0.6107	0.2718	0.131	0.04442	0.00112
0.6107	0.3157	0.1519	0.05081	0.00117
0.6107	0.3716	0.1784	0.0591	0.00123
0.6107	0.4358	0.2092	0.06819	0.0013
0.6107	0.4916	0.2354	0.07573	0.00136
0.6107	0.5611	0.2683	0.0849	0.00143
0.6107	0.6104	0.2921	0.09059	0.00148
0.6107	0.6612	0.3148	0.09822	0.00154
0.6107	0.6979	0.3331	0.10237	0.00157
0.6107	0.7445	0.3554	0.10696	0.0016
0.6107	0.7986	0.3804	0.11367	0.00166
0.6107	0.8902	0.423	0.12412	0.00174
0.8445	0.1784	0.0834	0.02657	0.00098
0.8445	0.2319	0.1079	0.0349	0.00105
0.8445	0.287	0.1334	0.0429	0.00111
0.8445	0.3471	0.1624	0.05054	0.00117
0.8445	0.4096	0.1911	0.05898	0.00123
0.8445	0.4749	0.2191	0.06845	0.0013
0.8445	0.5312	0.2456	0.07505	0.00136
0.8445	0.5957	0.2769	0.08178	0.00141
0.8445	0.6602	0.3034	0.09085	0.00148
0.8445	0.7221	0.3284	0.09934	0.00154
0.8445	0.7856	0.3611	0.10404	0.00158
0.8445	0.8557	0.394	0.11069	0.00163
0.8445	0.9085	0.4183	0.11608	0.00167
1.0107	0.1809	0.086	0.02544	0.00097
1.0107	0.2397	0.1129	0.03367	0.00104
1.0107	0.2974	0.1398	0.0413	0.00109
1.0107	0.356	0.1672	0.04843	0.00115
1.0107	0.4145	0.1947	0.05589	0.00121
1.0107	0.4672	0.2197	0.06144	0.00125
1.0107	0.5279	0.2482	0.06832	0.0013
1.0107	0.5935	0.2775	0.07604	0.00136
1.0107	0.6554	0.3075	0.08162	0.00141
1.0107	0.7197	0.3355	0.08951	0.00147
1.0107	0.782	0.3631	0.09599	0.00152
1.0107	0.8485	0.3973	0.10137	0.00156
1.0107	0.9018	0.4202	0.10628	0.0016
1.3855	0.1862	0.0893	0.02176	0.00094
1.3855	0.2282	0.1078	0.02713	0.00098
1.3855	0.2825	0.1341	0.03283	0.00103
1.3855	0.3426	0.1625	0.03906	0.00108
1.3855	0.4035	0.1908	0.04562	0.00113
1.3855	0.4626	0.2186	0.05143	0.00117
1.3855	0.5291	0.2498	0.05765	0.00122
1.3855	0.5941	0.2802	0.06349	0.00127
1.3855	0.6634	0.3123	0.06948	0.00131
1.3855	0.7286	0.345	0.07381	0.00135
1.3855	0.7886	0.3682	0.08061	0.0014
1.3855	0.8622	0.404	0.08561	0.00144
1.3855	0.9125	0.4264	0.08981	0.00147

System: (S)-2-aminopropanoic acid + potassium chloride + water; phases: Liquid
Fixed: Temperature, K = 298.15
Fixed: Pressure, kPa = 101.3
Property: Molar enthalpy of dilution, kJ/mol (Liquid); method: Flow calorimetry
Solvent: Molality, mol/kg of potassium chloride	Initial molality of solute, mol/kg	Final molality of solute, mol/kg	Molar enthalpy of dilution, kJ/mol	uncertainty
0	0.144	0.0688	-0.01546	0.00089
0	0.2177	0.1044	-0.02377	0.00096
0	0.2731	0.1306	-0.03012	0.00101
0	0.3523	0.168	-0.03921	0.00108
0	0.3979	0.1897	-0.04379	0.00111
0	0.4633	0.2204	-0.05149	0.00117
0	0.55	0.2608	-0.06156	0.00125
0	0.5729	0.2716	-0.06415	0.00127
0	0.6342	0.2999	-0.07115	0.00133
0	0.6609	0.3121	-0.07477	0.00135
0	0.6975	0.3297	-0.07797	0.00138
0	0.7481	0.3524	-0.08415	0.00143
0.2022	0.1649	0.0779	-0.01915	0.00092
0.2022	0.2091	0.0988	-0.02386	0.00096
0.2022	0.267	0.1259	-0.03104	0.00102
0.2022	0.3196	0.1502	-0.03782	0.00107
0.2022	0.3753	0.1762	-0.04405	0.00112
0.2022	0.4307	0.2018	-0.05059	0.00117
0.2022	0.4802	0.2242	-0.05672	0.00121
0.2022	0.5373	0.251	-0.06415	0.00127
0.2022	0.5943	0.277	-0.0699	0.00132
0.2022	0.6496	0.3026	-0.07651	0.00137
0.2022	0.6977	0.3233	-0.08247	0.00141
0.2022	0.7573	0.351	-0.08965	0.00147
0.2022	0.8043	0.3723	-0.09551	0.00151
0.3062	0.1648	0.0783	-0.01843	0.00092
0.3062	0.2287	0.1085	-0.02598	0.00098
0.3062	0.2713	0.1283	-0.03117	0.00102
0.3062	0.2921	0.1381	-0.03396	0.00104
0.3062	0.3655	0.172	-0.04257	0.0011
0.3062	0.4462	0.2096	-0.05172	0.00118
0.3062	0.4996	0.2346	-0.05803	0.00122
0.3062	0.5344	0.2507	-0.06234	0.00126
0.3062	0.5397	0.2531	-0.06294	0.00126
0.3062	0.6377	0.298	-0.07413	0.00135
0.3062	0.697	0.3251	-0.08102	0.0014
0.3062	0.7394	0.345	-0.08634	0.00144
0.3062	0.8009	0.3725	-0.09369	0.0015
0.4027	0.147	0.0699	-0.01772	0.00091
0.4027	0.2154	0.1023	-0.02565	0.00097
0.4027	0.2932	0.1387	-0.03552	0.00105
0.4027	0.3535	0.1665	-0.04249	0.0011
0.4027	0.4093	0.1897	-0.0507	0.00117
0.4027	0.4631	0.2181	-0.0561	0.00121
0.4027	0.5209	0.2449	-0.06227	0.00126
0.4027	0.584	0.2736	-0.07064	0.00132
0.4027	0.6255	0.2924	-0.07552	0.00136
0.4027	0.6932	0.3236	-0.0834	0.00142
0.4027	0.7427	0.3463	-0.08952	0.00147
0.4027	0.7436	0.3469	-0.08935	0.00147
0.4027	0.8116	0.3782	-0.0972	0.00153
0.5247	0.1562	0.0746	-0.01866	0.00092
0.5247	0.2167	0.1036	-0.02597	0.00098
0.5247	0.2594	0.1244	-0.03078	0.00101
0.5247	0.312	0.1486	-0.0377	0.00107
0.5247	0.3645	0.1733	-0.04412	0.00112
0.5247	0.421	0.2	-0.05109	0.00117
0.5247	0.4708	0.2232	-0.0577	0.00122
0.5247	0.5319	0.2514	-0.06484	0.00128
0.5247	0.5865	0.2763	-0.07165	0.00133
0.5247	0.647	0.3049	-0.07867	0.00138
0.5247	0.7026	0.3308	-0.08555	0.00144
0.5247	0.7357	0.3456	-0.08985	0.00147
0.5247	0.8079	0.3769	-0.09939	0.00154
0.8578	0.1438	0.0695	-0.01818	0.00092
0.8578	0.2076	0.1005	-0.02623	0.00098
0.8578	0.2567	0.1236	-0.03325	0.00103
0.8578	0.3054	0.147	-0.03967	0.00108
0.8578	0.3661	0.1764	-0.04754	0.00114
0.8578	0.4109	0.1976	-0.05273	0.00118
0.8578	0.5191	0.2481	-0.06755	0.0013
0.8578	0.5766	0.2758	-0.07514	0.00136
0.8578	0.6345	0.3029	-0.08305	0.00142
0.8578	0.695	0.3299	-0.09109	0.00148
0.8578	0.7511	0.3559	-0.09843	0.00154
0.8578	0.8029	0.3811	-0.10483	0.00159
0.9987	0.1487	0.0701	-0.02008	0.00093
0.9987	0.2015	0.0955	-0.02646	0.00098
0.9987	0.2558	0.1205	-0.0349	0.00105
0.9987	0.3088	0.1446	-0.04213	0.0011
0.9987	0.358	0.1678	-0.04892	0.00115
0.9987	0.416	0.1951	-0.05693	0.00122
0.9987	0.4668	0.2201	-0.06323	0.00126
0.9987	0.4687	0.2251	-0.06088	0.00125
0.9987	0.5204	0.2424	-0.07122	0.00133
0.9987	0.5794	0.271	-0.07864	0.00138
0.9987	0.6308	0.2938	-0.08588	0.00144
0.9987	0.7817	0.3623	-0.10693	0.0016
0.9987	0.8416	0.3906	-0.11377	0.00166
0.9987	0.9009	0.4172	-0.12147	0.00172

System: L-serine + potassium chloride + water; phases: Liquid
Fixed: Temperature, K = 298.15
Fixed: Pressure, kPa = 101.3
Property: Molar enthalpy of dilution, kJ/mol (Liquid); method: Flow calorimetry
Solvent: Molality, mol/kg of potassium chloride	Initial molality of solute, mol/kg	Final molality of solute, mol/kg	Molar enthalpy of dilution, kJ/mol	uncertainty
0	0.0791	0.0388	0.02774	0.00099
0	0.1119	0.0549	0.03854	0.00107
0	0.1427	0.0699	0.04842	0.00115
0	0.1672	0.0819	0.05632	0.00121
0	0.1967	0.0963	0.06567	0.00128
0	0.2222	0.1086	0.07381	0.00135
0	0.2769	0.1352	0.09001	0.00147
0	0.3039	0.1481	0.09803	0.00153
0	0.332	0.1619	0.1058	0.00159
0	0.3606	0.1754	0.11415	0.00166
0	0.3835	0.1867	0.12002	0.0017
0	0.4123	0.2001	0.12875	0.00177
0.3149	0.0851	0.044	0.02503	0.00097
0.3149	0.1073	0.0556	0.03114	0.00102
0.3149	0.1347	0.0689	0.04031	0.00109
0.3149	0.1618	0.0837	0.04651	0.00114
0.3149	0.1882	0.0973	0.053831	0.001192
0.3149	0.2153	0.1111	0.06105	0.00125
0.3149	0.2432	0.1254	0.06806	0.0013
0.3149	0.2653	0.137	0.07353	0.00134
0.3149	0.2898	0.1496	0.07946	0.00139
0.3149	0.3133	0.1617	0.08529	0.00144
0.3149	0.3459	0.1784	0.09397	0.0015
0.3149	0.3728	0.1922	0.09975	0.00155
0.3149	0.3985	0.2057	0.10485	0.00159
0.404	0.084	0.0451	0.02302	0.00095
0.404	0.1104	0.0592	0.03008	0.00101
0.404	0.1398	0.0749	0.03737	0.00106
0.404	0.1671	0.0896	0.04434	0.00112
0.404	0.1922	0.1029	0.05054	0.00117
0.404	0.2205	0.118	0.05728	0.00122
0.404	0.2483	0.1327	0.06418	0.00127
0.404	0.2736	0.146	0.06995	0.00132
0.404	0.2994	0.1597	0.07609	0.00136
0.404	0.3251	0.1722	0.08236	0.00141
0.404	0.3513	0.1871	0.08719	0.00145
0.404	0.3769	0.2003	0.09326	0.0015
0.404	0.3983	0.2118	0.09751	0.00153
0.5019	0.0833	0.0424	0.02263	0.00095
0.5019	0.1086	0.0553	0.02909	0.001
0.5019	0.137	0.0699	0.03682	0.00106
0.5019	0.1663	0.0848	0.04372	0.00111
0.5019	0.1957	0.099	0.05182	0.00118
0.5019	0.2199	0.1115	0.05701	0.00122
0.5019	0.2402	0.1214	0.06223	0.00126
0.5019	0.2632	0.1329	0.0677	0.0013
0.5019	0.2878	0.1452	0.07344	0.00134
0.5019	0.3085	0.1554	0.07832	0.00138
0.5019	0.3396	0.172	0.08398	0.00143
0.5019	0.3684	0.1864	0.09005	0.00147
0.5019	0.396	0.2002	0.09608	0.00152
0.7045	0.0813	0.0422	0.01924	0.00092
0.7045	0.1099	0.0572	0.0259	0.00098
0.7045	0.1299	0.0676	0.03057	0.00101
0.7045	0.1542	0.0802	0.03616	0.00105
0.7045	0.1834	0.0954	0.0427	0.00111
0.7045	0.2093	0.1086	0.04836	0.00115
0.7045	0.2349	0.1218	0.0539	0.00119
0.7045	0.2654	0.1374	0.0603	0.00124
0.7045	0.2947	0.1524	0.06661	0.00129
0.7045	0.3175	0.1644	0.07068	0.00132
0.7045	0.3458	0.1786	0.07673	0.00137
0.7045	0.3728	0.1926	0.08283	0.00142
0.7045	0.3969	0.2051	0.08602	0.00144
0.8524	0.0822	0.0427	0.01881	0.00092
0.8524	0.1054	0.0546	0.02402	0.00096
0.8524	0.1304	0.0677	0.02936	0.001
0.8524	0.1558	0.0809	0.03471	0.00104
0.8524	0.1879	0.0974	0.0414	0.0011
0.8524	0.2144	0.111	0.04689	0.00114
0.8524	0.266	0.1375	0.0573	0.00122
0.8524	0.2937	0.1514	0.06314	0.00126
0.8524	0.3227	0.1667	0.06801	0.0013
0.8524	0.3502	0.1802	0.0744	0.00135
0.8524	0.3758	0.1933	0.07847	0.00138
0.8524	0.4018	0.2068	0.08252	0.00141
1.022	0.0854	0.0452	0.0166	0.0009
1.022	0.1087	0.0575	0.02101	0.00094
1.022	0.1346	0.071	0.02639	0.00098
1.022	0.1573	0.0832	0.03075	0.00101
1.022	0.1883	0.0993	0.03639	0.00106
1.022	0.2124	0.112	0.04107	0.00109
1.022	0.2388	0.1236	0.0517	0.00118
1.022	0.2404	0.1268	0.04647	0.00113
1.022	0.2616	0.1377	0.05048	0.00117
1.022	0.2909	0.1531	0.05541	0.0012
1.022	0.318	0.166	0.0613	0.00125
1.022	0.3473	0.1825	0.06541	0.00128
1.022	0.3734	0.1956	0.06939	0.00131
1.022	0.3977	0.2084	0.07342	0.00134
