Measured thermophysical data. A new numerical method and modified apparatus for the simultaneous evaluation of thermo-physical properties above 1500 K: A case study on isostatically pressed graphite
Source: Thermochim. Acta, 2017, 10.1016/j.tca.2017.03.004
Compound 1: graphite, C

System: graphite; phases: Crystal
Property: Mass density, kg/m3 (Crystal); method: From the volume and mass of a disc
Temperature, K	Pressure, kPa	Mass density, kg/m3	uncertainty
298	101.325	1804	13

System: graphite; phases: Crystal
Fixed: Pressure, kPa = 400
Property: Molar heat capacity at constant pressure, J/K/mol (Crystal); method: Laser pulse heating
Temperature, K	Molar heat capacity at constant pressure, J/K/mol	uncertainty
1613	23.5049399	3.6632635
1732	23.6730897	3.6992956
1747	23.8412395	3.723317
1759	23.3127687	3.6392421
1850	23.2166831	3.6272314
1942	23.0245119	3.5911993
1974	23.8292288	3.723317
2230	22.82033	3.5671779
2232	23.3367901	3.6392421
2298	23.4689078	3.6632635
2428	24.2015605	3.7713598
2430	24.5859029	3.8314133
2474	24.2375926	3.7833705
2528	23.8172181	3.7113063
2531	24.1535177	3.7713598
2574	24.6339457	3.843424
2574	24.6339457	3.843424
2626	23.1566296	3.6152207
2629	24.621935	3.843424
2631	25.3786091	3.963531
2632	25.22247	3.9395096
2698	24.1174856	3.7593491
2702	24.621935	3.843424
2760	24.5859029	3.8314133
2760	24.4537852	3.8194026
2772	24.5618815	3.8314133
1536	23.2767366	3.6272314
2219	22.7602765	3.5551672

System: graphite; phases: Crystal
Fixed: Pressure, kPa = 400
Property: Thermal conductivity, W/m/K (Crystal); method: Laser flash apparatus
Temperature, K	Thermal conductivity, W/m/K	uncertainty
1613	40.28	8
1732	41.92	8.32
1747	40.27	8
1759	39.69	7.88
1850	37.12	7.37
1942	36.06	7.16
1974	37.08	7.36
2230	35.03	6.96
2232	34.36	6.82
2298	36.66	7.28
2428	30.56	6.07
2430	32.98	6.55
2474	31.82	6.32
2528	27.93	5.55
2531	28.22	5.6
2574	28.01	5.56
2574	28.01	5.56
2626	27.42	5.45
2629	28	5.56
2631	29.6	5.88
2632	28.23	5.61
2698	26.83	5.33
2702	28.07	5.57
2760	28	5.56
2760	27.2	5.4
2772	27.91	5.54
1536	40.87	8.12
2219	35.64	7.08
