Measured thermophysical data. Densities and viscosities of cefodizime sodium in water and normalsaline from (278.15 to 313.15) K
Source: Thermochim. Acta, 2013, 10.1016/j.tca.2013.06.031
Compound 1: sodium (6R,7R)-7-((Z)-2-(2-aminothiazol-4-yl)-2-(methoxyimino)acetamido)-3-(((5-(carboxylatomethyl)-4-methylthiazol-2-yl)thio)methyl)-8-oxo-5-thia-1-azabicyclo[4.2.0]oct-2-ene-2-carboxylate, C20H18N6Na2O7S4, InChI=1S/C20H20N6O7S4.2Na/c1-7-10(3-11(27)28)37-20(22-7)36-5-8-4-34-17-13(16(30)26(17)14(8)18(31)32)24-15(29)12(25-33-2)9-6-35-19(21)23-9;;/h6,13,17H,3-5H2,1-2H3,(H2,21,23)(H,24,29)(H,27,28)(H,31,32);;/q;2*+1/p-2/b25-12-;;/t13-,17-;;/m1../s1, purity 99%
Compound 2: water, H2O, InChI=1S/H2O/h1H2
Compound 3: sodium chloride, ClNa, InChI=1S/ClH.Na/h1H;/q;+1/p-1, purity 99.7%

System: water; phases: Liquid
Fixed: Pressure, kPa = 101
Property: Mass density, kg/m3 (Liquid); method: Vibrating tube method
Temperature, K	Mass density, kg/m3	uncertainty
278.15	999.96	0.24
283.15	999.7	0.25
288.15	999.1	0.25
293.15	998.2	0.25
298.15	997.05	0.24
303.15	995.65	0.24
308.15	994.04	0.24
313.15	992.22	0.23

System: water; phases: Liquid
Fixed: Pressure, kPa = 101
Property: Viscosity, Pa*s (Liquid); method: Capillary tube (Ostwald; Ubbelohde) method
Temperature, K	Viscosity, Pa*s	uncertainty
278.15	0.001521	1.44e-05
283.15	0.001307	1.27e-05
288.15	0.001135	1.08e-05
293.15	0.001002	9.4e-06
298.15	0.0008903	8.3e-06
303.15	0.0007977	7.4e-06
308.15	0.000719	6.7e-06
313.15	0.0006532	6.2e-06

System: water + sodium (6R,7R)-7-((Z)-2-(2-aminothiazol-4-yl)-2-(methoxyimino)acetamido)-3-(((5-(carboxylatomethyl)-4-methylthiazol-2-yl)thio)methyl)-8-oxo-5-thia-1-azabicyclo[4.2.0]oct-2-ene-2-carboxylate; phases: Liquid
Fixed: Pressure, kPa = 101
Property: Mass density, kg/m3 (Liquid); method: Vibrating tube method
Temperature, K	Molality, mol/kg of sodium (6R,7R)-7-((Z)-2-(2-aminothiazol-4-yl)-2-(methoxyimino)acetamido)-3-(((5-(carboxylatomethyl)-4-methylthiazol-2-yl)thio)methyl)-8-oxo-5-thia-1-azabicyclo[4.2.0]oct-2-ene-2-carboxylate	Mass density, kg/m3	uncertainty
278.15	0	999.96	0.24
278.15	0.01	1002.35	0.23
278.15	0.03	1006.68	0.21
278.15	0.05	1010.63	0.2
278.15	0.07	1014.39	0.19
278.15	0.09	1018.03	0.19
278.15	0.11	1021.6	0.19
278.15	0.13	1025.13	0.18
278.15	0.15	1028.54	0.18
283.15	0	999.7	0.25
283.15	0.01	1002.07	0.23
283.15	0.03	1006.36	0.21
283.15	0.05	1010.27	0.2
283.15	0.07	1014	0.19
283.15	0.09	1017.61	0.19
283.15	0.11	1021.14	0.18
283.15	0.13	1024.59	0.18
283.15	0.15	1027.97	0.18
288.15	0	999.1	0.25
288.15	0.01	1001.45	0.22
288.15	0.03	1005.68	0.21
288.15	0.05	1009.58	0.2
288.15	0.07	1013.27	0.19
288.15	0.09	1016.85	0.18
288.15	0.11	1020.33	0.18
288.15	0.13	1023.74	0.18
288.15	0.15	1027.06	0.17
293.15	0	998.2	0.25
293.15	0.01	1000.53	0.22
293.15	0.03	1004.71	0.21
293.15	0.05	1008.6	0.2
293.15	0.07	1012.24	0.19
293.15	0.09	1015.8	0.2
293.15	0.11	1019.24	0.18
293.15	0.13	1022.59	0.18
293.15	0.15	1025.89	0.17
298.15	0	997.05	0.24
298.15	0.01	999.36	0.22
298.15	0.03	1003.52	0.21
298.15	0.05	1007.36	0.19
298.15	0.07	1010.99	0.19
298.15	0.09	1014.51	0.18
298.15	0.11	1017.91	0.18
298.15	0.13	1021.27	0.18
298.15	0.15	1024.52	0.17
303.15	0	995.65	0.24
303.15	0.01	997.94	0.22
303.15	0.03	1002.05	0.2
303.15	0.05	1005.88	0.19
303.15	0.07	1009.48	0.18
303.15	0.09	1012.96	0.18
303.15	0.11	1016.34	0.18
303.15	0.13	1019.64	0.17
303.15	0.15	1022.89	0.17
308.15	0	994.04	0.24
308.15	0.01	996.31	0.22
308.15	0.03	1000.43	0.2
308.15	0.05	1004.18	0.19
308.15	0.07	1007.75	0.18
308.15	0.09	1011.2	0.18
308.15	0.11	1014.55	0.18
308.15	0.13	1017.85	0.17
308.15	0.15	1021.04	0.17
313.15	0	992.22	0.23
313.15	0.01	994.47	0.22
313.15	0.03	998.57	0.2
313.15	0.05	1002.27	0.19
313.15	0.07	1005.83	0.18
313.15	0.09	1009.24	0.18
313.15	0.11	1012.57	0.17
313.15	0.13	1015.83	0.17
313.15	0.15	1018.99	0.17

System: water + sodium (6R,7R)-7-((Z)-2-(2-aminothiazol-4-yl)-2-(methoxyimino)acetamido)-3-(((5-(carboxylatomethyl)-4-methylthiazol-2-yl)thio)methyl)-8-oxo-5-thia-1-azabicyclo[4.2.0]oct-2-ene-2-carboxylate; phases: Liquid
Fixed: Pressure, kPa = 101
Property: Viscosity, Pa*s (Liquid); method: Capillary tube (Ostwald; Ubbelohde) method
Temperature, K	Molality, mol/kg of sodium (6R,7R)-7-((Z)-2-(2-aminothiazol-4-yl)-2-(methoxyimino)acetamido)-3-(((5-(carboxylatomethyl)-4-methylthiazol-2-yl)thio)methyl)-8-oxo-5-thia-1-azabicyclo[4.2.0]oct-2-ene-2-carboxylate	Viscosity, Pa*s	uncertainty
278.15	0	0.001521	1.44e-05
278.15	0.01	0.001551	1.47e-05
278.15	0.03	0.0016094	1.52e-05
278.15	0.05	0.0016675	1.58e-05
278.15	0.07	0.0017244	1.63e-05
278.15	0.09	0.0017829	1.68e-05
278.15	0.11	0.0018393	1.74e-05
278.15	0.13	0.0019002	1.79e-05
278.15	0.15	0.0019616	1.85e-05
283.15	0	0.001307	1.27e-05
283.15	0.01	0.0013303	1.3e-05
283.15	0.03	0.0013807	1.34e-05
283.15	0.05	0.0014306	1.39e-05
283.15	0.07	0.0014787	1.44e-05
283.15	0.09	0.0015293	1.48e-05
283.15	0.11	0.0015774	1.53e-05
283.15	0.13	0.00163	1.58e-05
283.15	0.15	0.0016824	1.63e-05
288.15	0	0.001135	1.08e-05
288.15	0.01	0.001153	1.1e-05
288.15	0.03	0.0011972	1.14e-05
288.15	0.05	0.00124	1.18e-05
288.15	0.07	0.0012824	1.22e-05
288.15	0.09	0.0013259	1.25e-05
288.15	0.11	0.0013674	1.29e-05
288.15	0.13	0.0014131	1.33e-05
288.15	0.15	0.0014578	1.37e-05
293.15	0	0.001002	9.4e-06
293.15	0.01	0.0010165	9.5e-06
293.15	0.03	0.001055	9.9e-06
293.15	0.05	0.0010939	1.02e-05
293.15	0.07	0.0011298	1.05e-05
293.15	0.09	0.0011685	1.08e-05
293.15	0.11	0.0012057	1.12e-05
293.15	0.13	0.0012456	1.15e-05
293.15	0.15	0.0012853	1.19e-05
298.15	0	0.0008903	8.3e-06
298.15	0.01	0.0009017	8.4e-06
298.15	0.03	0.0009359	8.7e-06
298.15	0.05	0.0009694	9e-06
298.15	0.07	0.0010023	9.3e-06
298.15	0.09	0.0010359	9.6e-06
298.15	0.11	0.0010687	9.8e-06
298.15	0.13	0.0011042	1.02e-05
298.15	0.15	0.0011397	1.04e-05
303.15	0	0.0007977	7.4e-06
303.15	0.01	0.0008062	7.5e-06
303.15	0.03	0.0008369	7.8e-06
303.15	0.05	0.0008669	8e-06
303.15	0.07	0.0008964	8.3e-06
303.15	0.09	0.0009263	8.5e-06
303.15	0.11	0.0009559	8.8e-06
303.15	0.13	0.0009862	9e-06
303.15	0.15	0.0010192	9.3e-06
308.15	0	0.000719	6.7e-06
308.15	0.01	0.0007252	6.8e-06
308.15	0.03	0.0007532	7e-06
308.15	0.05	0.0007799	7.2e-06
308.15	0.07	0.0008066	7.4e-06
308.15	0.09	0.0008336	7.6e-06
308.15	0.11	0.0008594	7.9e-06
308.15	0.13	0.0008867	8.1e-06
308.15	0.15	0.0009172	8.3e-06
313.15	0	0.0006532	6.2e-06
313.15	0.01	0.0006576	6.2e-06
313.15	0.03	0.000682	6.4e-06
313.15	0.05	0.000707	6.6e-06
313.15	0.07	0.0007314	6.8e-06
313.15	0.09	0.0007559	7e-06
313.15	0.11	0.0007783	7.2e-06
313.15	0.13	0.0008042	7.4e-06
313.15	0.15	0.0008303	7.7e-06

System: sodium chloride + water + sodium (6R,7R)-7-((Z)-2-(2-aminothiazol-4-yl)-2-(methoxyimino)acetamido)-3-(((5-(carboxylatomethyl)-4-methylthiazol-2-yl)thio)methyl)-8-oxo-5-thia-1-azabicyclo[4.2.0]oct-2-ene-2-carboxylate; phases: Liquid
Fixed: Pressure, kPa = 101
Fixed: Solvent: Mass fraction of sodium chloride = 0.009
Property: Viscosity, Pa*s (Liquid); method: Capillary tube (Ostwald; Ubbelohde) method
Temperature, K	Molality, mol/kg of sodium (6R,7R)-7-((Z)-2-(2-aminothiazol-4-yl)-2-(methoxyimino)acetamido)-3-(((5-(carboxylatomethyl)-4-methylthiazol-2-yl)thio)methyl)-8-oxo-5-thia-1-azabicyclo[4.2.0]oct-2-ene-2-carboxylate	Viscosity, Pa*s	uncertainty
278.15	0	0.0015296	1.47e-05
278.15	0.01	0.001559	1.5e-05
278.15	0.03	0.0016096	1.56e-05
278.15	0.05	0.001668	1.6e-05
278.15	0.07	0.0017173	1.66e-05
278.15	0.09	0.0017753	1.71e-05
278.15	0.11	0.0018387	1.76e-05
278.15	0.13	0.0018959	1.82e-05
278.15	0.15	0.0019554	1.87e-05
283.15	0	0.0013206	1.3e-05
283.15	0.01	0.0013449	1.33e-05
283.15	0.03	0.001387	1.37e-05
283.15	0.05	0.0014375	1.42e-05
283.15	0.07	0.0014799	1.45e-05
283.15	0.09	0.0015299	1.5e-05
283.15	0.11	0.0015849	1.55e-05
283.15	0.13	0.0016341	1.6e-05
283.15	0.15	0.0016855	1.65e-05
288.15	0	0.0011543	1.12e-05
288.15	0.01	0.0011733	1.14e-05
288.15	0.03	0.0012104	1.18e-05
288.15	0.05	0.0012544	1.22e-05
288.15	0.07	0.0012914	1.25e-05
288.15	0.09	0.0013348	1.29e-05
288.15	0.11	0.0013829	1.33e-05
288.15	0.13	0.0014257	1.37e-05
288.15	0.15	0.0014705	1.41e-05
293.15	0	0.0010155	9.8e-06
293.15	0.01	0.0010301	9.9e-06
293.15	0.03	0.0010631	1.02e-05
293.15	0.05	0.0011014	1.06e-05
293.15	0.07	0.001134	1.08e-05
293.15	0.09	0.0011725	1.12e-05
293.15	0.11	0.0012144	1.16e-05
293.15	0.13	0.0012517	1.19e-05
293.15	0.15	0.0012909	1.22e-05
298.15	0	0.0009068	8.6e-06
298.15	0.01	0.0009183	8.8e-06
298.15	0.03	0.0009474	9e-06
298.15	0.05	0.0009816	9.3e-06
298.15	0.07	0.0010109	9.6e-06
298.15	0.09	0.0010453	9.9e-06
298.15	0.11	0.0010818	1.02e-05
298.15	0.13	0.0011155	1.05e-05
298.15	0.15	0.0011506	1.08e-05
303.15	0	0.0008105	7.7e-06
303.15	0.01	0.0008187	7.8e-06
303.15	0.03	0.0008444	8e-06
303.15	0.05	0.0008755	8.3e-06
303.15	0.07	0.0009018	8.5e-06
303.15	0.09	0.0009325	8.8e-06
303.15	0.11	0.0009659	9.1e-06
303.15	0.13	0.0009957	9.3e-06
303.15	0.15	0.0010237	9.6e-06
308.15	0	0.0007363	7e-06
308.15	0.01	0.0007425	7.1e-06
308.15	0.03	0.0007663	7.3e-06
308.15	0.05	0.0007941	7.5e-06
308.15	0.07	0.0008178	7.7e-06
308.15	0.09	0.0008457	7.9e-06
308.15	0.11	0.0008748	8.2e-06
308.15	0.13	0.0009014	8.4e-06
308.15	0.15	0.0009301	8.6e-06
313.15	0	0.0006641	6.5e-06
313.15	0.01	0.0006683	6.5e-06
313.15	0.03	0.0006895	6.7e-06
313.15	0.05	0.0007149	7e-06
313.15	0.07	0.0007363	7.1e-06
313.15	0.09	0.0007614	7.4e-06
313.15	0.11	0.000787	7.6e-06
313.15	0.13	0.0008112	7.8e-06
313.15	0.15	0.000837	8e-06

System: sodium chloride + water + sodium (6R,7R)-7-((Z)-2-(2-aminothiazol-4-yl)-2-(methoxyimino)acetamido)-3-(((5-(carboxylatomethyl)-4-methylthiazol-2-yl)thio)methyl)-8-oxo-5-thia-1-azabicyclo[4.2.0]oct-2-ene-2-carboxylate; phases: Liquid
Fixed: Pressure, kPa = 101
Fixed: Solvent: Mass fraction of sodium chloride = 0.009
Property: Mass density, kg/m3 (Liquid); method: Vibrating tube method
Temperature, K	Molality, mol/kg of sodium (6R,7R)-7-((Z)-2-(2-aminothiazol-4-yl)-2-(methoxyimino)acetamido)-3-(((5-(carboxylatomethyl)-4-methylthiazol-2-yl)thio)methyl)-8-oxo-5-thia-1-azabicyclo[4.2.0]oct-2-ene-2-carboxylate	Mass density, kg/m3	uncertainty
278.15	0	1006.09	0.27
278.15	0.01	1008.6	0.25
278.15	0.03	1012.9	0.23
278.15	0.05	1016.75	0.22
278.15	0.07	1020.4	0.21
278.15	0.09	1023.96	0.21
278.15	0.11	1027.47	0.21
278.15	0.13	1030.97	0.21
278.15	0.15	1034.44	0.21
283.15	0	1005.64	0.27
283.15	0.01	1008.13	0.24
283.15	0.03	1012.4	0.23
283.15	0.05	1016.2	0.21
283.15	0.07	1019.83	0.21
283.15	0.09	1023.35	0.21
283.15	0.11	1026.82	0.21
283.15	0.13	1030.31	0.21
283.15	0.15	1033.71	0.2
288.15	0	1005.07	0.28
288.15	0.01	1007.54	0.24
288.15	0.03	1011.75	0.23
288.15	0.05	1015.57	0.21
288.15	0.07	1019.09	0.21
288.15	0.09	1022.62	0.21
288.15	0.11	1026.03	0.2
288.15	0.13	1029.48	0.2
288.15	0.15	1032.83	0.2
293.15	0	1004.14	0.27
293.15	0.01	1006.6	0.24
293.15	0.03	1010.76	0.22
293.15	0.05	1014.59	0.21
293.15	0.07	1018.09	0.2
293.15	0.09	1021.55	0.2
293.15	0.11	1024.91	0.2
293.15	0.13	1028.34	0.2
293.15	0.15	1031.62	0.2
298.15	0	1002.96	0.27
298.15	0.01	1005.4	0.24
298.15	0.03	1009.56	0.22
298.15	0.05	1013.32	0.21
298.15	0.07	1016.79	0.2
298.15	0.09	1020.22	0.2
298.15	0.11	1023.56	0.2
298.15	0.13	1026.96	0.2
298.15	0.15	1030.22	0.19
303.15	0	1001.47	0.27
303.15	0.01	1003.89	0.24
303.15	0.03	1008.02	0.22
303.15	0.05	1011.75	0.21
303.15	0.07	1015.17	0.2
303.15	0.09	1018.59	0.2
303.15	0.11	1021.89	0.2
303.15	0.13	1025.26	0.2
303.15	0.15	1028.5	0.19
308.15	0	999.75	0.27
308.15	0.01	1002.15	0.24
308.15	0.03	1006.27	0.22
308.15	0.05	1009.93	0.2
308.15	0.07	1013.34	0.2
308.15	0.09	1016.71	0.2
308.15	0.11	1020	0.2
308.15	0.13	1023.32	0.2
308.15	0.15	1026.54	0.19
313.15	0	997.82	0.26
313.15	0.01	1000.21	0.24
313.15	0.03	1004.29	0.22
313.15	0.05	1007.97	0.2
313.15	0.07	1011.35	0.2
313.15	0.09	1014.67	0.2
313.15	0.11	1017.91	0.2
313.15	0.13	1021.21	0.2
313.15	0.15	1024.41	0.2

System: sodium chloride + water; phases: Liquid
Fixed: Pressure, kPa = 101
Fixed: Mass fraction of sodium chloride = 0.009
Property: Viscosity, Pa*s (Liquid); method: Capillary tube (Ostwald; Ubbelohde) method
Temperature, K	Viscosity, Pa*s	uncertainty
278.15	0.0015296	1.47e-05
283.15	0.0013206	1.3e-05
288.15	0.0011543	1.12e-05
293.15	0.0010155	9.8e-06
298.15	0.0009068	8.6e-06
303.15	0.0008105	7.7e-06
308.15	0.0007363	7e-06
313.15	0.0006641	6.5e-06

System: sodium chloride + water; phases: Liquid
Fixed: Pressure, kPa = 101
Fixed: Mass fraction of sodium chloride = 0.009
Property: Mass density, kg/m3 (Liquid); method: Vibrating tube method
Temperature, K	Mass density, kg/m3	uncertainty
278.15	1006.09	0.27
283.15	1005.64	0.27
288.15	1005.07	0.28
293.15	1004.14	0.27
298.15	1002.96	0.27
303.15	1001.47	0.27
308.15	999.75	0.27
313.15	997.82	0.26
