Measured thermophysical data. Structural and physical studies of the Ag-rich alloys from Ag-Li system
Source: Thermochim. Acta, 2019, 10.1016/j.tca.2019.01.016
Compound 1: silver, Ag, InChI=1S/Ag, purity 99.9%

System: silver; phases: Crystal
Property: Electrical conductivity, S/m (Crystal); method: SIGMATEST 2.069 (Foerster) testing instrument - complex impedance measurements
Temperature, K	Pressure, kPa	Electrical conductivity, S/m	uncertainty
298	101.325	61070000	610000
