Measured thermophysical data. Synthesis and characterization of novel binary organic monotectic and  eutectic alloys
Source: Thermochim. Acta, 2012, 10.1016/j.tca.2012.02.020
Compound 1: biphenyl, C12H10, InChI=1S/C12H10/c1-3-7-11(8-4-1)12-9-5-2-6-10-12/h1-10H
Compound 2: 3-hydroxybenzenamine, C6H7NO, InChI=1S/C6H7NO/c7-5-2-1-3-6(8)4-5/h1-4,8H,7H2
Compound 3: 3-hydroxybenzaldehyde, C7H6O2, InChI=1S/C7H6O2/c8-5-6-2-1-3-7(9)4-6/h1-5,9H
Compound 4: 1-bromo-4-chlorobenzene, C6H4BrCl, InChI=1S/C6H4BrCl/c7-5-1-3-6(8)4-2-5/h1-4H

System: biphenyl; phases: Crystal, Liquid, Air at 1 atmosphere
Property: Molar enthalpy of transition or fusion, kJ/mol (Crystal); method: DSC
Molar enthalpy of transition or fusion, kJ/mol	uncertainty
19.3	0.6

System: biphenyl; phases: Crystal, Liquid, Air at 1 atmosphere
Property: Normal melting temperature, K (Crystal); method: VISOBS
Normal melting temperature, K	uncertainty
343.65	1

System: 3-hydroxybenzenamine; phases: Crystal, Liquid, Air at 1 atmosphere
Property: Molar enthalpy of transition or fusion, kJ/mol (Crystal); method: DSC
Molar enthalpy of transition or fusion, kJ/mol	uncertainty
27.6	0.8

System: 3-hydroxybenzenamine; phases: Crystal, Liquid, Air at 1 atmosphere
Property: Normal melting temperature, K (Crystal); method: VISOBS
Normal melting temperature, K	uncertainty
396.15	1

System: 3-hydroxybenzaldehyde; phases: Crystal, Liquid, Air at 1 atmosphere
Property: Molar enthalpy of transition or fusion, kJ/mol (Crystal); method: DSC
Molar enthalpy of transition or fusion, kJ/mol	uncertainty
24.1	0.7

System: 3-hydroxybenzaldehyde; phases: Crystal, Liquid, Air at 1 atmosphere
Property: Normal melting temperature, K (Crystal); method: VISOBS
Normal melting temperature, K	uncertainty
376.15	1

System: 1-bromo-4-chlorobenzene; phases: Crystal, Liquid, Air at 1 atmosphere
Property: Molar enthalpy of transition or fusion, kJ/mol (Crystal); method: DSC
Molar enthalpy of transition or fusion, kJ/mol	uncertainty
19.9	0.6

System: 1-bromo-4-chlorobenzene; phases: Crystal, Liquid, Air at 1 atmosphere
Property: Normal melting temperature, K (Crystal); method: VISOBS
Normal melting temperature, K	uncertainty
338.15	1

System: 1-bromo-4-chlorobenzene + 3-hydroxybenzenamine; phases: Liquid, Crystal
Fixed: Pressure, kPa = 101
Property: Solid-liquid equilibrium temperature, K (Liquid); method: VISOBS
Mole fraction of 1-bromo-4-chlorobenzene	Solid-liquid equilibrium temperature, K	uncertainty
0	396.15	1
0.03	395.15	1
0.05	394.65	1
0.07	394.15	1
0.1	394.15	1
0.12	393.65	1
0.14	393.65	1
0.15	393.15	1
0.85	393.15	1
0.9	389.15	1
0.92	386.15	1
0.95	380.65	1
0.97	375.65	1
0.98	371.15	1
0.985	358.15	1
0.99	348.15	1
0.995	335.65	1

System: 1-bromo-4-chlorobenzene + 3-hydroxybenzenamine; phases: Liquid, Crystal
Fixed: Pressure, kPa = 101
Property: Solid-liquid equilibrium temperature, K (Liquid); method: VISOBS
Mole fraction of 1-bromo-4-chlorobenzene	Solid-liquid equilibrium temperature, K	uncertainty
0.996	335.15	1
0.997	336.15	1
1	338.15	1

System: 1-bromo-4-chlorobenzene + 3-hydroxybenzenamine; phases: Liquid mixture 1, Liquid mixture 2
Fixed: Pressure, kPa = 101
Property: Liquid-liquid equilibrium temperature, K (Liquid mixture 1); method: VISOBS
Mole fraction of 1-bromo-4-chlorobenzene	Liquid-liquid equilibrium temperature, K	uncertainty
0.165	393.65	1
0.18	394.15	1
0.2	395.15	1
0.22	395.65	1
0.25	397.15	1
0.3	400.15	1
0.35	402.15	1
0.4	404.15	1
0.45	405.15	1
0.5	405.65	1
0.55	405.15	1
0.6	404.65	1
0.65	403.15	1
0.7	401.15	1
0.75	399.15	1
0.8	397.15	1

System: 1-bromo-4-chlorobenzene + 3-hydroxybenzenamine; phases: Crystal, Liquid
Property: Eutectic temperature, K (Crystal); method: DTA
Mole fraction of 1-bromo-4-chlorobenzene	Pressure, kPa	Eutectic temperature, K	uncertainty
0.5	101	341.5	1.1

System: biphenyl + 3-hydroxybenzaldehyde; phases: Liquid, Crystal
Fixed: Pressure, kPa = 101
Property: Solid-liquid equilibrium temperature, K (Liquid); method: VISOBS
Mole fraction of biphenyl	Solid-liquid equilibrium temperature, K	uncertainty
0	376.15	1
0.05	375.15	1
0.1	374.15	1
0.15	373.15	1
0.2	372.15	1
0.25	371.15	1
0.3	370.65	1
0.35	370.15	1
0.4	369.65	1
0.45	369.15	1
0.5	368.15	1
0.55	367.15	1
0.6	366.15	1
0.65	365.15	1
0.7	363.15	1
0.75	361.15	1
0.8	358.15	1
0.85	353.15	1
0.9	346.15	1
0.925	342.15	1

System: biphenyl + 3-hydroxybenzaldehyde; phases: Liquid, Crystal
Fixed: Pressure, kPa = 101
Property: Solid-liquid equilibrium temperature, K (Liquid); method: VISOBS
Mole fraction of biphenyl	Solid-liquid equilibrium temperature, K	uncertainty
0.935	341.65	1
0.95	342.15	1
0.96	342.65	1
0.98	343.15	1
1	343.65	1

System: biphenyl + 3-hydroxybenzaldehyde; phases: Liquid, Gas
Property: Eutectic temperature, K (Liquid); method: DTA
Mole fraction of biphenyl	Pressure, kPa	Eutectic temperature, K	uncertainty
0.5	101	335	1.1
