Measured thermophysical data. Thermodynamic and analytical studies of drugs binary systems of paracetamol mixed with pseudoephedrine.HCl, dextropropoxyphene.HCl and tramadol.HCl
Source: Thermochim. Acta, 2016, 10.1016/j.tca.2016.03.025
Compound 1: Pseudoephedrine hydrochloride, C10H16ClNO, InChI=1S/C10H15NO.ClH/c1-8(11-2)10(12)9-6-4-3-5-7-9;/h3-8,10-12H,1-2H3;1H/t8-,10+;/m0./s1, purity 99.7%
Compound 2: Dextropropoxyphene hydrochloride, C22H30ClNO2, InChI=1S/C22H29NO2.ClH/c1-5-21(24)25-22(18(2)17-23(3)4,20-14-10-7-11-15-20)16-19-12-8-6-9-13-19;/h6-15,18H,5,16-17H2,1-4H3;1H/t18-,22+;/m1./s1, purity 99.6%
Compound 3: tramadol hydrochloride, C16H26ClNO2, InChI=1S/C16H25NO2.ClH/c1-17(2)12-14-7-4-5-10-16(14,18)13-8-6-9-15(11-13)19-3;/h6,8-9,11,14,18H,4-5,7,10,12H2,1-3H3;1H/t14-,16+;/m1./s1, purity 99.1%
Compound 4: N-acetyl-p-aminophenol, C8H9NO2, InChI=1S/C8H9NO2/c1-6(10)9-7-2-4-8(11)5-3-7/h2-5,11H,1H3,(H,9,10), purity 99.6%

System: Pseudoephedrine hydrochloride; phases: Crystal, Liquid, Air at 1 atmosphere
Property: Normal melting temperature, K (Crystal); method: DTA
Normal melting temperature, K	uncertainty
458	2

System: Pseudoephedrine hydrochloride; phases: Crystal, Liquid, Air at 1 atmosphere
Property: Molar enthalpy of transition or fusion, kJ/mol (Crystal); method: DSC
Molar enthalpy of transition or fusion, kJ/mol	uncertainty
27.349554528	0.988295112

System: Dextropropoxyphene hydrochloride; phases: Crystal, Liquid, Air at 1 atmosphere
Property: Normal melting temperature, K (Crystal); method: DTA
Normal melting temperature, K	uncertainty
441	2

System: Dextropropoxyphene hydrochloride; phases: Crystal, Liquid, Air at 1 atmosphere
Property: Molar enthalpy of transition or fusion, kJ/mol (Crystal); method: DSC
Molar enthalpy of transition or fusion, kJ/mol	uncertainty
31.803833664	1.616506912

System: tramadol hydrochloride; phases: Crystal, Liquid, Air at 1 atmosphere
Property: Normal melting temperature, K (Crystal); method: DTA
Normal melting temperature, K	uncertainty
457.2	2

System: tramadol hydrochloride; phases: Crystal, Liquid, Air at 1 atmosphere
Property: Molar enthalpy of transition or fusion, kJ/mol (Crystal); method: DSC
Molar enthalpy of transition or fusion, kJ/mol	uncertainty
29.563817768	1.34926146

System: N-acetyl-p-aminophenol; phases: Crystal, Liquid, Air at 1 atmosphere
Property: Normal melting temperature, K (Crystal); method: DTA
Normal melting temperature, K	uncertainty
443.4	2

System: N-acetyl-p-aminophenol; phases: Crystal, Liquid, Air at 1 atmosphere
Property: Molar enthalpy of transition or fusion, kJ/mol (Crystal); method: DSC
Molar enthalpy of transition or fusion, kJ/mol	uncertainty
27.25461678	0.81627804

System: N-acetyl-p-aminophenol + Pseudoephedrine hydrochloride; phases: Crystal, Crystal, Liquid, Air at 1 atmosphere
Property: Eutectic temperature, K (Crystal); method: DTA
Eutectic temperature, K	uncertainty
383.2	4

System: N-acetyl-p-aminophenol + Pseudoephedrine hydrochloride; phases: Liquid, Crystal
Fixed: Pressure, kPa = 100
Property: Solid-liquid equilibrium temperature, K (Liquid); method: DTA
Mole fraction of N-acetyl-p-aminophenol	Solid-liquid equilibrium temperature, K	uncertainty
0	458	4
0.067	453.5	4.3
0.134	447.8	4.5
0.191	441.5	4.5
0.256	435.1	4.6
0.308	427.9	4.9
0.365	420	4.9
0.416	412.5	5.1
0.467	403.8	5.6
0.519	392.6	5.6
0.571	383.2	5.4

System: N-acetyl-p-aminophenol + Pseudoephedrine hydrochloride; phases: Liquid, Crystal
Fixed: Pressure, kPa = 100
Property: Solid-liquid equilibrium temperature, K (Liquid); method: DTA
Mole fraction of N-acetyl-p-aminophenol	Solid-liquid equilibrium temperature, K	uncertainty
0.571	383.2	6.2
0.616	393.9	6.4
0.639	400.4	4.4
0.649	400.7	5.1
0.662	398.3	4.4
0.677	403.5	4.4
0.695	405.1	4.8
0.712	406.5	4.4
0.747	409.8	5
0.801	419.3	5.1
0.836	423.6	4.7
0.883	429.5	4.8
0.894	429.4	4.8
0.923	435.1	5
0.964	440.2	4.6
1	443.4	4

System: N-acetyl-p-aminophenol + Dextropropoxyphene hydrochloride; phases: Crystal, Crystal, Liquid, Air at 1 atmosphere
Property: Eutectic temperature, K (Crystal); method: DTA
Eutectic temperature, K	uncertainty
376.4	4

System: N-acetyl-p-aminophenol + Dextropropoxyphene hydrochloride; phases: Liquid, Crystal
Fixed: Pressure, kPa = 100
Property: Solid-liquid equilibrium temperature, K (Liquid); method: DTA
Mole fraction of N-acetyl-p-aminophenol	Solid-liquid equilibrium temperature, K	uncertainty
0	441	4
0.064	436.7	4.2
0.171	429.8	4.2
0.212	427.1	4.3
0.31	418.5	4.4
0.374	412.7	4.6
0.405	407.8	5.6
0.451	397.8	7
0.514	377.1	7.7

System: N-acetyl-p-aminophenol + Dextropropoxyphene hydrochloride; phases: Liquid, Crystal
Fixed: Pressure, kPa = 100
Property: Solid-liquid equilibrium temperature, K (Liquid); method: DTA
Mole fraction of N-acetyl-p-aminophenol	Solid-liquid equilibrium temperature, K	uncertainty
0.552	385.6	4.3
0.709	398.2	4.5
0.749	407.8	5.1
0.801	412.7	5.3
0.856	426.5	5.5
0.914	434.1	4.6
0.959	438.3	4.5
0.979	440.7	4.7
1	443.4	4

System: N-acetyl-p-aminophenol + tramadol hydrochloride; phases: Crystal, Crystal, Liquid, Air at 1 atmosphere
Property: Eutectic temperature, K (Crystal); method: DTA
Eutectic temperature, K	uncertainty
375.5	4

System: N-acetyl-p-aminophenol + tramadol hydrochloride; phases: Liquid, Crystal
Fixed: Pressure, kPa = 100
Property: Solid-liquid equilibrium temperature, K (Liquid); method: DTA
Mole fraction of N-acetyl-p-aminophenol	Solid-liquid equilibrium temperature, K	uncertainty
0	457.2	4
0.031	449.3	6.5
0.182	439.9	4.3
0.261	432	4.3
0.33	427.6	4.5
0.398	417.7	6.1
0.46	397.7	7.6
0.526	376.4	7.6

System: N-acetyl-p-aminophenol + tramadol hydrochloride; phases: Liquid, Crystal
Fixed: Pressure, kPa = 100
Property: Solid-liquid equilibrium temperature, K (Liquid); method: DTA
Mole fraction of N-acetyl-p-aminophenol	Solid-liquid equilibrium temperature, K	uncertainty
0.57	386.2	4.2
0.617	388.8	4.6
0.666	397.2	4.7
0.706	399.2	4.4
0.748	404.4	5
0.786	410.9	5.6
0.823	418.9	5.6
0.856	424.7	4.9
0.889	428	5.1
0.918	434.6	5.1
0.947	437.3	4.7
0.974	441.6	4.6
1	443.4	4
