Measured thermophysical data. Vapor pressure of tetrakis(1,1,1-trifluro-5,6-dimethylheptanedionato) zirconium(IV) and dichlorobis( 5-cyclopentadienyl)zirconium(IV) by TG-based transpiration technique
Source: Thermochim. Acta, 2008, 10.1016/j.tca.2008.08.010
Compound 1: tetrakis(1,1,1-trifluoro-5,5-dimethyl-2,4-hexanedionato-O,O')zirconium, C32H40F12O8Zr, InChI=1S/4C8H10F3O2.Zr/c4*1-7(2,3)5(12)4-6(13)8(9,10)11;/h4*4H,1-3H3;/q4*-1;+4
Compound 2: bis(eta-cyclopentadienyl)zirconium chloride, C10H10Cl2Zr, InChI=1S/2C5H5.2ClH.Zr/c2*1-2-4-5-3-1;;;/h2*1-5H;2*1H;/q;;;;+2/p-2

System: tetrakis(1,1,1-trifluoro-5,5-dimethyl-2,4-hexanedionato-O,O')zirconium; phases: Liquid, Gas
Property: Vapor or sublimation pressure, kPa (Liquid); method: Transpiration method
Temperature, K	Vapor or sublimation pressure, kPa	uncertainty
394.15	0.00031	1.6e-05
404.15	0.000569	2.9e-05
415.15	0.000994	5e-05
425.15	0.00142	7.1e-05

System: bis(eta-cyclopentadienyl)zirconium chloride; phases: Liquid, Gas
Property: Vapor or sublimation pressure, kPa (Liquid); method: Transpiration method
Temperature, K	Vapor or sublimation pressure, kPa	uncertainty
408.15	9.2e-05	5e-06
418.15	0.000169	9e-06
429.15	0.000311	1.6e-05
438.15	0.000547	2.7e-05
449.15	0.000914	4.6e-05
