Measured thermophysical data. Fabrication of shape-stable composite phase change materials based on lauric acid and graphene/graphene oxide complex aerogels for enhancement of thermal energy storage and electrical conduction
Source: Thermochim. Acta, 2018, 10.1016/j.tca.2018.04.002
Compound 1: dodecanoic acid, C12H24O2, InChI=1S/C12H24O2/c1-2-3-4-5-6-7-8-9-10-11-12(13)14/h2-11H2,1H3,(H,13,14), purity 97.5%

System: dodecanoic acid; phases: Crystal, Liquid, Air at 1 atmosphere
Property: Triple point temperature, K (Crystal); method: DSC
Triple point temperature, K	uncertainty
320.35	4.1

System: dodecanoic acid; phases: Crystal, Liquid, Air at 1 atmosphere
Property: Molar enthalpy of transition or fusion, kJ/mol (Crystal); method: DSC
Molar enthalpy of transition or fusion, kJ/mol	uncertainty
43.388826816	8.71382256

System: dodecanoic acid; phases: Crystal
Property: Thermal conductivity, W/m/K (Crystal); method: Hot disk method
Temperature, K	Pressure, kPa	Thermal conductivity, W/m/K	uncertainty
296.15	101.325	0.394	0.081
