Measured thermophysical data. Calorimetric Study of Melts in the System KCl - K2TaF7
Source: Thermochim. Acta, 2010, 10.1016/j.tca.2010.06.019
Compound 1: potassium chloride, ClK, InChI=1S/ClH.K/h1H;/q;+1/p-1, purity 99.5%
Compound 2: dipotassium heptafluorotantalate, F7K2Ta, InChI=1S/7FH.2K.Ta/h7*1H;;;/q;;;;;;;2*+1;+5/p-7, purity 99.5%

System: dipotassium heptafluorotantalate; phases: Liquid
Fixed: Pressure, kPa = 101
Property: Molar enthalpy, kJ/mol (Liquid); method: Drop calorimetry
Temperature, K	Molar enthalpy, kJ/mol	uncertainty
1053	252.67	2.42
1093	266.22	2.64
1133	281.95	3.04

System: potassium chloride + dipotassium heptafluorotantalate; phases: Liquid
Fixed: Pressure, kPa = 101
Property: Molar enthalpy, kJ/mol (Liquid); method: Drop calorimetry
Temperature, K	Mole fraction of dipotassium heptafluorotantalate	Molar enthalpy, kJ/mol	uncertainty
1053	0.2	105.36	2.26
1053	0.2	104.35	2.27
1053	0.4	137.37	2.28
1053	0.4	137.57	2.28
1053	0.5	154.4	2.28
1053	0.7	191.38	2.35
1053	0.7	190.57	2.36
1053	0.8	213.07	2.38
1053	0.8	212.93	2.38
1053	0.8	213.24	2.38
1053	0.9	231.75	2.43
1053	1	252.67	2.42
1053	0.2	105.44	2.26
1093	0.5	161.52	2.5
1093	0.5	161.4	2.5
1093	0.5	163.15	2.5
1093	0.5	161.02	2.5
1093	0.2	110.62	2.45
1093	0.2	110.31	2.45
1093	0.7	202.5	2.56
1093	0.7	200.7	2.56
1093	0.7	203.15	2.56
1093	0.4	144.74	2.48
1093	0.4	145.14	2.48
1093	0.8	222.87	2.58
1093	0.8	222.2	2.58
1093	0.9	245.09	2.64
1093	1	266.22	2.64
1093	0.5	161.53	2.5
1133	0.4	151.68	2.87
1133	0.7	212.4	2.94
1133	0.7	210.57	2.93
1133	0.8	235.22	2.99
1133	0.8	235.75	3
1133	0.7	211.26	2.94
1133	0.9	258.93	3.02
1133	0.9	259.27	3.02
1133	0.4	152.55	2.88
1133	0.5	170.38	2.92
1133	1	281.95	3.04
1133	0.2	115.43	2.85
1133	0.5	169.38	2.92
