Measured thermophysical data. Influence of the composition of aqueous-alcohol solvents on the thermodynamic characteristics  of DL-a-alanyl-DL-norleucine dissolution at 298.15K
Source: Thermochim. Acta, 2012, 10.1016/j.tca.2012.06.014
Compound 1: alanylnorleucine, C9H18N2O3, InChI=1S/C9H18N2O3/c1-3-4-5-7(9(13)14)11-8(12)6(2)10/h6-7H,3-5,10H2,1-2H3,(H,11,12)(H,13,14), purity 99%
Compound 2: ethanol, C2H6O, InChI=1S/C2H6O/c1-2-3/h3H,2H2,1H3, purity 99%
Compound 3: propan-1-ol, C3H8O, InChI=1S/C3H8O/c1-2-3-4/h4H,2-3H2,1H3, purity 99%
Compound 4: propan-2-ol, C3H8O, InChI=1S/C3H8O/c1-3(2)4/h3-4H,1-2H3, purity 99.5%
Compound 5: water, H2O, InChI=1S/H2O/h1H2

System: ethanol; phases: Liquid
Property: Mass density, kg/m3 (Liquid); method: Vibrating tube method
Temperature, K	Pressure, kPa	Mass density, kg/m3	uncertainty
298.15	101.325	785.02	0.13

System: ethanol; phases: Liquid
Property: Refractive index (Na D-line) (Liquid); method: Standard Abbe refractometry
Temperature, K	Pressure, kPa	Refractive index (Na D-line)	uncertainty
298.15	101.325	1.3591	0.0007

System: propan-1-ol; phases: Liquid
Property: Mass density, kg/m3 (Liquid); method: Vibrating tube method
Temperature, K	Pressure, kPa	Mass density, kg/m3	uncertainty
298.15	101.325	799.75	0.12

System: propan-1-ol; phases: Liquid
Property: Refractive index (Na D-line) (Liquid); method: Standard Abbe refractometry
Temperature, K	Pressure, kPa	Refractive index (Na D-line)	uncertainty
298.15	101.325	1.3835	0.0007

System: propan-2-ol; phases: Liquid
Property: Mass density, kg/m3 (Liquid); method: Vibrating tube method
Temperature, K	Pressure, kPa	Mass density, kg/m3	uncertainty
298.15	101.325	781.24	0.13

System: propan-2-ol; phases: Liquid
Property: Refractive index (Na D-line) (Liquid); method: Standard Abbe refractometry
Temperature, K	Pressure, kPa	Refractive index (Na D-line)	uncertainty
298.15	101.325	1.3754	0.0007

System: alanylnorleucine + ethanol + water; phases: Liquid
Fixed: Molality, mol/kg of alanylnorleucine = 0.0005
Fixed: Temperature, K = 298.15
Fixed: Pressure, kPa = 101
Property: Molar enthalpy of solution, kJ/mol (Liquid); method: Isothermal displacement
Solvent: Molality, mol/kg of ethanol	Molar enthalpy of solution, kJ/mol	uncertainty
0.721	5.48	0.07
1.452	7.79	0.08
2.368	9.15	0.08
3.437	12.9	0.1
4.512	15.69	0.12
5.435	17.71	0.14
7.616	20.18	0.16
9.011	22.42	0.17
12.268	24.25	0.19
17.247	25.21	0.2
24.089	24.93	0.19
34.344	23.34	0.18

System: alanylnorleucine + propan-1-ol + water; phases: Liquid
Fixed: Molality, mol/kg of alanylnorleucine = 0.0005
Fixed: Temperature, K = 298.15
Fixed: Pressure, kPa = 101
Property: Molar enthalpy of solution, kJ/mol (Liquid); method: Isothermal displacement
Solvent: Molality, mol/kg of propan-1-ol	Molar enthalpy of solution, kJ/mol	uncertainty
0.733	5.58	0.07
1.215	8.92	0.09
1.982	11.68	0.1
2.726	14.26	0.11
3.375	15.77	0.12
4.028	17.71	0.14
4.815	19.55	0.15
6.021	21.49	0.17
8.878	23.69	0.18
13.417	23.38	0.18
18.749	22.49	0.17
26.796	21.69	0.17

System: alanylnorleucine + propan-2-ol + water; phases: Liquid
Fixed: Molality, mol/kg of alanylnorleucine = 0.0005
Fixed: Temperature, K = 298.15
Fixed: Pressure, kPa = 101
Property: Molar enthalpy of solution, kJ/mol (Liquid); method: Isothermal displacement
Solvent: Molality, mol/kg of propan-2-ol	Molar enthalpy of solution, kJ/mol	uncertainty
0.715	6.03	0.07
1.181	9.65	0.09
1.742	13.38	0.11
2.581	16.29	0.13
3.356	18.79	0.15
4.285	21.81	0.17
5.387	23.81	0.18
6.417	25.45	0.2
9.149	28.73	0.22
12.838	27.99	0.22
17.966	24.9	0.19
25.659	20.87	0.16

System: alanylnorleucine + water; phases: Liquid
Property: Molar enthalpy of solution, kJ/mol (Liquid); method: Isothermal displacement
Molality, mol/kg of alanylnorleucine	Temperature, K	Pressure, kPa	Molar enthalpy of solution, kJ/mol	uncertainty
0.0005	298.15	101	3.56	0.08
