Measured thermophysical data. Vapor pressure of methylammonium halides. Part I: Setup verification and vapor pressure of methylammonium chloride
Source: Thermochim. Acta, 2017, 10.1016/j.tca.2017.10.021
Compound 1: methylammonium chloride, CH6ClN, InChI=1S/CH5N.ClH/c1-2;/h2H2,1H3;1H
Compound 2: ammonium chloride (NH4Cl), ClH4N, InChI=1S/ClH.H3N/h1H;1H3, purity 99.99%

System: methylammonium chloride; phases: Crystal, Gas
Property: Vapor or sublimation pressure, kPa (Crystal); method: Transpiration method
Temperature, K	Vapor or sublimation pressure, kPa	uncertainty
393	0.0044	0.0003
403	0.0085	0.0004
413	0.0171	0.0008
423	0.0307	0.0015
435.5	0.0643	0.003
455	0.1683	0.0068
463	0.2868	0.0153
473	0.4424	0.0177
483	0.7211	0.043
493	1.1159	0.0568
513	2.4991	0.0978

System: ammonium chloride (NH4Cl); phases: Crystal, Gas
Property: Vapor or sublimation pressure, kPa (Crystal); method: Transpiration method
Temperature, K	Vapor or sublimation pressure, kPa	uncertainty
463	0.4871	0.0197
473	0.7748	0.0307
483	1.1402	0.0451
493	1.683	0.074
503	2.758	0.115
513	3.639	0.184
543	11.544	0.515
