Measured thermophysical data. Synthesis and thermophysical characterization of novel azide functionalized imidazolium based ionic liquids
Source: Thermochim. Acta, 2015, 10.1016/j.tca.2015.08.032
Compound 1: 1-(2-azido-3-bromopropyl)-3-methyl-3H-imidazol-1-ium bromide, C7H11Br2N5, InChI=1S/C7H11BrN5.BrH/c1-12-2-3-13(6-12)5-7(4-8)10-11-9;/h2-3,6-7H,4-5H2,1H3;1H/q+1;/p-1
Compound 2: 1-(3-azido-2-bromopropyl)-3-methyl-3H-imidazol-1-ium bromide, C7H11Br2N5, InChI=1S/C7H11BrN5.BrH/c1-12-2-3-13(6-12)5-7(8)4-10-11-9;/h2-3,6-7H,4-5H2,1H3;1H/q+1;/p-1
Compound 3: 3-(2-azido-3-(1-methyl-1H-imidazol-3-ium-3-yl)propyl)-1-vinyl-1H-imidazol-3-ium dibromide, C12H17Br2N7, InChI=1S/C12H17N7.2BrH/c1-3-17-6-7-19(11-17)9-12(14-15-13)8-18-5-4-16(2)10-18;;/h3-7,10-12H,1,8-9H2,2H3;2*1H/q+2;;/p-2
Compound 4: 1-(2-azido-3-bromopropyl)-3-methyl-3H-imidazol-1-ium dicyanamide, C9H11BrN8, InChI=1S/C7H11BrN5.C2N3/c1-12-2-3-13(6-12)5-7(4-8)10-11-9;3-1-5-2-4/h2-3,6-7H,4-5H2,1H3;/q+1;-1
Compound 5: 1-(3-azido-2-bromopropyl)-3-methyl-3H-imidazol-1-ium dicyanamide, C9H11BrN8, InChI=1S/C7H11BrN5.C2N3/c1-12-2-3-13(6-12)5-7(8)4-10-11-9;3-1-5-2-4/h2-3,6-7H,4-5H2,1H3;/q+1;-1
Compound 6: 3-(2-azido-3-(1-methyl-1H-imidazol-3-ium-3-yl)propyl)-1-vinyl-1H-imidazol-3-ium di(dicyanamide), C16H17N13, InChI=1S/C12H17N7.2C2N3/c1-3-17-6-7-19(11-17)9-12(14-15-13)8-18-5-4-16(2)10-18;2*3-1-5-2-4/h3-7,10-12H,1,8-9H2,2H3;;/q+2;2*-1

System: 1-(2-azido-3-bromopropyl)-3-methyl-3H-imidazol-1-ium bromide; phases: Crystal, Liquid, Air at 1 atmosphere
Property: Normal melting temperature, K (Crystal); method: DTA
Normal melting temperature, K	uncertainty
283	1

System: 1-(2-azido-3-bromopropyl)-3-methyl-3H-imidazol-1-ium bromide; phases: Liquid
Property: Mass density, kg/m3 (Liquid); method: Pycnometric method
Temperature, K	Pressure, kPa	Mass density, kg/m3	uncertainty
298	101.325	1360	10

System: 1-(3-azido-2-bromopropyl)-3-methyl-3H-imidazol-1-ium bromide; phases: Crystal, Liquid, Air at 1 atmosphere
Property: Normal melting temperature, K (Crystal); method: DTA
Normal melting temperature, K	uncertainty
290	1

System: 1-(3-azido-2-bromopropyl)-3-methyl-3H-imidazol-1-ium bromide; phases: Liquid
Property: Mass density, kg/m3 (Liquid); method: Pycnometric method
Temperature, K	Pressure, kPa	Mass density, kg/m3	uncertainty
298	101.325	1340	10

System: 3-(2-azido-3-(1-methyl-1H-imidazol-3-ium-3-yl)propyl)-1-vinyl-1H-imidazol-3-ium dibromide; phases: Crystal, Liquid, Air at 1 atmosphere
Property: Normal melting temperature, K (Crystal); method: DTA
Normal melting temperature, K	uncertainty
296	1

System: 3-(2-azido-3-(1-methyl-1H-imidazol-3-ium-3-yl)propyl)-1-vinyl-1H-imidazol-3-ium dibromide; phases: Liquid
Property: Mass density, kg/m3 (Liquid); method: Pycnometric method
Temperature, K	Pressure, kPa	Mass density, kg/m3	uncertainty
298	101.325	1560	20

System: 1-(2-azido-3-bromopropyl)-3-methyl-3H-imidazol-1-ium dicyanamide; phases: Crystal, Liquid, Air at 1 atmosphere
Property: Normal melting temperature, K (Crystal); method: DTA
Normal melting temperature, K	uncertainty
271	1

System: 1-(2-azido-3-bromopropyl)-3-methyl-3H-imidazol-1-ium dicyanamide; phases: Liquid
Property: Mass density, kg/m3 (Liquid); method: Pycnometric method
Temperature, K	Pressure, kPa	Mass density, kg/m3	uncertainty
298	101.325	1310	10

System: 1-(2-azido-3-bromopropyl)-3-methyl-3H-imidazol-1-ium dicyanamide; phases: Liquid
Fixed: Pressure, kPa = 101.325
Property: Viscosity, Pa*s (Liquid); method: Cone and plate viscometry
Temperature, K	Viscosity, Pa*s	uncertainty
298	0.05701	0.00593
299	0.05328	0.00554
300	0.0496	0.00517
300	0.04944	0.00515
301	0.04603	0.00481
302	0.04205	0.00439
303.1	0.03884	0.00405
304	0.03589	0.00374
306	0.03094	0.00322
307.9	0.02698	0.00281
307.9	0.02697	0.00281
298	0.0569	0.0059
300	0.0496	0.0052
302	0.042	0.0044
304	0.0359	0.0037
306.1	0.0309	0.0032
307.9	0.0269	0.0028
309.8	0.0233	0.0024
313.9	0.0179	0.0019
317.9	0.0139	0.0014
322	0.0108	0.0011
325.9	0.0088	0.0009
331.8	0.0059	0.0006
336	0.0048	0.0005
339.9	0.0041	0.0004
344	0.0035	0.0004
347.9	0.0031	0.0003
353	0.0025	0.0003
357.9	0.0022	0.0002
361.9	0.002	0.0002

System: 1-(3-azido-2-bromopropyl)-3-methyl-3H-imidazol-1-ium dicyanamide; phases: Crystal, Liquid, Air at 1 atmosphere
Property: Normal melting temperature, K (Crystal); method: DTA
Normal melting temperature, K	uncertainty
279	1

System: 1-(3-azido-2-bromopropyl)-3-methyl-3H-imidazol-1-ium dicyanamide; phases: Liquid
Property: Mass density, kg/m3 (Liquid); method: Pycnometric method
Temperature, K	Pressure, kPa	Mass density, kg/m3	uncertainty
298	101.325	1280	10

System: 3-(2-azido-3-(1-methyl-1H-imidazol-3-ium-3-yl)propyl)-1-vinyl-1H-imidazol-3-ium di(dicyanamide); phases: Crystal, Liquid, Air at 1 atmosphere
Property: Normal melting temperature, K (Crystal); method: DTA
Normal melting temperature, K	uncertainty
292	1

System: 3-(2-azido-3-(1-methyl-1H-imidazol-3-ium-3-yl)propyl)-1-vinyl-1H-imidazol-3-ium di(dicyanamide); phases: Liquid
Property: Mass density, kg/m3 (Liquid); method: Pycnometric method
Temperature, K	Pressure, kPa	Mass density, kg/m3	uncertainty
298	101.325	1490	20

System: 3-(2-azido-3-(1-methyl-1H-imidazol-3-ium-3-yl)propyl)-1-vinyl-1H-imidazol-3-ium di(dicyanamide); phases: Liquid
Fixed: Pressure, kPa = 101.325
Property: Molar heat capacity at constant pressure, J/K/mol (Liquid); method: Small sample (50 mg) DSC
Temperature, K	Molar heat capacity at constant pressure, J/K/mol	uncertainty
298	400	25
303	409.7	25.3
323	452	28

System: 3-(2-azido-3-(1-methyl-1H-imidazol-3-ium-3-yl)propyl)-1-vinyl-1H-imidazol-3-ium di(dicyanamide); phases: Liquid
Fixed: Pressure, kPa = 101.325
Property: Viscosity, Pa*s (Liquid); method: Cone and plate viscometry
Temperature, K	Viscosity, Pa*s	uncertainty
298	0.0839	0.0095
298.9	0.0663	0.0073
300	0.0584	0.0062
300.9	0.053	0.0055
303	0.0458	0.0048
307.9	0.0356	0.0037
312.9	0.0299	0.0031
317.9	0.0262	0.0027
322.9	0.0234	0.0024
327.9	0.0208	0.0021
332.9	0.0187	0.0019
337.9	0.0171	0.0018
342.9	0.0164	0.0017
347.9	0.0158	0.0016
353	0.0152	0.0016
357.9	0.0146	0.0015
362.9	0.014	0.0014
