Measured thermophysical data. Studies of partial molar volumes of alkylamine in non-electrolyte solvents I. Alkylamines in hydrocarbons at 303.15 and 313.15K
Source: Thermochim. Acta, 2006, 10.1016/j.tca.2005.08.012
Compound 1: propan-1-amine, C3H9N, InChI=1S/C3H9N/c1-2-3-4/h2-4H2,1H3, purity 99%
Compound 2: 1-butanamine, C4H11N, InChI=1S/C4H11N/c1-2-3-4-5/h2-5H2,1H3, purity 99%
Compound 3: dipropylamine, C6H15N, InChI=1S/C6H15N/c1-3-5-7-6-4-2/h7H,3-6H2,1-2H3, purity 99%
Compound 4: dibutylamine, C8H19N, InChI=1S/C8H19N/c1-3-5-7-9-8-6-4-2/h9H,3-8H2,1-2H3, purity 99%
Compound 5: triethylamine, C6H15N, InChI=1S/C6H15N/c1-4-7(5-2)6-3/h4-6H2,1-3H3, purity 99%
Compound 6: tripropylamine, C9H21N, InChI=1S/C9H21N/c1-4-7-10(8-5-2)9-6-3/h4-9H2,1-3H3, purity 99%
Compound 7: tributylamine, C12H27N, InChI=1S/C12H27N/c1-4-7-10-13(11-8-5-2)12-9-6-3/h4-12H2,1-3H3, purity 99%
Compound 8: cyclohexane, C6H12, InChI=1S/C6H12/c1-2-4-6-5-3-1/h1-6H2, purity 99.5%
Compound 9: benzene, C6H6, InChI=1S/C6H6/c1-2-4-6-5-3-1/h1-6H, purity 99.5%

System: propan-1-amine; phases: Liquid
Fixed: Pressure, kPa = 101.325
Property: Mass density, kg/m3 (Liquid); method: Vibrating tube method
Temperature, K	Mass density, kg/m3	uncertainty
303.15	706.1	0.41
313.15	696.04	0.4

System: 1-butanamine; phases: Liquid
Fixed: Pressure, kPa = 101.325
Property: Mass density, kg/m3 (Liquid); method: Vibrating tube method
Temperature, K	Mass density, kg/m3	uncertainty
303.15	728.65	0.41
313.15	719.17	0.41

System: dipropylamine; phases: Liquid
Fixed: Pressure, kPa = 101.325
Property: Mass density, kg/m3 (Liquid); method: Vibrating tube method
Temperature, K	Mass density, kg/m3	uncertainty
303.15	731.21	0.41
313.15	726.15	0.41

System: dibutylamine; phases: Liquid
Fixed: Pressure, kPa = 101.325
Property: Mass density, kg/m3 (Liquid); method: Vibrating tube method
Temperature, K	Mass density, kg/m3	uncertainty
303.15	752.28	0.42
313.15	743.44	0.41

System: triethylamine; phases: Liquid
Fixed: Pressure, kPa = 101.325
Property: Mass density, kg/m3 (Liquid); method: Vibrating tube method
Temperature, K	Mass density, kg/m3	uncertainty
303.15	718.44	0.41
313.15	709.05	0.41

System: tripropylamine; phases: Liquid
Fixed: Pressure, kPa = 101.325
Property: Mass density, kg/m3 (Liquid); method: Vibrating tube method
Temperature, K	Mass density, kg/m3	uncertainty
303.15	749.15	0.41
313.15	740.41	0.41

System: tributylamine; phases: Liquid
Fixed: Pressure, kPa = 101.325
Property: Mass density, kg/m3 (Liquid); method: Vibrating tube method
Temperature, K	Mass density, kg/m3	uncertainty
303.15	770.21	0.42
313.15	763.11	0.42

System: cyclohexane; phases: Liquid
Fixed: Pressure, kPa = 101.325
Property: Mass density, kg/m3 (Liquid); method: Vibrating tube method
Temperature, K	Mass density, kg/m3	uncertainty
303.15	769.1	0.25
313.15	759.52	0.25

System: benzene; phases: Liquid
Fixed: Pressure, kPa = 101.325
Property: Mass density, kg/m3 (Liquid); method: Vibrating tube method
Temperature, K	Mass density, kg/m3	uncertainty
303.15	868.3	0.24
313.15	857.59	0.24

System: propan-1-amine + cyclohexane; phases: Liquid
Fixed: Pressure, kPa = 101
Property: Mass density, kg/m3 (Liquid); method: Vibrating tube method
Temperature, K	Mole fraction of propan-1-amine	Mass density, kg/m3	uncertainty
303.15	0.0076	768.47	0.25
303.15	0.0169	767.75	0.25
303.15	0.0282	766.86	0.25
303.15	0.0365	766.22	0.26
303.15	0.0483	765.3	0.26
303.15	0.057	764.61	0.26
303.15	0.0652	763.97	0.26
303.15	0.0747	763.25	0.26
303.15	0.0859	762.47	0.26
313.15	0.0076	758.92	0.25
313.15	0.0169	758.21	0.25
313.15	0.0282	757.38	0.26
313.15	0.0365	756.8	0.26
313.15	0.0483	755.92	0.26
313.15	0.057	755.27	0.26
313.15	0.0652	754.68	0.26
313.15	0.0747	753.96	0.26
313.15	0.0859	753.15	0.26

System: 1-butanamine + cyclohexane; phases: Liquid
Fixed: Pressure, kPa = 101
Property: Mass density, kg/m3 (Liquid); method: Vibrating tube method
Temperature, K	Mole fraction of 1-butanamine	Mass density, kg/m3	uncertainty
303.15	0.0097	768.39	0.25
303.15	0.0197	767.7	0.25
303.15	0.0282	767.1	0.25
303.15	0.038	766.38	0.26
303.15	0.0471	765.76	0.26
303.15	0.0581	764.98	0.26
303.15	0.0674	764.35	0.26
303.15	0.0724	764.08	0.26
303.15	0.0873	763.14	0.26
313.15	0.0097	758.82	0.25
313.15	0.0197	758.12	0.25
313.15	0.0282	757.54	0.26
313.15	0.038	756.91	0.26
313.15	0.0471	756.3	0.26
313.15	0.0581	755.61	0.26
313.15	0.0674	754.91	0.26
313.15	0.0724	754.62	0.26
313.15	0.0873	753.62	0.26

System: cyclohexane + dipropylamine; phases: Liquid
Fixed: Pressure, kPa = 101
Property: Mass density, kg/m3 (Liquid); method: Vibrating tube method
Temperature, K	Mole fraction of dipropylamine	Mass density, kg/m3	uncertainty
303.15	0.0114	768.31	0.25
303.15	0.0213	767.65	0.25
303.15	0.0321	766.94	0.25
303.15	0.0414	766.29	0.26
303.15	0.0509	765.71	0.26
303.15	0.0622	764.96	0.26
303.15	0.0727	764.29	0.26
303.15	0.0811	763.78	0.26
303.15	0.0919	763.13	0.26
313.15	0.0114	758.72	0.25
313.15	0.0213	758.03	0.25
313.15	0.0321	757.3	0.26
313.15	0.0414	756.67	0.26
313.15	0.0509	756.07	0.26
313.15	0.0622	755.34	0.26
313.15	0.0727	754.66	0.26
313.15	0.0811	754.17	0.26
313.15	0.0919	753.52	0.27

System: cyclohexane + dibutylamine; phases: Liquid
Fixed: Pressure, kPa = 101
Property: Mass density, kg/m3 (Liquid); method: Vibrating tube method
Temperature, K	Mole fraction of dibutylamine	Mass density, kg/m3	uncertainty
303.15	0.0109	768.53	0.25
303.15	0.0204	768.07	0.25
303.15	0.0298	767.62	0.25
303.15	0.0392	767.24	0.26
303.15	0.0493	766.84	0.26
303.15	0.0583	766.46	0.26
303.15	0.0689	766.05	0.26
303.15	0.0797	765.6	0.26
303.15	0.0881	765.27	0.26
313.15	0.0109	759.01	0.25
313.15	0.0204	758.59	0.25
313.15	0.0298	758.19	0.26
313.15	0.0392	757.79	0.26
313.15	0.0493	757.36	0.26
313.15	0.0583	756.99	0.26
313.15	0.0689	756.55	0.26
313.15	0.0797	756.11	0.26
313.15	0.0881	755.77	0.26

System: cyclohexane + triethylamine; phases: Liquid
Fixed: Pressure, kPa = 101
Property: Mass density, kg/m3 (Liquid); method: Vibrating tube method
Temperature, K	Mole fraction of triethylamine	Mass density, kg/m3	uncertainty
303.15	0.0102	768.28	0.25
303.15	0.0192	767.5	0.25
303.15	0.0299	766.58	0.25
303.15	0.0422	765.57	0.26
303.15	0.0498	764.97	0.26
303.15	0.0618	764.04	0.26
303.15	0.0712	763.35	0.26
303.15	0.0799	762.72	0.26
303.15	0.0895	762.05	0.26
303.15	0.0995	761.36	0.27
313.15	0.0102	758.66	0.25
313.15	0.0192	757.93	0.25
313.15	0.0299	757.05	0.26
313.15	0.0422	756.07	0.26
313.15	0.0498	755.48	0.26
313.15	0.0618	754.54	0.26
313.15	0.0712	753.86	0.26
313.15	0.0799	753.22	0.26
313.15	0.0895	752.62	0.26
313.15	0.0995	751.88	0.27

System: tripropylamine + cyclohexane; phases: Liquid
Fixed: Pressure, kPa = 101
Property: Mass density, kg/m3 (Liquid); method: Vibrating tube method
Temperature, K	Mole fraction of tripropylamine	Mass density, kg/m3	uncertainty
303.15	0.0109	768.54	0.25
303.15	0.02	768.11	0.25
303.15	0.0305	767.6	0.25
303.15	0.0406	767.14	0.26
303.15	0.0511	766.65	0.26
303.15	0.0596	766.35	0.26
303.15	0.0693	765.93	0.26
303.15	0.0787	765.54	0.26
303.15	0.0878	765.16	0.26
313.15	0.0109	758.99	0.25
313.15	0.02	758.57	0.25
313.15	0.0305	758.14	0.26
313.15	0.0406	757.71	0.26
313.15	0.0511	757.28	0.26
313.15	0.0596	756.93	0.26
313.15	0.0693	756.56	0.26
313.15	0.0787	756.18	0.26
313.15	0.0878	755.84	0.26

System: tributylamine + cyclohexane; phases: Liquid
Fixed: Pressure, kPa = 101
Property: Mass density, kg/m3 (Liquid); method: Vibrating tube method
Temperature, K	Mole fraction of tributylamine	Mass density, kg/m3	uncertainty
303.15	0.0103	768.92	0.25
303.15	0.0216	768.75	0.25
303.15	0.0318	768.65	0.25
303.15	0.0402	768.57	0.26
303.15	0.0516	768.46	0.26
303.15	0.0598	768.38	0.26
303.15	0.0709	768.26	0.26
303.15	0.0807	768.18	0.26
303.15	0.0861	768.14	0.26
313.15	0.0103	759.38	0.25
313.15	0.0216	759.25	0.25
313.15	0.0318	759.17	0.26
313.15	0.0402	759.09	0.26
313.15	0.0516	758.99	0.26
313.15	0.0598	758.97	0.26
313.15	0.0709	758.92	0.26
313.15	0.0807	758.91	0.26
313.15	0.0861	758.99	0.26

System: benzene + propan-1-amine; phases: Liquid
Fixed: Pressure, kPa = 101
Property: Mass density, kg/m3 (Liquid); method: Vibrating tube method
Temperature, K	Mole fraction of propan-1-amine	Mass density, kg/m3	uncertainty
303.15	0.0079	867.07	0.25
303.15	0.0186	865.41	0.25
303.15	0.028	863.91	0.25
303.15	0.0366	862.58	0.25
303.15	0.047	860.86	0.25
303.15	0.0579	859.18	0.26
303.15	0.0659	857.86	0.26
303.15	0.0759	856.37	0.26
303.15	0.0844	854.97	0.26
313.15	0.0079	856.39	0.25
313.15	0.0186	854.75	0.25
313.15	0.028	853.34	0.25
313.15	0.0366	852.02	0.25
313.15	0.047	850.44	0.25
313.15	0.0579	848.78	0.25
313.15	0.0659	847.56	0.26
313.15	0.0759	846.03	0.26
313.15	0.0844	844.73	0.26

System: benzene + 1-butanamine; phases: Liquid
Fixed: Pressure, kPa = 101
Property: Mass density, kg/m3 (Liquid); method: Vibrating tube method
Temperature, K	Mole fraction of 1-butanamine	Mass density, kg/m3	uncertainty
303.15	0.0094	866.8	0.25
303.15	0.0195	865.19	0.25
303.15	0.0284	863.77	0.25
303.15	0.038	862.3	0.25
303.15	0.048	860.74	0.25
303.15	0.0588	859.06	0.26
303.15	0.0669	857.8	0.26
303.15	0.0764	856.32	0.26
303.15	0.0859	854.84	0.26
313.15	0.0094	856.12	0.25
313.15	0.0195	854.55	0.25
313.15	0.0284	853.17	0.25
313.15	0.038	851.7	0.25
313.15	0.048	850.16	0.25
313.15	0.0588	848.5	0.26
313.15	0.0669	847.27	0.26
313.15	0.0764	845.82	0.26
313.15	0.0859	844.4	0.26

System: benzene + dipropylamine; phases: Liquid
Fixed: Pressure, kPa = 101
Property: Mass density, kg/m3 (Liquid); method: Vibrating tube method
Temperature, K	Mole fraction of dipropylamine	Mass density, kg/m3	uncertainty
303.15	0.0105	865.97	0.25
303.15	0.0207	863.74	0.25
303.15	0.0306	861.67	0.25
303.15	0.039	859.91	0.25
303.15	0.0508	857.5	0.25
303.15	0.0614	855.36	0.26
303.15	0.0723	853.17	0.26
303.15	0.0812	851.42	0.26
303.15	0.0917	849.36	0.26
313.15	0.0105	855.38	0.25
313.15	0.0207	853.26	0.25
313.15	0.0306	851.24	0.25
313.15	0.039	849.55	0.25
313.15	0.0508	847.19	0.25
313.15	0.0614	845.11	0.26
313.15	0.0723	843	0.26
313.15	0.0812	841.29	0.26
313.15	0.0917	839.28	0.26

System: benzene + dibutylamine; phases: Liquid
Fixed: Pressure, kPa = 101
Property: Mass density, kg/m3 (Liquid); method: Vibrating tube method
Temperature, K	Mole fraction of dibutylamine	Mass density, kg/m3	uncertainty
303.15	0.0108	865.75	0.25
303.15	0.0201	863.58	0.25
303.15	0.03	861.33	0.25
303.15	0.039	859.32	0.25
303.15	0.0487	857.18	0.25
303.15	0.0593	854.88	0.26
303.15	0.0689	852.86	0.26
303.15	0.0797	850.62	0.26
303.15	0.0892	848.69	0.26
313.15	0.0108	855.17	0.25
313.15	0.0201	853.13	0.25
313.15	0.03	851	0.25
313.15	0.039	849.09	0.25
313.15	0.0487	847.05	0.25
313.15	0.0593	844.85	0.26
313.15	0.0689	842.92	0.26
313.15	0.0797	840.79	0.26
313.15	0.0892	838.92	0.26

System: benzene + triethylamine; phases: Liquid
Fixed: Pressure, kPa = 101
Property: Mass density, kg/m3 (Liquid); method: Vibrating tube method
Temperature, K	Mole fraction of triethylamine	Mass density, kg/m3	uncertainty
303.15	0.0102	865.85	0.25
303.15	0.0209	863.38	0.25
303.15	0.0311	861.03	0.25
303.15	0.0395	859.07	0.25
303.15	0.0501	856.75	0.25
303.15	0.0618	854.1	0.26
303.15	0.0712	851.95	0.26
303.15	0.0804	850	0.26
303.15	0.0919	847.45	0.26
303.15	0.1	845.76	0.26
313.15	0.0102	855.14	0.25
313.15	0.0209	852.62	0.25
313.15	0.0311	850.24	0.25
313.15	0.0395	848.31	0.25
313.15	0.0501	845.93	0.25
313.15	0.0618	843.31	0.26
313.15	0.0712	841.23	0.26
313.15	0.0804	839.27	0.26
313.15	0.0919	836.79	0.26
313.15	0.1	835.08	0.26

System: benzene + tripropylamine; phases: Liquid
Fixed: Pressure, kPa = 101
Property: Mass density, kg/m3 (Liquid); method: Vibrating tube method
Temperature, K	Mole fraction of tripropylamine	Mass density, kg/m3	uncertainty
303.15	0.0104	865.5	0.25
303.15	0.0206	862.82	0.25
303.15	0.0307	860.21	0.25
303.15	0.0402	857.87	0.25
303.15	0.0497	855.54	0.25
303.15	0.0596	853.15	0.26
303.15	0.0693	850.88	0.26
303.15	0.0788	848.69	0.26
303.15	0.0889	846.42	0.26
313.15	0.0104	854.85	0.25
313.15	0.0206	852.24	0.25
313.15	0.0307	849.71	0.25
313.15	0.0402	847.43	0.25
313.15	0.0497	845.18	0.25
313.15	0.0596	842.85	0.26
313.15	0.0693	840.66	0.26
313.15	0.0788	838.55	0.26
313.15	0.0889	836.35	0.26

System: benzene + tributylamine; phases: Liquid
Fixed: Pressure, kPa = 101
Property: Mass density, kg/m3 (Liquid); method: Vibrating tube method
Temperature, K	Mole fraction of tributylamine	Mass density, kg/m3	uncertainty
303.15	0.0102	865.38	0.25
303.15	0.0206	862.54	0.25
303.15	0.0302	860.05	0.25
303.15	0.0404	857.48	0.25
303.15	0.0499	855.12	0.25
303.15	0.0596	852.77	0.26
303.15	0.0698	850.4	0.26
303.15	0.0796	848.22	0.26
303.15	0.0874	846.53	0.26
313.15	0.0102	854.76	0.25
313.15	0.0206	852.03	0.25
313.15	0.0302	849.61	0.25
313.15	0.0404	847.12	0.25
313.15	0.0499	844.87	0.25
313.15	0.0596	842.65	0.26
313.15	0.0698	840.38	0.26
313.15	0.0796	838.28	0.26
313.15	0.0874	836.65	0.26
