Measured thermophysical data. Analysis of solute-pyridine intermolecular interactions based on experimental enthalpies of solution and enthalpies of solvation of solutes dissolved in pyridine
Source: Thermochim. Acta, 2018, 10.1016/j.tca.2017.12.016
Compound 1: pyridine, C5H5N, InChI=1S/C5H5N/c1-2-4-6-5-3-1/h1-5H, purity 99.8%
Compound 2: propan-1-ol, C3H8O, InChI=1S/C3H8O/c1-2-3-4/h4H,2-3H2,1H3, purity 98%
Compound 3: octan-1-ol, C8H18O, InChI=1S/C8H18O/c1-2-3-4-5-6-7-8-9/h9H,2-8H2,1H3, purity 98%
Compound 4: 1,2-ethanediol, C2H6O2, InChI=1S/C2H6O2/c3-1-2-4/h3-4H,1-2H2, purity 99%
Compound 5: 2-methoxyphenol, C7H8O2, InChI=1S/C7H8O2/c1-9-7-5-3-2-4-6(7)8/h2-5,8H,1H3, purity 98%
Compound 6: 3-methoxyphenol, C7H8O2, InChI=1S/C7H8O2/c1-9-7-4-2-3-6(8)5-7/h2-5,8H,1H3, purity 97%
Compound 7: 4-methoxyphenol, C7H8O2, InChI=1S/C7H8O2/c1-9-7-4-2-6(8)3-5-7/h2-5,8H,1H3, purity 97%
Compound 8: 2-nitrophenol, C6H5NO3, InChI=1S/C6H5NO3/c8-6-4-2-1-3-5(6)7(9)10/h1-4,8H, purity 98%
Compound 9: 3-nitrophenol, C6H5NO3, InChI=1S/C6H5NO3/c8-6-3-1-2-5(4-6)7(9)10/h1-4,8H, purity 99%
Compound 10: 4-nitrophenol, C6H5NO3, InChI=1S/C6H5NO3/c8-6-3-1-5(2-4-6)7(9)10/h1-4,8H, purity 99%
Compound 11: 4-chlorophenol, C6H5ClO, InChI=1S/C6H5ClO/c7-5-1-3-6(8)4-2-5/h1-4,8H, purity 99%
Compound 12: 1-(2-hydroxyphenyl)ethanone, C8H8O2, InChI=1S/C8H8O2/c1-6(9)7-4-2-3-5-8(7)10/h2-5,10H,1H3, purity 98%
Compound 13: 4'-hydroxyacetophenone, C8H8O2, InChI=1S/C8H8O2/c1-6(9)7-2-4-8(10)5-3-7/h2-5,10H,1H3, purity 98%
Compound 14: methyl 2-hydroxybenzoate, C8H8O3, InChI=1S/C8H8O3/c1-11-8(10)6-4-2-3-5-7(6)9/h2-5,9H,1H3, purity 98%
Compound 15: ethyl 2-hydroxybenzoate, C9H10O3, InChI=1S/C9H10O3/c1-2-12-9(11)7-5-3-4-6-8(7)10/h3-6,10H,2H2,1H3, purity 99%
Compound 16: methyl 4-hydroxybenzoate, C8H8O3, InChI=1S/C8H8O3/c1-11-8(10)6-2-4-7(9)5-3-6/h2-5,9H,1H3, purity 99%
Compound 17: ethyl 4-hydroxybenzoate, C9H10O3, InChI=1S/C9H10O3/c1-2-12-9(11)7-3-5-8(10)6-4-7/h3-6,10H,2H2,1H3, purity 99%
Compound 18: propyl 4-hydroxybenzoate, C10H12O3, InChI=1S/C10H12O3/c1-2-7-13-10(12)8-3-5-9(11)6-4-8/h3-6,11H,2,7H2,1H3, purity 99%
Compound 19: 1,3-benzenediol, C6H6O2, InChI=1S/C6H6O2/c7-5-2-1-3-6(8)4-5/h1-4,7-8H, purity 99%
Compound 20: 1,4-benzenediol, C6H6O2, InChI=1S/C6H6O2/c7-5-1-2-6(8)4-3-5/h1-4,7-8H, purity 99%
Compound 21: piperidine, C5H11N, InChI=1S/C5H11N/c1-2-4-6-5-3-1/h6H,1-5H2, purity 99%
Compound 22: 1H-pyrazole, C3H4N2, InChI=1S/C3H4N2/c1-2-4-5-3-1/h1-3H,(H,4,5), purity 98%

System: pyridine + propan-1-ol; phases: Liquid
Property: Molar enthalpy of solution, kJ/mol (Liquid); method: Titration calorimetry
Mole fraction of propan-1-ol	Pressure, kPa	Temperature, K	Molar enthalpy of solution, kJ/mol	uncertainty
0	100	298.15	0.098	0.016

System: pyridine + octan-1-ol; phases: Liquid
Property: Molar enthalpy of solution, kJ/mol (Liquid); method: Titration calorimetry
Mole fraction of octan-1-ol	Pressure, kPa	Temperature, K	Molar enthalpy of solution, kJ/mol	uncertainty
0	100	298.15	3.24	0.07

System: pyridine + 1,2-ethanediol; phases: Liquid
Property: Molar enthalpy of solution, kJ/mol (Liquid); method: Titration calorimetry
Mole fraction of 1,2-ethanediol	Pressure, kPa	Temperature, K	Molar enthalpy of solution, kJ/mol	uncertainty
0	100	298.15	-4.64	0.1

System: pyridine + 2-methoxyphenol; phases: Liquid
Property: Molar enthalpy of solution, kJ/mol (Liquid); method: Titration calorimetry
Mole fraction of 2-methoxyphenol	Pressure, kPa	Temperature, K	Molar enthalpy of solution, kJ/mol	uncertainty
0	100	298.15	-11.47	0.33

System: pyridine + 3-methoxyphenol; phases: Liquid
Property: Molar enthalpy of solution, kJ/mol (Liquid); method: Titration calorimetry
Mole fraction of 3-methoxyphenol	Pressure, kPa	Temperature, K	Molar enthalpy of solution, kJ/mol	uncertainty
0	100	298.15	-15.85	0.22

System: pyridine + 4-methoxyphenol; phases: Liquid
Property: Molar enthalpy of solution, kJ/mol (Liquid); method: Power-compensation calorimetry
Mole fraction of 4-methoxyphenol	Pressure, kPa	Temperature, K	Molar enthalpy of solution, kJ/mol	uncertainty
0	100	298.15	2.96	0.13

System: pyridine + 2-nitrophenol; phases: Liquid
Property: Molar enthalpy of solution, kJ/mol (Liquid); method: Power-compensation calorimetry
Mole fraction of 2-nitrophenol	Pressure, kPa	Temperature, K	Molar enthalpy of solution, kJ/mol	uncertainty
0	100	298.15	10.19	0.23

System: pyridine + 3-nitrophenol; phases: Liquid
Property: Molar enthalpy of solution, kJ/mol (Liquid); method: Power-compensation calorimetry
Mole fraction of 3-nitrophenol	Pressure, kPa	Temperature, K	Molar enthalpy of solution, kJ/mol	uncertainty
0	100	298.15	0.22	0.03

System: pyridine + 4-nitrophenol; phases: Liquid
Property: Molar enthalpy of solution, kJ/mol (Liquid); method: Power-compensation calorimetry
Mole fraction of 4-nitrophenol	Pressure, kPa	Temperature, K	Molar enthalpy of solution, kJ/mol	uncertainty
0	100	298.15	-5.45	0.48

System: pyridine + 4-chlorophenol; phases: Liquid
Property: Molar enthalpy of solution, kJ/mol (Liquid); method: Power-compensation calorimetry
Mole fraction of 4-chlorophenol	Pressure, kPa	Temperature, K	Molar enthalpy of solution, kJ/mol	uncertainty
0	100	298.15	-6.41	0.08

System: pyridine + 1-(2-hydroxyphenyl)ethanone; phases: Liquid
Property: Molar enthalpy of solution, kJ/mol (Liquid); method: Titration calorimetry
Mole fraction of 1-(2-hydroxyphenyl)ethanone	Pressure, kPa	Temperature, K	Molar enthalpy of solution, kJ/mol	uncertainty
0	100	298.15	0.71	0.08

System: pyridine + 4'-hydroxyacetophenone; phases: Liquid
Property: Molar enthalpy of solution, kJ/mol (Liquid); method: Power-compensation calorimetry
Mole fraction of 4'-hydroxyacetophenone	Pressure, kPa	Temperature, K	Molar enthalpy of solution, kJ/mol	uncertainty
0	100	298.15	2.87	0.07

System: pyridine + methyl 2-hydroxybenzoate; phases: Liquid
Property: Molar enthalpy of solution, kJ/mol (Liquid); method: Titration calorimetry
Mole fraction of methyl 2-hydroxybenzoate	Pressure, kPa	Temperature, K	Molar enthalpy of solution, kJ/mol	uncertainty
0	100	298.15	1.7	0.06

System: pyridine + ethyl 2-hydroxybenzoate; phases: Liquid
Property: Molar enthalpy of solution, kJ/mol (Liquid); method: Titration calorimetry
Mole fraction of ethyl 2-hydroxybenzoate	Pressure, kPa	Temperature, K	Molar enthalpy of solution, kJ/mol	uncertainty
0	100	298.15	1.82	0.11

System: pyridine + methyl 4-hydroxybenzoate; phases: Liquid
Property: Molar enthalpy of solution, kJ/mol (Liquid); method: Power-compensation calorimetry
Mole fraction of methyl 4-hydroxybenzoate	Pressure, kPa	Temperature, K	Molar enthalpy of solution, kJ/mol	uncertainty
0	100	298.15	6.69	0.11

System: pyridine + ethyl 4-hydroxybenzoate; phases: Liquid
Property: Molar enthalpy of solution, kJ/mol (Liquid); method: Power-compensation calorimetry
Mole fraction of ethyl 4-hydroxybenzoate	Pressure, kPa	Temperature, K	Molar enthalpy of solution, kJ/mol	uncertainty
0	100	298.15	8.38	0.09

System: pyridine + propyl 4-hydroxybenzoate; phases: Liquid
Property: Molar enthalpy of solution, kJ/mol (Liquid); method: Power-compensation calorimetry
Mole fraction of propyl 4-hydroxybenzoate	Pressure, kPa	Temperature, K	Molar enthalpy of solution, kJ/mol	uncertainty
0	100	298.15	11.55	0.3

System: pyridine + 1,3-benzenediol; phases: Liquid
Property: Molar enthalpy of solution, kJ/mol (Liquid); method: Power-compensation calorimetry
Mole fraction of 1,3-benzenediol	Pressure, kPa	Temperature, K	Molar enthalpy of solution, kJ/mol	uncertainty
0	100	298.15	-19.05	0.15

System: pyridine + 1,4-benzenediol; phases: Liquid
Property: Molar enthalpy of solution, kJ/mol (Liquid); method: Power-compensation calorimetry
Mole fraction of 1,4-benzenediol	Pressure, kPa	Temperature, K	Molar enthalpy of solution, kJ/mol	uncertainty
0	100	298.15	-11.83	0.45

System: pyridine + piperidine; phases: Liquid
Property: Molar enthalpy of solution, kJ/mol (Liquid); method: Titration calorimetry
Mole fraction of piperidine	Pressure, kPa	Temperature, K	Molar enthalpy of solution, kJ/mol	uncertainty
0	100	298.15	1.56	0.03

System: pyridine + 1H-pyrazole; phases: Liquid
Property: Molar enthalpy of solution, kJ/mol (Liquid); method: Power-compensation calorimetry
Mole fraction of 1H-pyrazole	Pressure, kPa	Temperature, K	Molar enthalpy of solution, kJ/mol	uncertainty
0	100	298.15	10.14	0.08
