Measured thermophysical data. Thermodynamic investigation of room temperature ionic liquid: The heat capacity and standard enthalpy of formation of EMIES
Source: Thermochim. Acta, 2006, 10.1016/j.tca.2006.04.022
Compound 1: sulfur dioxide, O2S, InChI=1S/O2S/c1-3-2
Compound 2: carbon dioxide, CO2, InChI=1S/CO2/c2-1-3
Compound 3: nitrogen, N2, InChI=1S/N2/c1-2
Compound 4: water, H2O, InChI=1S/H2O/h1H2
Compound 5: oxygen, O2, InChI=1S/O2/c1-2
Compound 6: 1-ethyl-3-methylimidazolium ethyl sulfate, C8H16N2O4S, InChI=1S/C6H11N2.C2H6O4S/c1-3-8-5-4-7(2)6-8;1-2-6-7(3,4)5/h4-6H,3H2,1-2H3;2H2,1H3,(H,3,4,5)/q+1;/p-1

System: 1-ethyl-3-methylimidazolium ethyl sulfate; phases: Glass, Liquid, Gas
Property: Triple point temperature, K (Glass); method: Adiabatic calorimetry
Triple point temperature, K	uncertainty
192.85	0.05

System: 1-ethyl-3-methylimidazolium ethyl sulfate; phases: Liquid
Fixed: Pressure, kPa = 101.325
Property: Molar heat capacity at constant pressure, J/K/mol (Liquid); method: Vacuum adiabatic calorimetry
Temperature, K	Molar heat capacity at constant pressure, J/K/mol	uncertainty
196.36	346.8	24.3
197.81	347.7	24.3
199.27	348.4	24.4
200.76	349.4	24.5
202.25	349.9	24.5
203.79	350.5	24.5
205.33	350.9	24.6
206.9	351.5	24.6
208.47	351.9	24.6
210.06	352.4	24.7
211.66	352.8	24.7
213.18	353.2	24.7
214.52	353.7	24.8
215.86	354.1	24.8
217.18	354.5	24.8
218.5	354.9	24.8
219.81	355.4	24.9
221.12	355.7	24.9
222.41	356.1	24.9
223.71	356.5	25
225	356.8	25
226.27	357.1	25
227.54	357.5	25
228.79	357.8	25
230.03	358.1	25.1
231.26	358.4	25.1
232.46	359	25.1
233.66	359.3	25.2
234.84	359.6	25.2
236.02	359.8	25.2
237.19	360.2	25.2
238.37	360.5	25.2
239.54	361	25.3
240.7	361.3	25.3
241.86	361.5	25.3
243.01	361.9	25.3
244.15	362.2	25.4
245.29	362.5	25.4
246.43	363.1	25.4
247.58	363.5	25.4
248.73	363.9	25.5
249.88	364.2	25.5
251.02	364.5	25.5
252.17	364.8	25.5
253.31	365.5	25.6
254.45	365.8	25.6
255.6	366.1	25.6
256.73	366.3	25.6
257.87	366.8	25.7
259	367.1	25.7
260.13	367.4	25.7
261.27	367.6	25.7
262.4	367.8	25.7
263.53	368	25.8
264.66	368.3	25.8
265.8	368.7	25.8
266.93	369.1	25.8
268.06	369.4	25.9
269.19	369.5	25.9
270.33	369.9	25.9
271.45	370.3	25.9
272.58	370.8	26
273.71	371	26
274.83	371.2	26
275.94	371.5	26
277.06	371.8	26
278.18	372	26
279.28	372.4	26.1
280.39	373	26.1
281.5	373.1	26.1
282.62	373.5	26.1
283.72	373.8	26.2
284.83	374.2	26.2
285.95	374.5	26.2
287.05	374.7	26.2
288.15	375	26.3
289.26	375.4	26.3
290.37	375.6	26.3
291.47	376	26.3
292.58	376.1	26.3
293.69	376.5	26.4
294.79	376.8	26.4
295.9	377	26.4
297	377.4	26.4
298.11	378	26.5
299.22	378.2	26.5
300.32	378.6	26.5
301.43	378.9	26.5
302.54	379.1	26.5
303.64	379.3	26.6
304.74	379.6	26.6
305.86	379.9	26.6
306.96	380.1	26.6
308.07	380.3	26.6
309.18	380.4	26.6
310.29	380.8	26.7
311.4	380.9	26.7
312.52	381.2	26.7
313.63	381.6	26.7
314.75	381.8	26.7
315.85	382	26.7
316.97	382.3	26.8
318.08	382.7	26.8
319.19	383	26.8
320.31	383.1	26.8
321.42	383.4	26.8
322.53	383.6	26.9
323.66	383.9	26.9
324.75	383.9	26.9
325.84	384.4	26.9
326.92	384.6	26.9
327.99	384.8	26.9
329.08	384.9	26.9
330.17	385.1	27
331.26	385.6	27
332.35	385.9	27
333.43	386.1	27
334.52	386.5	27.1
335.6	386.6	27.1
336.68	386.9	27.1
337.77	387.3	27.1
338.86	387.4	27.1
339.94	387.8	27.1
341.04	388.1	27.2
342.13	388.3	27.2
343.22	388.6	27.2
344.31	388.9	27.2
345.4	389.2	27.2
346.49	389.5	27.3
347.58	389.7	27.3
348.65	390	27.3
349.73	390.2	27.3
350.82	390.5	27.3
351.91	390.8	27.4
353.01	391.3	27.4
354.11	391.6	27.4
355.22	392	27.4
356.31	392.3	27.5
357.42	392.5	27.5
358.53	392.7	27.5
359.63	392.8	27.5
360.75	392.9	27.5
361.87	393.1	27.5
363	393.4	27.5
364.13	393.5	27.5
365.29	393.6	27.6
366.38	393.9	27.6
367.47	394.1	27.6
368.52	394.5	27.6
369.63	394.7	27.6
370.76	394.9	27.6
371.78	395.1	27.7
372.82	395.3	27.7
373.9	395.6	27.7
374.98	395.8	27.7
376.02	396.2	27.7
377.08	396.5	27.8
378.13	396.8	27.8
379.52	397.1	27.8
380.42	397.3	27.8
381.38	397.5	27.8
382.35	397.8	27.8
383.43	398	27.9
384.34	398.2	27.9
385.25	398.5	27.9
386.14	398.8	27.9
387.09	399.1	27.9
388.01	399.5	28
388.98	399.7	28
389.95	399.9	28

System: 1-ethyl-3-methylimidazolium ethyl sulfate; phases: Glass
Fixed: Pressure, kPa = 101.325
Property: Molar heat capacity at constant pressure, J/K/mol (Glass); method: Vacuum adiabatic calorimetry
Temperature, K	Molar heat capacity at constant pressure, J/K/mol	uncertainty
79.23	127.8	8.9
79.7	128.6	9
80.51	129.4	9.1
81.67	130.9	9.2
82.84	131.5	9.2
83.99	133.2	9.3
85.31	135.2	9.5
86.78	136.3	9.5
88.25	137.9	9.7
89.7	138.8	9.7
91.13	141.2	9.9
92.56	142.2	10
93.97	143.4	10
95.39	145.2	10.2
96.79	146.4	10.3
98.17	147.5	10.3
99.54	149.6	10.5
100.91	151	10.6
102.27	151.6	10.6
103.61	152.9	10.7
104.96	154.3	10.8
106.29	155.3	10.9
107.62	155.8	10.9
108.95	157.3	11
110.26	158.3	11.1
111.57	159.1	11.1
112.87	160.6	11.2
114.17	162.4	11.4
115.46	163.1	11.4
116.74	163.6	11.5
118.02	165.2	11.6
119.29	166.8	11.7
120.55	167.9	11.8
121.82	168.9	11.8
123.06	170.1	11.9
124.32	170.7	12
125.55	172.1	12.1
126.8	173.9	12.2
128.22	174.7	12.2
129.84	176.7	12.4
131.45	178.2	12.5
133.04	178.9	12.5
134.63	180	12.6
136.21	181.3	12.7
137.77	183.2	12.8
139.34	184.6	12.9
140.89	185.1	13
142.73	187.4	13.1
144.86	189.6	13.3
146.97	191.6	13.4
149.07	194.6	13.6
151.16	196.7	13.8
153.21	198.7	13.9
155.27	200.9	14.1
157.3	202.8	14.2
159.33	203.6	14.3
161.34	205.9	14.4
163.34	208.6	14.6
165.33	210.2	14.7
167.3	212.6	14.9
169.27	214.9	15
171.23	216.9	15.2
173.18	218.1	15.3
175.11	220.4	15.4
177.05	223.2	15.6
178.98	226	15.8
180.91	229.3	16.1
182.83	231.6	16.2
184.74	234.3	16.4
186.65	238	16.7
188.56	243.9	17.1
190.42	251.8	17.6
192.11	273.4	19.1
193.57	313.7	22
194.94	340.7	23.9

Reaction: 1 sulfur dioxide + -1 1-ethyl-3-methylimidazolium ethyl sulfate + 8 carbon dioxide + 1 nitrogen + 8 water + -11 oxygen
Property: Molar internal energy of reaction at constant volume, kJ/mol
-5150.1
