Measured thermophysical data. Heat capacity studies of phase transitions in K3Nb3O6(BO3)2
Source: Thermochim. Acta, 2005, 10.1016/j.tca.2005.08.027
Compound 1: niobium potassium borate oxide (Nb3K3(BO3)2O6), B2K3Nb3O12, InChI=1S/2BO3.3K.3Nb.6O/c2*2-1(3)4;;;;;;;;;;;;/q2*-3;3*+1;3*+5;6*-2, purity 99%

System: niobium potassium borate oxide (Nb3K3(BO3)2O6); phases: Crystal 2, Crystal 1, Gas
Property: Molar enthalpy of transition or fusion, kJ/mol (Crystal 2); method: ADIACA:FP
Molar enthalpy of transition or fusion, kJ/mol	uncertainty
0.0957	0.005

System: niobium potassium borate oxide (Nb3K3(BO3)2O6); phases: Crystal 2, Crystal 1, Gas
Property: Triple point temperature, K (Crystal 2); method: ADIACA:corrimp
Triple point temperature, K	uncertainty
198.3	5

System: niobium potassium borate oxide (Nb3K3(BO3)2O6); phases: Crystal 2
Fixed: Pressure, kPa = 101.325
Property: Molar heat capacity at constant pressure, J/K/mol (Crystal 2); method: Small (less than 1 g) adiabatic calorimetry
Temperature, K	Molar heat capacity at constant pressure, J/K/mol	uncertainty
65.6925	111.368	0.657
66.6555	112.263	0.662
68.0052	114.816	0.675
68.8205	116.83	0.69
69.4256	118.338	0.693
70.6623	120.676	0.705
71.4125	123.46	0.72
72.3101	124.68	0.72
73.0351	126.651	0.735
73.6101	128.279	0.743
74.1821	129.457	0.749
74.888	131.705	0.76
75.448	132.699	0.765
76.003	134.067	0.773
76.554	135.985	0.782
77.101	137.193	0.788
77.643	139.021	0.799
78.18	141.709	0.814
78.712	143.875	0.822
79.239	145.313	0.829
79.763	147.121	0.839
80.282	149.279	0.849
80.798	150.594	0.854
81.31	151.883	0.859
81.821	150.24	0.85
82.33	151.786	0.863
82.834	154.274	0.874
83.336	155.34	0.88
83.834	156.388	0.883
84.33	157.504	0.888
84.823	158.172	0.892
85.313	159.19	0.9
85.802	159.376	0.897
86.288	159.842	0.9
86.773	160.54	0.9
87.255	161.21	0.91
87.736	162.143	0.911
88.214	162.58	0.91
88.69	163.468	0.919
89.164	164.784	0.925
89.636	165.54	0.93
90.105	166.057	0.865
90.573	166.653	0.867
91.038	167.309	0.87
91.502	167.919	0.872
92.1225	168.468	0.874
92.424	169.009	0.876
92.883	169.277	0.877
93.341	170.122	0.881
94.251	170.98	0.88
94.704	171.853	0.889
95.154	173.029	0.893
95.4631	173.156	0.893
96.05	173.671	0.895
96.496	174.457	0.898
96.94	174.985	0.9
97.383	175.631	0.903
97.824	176.437	0.906
98.264	176.682	0.907
98.702	177.029	0.908
99.139	177.724	0.911
99.575	177.94	0.91
100.01	178.518	0.914
100.44	179.064	0.917
100.87	180.116	0.921
101.73	180.71	0.92
101.8	180.59	0.92
102.76	181.84	0.93
103.72	183.25	0.93
104.74	184.472	0.938
106.17	185.951	0.944
107.6	186.993	0.948
108.92	188.269	0.953
110.15	190.23	0.96
112.14	192.37	0.97
114.11	194.34	0.98
116.38	196.273	0.985
118.21	198.923	0.996
120.07	201.211	1.005
122.05	203.72	1.02
124.04	205.19	1.02
126.03	207.58	1.03
126.89	208.913	1.036
128.01	210	1
129.198	211.456	1.046
130	211.98	1.05
131.012	213.328	1.053
132.22	213.68	1.05
132.971	214.597	1.059
134.08	215.43	1.06
134.56	215.789	1.063
135.59	216.578	1.066
136.62	217.27	1.07
137.64	218.22	1.07
138.66	219.3	1.1
139.68	219.741	1.079
140.69	220.48	1.08
141.7	220.55	1.08
142.71	221.62	1.09
143.71	222.35	1.09
144.71	223.13	1.09
145.71	223.17	1.09
146.551	224.476	1.098
147.7	224.76	1.1
148.69	225.58	1.1
149.68	226.85	1.11
150.66	228.42	1.11
151.64	228.58	1.11
152.62	229.441	1.118
153.6	230.52	1.12
154.57	231.864	1.128
155.12	232.52	1.13
155.99	232.88	1.13
156.5	233.84	1.14
156.85	234.03	1.14
157.71	234.55	1.14
158.56	235.56	1.14
159.42	236.05	1.14
160.27	236.33	1.15
161.12	236.91	1.15
161.97	237.09	1.15
162.82	237.81	1.15
163.66	238.26	1.15
164.51	239.121	1.157
165.35	239.331	1.157
166.19	240.281	1.161
167.03	240.57	1.16
167.87	241.8	1.2
168.7	242.99	1.17
169.53	243.5	1.2
170.36	244.01	1.18
171.19	244.58	1.18
172.02	245.61	1.18
172.84	246.09	1.18
173.67	246.68	1.19
174.49	247.81	1.19
175.31	248.29	1.19
176.13	249.6	1.2
176.94	250.57	1.2
177.76	251.26	1.21
178.57	251.63	1.21
179.38	252.11	1.21
180.19	252.65	1.21
181	253.18	1.21
181.81	253.43	1.21
182.62	254.02	1.22
183.01	254.49	1.22
183.42	254.74	1.22
184.22	255.63	1.22
185	256.66	1.23
185.03	256.78	1.23
185.82	257.73	1.23
186.62	258.43	1.23
187.42	259.02	1.24
187.43	258.83	1.24
187.86	258.94	1.24
188.21	259.42	1.24
188.28	259.59	1.24
188.7	259.976	1.24
189.03	260.13	1.24
189.43	260.53	1.24
189.97	261.279	1.245
190.576	261.839	1.247
191.113	262.072	1.248
191.47	262.308	1.249
192.2	262.569	1.25
192.57	262.681	1.251
192.93	263.083	1.252
193.3	263.076	1.252
193.66	263.737	1.255
194.264	264.241	1.257
194.75	265.317	1.262
195.12	265.929	1.264
195.48	266.311	1.265
195.84	266.633	1.267
196.21	267.605	1.278
196.57	271.827	1.298
196.93	273.559	1.322
197.29	281.481	1.437
197.64	293.233	1.628
197.99	312.085	1.502
198.33	326.573	1.511

System: niobium potassium borate oxide (Nb3K3(BO3)2O6); phases: Crystal 1
Fixed: Pressure, kPa = 101.325
Property: Molar heat capacity at constant pressure, J/K/mol (Crystal 1); method: Small (less than 1 g) adiabatic calorimetry
Temperature, K	Molar heat capacity at constant pressure, J/K/mol	uncertainty
198.67	316.06	1.54
199.02	282.151	1.833
199.38	271.143	1.325
199.74	270.526	1.283
200.11	269.518	1.278
200.777	269.559	1.278
201.55	269.503	1.278
201.92	269.215	1.277
202.64	268.839	1.275
203.603	268.92	1.28
204.08	269.127	1.277
204.45	268.997	1.276
205.17	269.081	1.276
205.647	269.417	1.278
206.007	269.439	1.278
206.6	269.731	1.279
206.912	269.736	1.279
207.447	269.934	1.28
207.817	270.496	1.282
208.294	270.376	1.282
209.14	270.77	1.28
209.78	270.696	1.283
210.27	270.959	1.284
210.58	271.086	1.284
211.25	270.922	1.284
211.73	270.707	1.283
212.22	271.347	1.285
212.71	271.419	1.286
213.09	272.24	1.29
213.68	271.984	1.288
214.17	271.806	1.288
214.66	273.29	1.29
215.023	272.388	1.29
215.513	273.735	1.295
216.12	273.622	1.295
216.68	274.4	1.3
217.207	274.362	1.297
217.57	274.44	1.3
218.06	274.989	1.3
218.54	275.49	1.3
219.02	275.86	1.3
219.51	275.62	1.3
219.99	276.51	1.31
220.47	277.23	1.31
