Measured thermophysical data. Enthalpies of dilution of formamide in aqueous alcohol solutions at 298.15K
Source: Thermochim. Acta, 2007, 10.1016/j.tca.2007.10.006
Compound 1: glycerol, C3H8O3, InChI=1S/C3H8O3/c4-1-3(6)2-5/h3-6H,1-2H2
Compound 2: formamide, CH3NO, InChI=1S/CH3NO/c2-1-3/h1H,(H2,2,3)
Compound 3: water, H2O, InChI=1S/H2O/h1H2, purity 99.99%
Compound 4: propan-1-ol, C3H8O, InChI=1S/C3H8O/c1-2-3-4/h4H,2-3H2,1H3
Compound 5: 1,2-propanediol, C3H8O2, InChI=1S/C3H8O2/c1-3(5)2-4/h3-5H,2H2,1H3

System: formamide + water; phases: Liquid
Fixed: Initial molality of solute, mol/kg = 2.9581
Fixed: Temperature, K = 298.15
Fixed: Pressure, kPa = 101
Property: Molar enthalpy of dilution, kJ/mol (Liquid); method: Flow calorimetry
Final molality of solute, mol/kg	Molar enthalpy of dilution, kJ/mol	uncertainty
0.5419	0.2116	0.00306
0.6043	0.20654	0.00299
0.681	0.19746	0.00289
0.7792	0.18736	0.00276
0.9137	0.17699	0.00264
1.1071	0.15962	0.00243
1.3989	0.13293	0.00212
1.697	0.10679	0.00181
1.902	0.08834	0.0016
2.0481	0.0754	0.00145
2.1568	0.06627	0.00135
2.2427	0.05874	0.00127
2.3134	0.05262	0.0012

System: propan-1-ol + formamide + water; phases: Liquid
Fixed: Temperature, K = 298.15
Fixed: Pressure, kPa = 101
Property: Molar enthalpy of dilution, kJ/mol (Liquid); method: Flow calorimetry
Solvent: Mass fraction of propan-1-ol	Initial molality of solute, mol/kg	Final molality of solute, mol/kg	Molar enthalpy of dilution, kJ/mol	uncertainty
0	2.9581	0.5419	0.2116	0.00306
0	2.9581	0.6043	0.20654	0.00299
0	2.9581	0.681	0.19746	0.00289
0	2.9581	0.7792	0.18736	0.00276
0	2.9581	0.9137	0.17699	0.00264
0	2.9581	1.1071	0.15962	0.00243
0	2.9581	1.3989	0.13293	0.00212
0	2.9581	1.697	0.10679	0.00181
0	2.9581	1.902	0.08834	0.0016
0	2.9581	2.0481	0.0754	0.00145
0	2.9581	2.1568	0.06627	0.00135
0	2.9581	2.2427	0.05874	0.00127
0	2.9581	2.3134	0.05262	0.0012
0.05	3.0118	0.5511	0.38431	0.00515
0.05	3.0118	0.6145	0.37428	0.00503
0.05	3.0118	0.6925	0.36124	0.00487
0.05	3.0118	0.7924	0.34156	0.00463
0.05	3.0118	0.9293	0.32323	0.00441
0.05	3.0118	1.1261	0.28613	0.00396
0.05	3.0118	1.4231	0.23813	0.00338
0.05	3.0118	1.7267	0.18681	0.00276
0.05	3.0118	1.9355	0.15443	0.00237
0.05	3.0118	2.0843	0.13032	0.00209
0.05	3.0118	2.195	0.11404	0.0019
0.05	3.0118	2.2826	0.09951	0.00173
0.05	3.0118	2.3547	0.09003	0.00162
0.1	3.0037	0.5483	0.58959	0.00765
0.1	3.0037	0.6114	0.56705	0.00738
0.1	3.0037	0.6891	0.54747	0.00714
0.1	3.0037	0.7886	0.51978	0.0068
0.1	3.0037	0.9249	0.48301	0.00635
0.1	3.0037	1.121	0.43209	0.00573
0.1	3.0037	1.4171	0.35774	0.00482
0.1	3.0037	1.7199	0.28066	0.00389
0.1	3.0037	1.9282	0.23037	0.00328
0.1	3.0037	2.0768	0.19652	0.00287
0.1	3.0037	2.1873	0.17096	0.00257
0.1	3.0037	2.2748	0.15335	0.00236
0.1	3.0037	2.3468	0.13644	0.00216
0.15	2.9948	0.5506	0.69249	0.00891
0.15	2.9948	0.614	0.68105	0.00877
0.15	2.9948	0.6918	0.64196	0.00829
0.15	2.9948	0.7914	0.61369	0.00795
0.15	2.9948	0.9278	0.57006	0.00741
0.15	2.9948	1.1239	0.5086	0.00666
0.15	2.9948	1.4195	0.41595	0.00553
0.15	2.9948	1.7213	0.33189	0.00451
0.15	2.9948	1.9287	0.27089	0.00377
0.15	2.9948	2.0764	0.23579	0.00335
0.15	2.9948	2.1861	0.20587	0.00299
0.15	2.9948	2.273	0.17968	0.00267
0.15	2.9948	2.3444	0.1615	0.00246
0.2	3.001	0.5477	0.65879	0.0085
0.2	3.001	0.6108	0.62484	0.00808
0.2	3.001	0.6884	0.6003	0.00778
0.2	3.001	0.7878	0.56881	0.0074
0.2	3.001	0.9239	0.52165	0.00682
0.2	3.001	1.1199	0.46124	0.00609
0.2	3.001	1.4157	0.37783	0.00507
0.2	3.001	1.7183	0.29616	0.00408
0.2	3.001	1.9264	0.24068	0.00341
0.2	3.001	2.0749	0.20575	0.00299
0.2	3.001	2.1853	0.1756	0.00262
0.2	3.001	2.2727	0.16071	0.00245
0.2	3.001	2.3446	0.13984	0.0022
0.25	3.0044	0.55	0.59791	0.00775
0.25	3.0044	0.6133	0.56454	0.00735
0.25	3.0044	0.6912	0.55278	0.0072
0.25	3.0044	0.7909	0.51919	0.00679
0.25	3.0044	0.9274	0.47935	0.00631
0.25	3.0044	1.1238	0.42465	0.00564
0.25	3.0044	1.4201	0.35096	0.00474
0.25	3.0044	1.723	0.27754	0.00385
0.25	3.0044	1.9312	0.22738	0.00325
0.25	3.0044	2.0796	0.19484	0.00285
0.25	3.0044	2.19	0.17006	0.00256
0.25	3.0044	2.2773	0.14801	0.0023
0.25	3.0044	2.3492	0.13163	0.0021
0.3	2.9893	0.549	0.55721	0.00726
0.3	2.9893	0.6122	0.53668	0.00701
0.3	2.9893	0.6898	0.51713	0.00677
0.3	2.9893	0.7892	0.49056	0.00644
0.3	2.9893	0.9252	0.45464	0.006
0.3	2.9893	1.1209	0.40408	0.00539
0.3	2.9893	1.4159	0.33052	0.00449
0.3	2.9893	1.7171	0.26047	0.00364
0.3	2.9893	1.9242	0.21489	0.0031
0.3	2.9893	2.0716	0.1824	0.00271
0.3	2.9893	2.1813	0.15969	0.00243
0.3	2.9893	2.268	0.14303	0.00224
0.3	2.9893	2.3394	0.12719	0.00205

System: 1,2-propanediol + formamide + water; phases: Liquid
Fixed: Temperature, K = 298.15
Fixed: Pressure, kPa = 101
Property: Molar enthalpy of dilution, kJ/mol (Liquid); method: Flow calorimetry
Solvent: Mass fraction of 1,2-propanediol	Initial molality of solute, mol/kg	Final molality of solute, mol/kg	Molar enthalpy of dilution, kJ/mol	uncertainty
0	2.9581	0.5419	0.2116	0.00306
0	2.9581	0.6043	0.20654	0.00299
0	2.9581	0.681	0.19746	0.00289
0	2.9581	0.7792	0.18736	0.00276
0	2.9581	0.9137	0.17699	0.00264
0	2.9581	1.1071	0.15962	0.00243
0	2.9581	1.3989	0.13293	0.00212
0	2.9581	1.697	0.10679	0.00181
0	2.9581	1.902	0.08834	0.0016
0	2.9581	2.0481	0.0754	0.00145
0	2.9581	2.1568	0.06627	0.00135
0	2.9581	2.2427	0.05874	0.00127
0	2.9581	2.3134	0.05262	0.0012
0.05	3.0016	0.5496	0.29188	0.00403
0.05	3.0016	0.6129	0.27967	0.00388
0.05	3.0016	0.6906	0.2757	0.00383
0.05	3.0016	0.7902	0.25927	0.00363
0.05	3.0016	0.9266	0.24019	0.0034
0.05	3.0016	1.1229	0.21487	0.00309
0.05	3.0016	1.4189	0.17848	0.00266
0.05	3.0016	1.7215	0.1412	0.00222
0.05	3.0016	1.9295	0.11647	0.00192
0.05	3.0016	2.0778	0.09819	0.00171
0.05	3.0016	2.1881	0.08654	0.00158
0.05	3.0016	2.2753	0.07889	0.00149
0.05	3.0016	2.3471	0.07067	0.0014
0.1	2.9921	0.5471	0.36755	0.00494
0.1	2.9921	0.6102	0.35603	0.0048
0.1	2.9921	0.6876	0.34103	0.00462
0.1	2.9921	0.7869	0.31878	0.00435
0.1	2.9921	0.9227	0.29326	0.00404
0.1	2.9921	1.11825	0.26615	0.00371
0.1	2.9921	1.4133	0.2231	0.00319
0.1	2.9921	1.7149	0.17902	0.00266
0.1	2.9921	1.9224	0.14851	0.0023
0.1	2.9921	2.0702	0.12605	0.00204
0.1	2.9921	2.1802	0.11025	0.00185
0.1	2.9921	2.2673	0.09958	0.00173
0.1	2.9921	2.3389	0.08993	0.00162
0.15	2.9986	0.5484	0.43458	0.00576
0.15	2.9986	0.6115	0.4214	0.0056
0.15	2.9986	0.6892	0.40709	0.00543
0.15	2.9986	0.7886	0.38229	0.00512
0.15	2.9986	0.9248	0.35529	0.0048
0.15	2.9986	1.1207	0.31787	0.00434
0.15	2.9986	1.4164	0.26275	0.00367
0.15	2.9986	1.7187	0.20922	0.00303
0.15	2.9986	1.9266	0.17364	0.0026
0.15	2.9986	2.0748	0.14872	0.0023
0.15	2.9986	2.185	0.1305	0.00209
0.15	2.9986	2.2722	0.11709	0.00193
0.15	2.9986	2.344	0.10573	0.0018
0.2	2.994	0.5473	0.52453	0.00686
0.2	2.994	0.6103	0.50675	0.00664
0.2	2.994	0.6878	0.49175	0.00646
0.2	2.994	0.7871	0.46123	0.00608
0.2	2.994	0.923	0.42296	0.00562
0.2	2.994	1.1186	0.37552	0.00504
0.2	2.994	1.4138	0.31054	0.00425
0.2	2.994	1.7157	0.24673	0.00348
0.2	2.994	1.9233	0.20377	0.00296
0.2	2.994	2.0713	0.17544	0.00262
0.2	2.994	2.1814	0.15375	0.00236
0.2	2.994	2.2685	0.13693	0.00216
0.2	2.994	2.3401	0.12348	0.00201
0.25	3.0006	0.548	0.55066	0.00718
0.25	3.0006	0.6111	0.53445	0.00698
0.25	3.0006	0.6887	0.52125	0.00682
0.25	3.0006	0.7881	0.48903	0.00642
0.25	3.0006	0.9243	0.45495	0.00601
0.25	3.0006	1.1203	0.40667	0.00542
0.25	3.0006	1.4161	0.33512	0.00455
0.25	3.0006	1.7186	0.26611	0.00371
0.25	3.0006	1.9267	0.2188	0.00314
0.25	3.0006	2.0751	0.18832	0.00278
0.25	3.0006	2.1855	0.16463	0.00249
0.25	3.0006	2.2728	0.1458	0.00227
0.25	3.0006	2.3447	0.13134	0.0021
0.3	2.9912	0.6088	0.54415	0.0071
0.3	2.9912	0.6862	0.52114	0.00682
0.3	2.9912	0.7852	0.49763	0.00653
0.3	2.9912	0.9209	0.46493	0.00613
0.3	2.9912	1.1163	0.41394	0.00551
0.3	2.9912	1.4111	0.3398	0.00461
0.3	2.9912	1.7127	0.26578	0.00371
0.3	2.9912	1.9201	0.2217	0.00318
0.3	2.9912	2.0681	0.18687	0.00276
0.3	2.9912	2.1782	0.16609	0.00251
0.3	2.9912	2.2653	0.14694	0.00228
0.3	2.9912	2.337	0.13199	0.00211

System: glycerol + formamide + water; phases: Liquid
Fixed: Temperature, K = 298.15
Fixed: Pressure, kPa = 101
Property: Molar enthalpy of dilution, kJ/mol (Liquid); method: Flow calorimetry
Solvent: Mass fraction of glycerol	Initial molality of solute, mol/kg	Final molality of solute, mol/kg	Molar enthalpy of dilution, kJ/mol	uncertainty
0	2.9581	0.5419	0.2116	0.00306
0	2.9581	0.6043	0.20654	0.00299
0	2.9581	0.681	0.19746	0.00289
0	2.9581	0.7792	0.18736	0.00276
0	2.9581	0.9137	0.17699	0.00264
0	2.9581	1.1071	0.15962	0.00243
0	2.9581	1.3989	0.13293	0.00212
0	2.9581	1.697	0.10679	0.00181
0	2.9581	1.902	0.08834	0.0016
0	2.9581	2.0481	0.0754	0.00145
0	2.9581	2.1568	0.06627	0.00135
0	2.9581	2.2427	0.05874	0.00127
0	2.9581	2.3134	0.05262	0.0012
0.05	2.9567	0.5409	0.24256	0.00343
0.05	2.9567	0.6032	0.23202	0.0033
0.05	2.9567	0.6798	0.22756	0.00325
0.05	2.9567	0.7778	0.21391	0.00308
0.05	2.9567	0.9121	0.19867	0.0029
0.05	2.9567	1.1054	0.17604	0.00263
0.05	2.9567	1.3969	0.14672	0.00228
0.05	2.9567	1.695	0.11378	0.00189
0.05	2.9567	1.8999	0.09413	0.00167
0.05	2.9567	2.0461	0.08115	0.00152
0.05	2.9567	2.1547	0.07193	0.00141
0.05	2.9567	2.2407	0.0637	0.00132
0.05	2.9567	2.3115	0.05717	0.00125
0.1	2.9829	0.5443	0.26991	0.00376
0.1	2.9829	0.607	0.26012	0.00364
0.1	2.9829	0.6841	0.25043	0.00352
0.1	2.9829	0.7829	0.23471	0.00333
0.1	2.9829	0.9182	0.21708	0.00312
0.1	2.9829	1.113	0.19422	0.00285
0.1	2.9829	1.407	0.16183	0.00246
0.1	2.9829	1.7077	0.12865	0.00207
0.1	2.9829	1.9146	0.10647	0.00181
0.1	2.9829	2.0622	0.08928	0.00161
0.1	2.9829	2.172	0.07925	0.0015
0.1	2.9829	2.2589	0.06864	0.00138
0.1	2.9829	2.3304	0.06296	0.00131
0.15	2.9946	0.5461	0.28519	0.00394
0.15	2.9946	0.609	0.27809	0.00386
0.15	2.9946	0.6864	0.26288	0.00367
0.15	2.9946	0.7855	0.25104	0.00353
0.15	2.9946	0.9213	0.23666	0.00336
0.15	2.9946	1.1168	0.21005	0.00304
0.15	2.9946	1.4119	0.17397	0.0026
0.15	2.9946	1.7138	0.13673	0.00216
0.15	2.9946	1.9216	0.11435	0.0019
0.15	2.9946	2.0698	0.09553	0.00168
0.15	2.9946	2.18	0.08455	0.00156
0.15	2.9946	2.2673	0.07251	0.00142
0.15	2.9946	2.3391	0.06615	0.00135
0.2	2.9705	0.5421	0.29885	0.00411
0.2	2.9705	0.6046	0.29524	0.00407
0.2	2.9705	0.6814	0.27959	0.00388
0.2	2.9705	0.7798	0.26545	0.00371
0.2	2.9705	0.9145	0.25017	0.00352
0.2	2.9705	1.1085	0.22179	0.00318
0.2	2.9705	1.4013	0.18451	0.00273
0.2	2.9705	1.7008	0.14463	0.00226
0.2	2.9705	1.9068	0.12063	0.00197
0.2	2.9705	2.0537	0.10147	0.00175
0.2	2.9705	2.1631	0.08943	0.00161
0.2	2.9705	2.2496	0.07808	0.00148
0.2	2.9705	2.3208	0.07029	0.0014
0.25	2.9891	0.544	0.30746	0.00421
0.25	2.9891	0.6067	0.30376	0.00417
0.25	2.9891	0.6838	0.28933	0.00399
0.25	2.9891	0.7827	0.27462	0.00382
0.25	2.9891	0.9181	0.2594	0.00363
0.25	2.9891	1.113	0.22951	0.00327
0.25	2.9891	1.4075	0.19073	0.00281
0.25	2.9891	1.7089	0.14941	0.00231
0.25	2.9891	1.9164	0.12493	0.00202
0.25	2.9891	2.0644	0.10531	0.00179
0.25	2.9891	2.1746	0.0922	0.00164
0.25	2.9891	2.2618	0.08082	0.00151
0.25	2.9891	2.3336	0.07343	0.00143
0.3	3.0038	0.5465	0.31365	0.00429
0.3	3.0038	0.6095	0.31111	0.00426
0.3	3.0038	0.687	0.2937	0.00405
0.3	3.0038	0.7863	0.28097	0.00389
0.3	3.0038	0.9224	0.26371	0.00368
0.3	3.0038	1.1183	0.23531	0.00334
0.3	3.0038	1.4142	0.19399	0.00284
0.3	3.0038	1.717	0.15315	0.00236
0.3	3.0038	1.9256	0.1277	0.00206
0.3	3.0038	2.0743	0.10805	0.00183
0.3	3.0038	2.1851	0.0952	0.00168
0.3	3.0038	2.2727	0.08205	0.00153
0.3	3.0038	2.3448	0.07456	0.00144
