Measured thermophysical data. Thermodynamic properties of ternary mixtures of 1-ethyl-3-methylimidazolium  tetrafluoroborate with 1-methyl pyrrolidin-2-one or pyrrolidin-2-one + water
Source: Thermochim. Acta, 2013, 10.1016/j.tca.2013.04.011
Compound 1: 1-ethyl-3-methylimidazolium tetrafluoroborate, C6H11BF4N2, InChI=1S/C6H11N2.BF4/c1-3-8-5-4-7(2)6-8;2-1(3,4)5/h4-6H,3H2,1-2H3;/q+1;-1
Compound 2: 2-pyrrolidinone, C4H7NO, InChI=1S/C4H7NO/c6-4-2-1-3-5-4/h1-3H2,(H,5,6)
Compound 3: N-methylpyrrolidone, C5H9NO, InChI=1S/C5H9NO/c1-6-4-2-3-5(6)7/h2-4H2,1H3
Compound 4: water, H2O, InChI=1S/H2O/h1H2

System: 1-ethyl-3-methylimidazolium tetrafluoroborate; phases: Liquid
Fixed: Pressure, kPa = 101.325
Property: Mass density, kg/m3 (Liquid); method: Vibrating tube method
Temperature, K	Mass density, kg/m3	uncertainty
293.15	1283.89	1.9
298.15	1279.91	1.89
303.15	1276.26	1.88
308.15	1272.07	1.87

System: 1-ethyl-3-methylimidazolium tetrafluoroborate; phases: Liquid
Fixed: Pressure, kPa = 101.325
Property: Speed of sound, m/s (Liquid); method: Single path-length method
Temperature, K	Speed of sound, m/s	uncertainty
293.15	1631.05	2.01
298.15	1619.4	2.01
303.15	1607.63	2.01
308.15	1596.31	2.01

System: 2-pyrrolidinone; phases: Liquid
Fixed: Pressure, kPa = 101.325
Property: Mass density, kg/m3 (Liquid); method: Vibrating tube method
Temperature, K	Mass density, kg/m3	uncertainty
293.15	1111.28	0.41
298.15	1107.15	0.41
303.15	1103.02	0.41
308.15	1098.9	0.4

System: 2-pyrrolidinone; phases: Liquid
Fixed: Pressure, kPa = 101.325
Property: Speed of sound, m/s (Liquid); method: Single path-length method
Temperature, K	Speed of sound, m/s	uncertainty
293.15	1650.13	1.05
298.15	1633.92	1.05
303.15	1617.14	1.05
308.15	1601.85	1.05

System: N-methylpyrrolidone; phases: Liquid
Fixed: Pressure, kPa = 101.325
Property: Mass density, kg/m3 (Liquid); method: Vibrating tube method
Temperature, K	Mass density, kg/m3	uncertainty
293.15	1033.23	0.33
298.15	1028.23	0.33
303.15	1023.46	0.32
308.15	1018.66	0.32

System: N-methylpyrrolidone; phases: Liquid
Fixed: Pressure, kPa = 101.325
Property: Speed of sound, m/s (Liquid); method: Single path-length method
Temperature, K	Speed of sound, m/s	uncertainty
293.15	1565.52	1.07
298.15	1546.02	1.07
303.15	1527.24	1.07
308.15	1507.41	1.08

System: water; phases: Liquid
Fixed: Pressure, kPa = 101.325
Property: Speed of sound, m/s (Liquid); method: Single path-length method
Temperature, K	Speed of sound, m/s	uncertainty
293.15	1482.7	0.3
298.15	1496.83	0.28
303.15	1509.21	0.25
308.15	1519.86	0.24

System: 2-pyrrolidinone + water + 1-ethyl-3-methylimidazolium tetrafluoroborate; phases: Liquid
Fixed: Pressure, kPa = 101
Property: Mass density, kg/m3 (Liquid); method: VIBTUB:UFactor:10
Temperature, K	Mole fraction of 1-ethyl-3-methylimidazolium tetrafluoroborate	Mole fraction of 2-pyrrolidinone	Mass density, kg/m3	uncertainty
293.15	0.1595	0.7681	1175.27	1.71
293.15	0.1799	0.7347	1184.78	1.77
293.15	0.1936	0.7081	1191.64	1.82
293.15	0.2046	0.6871	1197	1.85
293.15	0.2218	0.6542	1205.03	1.9
293.15	0.2442	0.6148	1214.33	1.96
293.15	0.2603	0.5861	1220.25	1.99
293.15	0.2849	0.5481	1227.85	2.05
293.15	0.3015	0.5245	1232.17	2.08
293.15	0.3269	0.4911	1237.7	2.14
293.15	0.3478	0.4658	1241.44	2.17
293.15	0.3642	0.4473	1243.99	2.2
293.15	0.3891	0.4208	1247.27	2.24
293.15	0.4032	0.4067	1248.9	2.26
293.15	0.4121	0.3981	1249.86	2.28
293.15	0.4329	0.3785	1251.87	2.31
293.15	0.4453	0.3671	1252.94	2.33
293.15	0.4691	0.3461	1254.81	2.37
293.15	0.4845	0.3332	1255.95	2.4
293.15	0.5027	0.3185	1257.23	2.43
293.15	0.5278	0.2989	1258.87	2.47
293.15	0.5451	0.2854	1259.89	2.5
293.15	0.5581	0.2759	1260.7	2.53
293.15	0.5774	0.2608	1261.7	2.56
293.15	0.5826	0.2557	1261.83	2.57
293.15	0.5978	0.2443	1262.64	2.6
293.15	0.6214	0.2282	1264.04	2.64
293.15	0.6464	0.1932	1263.91	2.66
293.15	0.6531	0.1881	1264.32	2.67
293.15	0.6741	0.1803	1266.13	2.73
298.15	0.1595	0.7681	1172.85	1.7
298.15	0.1799	0.7347	1182.63	1.76
298.15	0.1936	0.7081	1189.69	1.83
298.15	0.2046	0.6871	1195.2	1.8
298.15	0.2218	0.6542	1203.46	1.89
298.15	0.2442	0.6148	1213.03	1.97
298.15	0.2603	0.5861	1219.11	2.01
298.15	0.2849	0.5481	1226.91	2.05
298.15	0.3015	0.5245	1231.34	2.08
298.15	0.3269	0.4911	1236.99	2.26
298.15	0.3478	0.4658	1240.81	2.17
298.15	0.3642	0.4473	1243.39	2.2
298.15	0.3891	0.4208	1246.72	2.24
298.15	0.4032	0.4067	1248.37	2.27
298.15	0.4121	0.3981	1249.34	2.28
298.15	0.4329	0.3785	1251.37	2.31
298.15	0.4453	0.3671	1252.45	2.33
298.15	0.4691	0.3461	1254.33	2.37
298.15	0.4845	0.3332	1255.48	2.4
298.15	0.5027	0.3185	1256.76	2.43
298.15	0.5278	0.2989	1258.42	2.47
298.15	0.5451	0.2854	1259.44	3.66
298.15	0.5581	0.2759	1260.25	2.76
298.15	0.5774	0.2608	1261.25	2.57
298.15	0.5826	0.2557	1261.38	2.57
298.15	0.5978	0.2443	1262.19	2.6
298.15	0.6214	0.2282	1263.61	2.64
298.15	0.6464	0.1932	1263.42	2.66
298.15	0.6531	0.1881	1263.83	2.67
298.15	0.6741	0.1803	1265.66	2.73
303.15	0.1595	0.7681	1168.07	1.67
303.15	0.1799	0.7347	1177.7	1.7
303.15	0.1936	0.7081	1184.65	1.78
303.15	0.2046	0.6871	1190.07	1.82
303.15	0.2218	0.6542	1198.19	1.87
303.15	0.2442	0.6148	1207.58	1.92
303.15	0.2603	0.5861	1213.53	1.96
303.15	0.2849	0.5481	1221.16	2.01
303.15	0.3015	0.5245	1225.47	2.05
303.15	0.3269	0.4911	1230.96	2.15
303.15	0.3478	0.4658	1234.66	2.13
303.15	0.3642	0.4473	1237.15	2.16
303.15	0.3891	0.4208	1240.36	2.2
303.15	0.4032	0.4067	1241.95	2.22
303.15	0.4121	0.3981	1242.88	2.24
303.15	0.4329	0.3785	1244.83	2.27
303.15	0.4453	0.3671	1245.85	2.29
303.15	0.4691	0.3461	1247.65	2.33
303.15	0.4845	0.3332	1248.74	2.36
303.15	0.5027	0.3185	1249.97	2.39
303.15	0.5278	0.2989	1251.55	2.43
303.15	0.5451	0.2854	1252.53	2.68
303.15	0.5581	0.2759	1253.31	2.56
303.15	0.5774	0.2608	1254.26	2.52
303.15	0.5826	0.2557	1254.37	2.52
303.15	0.5978	0.2443	1255.16	2.56
303.15	0.6214	0.2282	1256.53	2.6
303.15	0.6464	0.1932	1256.27	2.61
303.15	0.6531	0.1881	1256.67	2.63
303.15	0.6741	0.1803	1258.5	2.68
308.15	0.1595	0.7681	1164	1.65
308.15	0.1799	0.7347	1173.6	1.707
308.15	0.1936	0.7081	1180.51	1.76
308.15	0.2046	0.6871	1185.9	1.79
308.15	0.2218	0.6542	1193.98	1.84
308.15	0.2442	0.6148	1203.33	1.89
308.15	0.2603	0.5861	1209.26	1.93
308.15	0.2849	0.5481	1216.86	1.99
308.15	0.3015	0.5245	1221.16	2.02
308.15	0.3269	0.4911	1226.65	2.08
308.15	0.3478	0.4658	1230.34	2.1
308.15	0.3642	0.4473	1232.84	2.13
308.15	0.3891	0.4208	1236.06	2.17
308.15	0.4032	0.4067	1237.66	2.2
308.15	0.4121	0.3981	1238.59	2.21
308.15	0.4329	0.3785	1240.55	2.25
308.15	0.4453	0.3671	1241.59	2.27
308.15	0.4691	0.3461	1243.4	2.3
308.15	0.4845	0.3332	1244.51	2.33
308.15	0.5027	0.3185	1245.75	2.36
308.15	0.5278	0.2989	1247.36	2.4
308.15	0.5451	0.2854	1248.35	2.43
308.15	0.5581	0.2759	1249.14	2.46
308.15	0.5774	0.2608	1250.1	2.49
308.15	0.5826	0.2557	1250.22	2.49
308.15	0.5978	0.2443	1251.01	2.52
308.15	0.6214	0.2282	1252.4	2.57
308.15	0.6464	0.1932	1252.17	2.59
308.15	0.6531	0.1881	1252.57	2.6
308.15	0.6741	0.1803	1254.41	2.65

System: 2-pyrrolidinone + water + 1-ethyl-3-methylimidazolium tetrafluoroborate; phases: Liquid
Fixed: Pressure, kPa = 101
Property: Speed of sound, m/s (Liquid); method: Single path-length method
Temperature, K	Mole fraction of 1-ethyl-3-methylimidazolium tetrafluoroborate	Mole fraction of 2-pyrrolidinone	Speed of sound, m/s	uncertainty
293.15	0.1595	0.7681	1673.5	1.15
293.15	0.1799	0.7347	1675.54	1.16
293.15	0.1936	0.7081	1677.5	1.16
293.15	0.2046	0.6871	1678.82	1.17
293.15	0.2218	0.6542	1680.67	1.17
293.15	0.2442	0.6148	1682.13	1.17
293.15	0.2603	0.5861	1683.08	1.18
293.15	0.2849	0.5481	1683.4	1.18
293.15	0.3015	0.5245	1683.2	1.19
293.15	0.3269	0.4911	1682.39	1.21
293.15	0.3478	0.4658	1681.34	1.22
293.15	0.3642	0.4473	1680.29	1.23
293.15	0.3891	0.4208	1678.4	1.25
293.15	0.4032	0.4067	1677.19	1.26
293.15	0.4121	0.3981	1676.38	1.27
293.15	0.4329	0.3785	1674.36	1.29
293.15	0.4453	0.3671	1673.13	1.3
293.15	0.4691	0.3461	1670.67	1.33
293.15	0.4845	0.3332	1668.99	1.35
293.15	0.5027	0.3185	1666.96	1.37
293.15	0.5278	0.2989	1664.17	1.39
293.15	0.5451	0.2854	1662.28	1.42
293.15	0.5581	0.2759	1660.81	1.43
293.15	0.5774	0.2608	1658.75	1.45
293.15	0.5826	0.2557	1658.23	1.46
293.15	0.5978	0.2443	1656.63	1.48
293.15	0.6214	0.2282	1654.22	1.51
293.15	0.6464	0.1932	1651.31	1.52
293.15	0.6531	0.1881	1650.6	1.53
293.15	0.6741	0.1803	1648.86	1.56
298.15	0.1595	0.7681	1656.39	1.14
298.15	0.1799	0.7347	1658.46	1.15
298.15	0.1936	0.7081	1660.45	1.15
298.15	0.2046	0.6871	1661.84	1.18
298.15	0.2218	0.6542	1663.76	1.17
298.15	0.2442	0.6148	1665.38	1.16
298.15	0.2603	0.5861	1666.49	1.19
298.15	0.2849	0.5481	1667.09	1.18
298.15	0.3015	0.5245	1667.17	1.19
298.15	0.3269	0.4911	1666.8	1.3
298.15	0.3478	0.4658	1666.13	1.22
298.15	0.3642	0.4473	1665.4	1.2
298.15	0.3891	0.4208	1664.01	1.25
298.15	0.4032	0.4067	1663.06	1.26
298.15	0.4121	0.3981	1662.42	1.27
298.15	0.4329	0.3785	1660.81	1.29
298.15	0.4453	0.3671	1659.79	1.3
298.15	0.4691	0.3461	1657.71	1.33
298.15	0.4845	0.3332	1656.24	1.34
298.15	0.5027	0.3185	1654.47	1.36
298.15	0.5278	0.2989	1651.93	1.39
298.15	0.5451	0.2854	1650.18	1.99
298.15	0.5581	0.2759	1648.83	1.54
298.15	0.5774	0.2608	1646.9	1.45
298.15	0.5826	0.2557	1646.41	1.45
298.15	0.5978	0.2443	1644.84	1.48
298.15	0.6214	0.2282	1642.42	1.5
298.15	0.6464	0.1932	1639.81	1.52
298.15	0.6531	0.1881	1639.1	1.52
298.15	0.6741	0.1803	1637.14	1.55
303.15	0.1595	0.7681	1640.73	1.14
303.15	0.1799	0.7347	1642.9	1.14
303.15	0.1936	0.7081	1644.88	1.15
303.15	0.2046	0.6871	1646.27	1.16
303.15	0.2218	0.6542	1648.25	1.16
303.15	0.2442	0.6148	1649.99	1.16
303.15	0.2603	0.5861	1651.24	1.17
303.15	0.2849	0.5481	1652.21	1.17
303.15	0.3015	0.5245	1652.53	1.18
303.15	0.3269	0.4911	1652.69	1.2
303.15	0.3478	0.4658	1652.51	1.21
303.15	0.3642	0.4473	1652.16	1.23
303.15	0.3891	0.4208	1651.4	1.25
303.15	0.4032	0.4067	1649.32	1.26
303.15	0.4121	0.3981	1650.42	1.27
303.15	0.4329	0.3785	1649.35	1.29
303.15	0.4453	0.3671	1648.65	1.3
303.15	0.4691	0.3461	1647.18	1.32
303.15	0.4845	0.3332	1646.11	1.34
303.15	0.5027	0.3185	1644.75	1.36
303.15	0.5278	0.2989	1642.77	1.39
303.15	0.5451	0.2854	1641.38	2.08
303.15	0.5581	0.2759	1640.28	1.64
303.15	0.5774	0.2608	1638.68	1.45
303.15	0.5826	0.2557	1638.29	1.46
303.15	0.5978	0.2443	1636.98	1.49
303.15	0.6214	0.2282	1634.86	1.5
303.15	0.6464	0.1932	1632.87	1.51
303.15	0.6531	0.1881	1632.21	1.52
303.15	0.6741	0.1803	1630.26	1.56
308.15	0.1595	0.7681	1626.18	1.13
308.15	0.1799	0.7347	1628.19	1.14
308.15	0.1936	0.7081	1630.02	1.15
308.15	0.2046	0.6871	1631.3	1.2
308.15	0.2218	0.6542	1633.09	1.15
308.15	0.2442	0.6148	1634.69	1.16
308.15	0.2603	0.5861	1635.85	1.17
308.15	0.2849	0.5481	1636.79	1.18
308.15	0.3015	0.5245	1637.19	1.19
308.15	0.3269	0.4911	1637.48	1.2
308.15	0.3478	0.4658	1637.5	1.2
308.15	0.3642	0.4473	1637.34	1.23
308.15	0.3891	0.4208	1636.86	1.25
308.15	0.4032	0.4067	1636.48	1.26
308.15	0.4121	0.3981	1636.17	1.27
308.15	0.4329	0.3785	1635.39	1.29
308.15	0.4453	0.3671	1634.88	1.31
308.15	0.4691	0.3461	1633.7	1.3
308.15	0.4845	0.3332	1632.79	1.35
308.15	0.5027	0.3185	1631.63	1.37
308.15	0.5278	0.2989	1629.89	1.4
308.15	0.5451	0.2854	1628.63	1.42
308.15	0.5581	0.2759	1627.61	1.43
308.15	0.5774	0.2608	1626.15	1.45
308.15	0.5826	0.2557	1625.8	1.46
308.15	0.5978	0.2443	1624.56	1.48
308.15	0.6214	0.2282	1622.47	1.51
308.15	0.6464	0.1932	1620.74	1.52
308.15	0.6531	0.1881	1620.07	1.53
308.15	0.6741	0.1803	1617.92	1.56

System: N-methylpyrrolidone + water + 1-ethyl-3-methylimidazolium tetrafluoroborate; phases: Liquid
Fixed: Pressure, kPa = 101
Property: Mass density, kg/m3 (Liquid); method: VIBTUB:UFactor:10
Temperature, K	Mole fraction of 1-ethyl-3-methylimidazolium tetrafluoroborate	Mole fraction of N-methylpyrrolidone	Mass density, kg/m3	uncertainty
293.15	0.1613	0.7672	1113.93	1.36
293.15	0.1797	0.7366	1123.91	1.42
293.15	0.1944	0.7089	1132.27	1.48
293.15	0.2049	0.6892	1138.17	1.51
293.15	0.2233	0.6551	1148.23	1.57
293.15	0.2455	0.6157	1159.58	1.64
293.15	0.2619	0.5885	1167.27	1.69
293.15	0.2877	0.5481	1178.21	1.77
293.15	0.3032	0.5257	1184.09	1.81
293.15	0.3282	0.4924	1192.58	1.88
293.15	0.3484	0.4674	1198.68	1.92
293.15	0.3649	0.4482	1203.22	1.96
293.15	0.3891	0.4218	1209.28	2.02
293.15	0.4029	0.4075	1212.45	2.05
293.15	0.4325	0.3785	1218.68	2.11
293.15	0.4449	0.3669	1221.08	2.14
293.15	0.4671	0.3468	1225.14	2.19
293.15	0.4837	0.3323	1228	2.23
293.15	0.5021	0.3167	1231.01	2.27
293.15	0.5243	0.2985	1234.46	2.32
293.15	0.5403	0.2856	1236.83	2.35
293.15	0.5529	0.2754	1238.63	2.38
293.15	0.5767	0.2568	1241.93	2.43
293.15	0.5862	0.2493	1243.2	2.45
293.15	0.6005	0.2383	1245.1	2.49
293.15	0.6221	0.2214	1247.87	2.53
293.15	0.6463	0.2023	1250.9	2.59
293.15	0.6635	0.1882	1253.02	2.63
293.15	0.6758	0.1779	1254.53	2.65
293.15	0.6868	0.1677	1255.89	2.68
298.15	0.1613	0.7672	1110.27	1.34
298.15	0.1797	0.7366	1120.52	1.4
298.15	0.1944	0.7089	1129.12	1.46
298.15	0.2049	0.6892	1135.19	1.51
298.15	0.2233	0.6551	1145.54	1.57
298.15	0.2455	0.6157	1157.22	1.63
298.15	0.2619	0.5885	1165.12	1.68
298.15	0.2877	0.5481	1176.33	1.75
298.15	0.3032	0.5257	1182.33	1.8
298.15	0.3282	0.4924	1190.96	1.93
298.15	0.3484	0.4674	1197.13	1.91
298.15	0.3649	0.4482	1201.7	1.95
298.15	0.3891	0.4218	1207.75	2.01
298.15	0.4029	0.4075	1210.91	2.04
298.15	0.4325	0.3785	1217.07	2.1
298.15	0.4449	0.3669	1219.43	2.13
298.15	0.4671	0.3468	1223.4	2.18
298.15	0.4837	0.3323	1226.18	2.22
298.15	0.5021	0.3167	1229.1	2.25
298.15	0.5243	0.2985	1232.43	2.3
298.15	0.5403	0.2856	1234.7	2.34
298.15	0.5529	0.2754	1236.42	2.36
298.15	0.5767	0.2568	1239.58	2.42
298.15	0.5862	0.2493	1240.79	2.44
298.15	0.6005	0.2383	1242.59	2.61
298.15	0.6221	0.2214	1245.22	2.52
298.15	0.6463	0.2023	1248.09	2.57
298.15	0.6635	0.1882	1250.09	2.61
298.15	0.6758	0.1779	1251.51	2.64
298.15	0.6868	0.1677	1252.78	2.66
303.15	0.1613	0.7672	1107.17	1.32
303.15	0.1797	0.7366	1117.83	1.39
303.15	0.1944	0.7089	1126.81	1.45
303.15	0.2049	0.6892	1133.16	1.49
303.15	0.2233	0.6551	1143.99	1.55
303.15	0.2455	0.6157	1156.17	1.62
303.15	0.2619	0.5885	1164.39	1.68
303.15	0.2877	0.5481	1175.96	1.75
303.15	0.3032	0.5257	1182.1	1.8
303.15	0.3282	0.4924	1190.88	1.88
303.15	0.3484	0.4674	1197.08	1.91
303.15	0.3649	0.4482	1201.64	1.95
303.15	0.3891	0.4218	1207.61	2.01
303.15	0.4029	0.4075	1210.7	2.04
303.15	0.4325	0.3785	1216.66	2.1
303.15	0.4449	0.3669	1218.94	2.13
303.15	0.4671	0.3468	1222.72	2.17
303.15	0.4837	0.3323	1225.35	2.21
303.15	0.5021	0.3167	1228.1	2.25
303.15	0.5243	0.2985	1231.22	2.29
303.15	0.5403	0.2856	1233.35	2.33
303.15	0.5529	0.2754	1234.95	2.35
303.15	0.5767	0.2568	1237.89	2.41
303.15	0.5862	0.2493	1239.01	2.42
303.15	0.6005	0.2383	1240.68	2.46
303.15	0.6221	0.2214	1243.11	2.5
303.15	0.6463	0.2023	1245.77	2.55
303.15	0.6635	0.1882	1247.61	2.59
303.15	0.6758	0.1779	1248.93	2.62
303.15	0.6868	0.1677	1250.1	2.64
308.15	0.1613	0.7672	1103.93	1.3
308.15	0.1797	0.7366	1115.02	1.37
308.15	0.1944	0.7089	1124.41	1.43
308.15	0.2049	0.6892	1131.05	1.48
308.15	0.2233	0.6551	1142.37	1.55
308.15	0.2455	0.6157	1155.1	1.62
308.15	0.2619	0.5885	1163.64	1.67
308.15	0.2877	0.5481	1175.6	1.75
308.15	0.3032	0.5257	1181.9	1.8
308.15	0.3282	0.4924	1190.82	1.88
308.15	0.3484	0.4674	1197.05	1.91
308.15	0.3649	0.4482	1201.58	1.95
308.15	0.3891	0.4218	1207.46	2.01
308.15	0.4029	0.4075	1210.46	2.04
308.15	0.4325	0.3785	1216.2	2.1
308.15	0.4449	0.3669	1218.36	2.12
308.15	0.4671	0.3468	1221.93	2.17
308.15	0.4837	0.3323	1224.39	2.2
308.15	0.5021	0.3167	1226.95	2.24
308.15	0.5243	0.2985	1229.83	2.29
308.15	0.5403	0.2856	1231.78	2.32
308.15	0.5529	0.2754	1233.24	2.34
308.15	0.5767	0.2568	1235.92	2.39
308.15	0.5862	0.2493	1236.94	2.41
308.15	0.6005	0.2383	1238.46	2.45
308.15	0.6221	0.2214	1240.67	2.49
308.15	0.6463	0.2023	1243.08	2.54
308.15	0.6635	0.1882	1244.75	2.57
308.15	0.6758	0.1779	1245.94	2.6
308.15	0.6868	0.1677	1246.99	2.62

System: N-methylpyrrolidone + water + 1-ethyl-3-methylimidazolium tetrafluoroborate; phases: Liquid
Fixed: Pressure, kPa = 101
Property: Speed of sound, m/s (Liquid); method: Single path-length method
Temperature, K	Mole fraction of 1-ethyl-3-methylimidazolium tetrafluoroborate	Mole fraction of N-methylpyrrolidone	Speed of sound, m/s	uncertainty
293.15	0.1613	0.7672	1605.65	1.34
293.15	0.1797	0.7366	1610.68	1.4
293.15	0.1944	0.7089	1614.98	1.48
293.15	0.2049	0.6892	1617.83	1.53
293.15	0.2233	0.6551	1622.31	1.6
293.15	0.2455	0.6157	1626.66	1.66
293.15	0.2619	0.5885	1629.15	1.71
293.15	0.2877	0.5481	1631.76	1.76
293.15	0.3032	0.5257	1632.64	1.78
293.15	0.3282	0.4924	1633.14	1.8
293.15	0.3484	0.4674	1632.78	1.78
293.15	0.3649	0.4482	1632.04	1.77
293.15	0.3891	0.4218	1630.46	1.75
293.15	0.4029	0.4075	1629.29	1.74
293.15	0.4325	0.3785	1626.35	1.7
293.15	0.4449	0.3669	1624.99	1.69
293.15	0.4671	0.3468	1622.44	1.66
293.15	0.4837	0.3323	1620.46	1.64
293.15	0.5021	0.3167	1618.32	1.63
293.15	0.5243	0.2985	1615.82	1.61
293.15	0.5403	0.2856	1611.45	1.57
293.15	0.5529	0.2754	1612.64	1.59
293.15	0.5767	0.2568	1610.33	1.58
293.15	0.5862	0.2493	1609.41	1.58
293.15	0.6005	0.2383	1608.21	1.59
293.15	0.6221	0.2214	1606.53	1.58
293.15	0.6463	0.2023	1631.45	1.91
293.15	0.6635	0.1882	1603.97	1.59
293.15	0.6758	0.1779	1603.38	1.6
293.15	0.6868	0.1677	1602.75	1.6
298.15	0.1613	0.7672	1567.44	1.29
298.15	0.1797	0.7366	1567.4	1.59
298.15	0.1944	0.7089	1567.02	1.54
298.15	0.2049	0.6892	1566.65	1.8
298.15	0.2233	0.6551	1565.91	1.81
298.15	0.2455	0.6157	1565.16	1.52
298.15	0.2619	0.5885	1564.86	1.56
298.15	0.2877	0.5481	1564.79	1.6
298.15	0.3032	0.5257	1564.96	1.62
298.15	0.3282	0.4924	1565.53	4.67
298.15	0.3484	0.4674	1566.16	1.64
298.15	0.3649	0.4482	1566.72	1.64
298.15	0.3891	0.4218	1567.62	1.64
298.15	0.4029	0.4075	1568.14	1.64
298.15	0.4325	0.3785	1569.3	1.62
298.15	0.4449	0.3669	1569.78	1.62
298.15	0.4671	0.3468	1570.67	1.6
298.15	0.4837	0.3323	1571.37	1.6
298.15	0.5021	0.3167	1572.14	1.59
298.15	0.5243	0.2985	1573.16	1.58
298.15	0.5403	0.2856	1573.94	1.56
298.15	0.5529	0.2754	1574.6	1.58
298.15	0.5767	0.2568	1575.9	1.57
298.15	0.5862	0.2493	1576.46	1.57
298.15	0.6005	0.2383	1577.37	2.16
298.15	0.6221	0.2214	1578.82	1.58
298.15	0.6463	0.2023	1580.6	1.69
298.15	0.6635	0.1882	1581.98	1.59
298.15	0.6758	0.1779	1583.06	1.6
298.15	0.6868	0.1677	1584.05	1.6
303.15	0.1613	0.7672	1536.93	1.26
303.15	0.1797	0.7366	1534.75	1.31
303.15	0.1944	0.7089	1532.31	1.33
303.15	0.2049	0.6892	1530.51	1.43
303.15	0.2233	0.6551	1527.4	1.46
303.15	0.2455	0.6157	1524.18	1.42
303.15	0.2619	0.5885	1522.33	1.44
303.15	0.2877	0.5481	1520.38	1.47
303.15	0.3032	0.5257	1519.75	1.48
303.15	0.3282	0.4924	1519.53	1.5
303.15	0.3484	0.4674	1519.92	1.49
303.15	0.3649	0.4482	1520.55	1.49
303.15	0.3891	0.4218	1521.92	1.49
303.15	0.4029	0.4075	1522.89	1.49
303.15	0.4325	0.3785	1525.41	1.49
303.15	0.4449	0.3669	1526.61	1.5
303.15	0.4671	0.3468	1528.98	1.49
303.15	0.4837	0.3323	1530.93	1.5
303.15	0.5021	0.3167	1533.2	1.5
303.15	0.5243	0.2985	1536.16	1.5
303.15	0.5403	0.2856	1538.42	1.5
303.15	0.5529	0.2754	1540.3	1.5
303.15	0.5767	0.2568	1543.98	1.52
303.15	0.5862	0.2493	1545.52	1.54
303.15	0.6005	0.2383	1547.89	14.4
303.15	0.6221	0.2214	1551.7	1.5
303.15	0.6463	0.2023	1556.24	1.56
303.15	0.6635	0.1882	1559.7	1.6
303.15	0.6758	0.1779	1562.32	2.41
303.15	0.6868	0.1677	1564.93	1.59
308.15	0.1613	0.7672	1504.97	1.27
308.15	0.1797	0.7366	1499.2	1.32
308.15	0.1944	0.7089	1493.66	1.39
308.15	0.2049	0.6892	1489.78	1.43
308.15	0.2233	0.6551	1483.57	1.48
308.15	0.2455	0.6157	1477.74	1.46
308.15	0.2619	0.5885	1474.79	1.48
308.15	0.2877	0.5481	1472.49	1.49
308.15	0.3032	0.5257	1472.32	1.49
308.15	0.3282	0.4924	1473.53	1.54
308.15	0.3484	0.4674	1475.65	1.48
308.15	0.3649	0.4482	1477.96	1.47
308.15	0.3891	0.4218	1482	1.46
308.15	0.4029	0.4075	1484.63	1.45
308.15	0.4325	0.3785	1490.75	1.44
308.15	0.4449	0.3669	1493.5	1.44
308.15	0.4671	0.3468	1498.6	1.44
308.15	0.4837	0.3323	1502.52	1.44
308.15	0.5021	0.3167	1506.91	1.44
308.15	0.5243	0.2985	1512.25	1.45
308.15	0.5403	0.2856	1516.17	1.46
308.15	0.5529	0.2754	1519.35	1.46
308.15	0.5767	0.2568	1525.19	1.48
308.15	0.5862	0.2493	1527.59	1.49
308.15	0.6005	0.2383	1531.08	1.5
308.15	0.6221	0.2214	1536.5	1.52
308.15	0.6463	0.2023	1542.59	1.54
308.15	0.6635	0.1882	1547.02	1.55
308.15	0.6758	0.1779	1550.22	1.56
308.15	0.6868	0.1677	1553.37	1.58
