Measured thermophysical data. Thermodynamic stability of Sr2CeO4
Source: Thermochim. Acta, 2006, 10.1016/j.tca.2006.03.026
Compound 1: cerium strontium oxide CeSr2O4, CeO4Sr2, InChI=1S/Ce.4O.2Sr/q+4;4*-2;2*+2
Compound 2: strontium cerate (IV), CeO3Sr, InChI=1S/Ce.3O.Sr/q+4;3*-2;+2
Compound 3: carbon dioxide, CO2, InChI=1S/CO2/c2-1-3
Compound 4: strontium carbonate, CO3Sr, InChI=1S/CH2O3.Sr/c2-1(3)4;/h(H2,2,3,4);/q;+2/p-2

System: strontium carbonate; phases: Crystal 2, Crystal 1, Gas
Property: Triple point temperature, K (Crystal 2); method: DTA
Triple point temperature, K	uncertainty
1195	1

Reaction: -1 strontium carbonate + 1 cerium strontium oxide CeSr2O4 + -1 strontium cerate (IV) + 1 carbon dioxide
Property: Equilibrium constant in terms of partial pressure, kPa^n
0.923
1.452
2.246
3.419
5.128
