Measured thermophysical data. An experimental study on thermal conductivity enhancement of DI water-EG based ZnO(CuO)/graphene wrapped carbon nanotubes nanofluids
Source: Thermochim. Acta, 2018, 10.1016/j.tca.2018.06.008
Compound 1: water, H2O, InChI=1S/H2O/h1H2, purity 99.8%
Compound 2: 1,2-ethanediol, C2H6O2, InChI=1S/C2H6O2/c3-1-2-4/h3-4H,1-2H2, purity 99%

System: water; phases: Liquid
Fixed: Pressure, kPa = 101.325
Property: Thermal conductivity, W/m/K (Liquid); method: Hot disk method
Temperature, K	Thermal conductivity, W/m/K	uncertainty
298.15	0.6132	0.0107
303.15	0.6201	0.0119
308.15	0.6249	0.0122
313.15	0.6302	0.0132
318.15	0.6368	0.011
323.15	0.6427	0.0136

System: 1,2-ethanediol; phases: Liquid
Fixed: Pressure, kPa = 101.325
Property: Thermal conductivity, W/m/K (Liquid); method: Hot disk method
Temperature, K	Thermal conductivity, W/m/K	uncertainty
298.15	0.2514	0.0074
303.15	0.2535	0.0061
308.15	0.2551	0.0119
313.15	0.2559	0.0076
318.15	0.2568	0.0108
323.15	0.2579	0.0113
