Measured thermophysical data. Low-temperature heat capacities and standard molar enthalpy of formation of  the solid-state coordination compound trans-Cu(Ala)2(s) (Ala = l- -alanine)
Source: Thermochim. Acta, 2008, 10.1016/j.tca.2008.02.024
Compound 1: copper(II) acetate hydrate, C4H8CuO5, InChI=1S/2C2H4O2.Cu.H2O/c2*1-2(3)4;;/h2*1H3,(H,3,4);;1H2/q;;+2;/p-2
Compound 2: (S)-2-aminopropanoic acid, C3H7NO2, InChI=1S/C3H7NO2/c1-2(4)3(5)6/h2H,4H2,1H3,(H,5,6)/t2-/m0/s1
Compound 3: acetic acid, C2H4O2, InChI=1S/C2H4O2/c1-2(3)4/h1H3,(H,3,4)
Compound 4: water, H2O, InChI=1S/H2O/h1H2
Compound 5: copper, Cu, InChI=1S/Cu
Compound 6: hydrogen, H2, InChI=1S/H2/h1H
Compound 7: nitrogen, N2, InChI=1S/N2/c1-2
Compound 8: graphite, C
Compound 9: oxygen, O2, InChI=1S/O2/c1-2
Compound 10: copper bis-L-alaninate, C6H12CuN2O4, InChI=1S/2C3H7NO2.Cu/c2*1-2(4)3(5)6;/h2*2H,4H2,1H3,(H,5,6);/q;;+2/p-2/t2*2-;/m00./s1

System: copper bis-L-alaninate; phases: Crystal
Fixed: Pressure, kPa = 101.325
Property: Molar heat capacity at constant pressure, J/K/mol (Crystal); method: Vacuum adiabatic calorimetry
Temperature, K	Molar heat capacity at constant pressure, J/K/mol	uncertainty
78.48	105.27	0.36
82.149	108.56	0.37
83.711	110.31	0.38
85.151	111.49	0.38
86.478	112.67	0.39
87.782	114.29	0.39
89.068	115.78	0.4
90.334	117.31	0.42
91.583	118.66	0.42
92.817	119.99	0.43
94.093	121.03	0.43
95.477	122.32	0.43
96.908	123.49	0.44
98.515	125.88	0.44
100.444	128	0.45
102.509	130.06	0.46
104.54	132.5	0.46
106.539	135.21	0.47
108.511	137.9	0.48
110.455	140.1	0.48
112.375	142.51	0.49
114.271	145.22	0.5
116.296	147.65	0.51
118.448	150.07	0.51
120.572	152.9	0.52
122.671	155.25	0.53
124.745	157.74	0.54
126.795	160.9	0.55
128.826	163.07	0.55
130.833	164.53	0.56
132.819	166.81	0.56
134.789	168.98	0.57
136.737	171.37	0.58
138.667	173.84	0.59
140.578	177.08	0.6
142.474	179.74	0.6
144.486	181.62	0.61
146.479	184.47	0.62
148.455	186.88	0.62
150.546	188.95	0.63
152.618	191.79	0.64
154.676	194.53	0.65
156.718	196.3	0.65
158.743	199.18	0.66
160.756	202.14	0.67
162.755	202.14	0.67
164.74	204.44	0.68
166.71	206.02	0.68
168.669	208.51	0.69
170.616	211.18	0.7
172.551	213.49	0.7
174.476	215.69	0.71
176.39	218.18	0.72
178.295	220.47	0.73
180.188	221.99	0.73
182.188	223.33	0.73
184.178	226.17	0.74
186.156	228.41	0.75
188.238	230.73	0.76
190.309	233.62	0.77
192.368	235.7	0.77
194.416	238.3	0.78
196.533	240.71	0.79
198.534	244.59	0.8
200.535	246.1	0.8
202.537	248.35	0.81
204.536	250.6	0.82
206.537	252.35	0.82
208.538	255.85	0.83
210.372	258.1	0.84
212.373	260.35	0.85
214.299	264.61	0.86
216.208	266.28	0.86
218.148	269.61	0.87
220.059	271.13	0.88
221.877	274.1	0.89
224.545	277.61	0.9
227.38	280.36	0.91
230.381	282.62	0.91
233.382	288.12	0.93
236.551	291.87	0.94
239.557	295.62	0.95
242.553	299.63	0.97
245.556	303.67	0.98
248.589	308.09	0.99
251.557	311.28	1
254.554	316.18	1.02
257.559	318.88	1.02
260.561	323.17	1.04
263.562	327.46	1.05
266.397	336.41	1.08
269.463	339.6	1.09
272.556	343.28	1.1
275.623	347.57	1.11
278.678	351.99	1.13
281.715	356.16	1.14
284.739	360.33	1.15
287.74	364.37	1.16
290.741	368.05	1.18
293.576	370.75	1.18
296.571	374.18	1.19
299.579	378.35	1.21
302.483	382.28	1.22
305.581	386.32	1.23
308.749	390.49	1.24
311.751	395.03	1.26
314.919	398.59	1.27
318.082	401.9	1.28
320.972	405.7	1.29
323.593	409.38	1.3
326.221	411.84	1.31
328.86	414.94	1.32
331.506	418.73	1.33
334.169	421.28	1.34
336.847	425.09	1.35
339.596	428.59	1.36
342.431	431.7	1.37
345.266	435.1	1.38
347.933	437.95	1.39
350.768	441.2	1.4
353.603	443.95	1.41
356.27	447.86	1.42
359.105	451.49	1.43
361.773	454.58	1.44
364.441	457.46	1.45
367.109	460.71	1.46
369.943	464.31	1.47
372.611	468.22	1.48
375.279	471.36	1.49
377.938	474.09	1.5
380.615	476.97	1.51
383.282	480.09	1.52
385.95	482.98	1.53
388.635	485.87	1.54
391.325	487.88	1.54

Reaction: 1 copper bis-L-alaninate + -1 copper(II) acetate hydrate + -2 (S)-2-aminopropanoic acid + 2 acetic acid + 1 water
Property: Molar enthalpy of reaction, kJ/mol
22.2

Reaction: 1 copper bis-L-alaninate + -1 copper + -6 hydrogen + -1 nitrogen + -6 graphite + -2 oxygen
Property: Molar enthalpy of reaction, kJ/mol
-1038.6
