Measured thermophysical data. Thermophysical properties of dimethyl sulfoxide + cyclic and linear ethers at 308.15K Application of an extended cell model
Source: Thermochim. Acta, 2006, 10.1016/j.tca.2006.05.010
Compound 1: dimethyl sulfoxide, C2H6OS, InChI=1S/C2H6OS/c1-4(2)3/h1-2H3, purity 99.5%
Compound 2: 1,4-dioxane, C4H8O2, InChI=1S/C4H8O2/c1-2-6-4-3-5-1/h1-4H2, purity 99.8%
Compound 3: 1,3-dioxolane, C3H6O2, InChI=1S/C3H6O2/c1-2-5-3-4-1/h1-3H2, purity 99.8%
Compound 4: tetrahydropyran, C5H10O, InChI=1S/C5H10O/c1-2-4-6-5-3-1/h1-5H2, purity 99.5%
Compound 5: tetrahydrofuran, C4H8O, InChI=1S/C4H8O/c1-2-4-5-3-1/h1-4H2, purity 99.9%
Compound 6: 1,2-dimethoxyethane, C4H10O2, InChI=1S/C4H10O2/c1-5-3-4-6-2/h3-4H2,1-2H3, purity 99.5%
Compound 7: 1,2-diethoxyethane, C6H14O2, InChI=1S/C6H14O2/c1-3-7-5-6-8-4-2/h3-6H2,1-2H3, purity 99.8%

System: dimethyl sulfoxide; phases: Liquid
Fixed: Pressure, kPa = 101.325
Property: Molar heat capacity at constant pressure, J/K/mol (Liquid); method: Small sample (50 mg) DSC
Temperature, K	Molar heat capacity at constant pressure, J/K/mol	uncertainty
293.15	151.2	2.3
298.15	152.4	2.4
303.15	153.4	2.4
308.15	154.8	2.4
313.15	155.4	2.4
318.15	156.6	2.4
323.15	157.7	2.4
328.15	157.8	2.4
333.15	158.5	2.5
338.15	159.3	2.5
343.15	159.5	2.5
348.15	160.2	2.5
353.15	160.3	2.5
358.15	161.3	2.5
363.15	161.5	2.5
368.15	161.7	2.5
373.15	162.6	2.5
378.15	163.3	2.5
383.15	164.8	2.6
388.15	166.3	2.6
393.15	168.3	2.6
398.15	169.1	2.6
403.15	170.3	2.6
408.15	170.4	2.6
413.15	170.6	2.6
418.15	171.1	2.7
423.15	171.2	2.7

System: dimethyl sulfoxide; phases: Liquid
Fixed: Pressure, kPa = 101.325
Property: Refractive index (Na D-line) (Liquid); method: Standard Abbe refractometry
Temperature, K	Refractive index (Na D-line)	uncertainty
298.15	1.4775	0.0004
308.15	1.4729	0.0004

System: dimethyl sulfoxide; phases: Liquid
Fixed: Pressure, kPa = 101.325
Property: Mass density, kg/m3 (Liquid); method: Vibrating tube method
Temperature, K	Mass density, kg/m3	uncertainty
298.15	1095.58	0.29
308.15	1085.5	0.29

System: 1,4-dioxane; phases: Liquid
Fixed: Pressure, kPa = 101.325
Property: Molar heat capacity at constant pressure, J/K/mol (Liquid); method: Small sample (50 mg) DSC
Temperature, K	Molar heat capacity at constant pressure, J/K/mol	uncertainty
288.15	146.7	2.3
293.15	150	2.3
298.15	151	2.3
303.15	152.1	2.4
308.15	153.7	2.4
313.15	155.3	2.4
318.15	156.5	2.4
323.15	158.4	2.5
328.15	160.2	2.5
333.15	160.4	2.5

System: 1,4-dioxane; phases: Liquid
Fixed: Pressure, kPa = 101.325
Property: Refractive index (Na D-line) (Liquid); method: Standard Abbe refractometry
Temperature, K	Refractive index (Na D-line)	uncertainty
298.15	1.4202	0.0004
308.15	1.4154	0.0004

System: 1,4-dioxane; phases: Liquid
Fixed: Pressure, kPa = 101.325
Property: Mass density, kg/m3 (Liquid); method: Vibrating tube method
Temperature, K	Mass density, kg/m3	uncertainty
298.15	1027.96	0.12
308.15	1016.99	0.11

System: 1,3-dioxolane; phases: Liquid
Fixed: Pressure, kPa = 101.325
Property: Molar heat capacity at constant pressure, J/K/mol (Liquid); method: Small sample (50 mg) DSC
Temperature, K	Molar heat capacity at constant pressure, J/K/mol	uncertainty
288.15	118.8	1.8
293.15	120.3	1.9
298.15	121.7	1.9
303.15	123.3	1.9
308.15	124.4	1.9
313.15	125.3	1.9
318.15	126.8	2
323.15	128.1	2
328.15	129.5	2

System: 1,3-dioxolane; phases: Liquid
Fixed: Pressure, kPa = 101.325
Property: Refractive index (Na D-line) (Liquid); method: Standard Abbe refractometry
Temperature, K	Refractive index (Na D-line)	uncertainty
298.15	1.3983	0.0004
308.15	1.3934	0.0004

System: 1,3-dioxolane; phases: Liquid
Fixed: Pressure, kPa = 101.325
Property: Mass density, kg/m3 (Liquid); method: Vibrating tube method
Temperature, K	Mass density, kg/m3	uncertainty
298.15	1058.79	0.13
308.15	1046.4	0.12

System: tetrahydropyran; phases: Liquid
Fixed: Pressure, kPa = 101.325
Property: Molar heat capacity at constant pressure, J/K/mol (Liquid); method: Small sample (50 mg) DSC
Temperature, K	Molar heat capacity at constant pressure, J/K/mol	uncertainty
288.15	143.9	2.2
293.15	146.3	2.3
298.15	147.9	2.3
303.15	149.7	2.3
308.15	151.7	2.4
313.15	154.3	2.4
318.15	156.5	2.4
323.15	159.1	2.5
328.15	161.6	2.5
333.15	164.2	2.5

System: tetrahydropyran; phases: Liquid
Fixed: Pressure, kPa = 101.325
Property: Refractive index (Na D-line) (Liquid); method: Standard Abbe refractometry
Temperature, K	Refractive index (Na D-line)	uncertainty
298.15	1.4188	0.0004
308.15	1.4142	0.0004

System: tetrahydropyran; phases: Liquid
Fixed: Pressure, kPa = 101.325
Property: Mass density, kg/m3 (Liquid); method: Vibrating tube method
Temperature, K	Mass density, kg/m3	uncertainty
298.15	879.31	0.24
308.15	868.85	0.24

System: tetrahydrofuran; phases: Liquid
Fixed: Pressure, kPa = 101.325
Property: Molar heat capacity at constant pressure, J/K/mol (Liquid); method: Small sample (50 mg) DSC
Temperature, K	Molar heat capacity at constant pressure, J/K/mol	uncertainty
288.15	121.1	1.9
293.15	123.8	1.9
298.15	126.4	2
303.15	128.5	2
308.15	131.4	2
313.15	133.2	2.1
318.15	135.2	2.1
323.15	136.6	2.1

System: tetrahydrofuran; phases: Liquid
Fixed: Pressure, kPa = 101.325
Property: Refractive index (Na D-line) (Liquid); method: Standard Abbe refractometry
Temperature, K	Refractive index (Na D-line)	uncertainty
298.15	1.4048	0.0004
308.15	1.4002	0.0004

System: tetrahydrofuran; phases: Liquid
Fixed: Pressure, kPa = 101.325
Property: Mass density, kg/m3 (Liquid); method: Vibrating tube method
Temperature, K	Mass density, kg/m3	uncertainty
298.15	881.9	0.11
308.15	870.99	0.12

System: 1,2-dimethoxyethane; phases: Liquid
Fixed: Pressure, kPa = 101.325
Property: Molar heat capacity at constant pressure, J/K/mol (Liquid); method: Small sample (50 mg) DSC
Temperature, K	Molar heat capacity at constant pressure, J/K/mol	uncertainty
288.15	188.7	2.9
293.15	189	2.9
298.15	191	3
303.15	192.2	3
308.15	193.4	3
313.15	194.5	3
318.15	195.8	3
323.15	196.9	3.1

System: 1,2-dimethoxyethane; phases: Liquid
Fixed: Pressure, kPa = 101.325
Property: Refractive index (Na D-line) (Liquid); method: Standard Abbe refractometry
Temperature, K	Refractive index (Na D-line)	uncertainty
298.15	1.3781	0.0004
308.15	1.3726	0.0004

System: 1,2-dimethoxyethane; phases: Liquid
Fixed: Pressure, kPa = 101.325
Property: Mass density, kg/m3 (Liquid); method: Vibrating tube method
Temperature, K	Mass density, kg/m3	uncertainty
298.15	861.9	0.24
308.15	851.28	0.24

System: 1,2-diethoxyethane; phases: Liquid
Fixed: Pressure, kPa = 101.325
Property: Molar heat capacity at constant pressure, J/K/mol (Liquid); method: Small sample (50 mg) DSC
Temperature, K	Molar heat capacity at constant pressure, J/K/mol	uncertainty
288.15	254.5	3.9
293.15	255.3	4
298.15	257.5	4
303.15	257.9	4
308.15	258.7	4
313.15	259.5	4
318.15	261.2	4
323.15	262.9	4.1

System: 1,2-diethoxyethane; phases: Liquid
Fixed: Pressure, kPa = 101.325
Property: Refractive index (Na D-line) (Liquid); method: Standard Abbe refractometry
Temperature, K	Refractive index (Na D-line)	uncertainty
298.15	1.3897	0.0004
308.15	1.3853	0.0004

System: 1,2-diethoxyethane; phases: Liquid
Fixed: Pressure, kPa = 101.325
Property: Mass density, kg/m3 (Liquid); method: Vibrating tube method
Temperature, K	Mass density, kg/m3	uncertainty
298.15	835.11	0.15
308.15	826.026	0.154

System: dimethyl sulfoxide + 1,4-dioxane; phases: Liquid
Fixed: Temperature, K = 308.15
Fixed: Pressure, kPa = 101
Property: Molar heat capacity at constant pressure, J/K/mol (Liquid); method: Small sample (50 mg) DSC
Mole fraction of dimethyl sulfoxide	Molar heat capacity at constant pressure, J/K/mol	uncertainty
0.0749	154.8	2.4
0.1148	155.1	2.4
0.2112	155.5	2.4
0.313	155.4	2.4
0.4096	155.1	2.4
0.5185	154.6	2.4
0.6108	153.9	2.4
0.6637	153.5	2.4
0.7064	153.2	2.4
0.8128	152.5	2.4
0.8952	152.7	2.4
0.9586	153.5	2.4

System: dimethyl sulfoxide + 1,4-dioxane; phases: Liquid
Fixed: Temperature, K = 308.15
Fixed: Pressure, kPa = 101
Property: Excess molar enthalpy (molar enthalpy of mixing), kJ/mol (Liquid); method: Flow calorimetry
Mole fraction of dimethyl sulfoxide	Excess molar enthalpy (molar enthalpy of mixing), kJ/mol	uncertainty
0.0478	0.133	0.002
0.0911	0.222	0.003
0.1308	0.281	0.004
0.1671	0.32	0.004
0.2313	0.365	0.005
0.2863	0.386	0.005
0.3757	0.409	0.005
0.4451	0.417	0.006
0.5462	0.404	0.005
0.6437	0.383	0.005
0.7066	0.356	0.005
0.7831	0.31	0.004
0.828	0.272	0.004
0.8784	0.207	0.003
0.9059	0.167	0.003
0.9353	0.116	0.002
0.9665	0.066	0.001

System: dimethyl sulfoxide + 1,3-dioxolane; phases: Liquid
Fixed: Temperature, K = 308.15
Fixed: Pressure, kPa = 101
Property: Molar heat capacity at constant pressure, J/K/mol (Liquid); method: Small sample (50 mg) DSC
Mole fraction of dimethyl sulfoxide	Molar heat capacity at constant pressure, J/K/mol	uncertainty
0.0532	125.2	1.9
0.1036	126.2	2
0.1897	128.2	2
0.3044	131.3	2
0.3922	133.9	2.1
0.5058	137.3	2.1
0.5455	138.5	2.1
0.5936	139.9	2.2
0.7053	143.4	2.2
0.781	145.9	2.3
0.9015	150.3	2.3
0.9431	152	2.4

System: dimethyl sulfoxide + 1,3-dioxolane; phases: Liquid
Fixed: Temperature, K = 308.15
Fixed: Pressure, kPa = 101
Property: Excess molar enthalpy (molar enthalpy of mixing), kJ/mol (Liquid); method: Flow calorimetry
Mole fraction of dimethyl sulfoxide	Excess molar enthalpy (molar enthalpy of mixing), kJ/mol	uncertainty
0.0394	0.061	0.001
0.0757	0.107	0.002
0.1095	0.14	0.002
0.1408	0.171	0.003
0.1974	0.2	0.003
0.2469	0.226	0.003
0.3297	0.25	0.004
0.3959	0.263	0.004
0.4959	0.271	0.004
0.5961	0.264	0.004
0.663	0.255	0.004
0.7469	0.235	0.003
0.7973	0.217	0.003
0.8551	0.179	0.003
0.8872	0.148	0.002
0.9219	0.112	0.002
0.9594	0.065	0.001

System: dimethyl sulfoxide + tetrahydropyran; phases: Liquid
Fixed: Temperature, K = 308.15
Fixed: Pressure, kPa = 101
Property: Molar heat capacity at constant pressure, J/K/mol (Liquid); method: Small sample (50 mg) DSC
Mole fraction of dimethyl sulfoxide	Molar heat capacity at constant pressure, J/K/mol	uncertainty
0.0834	152.1	2.4
0.1416	152.4	2.4
0.2619	152.8	2.4
0.376	153.1	2.4
0.4572	153.5	2.4
0.5817	153.7	2.4
0.6249	153.8	2.4
0.659	153.8	2.4
0.7619	153.9	2.4
0.8405	154	2.4
0.9268	154.2	2.4
0.952	154.3	2.4

System: dimethyl sulfoxide + tetrahydropyran; phases: Liquid
Fixed: Temperature, K = 308.15
Fixed: Pressure, kPa = 101
Property: Excess molar enthalpy (molar enthalpy of mixing), kJ/mol (Liquid); method: Flow calorimetry
Mole fraction of dimethyl sulfoxide	Excess molar enthalpy (molar enthalpy of mixing), kJ/mol	uncertainty
0.0543	0.376	0.005
0.1148	0.67	0.009
0.1469	0.781	0.01
0.1867	0.896	0.011
0.2562	1.016	0.013
0.3146	1.091	0.014
0.4079	1.144	0.014
0.4786	1.165	0.015
0.5708	1.128	0.014
0.6739	1.035	0.013
0.7337	0.946	0.012
0.8051	0.796	0.01
0.8464	0.685	0.009
0.8921	0.508	0.007
0.9168	0.412	0.006
0.9429	0.295	0.004
0.9706	0.157	0.002

System: dimethyl sulfoxide + tetrahydrofuran; phases: Liquid
Fixed: Temperature, K = 308.15
Fixed: Pressure, kPa = 101
Property: Molar heat capacity at constant pressure, J/K/mol (Liquid); method: Small sample (50 mg) DSC
Mole fraction of dimethyl sulfoxide	Molar heat capacity at constant pressure, J/K/mol	uncertainty
0.0807	132.9	2.1
0.1171	133.6	2.1
0.2353	135.9	2.1
0.3233	137.7	2.1
0.4932	141.4	2.2
0.5284	142.3	2.2
0.5833	143.6	2.2
0.6359	144.9	2.2
0.7298	147.2	2.3
0.8269	149.8	2.3
0.893	151.6	2.3
0.9507	153.2	2.4

System: dimethyl sulfoxide + tetrahydrofuran; phases: Liquid
Fixed: Temperature, K = 308.15
Fixed: Pressure, kPa = 101
Property: Excess molar enthalpy (molar enthalpy of mixing), kJ/mol (Liquid); method: Flow calorimetry
Mole fraction of dimethyl sulfoxide	Excess molar enthalpy (molar enthalpy of mixing), kJ/mol	uncertainty
0.0457	0.213	0.003
0.0875	0.372	0.005
0.1257	0.49	0.006
0.1608	0.579	0.008
0.2233	0.699	0.009
0.2771	0.765	0.01
0.3651	0.853	0.011
0.4339	0.87	0.011
0.5349	0.874	0.011
0.6332	0.839	0.011
0.697	0.773	0.01
0.7753	0.682	0.009
0.8215	0.588	0.008
0.8735	0.474	0.006
0.902	0.4	0.005
0.9325	0.291	0.004
0.965	0.163	0.003

System: dimethyl sulfoxide + 1,2-dimethoxyethane; phases: Liquid
Fixed: Temperature, K = 308.15
Fixed: Pressure, kPa = 101
Property: Molar heat capacity at constant pressure, J/K/mol (Liquid); method: Small sample (50 mg) DSC
Mole fraction of dimethyl sulfoxide	Molar heat capacity at constant pressure, J/K/mol	uncertainty
0.1017	188.6	2.9
0.1471	186.5	2.9
0.2718	180.8	2.8
0.3811	175.8	2.7
0.4923	170.8	2.6
0.5507	168.3	2.6
0.5831	166.9	2.6
0.677	163.1	2.5
0.7788	159.4	2.5
0.8414	157.6	2.4
0.9315	155.5	2.4
0.9626	155	2.4

System: dimethyl sulfoxide + 1,2-dimethoxyethane; phases: Liquid
Fixed: Temperature, K = 308.15
Fixed: Pressure, kPa = 101
Property: Excess molar enthalpy (molar enthalpy of mixing), kJ/mol (Liquid); method: Flow calorimetry
Mole fraction of dimethyl sulfoxide	Excess molar enthalpy (molar enthalpy of mixing), kJ/mol	uncertainty
0.0577	0.077	0.002
0.1092	0.142	0.002
0.1553	0.193	0.003
0.1969	0.231	0.003
0.2689	0.285	0.004
0.329	0.326	0.004
0.4238	0.361	0.005
0.495	0.366	0.005
0.5953	0.364	0.005
0.6882	0.338	0.005
0.7463	0.316	0.004
0.8153	0.265	0.004
0.8547	0.23	0.003
0.8982	0.182	0.003
0.9217	0.142	0.002
0.9464	0.105	0.002
0.9725	0.057	0.001

System: dimethyl sulfoxide + 1,2-diethoxyethane; phases: Liquid
Fixed: Temperature, K = 308.15
Fixed: Pressure, kPa = 101
Property: Molar heat capacity at constant pressure, J/K/mol (Liquid); method: Small sample (50 mg) DSC
Mole fraction of dimethyl sulfoxide	Molar heat capacity at constant pressure, J/K/mol	uncertainty
0.0627	252.8	3.9
0.1317	246	3.8
0.1895	240.7	3.7
0.35	225	3.5
0.4563	214.4	3.3
0.5642	203.2	3.1
0.635	195.8	3
0.6718	191.9	3
0.7514	183.1	2.8
0.8274	174.7	2.7
0.8881	167.7	2.6
0.941	161.6	2.5

System: dimethyl sulfoxide + 1,2-diethoxyethane; phases: Liquid
Fixed: Temperature, K = 308.15
Fixed: Pressure, kPa = 101
Property: Excess molar enthalpy (molar enthalpy of mixing), kJ/mol (Liquid); method: Flow calorimetry
Mole fraction of dimethyl sulfoxide	Excess molar enthalpy (molar enthalpy of mixing), kJ/mol	uncertainty
0.0765	0.342	0.005
0.1421	0.532	0.007
0.199	0.648	0.008
0.2488	0.72	0.009
0.332	0.803	0.01
0.3986	0.843	0.011
0.4985	0.893	0.011
0.5698	0.883	0.011
0.6653	0.835	0.011
0.7489	0.726	0.009
0.799	0.638	0.008
0.8564	0.502	0.007
0.8883	0.397	0.005
0.9227	0.293	0.004
0.9408	0.245	0.004
0.9598	0.16	0.002
0.9795	0.083	0.002
