Measured thermophysical data. Risperidone   Solid-state characterization and pharmaceuticalcompatibility using thermal and non-thermal techniques
Source: Thermochim. Acta, 2013, 10.1016/j.tca.2013.06.032
Compound 1: risperidone, C23H27FN4O2, InChI=1S/C23H27FN4O2/c1-15-18(23(29)28-10-3-2-4-21(28)25-15)9-13-27-11-7-16(8-12-27)22-19-6-5-17(24)14-20(19)30-26-22/h5-6,14,16H,2-4,7-13H2,1H3

System: risperidone; phases: Crystal, Liquid, Air at 1 atmosphere
Property: Normal melting temperature, K (Crystal); method: DTA:corrimp
Normal melting temperature, K	uncertainty
443.67	1.12

System: risperidone; phases: Crystal, Liquid, Air at 1 atmosphere
Property: Molar enthalpy of transition or fusion, kJ/mol (Crystal); method: DSC
Molar enthalpy of transition or fusion, kJ/mol	uncertainty
41.8694336064	1.14935700096
