Measured thermophysical data. The heat capacity and vibration spectra of tris(1,1,1,5,5,5- hexafluoro 2,4-pentanodionate) iron(III)
Source: Thermochim. Acta, 2005, 10.1016/j.tca.2005.03.016
Compound 1: tris(1,1,1,5,5,5-hexafluoro 2,4-pentanodionate) iron(III), C15H3F18FeO6, InChI=1S/3C5HF6O2.Fe/c3*6-4(7,8)2(12)1-3(13)5(9,10)11;/h3*1H;/q3*-1;+3

System: tris(1,1,1,5,5,5-hexafluoro 2,4-pentanodionate) iron(III); phases: Crystal, Liquid, Air at 1 atmosphere
Property: Normal melting temperature, K (Crystal); method: Boetius table
Normal melting temperature, K	uncertainty
328	1

System: tris(1,1,1,5,5,5-hexafluoro 2,4-pentanodionate) iron(III); phases: Crystal
Property: Mass density, kg/m3 (Crystal); method: X-ray diffraction
Temperature, K	Pressure, kPa	Mass density, kg/m3	uncertainty
298.15	101.325	1917.6	2.38

System: tris(1,1,1,5,5,5-hexafluoro 2,4-pentanodionate) iron(III); phases: Crystal
Fixed: Pressure, kPa = 101.325
Property: Molar heat capacity at constant pressure, J/K/mol (Crystal); method: Vacuum adiabatic calorimetry
Temperature, K	Molar heat capacity at constant pressure, J/K/mol	uncertainty
4.8	3.993	0.066
5.863	6.492	0.091
7.561	12.53	0.14
8.932	18.83	0.19
10.248	24.98	0.23
11.83	33.5	0.28
13.815	44.16	0.34
14.671	48.88	0.36
15.387	52.8	0.37
16.457	58.38	0.4
16.893	60.51	0.4
18.403	68.35	0.43
18.527	69.23	0.43
20.089	76.8	0.45
20.37	77.97	0.45
21.796	84.61	0.46
22.468	87.84	0.46
23.705	93.82	0.47
24.661	98.17	0.47
25.923	103.9	0.5
27.002	108.4	0.5
28.713	115.6	0.4
29.33	118.5	0.4
31.633	128.3	0.3
32.014	130.5	0.3
33.936	137.9	0.3
34.446	140.5	0.3
35.163	143.2	0.3
36.201	147.4	0.3
36.866	150.8	0.4
37.538	152.8	0.4
38.787	157.7	0.4
39.253	159.2	0.4
39.855	162.1	0.4
41.703	169.2	0.4
42.289	171	0.4
44.594	179.3	0.4
47.655	187.5	0.4
50.504	194.9	0.4
53.403	201.8	0.4
56.817	208.8	0.5
60.416	218.3	0.5
64.217	226.8	0.5
68.223	235.5	0.5
72.801	246.1	0.5
77.905	256.8	0.6
82.64	267.2	0.6
87.777	278	0.6
88.448	279.5	0.6
91.985	287	0.5
93.246	289.3	0.5
94.616	292.2	0.5
97.18	297.3	0.5
99.44	302.3	0.5
101.636	306.2	0.5
104.13	310.7	0.5
106.555	316.4	0.5
109.536	322.6	0.5
111.727	326.3	0.5
114.875	332.9	0.5
116.994	336.3	0.5
120.315	343.6	0.5
122.657	347.7	0.6
125.85	353.1	0.6
127.723	357.1	0.6
131.486	365.1	0.6
134.088	369.5	0.6
137.079	375.8	0.6
138.144	377.3	0.6
141.939	384.3	0.6
142.645	386	0.6
146.28	392.5	0.6
148.193	396.1	0.6
150.937	400.9	0.6
153.733	406.6	0.6
155.892	410.4	0.6
159.138	416.7	0.6
160.941	419.8	0.6
164.666	427.1	0.6
165.891	428.8	0.6
170.321	437.2	0.6
170.795	437.8	0.6
175.857	446.4	0.6
175.87	446.9	0.7
181.526	457.5	0.7
182.351	458.2	0.7
187.154	466.4	0.7
187.311	467.7	0.7
192.481	475.7	0.7
192.991	477.7	0.7
197.921	485.1	0.7
198.682	487.4	0.7
203.703	495.4	0.7
204.496	498.1	0.7
209.723	506.1	0.7
210.317	508.2	0.7
215.989	517.7	0.7
216.271	518.6	0.7
222.376	527.8	0.7
222.561	529.2	0.7
228.589	539.6	0.7
229.034	539.5	0.7
235.006	550.4	0.8
235.332	550	0.8
241.525	561.2	0.8
241.544	560.7	0.8
247.675	571.5	0.8
248.051	571.2	0.8
248.053	571.6	0.8
254.486	583.6	0.8
257.46	588.5	0.8
260.832	593.9	0.8
263.395	599.1	0.8
267.091	604.3	0.8
269.262	608.9	0.8
273.276	613.7	0.8
274.163	614.8	0.8
275.167	616.9	0.8
276.466	618.4	0.8
278.929	622.9	0.8
279.381	625	0.8
280.586	625.4	0.8
283.035	629.6	0.8
285.158	632.7	0.8
287.494	638.1	0.8
289.585	641.1	0.8
291.837	644.9	0.8
294.034	647.7	0.9
296.136	652.9	0.9
298.372	655.5	0.9
300.399	658.7	0.9
302.655	661.7	0.9
304.618	665.4	0.9
306.896	670.2	0.9
308.797	672.3	0.9
311.116	677	0.9
312.936	679.5	0.9
315.29	683	0.9
317.037	686.1	0.9
319.691	691.7	0.9
321.015	693	0.9

System: tris(1,1,1,5,5,5-hexafluoro 2,4-pentanodionate) iron(III); phases: Crystal
Fixed: Pressure, kPa = 101.325
Property: Molar heat capacity at constant pressure, J/K/mol (Crystal); method: Vacuum adiabatic calorimetry
Temperature, K	Molar heat capacity at constant pressure, J/K/mol	uncertainty
5	4.51	0.09
10	23.96	0.22
15	50.67	0.36
20	76.34	0.45
25	99.64	0.47
30	121.6	0.3
35	142.6	0.3
40	162.4	0.4
45	180	0.4
50	193.7	0.4
55	205.2	0.5
60	216.9	0.5
65	228.8	0.5
70	239.6	0.5
80	261.1	0.6
90	282.7	0.5
100	303	0.5
110	323.2	0.5
120	342.5	0.5
130	361.8	0.6
140	381	0.6
150	399.4	0.6
160	418.2	0.6
170	436.4	0.6
180	454.3	0.7
190	472.1	0.7
200	490	0.7
210	507.3	0.7
220	524.6	0.7
230	541.5	0.7
240	558.3	0.8
250	575.1	0.8
260	593	0.8
270	608.9	0.8
280	624.7	0.8
290	641.6	0.8
298.15	654.9	0.9
300	657.9	0.9
310	674.8	0.9
320	691.2	0.9

System: tris(1,1,1,5,5,5-hexafluoro 2,4-pentanodionate) iron(III); phases: Crystal
Fixed: Pressure, kPa = 101.325
Property: Molar enthalpy, kJ/mol (Crystal); method: Vacuum adiabatic calorimetry
Temperature, K	Molar enthalpy, kJ/mol	uncertainty
5	0.00564	0.00028
10	0.0707	0.0008
15	0.2562	0.0021
20	0.5748	0.0037
25	1.015	0.005
30	1.568	0.005
35	2.229	0.007
40	2.993	0.008
45	3.851	0.01
50	4.787	0.012
55	5.785	0.014
60	6.839	0.017
65	7.953	0.019
70	9.125	0.022
80	11.63	0.027
90	14.35	0.033
100	17.28	0.038
110	20.41	0.043
120	23.74	0.048
130	27.26	0.054
140	30.97	0.059
150	34.87	0.065
160	38.96	0.071
170	43.24	0.078
180	47.69	0.084
190	52.32	0.091
200	57.13	0.098
210	62.12	0.105
220	67.28	0.112
230	72.61	0.119
240	78.11	0.127
250	83.77	0.134
260	89.62	0.142
270	95.63	0.15
280	101.8	0.158
290	108.1	0.167
298.15	113.4	0.174
300	114.6	0.175
310	121.3	0.184
320	128.1	0.193

System: tris(1,1,1,5,5,5-hexafluoro 2,4-pentanodionate) iron(III); phases: Crystal
Fixed: Pressure, kPa = 101.325
Property: Molar entropy, J/K/mol (Crystal); method: Vacuum adiabatic calorimetry
Temperature, K	Molar entropy, J/K/mol	uncertainty
5	1.5	0.05
10	9.59	0.14
15	24.26	0.27
20	42.41	0.38
25	61.96	0.44
30	82.07	0.32
35	102.4	0.4
40	122.8	0.4
45	143	0.5
50	162.7	0.6
55	181.7	0.6
60	200	0.7
65	217.9	0.7
70	235.2	0.8
80	268.6	0.9
90	300.6	0.8
100	331.5	0.8
110	361.3	0.8
120	390.2	0.9
130	418.4	0.9
140	445.9	1
150	472.8	1
160	499.2	1.1
170	525.1	1.1
180	550.6	1.1
190	575.6	1.2
200	600.3	1.2
210	624.6	1.2
220	648.6	1.3
230	672.3	1.3
240	695.7	1.3
250	718.8	1.4
260	741.7	1.4
270	764.4	1.4
280	786.9	1.5
290	809.1	1.5
298.15	827.3	1.5
300	831.1	1.5
310	852.9	1.6
320	874.6	1.6
