Measured thermophysical data. Thermodynamic Study of Binary Mixture of x1[C6mim][BF4] + x21-propanol:  Measurements and Molecular Modeling
Source: Thermochim. Acta, 2012, 10.1016/j.tca.2011.10.030
Compound 1: 1-hexyl-3-methylimidazolium tetrafluoroborate, C10H19BF4N2, InChI=1S/C10H19N2.BF4/c1-3-4-5-6-7-12-9-8-11(2)10-12;2-1(3,4)5/h8-10H,3-7H2,1-2H3;/q+1;-1, purity 98%
Compound 2: propan-1-ol, C3H8O, InChI=1S/C3H8O/c1-2-3-4/h4H,2-3H2,1H3, purity 99%

System: 1-hexyl-3-methylimidazolium tetrafluoroborate; phases: Liquid
Fixed: Pressure, kPa = 101
Property: Viscosity, Pa*s (Liquid); method: Capillary tube (Ostwald; Ubbelohde) method
Temperature, K	Viscosity, Pa*s	uncertainty
293.15	0.2326518	
303.15	0.1300161	
313.15	0.0782427	
323.15	0.050302	
333.15	0.034023	

System: 1-hexyl-3-methylimidazolium tetrafluoroborate; phases: Liquid
Fixed: Pressure, kPa = 101
Property: Mass density, kg/m3 (Liquid); method: Vibrating tube method
Temperature, K	Mass density, kg/m3	uncertainty
293.15	1149.24	5.11
303.15	1142.48	5.11
313.15	1135.79	5.1
323.15	1129.08	5.1
333.15	1122.37	5.1

System: propan-1-ol; phases: Liquid
Fixed: Pressure, kPa = 101
Property: Viscosity, Pa*s (Liquid); method: Capillary tube (Ostwald; Ubbelohde) method
Temperature, K	Viscosity, Pa*s	uncertainty
293.15	0.002204	1.97e-05
303.15	0.0016145	1.47e-05
313.15	0.0011883	1.1e-05
323.15	0.0008796	8.4e-06
333.15	0.0005985	6e-06

System: propan-1-ol; phases: Liquid
Fixed: Pressure, kPa = 101
Property: Mass density, kg/m3 (Liquid); method: Vibrating tube method
Temperature, K	Mass density, kg/m3	uncertainty
293.15	809.62	5
303.15	801.43	5
313.15	793.09	5
323.15	784.54	5
333.15	775.74	5

System: propan-1-ol + 1-hexyl-3-methylimidazolium tetrafluoroborate; phases: Liquid
Fixed: Pressure, kPa = 101
Property: Viscosity, Pa*s (Liquid); method: Capillary tube (Ostwald; Ubbelohde) method
Temperature, K	Mole fraction of 1-hexyl-3-methylimidazolium tetrafluoroborate	Viscosity, Pa*s	uncertainty
293.15	0	0.002204	1.97e-05
293.15	0.1006	0.0037442	3.4e-05
293.15	0.199	0.0062937	5.66e-05
293.15	0.3002	0.0100761	9.03e-05
293.15	0.4993	0.0237028	0.0002212
293.15	0.6309	0.0419589	0.0004103
293.15	0.7571	0.0737048	0.0009152
293.15	0.8894	0.1394185	0.0034188
293.15	1	0.2326518	0.008175
303.15	0	0.0016145	1.47e-05
303.15	0.1006	0.002705	2.49e-05
303.15	0.199	0.0045175	4.21e-05
303.15	0.3002	0.0071582	6.6e-05
303.15	0.4993	0.0163746	0.0001543
303.15	0.6309	0.0278489	0.0002737
303.15	0.7571	0.0466528	0.0004804
303.15	0.8894	0.0824498	0.0012084
303.15	1	0.1300161	0.0030363
313.15	0	0.0011883	1.1e-05
313.15	0.1004	0.0019994	1.86e-05
313.15	0.199	0.0033643	3.17e-05
313.15	0.3002	0.0053235	5.08e-05
313.15	0.4993	0.01184	0.0001131
313.15	0.6309	0.0194379	0.0001924
313.15	0.7571	0.0312578	0.000323
313.15	0.8894	0.0522796	0.0005004
313.15	1	0.0782427	0.0011079
323.15	0	0.0008796	8.4e-06
323.15	0.1006	0.0015018	1.42e-05
323.15	0.199	0.0025851	2.46e-05
323.15	0.3002	0.0040556	3.93e-05
323.15	0.4993	0.0088081	8.57e-05
323.15	0.6309	0.01425	0.0001424
323.15	0.7571	0.0219716	0.0002283
323.15	0.8894	0.0351518	0.0003822
323.15	1	0.050302	0.000505
333.15	0	0.0005985	6e-06
333.15	0.1006	0.0011234	1.09e-05
333.15	0.199	0.0019902	1.91e-05
333.15	0.3002	0.0031403	3.06e-05
333.15	0.4993	0.0067601	6.72e-05
333.15	0.6309	0.0107363	0.0001087
333.15	0.7571	0.0160923	0.0001685
333.15	0.8894	0.0246699	0.0002696
333.15	1	0.034023	0.0003863

System: propan-1-ol + 1-hexyl-3-methylimidazolium tetrafluoroborate; phases: Liquid
Fixed: Pressure, kPa = 101
Property: Mass density, kg/m3 (Liquid); method: Vibrating tube method
Temperature, K	Mole fraction of 1-hexyl-3-methylimidazolium tetrafluoroborate	Mass density, kg/m3	uncertainty
293.15	0	809.62	5
293.15	0.1006	895.6	5.01
293.15	0.199	955.99	5.01
293.15	0.3002	1001.98	5.01
293.15	0.4993	1065.02	5.03
293.15	0.6309	1094.51	5.04
293.15	0.7571	1116.98	5.06
293.15	0.8894	1135.92	5.08
293.15	1	1149.24	5.11
303.15	0	801.43	5
303.15	0.1006	887.71	5.01
303.15	0.199	948.28	5.01
303.15	0.3002	994.41	5.01
303.15	0.4993	1057.71	5.03
303.15	0.6309	1087.38	5.04
303.15	0.7571	1110.01	5.06
303.15	0.8894	1129.14	5.08
303.15	1	1142.48	5.11
313.15	0	793.09	5
313.15	0.1006	879.74	5.01
313.15	0.199	940.53	5.01
313.15	0.3002	986.83	5.01
313.15	0.4993	1050.43	5.03
313.15	0.6309	1080.27	5.04
313.15	0.7571	1103.05	5.06
313.15	0.8894	1122.32	5.08
313.15	1	1135.79	5.1
323.15	0	784.54	5
323.15	0.1006	871.67	5.01
323.15	0.199	932.73	5.01
323.15	0.3002	979.23	5.01
323.15	0.4993	1043.18	5.03
323.15	0.6309	1073.19	5.04
323.15	0.7571	1096.1	5.05
323.15	0.8894	1115.51	5.08
323.15	1	1129.08	5.1
333.15	0	775.74	5
333.15	0.1006	863.47	5.01
333.15	0.199	924.86	5.01
333.15	0.3002	971.61	5.01
333.15	0.4993	1035.95	5.03
333.15	0.6309	1066.15	5.04
333.15	0.7571	1089.2	5.05
333.15	0.8894	1108.71	5.08
333.15	1	1122.37	5.1
