Measured thermophysical data. Volumetric and viscometric studies of molecular interaction of the ternary system toluene (1) + cyclohexane (2) + n-hexane (3) at 298.15K
Source: Thermochim. Acta, 2005, 10.1016/j.tca.2005.08.007
Compound 1: toluene, C7H8, InChI=1S/C7H8/c1-7-5-3-2-4-6-7/h2-6H,1H3
Compound 2: cyclohexane, C6H12, InChI=1S/C6H12/c1-2-4-6-5-3-1/h1-6H2
Compound 3: hexane, C6H14, InChI=1S/C6H14/c1-3-5-6-4-2/h3-6H2,1-2H3

System: toluene + cyclohexane; phases: Liquid
Fixed: Temperature, K = 298.15
Fixed: Pressure, kPa = 101
Property: Viscosity, Pa*s (Liquid); method: Capillary tube (Ostwald; Ubbelohde) method
Mole fraction of toluene	Viscosity, Pa*s	uncertainty
0.0721	0.0008574	7.7e-06
0.1813	0.0007693	7e-06
0.2798	0.0007024	6.5e-06
0.3613	0.000651	6.2e-06
0.4416	0.0006116	5.9e-06
0.6003	0.0005532	5.5e-06
0.6784	0.0005329	5.3e-06
0.7615	0.0005181	5.3e-06
0.8396	0.0005029	5.2e-06
0.9202	0.0004976	5.2e-06

System: toluene + cyclohexane; phases: Liquid
Fixed: Temperature, K = 298.15
Fixed: Pressure, kPa = 101
Property: Mass density, kg/m3 (Liquid); method: Vibrating tube method
Mole fraction of toluene	Mass density, kg/m3	uncertainty
0.0721	777.43	0.26
0.1813	784.63	0.28
0.2798	791.6	0.3
0.3613	799.02	0.31
0.4416	806	0.33
0.6003	820.17	0.36
0.6784	827.33	0.38
0.7615	834.61	0.39
0.8396	843.41	0.41
0.9202	853.16	0.43

System: toluene + hexane; phases: Liquid
Fixed: Temperature, K = 298.15
Fixed: Pressure, kPa = 101
Property: Viscosity, Pa*s (Liquid); method: Capillary tube (Ostwald; Ubbelohde) method
Mole fraction of toluene	Viscosity, Pa*s	uncertainty
0.0406	0.0002774	3.3e-06
0.2028	0.0003073	3.5e-06
0.2804	0.0003185	3.6e-06
0.3596	0.0003272	3.7e-06
0.4423	0.0003421	3.8e-06
0.5997	0.0003812	4.2e-06
0.6757	0.0004028	4.4e-06
0.7597	0.00043	4.6e-06
0.8412	0.0004644	4.9e-06
0.9199	0.000499	5.2e-06

System: toluene + hexane; phases: Liquid
Fixed: Temperature, K = 298.15
Fixed: Pressure, kPa = 101
Property: Mass density, kg/m3 (Liquid); method: Vibrating tube method
Mole fraction of toluene	Mass density, kg/m3	uncertainty
0.0406	657.47	0.4
0.2028	690.93	0.4
0.2804	706.95	0.41
0.3596	723.29	0.42
0.4423	740.35	0.42
0.5997	772.81	0.43
0.6757	788.5	0.43
0.7597	805.83	0.43
0.8412	822.63	0.44
0.9199	838.87	0.44

System: hexane + cyclohexane; phases: Liquid
Fixed: Temperature, K = 298.15
Fixed: Pressure, kPa = 101
Property: Viscosity, Pa*s (Liquid); method: Capillary tube (Ostwald; Ubbelohde) method
Mole fraction of cyclohexane	Viscosity, Pa*s	uncertainty
0.0397	0.0002833	3.3e-06
0.2011	0.0003282	3.7e-06
0.2776	0.0003485	3.8e-06
0.3617	0.0003778	4e-06
0.4409	0.0004077	4.2e-06
0.5889	0.0004815	4.8e-06
0.6848	0.0005355	5.2e-06
0.7608	0.0005994	5.7e-06
0.8074	0.0006444	6e-06
0.9205	0.0007507	6.8e-06

System: hexane + cyclohexane; phases: Liquid
Fixed: Temperature, K = 298.15
Fixed: Pressure, kPa = 101
Property: Mass density, kg/m3 (Liquid); method: Vibrating tube method
Mole fraction of cyclohexane	Mass density, kg/m3	uncertainty
0.0397	655.8	0.39
0.2011	674.91	0.37
0.2776	683.97	0.36
0.3617	693.92	0.35
0.4409	703.31	0.34
0.5889	720.83	0.32
0.6848	732.18	0.3
0.7608	741.18	0.29
0.8074	746.7	0.28
0.9205	760.09	0.27

System: toluene + hexane + cyclohexane; phases: Liquid
Fixed: Temperature, K = 298.15
Fixed: Pressure, kPa = 101
Property: Viscosity, Pa*s (Liquid); method: Capillary tube (Ostwald; Ubbelohde) method
Mole fraction of toluene	Mole fraction of cyclohexane	Viscosity, Pa*s	uncertainty
0.0099	0.0312	0.0002781	3.3e-06
0.0189	0.0208	0.0002767	3.3e-06
0.0473	0.1563	0.0002923	3.4e-06
0.0687	0.2119	0.000304	3.4e-06
0.0842	0.0934	0.0003032	3.5e-06
0.0905	0.2791	0.0003332	3.7e-06
0.0912	0.03	0.0002965	3.4e-06
0.1049	0.3413	0.0003789	4e-06
0.1272	0.1411	0.0003194	3.6e-06
0.1422	0.4656	0.0004207	4.3e-06
0.1498	0.0546	0.0003078	3.5e-06
0.1619	0.5247	0.0005096	5e-06
0.1727	0.1916	0.0003432	3.8e-06
0.1797	0.5852	0.0005619	5.5e-06
0.1991	0.6453	0.0006316	6e-06
0.209	0.0762	0.0003294	3.7e-06
0.2103	0.2334	0.0003802	4.1e-06
0.2245	0.6975	0.0006994	6.5e-06
0.2672	0.103	0.0003588	3.9e-06
0.2883	0.3137	0.0004334	4.5e-06
0.3254	0.354	0.000477	4.9e-06
0.3264	0.1259	0.0003865	4.2e-06
0.3646	0.3967	0.0005213	5.2e-06
0.4031	0.4385	0.0005745	5.6e-06
0.4407	0.4794	0.0006246	6e-06
0.4435	0.163	0.0004455	4.7e-06
0.5033	0.185	0.000497	5.1e-06
0.5574	0.2049	0.0005351	5.4e-06
0.6171	0.2269	0.000579	5.8e-06
0.6721	0.2471	0.0005971	5.9e-06

System: toluene + hexane + cyclohexane; phases: Liquid
Fixed: Temperature, K = 298.15
Fixed: Pressure, kPa = 101
Property: Mass density, kg/m3 (Liquid); method: Vibrating tube method
Mole fraction of toluene	Mole fraction of cyclohexane	Mass density, kg/m3	uncertainty
0.0098	0.0315	669.97	0.39
0.0298	0.0114	661.29	0.4
0.0301	0.0966	680.17	0.39
0.0581	0.0641	671.53	0.39
0.0653	0.2222	689.32	0.37
0.0918	0.0327	674.19	0.39
0.0951	0.1063	682.4	0.38
0.1339	0.1555	694.68	0.38
0.151	0.058	687.38	0.39
0.1538	0.4673	734.11	0.34
0.1604	0.5273	742.84	0.33
0.1704	0.1866	704.85	0.38
0.1762	0.5865	753.69	0.32
0.2088	0.081	700.49	0.39
0.2129	0.2278	717.54	0.37
0.24	0.2974	730.85	0.37
0.27	0.0989	714	0.39
0.2816	0.3134	741.12	0.37
0.3289	0.1193	727.81	0.4
0.3674	0.399	769.75	0.36
0.3871	0.1413	742	0.4
0.4046	0.4349	782.6	0.36
0.4382	0.483	796.71	0.36
0.4478	0.1651	757.38	0.4
0.4582	0.4993	803.56	0.36
0.5011	0.1829	770.84	0.4
0.5609	0.2048	786.66	0.4
0.6176	0.2238	801.93	0.4
0.676	0.2465	818.57	0.4
0.7033	0.2569	826.5	0.4
