Measured thermophysical data. Thermal stability and decomposition mechanism of 1-ethyl-3-methylimidazolium halides
Source: Thermochim. Acta, 2015, 10.1016/j.tca.2015.02.001
Compound 1: 1-ethyl-3-methylimidazolium chloride, C6H11ClN2, InChI=1S/C6H11N2.ClH/c1-3-8-5-4-7(2)6-8;/h4-6H,3H2,1-2H3;1H/q+1;/p-1, purity 98%
Compound 2: 1-ethyl-3-methylimidazolium bromide, C6H11BrN2, InChI=1S/C6H11N2.BrH/c1-3-8-5-4-7(2)6-8;/h4-6H,3H2,1-2H3;1H/q+1;/p-1, purity 98%
Compound 3: 1-ethyl-3-methylimidazolium iodide, C6H11IN2, InChI=1S/C6H11N2.HI/c1-3-8-5-4-7(2)6-8;/h4-6H,3H2,1-2H3;1H/q+1;/p-1, purity 97%

System: 1-ethyl-3-methylimidazolium chloride; phases: Crystal, Liquid, Air at 1 atmosphere
Property: Molar enthalpy of transition or fusion, kJ/mol (Crystal); method: DSC
Molar enthalpy of transition or fusion, kJ/mol	uncertainty
14.2	1.4

System: 1-ethyl-3-methylimidazolium chloride; phases: Crystal, Liquid, Air at 1 atmosphere
Property: Triple point temperature, K (Crystal); method: DTA
Triple point temperature, K	uncertainty
359.15	2

System: 1-ethyl-3-methylimidazolium bromide; phases: Crystal, Liquid, Air at 1 atmosphere
Property: Molar enthalpy of transition or fusion, kJ/mol (Crystal); method: DSC
Molar enthalpy of transition or fusion, kJ/mol	uncertainty
19.3	1.5

System: 1-ethyl-3-methylimidazolium bromide; phases: Crystal, Liquid, Air at 1 atmosphere
Property: Triple point temperature, K (Crystal); method: DTA
Triple point temperature, K	uncertainty
340.15	2

System: 1-ethyl-3-methylimidazolium iodide; phases: Crystal, Liquid, Air at 1 atmosphere
Property: Molar enthalpy of transition or fusion, kJ/mol (Crystal); method: DSC
Molar enthalpy of transition or fusion, kJ/mol	uncertainty
16.9	1.3

System: 1-ethyl-3-methylimidazolium iodide; phases: Crystal, Liquid, Air at 1 atmosphere
Property: Triple point temperature, K (Crystal); method: DTA
Triple point temperature, K	uncertainty
347.15	2
