Measured thermophysical data. Variations of thermal conductivity with temperature and composition of Zn in  the Bi [x] at.% Zn 2 at.% Al alloys
Source: Thermochim. Acta, 2012, 10.1016/j.tca.2012.07.033
Compound 1: aluminum, Al, InChI=1S/Al
Compound 2: bismuth, Bi, InChI=1S/Bi
Compound 3: zinc, Zn, InChI=1S/Zn

System: aluminum + zinc + bismuth; phases: Crystal
Fixed: Mole fraction of zinc = 0.02
Fixed: Pressure, kPa = 101
Property: Thermal conductivity, W/m/K (Crystal); method: Coaxial cylinder method
Mole fraction of bismuth	Temperature, K	Thermal conductivity, W/m/K	uncertainty
0.045	323	11.74	0.84
0.045	373	10.99	0.78
0.045	423	10.01	0.71
0.045	473	9.85	0.7
0.045	513	9.35	0.67
0.18	323	15.74	1.12
0.18	373	14.01	1
0.18	423	13.8	0.99
0.18	473	12.89	0.92
0.18	513	12.08	0.86
0.301	323	19.53	1.39
0.301	373	17.74	1.27
0.301	423	16.28	1.16
0.301	473	15.52	1.11
0.301	513	14.48	1.03
0.79	323	46.69	3.33
0.79	373	46	3.29
0.79	423	44.46	3.18
0.79	473	42.14	3.01
0.79	513	40.59	2.9
0.98	323	92.85	6.63
0.98	373	90.84	6.49
0.98	423	87.51	6.25
0.98	473	82.78	5.91
0.98	513	80.33	5.74
