Measured thermophysical data. Vapor pressure measurements of AgBr by the Knudsen effusion method
Source: Thermochim. Acta, 2019, 10.1016/j.tca.2018.10.027
Compound 1: silver bromide, AgBr, InChI=1S/Ag.BrH/h;1H/q+1;/p-1

System: silver bromide; phases: Liquid, Gas
Property: Vapor or sublimation pressure, kPa (Liquid); method: Calculated from knudsen effusion weight loss
Temperature, K	Vapor or sublimation pressure, kPa	uncertainty
829.9	8.6e-05	3.5e-05
849.9	0.000148	5.9e-05
869.9	0.000272	0.000109
890	0.000602	0.000242
910	0.001143	0.000465
929.9	0.001998	0.000816
829.9	0.000109	4.4e-05
849.9	0.00019	7.6e-05
869.9	0.000316	0.000127
889.9	0.000529	0.000212
909.9	0.000855	0.000343
929.9	0.001391	0.000566
829.9	0.000111	4.5e-05
849.9	0.000184	7.4e-05
869.9	0.000325	0.000131
889.9	0.00057	0.000229
909.9	0.000958	0.000385
929.9	0.001712	0.000698
829.9	8e-05	3.2e-05
849.9	0.000171	6.9e-05
869.9	0.000276	0.000111
889.9	0.000464	0.000186
909.9	0.000842	0.000338
929.9	0.001211	0.000493
