Measured thermophysical data. Amorphous Enzalutamide - Non-isothermal recrystallization kinetics and thermal stability
Source: Thermochim. Acta, 2018, 10.1016/j.tca.2018.05.020
Compound 1: Enzalutamide, C21H16F4N4O2S, InChI=1S/C21H16F4N4O2S/c1-20(2)18(31)28(12-5-4-11(10-26)15(8-12)21(23,24)25)19(32)29(20)13-6-7-14(16(22)9-13)17(30)27-3/h4-9H,1-3H3,(H,27,30)

System: Enzalutamide; phases: Crystal, Liquid, Air at 1 atmosphere
Property: Triple point temperature, K (Crystal); method: DSC
Triple point temperature, K	uncertainty
469.15	1

System: Enzalutamide; phases: Crystal, Liquid, Air at 1 atmosphere
Property: Molar enthalpy of transition or fusion, kJ/mol (Crystal); method: DSC
Molar enthalpy of transition or fusion, kJ/mol	uncertainty
36.04031995328	0.9288742256

System: Enzalutamide; phases: Glass, Liquid, Air at 1 atmosphere
Property: Triple point temperature, K (Glass); method: DSC
Triple point temperature, K	uncertainty
358.15	1
