Measured thermophysical data. Preparation and thermal properties of lanthanide complexes with 2,3-dichlorobenzoic acid and  1,10-phenanthroline
Source: Thermochim. Acta, 2011, 10.1016/j.tca.2010.09.011
Compound 1: europium 2,3-dichlorobenzoate, 1,10-phenanthroline complex, C66H34Cl12Eu2N4O12, InChI=1S/2C12H8N2.6C7H4Cl2O2.2Eu/c2*1-3-9-5-6-10-4-2-8-14-12(10)11(9)13-7-1;6*8-5-3-1-2-4(6(5)9)7(10)11;;/h2*1-8H;6*1-3H,(H,10,11);;/q;;;;;;;;2*+3/p-6
Compound 2: terbium 2,3-dichlorobenzoate, 1,10-phenanthroline complex, C66H34Cl12N4O12Tb2, InChI=1S/2C12H8N2.6C7H4Cl2O2.2Tb/c2*1-3-9-5-6-10-4-2-8-14-12(10)11(9)13-7-1;6*8-5-3-1-2-4(6(5)9)7(10)11;;/h2*1-8H;6*1-3H,(H,10,11);;/q;;;;;;;;2*+3/p-6
Compound 3: holmium 2,3-dichlorobenzoate, 1,10-phenanthroline complex, C66H34Cl12Ho2N4O12, InChI=1S/2C12H8N2.6C7H4Cl2O2.2Ho/c2*1-3-9-5-6-10-4-2-8-14-12(10)11(9)13-7-1;6*8-5-3-1-2-4(6(5)9)7(10)11;;/h2*1-8H;6*1-3H,(H,10,11);;/q;;;;;;;;2*+3/p-6

System: europium 2,3-dichlorobenzoate, 1,10-phenanthroline complex; phases: Crystal
Fixed: Pressure, kPa = 101.325
Property: Molar heat capacity at constant pressure, J/K/mol (Crystal); method: Large sample (1 g) DSC
Temperature, K	Molar heat capacity at constant pressure, J/K/mol	uncertainty
259.15	1204.55	20.86
262.726	1240.854	21.492
266.302	1269.805	21.994
269.878	1294.651	22.424
273.454	1318.906	22.844
277.03	1341.266	23.231
280.606	1366.379	23.666
284.182	1392.456	24.118
287.758	1419.409	24.585
291.334	1445.811	25.042
294.91	1476.237	25.569
298.486	1509.55	26.15
302.062	1538.605	26.649
305.638	1568.431	27.166
309.214	1596.651	27.655
312.79	1622.341	28.1
316.366	1644.467	28.483
319.942	1662.488	28.795
323.518	1676.065	29.03
327.094	1689.589	29.265
330.67	1700.054	29.446
334.246	1710.019	29.618
337.822	1720.917	29.807
341.398	1728.978	29.947
344.974	1741.131	30.157
348.55	1755.945	30.414
352.126	1767.348	30.611
355.702	1781.12	30.85
359.278	1793.435	31.063
362.854	1809.611	31.343
366.43	1825.137	31.612
370.006	1843.253	31.926
373.582	1856.47	32.16
377.158	1876.62	32.5
380.734	1895.264	32.827
384.31	1914.146	33.154
387.886	1931.328	33.452
391.462	1950.829	33.789
395.038	1968.836	34.101
398.614	1987.259	34.42
402.19	2006.935	34.761
405.766	2029.95	35.16
409.342	2052.302	35.547
412.918	2083.81	36.09
416.494	2100.51	36.38
420.07	2124.363	36.795
423.646	2152.529	37.283
427.222	2179.482	37.75
430.798	2204.747	38.187
434.374	2227.257	38.577
437.95	2246.744	38.915
441.526	2273.715	39.382
445.102	2289.936	39.663
448.678	2308.44	39.98
452.254	2327.349	40.311
455.83	2343.471	40.59
459.406	2360.166	40.879
462.982	2376.333	41.159
466.558	2391.282	41.418
470.134	2409.899	41.741
473.71	2427.478	42.045
477.286	2450.104	42.437
480.862	2472.69	42.83
484.438	2498.741	43.279
488.014	2526.154	43.754
491.59	2556.544	44.281

System: europium 2,3-dichlorobenzoate, 1,10-phenanthroline complex; phases: Crystal
Fixed: Pressure, kPa = 101.325
Property: Molar heat capacity at constant pressure, J/K/mol (Crystal); method: Large sample (1 g) DSC
Temperature, K	Molar heat capacity at constant pressure, J/K/mol	uncertainty
259.15	1230.33	24.61
269.15	1278.52	25.57
279.15	1355.36	27.11
289.15	1440.26	28.81
298.15	1513	30
299.15	1520.61	30.41
309.15	1590.08	31.8
319.15	1646.89	32.94
329.15	1692.44	33.85
339.15	1730.03	34.6
349.15	1763.85	35.28
359.15	1798.09	35.96
369.15	1836.33	36.73
379.15	1881	38
389.15	1933.18	38.66
399.15	1992.47	39.85
409.15	2057.12	41.14
419.15	2124.34	42.49
429.15	2190.8	43.8
439.15	2253.32	45.07
449.15	2309.75	46.2
459.15	2360.06	47.2
469.15	2407.6	48.2
479.15	2460.59	49.21
489.15	2533.76	50.68

System: europium 2,3-dichlorobenzoate, 1,10-phenanthroline complex; phases: Crystal
Fixed: Pressure, kPa = 101.325
Property: Molar enthalpy, kJ/mol (Crystal); method: Large sample (1 g) DSC
Temperature, K	Molar enthalpy, kJ/mol	uncertainty
259.15	-52.951	1.059
269.15	-40.442	0.809
279.15	-27.287	0.546
289.15	-13.31	0.27
298.15	0	0.031
299.15	1.532	0.043
309.15	17.096	0.343
319.15	33.292	0.667
329.15	49.997	1.001
339.15	67.114	1.343
349.15	84.585	1.692
359.15	102.393	2.048
369.15	120.561	2.412
379.15	139.142	2.783
389.15	158.207	3.164
399.15	177.83	3.56
409.15	198.075	3.962
419.15	218.981	4.38
429.15	240.559	4.811
439.15	262.785	5.256
449.15	285.606	5.712
459.15	308.96	6.18
469.15	332.798	6.656
479.15	357.13	7.14
489.15	382.077	7.642

System: europium 2,3-dichlorobenzoate, 1,10-phenanthroline complex; phases: Crystal
Fixed: Pressure, kPa = 101.325
Property: Molar entropy, J/K/mol (Crystal); method: Large sample (1 g) DSC
Temperature, K	Molar entropy, J/K/mol	uncertainty
259.15	-189.85	5.7
269.15	-142.49	4.28
279.15	-94.51	2.84
289.15	-45.32	1.36
298.15	0	0.103
299.15	5.13	0.19
309.15	56.3	1.7
319.15	107.85	3.24
329.15	159.39	4.78
339.15	210.61	6.32
349.15	261.38	7.84
359.15	311.66	9.35
369.15	361.55	10.85
379.15	411.22	12.34
389.15	460.84	13.83
399.15	510.63	15.32
409.15	560.72	16.82
419.15	611.2	18.3
429.15	662.07	19.86
439.15	713.26	21.4
449.15	764.64	22.94
459.15	816.07	24.48
469.15	867.43	26.02
479.15	918.74	27.56
489.15	970.27	29.11

System: terbium 2,3-dichlorobenzoate, 1,10-phenanthroline complex; phases: Crystal
Fixed: Pressure, kPa = 101.325
Property: Molar heat capacity at constant pressure, J/K/mol (Crystal); method: Large sample (1 g) DSC
Temperature, K	Molar heat capacity at constant pressure, J/K/mol	uncertainty
259.15	1423.736	24.66
262.726	1450.824	25.129
266.302	1472.557	25.505
269.878	1494.313	25.882
273.454	1513.845	26.221
277.03	1536.401	26.611
280.606	1558.739	26.998
284.182	1579.694	27.361
287.758	1602.427	27.755
291.334	1628.229	28.202
294.91	1650.83	28.59
298.486	1677.181	29.05
302.062	1699.61	29.44
305.638	1717.206	29.743
309.214	1735.653	30.062
312.79	1753.477	30.371
316.366	1765.495	30.579
319.942	1777.132	30.781
323.518	1785.674	30.929
327.094	1793.72	31.07
330.67	1802.229	31.216
334.246	1808.429	31.323
337.822	1816.684	31.466
341.398	1825.28	31.61
344.974	1836.881	31.816
348.55	1846.222	31.978
352.126	1857.537	32.173
355.702	1870.378	32.396
359.278	1880.524	32.572
362.854	1892.848	32.785
366.43	1905.762	33.009
370.006	1918.826	33.235
373.582	1932.286	33.468
377.158	1946.919	33.722
380.734	1960.192	33.952
384.31	1972.697	34.168
387.886	1989.548	34.46
391.462	2000.431	34.648
395.038	2017.777	34.949
398.614	2028.841	35.141
402.19	2041.733	35.364
405.766	2054.329	35.582
409.342	2074.848	35.937
412.918	2083.808	36.093
416.494	2109.496	36.538
420.07	2117.914	36.683
423.646	2129.838	36.89
427.222	2147.002	37.187
430.798	2165.044	37.5
434.374	2178.713	37.736
437.95	2192.459	37.975
441.526	2203.892	38.173
445.102	2219.483	38.443
448.678	2231.198	38.645
452.254	2244.971	38.884
455.83	2258.849	39.124
459.406	2271.354	39.341
462.982	2282.791	39.539
466.558	2294.901	39.749
470.134	2306.311	39.946
473.71	2318.166	40.152
477.286	2327.948	40.321
480.862	2339.126	40.515
484.438	2350.577	40.713
488.014	2359.286	40.864
491.59	2366.864	40.995

System: terbium 2,3-dichlorobenzoate, 1,10-phenanthroline complex; phases: Crystal
Fixed: Pressure, kPa = 101.325
Property: Molar heat capacity at constant pressure, J/K/mol (Crystal); method: Large sample (1 g) DSC
Temperature, K	Molar heat capacity at constant pressure, J/K/mol	uncertainty
259.15	1422.16	28.44
269.15	1487.65	29.75
279.15	1555.8	31.1
289.15	1620.06	32.4
298.15	1671.63	33.43
299.15	1676.94	33.54
309.15	1725.28	34.51
319.15	1765.6	35.3
329.15	1799.49	35.99
339.15	1829.15	36.58
349.15	1856.95	37.14
359.15	1885.07	37.7
369.15	1915.3	38.3
379.15	1948.77	38.98
389.15	1985.97	39.72
399.15	2026.61	40.53
409.15	2069.79	41.4
419.15	2114.05	42.28
429.15	2157.66	43.15
439.15	2198.9	44
449.15	2236.42	44.73
459.15	2269.76	45.4
469.15	2299.84	46
479.15	2329.6	46.6
489.15	2364.71	47.29

System: terbium 2,3-dichlorobenzoate, 1,10-phenanthroline complex; phases: Crystal
Fixed: Pressure, kPa = 101.325
Property: Molar enthalpy, kJ/mol (Crystal); method: Large sample (1 g) DSC
Temperature, K	Molar enthalpy, kJ/mol	uncertainty
259.15	-60.749	1.215
269.15	-45.936	0.919
279.15	-30.718	0.615
289.15	-14.834	0.298
298.15	0	0.034
299.15	1.691	0.048
309.15	18.709	0.376
319.15	36.17	0.72
329.15	54	1
339.15	72.146	1.443
349.15	90.577	1.812
359.15	109.287	2.186
369.15	128.286	2.566
379.15	147.604	2.952
389.15	167.275	3.346
399.15	187.335	3.747
409.15	207.816	4.157
419.15	228.735	4.575
429.15	250.095	5.002
439.15	271.881	5.438
449.15	294.061	5.881
459.15	316.595	6.332
469.15	339.445	6.789
479.15	362.591	7.252
489.15	386.055	7.721

System: terbium 2,3-dichlorobenzoate, 1,10-phenanthroline complex; phases: Crystal
Fixed: Pressure, kPa = 101.325
Property: Molar entropy, J/K/mol (Crystal); method: Large sample (1 g) DSC
Temperature, K	Molar entropy, J/K/mol	uncertainty
259.15	-216.98	6.51
269.15	-161.93	4.86
279.15	-106.42	3.19
289.15	-50.52	1.52
298.15	0	0.113
299.15	5.66	0.2
309.15	61.62	1.85
319.15	117.2	3.5
329.15	172.2	5.2
339.15	226.51	6.8
349.15	280.07	8.4
359.15	332.9	10
369.15	385.07	11.55
379.15	436.7	13.1
389.15	487.91	14.64
399.15	538.8	16.2
409.15	589.48	17.68
419.15	639.99	19.2
429.15	690.35	20.71
439.15	740.53	22.22
449.15	790.47	23.71
459.15	840.09	25.2
469.15	889.32	26.68
479.15	938.13	28.14
489.15	986.6	29.6

System: holmium 2,3-dichlorobenzoate, 1,10-phenanthroline complex; phases: Crystal
Fixed: Pressure, kPa = 101.325
Property: Molar heat capacity at constant pressure, J/K/mol (Crystal); method: Large sample (1 g) DSC
Temperature, K	Molar heat capacity at constant pressure, J/K/mol	uncertainty
259.15	1326.216	22.971
262.726	1359.669	23.55
266.302	1386.185	24.009
269.878	1411.018	24.44
273.454	1436.838	24.887
277.03	1459.287	25.276
280.606	1488.612	25.784
284.182	1515.774	26.254
287.758	1543.054	26.726
291.334	1569.136	27.178
294.91	1599.326	27.701
298.486	1629.16	28.22
302.062	1652.542	28.623
305.638	1673.343	28.983
309.214	1691.664	29.3
312.79	1709.129	29.603
316.366	1723.872	29.858
319.942	1736.634	30.079
323.518	1748.114	30.278
327.094	1761.535	30.511
330.67	1776.021	30.762
334.246	1788.133	30.971
337.822	1801.947	31.211
341.398	1811.277	31.372
344.974	1825.155	31.613
348.55	1841.184	31.89
352.126	1853.955	32.111
355.702	1868.537	32.364
359.278	1881.464	32.588
362.854	1897.776	32.87
366.43	1913.338	33.14
370.006	1930.707	33.441
373.582	1944.041	33.672
377.158	1963.968	34.017
380.734	1982.756	34.342
384.31	2000.02	34.64
387.886	2018.822	34.967
391.462	2038.04	35.3
395.038	2056.365	35.617
398.614	2077.304	35.98
402.19	2095.405	36.293
405.766	2117.355	36.674
409.342	2135.566	36.989
412.918	2162.97	37.46
416.494	2176.002	37.689
420.07	2199.219	38.092
423.646	2223.74	38.52
427.222	2246.563	38.912
430.798	2267.241	39.27
434.374	2284.757	39.573
437.95	2300.85	39.85
441.526	2322.731	40.231
445.102	2334.559	40.436
448.678	2350.203	40.707
452.254	2367.211	41.001
455.83	2382.173	41.26
459.406	2400.302	41.574
462.982	2418.312	41.886
466.558	2433.147	42.143
470.134	2455.188	42.525
473.71	2471.72	42.81
477.286	2492.695	43.175
480.862	2511.236	43.496
484.438	2530.637	43.832
488.014	2553.021	44.22
491.59	2572.815	44.562

System: holmium 2,3-dichlorobenzoate, 1,10-phenanthroline complex; phases: Crystal
Fixed: Pressure, kPa = 101.325
Property: Molar heat capacity at constant pressure, J/K/mol (Crystal); method: Large sample (1 g) DSC
Temperature, K	Molar heat capacity at constant pressure, J/K/mol	uncertainty
259.15	1329.91	26.6
269.15	1404.68	28.09
279.15	1483.95	29.68
289.15	1559.24	31.19
298.15	1619.88	32.4
299.15	1626.13	32.52
309.15	1683.24	33.66
319.15	1731.34	34.63
329.15	1772.6	35.5
339.15	1809.82	36.2
349.15	1846	37
359.15	1883.79	37.68
369.15	1925.22	38.5
379.15	1971.46	39.43
389.15	2022.75	40.46
399.15	2078.38	41.57
409.15	2136.85	42.74
419.15	2196.08	43.92
429.15	2253.82	45.08
439.15	2308.08	46.16
449.15	2357.7	47.2
459.15	2403.14	48.06
469.15	2447.2	48.9
479.15	2496.01	49.92
489.15	2560.04	51.2

System: holmium 2,3-dichlorobenzoate, 1,10-phenanthroline complex; phases: Crystal
Fixed: Pressure, kPa = 101.325
Property: Molar enthalpy, kJ/mol (Crystal); method: Large sample (1 g) DSC
Temperature, K	Molar enthalpy, kJ/mol	uncertainty
259.15	-57.656	1.153
269.15	-43.992	0.88
279.15	-29.549	0.592
289.15	-14.328	0.288
298.15	0	0.033
299.15	1.639	0.046
309.15	18.194	0.365
319.15	35.274	0.706
329.15	52.799	1.057
339.15	70.713	1.415
349.15	88.992	1.78
359.15	107.639	2.153
369.15	126.681	2.534
379.15	146.16	2.92
389.15	166.127	3.323
399.15	186.63	3.73
409.15	207.705	4.154
419.15	229.37	4.59
429.15	251.622	5.033
439.15	274.436	5.489
449.15	297.769	5.956
459.15	321.576	6.432
469.15	345.827	6.917
479.15	370.536	7.411
489.15	395.798	7.916

System: holmium 2,3-dichlorobenzoate, 1,10-phenanthroline complex; phases: Crystal
Fixed: Pressure, kPa = 101.325
Property: Molar entropy, J/K/mol (Crystal); method: Large sample (1 g) DSC
Temperature, K	Molar entropy, J/K/mol	uncertainty
259.15	-206.77	6.2
269.15	-155.04	4.65
279.15	-102.36	3.07
289.15	-48.79	1.47
298.15	0	0.11
299.15	5.49	0.2
309.15	59.92	1.8
319.15	114.29	3.43
329.15	168.35	5.05
339.15	221.96	6.66
349.15	275.08	8.25
359.15	327.73	9.83
369.15	380.02	11.4
379.15	432.08	12.96
389.15	484.06	14.52
399.15	536.08	16.08
409.15	588.22	17.65
419.15	640.53	19.22
429.15	692.99	20.79
439.15	745.54	22.37
449.15	798.07	23.94
459.15	850.5	25.5
469.15	902.74	27.08
479.15	954.86	28.65
489.15	1007.03	30.21
