Measured thermophysical data. Thermal behavior of Al/Zr/KClO 4 pyrotechnic compositions at high temperature
Source: Thermochim. Acta, 2018, 10.1016/j.tca.2017.11.006
Compound 1: potassium perchlorate, ClKO4, InChI=1S/ClHO4.K/c2-1(3,4)5;/h(H,2,3,4,5);/q;+1/p-1, purity 99%
Compound 2: aluminum, Al, InChI=1S/Al

System: potassium perchlorate; phases: Crystal 2, Crystal 1, Air at 1 atmosphere
Property: Triple point temperature, K (Crystal 2); method: DSC
Triple point temperature, K	uncertainty
579.15	2

System: aluminum; phases: Crystal 1, Liquid, Air at 1 atmosphere
Property: Normal melting temperature, K (Crystal 1); method: DTA
Normal melting temperature, K	uncertainty
935.15	2
