Measured thermophysical data. Measurement and correlation of phase diagram data for acetone andsulfate aqueous two-phase systems at different temperatures
Source: Thermochim. Acta, 2013, 10.1016/j.tca.2013.07.002
Compound 1: acetone, C3H6O, InChI=1S/C3H6O/c1-3(2)4/h1-2H3
Compound 2: water, H2O, InChI=1S/H2O/h1H2
Compound 3: ammonium sulfate, H8N2O4S, InChI=1S/2H3N.H2O4S/c;;1-5(2,3)4/h2*1H3;(H2,1,2,3,4)
Compound 4: lithium sulfate, Li2O4S, InChI=1S/2Li.H2O4S/c;;1-5(2,3)4/h;;(H2,1,2,3,4)/q2*+1;/p-2
Compound 5: magnesium sulfate, MgO4S, InChI=1S/Mg.H2O4S/c;1-5(2,3)4/h;(H2,1,2,3,4)/q+2;/p-2
Compound 6: zinc sulfate, O4SZn, InChI=1S/H2O4S.Zn/c1-5(2,3)4;/h(H2,1,2,3,4);/q;+2/p-2

System: acetone + water + ammonium sulfate; phases: Liquid mixture 1, Liquid mixture 2
Fixed: Pressure, kPa = 101
Property: Mass fraction of acetone (Liquid mixture 1); method: Titration method
Temperature, K	Mass fraction of ammonium sulfate	Mass fraction of acetone	uncertainty
288.15	0.3927	0.0219	0.0009
288.15	0.3609	0.0294	0.0012
288.15	0.3337	0.0369	0.0015
288.15	0.3033	0.0479	0.0019
288.15	0.2766	0.0623	0.0025
288.15	0.2531	0.0776	0.0031
288.15	0.2406	0.0864	0.0035
288.15	0.2325	0.0937	0.0037
288.15	0.2214	0.1028	0.0041
288.15	0.2145	0.1094	0.0044
288.15	0.2024	0.1221	0.0049
288.15	0.1742	0.1526	0.0061
288.15	0.1532	0.1785	0.0071
288.15	0.1358	0.2007	0.008
288.15	0.1216	0.2208	0.0088
288.15	0.1154	0.2287	0.0091
288.15	0.1105	0.237	0.0095
288.15	0.1007	0.2511	0.01
288.15	0.0859	0.273	0.0109
288.15	0.0646	0.3121	0.0125
288.15	0.0508	0.3432	0.0137
288.15	0.0415	0.3675	0.0147
288.15	0.036	0.385	0.0154
288.15	0.0351	0.3873	0.0155
288.15	0.0302	0.4052	0.0162
288.15	0.0257	0.4249	0.017
288.15	0.0196	0.4552	0.0182
288.15	0.016	0.4779	0.0191
288.15	0.0132	0.4985	0.0199
288.15	0.0108	0.5194	0.0192
288.15	0.009	0.5368	0.0185
298.15	0.32	0.0367	0.0015
298.15	0.3096	0.0418	0.0017
298.15	0.2672	0.0604	0.0024
298.15	0.2352	0.0831	0.0033
298.15	0.2248	0.0925	0.0037
298.15	0.1864	0.1288	0.0052
298.15	0.1518	0.173	0.0069
298.15	0.127	0.2081	0.0083
298.15	0.109	0.2361	0.0094
298.15	0.0952	0.2583	0.0103
298.15	0.0782	0.29	0.0116
298.15	0.0758	0.2953	0.0118
298.15	0.047	0.3601	0.0144
298.15	0.0333	0.4031	0.0161
298.15	0.0257	0.4334	0.0173
298.15	0.0207	0.4583	0.0183
298.15	0.0172	0.4775	0.0191
308.15	0.4323	0.0117	0.0005
308.15	0.4033	0.0182	0.0007
308.15	0.3807	0.0226	0.0009
308.15	0.3531	0.0283	0.0011
308.15	0.3192	0.0352	0.0014
308.15	0.3206	0.0363	0.0015
308.15	0.2937	0.0457	0.0018
308.15	0.2643	0.0592	0.0024
308.15	0.2326	0.079	0.0032
308.15	0.2132	0.0949	0.0038
308.15	0.2121	0.0976	0.0039
308.15	0.1953	0.1116	0.0045
308.15	0.1848	0.124	0.005
308.15	0.179	0.1309	0.0052
308.15	0.1586	0.1561	0.0062
308.15	0.1538	0.1631	0.0065
308.15	0.1319	0.196	0.0078
308.15	0.1163	0.221	0.0088
308.15	0.1022	0.2449	0.0098
308.15	0.0922	0.2627	0.0105
308.15	0.0818	0.2818	0.0113
308.15	0.0701	0.3079	0.0123
308.15	0.0684	0.3102	0.0124
308.15	0.0557	0.3387	0.0135
308.15	0.0451	0.3667	0.0147
308.15	0.037	0.3922	0.0157
308.15	0.0312	0.4124	0.0165
308.15	0.0269	0.4295	0.0172
308.15	0.0261	0.435	0.0174
308.15	0.0235	0.4433	0.0177
308.15	0.0188	0.4713	0.0189
308.15	0.0145	0.4996	0.02
308.15	0.011	0.5286	0.0189
308.15	0.0123	0.5155	0.0194
308.15	0.0096	0.5408	0.0184
308.15	0.0073	0.5661	0.0174

System: acetone + water + ammonium sulfate; phases: Liquid mixture 2, Liquid mixture 1
Fixed: Pressure, kPa = 101
Property: Mass fraction of ammonium sulfate (Liquid mixture 2); method: OTHER
Property: Mass fraction of ammonium sulfate (Liquid mixture 1); method: OTHER
Property: Mass fraction of acetone (Liquid mixture 1); method: OTHER
Temperature, K	Mass fraction of acetone	Mass fraction of ammonium sulfate	uncertainty	Mass fraction of ammonium sulfate	uncertainty	Mass fraction of acetone	uncertainty
288.15	0.1155	0.2125	0.01	0.0555	0.01	0.3318	
288.15	0.0934	0.2376	0.01	0.0421	0.01	0.3681	
288.15	0.0774	0.2576	0.01	0.0344	0.01	0.3934	
288.15	0.068	0.2705	0.01	0.0254	0.01	0.4293	
298.15	0.1322	0.1895	0.01	0.0776	0.01	0.2888	
298.15	0.103	0.2177	0.01	0.0529	0.01	0.3435	
298.15	0.086	0.2359	0.01	0.0387	0.01	0.3848	
298.15	0.0726	0.2517	0.01	0.0249	0.01	0.4383	
308.15	0.0879	0.229	0.01	0.0326	0.01	0.4067	
308.15	0.0729	0.2465	0.01	0.0233	0.01	0.4483	
308.15	0.062	0.2606	0.01	0.0187	0.01	0.4738	
308.15	0.0491	0.2793	0.01	0.0148	0.01	0.4993	

System: acetone + water + lithium sulfate; phases: Liquid mixture 1, Liquid mixture 2
Fixed: Pressure, kPa = 101
Property: Mass fraction of acetone (Liquid mixture 1); method: Titration method
Temperature, K	Mass fraction of lithium sulfate	Mass fraction of acetone	uncertainty
288.15	0.1985	0.074	0.003
288.15	0.1781	0.0966	0.0039
288.15	0.161	0.1197	0.0048
288.15	0.1445	0.1462	0.0058
288.15	0.1307	0.1715	0.0069
288.15	0.1181	0.1976	0.0079
288.15	0.1157	0.2028	0.0081
288.15	0.1033	0.2301	0.0092
288.15	0.1002	0.2363	0.0095
288.15	0.0933	0.253	0.0101
288.15	0.0876	0.2652	0.0106
288.15	0.0848	0.2727	0.0109
288.15	0.0741	0.2979	0.0119
288.15	0.064	0.3241	0.013
288.15	0.0605	0.3349	0.0134
288.15	0.0541	0.3524	0.0141
288.15	0.0466	0.3761	0.015
288.15	0.0425	0.3913	0.0157
288.15	0.0322	0.4306	0.0172
288.15	0.0243	0.4677	0.0187
288.15	0.0192	0.4977	0.0199
288.15	0.0158	0.5195	0.0192
288.15	0.0159	0.5202	0.0192
288.15	0.0133	0.5393	0.0184
288.15	0.011	0.5612	0.0176
288.15	0.0089	0.5825	0.0167
288.15	0.0074	0.5992	0.016
288.15	0.0063	0.6141	0.0154
298.15	0.2172	0.0552	0.0022
298.15	0.197	0.0733	0.0029
298.15	0.173	0.0983	0.0039
298.15	0.1525	0.1263	0.0051
298.15	0.1302	0.1644	0.0066
298.15	0.1125	0.2026	0.0081
298.15	0.1116	0.2044	0.0082
298.15	0.1009	0.2307	0.0092
298.15	0.0982	0.234	0.0094
298.15	0.0871	0.2619	0.0105
298.15	0.0777	0.2883	0.0115
298.15	0.079	0.2889	0.0116
298.15	0.0758	0.2923	0.0117
298.15	0.062	0.3308	0.0132
298.15	0.0608	0.3323	0.0133
298.15	0.0591	0.3373	0.0135
298.15	0.0466	0.3764	0.0151
298.15	0.0353	0.4172	0.0167
298.15	0.0281	0.4478	0.0179
298.15	0.0225	0.4774	0.0191
298.15	0.0217	0.4809	0.0192
298.15	0.0176	0.507	0.0197
298.15	0.016	0.5174	0.0193
298.15	0.0121	0.5492	0.018
298.15	0.0109	0.5596	0.0176
298.15	0.009	0.5784	0.0169
298.15	0.0085	0.5848	0.0166
298.15	0.0076	0.5947	0.0162
298.15	0.0069	0.6054	0.0158
298.15	0.0058	0.6209	0.0152
308.15	0.2193	0.0552	0.0022
308.15	0.2016	0.0646	0.0026
308.15	0.1763	0.0897	0.0036
308.15	0.1566	0.1134	0.0045
308.15	0.1353	0.1459	0.0058
308.15	0.128	0.1614	0.0065
308.15	0.1183	0.1783	0.0071
308.15	0.1057	0.2074	0.0083
308.15	0.09	0.2464	0.0099
308.15	0.0743	0.2882	0.0115
308.15	0.0631	0.3196	0.0128
308.15	0.0551	0.3432	0.0137
308.15	0.0486	0.3641	0.0146
308.15	0.044	0.3812	0.0152
308.15	0.0434	0.3821	0.0153
308.15	0.0352	0.4148	0.0166
308.15	0.027	0.4508	0.018
308.15	0.0218	0.4772	0.0191
308.15	0.0213	0.4806	0.0192
308.15	0.0171	0.5057	0.0198
308.15	0.0168	0.5093	0.0196
308.15	0.0145	0.5252	0.019
308.15	0.0113	0.552	0.0179
308.15	0.0091	0.5729	0.0171
308.15	0.0077	0.59	0.0164

System: acetone + water + lithium sulfate; phases: Liquid mixture 2, Liquid mixture 1
Fixed: Pressure, kPa = 101
Property: Mass fraction of lithium sulfate (Liquid mixture 2); method: OTHER
Property: Mass fraction of lithium sulfate (Liquid mixture 1); method: OTHER
Property: Mass fraction of acetone (Liquid mixture 1); method: OTHER
Temperature, K	Mass fraction of acetone	Mass fraction of lithium sulfate	uncertainty	Mass fraction of lithium sulfate	uncertainty	Mass fraction of acetone	uncertainty
288.15	0.0932	0.1792	0.01	0.0209	0.01	0.4875	
288.15	0.0716	0.1952	0.01	0.0124	0.01	0.5483	
288.15	0.0536	0.2109	0.01	0.0078	0.01	0.5946	
288.15	0.0389	0.2264	0.01	0.0049	0.01	0.6341	
298.15	0.1187	0.1585	0.01	0.0283	0.01	0.4488	
298.15	0.0903	0.1787	0.01	0.0192	0.01	0.4966	
298.15	0.0667	0.1965	0.01	0.0123	0.01	0.548	
298.15	0.0495	0.212	0.01	0.0075	0.01	0.5973	
308.15	0.1359	0.1459	0.01	0.0326	0.01	0.4209	
308.15	0.0972	0.1695	0.01	0.0185	0.01	0.4971	
308.15	0.0738	0.1862	0.01	0.0104	0.01	0.5632	
308.15	0.055	0.2019	0.01	0.0063	0.01	0.6117	

System: acetone + magnesium sulfate + water; phases: Liquid mixture 1, Liquid mixture 2
Fixed: Pressure, kPa = 101
Fixed: Temperature, K = 298.15
Property: Mass fraction of acetone (Liquid mixture 1); method: Titration method
Mass fraction of water	Mass fraction of acetone	uncertainty
0.24	0.0417	0.0017
0.2167	0.0523	0.0021
0.1875	0.0736	0.0029
0.1592	0.0984	0.0039
0.1374	0.1222	0.0049
0.1285	0.1328	0.0053
0.114	0.151	0.006
0.1016	0.1677	0.0067
0.0995	0.172	0.0069
0.0919	0.1811	0.0072
0.0876	0.1868	0.0075
0.0804	0.1985	0.0079
0.0668	0.2196	0.0088
0.0547	0.2393	0.0096
0.0462	0.2553	0.0102
0.0399	0.2685	0.0107
0.0369	0.2765	0.0111
0.0353	0.2793	0.0112
0.0316	0.2884	0.0115
0.026	0.3041	0.0122
0.0276	0.3065	0.0123
0.0252	0.3077	0.0123
0.0202	0.3266	0.0131
0.0196	0.3276	0.0131
0.0159	0.3435	0.0137
0.0125	0.3628	0.0145
0.0102	0.3789	0.0152
0.0086	0.3915	0.0157
0.0076	0.4005	0.016
0.0069	0.4107	0.0164
0.0064	0.4135	0.0165
0.0051	0.4319	0.0173
0.0041	0.447	0.0179
0.0036	0.4575	0.0183

System: acetone + magnesium sulfate + water; phases: Liquid mixture 1, Liquid mixture 2
Fixed: Temperature, K = 298.15
Fixed: Pressure, kPa = 101
Property: Mass fraction of magnesium sulfate (Liquid mixture 1); method: OTHER
Property: Mass fraction of acetone (Liquid mixture 2); method: OTHER
Property: Mass fraction of magnesium sulfate (Liquid mixture 2); method: OTHER
Mass fraction of acetone	Mass fraction of magnesium sulfate	uncertainty	Mass fraction of acetone	uncertainty	Mass fraction of magnesium sulfate	uncertainty
0.3386	0.019	0.01	0.0583	0.01	0.2072	
0.3632	0.0136	0.01	0.0536	0.01	0.2177	
0.3876	0.0097	0.01	0.041	0.01	0.2372	
0.4028	0.0077	0.01	0.0336	0.01	0.2505	

System: acetone + water + zinc sulfate; phases: Liquid mixture 1, Liquid mixture 2
Fixed: Pressure, kPa = 101
Fixed: Temperature, K = 298.15
Property: Mass fraction of acetone (Liquid mixture 1); method: Titration method
Mass fraction of water	Mass fraction of acetone	uncertainty
0.3276	0.0291	0.0012
0.2961	0.0401	0.0016
0.2711	0.0476	0.0019
0.238	0.0662	0.0026
0.2117	0.0842	0.0034
0.1837	0.1067	0.0043
0.162	0.126	0.005
0.145	0.1426	0.0057
0.1353	0.1541	0.0062
0.1311	0.1574	0.0063
0.1122	0.1794	0.0072
0.1089	0.182	0.0073
0.0923	0.2008	0.008
0.0768	0.2191	0.0088
0.0707	0.227	0.0091
0.0715	0.2279	0.0091
0.0576	0.2477	0.0099
0.048	0.2635	0.0105
0.0409	0.277	0.0111
0.0356	0.2893	0.0116
0.0315	0.2982	0.0119
0.0281	0.3091	0.0124
0.0255	0.3155	0.0126
0.0232	0.3232	0.0129

System: acetone + water + zinc sulfate; phases: Liquid mixture 2, Liquid mixture 1
Fixed: Temperature, K = 298.15
Fixed: Pressure, kPa = 101
Property: Mass fraction of acetone (Liquid mixture 2); method: OTHER
Property: Mass fraction of zinc sulfate (Liquid mixture 1); method: OTHER
Property: Mass fraction of acetone (Liquid mixture 1); method: OTHER
Mass fraction of zinc sulfate	Mass fraction of acetone	uncertainty	Mass fraction of zinc sulfate	uncertainty	Mass fraction of acetone	uncertainty
0.2698	0.0475	0.01	0.0216	0.01	0.3318	
0.2844	0.0413	0.01	0.0151	0.01	0.3536	
0.2981	0.0362	0.01	0.0115	0.01	0.3707	
0.3089	0.0339	0.01	0.0079	0.01	0.3917	
