Measured thermophysical data. Thermochemistry of 2MgSO4*MgO*3H2O
Source: Thermochim. Acta, 2005, 10.1016/j.tca.2004.07.006
Compound 1: magnesium oxide, MgO, InChI=1S/Mg.O/q+2;-2
Compound 2: magnesium sulfate (MgSO4) heptahydrate, H14MgO11S, InChI=1S/Mg.H2O4S.7H2O/c;1-5(2,3)4;;;;;;;/h;(H2,1,2,3,4);7*1H2/q+2;;;;;;;;/p-2
Compound 3: water, H2O, InChI=1S/H2O/h1H2
Compound 4: sulfuric acid, magnesium salt, compd. with magnesium oxide (MgO), hydrate (2:2:1:3), H6Mg3O12S2, InChI=1S/3Mg.2H2O4S.3H2O.O/c;;;2*1-5(2,3)4;;;;/h;;;2*(H2,1,2,3,4);3*1H2;/q3*+2;;;;;;-2/p-4, purity 99.9%

Reaction: -1 magnesium oxide + -2 magnesium sulfate (MgSO4) heptahydrate + 1 sulfuric acid, magnesium salt, compd. with magnesium oxide (MgO), hydrate (2:2:1:3) + 11 water
Property: Molar enthalpy of reaction, kJ/mol
99.2
