Measured thermophysical data. A simple method to determine the specific volumes of liquids and melts as a function of the temperature. Application to four n-alkanes (C16H34, C18H38, C19H40 and C21H44) under saturating vapour pressure in the 298-573K range
Source: Thermochim. Acta, 2006, 10.1016/j.tca.2006.04.001
Compound 1: octadecane, C18H38, InChI=1S/C18H38/c1-3-5-7-9-11-13-15-17-18-16-14-12-10-8-6-4-2/h3-18H2,1-2H3, purity 99%
Compound 2: nonadecane, C19H40, InChI=1S/C19H40/c1-3-5-7-9-11-13-15-17-19-18-16-14-12-10-8-6-4-2/h3-19H2,1-2H3, purity 99%
Compound 3: heneicosane, C21H44, InChI=1S/C21H44/c1-3-5-7-9-11-13-15-17-19-21-20-18-16-14-12-10-8-6-4-2/h3-21H2,1-2H3, purity 99%
Compound 4: hexadecane, C16H34, InChI=1S/C16H34/c1-3-5-7-9-11-13-15-16-14-12-10-8-6-4-2/h3-16H2,1-2H3, purity 99%

System: octadecane; phases: Liquid, Gas
Property: Specific volume, m3/kg (Liquid); method: Pycnometric method
Temperature, K	Specific volume, m3/kg	uncertainty
299.25	0.0012896	1.94e-05
301.35	0.0012921	1.94e-05
303.35	0.0012945	1.94e-05
305.45	0.0012949	1.94e-05
307.55	0.0012984	1.95e-05
309.55	0.0013007	1.95e-05
311.65	0.0013014	1.95e-05
313.65	0.0013042	1.96e-05
315.75	0.0013076	1.97e-05
317.75	0.0013113	1.98e-05
318.65	0.0013175	1.99e-05
319.85	0.0013171	1.98e-05
320.65	0.0013186	1.98e-05
323.55	0.0013231	1.99e-05
325.45	0.001324	1.99e-05
328.35	0.0013296	2e-05
330.35	0.0013306	2e-05
333.25	0.0013349	2.01e-05
335.15	0.0013375	2.01e-05
338.05	0.0013414	2.02e-05
341.05	0.001345	2.02e-05
342.95	0.0013459	2.02e-05
345.85	0.0013504	2.03e-05
347.85	0.0013543	2.04e-05
350.75	0.0013566	2.04e-05
352.65	0.0013597	2.04e-05
355.55	0.0013627	2.05e-05
357.55	0.0013644	2.05e-05
360.45	0.0013682	2.06e-05
362.35	0.0013715	2.06e-05
365.25	0.0013745	2.07e-05
367.25	0.0013768	2.07e-05
370.15	0.0013822	2.08e-05
372.05	0.0013846	2.08e-05
374.95	0.0013883	2.09e-05
376.95	0.0013906	2.09e-05
379.85	0.0013949	2.1e-05
381.75	0.0013977	2.1e-05
384.75	0.001402	2.11e-05
386.65	0.0014039	2.11e-05
389.55	0.0014093	2.12e-05
391.55	0.0014115	2.12e-05
394.45	0.0014158	2.13e-05
396.35	0.0014192	2.13e-05
399.25	0.0014227	2.14e-05
401.25	0.0014254	2.14e-05
404.15	0.0014291	2.15e-05
406.05	0.0014328	2.15e-05
408.95	0.0014368	2.16e-05
410.95	0.00144	2.17e-05
413.85	0.0014441	2.17e-05
415.75	0.0014478	2.18e-05
418.65	0.0014506	2.18e-05
420.65	0.0014547	2.19e-05
423.55	0.0014588	2.19e-05
425.45	0.0014564	2.19e-05
428.45	0.0014641	2.2e-05
430.35	0.0014644	2.2e-05
433.25	0.0014738	2.22e-05
435.25	0.0014706	2.21e-05
438.15	0.0014818	2.23e-05
440.05	0.0014777	2.22e-05
442.95	0.0014878	2.24e-05
444.95	0.0014854	2.24e-05
447.85	0.0014964	2.26e-05
449.75	0.0014979	2.25e-05
452.65	0.0015022	2.26e-05
454.65	0.0015058	2.27e-05
457.55	0.0015125	2.28e-05
459.45	0.0015129	2.28e-05
462.45	0.00152	2.29e-05
464.35	0.0015222	2.29e-05
467.25	0.0015295	2.3e-05
469.15	0.0015278	2.3e-05
472.15	0.0015379	2.31e-05
474.05	0.0015355	2.31e-05
476.95	0.0015465	2.33e-05
478.95	0.0015452	2.33e-05
481.85	0.0015568	2.34e-05
483.75	0.0015538	2.34e-05
486.65	0.0015637	2.35e-05
488.65	0.0015624	2.35e-05
491.55	0.0015727	2.37e-05
493.45	0.0015714	2.36e-05
496.35	0.0015774	2.38e-05
498.35	0.0015815	2.38e-05
500.25	0.0015865	2.39e-05
503.15	0.0015916	2.4e-05
505.15	0.0015946	2.4e-05
508.05	0.0016024	2.42e-05
510.95	0.0016088	2.42e-05
512.95	0.0016105	2.43e-05
515.85	0.0016191	2.44e-05
518.75	0.001623	2.44e-05
520.65	0.0016284	2.45e-05
523.55	0.0016336	2.46e-05
525.55	0.0016392	2.47e-05
527.45	0.0016437	2.48e-05
530.35	0.001649	2.49e-05
533.25	0.0016572	2.5e-05
535.25	0.0016593	2.5e-05
538.15	0.0016656	2.51e-05
541.05	0.0016746	2.53e-05
543.05	0.0016774	2.53e-05
545.95	0.0016851	2.54e-05
548.85	0.0016914	2.55e-05
550.75	0.001697	2.56e-05
553.65	0.0017037	2.57e-05
555.65	0.0017064	2.57e-05
558.55	0.0017138	2.59e-05
560.45	0.0017202	2.6e-05
563.45	0.0017297	2.61e-05
566.35	0.0017372	2.62e-05
568.25	0.0017415	2.63e-05

System: nonadecane; phases: Liquid, Gas
Property: Specific volume, m3/kg (Liquid); method: Pycnometric method
Temperature, K	Specific volume, m3/kg	uncertainty
305.45	0.0012995	1.95e-05
307.55	0.0013029	1.96e-05
309.55	0.0013038	1.96e-05
311.65	0.0013038	1.96e-05
313.65	0.0013068	1.96e-05
315.75	0.0013086	1.97e-05
317.75	0.0013105	1.97e-05
319.85	0.0013127	1.97e-05
321.95	0.0013162	1.98e-05
323.95	0.0013187	1.98e-05
326.05	0.0013219	1.98e-05
328.05	0.0013214	1.98e-05
330.15	0.0013239	1.99e-05
332.25	0.0013274	1.99e-05
334.25	0.001329	2e-05
336.35	0.0013306	2e-05
338.35	0.0013349	2.01e-05
340.45	0.0013367	2.01e-05
342.55	0.0013386	2.01e-05
344.55	0.0013381	2.01e-05
346.65	0.001344	2.02e-05
348.65	0.0013447	2.02e-05
350.75	0.0013456	2.02e-05
352.85	0.0013482	2.03e-05
354.85	0.0013527	2.03e-05
356.95	0.0013545	2.03e-05
358.95	0.0013566	2.04e-05
361.05	0.0013589	2.04e-05
363.15	0.0013621	2.05e-05
365.15	0.0013655	2.05e-05
367.25	0.0013676	2.05e-05
369.25	0.0013701	2.06e-05
371.35	0.0013726	2.06e-05
373.45	0.0013742	2.06e-05
375.45	0.001376	2.07e-05
377.55	0.0013794	2.07e-05
379.55	0.001382	2.08e-05
381.65	0.0013849	2.08e-05
383.75	0.0013886	2.09e-05
385.75	0.0013906	2.09e-05
387.85	0.0013936	2.09e-05
389.85	0.0013961	2.1e-05
391.95	0.0014009	2.11e-05
393.95	0.0014037	2.11e-05
396.05	0.0014053	2.11e-05
398.15	0.0014053	2.11e-05
400.15	0.0014103	2.12e-05
402.25	0.0014123	2.12e-05
404.25	0.0014151	2.13e-05
406.35	0.0014178	2.13e-05
408.45	0.0014219	2.14e-05
410.45	0.0014258	2.14e-05
412.55	0.0014286	2.15e-05
414.55	0.0014336	2.16e-05
416.65	0.0014361	2.16e-05
418.75	0.0014391	2.16e-05
420.75	0.0014391	2.16e-05
422.85	0.0014425	2.17e-05
424.85	0.0014471	2.18e-05
426.95	0.0014498	2.18e-05
429.05	0.0014519	2.18e-05
431.05	0.001456	2.19e-05
433.15	0.0014573	2.19e-05
435.15	0.0014614	2.2e-05
437.25	0.0014637	2.2e-05
439.35	0.0014658	2.2e-05
441.35	0.0014694	2.21e-05
443.45	0.0014747	2.22e-05
445.45	0.0014788	2.22e-05
447.55	0.0014811	2.23e-05
449.65	0.0014852	2.23e-05
451.65	0.0014847	2.23e-05
453.75	0.0014921	2.25e-05
455.75	0.0014948	2.25e-05
457.85	0.0014982	2.26e-05
459.95	0.0015035	2.26e-05
461.95	0.0015058	2.26e-05
464.05	0.0015078	2.27e-05
466.05	0.0015135	2.28e-05
468.15	0.0015142	2.28e-05
470.25	0.0015195	2.29e-05
472.25	0.0015229	2.29e-05
474.35	0.0015275	2.3e-05
476.35	0.0015297	2.3e-05
478.45	0.0015327	2.31e-05
480.45	0.0015359	2.31e-05
482.55	0.0015428	2.32e-05
484.65	0.0015457	2.33e-05
486.65	0.0015487	2.33e-05
488.75	0.0015489	2.33e-05
490.75	0.0015574	2.35e-05
492.85	0.0015599	2.35e-05
494.95	0.0015633	2.35e-05
496.95	0.0015658	2.36e-05
499.05	0.001569	2.36e-05
501.05	0.0015747	2.37e-05
503.15	0.0015784	2.38e-05
505.25	0.0015821	2.38e-05
507.25	0.0015862	2.39e-05
509.35	0.0015923	2.4e-05
511.35	0.0015942	2.4e-05
513.45	0.0015992	2.41e-05
515.55	0.0016038	2.42e-05
517.55	0.0016088	2.42e-05
519.65	0.001609	2.42e-05
521.65	0.0016154	2.44e-05
523.75	0.0016204	2.44e-05
525.85	0.0016248	2.45e-05
531.35	0.0016344	2.46e-05
533.25	0.0016389	2.47e-05
535.25	0.0016405	2.47e-05
537.15	0.001646	2.48e-05
539.15	0.0016485	2.48e-05
541.05	0.0016531	2.49e-05
543.05	0.0016588	2.5e-05
544.95	0.0016629	2.51e-05
546.85	0.001667	2.51e-05
548.85	0.0016698	2.52e-05
550.75	0.0016757	2.53e-05
552.75	0.0016796	2.53e-05
554.65	0.001683	2.54e-05
556.65	0.0016874	2.54e-05
558.55	0.0016922	2.55e-05
560.45	0.001697	2.56e-05
562.45	0.0017024	2.57e-05
564.35	0.0017068	2.57e-05
566.35	0.0017107	2.58e-05
568.25	0.0017168	2.59e-05
570.25	0.0017216	2.6e-05
572.15	0.001725	2.6e-05
574.05	0.0017317	2.62e-05
576.05	0.0017367	2.62e-05

System: heneicosane; phases: Liquid, Gas
Property: Specific volume, m3/kg (Liquid); method: Pycnometric method
Temperature, K	Specific volume, m3/kg	uncertainty
313.65	0.0012853	1.93e-05
315.75	0.0012827	1.93e-05
317.65	0.0012858	1.93e-05
319.65	0.0012884	1.93e-05
321.55	0.0012889	1.94e-05
323.55	0.001291	1.94e-05
325.45	0.0012938	1.94e-05
327.45	0.0012956	1.95e-05
329.35	0.0012987	1.95e-05
331.25	0.0013016	1.95e-05
333.25	0.0013016	1.95e-05
335.15	0.0013039	1.96e-05
337.15	0.001307	1.96e-05
339.05	0.0013093	1.97e-05
341.05	0.0013104	1.97e-05
342.95	0.0013127	1.97e-05
344.85	0.0013148	1.98e-05
346.85	0.0013174	1.98e-05
348.75	0.0013205	1.99e-05
350.75	0.0013236	1.99e-05
352.65	0.0013249	1.99e-05
354.65	0.0013287	2e-05
354.85	0.001329	2e-05
356.55	0.0013308	2e-05
358.45	0.0013331	2e-05
360.45	0.0013347	2.01e-05
362.35	0.0013373	2.01e-05
364.35	0.0013396	2.01e-05
366.25	0.0013425	2.02e-05
368.15	0.0013445	2.02e-05
370.15	0.0013489	2.03e-05
372.05	0.0013502	2.03e-05
374.05	0.0013536	2.03e-05
375.45	0.0013528	2.03e-05
375.95	0.0013536	2.04e-05
377.95	0.0013582	2.04e-05
379.85	0.0013611	2.05e-05
381.75	0.0013624	2.05e-05
383.75	0.0013658	2.05e-05
385.65	0.0013668	2.05e-05
387.65	0.0013686	2.06e-05
389.55	0.0013735	2.06e-05
391.55	0.0013733	2.06e-05
393.45	0.0013771	2.07e-05
395.35	0.0013795	2.07e-05
396.05	0.0013805	2.07e-05
397.35	0.0013808	2.08e-05
399.25	0.0013857	2.08e-05
401.25	0.0013839	2.08e-05
403.15	0.0013872	2.09e-05
405.15	0.0013922	2.09e-05
407.05	0.0013942	2.1e-05
408.95	0.0013963	2.1e-05
410.95	0.0014007	2.11e-05
412.85	0.0014015	2.11e-05
414.85	0.0014038	2.11e-05
416.65	0.0014077	2.12e-05
416.75	0.001409	2.12e-05
418.65	0.0014098	2.12e-05
420.65	0.0014108	2.12e-05
422.55	0.0014173	2.13e-05
424.55	0.0014186	2.13e-05
426.45	0.0014209	2.14e-05
428.45	0.0014232	2.14e-05
430.35	0.0014261	2.15e-05
432.25	0.0014323	2.15e-05
434.25	0.001432	2.15e-05
436.15	0.0014356	2.16e-05
437.25	0.0014367	2.16e-05
438.15	0.0014369	2.17e-05
440.05	0.0014434	2.17e-05
442.05	0.0014444	2.17e-05
443.95	0.0014483	2.18e-05
445.85	0.0014504	2.18e-05
447.85	0.0014543	2.19e-05
449.75	0.0014553	2.19e-05
451.75	0.0014576	2.19e-05
453.65	0.0014602	2.2e-05
455.65	0.0014644	2.2e-05
457.55	0.0014672	2.21e-05
457.85	0.0014682	2.22e-05
459.45	0.0014695	2.21e-05
461.45	0.0014711	2.21e-05
463.35	0.0014755	2.22e-05
465.35	0.0014789	2.23e-05
467.25	0.0014845	2.23e-05
469.15	0.0014853	2.23e-05
471.15	0.0014889	2.24e-05
473.05	0.0014915	2.24e-05
475.05	0.0014921	2.24e-05
476.95	0.0014975	2.25e-05
478.45	0.001498	2.25e-05
478.95	0.0015019	2.26e-05
480.85	0.0015032	2.26e-05
482.75	0.0015053	2.27e-05
484.75	0.0015112	2.28e-05
486.65	0.001513	2.28e-05
488.65	0.0015159	2.28e-05
488.75	0.0015166	2.28e-05
490.55	0.0015187	2.28e-05
492.55	0.0015213	2.29e-05
494.45	0.0015229	2.29e-05
496.35	0.0015296	2.3e-05
498.35	0.0015309	2.31e-05
500.25	0.0015373	2.31e-05
502.25	0.0015361	2.31e-05
504.15	0.0015425	2.32e-05
506.15	0.0015441	2.33e-05
508.05	0.00155	2.33e-05
509.95	0.0015508	2.33e-05
511.95	0.0015537	2.34e-05
513.85	0.0015586	2.35e-05
515.85	0.0015635	2.36e-05
517.75	0.0015671	2.36e-05
519.65	0.0015694	2.36e-05
521.65	0.0015749	2.37e-05
523.55	0.0015751	2.37e-05
525.55	0.0015819	2.39e-05
527.45	0.0015855	2.39e-05
529.45	0.0015878	2.39e-05
531.35	0.0015881	2.39e-05
533.25	0.0015964	2.41e-05
535.25	0.0015997	2.41e-05
537.15	0.0016028	2.41e-05
539.15	0.0016062	2.42e-05
541.05	0.0016124	2.43e-05
543.05	0.001614	2.43e-05
544.95	0.0016165	2.44e-05
546.85	0.0016212	2.45e-05
548.85	0.0016264	2.45e-05
550.75	0.0016264	2.45e-05
552.75	0.0016339	2.46e-05
554.65	0.0016354	2.46e-05
556.65	0.0016391	2.47e-05
558.55	0.0016435	2.48e-05
560.45	0.0016476	2.48e-05
562.45	0.0016504	2.49e-05
564.35	0.0016572	2.5e-05
566.35	0.0016592	2.5e-05

System: hexadecane; phases: Liquid, Gas
Property: Specific volume, m3/kg (Liquid); method: Pycnometric method
Temperature, K	Specific volume, m3/kg	uncertainty
298	0.0013134	1.97e-05
323	0.0013443	2.02e-05
348	0.0013765	2.07e-05
373	0.0014105	2.12e-05
398	0.0014469	2.18e-05
423	0.0014861	2.24e-05
448	0.0015287	2.3e-05
473	0.0015752	2.37e-05
498	0.0016262	2.45e-05
523	0.0016822	2.54e-05
548	0.0017437	2.63e-05
573	0.0018112	2.73e-05
