Measured thermophysical data. Pyridinium Based Ionic Liquids. n-Butyl-3-Methyl-Pyridinium  Dicyanoamide: Thermochemical Measurement and First-Principles  Calculations
Source: Thermochim. Acta, 2011, 10.1016/j.tca.2010.11.028
Compound 1: carbon dioxide, CO2, InChI=1S/CO2/c2-1-3
Compound 2: nitrogen, N2, InChI=1S/N2/c1-2
Compound 3: water, H2O, InChI=1S/H2O/h1H2
Compound 4: oxygen, O2, InChI=1S/O2/c1-2
Compound 5: 1-butyl-3-methylpyridinium dicyanamide, C12H16N4, InChI=1S/C10H16N.C2N3/c1-3-4-7-11-8-5-6-10(2)9-11;3-1-5-2-4/h5-6,8-9H,3-4,7H2,1-2H3;/q+1;-1, purity 98%

System: 1-butyl-3-methylpyridinium dicyanamide; phases: Liquid
Property: Molar heat capacity at constant pressure, J/K/mol (Liquid); method: Small sample (50 mg) DSC
Temperature, K	Pressure, kPa	Molar heat capacity at constant pressure, J/K/mol	uncertainty
298.15	101.325	367.68008	21.60661176

System: 1-butyl-3-methylpyridinium dicyanamide; phases: Liquid
Property: Mass density, kg/m3 (Liquid); method: Pycnometric method
Temperature, K	Pressure, kPa	Mass density, kg/m3	uncertainty
298.15	101.325	1056	2

Reaction: -1 1-butyl-3-methylpyridinium dicyanamide + 12 carbon dioxide + 2 nitrogen + 8 water + -16 oxygen
Property: Specific internal energy of reaction at constant volume, J/g
-33221.1
