Measured thermophysical data. Thermochemistry of Li, Na, K, Rb and Cs alkylated phenoxides
Source: Thermochim. Acta, 2005, 10.1016/j.tca.2005.02.027
Compound 1: 2-methylphenol, C7H8O, InChI=1S/C7H8O/c1-6-4-2-3-5-7(6)8/h2-5,8H,1H3
Compound 2: lithium hydroxide, HLiO, InChI=1S/Li.H2O/h;1H2/q+1;/p-1
Compound 3: water, H2O, InChI=1S/H2O/h1H2
Compound 4: 2,6-dimethylphenol, C8H10O, InChI=1S/C8H10O/c1-6-4-3-5-7(2)8(6)9/h3-5,9H,1-2H3
Compound 5: 2,4,6-trimethylphenol, C9H12O, InChI=1S/C9H12O/c1-6-4-7(2)9(10)8(3)5-6/h4-5,10H,1-3H3
Compound 6: sodium hydroxide, HNaO, InChI=1S/Na.H2O/h;1H2/q+1;/p-1
Compound 7: 2,6-di-tert-butylphenol, C14H22O, InChI=1S/C14H22O/c1-13(2,3)10-8-7-9-11(12(10)15)14(4,5)6/h7-9,15H,1-6H3
Compound 8: potassium hydroxide, HKO, InChI=1S/K.H2O/h;1H2/q+1;/p-1
Compound 9: rubidium hydroxide, HORb, InChI=1S/H2O.Rb/h1H2;/q;+1/p-1
Compound 10: cesium hydroxide (Cs(OH)), CsHO, InChI=1S/Cs.H2O/h;1H2/q+1;/p-1
Compound 11: lithium 2-methylphenolate, C7H7LiO, InChI=1S/C7H8O.Li/c1-6-4-2-3-5-7(6)8;/h2-5,8H,1H3;/q;+1/p-1
Compound 12: lithium 2,6-dimethylphenolate, C8H9LiO, InChI=1S/C8H10O.Li/c1-6-4-3-5-7(2)8(6)9;/h3-5,9H,1-2H3;/q;+1/p-1
Compound 13: lithium 2,4,6-trimethylphenolate, C9H11LiO, InChI=1S/C9H12O.Li/c1-6-4-7(2)9(10)8(3)5-6;/h4-5,10H,1-3H3;/q;+1/p-1
Compound 14: sodium 2-methylphenolate, C7H7NaO, InChI=1S/C7H8O.Na/c1-6-4-2-3-5-7(6)8;/h2-5,8H,1H3;/q;+1/p-1
Compound 15: sodium 2,6-dimethylphenolate, C8H9NaO, InChI=1S/C8H10O.Na/c1-6-4-3-5-7(2)8(6)9;/h3-5,9H,1-2H3;/q;+1/p-1
Compound 16: sodium 2,4,6-trimethylphenolate, C9H11NaO, InChI=1S/C9H12O.Na/c1-6-4-7(2)9(10)8(3)5-6;/h4-5,10H,1-3H3;/q;+1/p-1
Compound 17: sodium 2,6-di(tert-butyl)phenolate, C14H21NaO, InChI=1S/C14H22O.Na/c1-13(2,3)10-8-7-9-11(12(10)15)14(4,5)6;/h7-9,15H,1-6H3;/q;+1/p-1
Compound 18: potassium 2-methylphenolate, C7H7KO, InChI=1S/C7H8O.K/c1-6-4-2-3-5-7(6)8;/h2-5,8H,1H3;/q;+1/p-1
Compound 19: potassium 2,6-dimethylphenolate, C8H9KO, InChI=1S/C8H10O.K/c1-6-4-3-5-7(2)8(6)9;/h3-5,9H,1-2H3;/q;+1/p-1
Compound 20: rubidium 2-methylphenolate, C7H7ORb, InChI=1S/C7H8O.Rb/c1-6-4-2-3-5-7(6)8;/h2-5,8H,1H3;/q;+1/p-1
Compound 21: cesium 2-methylphenolate, C7H7CsO, InChI=1S/C7H8O.Cs/c1-6-4-2-3-5-7(6)8;/h2-5,8H,1H3;/q;+1/p-1
Compound 22: cesium 2,6-dimethylphenolate, C8H9CsO, InChI=1S/C8H10O.Cs/c1-6-4-3-5-7(2)8(6)9;/h3-5,9H,1-2H3;/q;+1/p-1
Compound 23: rubidium 2,6-dimethylphenolate, C8H9ORb, InChI=1S/C8H10O.Rb/c1-6-4-3-5-7(2)8(6)9;/h3-5,9H,1-2H3;/q;+1/p-1

Reaction: 1 2-methylphenol + 1 lithium hydroxide + -1 lithium 2-methylphenolate + -1 water
Property: Molar enthalpy of reaction, kJ/mol
-5.3

Reaction: 1 2,6-dimethylphenol + 1 lithium hydroxide + -1 lithium 2,6-dimethylphenolate + -1 water
Property: Molar enthalpy of reaction, kJ/mol
-13.1

Reaction: 1 2,4,6-trimethylphenol + 1 lithium hydroxide + -1 lithium 2,4,6-trimethylphenolate + -1 water
Property: Molar enthalpy of reaction, kJ/mol
-11.8

Reaction: 1 2-methylphenol + 1 sodium hydroxide + -1 sodium 2-methylphenolate + -1 water
Property: Molar enthalpy of reaction, kJ/mol
2.2

Reaction: 1 2,6-dimethylphenol + 1 sodium hydroxide + -1 sodium 2,6-dimethylphenolate + -1 water
Property: Molar enthalpy of reaction, kJ/mol
22.4

Reaction: 1 2,4,6-trimethylphenol + 1 sodium hydroxide + -1 sodium 2,4,6-trimethylphenolate + -1 water
Property: Molar enthalpy of reaction, kJ/mol
12.6

Reaction: 1 2,6-di-tert-butylphenol + 1 sodium hydroxide + -1 sodium 2,6-di(tert-butyl)phenolate + -1 water
Property: Molar enthalpy of reaction, kJ/mol
-13.2

Reaction: 1 2-methylphenol + 1 potassium hydroxide + -1 potassium 2-methylphenolate + -1 water
Property: Molar enthalpy of reaction, kJ/mol
24.3

Reaction: 1 2,6-dimethylphenol + 1 potassium hydroxide + -1 potassium 2,6-dimethylphenolate + -1 water
Property: Molar enthalpy of reaction, kJ/mol
22.8

Reaction: 1 2-methylphenol + 1 rubidium hydroxide + -1 rubidium 2-methylphenolate + -1 water
Property: Molar enthalpy of reaction, kJ/mol
31.8

Reaction: 1 2-methylphenol + 1 cesium hydroxide (Cs(OH)) + -1 cesium 2-methylphenolate + -1 water
Property: Molar enthalpy of reaction, kJ/mol
51

Reaction: 1 2,6-dimethylphenol + 1 cesium hydroxide (Cs(OH)) + -1 cesium 2,6-dimethylphenolate + -1 water
Property: Molar enthalpy of reaction, kJ/mol
44.8

Reaction: 1 2,6-dimethylphenol + 1 rubidium hydroxide + -1 rubidium 2,6-dimethylphenolate + -1 water
Property: Molar enthalpy of reaction, kJ/mol
33.8
