Measured thermophysical data. Thermodynamic investigation of several natural polyols (I): Heat capacities and thermodynamic properties of xylitol
Source: Thermochim. Acta, 2007, 10.1016/j.tca.2007.02.022
Compound 1: carbon dioxide, CO2, InChI=1S/CO2/c2-1-3
Compound 2: water, H2O, InChI=1S/H2O/h1H2
Compound 3: oxygen, O2, InChI=1S/O2/c1-2
Compound 4: xylitol, C5H12O5, InChI=1S/C5H12O5/c6-1-3(8)5(10)4(9)2-7/h3-10H,1-2H2/t3-,4+,5+, purity 99%

System: xylitol; phases: Crystal, Liquid, Gas
Property: Molar enthalpy of transition or fusion, kJ/mol (Crystal); method: DSC:UFactor:10
Molar enthalpy of transition or fusion, kJ/mol	uncertainty
33.68	7.3

System: xylitol; phases: Crystal, Liquid, Gas
Property: Molar enthalpy of transition or fusion, kJ/mol (Crystal); method: ADIACA:UFactor:10
Molar enthalpy of transition or fusion, kJ/mol	uncertainty
33.26	0.42

System: xylitol; phases: Crystal, Liquid, Gas
Property: Triple point temperature, K (Crystal); method: DTA:corrimp:UFactor:10
Triple point temperature, K	uncertainty
367.52	5

System: xylitol; phases: Crystal, Liquid, Gas
Property: Triple point temperature, K (Crystal); method: ADIACA:UFactor:10
Triple point temperature, K	uncertainty
369.06	0.5

System: xylitol; phases: Crystal
Fixed: Pressure, kPa = 101.325
Property: Molar heat capacity at constant pressure, J/K/mol (Crystal); method: VADIAC:UFactor:10
Temperature, K	Molar heat capacity at constant pressure, J/K/mol	uncertainty
80.07	62.71	1.65
83.61	65.01	1.7
86.53	67.25	1.75
89.49	69.29	1.79
92.49	71.54	2.72
95.54	73.71	2.74
98.51	75.94	2.76
101.4	78.2	2.78
104.34	80.53	2.81
107.35	82.78	2.83
110.28	84.97	2.85
113.27	87.33	2.87
116.32	89.39	2.89
119.31	91.73	2.92
122.25	93.79	2.94
125.24	96.15	2.96
128.3	98.38	2.98
131.31	100.5	3
134.27	102.7	3
137.29	104.8	3
140.38	106.6	3.1
143.41	109	3.1
146.39	111.2	3.1
149.42	113.3	3.1
152.51	115.5	3.2
155.56	117.7	3.2
158.57	119.8	3.2
161.56	121.9	3.2
164.6	123.9	3.2
167.69	126	3.3
170.76	129.7	3.3
173.84	132.3	3.3
176.88	134	3.3
179.99	136	3.4
183.16	138	3.4
186.3	140.4	3.4
192.5	144.2	3.4
195.64	146.3	3.5
198.85	148.5	3.5
202.03	150.3	3.5
205.18	152.4	3.5
208.33	155.1	3.6
211.45	157.1	3.6
214.63	159.5	3.6
217.88	161.4	3.6
221.1	163.8	3.6
224.3	165.8	3.7
227.46	168.2	3.7
230.62	170.6	3.7
233.78	172.5	3.7
236.94	174	3.7
240.13	176.1	3.8
243.21	178.2	3.8
246.34	180.8	3.8
249.48	182.2	3.8
252.61	184.3	3.8
255.78	186.3	3.9
258.93	188.6	3.9
262.07	191	3.9
265.19	193.2	3.9
268.29	195.2	4
271.44	197.5	4
274.65	199.6	4
277.84	201.9	4
281.02	204.7	4
284.19	207.3	4.1
287.39	210.2	4.1
290.63	212.7	4.1
293.83	215.1	4.2
297.06	217.8	4.2
300.4	220.6	4.2
303.7	223.9	4.2
310.42	229.1	4.3
314.19	232.7	4.3
318.33	237.1	4.4
322.65	240.3	4.4
326.89	244.7	4.4
331.21	251.3	4.5
335.57	258.1	4.6
339.95	261.8	4.6
344.29	261.9	4.6
348.52	262.4	4.6
352.73	271.3	4.7
356.88	286.2	4.9
360.92	323.9	5.2

System: xylitol; phases: Liquid
Fixed: Pressure, kPa = 101.325
Property: Molar heat capacity at constant pressure, J/K/mol (Liquid); method: VADIAC:UFactor:10
Temperature, K	Molar heat capacity at constant pressure, J/K/mol	uncertainty
372.89	422	6.2
376.72	424.4	6.2
380.91	427	6.3
385.11	428.8	6.3

System: xylitol; phases: Crystal
Fixed: Pressure, kPa = 101.325
Property: Molar heat capacity at constant pressure, J/K/mol (Crystal); method: VADIAC:UFactor:10
Temperature, K	Molar heat capacity at constant pressure, J/K/mol	uncertainty
80	63.67	1.67
85	66.43	1.73
90	69.62	2.7
95	73.13	2.73
100	76.86	2.77
105	80.73	2.81
110	84.68	2.85
115	88.65	2.89
120	92.61	2.93
125	96.54	2.97
130	100.4	3
135	104.2	3
140	108	3.1
145	111.7	3.1
150	115.3	3.2
155	118.9	3.2
160	122.4	3.2
165	126	3.3
170	129.5	3.3
175	133	3.3
180	136.6	3.4
185	140.1	3.4
190	143.7	3.4
195	147.3	3.5
200	151	3.5
205	154.7	3.5
210	158.4	3.6
215	162.1	3.6
220	165.9	3.7
225	169.6	3.7
230	173.4	3.7
235	177.1	3.8
240	180.8	3.8
245	184.4	3.8
250	188	3.9
255	191.5	3.9
260	195	4
265	198.3	4
270	201.6	4
275	204.8	4
280	208	4.1
285	211.1	4.1
290	214.2	4.1
295	217.4	4.2
298.15	219.4	4.2
300	220.7	4.2
305	224.2	4.2
310	227.9	4.3
315	232.1	4.3
320	236.9	4.4
325	242.4	4.4
330	248.8	4.5
335	256.3	4.6
340	265.3	4.7
345	275.9	4.8
350	288.6	4.9
355	303.6	5
360	321.5	5.2

System: xylitol; phases: Liquid
Fixed: Pressure, kPa = 101.325
Property: Molar heat capacity at constant pressure, J/K/mol (Liquid); method: VADIAC:UFactor:10
Temperature, K	Molar heat capacity at constant pressure, J/K/mol	uncertainty
370	420.6	6.2
375	423.4	6.2
380	426.2	6.3
385	429	6.3
390	431.8	6.3

Reaction: -1 xylitol + 5 carbon dioxide + 6 water + -5.5 oxygen
Property: Molar internal energy of reaction at constant volume, kJ/mol
-2463.2
