Measured thermophysical data. Phase equilibria and thermodynamics of the Bi Cu In ternary system
Source: Thermochim. Acta, 2010, 10.1016/j.tca.2009.09.004
Compound 1: bismuth, Bi, InChI=1S/Bi, purity 99.99%
Compound 2: copper, Cu, InChI=1S/Cu, purity 99.99%
Compound 3: indium, In, InChI=1S/In, purity 99.99%

System: copper + bismuth + indium; phases: Liquid, Crystal
Fixed: Pressure, kPa = 101
Property: Solid-liquid equilibrium temperature, K (Liquid); method: DTA
Mole fraction of copper	Mole fraction of bismuth	Solid-liquid equilibrium temperature, K	uncertainty
0.05	0.05	380	1
0.0667	0.8	489	1
0.1	0.5	545	1
0.1333	0.6	546	1
0.15	0.15	550	1
0.15	0.5	570	1
0.2	0.4	576	1
0.2	0.5	599	1
0.25	0.25	618	1
0.2667	0.2	586	1
0.3	0.5	587	1
0.35	0.35	651	1
0.4	0.5	742	1
0.45	0.45	741	1
