Measured thermophysical data. Solute-solvent interactions of glycine, L-alanine, and L-valine in aqueous 1-methyl-3-octylimidazolium chloride ionic liquid solutions in the temperature interval (288.15 - 308.15) K
Source: Thermochim. Acta, 2014, 10.1016/j.tca.2014.06.028
Compound 1: 1-methyl-3-octylimidazolium chloride, C12H23ClN2, InChI=1S/C12H23N2.ClH/c1-3-4-5-6-7-8-9-14-11-10-13(2)12-14;/h10-12H,3-9H2,1-2H3;1H/q+1;/p-1, purity 97%
Compound 2: 2-aminoacetic acid, C2H5NO2, InChI=1S/C2H5NO2/c3-1-2(4)5/h1,3H2,(H,4,5), purity 99%
Compound 3: (S)-2-aminopropanoic acid, C3H7NO2, InChI=1S/C3H7NO2/c1-2(4)3(5)6/h2H,4H2,1H3,(H,5,6)/t2-/m0/s1, purity 99%
Compound 4: L-valine, C5H11NO2, InChI=1S/C5H11NO2/c1-3(2)4(6)5(7)8/h3-4H,6H2,1-2H3,(H,7,8)/t4-/m0/s1, purity 99%
Compound 5: water, H2O, InChI=1S/H2O/h1H2

System: water; phases: Liquid
Fixed: Pressure, kPa = 101
Property: Mass density, kg/m3 (Liquid); method: Vibrating tube method
Temperature, K	Mass density, kg/m3	uncertainty
288.15	999.11	0.421
293.15	998.211	0.421
298.15	997.047	0.42
303.15	995.656	0.42
308.15	994.039	0.419

System: water; phases: Liquid
Fixed: Pressure, kPa = 101
Fixed: Frequency, MHz = 3
Property: Speed of sound, m/s (Liquid); method: Sing-around technique in a fixed-path interferometer
Temperature, K	Speed of sound, m/s	uncertainty
288.15	1463.12	1.84
293.15	1481.14	1.85
298.15	1495.85	1.85
303.15	1508.84	1.85
308.15	1519.14	1.85

System: 2-aminoacetic acid + water + 1-methyl-3-octylimidazolium chloride; phases: Liquid
Fixed: Pressure, kPa = 101
Property: Mass density, kg/m3 (Liquid); method: Vibrating tube method
Temperature, K	Molality, mol/kg of 2-aminoacetic acid	Solvent: Molality, mol/kg of 1-methyl-3-octylimidazolium chloride	Mass density, kg/m3	uncertainty
288.15	0	0	999.11	0.421
288.15	0.02249	0	999.86	0.421
288.15	0.04798	0	1000.707	0.422
288.15	0.11242	0	1002.839	0.425
288.15	0.20215	0	1005.783	0.428
288.15	0.30145	0	1009.013	0.432
288.15	0.41338	0	1012.613	0.436
288.15	0.49167	0	1015.105	0.439
288.15	0.59779	0	1018.458	0.443
288.15	0.69326	0	1021.45	0.447
288.15	0.79965	0	1024.739	0.451
293.15	0	0	998.211	0.421
293.15	0.02249	0	998.956	0.421
293.15	0.04798	0	999.797	0.421
293.15	0.11242	0	1001.915	0.424
293.15	0.20215	0	1004.841	0.427
293.15	0.30145	0	1008.049	0.431
293.15	0.41338	0	1011.628	0.435
293.15	0.49167	0	1014.101	0.438
293.15	0.59779	0	1017.431	0.442
293.15	0.69326	0	1020.391	0.445
293.15	0.79965	0	1023.659	0.449
298.15	0	0	997.047	0.42
298.15	0.02249	0	997.788	0.421
298.15	0.04798	0	998.626	0.421
298.15	0.11242	0	1000.733	0.422
298.15	0.20215	0	1003.643	0.426
298.15	0.30145	0	1006.833	0.429
298.15	0.41338	0	1010.388	0.434
298.15	0.49167	0	1012.85	0.437
298.15	0.59779	0	1016.161	0.44
298.15	0.69326	0	1019.102	0.444
298.15	0.79965	0	1022.353	0.448
303.15	0	0	995.656	0.42
303.15	0.02249	0	996.393	0.42
303.15	0.04798	0	997.226	0.42
303.15	0.11242	0	999.321	0.421
303.15	0.20215	0	1002.216	0.424
303.15	0.30145	0	1005.388	0.428
303.15	0.41338	0	1008.928	0.432
303.15	0.49167	0	1011.377	0.435
303.15	0.59779	0	1014.67	0.439
303.15	0.69326	0	1017.602	0.442
303.15	0.79965	0	1020.838	0.446
308.15	0	0	994.039	0.419
308.15	0.02249	0	994.771	0.419
308.15	0.04798	0	995.599	0.42
308.15	0.11242	0	997.681	0.421
308.15	0.20215	0	1000.558	0.422
308.15	0.30145	0	1003.71	0.426
308.15	0.41338	0	1007.23	0.43
308.15	0.49167	0	1009.663	0.433
308.15	0.59779	0	1012.938	0.437
308.15	0.69326	0	1015.847	0.44
308.15	0.79965	0	1019.06	0.444
288.15	0.07431	0.1031	1004.27	0.426
288.15	0.12979	0.1031	1005.693	0.428
288.15	0.28428	0.1031	1009.981	0.433
288.15	0.36894	0.1031	1012.512	0.436
288.15	0.47307	0.1031	1015.809	0.44
288.15	0.57254	0.1031	1019.139	0.444
288.15	0.64323	0.1031	1021.611	0.447
288.15	0.77509	0.1031	1026.452	0.453
288.15	0.85819	0.1031	1029.619	0.456
293.15	0.07431	0.1031	1003.261	0.425
293.15	0.12979	0.1031	1004.639	0.427
293.15	0.28428	0.1031	1008.811	0.432
293.15	0.36894	0.1031	1011.302	0.435
293.15	0.47307	0.1031	1014.501	0.439
293.15	0.57254	0.1031	1017.822	0.442
293.15	0.64323	0.1031	1020.261	0.445
293.15	0.77509	0.1031	1025.005	0.451
293.15	0.85819	0.1031	1028.102	0.455
298.15	0.07431	0.1031	1002.002	0.424
298.15	0.12979	0.1031	1003.345	0.425
298.15	0.28428	0.1031	1007.391	0.43
298.15	0.36894	0.1031	1009.802	0.433
298.15	0.47307	0.1031	1012.941	0.437
298.15	0.57254	0.1031	1016.192	0.441
298.15	0.64323	0.1031	1018.553	0.443
298.15	0.77509	0.1031	1023.291	0.449
298.15	0.85819	0.1031	1026.451	0.453
303.15	0.07431	0.1031	1000.54	0.422
303.15	0.12979	0.1031	1001.849	0.424
303.15	0.28428	0.1031	1005.841	0.428
303.15	0.36894	0.1031	1008.239	0.431
303.15	0.47307	0.1031	1011.341	0.435
303.15	0.57254	0.1031	1014.542	0.439
303.15	0.64323	0.1031	1016.903	0.441
303.15	0.77509	0.1031	1021.604	0.447
303.15	0.85819	0.1031	1024.661	0.451
308.15	0.07431	0.1031	998.869	0.421
308.15	0.12979	0.1031	1000.181	0.422
308.15	0.28428	0.1031	1004.152	0.426
308.15	0.36894	0.1031	1006.495	0.429
308.15	0.47307	0.1031	1009.605	0.433
308.15	0.57254	0.1031	1012.749	0.436
308.15	0.64323	0.1031	1015.081	0.439
308.15	0.77509	0.1031	1019.675	0.445
308.15	0.85819	0.1031	1022.702	0.448
288.15	0.07377	0.2975	1004.651	0.427
288.15	0.13279	0.2975	1006.575	0.429
288.15	0.26945	0.2975	1010.983	0.434
288.15	0.38034	0.2975	1014.507	0.439
288.15	0.46108	0.2975	1017.047	0.442
288.15	0.59216	0.2975	1021.122	0.446
288.15	0.6564	0.2975	1023.091	0.449
288.15	0.80843	0.2975	1027.703	0.454
288.15	0.85576	0.2975	1029.119	0.456
293.15	0.07377	0.2975	1003.35	0.425
293.15	0.13279	0.2975	1005.257	0.428
293.15	0.26945	0.2975	1009.622	0.433
293.15	0.38034	0.2975	1013.112	0.437
293.15	0.46108	0.2975	1015.62	0.44
293.15	0.59216	0.2975	1019.651	0.445
293.15	0.6564	0.2975	1021.602	0.447
293.15	0.80843	0.2975	1026.159	0.452
293.15	0.85576	0.2975	1027.565	0.454
298.15	0.07377	0.2975	1001.818	0.424
298.15	0.13279	0.2975	1003.707	0.426
298.15	0.26945	0.2975	1008.035	0.431
298.15	0.38034	0.2975	1011.495	0.435
298.15	0.46108	0.2975	1013.988	0.438
298.15	0.59216	0.2975	1017.985	0.443
298.15	0.6564	0.2975	1019.928	0.445
298.15	0.80843	0.2975	1024.468	0.45
298.15	0.85576	0.2975	1025.87	0.452
303.15	0.07377	0.2975	1000.085	0.422
303.15	0.13279	0.2975	1001.959	0.424
303.15	0.26945	0.2975	1006.254	0.429
303.15	0.38034	0.2975	1009.691	0.433
303.15	0.46108	0.2975	1012.165	0.436
303.15	0.59216	0.2975	1016.139	0.44
303.15	0.6564	0.2975	1018.065	0.443
303.15	0.80843	0.2975	1022.57	0.448
303.15	0.85576	0.2975	1023.955	0.45
308.15	0.07377	0.2975	998.158	0.421
308.15	0.13279	0.2975	1000.014	0.421
308.15	0.26945	0.2975	1004.272	0.426
308.15	0.38034	0.2975	1007.675	0.43
308.15	0.46108	0.2975	1010.134	0.433
308.15	0.59216	0.2975	1014.077	0.438
308.15	0.6564	0.2975	1015.988	0.44
308.15	0.80843	0.2975	1020.471	0.446
308.15	0.85576	0.2975	1021.85	0.447

System: 2-aminoacetic acid + water + 1-methyl-3-octylimidazolium chloride; phases: Liquid
Fixed: Pressure, kPa = 101
Fixed: Frequency, MHz = 3
Property: Speed of sound, m/s (Liquid); method: Sing-around technique in a fixed-path interferometer
Temperature, K	Molality, mol/kg of 2-aminoacetic acid	Solvent: Molality, mol/kg of 1-methyl-3-octylimidazolium chloride	Speed of sound, m/s	uncertainty
288.15	0	0	1463.12	1.84
288.15	0.02249	0	1467.75	1.84
288.15	0.04798	0	1469.06	1.84
288.15	0.11242	0	1473.13	1.84
288.15	0.20215	0	1477.62	1.85
288.15	0.30145	0	1483.26	1.85
288.15	0.41338	0	1489.23	1.85
288.15	0.49167	0	1493.24	1.85
288.15	0.59779	0	1499.25	1.85
288.15	0.69326	0	1503.67	1.85
288.15	0.79965	0	1509.45	1.85
293.15	0	0	1481.14	1.85
293.15	0.02249	0	1483.55	1.85
293.15	0.04798	0	1484.8	1.85
293.15	0.11242	0	1489.13	1.85
293.15	0.20215	0	1493.18	1.85
293.15	0.30145	0	1498.92	1.85
293.15	0.41338	0	1504.33	1.85
293.15	0.49167	0	1508.54	1.85
293.15	0.59779	0	1514.39	1.85
293.15	0.69326	0	1518.5	1.85
293.15	0.79965	0	1524.22	1.85
298.15	0	0	1495.85	1.85
298.15	0.02249	0	1497.71	1.85
298.15	0.04798	0	1498.93	1.85
298.15	0.11242	0	1503.18	1.85
298.15	0.20215	0	1507.1	1.85
298.15	0.30145	0	1512.65	1.85
298.15	0.41338	0	1517.9	1.85
298.15	0.49167	0	1521.94	1.85
298.15	0.59779	0	1527.66	1.85
298.15	0.69326	0	1531.61	1.85
298.15	0.79965	0	1537.23	1.85
303.15	0	0	1508.84	1.85
303.15	0.02249	0	1510.07	1.85
303.15	0.04798	0	1511.25	1.85
303.15	0.11242	0	1515.36	1.85
303.15	0.20215	0	1519.19	1.85
303.15	0.30145	0	1524.52	1.85
303.15	0.41338	0	1529.64	1.85
303.15	0.49167	0	1533.57	1.85
303.15	0.59779	0	1539.16	1.85
303.15	0.69326	0	1542.92	1.85
303.15	0.79965	0	1548.46	1.85
308.15	0	0	1519.14	1.85
308.15	0.02249	0	1520.69	1.85
308.15	0.04798	0	1521.84	1.85
308.15	0.11242	0	1525.69	1.85
308.15	0.20215	0	1529.59	1.85
308.15	0.30145	0	1534.61	1.85
308.15	0.41338	0	1539.75	1.85
308.15	0.49167	0	1543.41	1.85
308.15	0.59779	0	1548.85	1.85
308.15	0.69326	0	1552.74	1.85
308.15	0.79965	0	1557.88	1.85
288.15	0.07431	0.1031	1494.58	1.85
288.15	0.12979	0.1031	1498.13	1.85
288.15	0.28428	0.1031	1506.49	1.85
288.15	0.36894	0.1031	1511.22	1.85
288.15	0.47307	0.1031	1516.8	1.85
288.15	0.57254	0.1031	1522.33	1.85
288.15	0.64323	0.1031	1526.12	1.85
288.15	0.77509	0.1031	1534.09	1.85
288.15	0.85819	0.1031	1538.43	1.85
293.15	0.07431	0.1031	1508.74	1.85
293.15	0.12979	0.1031	1512.13	1.85
293.15	0.28428	0.1031	1520.09	1.85
293.15	0.36894	0.1031	1524.78	1.85
293.15	0.47307	0.1031	1530.06	1.85
293.15	0.57254	0.1031	1535.55	1.85
293.15	0.64323	0.1031	1539.1	1.85
293.15	0.77509	0.1031	1546.92	1.85
293.15	0.85819	0.1031	1551.14	1.85
298.15	0.07431	0.1031	1521.07	1.85
298.15	0.12979	0.1031	1524.4	1.85
298.15	0.28428	0.1031	1532.05	1.85
298.15	0.36894	0.1031	1536.6	1.85
298.15	0.47307	0.1031	1541.75	1.85
298.15	0.57254	0.1031	1547.02	1.85
298.15	0.64323	0.1031	1550.48	1.85
298.15	0.77509	0.1031	1558.25	1.86
298.15	0.85819	0.1031	1562.14	1.86
303.15	0.07431	0.1031	1531.72	1.85
303.15	0.12979	0.1031	1534.84	1.85
303.15	0.28428	0.1031	1542.36	1.85
303.15	0.36894	0.1031	1546.72	1.85
303.15	0.47307	0.1031	1551.81	1.85
303.15	0.57254	0.1031	1557.07	1.85
303.15	0.64323	0.1031	1560.28	1.86
303.15	0.77509	0.1031	1567.78	1.86
303.15	0.85819	0.1031	1571.93	1.86
308.15	0.07431	0.1031	1540.76	1.85
308.15	0.12979	0.1031	1543.9	1.85
308.15	0.28428	0.1031	1551.13	1.85
308.15	0.36894	0.1031	1555.48	1.85
308.15	0.47307	0.1031	1560.14	1.86
308.15	0.57254	0.1031	1565.41	1.86
308.15	0.64323	0.1031	1568.59	1.86
308.15	0.77509	0.1031	1575.79	1.86
308.15	0.85819	0.1031	1579.72	1.86
288.15	0.07377	0.2975	1530.63	1.85
288.15	0.13279	0.2975	1533.42	1.85
288.15	0.26945	0.2975	1539.93	1.85
288.15	0.38034	0.2975	1545.59	1.85
288.15	0.46108	0.2975	1549.12	1.85
288.15	0.59216	0.2975	1552	2.54
288.15	0.6564	0.2975	1558.11	1.86
288.15	0.80843	0.2975	1566.15	1.86
288.15	0.85576	0.2975	1567.84	1.86
293.15	0.07377	0.2975	1540.66	1.85
293.15	0.13279	0.2975	1543.46	1.85
293.15	0.26945	0.2975	1549.71	1.85
293.15	0.38034	0.2975	1555.32	1.85
293.15	0.46108	0.2975	1558.65	1.85
293.15	0.59216	0.2975	1564.78	1.86
293.15	0.6564	0.2975	1567.59	1.86
293.15	0.80843	0.2975	1575.41	1.86
293.15	0.85576	0.2975	1576.96	1.86
298.15	0.07377	0.2975	1549.45	1.85
298.15	0.13279	0.2975	1552.18	1.85
298.15	0.26945	0.2975	1558.29	1.85
298.15	0.38034	0.2975	1563.79	1.86
298.15	0.46108	0.2975	1567.04	1.86
298.15	0.59216	0.2975	1573.04	1.86
298.15	0.6564	0.2975	1575.8	1.86
298.15	0.80843	0.2975	1583.43	1.86
298.15	0.85576	0.2975	1584.96	1.86
303.15	0.07377	0.2975	1556.99	1.85
303.15	0.13279	0.2975	1559.68	1.85
303.15	0.26945	0.2975	1565.67	1.86
303.15	0.38034	0.2975	1571.18	1.86
303.15	0.46108	0.2975	1574.23	1.86
303.15	0.59216	0.2975	1580.09	1.86
303.15	0.6564	0.2975	1582.83	1.86
303.15	0.80843	0.2975	1589.93	1.86
303.15	0.85576	0.2975	1591.75	1.86
308.15	0.07377	0.2975	1563.31	1.86
308.15	0.13279	0.2975	1566.01	1.86
308.15	0.26945	0.2975	1571.81	1.86
308.15	0.38034	0.2975	1577.44	1.86
308.15	0.46108	0.2975	1580.21	1.86
308.15	0.59216	0.2975	1586.4	1.86
308.15	0.6564	0.2975	1588.7	1.86
308.15	0.80843	0.2975	1595.74	1.86
308.15	0.85576	0.2975	1597.44	1.86

System: (S)-2-aminopropanoic acid + water + 1-methyl-3-octylimidazolium chloride; phases: Liquid
Fixed: Pressure, kPa = 101
Property: Mass density, kg/m3 (Liquid); method: Vibrating tube method
Temperature, K	Molality, mol/kg of (S)-2-aminopropanoic acid	Solvent: Molality, mol/kg of 1-methyl-3-octylimidazolium chloride	Mass density, kg/m3	uncertainty
288.15	0	0	999.11	0.421
288.15	0.01	0	999.428	0.421
288.15	0.05495	0	1000.854	0.422
288.15	0.10427	0	1002.409	0.424
288.15	0.19999	0	1005.398	0.428
288.15	0.28925	0	1008.15	0.431
288.15	0.40032	0	1011.532	0.435
288.15	0.50136	0	1014.566	0.439
288.15	0.59556	0	1017.355	0.442
288.15	0.69452	0	1020.248	0.445
288.15	0.79468	0	1023.139	0.449
293.15	0	0	998.211	0.421
293.15	0.01	0	998.527	0.421
293.15	0.05495	0	999.944	0.421
293.15	0.10427	0	1001.49	0.423
293.15	0.19999	0	1004.46	0.427
293.15	0.28925	0	1007.196	0.43
293.15	0.40032	0	1010.558	0.434
293.15	0.50136	0	1013.571	0.437
293.15	0.59556	0	1016.345	0.441
293.15	0.69452	0	1019.222	0.444
293.15	0.79468	0	1022.097	0.448
298.15	0	0	997.047	0.42
298.15	0.01	0	997.361	0.42
298.15	0.05495	0	998.77	0.421
298.15	0.10427	0	1000.306	0.422
298.15	0.19999	0	1003.258	0.425
298.15	0.28925	0	1005.975	0.428
298.15	0.40032	0	1009.312	0.432
298.15	0.50136	0	1012.305	0.436
298.15	0.59556	0	1015.06	0.439
298.15	0.69452	0	1017.919	0.443
298.15	0.79468	0	1020.772	0.446
303.15	0	0	995.656	0.42
303.15	0.01	0	995.969	0.42
303.15	0.05495	0	997.368	0.42
303.15	0.10427	0	998.894	0.421
303.15	0.19999	0	1001.824	0.424
303.15	0.28925	0	1004.524	0.427
303.15	0.40032	0	1007.84	0.431
303.15	0.50136	0	1010.815	0.434
303.15	0.59556	0	1013.551	0.437
303.15	0.69452	0	1016.389	0.441
303.15	0.79468	0	1019.221	0.444
308.15	0	0	994.039	0.419
308.15	0.01	0	994.35	0.419
308.15	0.05495	0	995.742	0.42
308.15	0.10427	0	997.259	0.42
308.15	0.19999	0	1000.174	0.422
308.15	0.28925	0	1002.86	0.425
308.15	0.40032	0	1006.158	0.429
308.15	0.50136	0	1009.114	0.432
308.15	0.59556	0	1011.836	0.435
308.15	0.69452	0	1014.655	0.439
308.15	0.79468	0	1017.474	0.442
288.15	0.06323	0.1031	1003.728	0.426
288.15	0.12733	0.1031	1005.11	0.427
288.15	0.25021	0.1031	1008.01	0.431
288.15	0.35453	0.1031	1010.71	0.434
288.15	0.42809	0.1031	1012.75	0.436
288.15	0.6025	0.1031	1018.05	0.443
288.15	0.62449	0.1031	1018.76	0.444
288.15	0.77181	0.1031	1023.8	0.45
288.15	0.84326	0.1031	1026.402	0.453
293.15	0.06323	0.1031	1002.729	0.425
293.15	0.12733	0.1031	1004.074	0.426
293.15	0.25021	0.1031	1006.899	0.43
293.15	0.35453	0.1031	1009.549	0.433
293.15	0.42809	0.1031	1011.59	0.435
293.15	0.6025	0.1031	1016.801	0.441
293.15	0.62449	0.1031	1017.52	0.442
293.15	0.77181	0.1031	1022.453	0.448
293.15	0.84326	0.1031	1024.99	0.451
298.15	0.06323	0.1031	1001.459	0.423
298.15	0.12733	0.1031	1002.73	0.425
298.15	0.25021	0.1031	1005.452	0.428
298.15	0.35453	0.1031	1008.02	0.431
298.15	0.42809	0.1031	1010.01	0.433
298.15	0.6025	0.1031	1015.16	0.439
298.15	0.62449	0.1031	1015.84	0.44
298.15	0.77181	0.1031	1020.832	0.446
298.15	0.84326	0.1031	1023.31	0.449
303.15	0.06323	0.1031	999.991	0.421
303.15	0.12733	0.1031	1001.239	0.423
303.15	0.25021	0.1031	1003.903	0.426
303.15	0.35453	0.1031	1006.451	0.429
303.15	0.42809	0.1031	1008.402	0.431
303.15	0.6025	0.1031	1013.5	0.437
303.15	0.62449	0.1031	1014.23	0.438
303.15	0.77181	0.1031	1019.18	0.444
303.15	0.84326	0.1031	1021.74	0.447
308.15	0.06323	0.1031	998.309	0.421
308.15	0.12733	0.1031	999.521	0.421
308.15	0.25021	0.1031	1002.133	0.424
308.15	0.35453	0.1031	1004.652	0.427
308.15	0.42809	0.1031	1006.591	0.429
308.15	0.6025	0.1031	1011.67	0.435
308.15	0.62449	0.1031	1012.395	0.436
308.15	0.77181	0.1031	1017.345	0.442
308.15	0.84326	0.1031	1019.903	0.445
288.15	0.06621	0.2975	1004.216	0.426
288.15	0.12579	0.2975	1005.987	0.428
288.15	0.2415	0.2975	1009.371	0.432
288.15	0.36	0.2975	1012.759	0.436
288.15	0.4487	0.2975	1015.251	0.439
288.15	0.57531	0.2975	1018.739	0.444
288.15	0.64762	0.2975	1020.692	0.446
288.15	0.79452	0.2975	1024.591	0.45
288.15	0.94064	0.2975	1028.369	0.455
293.15	0.06621	0.2975	1002.929	0.425
293.15	0.12579	0.2975	1004.695	0.427
293.15	0.2415	0.2975	1008.071	0.431
293.15	0.36	0.2975	1011.459	0.435
293.15	0.4487	0.2975	1013.951	0.438
293.15	0.57531	0.2975	1017.429	0.442
293.15	0.64762	0.2975	1019.392	0.444
293.15	0.79452	0.2975	1023.303	0.449
293.15	0.94064	0.2975	1027.095	0.453
298.15	0.06621	0.2975	1001.389	0.423
298.15	0.12579	0.2975	1003.125	0.425
298.15	0.2415	0.2975	1006.439	0.429
298.15	0.36	0.2975	1009.768	0.433
298.15	0.4487	0.2975	1012.22	0.436
298.15	0.57531	0.2975	1015.641	0.44
298.15	0.64762	0.2975	1017.562	0.442
298.15	0.79452	0.2975	1021.403	0.447
298.15	0.94064	0.2975	1025.102	0.451
303.15	0.06621	0.2975	999.655	0.421
303.15	0.12579	0.2975	1001.371	0.423
303.15	0.2415	0.2975	1004.653	0.427
303.15	0.36	0.2975	1007.941	0.431
303.15	0.4487	0.2975	1010.362	0.434
303.15	0.57531	0.2975	1013.745	0.438
303.15	0.64762	0.2975	1015.64	0.44
303.15	0.79452	0.2975	1019.419	0.444
303.15	0.94064	0.2975	1023.069	0.449
308.15	0.06621	0.2975	997.716	0.421
308.15	0.12579	0.2975	999.401	0.421
308.15	0.2415	0.2975	1002.625	0.425
308.15	0.36	0.2975	1005.853	0.428
308.15	0.4487	0.2975	1008.22	0.431
308.15	0.57531	0.2975	1011.542	0.435
308.15	0.64762	0.2975	1013.402	0.437
308.15	0.79452	0.2975	1017.101	0.442
308.15	0.94064	0.2975	1020.681	0.446

System: (S)-2-aminopropanoic acid + water + 1-methyl-3-octylimidazolium chloride; phases: Liquid
Fixed: Pressure, kPa = 101
Fixed: Frequency, MHz = 3
Property: Speed of sound, m/s (Liquid); method: Sing-around technique in a fixed-path interferometer
Temperature, K	Molality, mol/kg of (S)-2-aminopropanoic acid	Solvent: Molality, mol/kg of 1-methyl-3-octylimidazolium chloride	Speed of sound, m/s	uncertainty
288.15	0	0	1463.12	1.84
288.15	0.01	0	1467.29	1.84
288.15	0.05495	0	1470.36	1.84
288.15	0.10427	0	1473.79	1.84
288.15	0.19999	0	1480.51	1.85
288.15	0.28925	0	1486.57	1.85
288.15	0.40032	0	1494.03	1.85
288.15	0.50136	0	1500.79	1.85
288.15	0.59556	0	1506.91	1.85
288.15	0.69452	0	1514	1.85
288.15	0.79468	0	1519.71	1.85
293.15	0	0	1481.14	1.85
293.15	0.01	0	1483.24	1.85
293.15	0.05495	0	1486.39	1.85
293.15	0.10427	0	1489.4	1.85
293.15	0.19999	0	1496.21	1.85
293.15	0.28925	0	1501.9	1.85
293.15	0.40032	0	1509.19	1.85
293.15	0.50136	0	1515.65	1.85
293.15	0.59556	0	1521.25	1.85
293.15	0.69452	0	1528.19	1.85
293.15	0.79468	0	1533.85	1.85
298.15	0	0	1495.85	1.85
298.15	0.01	0	1497.39	1.85
298.15	0.05495	0	1500.56	1.85
298.15	0.10427	0	1503.38	1.85
298.15	0.19999	0	1510.06	1.85
298.15	0.28925	0	1515.39	1.85
298.15	0.40032	0	1522.45	1.85
298.15	0.50136	0	1528.69	1.85
298.15	0.59556	0	1534.06	1.85
298.15	0.69452	0	1540.78	1.85
298.15	0.79468	0	1546.25	1.85
303.15	0	0	1508.84	1.85
303.15	0.01	0	1509.72	1.85
303.15	0.05495	0	1512.78	1.85
303.15	0.10427	0	1515.53	1.85
303.15	0.19999	0	1521.97	1.85
303.15	0.28925	0	1527.11	1.85
303.15	0.40032	0	1533.98	1.85
303.15	0.50136	0	1539.98	1.85
303.15	0.59556	0	1545.18	1.85
303.15	0.69452	0	1551.68	1.85
303.15	0.79468	0	1556.88	1.85
308.15	0	0	1519.14	1.85
308.15	0.01	0	1520.35	1.85
308.15	0.05495	0	1523.13	1.85
308.15	0.10427	0	1525.98	1.85
308.15	0.19999	0	1531.99	1.85
308.15	0.28925	0	1537.18	1.85
308.15	0.40032	0	1543.67	1.85
308.15	0.50136	0	1549.5	1.85
308.15	0.59556	0	1554.68	1.85
308.15	0.69452	0	1560.99	1.86
308.15	0.79468	0	1565.84	1.86
288.15	0.06323	0.1031	1495.38	1.85
288.15	0.12733	0.1031	1499.56	1.85
288.15	0.25021	0.1031	1508.57	1.85
288.15	0.35453	0.1031	1515.27	1.85
288.15	0.42809	0.1031	1520.7	1.85
288.15	0.6025	0.1031	1532.9	1.85
288.15	0.62449	0.1031	1534.32	1.85
288.15	0.77181	0.1031	1545.92	1.85
288.15	0.84326	0.1031	1550.04	1.85
293.15	0.06323	0.1031	1509.52	1.85
293.15	0.12733	0.1031	1513.31	1.85
293.15	0.25021	0.1031	1522.17	1.85
293.15	0.35453	0.1031	1528.43	1.85
293.15	0.42809	0.1031	1533.82	1.85
293.15	0.6025	0.1031	1545.31	1.85
293.15	0.62449	0.1031	1546.93	1.85
293.15	0.77181	0.1031	1557.89	1.86
293.15	0.84326	0.1031	1562.04	1.86
298.15	0.06323	0.1031	1521.78	1.85
298.15	0.12733	0.1031	1525.44	1.85
298.15	0.25021	0.1031	1533.96	1.85
298.15	0.35453	0.1031	1540.01	1.85
298.15	0.42809	0.1031	1545.16	1.85
298.15	0.6025	0.1031	1556.25	1.85
298.15	0.62449	0.1031	1557.86	1.85
298.15	0.77181	0.1031	1568.38	1.86
298.15	0.84326	0.1031	1572.39	1.86
303.15	0.06323	0.1031	1532.28	1.85
303.15	0.12733	0.1031	1535.89	1.85
303.15	0.25021	0.1031	1543.99	1.85
303.15	0.35453	0.1031	1550.17	1.85
303.15	0.42809	0.1031	1554.87	1.85
303.15	0.6025	0.1031	1565.67	1.86
303.15	0.62449	0.1031	1567.07	1.86
303.15	0.77181	0.1031	1577.36	1.86
303.15	0.84326	0.1031	1581.54	1.86
308.15	0.06323	0.1031	1541.07	1.85
308.15	0.12733	0.1031	1544.77	1.85
308.15	0.25021	0.1031	1552.62	1.85
308.15	0.35453	0.1031	1558.47	1.85
308.15	0.42809	0.1031	1563.62	1.86
308.15	0.6025	0.1031	1573.54	1.86
308.15	0.62449	0.1031	1575.07	1.86
308.15	0.77181	0.1031	1584.78	1.86
308.15	0.84326	0.1031	1588.94	1.86
288.15	0.06621	0.2975	1531.16	1.85
288.15	0.12579	0.2975	1534.72	1.85
288.15	0.2415	0.2975	1542.03	1.85
288.15	0.36	0.2975	1549.36	1.85
288.15	0.4487	0.2975	1554.94	1.85
288.15	0.57531	0.2975	1562.72	1.86
288.15	0.64762	0.2975	1567.69	1.86
288.15	0.79452	0.2975	1576.14	1.86
288.15	0.94064	0.2975	1586.01	1.86
293.15	0.06621	0.2975	1541.25	1.85
293.15	0.12579	0.2975	1544.59	1.85
293.15	0.2415	0.2975	1551.72	1.85
293.15	0.36	0.2975	1558.72	1.85
293.15	0.4487	0.2975	1564.25	1.86
293.15	0.57531	0.2975	1571.79	1.86
293.15	0.64762	0.2975	1576.46	1.86
293.15	0.79452	0.2975	1584.75	1.86
293.15	0.94064	0.2975	1594.3	1.86
298.15	0.06621	0.2975	1550.02	1.85
298.15	0.12579	0.2975	1553.22	1.85
298.15	0.2415	0.2975	1560.16	1.86
298.15	0.36	0.2975	1566.93	1.86
298.15	0.4487	0.2975	1572.33	1.86
298.15	0.57531	0.2975	1579.62	1.86
298.15	0.64762	0.2975	1584.13	1.86
298.15	0.79452	0.2975	1592.53	1.86
298.15	0.94064	0.2975	1601.44	1.86
303.15	0.06621	0.2975	1557.51	1.85
303.15	0.12579	0.2975	1560.64	1.86
303.15	0.2415	0.2975	1567.5	1.86
303.15	0.36	0.2975	1573.95	1.86
303.15	0.4487	0.2975	1579.2	1.86
303.15	0.57531	0.2975	1586.13	1.86
303.15	0.64762	0.2975	1590.65	1.86
303.15	0.79452	0.2975	1598.32	1.86
303.15	0.94064	0.2975	1607.37	1.86
308.15	0.06621	0.2975	1564.09	1.86
308.15	0.12579	0.2975	1566.84	1.86
308.15	0.2415	0.2975	1573.87	1.86
308.15	0.36	0.2975	1579.77	1.86
308.15	0.4487	0.2975	1584.88	1.86
308.15	0.57531	0.2975	1591.98	1.86
308.15	0.64762	0.2975	1595.99	1.86
308.15	0.79452	0.2975	1604.46	1.86
308.15	0.94064	0.2975	1612.15	1.86

System: L-valine + water + 1-methyl-3-octylimidazolium chloride; phases: Liquid
Fixed: Pressure, kPa = 101
Property: Mass density, kg/m3 (Liquid); method: Vibrating tube method
Temperature, K	Molality, mol/kg of L-valine	Solvent: Molality, mol/kg of 1-methyl-3-octylimidazolium chloride	Mass density, kg/m3	uncertainty
288.15	0	0	999.11	0.421
288.15	0.01042	0	999.409	0.421
288.15	0.01984	0	999.678	0.421
288.15	0.05003	0	1000.538	0.422
288.15	0.09952	0	1001.936	0.424
288.15	0.15024	0	1003.352	0.425
288.15	0.19938	0	1004.711	0.427
288.15	0.24957	0	1006.083	0.429
288.15	0.30345	0	1007.54	0.43
288.15	0.35682	0	1008.966	0.432
288.15	0.39612	0	1010.004	0.433
293.15	0	0	998.211	0.421
293.15	0.01042	0	998.508	0.421
293.15	0.01984	0	998.776	0.421
293.15	0.05003	0	999.631	0.421
293.15	0.09952	0	1001.023	0.423
293.15	0.15024	0	1002.432	0.424
293.15	0.19938	0	1003.784	0.426
293.15	0.24957	0	1005.148	0.427
293.15	0.30345	0	1006.599	0.429
293.15	0.35682	0	1008.019	0.431
293.15	0.39612	0	1009.052	0.432
298.15	0	0	997.047	0.42
298.15	0.01042	0	997.342	0.42
298.15	0.01984	0	997.609	0.42
298.15	0.05003	0	998.459	0.421
298.15	0.09952	0	999.842	0.421
298.15	0.15024	0	1001.243	0.423
298.15	0.19938	0	1002.586	0.424
298.15	0.24957	0	1003.942	0.426
298.15	0.30345	0	1005.383	0.428
298.15	0.35682	0	1006.794	0.429
298.15	0.39612	0	1007.819	0.431
303.15	0	0	995.656	0.42
303.15	0.01042	0	995.95	0.42
303.15	0.01984	0	996.215	0.42
303.15	0.05003	0	997.061	0.42
303.15	0.09952	0	998.437	0.421
303.15	0.15024	0	999.831	0.421
303.15	0.19938	0	1001.167	0.423
303.15	0.24957	0	1002.516	0.424
303.15	0.30345	0	1003.949	0.426
303.15	0.35682	0	1005.352	0.428
303.15	0.39612	0	1006.373	0.429
308.15	0	0	994.039	0.419
308.15	0.01042	0	994.331	0.419
308.15	0.01984	0	994.595	0.419
308.15	0.05003	0	995.436	0.42
308.15	0.09952	0	996.803	0.42
308.15	0.15024	0	998.19	0.421
308.15	0.19938	0	999.518	0.421
308.15	0.24957	0	1000.86	0.422
308.15	0.30345	0	1002.285	0.424
308.15	0.35682	0	1003.681	0.426
308.15	0.39612	0	1004.696	0.427
288.15	0.03849	0.1031	1002.443	0.424
288.15	0.06327	0.1031	1002.63	0.424
288.15	0.09183	0.1031	1003.005	0.425
288.15	0.11457	0.1031	1003.439	0.425
288.15	0.1602	0.1031	1004.649	0.427
288.15	0.254	0.1031	1008.595	0.432
288.15	0.34628	0.1031	1014.3	0.438
293.15	0.03849	0.1031	1001.401	0.423
293.15	0.06327	0.1031	1001.511	0.423
293.15	0.09183	0.1031	1001.829	0.424
293.15	0.11457	0.1031	1002.179	0.424
293.15	0.1602	0.1031	1003.295	0.425
293.15	0.254	0.1031	1007.101	0.43
293.15	0.34628	0.1031	1012.703	0.436
298.15	0.03849	0.1031	1000.078	0.422
298.15	0.06327	0.1031	1000.119	0.422
298.15	0.09183	0.1031	1000.343	0.422
298.15	0.11457	0.1031	1000.681	0.422
298.15	0.1602	0.1031	1001.709	0.423
298.15	0.254	0.1031	1005.302	0.428
298.15	0.34628	0.1031	1010.919	0.434
303.15	0.03849	0.1031	998.589	0.421
303.15	0.06327	0.1031	998.601	0.421
303.15	0.09183	0.1031	998.829	0.421
303.15	0.11457	0.1031	999.131	0.421
303.15	0.1602	0.1031	1000.148	0.422
303.15	0.254	0.1031	1003.86	0.426
303.15	0.34628	0.1031	1009.399	0.433
308.15	0.03849	0.1031	996.875	0.42
308.15	0.06327	0.1031	996.859	0.42
308.15	0.09183	0.1031	997.028	0.42
308.15	0.11457	0.1031	997.29	0.42
308.15	0.1602	0.1031	998.239	0.421
308.15	0.254	0.1031	1001.801	0.424
308.15	0.34628	0.1031	1007.302	0.43
288.15	0.04279	0.2975	1003.635	0.426
288.15	0.06855	0.2975	1004.436	0.427
288.15	0.08835	0.2975	1005.034	0.427
288.15	0.11357	0.2975	1005.76	0.428
288.15	0.18971	0.2975	1007.775	0.431
288.15	0.27151	0.2975	1009.635	0.433
288.15	0.34455	0.2975	1011.019	0.434
293.15	0.04279	0.2975	1002.339	0.424
293.15	0.06855	0.2975	1003.131	0.425
293.15	0.08835	0.2975	1003.718	0.426
293.15	0.11357	0.2975	1004.43	0.43
293.15	0.18971	0.2975	1006.409	0.429
293.15	0.27151	0.2975	1008.245	0.431
293.15	0.34455	0.2975	1009.602	0.433
298.15	0.04279	0.2975	1000.765	0.422
298.15	0.06855	0.2975	1001.519	0.423
298.15	0.08835	0.2975	1002.081	0.424
298.15	0.11357	0.2975	1002.765	0.425
298.15	0.18971	0.2975	1004.659	0.427
298.15	0.27151	0.2975	1006.411	0.429
298.15	0.34455	0.2975	1007.729	0.431
303.15	0.04279	0.2975	999.007	0.421
303.15	0.06855	0.2975	999.738	0.421
303.15	0.08835	0.2975	1000.281	0.422
303.15	0.11357	0.2975	1000.946	0.423
303.15	0.18971	0.2975	1002.77	0.42
303.15	0.27151	0.2975	1004.469	0.427
303.15	0.34455	0.2975	1005.72	0.428
308.15	0.04279	0.2975	997.048	0.42
308.15	0.06855	0.2975	997.748	0.421
308.15	0.08835	0.2975	998.269	0.421
308.15	0.11357	0.2975	998.901	0.421
308.15	0.18971	0.2975	1000.652	0.422
308.15	0.27151	0.2975	1002.263	0.424
308.15	0.34455	0.2975	1003.451	0.426

System: L-valine + water + 1-methyl-3-octylimidazolium chloride; phases: Liquid
Fixed: Pressure, kPa = 101
Fixed: Frequency, MHz = 3
Property: Speed of sound, m/s (Liquid); method: Sing-around technique in a fixed-path interferometer
Temperature, K	Molality, mol/kg of L-valine	Solvent: Molality, mol/kg of 1-methyl-3-octylimidazolium chloride	Speed of sound, m/s	uncertainty
288.15	0	0	1463.12	1.84
288.15	0.01042	0	1468.91	1.84
288.15	0.01984	0	1469.27	1.84
288.15	0.05003	0	1471.73	1.84
288.15	0.09952	0	1477.73	1.85
288.15	0.15024	0	1482.52	1.85
288.15	0.19938	0	1487.78	1.85
288.15	0.24957	0	1494.42	1.85
288.15	0.30345	0	1498.19	1.85
288.15	0.35682	0	1503.62	1.85
288.15	0.39612	0	1507.57	1.85
293.15	0	0	1481.14	1.85
293.15	0.01042	0	1485.06	1.85
293.15	0.01984	0	1485.08	1.85
293.15	0.05003	0	1487.69	1.85
293.15	0.09952	0	1493.11	1.85
293.15	0.15024	0	1497.96	1.85
293.15	0.19938	0	1502.57	1.85
293.15	0.24957	0	1509.38	1.85
293.15	0.30345	0	1512.57	1.85
293.15	0.35682	0	1518.06	1.85
293.15	0.39612	0	1521.82	1.85
298.15	0	0	1495.85	1.85
298.15	0.01042	0	1499.2	1.85
298.15	0.01984	0	1499.28	1.85
298.15	0.05003	0	1501.68	1.85
298.15	0.09952	0	1506.88	1.85
298.15	0.15024	0	1511.48	1.85
298.15	0.19938	0	1515.83	1.85
298.15	0.24957	0	1522.42	1.85
298.15	0.30345	0	1525.37	1.85
298.15	0.35682	0	1530.73	1.85
298.15	0.39612	0	1534.19	1.85
303.15	0	0	1508.84	1.85
303.15	0.01042	0	1511.54	1.85
303.15	0.01984	0	1511.61	1.85
303.15	0.05003	0	1513.79	1.85
303.15	0.09952	0	1518.85	1.85
303.15	0.15024	0	1523.14	1.85
303.15	0.19938	0	1527.39	1.85
303.15	0.24957	0	1533.68	1.85
303.15	0.30345	0	1536.45	1.85
303.15	0.35682	0	1541.58	1.85
303.15	0.39612	0	1544.84	1.85
308.15	0	0	1519.14	1.85
308.15	0.01042	0	1522.11	1.85
308.15	0.01984	0	1522.16	1.85
308.15	0.05003	0	1524.06	1.85
308.15	0.09952	0	1529.1	1.85
308.15	0.15024	0	1532.93	1.85
308.15	0.19938	0	1537.2	1.85
308.15	0.24957	0	1543.17	1.85
308.15	0.30345	0	1545.92	1.85
308.15	0.35682	0	1550.53	1.85
308.15	0.39612	0	1553.73	1.85
288.15	0.03849	0.1031	1497.89	1.85
288.15	0.06327	0.1031	1498.31	1.85
288.15	0.09183	0.1031	1502.03	1.85
288.15	0.11457	0.1031	1503.6	1.85
288.15	0.1602	0.1031	1511.21	1.85
288.15	0.254	0.1031	1517.7	1.85
288.15	0.34628	0.1031	1527.26	1.85
293.15	0.03849	0.1031	1511.83	1.85
293.15	0.06327	0.1031	1512.07	1.85
293.15	0.09183	0.1031	1515.61	1.85
293.15	0.11457	0.1031	1517.05	1.85
293.15	0.1602	0.1031	1524.34	1.85
293.15	0.254	0.1031	1530.47	1.85
293.15	0.34628	0.1031	1539.76	1.85
298.15	0.03849	0.1031	1523.9	1.85
298.15	0.06327	0.1031	1524.03	1.85
298.15	0.09183	0.1031	1527.53	1.85
298.15	0.11457	0.1031	1528.79	1.85
298.15	0.1602	0.1031	1535.76	1.85
298.15	0.254	0.1031	1541.67	1.85
298.15	0.34628	0.1031	1550.53	1.85
303.15	0.03849	0.1031	1534.18	1.85
303.15	0.06327	0.1031	1534.32	1.85
303.15	0.09183	0.1031	1537.79	1.85
303.15	0.11457	0.1031	1538.9	1.85
303.15	0.1602	0.1031	1545.48	1.85
303.15	0.254	0.1031	1551.25	1.85
303.15	0.34628	0.1031	1559.72	1.86
308.15	0.03849	0.1031	1542.83	1.85
308.15	0.06327	0.1031	1543.06	1.85
308.15	0.09183	0.1031	1546.46	1.85
308.15	0.11457	0.1031	1547.43	1.85
308.15	0.1602	0.1031	1553.46	1.85
308.15	0.254	0.1031	1559.29	1.85
308.15	0.34628	0.1031	1567.41	1.86
288.15	0.04279	0.2975	1533.84	1.85
288.15	0.06855	0.2975	1535.76	1.85
288.15	0.08835	0.2975	1538.03	1.85
288.15	0.11357	0.2975	1539.9	1.85
288.15	0.18971	0.2975	1549.12	1.85
288.15	0.27151	0.2975	1552.57	1.85
288.15	0.34455	0.2975	1559.02	1.85
293.15	0.04279	0.2975	1543.72	1.85
293.15	0.06855	0.2975	1545.25	1.85
293.15	0.08835	0.2975	1547.68	1.85
293.15	0.11357	0.2975	1549.16	1.85
293.15	0.18971	0.2975	1557.94	1.85
293.15	0.27151	0.2975	1561.47	1.86
293.15	0.34455	0.2975	1567.7	1.86
298.15	0.04279	0.2975	1552.26	1.85
298.15	0.06855	0.2975	1553.54	1.85
298.15	0.08835	0.2975	1554.24	1.85
298.15	0.11357	0.2975	1556.05	1.85
298.15	0.18971	0.2975	1565.84	1.86
298.15	0.27151	0.2975	1569.24	1.86
298.15	0.34455	0.2975	1575.23	1.86
303.15	0.04279	0.2975	1559.6	1.85
303.15	0.06855	0.2975	1560.57	1.86
303.15	0.08835	0.2975	1563.27	1.86
303.15	0.11357	0.2975	1564.1	1.86
303.15	0.18971	0.2975	1572.37	1.86
303.15	0.27151	0.2975	1575.92	1.86
303.15	0.34455	0.2975	1581.54	1.86
308.15	0.04279	0.2975	1565.87	1.86
308.15	0.06855	0.2975	1566.44	1.86
308.15	0.08835	0.2975	1569.07	1.86
308.15	0.11357	0.2975	1569.91	1.86
308.15	0.18971	0.2975	1577.79	1.86
308.15	0.27151	0.2975	1581.35	1.86
308.15	0.34455	0.2975	1586.71	1.86

System: 2-aminoacetic acid + water; phases: Liquid
Fixed: Pressure, kPa = 101
Property: Mass density, kg/m3 (Liquid); method: Vibrating tube method
Temperature, K	Molality, mol/kg of 2-aminoacetic acid	Mass density, kg/m3	uncertainty
288.15	0.02249	999.86	0.421
288.15	0.04798	1000.707	0.422
288.15	0.11242	1002.839	0.425
288.15	0.20215	1005.783	0.428
288.15	0.30145	1009.013	0.432
288.15	0.41338	1012.613	0.436
288.15	0.49167	1015.105	0.439
288.15	0.59779	1018.458	0.443
288.15	0.69326	1021.45	0.447
288.15	0.79965	1024.739	0.451
293.15	0.02249	998.956	0.421
293.15	0.04798	999.797	0.421
293.15	0.11242	1001.915	0.424
293.15	0.20215	1004.841	0.427
293.15	0.30145	1008.049	0.431
293.15	0.41338	1011.628	0.435
293.15	0.49167	1014.101	0.438
293.15	0.59779	1017.431	0.442
293.15	0.69326	1020.391	0.445
293.15	0.79965	1023.659	0.449
298.15	0.02249	997.788	0.421
298.15	0.04798	998.626	0.421
298.15	0.11242	1000.733	0.422
298.15	0.20215	1003.643	0.426
298.15	0.30145	1006.833	0.429
298.15	0.41338	1010.388	0.434
298.15	0.49167	1012.85	0.437
298.15	0.59779	1016.161	0.44
298.15	0.69326	1019.102	0.444
298.15	0.79965	1022.353	0.448
303.15	0.02249	996.393	0.42
303.15	0.04798	997.226	0.42
303.15	0.11242	999.321	0.421
303.15	0.20215	1002.216	0.424
303.15	0.30145	1005.388	0.428
303.15	0.41338	1008.928	0.432
303.15	0.49167	1011.377	0.435
303.15	0.59779	1014.67	0.439
303.15	0.69326	1017.602	0.442
303.15	0.79965	1020.838	0.446
308.15	0.02249	994.771	0.419
308.15	0.04798	995.599	0.42
308.15	0.11242	997.681	0.421
308.15	0.20215	1000.558	0.422
308.15	0.30145	1003.71	0.426
308.15	0.41338	1007.23	0.43
308.15	0.49167	1009.663	0.433
308.15	0.59779	1012.938	0.437
308.15	0.69326	1015.847	0.44
308.15	0.79965	1019.06	0.444

System: 2-aminoacetic acid + water; phases: Liquid
Fixed: Pressure, kPa = 101
Fixed: Frequency, MHz = 3
Property: Speed of sound, m/s (Liquid); method: Sing-around technique in a fixed-path interferometer
Temperature, K	Molality, mol/kg of 2-aminoacetic acid	Speed of sound, m/s	uncertainty
288.15	0.02249	1467.75	1.84
288.15	0.04798	1469.06	1.84
288.15	0.11242	1473.13	1.84
288.15	0.20215	1477.62	1.85
288.15	0.30145	1483.26	1.85
288.15	0.41338	1489.23	1.85
288.15	0.49167	1493.24	1.85
288.15	0.59779	1499.25	1.85
288.15	0.69326	1503.67	1.85
288.15	0.79965	1509.45	1.85
293.15	0.02249	1483.55	1.85
293.15	0.04798	1484.8	1.85
293.15	0.11242	1489.13	1.85
293.15	0.20215	1493.18	1.85
293.15	0.30145	1498.92	1.85
293.15	0.41338	1504.33	1.85
293.15	0.49167	1508.54	1.85
293.15	0.59779	1514.39	1.85
293.15	0.69326	1518.5	1.85
293.15	0.79965	1524.22	1.85
298.15	0.02249	1497.71	1.85
298.15	0.04798	1498.93	1.85
298.15	0.11242	1503.18	1.85
298.15	0.20215	1507.1	1.85
298.15	0.30145	1512.65	1.85
298.15	0.41338	1517.9	1.85
298.15	0.49167	1521.94	1.85
298.15	0.59779	1527.66	1.85
298.15	0.69326	1531.61	1.85
298.15	0.79965	1537.23	1.85
303.15	0.02249	1510.07	1.85
303.15	0.04798	1511.25	1.85
303.15	0.11242	1515.36	1.85
303.15	0.20215	1519.19	1.85
303.15	0.30145	1524.52	1.85
303.15	0.41338	1529.64	1.85
303.15	0.49167	1533.57	1.85
303.15	0.59779	1539.16	1.85
303.15	0.69326	1542.92	1.85
303.15	0.79965	1548.46	1.85
308.15	0.02249	1520.69	1.85
308.15	0.04798	1521.84	1.85
308.15	0.11242	1525.69	1.85
308.15	0.20215	1529.59	1.85
308.15	0.30145	1534.61	1.85
308.15	0.41338	1539.75	1.85
308.15	0.49167	1543.41	1.85
308.15	0.59779	1548.85	1.85
308.15	0.69326	1552.74	1.85
308.15	0.79965	1557.88	1.85

System: (S)-2-aminopropanoic acid + water; phases: Liquid
Fixed: Pressure, kPa = 101
Property: Mass density, kg/m3 (Liquid); method: Vibrating tube method
Temperature, K	Molality, mol/kg of (S)-2-aminopropanoic acid	Mass density, kg/m3	uncertainty
288.15	0.01	999.428	0.421
288.15	0.05495	1000.854	0.422
288.15	0.10427	1002.409	0.424
288.15	0.19999	1005.398	0.428
288.15	0.28925	1008.15	0.431
288.15	0.40032	1011.532	0.435
288.15	0.50136	1014.566	0.439
288.15	0.59556	1017.355	0.442
288.15	0.69452	1020.248	0.445
288.15	0.79468	1023.139	0.449
293.15	0.01	998.527	0.421
293.15	0.05495	999.944	0.421
293.15	0.10427	1001.49	0.423
293.15	0.19999	1004.46	0.427
293.15	0.28925	1007.196	0.43
293.15	0.40032	1010.558	0.434
293.15	0.50136	1013.571	0.437
293.15	0.59556	1016.345	0.441
293.15	0.69452	1019.222	0.444
293.15	0.79468	1022.097	0.448
298.15	0.01	997.361	0.42
298.15	0.05495	998.77	0.421
298.15	0.10427	1000.306	0.422
298.15	0.19999	1003.258	0.425
298.15	0.28925	1005.975	0.428
298.15	0.40032	1009.312	0.432
298.15	0.50136	1012.305	0.436
298.15	0.59556	1015.06	0.439
298.15	0.69452	1017.919	0.443
298.15	0.79468	1020.772	0.446
303.15	0.01	995.969	0.42
303.15	0.05495	997.368	0.42
303.15	0.10427	998.894	0.421
303.15	0.19999	1001.824	0.424
303.15	0.28925	1004.524	0.427
303.15	0.40032	1007.84	0.431
303.15	0.50136	1010.815	0.434
303.15	0.59556	1013.551	0.437
303.15	0.69452	1016.389	0.441
303.15	0.79468	1019.221	0.444
308.15	0.01	994.35	0.419
308.15	0.05495	995.742	0.42
308.15	0.10427	997.259	0.42
308.15	0.19999	1000.174	0.422
308.15	0.28925	1002.86	0.425
308.15	0.40032	1006.158	0.429
308.15	0.50136	1009.114	0.432
308.15	0.59556	1011.836	0.435
308.15	0.69452	1014.655	0.439
308.15	0.79468	1017.474	0.442

System: (S)-2-aminopropanoic acid + water; phases: Liquid
Fixed: Pressure, kPa = 101
Fixed: Frequency, MHz = 3
Property: Speed of sound, m/s (Liquid); method: Sing-around technique in a fixed-path interferometer
Temperature, K	Molality, mol/kg of (S)-2-aminopropanoic acid	Speed of sound, m/s	uncertainty
288.15	0.01	1467.29	1.84
288.15	0.05495	1470.36	1.84
288.15	0.10427	1473.79	1.84
288.15	0.19999	1480.51	1.85
288.15	0.28925	1486.57	1.85
288.15	0.40032	1494.03	1.85
288.15	0.50136	1500.79	1.85
288.15	0.59556	1506.91	1.85
288.15	0.69452	1514	1.85
288.15	0.79468	1519.71	1.85
293.15	0.01	1483.24	1.85
293.15	0.05495	1486.39	1.85
293.15	0.10427	1489.4	1.85
293.15	0.19999	1496.21	1.85
293.15	0.28925	1501.9	1.85
293.15	0.40032	1509.19	1.85
293.15	0.50136	1515.65	1.85
293.15	0.59556	1521.25	1.85
293.15	0.69452	1528.19	1.85
293.15	0.79468	1533.85	1.85
298.15	0.01	1497.39	1.85
298.15	0.05495	1500.56	1.85
298.15	0.10427	1503.38	1.85
298.15	0.19999	1510.06	1.85
298.15	0.28925	1515.39	1.85
298.15	0.40032	1522.45	1.85
298.15	0.50136	1528.69	1.85
298.15	0.59556	1534.06	1.85
298.15	0.69452	1540.78	1.85
298.15	0.79468	1546.25	1.85
303.15	0.01	1509.72	1.85
303.15	0.05495	1512.78	1.85
303.15	0.10427	1515.53	1.85
303.15	0.19999	1521.97	1.85
303.15	0.28925	1527.11	1.85
303.15	0.40032	1533.98	1.85
303.15	0.50136	1539.98	1.85
303.15	0.59556	1545.18	1.85
303.15	0.69452	1551.68	1.85
303.15	0.79468	1556.88	1.85
308.15	0.01	1520.35	1.85
308.15	0.05495	1523.13	1.85
308.15	0.10427	1525.98	1.85
308.15	0.19999	1531.99	1.85
308.15	0.28925	1537.18	1.85
308.15	0.40032	1543.67	1.85
308.15	0.50136	1549.5	1.85
308.15	0.59556	1554.68	1.85
308.15	0.69452	1560.99	1.86
308.15	0.79468	1565.84	1.86

System: L-valine + water; phases: Liquid
Fixed: Pressure, kPa = 101
Property: Mass density, kg/m3 (Liquid); method: Vibrating tube method
Temperature, K	Molality, mol/kg of L-valine	Mass density, kg/m3	uncertainty
288.15	0.01042	999.409	0.421
288.15	0.01984	999.678	0.421
288.15	0.05003	1000.538	0.422
288.15	0.09952	1001.936	0.424
288.15	0.15024	1003.352	0.425
288.15	0.19938	1004.711	0.427
288.15	0.24957	1006.083	0.429
288.15	0.30345	1007.54	0.43
288.15	0.35682	1008.966	0.432
288.15	0.39612	1010.004	0.433
293.15	0.01042	998.508	0.421
293.15	0.01984	998.776	0.421
293.15	0.05003	999.631	0.421
293.15	0.09952	1001.023	0.423
293.15	0.15024	1002.432	0.424
293.15	0.19938	1003.784	0.426
293.15	0.24957	1005.148	0.427
293.15	0.30345	1006.599	0.429
293.15	0.35682	1008.019	0.431
293.15	0.39612	1009.052	0.432
298.15	0.01042	997.342	0.42
298.15	0.01984	997.609	0.42
298.15	0.05003	998.459	0.421
298.15	0.09952	999.842	0.421
298.15	0.15024	1001.243	0.423
298.15	0.19938	1002.586	0.424
298.15	0.24957	1003.942	0.426
298.15	0.30345	1005.383	0.428
298.15	0.35682	1006.794	0.429
298.15	0.39612	1007.819	0.431
303.15	0.01042	995.95	0.42
303.15	0.01984	996.215	0.42
303.15	0.05003	997.061	0.42
303.15	0.09952	998.437	0.421
303.15	0.15024	999.831	0.421
303.15	0.19938	1001.167	0.423
303.15	0.24957	1002.516	0.424
303.15	0.30345	1003.949	0.426
303.15	0.35682	1005.352	0.428
303.15	0.39612	1006.373	0.429
308.15	0.01042	994.331	0.419
308.15	0.01984	994.595	0.419
308.15	0.05003	995.436	0.42
308.15	0.09952	996.803	0.42
308.15	0.15024	998.19	0.421
308.15	0.19938	999.518	0.421
308.15	0.24957	1000.86	0.422
308.15	0.30345	1002.285	0.424
308.15	0.35682	1003.681	0.426
308.15	0.39612	1004.696	0.427

System: L-valine + water; phases: Liquid
Fixed: Pressure, kPa = 101
Fixed: Frequency, MHz = 3
Property: Speed of sound, m/s (Liquid); method: Sing-around technique in a fixed-path interferometer
Temperature, K	Molality, mol/kg of L-valine	Speed of sound, m/s	uncertainty
288.15	0.01042	1468.91	1.84
288.15	0.01984	1469.27	1.84
288.15	0.05003	1471.73	1.84
288.15	0.09952	1477.73	1.85
288.15	0.15024	1482.52	1.85
288.15	0.19938	1487.78	1.85
288.15	0.24957	1494.42	1.85
288.15	0.30345	1498.19	1.85
288.15	0.35682	1503.62	1.85
288.15	0.39612	1507.57	1.85
293.15	0.01042	1485.06	1.85
293.15	0.01984	1485.08	1.85
293.15	0.05003	1487.69	1.85
293.15	0.09952	1493.11	1.85
293.15	0.15024	1497.96	1.85
293.15	0.19938	1502.57	1.85
293.15	0.24957	1509.38	1.85
293.15	0.30345	1512.57	1.85
293.15	0.35682	1518.06	1.85
293.15	0.39612	1521.82	1.85
298.15	0.01042	1499.2	1.85
298.15	0.01984	1499.28	1.85
298.15	0.05003	1501.68	1.85
298.15	0.09952	1506.88	1.85
298.15	0.15024	1511.48	1.85
298.15	0.19938	1515.83	1.85
298.15	0.24957	1522.42	1.85
298.15	0.30345	1525.37	1.85
298.15	0.35682	1530.73	1.85
298.15	0.39612	1534.19	1.85
303.15	0.01042	1511.54	1.85
303.15	0.01984	1511.61	1.85
303.15	0.05003	1513.79	1.85
303.15	0.09952	1518.85	1.85
303.15	0.15024	1523.14	1.85
303.15	0.19938	1527.39	1.85
303.15	0.24957	1533.68	1.85
303.15	0.30345	1536.45	1.85
303.15	0.35682	1541.58	1.85
303.15	0.39612	1544.84	1.85
308.15	0.01042	1522.11	1.85
308.15	0.01984	1522.16	1.85
308.15	0.05003	1524.06	1.85
308.15	0.09952	1529.1	1.85
308.15	0.15024	1532.93	1.85
308.15	0.19938	1537.2	1.85
308.15	0.24957	1543.17	1.85
308.15	0.30345	1545.92	1.85
308.15	0.35682	1550.53	1.85
308.15	0.39612	1553.73	1.85
