Measured thermophysical data. Heat Capacity Measurements on La6UO12, Sm6UO12 and Eu6UO12 using differential scanning calorimetry
Source: Thermochim. Acta, 2008, 10.1016/j.tca.2008.02.018
Compound 1: lanthanum uranium oxide, La6O12U, InChI=1S/6La.12O.U/q6*+3;12*-2;+6
Compound 2: samarium uranium oxide, O12Sm6U, InChI=1S/12O.6Sm.U/q12*-2;6*+3;+6
Compound 3: europium uranium oxide, Eu6O12U, InChI=1S/6Eu.12O.U/q6*+3;12*-2;+6

System: lanthanum uranium oxide; phases: Crystal
Fixed: Pressure, kPa = 101.325
Property: Molar heat capacity at constant pressure, J/K/mol (Crystal); method: Small sample (50 mg) DSC
Temperature, K	Molar heat capacity at constant pressure, J/K/mol	uncertainty
298	409	14
300	409	14
400	432	14
500	445	15
600	455	15
700	465	15
800	479	16

System: samarium uranium oxide; phases: Crystal
Fixed: Pressure, kPa = 101.325
Property: Molar heat capacity at constant pressure, J/K/mol (Crystal); method: Small sample (50 mg) DSC
Temperature, K	Molar heat capacity at constant pressure, J/K/mol	uncertainty
298	434	14
300	434	14
400	459	15
500	473	16
600	491	16
700	513	17
800	534	18

System: europium uranium oxide; phases: Crystal
Fixed: Pressure, kPa = 101.325
Property: Molar heat capacity at constant pressure, J/K/mol (Crystal); method: Small sample (50 mg) DSC
Temperature, K	Molar heat capacity at constant pressure, J/K/mol	uncertainty
298	456	15
300	457	15
400	488	16
500	498	17
600	512	17
700	521	17
800	529	18
