Measured thermophysical data. Effects of Concentration and Temperature on Interactions in (L-Alanine/ L-Threonine/ Glycylglycine + Aqueous Glucose / Aqueous Sucrose) Systems: Insights from Viscosity Measurements
Source: Thermochim. Acta, 2014, 10.1016/j.tca.2013.11.006
Compound 1: D-glucose, C6H12O6, InChI=1S/C6H12O6/c7-1-3(9)5(11)6(12)4(10)2-8/h1,3-6,8-12H,2H2/t3-,4+,5+,6+/m0/s1, purity 99%
Compound 2: (S)-2-aminopropanoic acid, C3H7NO2, InChI=1S/C3H7NO2/c1-2(4)3(5)6/h2H,4H2,1H3,(H,5,6)/t2-/m0/s1, purity 99%
Compound 3: water, H2O, InChI=1S/H2O/h1H2
Compound 4: D-sucrose, C12H22O11, InChI=1S/C12H22O11/c13-1-4-6(16)8(18)9(19)11(21-4)23-12(3-15)10(20)7(17)5(2-14)22-12/h4-11,13-20H,1-3H2/t4-,5-,6-,7-,8+,9-,10+,11-,12+/m1/s1, purity 99%
Compound 5: L-threonine, C4H9NO3, InChI=1S/C4H9NO3/c1-2(6)3(5)4(7)8/h2-3,6H,5H2,1H3,(H,7,8)/t2-,3+/m1/s1, purity 99%
Compound 6: glycylglycine, C4H8N2O3, InChI=1S/C4H8N2O3/c5-1-3(7)6-2-4(8)9/h1-2,5H2,(H,6,7)(H,8,9), purity 99%

System: D-glucose + (S)-2-aminopropanoic acid + water; phases: Liquid
Fixed: Pressure, kPa = 101
Fixed: Solvent: Molality, mol/kg of D-glucose = 1.13
Property: Viscosity, Pa*s (Liquid); method: Capillary tube (Ostwald; Ubbelohde) method
Temperature, K	Molality, mol/kg of (S)-2-aminopropanoic acid	Viscosity, Pa*s	uncertainty
298.15	0	0.001489	1.25e-05
298.15	0.19	0.0016687	1.39e-05
298.15	0.3852	0.0018216	1.51e-05
298.15	0.586	0.0019983	1.64e-05
298.15	0.7923	0.0021607	1.77e-05
298.15	1.0041	0.0023295	1.9e-05
298.15	1.2222	0.0024977	2.03e-05
298.15	1.4479	0.0026686	2.16e-05
303.15	0	0.0012777	1.09e-05
303.15	0.19	0.001434	1.21e-05
303.15	0.3852	0.0015633	1.31e-05
303.15	0.586	0.0016973	1.41e-05
303.15	0.7923	0.0018277	1.51e-05
303.15	1.0041	0.0019529	1.61e-05
303.15	1.2222	0.0020917	1.72e-05
303.15	1.4479	0.0022226	1.82e-05
308.15	0	0.0011334	9.7e-06
308.15	0.19	0.0012642	1.08e-05
308.15	0.3852	0.0013779	1.16e-05
308.15	0.586	0.0014906	1.25e-05
308.15	0.7923	0.0016017	1.34e-05
308.15	1.0041	0.0017158	1.42e-05
308.15	1.2222	0.0018372	1.52e-05
308.15	1.4479	0.0019601	1.61e-05
313.15	0	0.0010218	8.9e-06
313.15	0.19	0.0011389	9.8e-06
313.15	0.3852	0.0012413	1.06e-05
313.15	0.586	0.0013378	1.13e-05
313.15	0.7923	0.0014414	1.21e-05
313.15	1.0041	0.0015471	1.29e-05
313.15	1.2222	0.0016556	1.38e-05
313.15	1.4479	0.0017662	1.46e-05
318.15	0	0.0009234	8.1e-06
318.15	0.19	0.0010197	8.9e-06
318.15	0.3852	0.0011083	9.5e-06
318.15	0.586	0.0011972	1.02e-05
318.15	0.7923	0.0012914	1.1e-05
318.15	1.0041	0.0013832	1.17e-05
318.15	1.2222	0.0014794	1.24e-05
318.15	1.4479	0.0015776	1.32e-05
323.15	0	0.0008435	7.5e-06
323.15	0.19	0.0009214	8.1e-06
323.15	0.3852	0.0010002	8.7e-06
323.15	0.586	0.0010795	9.3e-06
323.15	0.7923	0.0011658	1e-05
323.15	1.0041	0.0012466	1.06e-05
323.15	1.2222	0.0013302	1.13e-05
323.15	1.4479	0.0014175	1.19e-05

System: (S)-2-aminopropanoic acid + D-sucrose + water; phases: Liquid
Fixed: Pressure, kPa = 101
Fixed: Solvent: Molality, mol/kg of D-sucrose = 1.27
Property: Viscosity, Pa*s (Liquid); method: Capillary tube (Ostwald; Ubbelohde) method
Temperature, K	Molality, mol/kg of (S)-2-aminopropanoic acid	Viscosity, Pa*s	uncertainty
298.15	0	0.0027164	2.19e-05
298.15	0.1797	0.002954	2.37e-05
298.15	0.3642	0.0031518	2.53e-05
298.15	0.5537	0.0034204	2.73e-05
298.15	0.7482	0.003668	2.92e-05
298.15	0.9485	0.0039195	3.11e-05
298.15	1.1542	0.0041811	3.31e-05
303.15	0	0.0023757	1.93e-05
303.15	0.1797	0.002571	2.08e-05
303.15	0.3642	0.0027818	2.24e-05
303.15	0.5537	0.0029935	2.41e-05
303.15	0.7482	0.0031998	2.56e-05
303.15	0.9485	0.003433	2.74e-05
303.15	1.1542	0.0036555	2.91e-05
308.15	0	0.0020748	1.7e-05
308.15	0.1797	0.0022472	1.83e-05
308.15	0.3642	0.0024373	1.98e-05
308.15	0.5537	0.0026113	2.11e-05
308.15	0.7482	0.0028159	2.27e-05
308.15	0.9485	0.003015	2.42e-05
308.15	1.1542	0.0032428	2.59e-05
313.15	0	0.0017948	1.49e-05
313.15	0.1797	0.001944	1.6e-05
313.15	0.3642	0.002109	1.73e-05
313.15	0.5537	0.0022723	1.85e-05
313.15	0.7482	0.0024427	1.98e-05
313.15	0.9485	0.0026365	2.13e-05
313.15	1.1542	0.0028446	2.29e-05
318.15	0	0.001587	1.33e-05
318.15	0.1797	0.0017122	1.42e-05
318.15	0.3642	0.0018507	1.53e-05
318.15	0.5537	0.0019999	1.64e-05
318.15	0.7482	0.0021629	1.77e-05
318.15	0.9485	0.0023351	1.9e-05
318.15	1.1542	0.0025181	2.04e-05
323.15	0	0.001394	1.18e-05
323.15	0.1797	0.0015152	1.27e-05
323.15	0.3642	0.0016336	1.36e-05
323.15	0.5537	0.0017574	1.46e-05
323.15	0.7482	0.0018905	1.56e-05
323.15	0.9485	0.0020482	1.68e-05
323.15	1.1542	0.0022149	1.81e-05

System: D-glucose + L-threonine + water; phases: Liquid
Fixed: Pressure, kPa = 101
Fixed: Solvent: Molality, mol/kg of D-glucose = 1.13
Property: Viscosity, Pa*s (Liquid); method: Capillary tube (Ostwald; Ubbelohde) method
Temperature, K	Molality, mol/kg of L-threonine	Viscosity, Pa*s	uncertainty
298.15	0	0.0014203	1.25e-05
298.15	0.0472	0.0014428	1.27e-05
298.15	0.0948	0.0014745	1.3e-05
298.15	0.1911	0.0015437	1.34e-05
298.15	0.289	0.0016085	1.39e-05
298.15	0.3887	0.0016724	1.54e-05
298.15	0.4899	0.0017424	1.59e-05
298.15	0.593	0.0018019	1.65e-05
303.15	0	0.0012777	1.09e-05
303.15	0.0472	0.0013104	1.11e-05
303.15	0.0948	0.0013388	1.13e-05
303.15	0.1911	0.0013986	1.18e-05
303.15	0.289	0.0014521	1.22e-05
303.15	0.3887	0.0015131	1.27e-05
303.15	0.4899	0.0015763	1.32e-05
303.15	0.593	0.0016431	1.37e-05
308.15	0	0.0011334	9.7e-06
308.15	0.0472	0.0011673	1e-05
308.15	0.0948	0.00121	1.03e-05
308.15	0.1911	0.0012577	1.07e-05
308.15	0.289	0.0013125	1.11e-05
308.15	0.3887	0.0013736	1.16e-05
308.15	0.4899	0.0014375	1.21e-05
308.15	0.593	0.0015076	1.26e-05
313.15	0	0.0010218	8.9e-06
313.15	0.0472	0.0010465	9.1e-06
313.15	0.0948	0.0010729	9.3e-06
313.15	0.1911	0.001125	9.7e-06
313.15	0.289	0.0011784	1.01e-05
313.15	0.3887	0.0012326	1.05e-05
313.15	0.4899	0.0012931	1.1e-05
313.15	0.593	0.0013562	1.15e-05
318.15	0	0.0009234	8.1e-06
318.15	0.0472	0.00095	8.3e-06
318.15	0.0948	0.0009681	8.5e-06
318.15	0.1911	0.0010069	8.8e-06
318.15	0.289	0.0010555	9.1e-06
318.15	0.3887	0.0011002	9.5e-06
318.15	0.4899	0.0011534	9.9e-06
318.15	0.593	0.00121181	1.035e-05
323.15	0	0.0008435	7.5e-06
323.15	0.0472	0.0008611	7.6e-06
323.15	0.0948	0.0008777	7.8e-06
323.15	0.1911	0.0009173	8.1e-06
323.15	0.289	0.0009576	8.4e-06
323.15	0.3887	0.0009993	8.7e-06
323.15	0.4899	0.0010423	9e-06
323.15	0.593	0.0010868	9.4e-06

System: D-sucrose + L-threonine + water; phases: Liquid
Fixed: Pressure, kPa = 101
Fixed: Solvent: Molality, mol/kg of D-sucrose = 1.27
Property: Viscosity, Pa*s (Liquid); method: Capillary tube (Ostwald; Ubbelohde) method
Temperature, K	Molality, mol/kg of L-threonine	Viscosity, Pa*s	uncertainty
298.15	0	0.0027164	2.19e-05
298.15	0.0445	0.0028023	2.26e-05
298.15	0.0886	0.0028791	2.32e-05
298.15	0.1804	0.0030309	2.43e-05
298.15	0.2728	0.0031741	2.54e-05
298.15	0.3669	0.0033178	2.65e-05
298.15	0.4624	0.0034699	2.77e-05
303.15	0	0.0023757	1.93e-05
303.15	0.0445	0.0024377	1.98e-05
303.15	0.0886	0.0025028	2.03e-05
303.15	0.1804	0.0026258	2.13e-05
303.15	0.2728	0.0027473	2.22e-05
303.15	0.3669	0.0028602	2.3e-05
303.15	0.4624	0.0029788	2.4e-05
308.15	0	0.0020748	1.7e-05
308.15	0.0445	0.0021354	1.75e-05
308.15	0.0886	0.0021961	1.8e-05
308.15	0.1804	0.0023075	1.88e-05
308.15	0.2728	0.0024189	1.97e-05
308.15	0.3669	0.0025274	2.05e-05
308.15	0.4624	0.0026403	2.14e-05
313.15	0	0.0017948	1.49e-05
313.15	0.0445	0.0018605	1.54e-05
313.15	0.0886	0.0019082	1.57e-05
313.15	0.1804	0.0020153	1.66e-05
313.15	0.2728	0.0021181	1.74e-05
313.15	0.3669	0.0022207	1.81e-05
313.15	0.4624	0.0023206	1.89e-05
318.15	0	0.001587	1.33e-05
318.15	0.0445	0.0016319	1.36e-05
318.15	0.0886	0.001684	1.4e-05
318.15	0.1804	0.0017708	1.47e-05
318.15	0.2728	0.0018504	1.53e-05
318.15	0.3669	0.0019241	1.59e-05
318.15	0.4624	0.0020066	1.65e-05
323.15	0	0.001394	1.18e-05
323.15	0.0445	0.0014381	1.21e-05
323.15	0.0886	0.0014771	1.24e-05
323.15	0.1804	0.0015436	1.29e-05
323.15	0.2728	0.0016189	1.35e-05
323.15	0.3669	0.0016912	1.41e-05
323.15	0.4624	0.0017624	1.46e-05

System: D-glucose + glycylglycine + water; phases: Liquid
Fixed: Pressure, kPa = 101
Fixed: Solvent: Molality, mol/kg of D-glucose = 1.13
Property: Viscosity, Pa*s (Liquid); method: Capillary tube (Ostwald; Ubbelohde) method
Temperature, K	Molality, mol/kg of glycylglycine	Viscosity, Pa*s	uncertainty
298.15	0	0.001489	0.0001492
298.15	0.1911	0.001565	0.0001568
298.15	0.3889	0.0016736	0.0001677
298.15	0.5941	0.0018238	0.0001828
298.15	0.8068	0.0020022	0.0002006
298.15	1.0281	0.0022149	0.0002219
298.15	1.2576	0.0024538	0.0002459
298.15	1.4989	0.0027158	0.0002721
303.15	0	0.0012325	0.0001235
303.15	0.1911	0.0013184	0.0001321
303.15	0.3889	0.0014071	0.000141
303.15	0.5941	0.001534	0.0001537
303.15	0.8068	0.0016937	0.0001697
303.15	1.0281	0.0019011	0.0001905
303.15	1.2576	0.0021305	0.0002135
303.15	1.4989	0.0024137	0.0002418
308.15	0	0.0010859	0.0001088
308.15	0.1911	0.0011675	0.000117
308.15	0.3889	0.0012471	0.000125
308.15	0.5941	0.0013585	0.0001361
308.15	0.8068	0.0015056	0.0001509
308.15	1.0281	0.0016787	0.0001682
308.15	1.2576	0.0018909	0.0001895
308.15	1.4989	0.0021429	0.0002147
313.15	0	0.0009825	9.85e-05
313.15	0.1911	0.0010497	0.0001052
313.15	0.3889	0.0011187	0.0001121
313.15	0.5941	0.0012164	0.0001219
313.15	0.8068	0.0013516	0.0001354
313.15	1.0281	0.0015042	0.0001507
313.15	1.2576	0.0016948	0.0001698
313.15	1.4989	0.0019127	0.0001917
318.15	0	0.0008774	8.79e-05
318.15	0.1911	0.0009454	9.48e-05
318.15	0.3889	0.001005	0.0001007
318.15	0.5941	0.0010899	0.0001092
318.15	0.8068	0.0012077	0.000121
318.15	1.0281	0.0013472	0.000135
318.15	1.2576	0.0015099	0.0001513
318.15	1.4989	0.0017078	0.0001711
323.15	0	0.0007914	7.93e-05
323.15	0.1911	0.0008637	8.66e-05
323.15	0.3889	0.0009151	9.17e-05
323.15	0.5941	0.0009899	9.92e-05
323.15	0.8068	0.0010945	0.0001097
323.15	1.0281	0.0012229	0.0001226
323.15	1.2576	0.0013822	0.0001385
323.15	1.4989	0.0015553	0.0001558

System: D-sucrose + glycylglycine + water; phases: Liquid
Fixed: Pressure, kPa = 101
Fixed: Solvent: Molality, mol/kg of D-sucrose = 1.27
Property: Viscosity, Pa*s (Liquid); method: Capillary tube (Ostwald; Ubbelohde) method
Temperature, K	Molality, mol/kg of glycylglycine	Viscosity, Pa*s	uncertainty
298.15	0	0.0027164	2.19e-05
298.15	0.1804	0.0029112	2.35e-05
298.15	0.3671	0.0031698	2.54e-05
298.15	0.5607	0.0034634	2.77e-05
298.15	0.7616	0.0038791	3.08e-05
298.15	0.9707	0.0043942	3.47e-05
298.15	1.1872	0.0050023	3.92e-05
303.15	0	0.0023757	1.93e-05
303.15	0.1804	0.0024609	2e-05
303.15	0.3671	0.0026574	2.15e-05
303.15	0.5607	0.0029466	2.37e-05
303.15	0.7616	0.0033098	2.65e-05
303.15	0.9707	0.0037722	3e-05
303.15	1.1872	0.0043556	3.44e-05
308.15	0	0.0020748	1.7e-05
308.15	0.1804	0.0021504	1.76e-05
308.15	0.3671	0.0023237	1.89e-05
308.15	0.5607	0.002586	2.1e-05
308.15	0.7616	0.0029158	2.35e-05
308.15	0.9707	0.003321	2.66e-05
308.15	1.1872	0.0038078	3.03e-05
313.15	0	0.0017948	1.49e-05
313.15	0.1804	0.0018594	1.54e-05
313.15	0.3671	0.0020108	1.65e-05
313.15	0.5607	0.0022388	1.83e-05
313.15	0.7616	0.0025256	2.05e-05
313.15	0.9707	0.002874	2.31e-05
313.15	1.1872	0.0032976	2.64e-05
318.15	0	0.001587	1.33e-05
318.15	0.1804	0.0016401	1.37e-05
318.15	0.3671	0.0017733	1.47e-05
318.15	0.5607	0.0019675	1.62e-05
318.15	0.7616	0.0022215	1.81e-05
318.15	0.9707	0.0025327	2.05e-05
318.15	1.1872	0.0029027	2.34e-05
323.15	0	0.001394	1.18e-05
323.15	0.1804	0.0014387	1.21e-05
323.15	0.3671	0.0015556	1.3e-05
323.15	0.5607	0.0017258	1.43e-05
323.15	0.7616	0.0019546	1.61e-05
323.15	0.9707	0.0022266	1.82e-05
323.15	1.1872	0.0025474	2.07e-05

System: D-glucose + water; phases: Liquid
Fixed: Pressure, kPa = 101
Fixed: Molality, mol/kg of D-glucose = 1.13
Property: Viscosity, Pa*s (Liquid); method: Capillary tube (Ostwald; Ubbelohde) method
Temperature, K	Viscosity, Pa*s	uncertainty
298.15	0.001489	1.25e-05
303.15	0.0012777	1.09e-05
308.15	0.0011334	9.7e-06
313.15	0.0010218	8.9e-06
318.15	0.0009234	8.1e-06
323.15	0.0008435	7.5e-06
298.15	0.0014203	1.25e-05
303.15	0.0012325	0.0001235
308.15	0.0010859	0.0001088
313.15	0.0009825	9.85e-05
318.15	0.0008774	8.79e-05
323.15	0.0007914	7.93e-05

System: D-sucrose + water; phases: Liquid
Fixed: Pressure, kPa = 101
Fixed: Molality, mol/kg of D-sucrose = 1.27
Property: Viscosity, Pa*s (Liquid); method: Capillary tube (Ostwald; Ubbelohde) method
Temperature, K	Viscosity, Pa*s	uncertainty
298.15	0.0027164	2.19e-05
303.15	0.0023757	1.93e-05
308.15	0.0020748	1.7e-05
313.15	0.0017948	1.49e-05
318.15	0.001587	1.33e-05
323.15	0.001394	1.18e-05
