Measured thermophysical data. Thermochemistry of Potassium Strontium Tetraborate Decahydrated
Source: Thermochim. Acta, 2007, 10.1016/j.tca.2007.08.004
Compound 1: water, H2O, InChI=1S/H2O/h1H2, purity 99.99%
Compound 2: potassium, K, InChI=1S/K
Compound 3: strontium, Sr, InChI=1S/Sr
Compound 4: boron, B, InChI=1S/B
Compound 5: hydrogen, H2, InChI=1S/H2/h1H
Compound 6: oxygen, O2, InChI=1S/O2/c1-2
Compound 7: K2Sr[B4O5(OH)4]2*10H2O, B8H28K2O28Sr, InChI=1S/2B4H4O9.2K.10H2O.Sr/c2*5-1(6)11-3(9)13-4(10)12-2(7)8;;;;;;;;;;;;;/h2*5,7,9-10H;;;10*1H2;/q2*-2;2*+1;;;;;;;;;;;+2, purity 99%
Compound 8: boric acid, BH3O3, InChI=1S/BH3O3/c2-1(3)4/h2-4H, purity 99.5%
Compound 9: potassium chloride, ClK, InChI=1S/ClH.K/h1H;/q;+1/p-1, purity 99.9%
Compound 10: strontium chloride hexahydrate, Cl2H12O6Sr, InChI=1S/2ClH.6H2O.Sr/h2*1H;6*1H2;/q;;;;;;;;+2/p-2, purity 99.5%
Compound 11: hydrogen chloride, ClH, InChI=1S/ClH/h1H, purity 99.9%

Reaction: -2 potassium chloride + 4 hydrogen chloride + -1 strontium chloride hexahydrate + -8 boric acid + 1 K2Sr[B4O5(OH)4]2*10H2O + 2 water
Property: Molar enthalpy of reaction, kJ/mol
117.85

Reaction: -2 potassium + -1 strontium + -8 boron + 1 K2Sr[B4O5(OH)4]2*10H2O + -14 hydrogen + -14 oxygen
Property: Molar enthalpy of reaction, kJ/mol
-10904.5
