Measured thermophysical data. Carbon dioxide loading capacity in aqueous solution of Potassium salt of Proline blended with Piperazine as new absorbents
Source: Thermochim. Acta, 2016, 10.1016/j.tca.2016.07.019
Compound 1: water, H2O, InChI=1S/H2O/h1H2, purity 98%
Compound 2: carbon dioxide, CO2, InChI=1S/CO2/c2-1-3, purity 98%
Compound 3: 2-aminoethan-1-ol, C2H7NO, InChI=1S/C2H7NO/c3-1-2-4/h4H,1-3H2
Compound 4: sodium glycinate, C2H4NNaO2, InChI=1S/C2H5NO2.Na/c3-1-2(4)5;/h1,3H2,(H,4,5);/q;+1/p-1
Compound 5: potassium Salt of sarcosine, C3H6KNO2, InChI=1S/C3H7NO2.K/c1-4-2-3(5)6;/h4H,2H2,1H3,(H,5,6);/q;+1/p-1
Compound 6: potassium L-prolinate, C5H8KNO2, InChI=1S/C5H9NO2.K/c7-5(8)4-2-1-3-6-4;/h4,6H,1-3H2,(H,7,8);/q;+1/p-1/t4-;/m0./s1
Compound 7: piperazine, C4H10N2, InChI=1S/C4H10N2/c1-2-6-4-3-5-1/h5-6H,1-4H2

System: carbon dioxide + sodium glycinate + water; phases: Liquid, Gas
Property: Mole fraction of carbon dioxide (Liquid); method: Phase equilibration
Temperature, K	Solvent: Mass fraction of sodium glycinate	Pressure, kPa of carbon dioxide	Mole fraction of carbon dioxide	uncertainty
298.15	0.01	496.3	2.619	0.265
298.15	0.01	1563.5	3.411	0.345
298.15	0.01	2519.5	3.991	0.404
298.15	0.05	991.4	1.339	0.134
298.15	0.05	2106.9	1.483	0.149
298.15	0.1	1045.2	1.316	0.132
298.15	0.1	2104.7	1.389	0.139
298.15	0.15	491.6	0.982	0.098
298.15	0.15	1610.5	1.005	0.101
298.15	0.15	2471.9	1.093	0.113
298.15	0.2	1037.3	1.096	0.11
298.15	0.2	2117.2	1.196	0.12
298.15	0.3	527.3	0.917	0.083
298.15	0.3	1631.6	1.092	0.109
298.15	0.3	2611.6	1.061	0.106
313.15	0.01	573.7	2.579	0.26
313.15	0.01	1639.1	3.129	0.316
313.15	0.01	2618.3	3.591	0.363
313.15	0.05	1058.3	1.305	0.131
313.15	0.05	2131.5	1.492	0.15
313.15	0.1	539.3	1.132	0.113
313.15	0.1	994.1	1.101	0.11
313.15	0.1	1602.1	1.385	0.139
313.15	0.1	2154.1	1.371	0.137
313.15	0.1	2431.5	1.21	0.122
313.15	0.15	571.4	1.119	0.112
313.15	0.15	1653.1	1.154	0.115
313.15	0.15	2412.4	1.093	0.109
313.15	0.2	1121.4	1.091	0.109
313.15	0.2	2176.1	1.201	0.12
313.15	0.3	465.1	0.802	0.08
313.15	0.3	1701.5	1.108	0.111
313.15	0.3	2743.8	1.195	0.12
313.15	0.1	97.3	1.32	0.149
313.15	0.1	192.7	1.039	0.107

System: carbon dioxide + 2-aminoethan-1-ol + water; phases: Liquid, Gas
Fixed: Temperature, K = 313.15
Property: Mole fraction of carbon dioxide (Liquid); method: Phase equilibration
Solvent: Mass fraction of 2-aminoethan-1-ol	Pressure, kPa of carbon dioxide	Mole fraction of carbon dioxide	uncertainty
0.3	115.2	0.631	0.064
0.3	149.1	0.681	0.068
0.3	601.3	0.712	0.071
0.3	821.6	0.673	0.068
0.3	537.1	0.704	0.071
0.3	1572.1	0.801	0.08
0.3	2582.1	0.872	0.087
0.153	201.6	0.791	0.079
0.153	431.7	0.912	0.088

System: carbon dioxide + water + potassium L-prolinate; phases: Liquid, Gas
Property: Mole fraction of carbon dioxide (Liquid); method: Phase equilibration
Temperature, K	Solvent: Mass fraction of potassium L-prolinate	Pressure, kPa of carbon dioxide	Mole fraction of carbon dioxide	uncertainty
293.15	0.01	1749.5	4.736	0.482
293.15	0.01	1426.7	4.111	0.419
293.15	0.01	1063.3	3.293	0.337
293.15	0.01	836.1	2.639	0.272
293.15	0.01	646.8	2.102	0.219
293.15	0.01	486.6	1.668	0.174
293.15	0.01	309.1	1.33	0.141
293.15	0.01	154.9	0.907	0.099
293.15	0.01	14.6	0.75	0.078
293.15	0.01	11.5	0.711	0.076
293.15	0.01	9.4	0.706	0.076
303.15	0.01	1788.1	4.41	0.448
303.15	0.01	1454.3	3.677	0.375
303.15	0.01	1123.1	2.833	0.29
303.15	0.01	931.4	2.509	0.257
303.15	0.01	736.3	1.996	0.207
303.15	0.01	583.1	1.66	0.171
303.15	0.01	405.7	1.333	0.139
303.15	0.01	209.5	0.966	0.048
303.15	0.01	58.1	0.775	0.083
303.15	0.01	16.1	0.702	0.083
303.15	0.01	12.7	0.691	0.082
313.15	0.01	1892.9	3.753	0.382
313.15	0.01	1540.5	3.046	0.31
313.15	0.01	1182.9	2.425	0.247
313.15	0.01	952.9	2.072	0.211
313.15	0.01	721.8	1.682	0.172
313.15	0.01	543.5	1.377	0.143
313.15	0.01	393.1	1.096	0.115
313.15	0.01	229.4	0.842	0.088
313.15	0.01	57.6	0.681	0.079
313.15	0.01	15.3	0.597	0.068
313.15	0.01	11.9	0.583	0.068
323.15	0.01	1902.2	2.732	0.277
323.15	0.01	1587.1	2.515	0.255
323.15	0.01	1302.2	1.998	0.203
323.15	0.01	1003.7	1.699	0.172
323.15	0.01	717.6	1.357	0.138
323.15	0.01	551.7	1.179	0.12
323.15	0.01	409.5	1.021	0.105
323.15	0.01	223.9	0.778	0.082
323.15	0.01	68.3	0.603	0.065
323.15	0.01	17.3	0.548	0.06
323.15	0.01	11.6	0.541	0.059
293.15	0.04	1661.8	1.662	0.194
293.15	0.04	1363.1	1.505	0.155
293.15	0.04	1064.2	1.325	0.134
293.15	0.04	799.1	1.087	0.112
293.15	0.04	588.7	0.953	0.05
293.15	0.04	403.9	0.805	0.084
293.15	0.04	100.4	0.515	0.058
293.15	0.04	86.9	0.366	0.044
293.15	0.04	4.8	0.262	0.033
303.15	0.04	1833.7	1.417	0.155
303.15	0.04	1430.1	1.276	0.128
303.15	0.04	1027.5	1.042	0.105
303.15	0.04	774.2	0.923	0.078
303.15	0.04	580.9	0.823	0.084
303.15	0.04	382.3	0.701	0.072
303.15	0.04	157.2	0.521	0.06
303.15	0.04	23.4	0.223	0.032
303.15	0.04	16.1	0.218	0.033
303.15	0.04	11.9	0.215	0.033
313.15	0.04	1872.3	1.318	0.14
313.15	0.04	1456.2	1.067	0.108
313.15	0.04	1034.4	0.936	0.064
313.15	0.04	732.5	0.838	0.084
313.15	0.04	531.7	0.737	0.075
313.15	0.04	395.8	0.598	0.061
313.15	0.04	138.2	0.484	0.051
313.15	0.04	47.2	0.244	0.051
313.15	0.04	15.7	0.213	0.099
313.15	0.04	10.3	0.206	0.043
323.15	0.04	1919.7	1.261	0.136
323.15	0.04	1625.1	1.043	0.105
323.15	0.04	1142.2	0.812	0.081
323.15	0.04	841.4	0.761	0.076
323.15	0.04	731.9	0.727	0.073
323.15	0.04	486.1	0.661	0.068
323.15	0.04	249.6	0.488	0.052
323.15	0.04	98.3	0.305	0.036
323.15	0.04	21.7	0.205	0.03
323.15	0.04	12.8	0.198	0.025
293.15	0.1	2130.9	0.935	0.065
293.15	0.1	1547.1	0.834	0.084
293.15	0.1	963.2	0.777	0.078
293.15	0.1	512.8	0.681	0.069
293.15	0.1	343.8	0.633	0.064
293.15	0.1	166.4	0.549	0.058
293.15	0.1	33.4	0.402	0.126
293.15	0.1	12.2	0.276	0.122
303.15	0.1	2383.2	0.923	0.077
303.15	0.1	1747.9	0.797	0.08
303.15	0.1	1066.9	0.697	0.07
303.15	0.1	888.5	0.691	0.069
303.15	0.1	622.5	0.649	0.066
303.15	0.1	400.8	0.551	0.056
303.15	0.1	187.9	0.491	0.051
303.15	0.1	46.8	0.421	0.076
303.15	0.1	17.3	0.328	0.088
303.15	0.1	9.6	0.259	0.089
313.15	0.1	2035.2	0.801	0.08
313.15	0.1	1436.2	0.682	0.069
313.15	0.1	817.3	0.623	0.063
313.15	0.1	555.9	0.581	0.059
313.15	0.1	284.1	0.502	0.052
313.15	0.1	159.9	0.452	0.047
313.15	0.1	28.1	0.366	0.041
313.15	0.1	9.2	0.263	0.034
323.15	0.1	1988.2	0.711	0.071
323.15	0.1	1389.2	0.622	0.063
323.15	0.1	925.3	0.566	0.057
323.15	0.1	645.2	0.521	0.053
323.15	0.1	453.7	0.485	0.05
323.15	0.1	296.5	0.452	0.047
323.15	0.1	137.7	0.401	0.042
323.15	0.1	18	0.327	0.036
323.15	0.1	10.1	0.257	0.035

System: carbon dioxide + water + potassium L-prolinate; phases: Liquid, Gas, Crystal
Fixed: Temperature, K = 313.15
Property: Mole fraction of carbon dioxide (Liquid); method: Phase equilibration
Pressure, kPa of carbon dioxide	Mole fraction of carbon dioxide	uncertainty
106.3	0.692	0.071
137.5	0.717	0.074
561.8	0.68	0.068
869.6	0.831	0.084

System: carbon dioxide + water + potassium Salt of sarcosine; phases: Liquid, Gas
Fixed: Temperature, K = 313.15
Fixed: Solvent: Amount concentration (molarity), mol/dm3 of potassium Salt of sarcosine = 4
Property: Mole fraction of carbon dioxide (Liquid); method: Phase equilibration
Pressure, kPa of carbon dioxide	Mole fraction of carbon dioxide	uncertainty
316.2	0.931	0.069
659.1	0.913	0.087

System: potassium L-prolinate + water; phases: Liquid
Fixed: Pressure, kPa = 100
Property: Mass density, kg/m3 (Liquid); method: PYCNOM:UFactor:4
Temperature, K	Mass fraction of potassium L-prolinate	Mass density, kg/m3	uncertainty
293.15	0.01	1007.1	2.3
303.15	0.01	1004.3	2.4
313.15	0.01	1001.6	2.5
323.15	0.01	997.9	2.6
293.15	0.04	1023.4	2.3
303.15	0.04	1019.6	2.4
313.15	0.04	1016.1	2.5
323.15	0.04	1009.5	2.7
293.15	0.1	1047.2	2.4
303.15	0.1	1042.8	2.5
313.15	0.1	1037.9	2.6
323.15	0.1	1026.7	2.8

System: potassium L-prolinate + water + piperazine; phases: Liquid
Fixed: Pressure, kPa = 100
Property: Mass density, kg/m3 (Liquid); method: PYCNOM:UFactor:4
Temperature, K	Mass fraction of potassium L-prolinate	Mass fraction of piperazine	Mass density, kg/m3	uncertainty
293.15	0.005	0.005	1004.3	2.4
303.15	0.005	0.005	1001.6	2.4
313.15	0.005	0.005	998.8	2.5
323.15	0.005	0.005	995.1	2.6
293.15	0.01	0.03	1010.6	2.3
303.15	0.01	0.03	1007.8	2.4
313.15	0.01	0.03	1003.9	2.5
323.15	0.01	0.03	999.3	2.6
293.15	0.01	0.09	1017.7	2.3
303.15	0.01	0.09	1015	2.4
313.15	0.01	0.09	1011.6	2.5
323.15	0.01	0.09	1006.8	2.6
