Measured thermophysical data. Enthalpies of transfer of amino acids from water to aqueous solutions of N-methylformamide and N,N-dimethylformamide at T = 298.15K
Source: Thermochim. Acta, 2008, 10.1016/j.tca.2007.11.003
Compound 1: 2-aminoacetic acid, C2H5NO2, InChI=1S/C2H5NO2/c3-1-2(4)5/h1,3H2,(H,4,5), purity 99%
Compound 2: N-methylformamide, C2H5NO, InChI=1S/C2H5NO/c1-3-2-4/h2H,1H3,(H,3,4)
Compound 3: water, H2O, InChI=1S/H2O/h1H2, purity 99.99%
Compound 4: (S)-2-aminopropanoic acid, C3H7NO2, InChI=1S/C3H7NO2/c1-2(4)3(5)6/h2H,4H2,1H3,(H,5,6)/t2-/m0/s1, purity 99%
Compound 5: L-serine, C3H7NO3, InChI=1S/C3H7NO3/c4-2(1-5)3(6)7/h2,5H,1,4H2,(H,6,7)/t2-/m0/s1, purity 99%
Compound 6: dimethylformamide, C3H7NO, InChI=1S/C3H7NO/c1-4(2)3-5/h3H,1-2H3

System: 2-aminoacetic acid + N-methylformamide + water; phases: Liquid
Fixed: Temperature, K = 298.15
Fixed: Pressure, kPa = 101
Fixed: Molality, mol/kg of 2-aminoacetic acid = 0
Property: Molar enthalpy of solution, kJ/mol (Liquid); method: Calvet calorimetry
Solvent: Molality, mol/kg of N-methylformamide	Molar enthalpy of solution, kJ/mol	uncertainty
0.4998	14.37	0.3
0.9997	14.45	0.31
1.4999	14.62	0.31
1.9997	14.71	0.31
2.4981	14.8	0.31
3.001	14.89	0.32
3.4998	15.01	0.32
4.0005	15.17	0.32

System: (S)-2-aminopropanoic acid + N-methylformamide + water; phases: Liquid
Fixed: Temperature, K = 298.15
Fixed: Pressure, kPa = 101
Fixed: Molality, mol/kg of (S)-2-aminopropanoic acid = 0
Property: Molar enthalpy of solution, kJ/mol (Liquid); method: Calvet calorimetry
Solvent: Molality, mol/kg of N-methylformamide	Molar enthalpy of solution, kJ/mol	uncertainty
0.4999	7.94	0.17
0.9992	8.29	0.18
1.4996	8.5	0.18
1.9997	8.82	0.19
2.499	9.12	0.19
2.9989	9.34	0.2
3.4982	9.52	0.2
4.0003	9.68	0.21

System: L-serine + N-methylformamide + water; phases: Liquid
Fixed: Temperature, K = 298.15
Fixed: Pressure, kPa = 101
Fixed: Molality, mol/kg of L-serine = 0
Property: Molar enthalpy of solution, kJ/mol (Liquid); method: Calvet calorimetry
Solvent: Molality, mol/kg of N-methylformamide	Molar enthalpy of solution, kJ/mol	uncertainty
0.4999	11.03	0.23
1	11.3	0.24
1.4995	11.42	0.24
1.9999	11.51	0.24
2.4997	11.65	0.25
2.9991	11.82	0.25
3.4998	12	0.25
3.9979	12.12	0.26

System: 2-aminoacetic acid + dimethylformamide + water; phases: Liquid
Fixed: Temperature, K = 298.15
Fixed: Pressure, kPa = 101
Fixed: Molality, mol/kg of 2-aminoacetic acid = 0
Property: Molar enthalpy of solution, kJ/mol (Liquid); method: Calvet calorimetry
Solvent: Molality, mol/kg of dimethylformamide	Molar enthalpy of solution, kJ/mol	uncertainty
0.4999	14.53	0.31
0.9999	14.82	0.31
1.5	15.21	0.32
1.9999	15.42	0.33
2.4978	15.68	0.33
3.0002	15.87	0.34
3.499	16.06	0.34
3.9994	16.21	0.34

System: (S)-2-aminopropanoic acid + dimethylformamide + water; phases: Liquid
Fixed: Temperature, K = 298.15
Fixed: Pressure, kPa = 101
Fixed: Molality, mol/kg of (S)-2-aminopropanoic acid = 0
Property: Molar enthalpy of solution, kJ/mol (Liquid); method: Calvet calorimetry
Solvent: Molality, mol/kg of dimethylformamide	Molar enthalpy of solution, kJ/mol	uncertainty
0.5	8.14	0.17
0.9947	8.7	0.18
1.5	9.13	0.19
2	9.52	0.2
2.4978	10.08	0.21
2.999	10.51	0.22
3.4991	10.73	0.23
3.9994	11.13	0.24

System: L-serine + dimethylformamide + water; phases: Liquid
Fixed: Temperature, K = 298.15
Fixed: Pressure, kPa = 101
Fixed: Molality, mol/kg of L-serine = 0
Property: Molar enthalpy of solution, kJ/mol (Liquid); method: Calvet calorimetry
Solvent: Molality, mol/kg of dimethylformamide	Molar enthalpy of solution, kJ/mol	uncertainty
0.5	11.45	0.24
0.9947	11.66	0.25
1.5	12	0.25
1.9999	12.32	0.26
2.499	12.5	0.27
3.0002	12.8	0.27
3.4991	13.05	0.28
3.9994	13.25	0.28
