Measured thermophysical data. A new analysis method for improving collection of vapor-liquid equilibrium (VLE) data of binary mixtures using differential scanning calorimetry (DSC)
Source: Thermochim. Acta, 2018, 10.1016/j.tca.2017.12.010
Compound 1: methanol, CH4O, InChI=1S/CH4O/c1-2/h2H,1H3, purity 99.9%
Compound 2: propan-2-ol, C3H8O, InChI=1S/C3H8O/c1-3(2)4/h3-4H,1-2H3, purity 99.9%
Compound 3: cyclohexane, C6H12, InChI=1S/C6H12/c1-2-4-6-5-3-1/h1-6H2, purity 99.9%
Compound 4: toluene, C7H8, InChI=1S/C7H8/c1-7-5-3-2-4-6-7/h2-6H,1H3, purity 99.9%
Compound 5: water, H2O, InChI=1S/H2O/h1H2

System: methanol; phases: Liquid, Gas
Property: Vapor or sublimation pressure, kPa (Liquid); method: DSC
Temperature, K	Vapor or sublimation pressure, kPa	uncertainty
337.78	101.3	7.9

System: propan-2-ol; phases: Liquid, Gas
Property: Vapor or sublimation pressure, kPa (Liquid); method: DSC
Temperature, K	Vapor or sublimation pressure, kPa	uncertainty
355.71	101.3	7.9

System: cyclohexane; phases: Liquid, Gas
Property: Vapor or sublimation pressure, kPa (Liquid); method: DSC
Temperature, K	Vapor or sublimation pressure, kPa	uncertainty
353.82	101.3	7.9

System: toluene; phases: Liquid, Gas
Property: Vapor or sublimation pressure, kPa (Liquid); method: DSC
Temperature, K	Vapor or sublimation pressure, kPa	uncertainty
383.6	101.3	7.9

System: water; phases: Liquid, Gas
Property: Boiling temperature at pressure P, K (Liquid); method: DSC
Pressure, kPa	Boiling temperature at pressure P, K	uncertainty
92.9	370.97	1.55
94.1	371.21	1.55
101.3	373.16	1.55
395	416.36	1.55
585	430.98	1.55
592	431.66	1.55
791	442.53	1.55
1091	456.44	1.55
1392	467.41	1.55
1689	476.35	1.55
2088	486.41	1.55
93	370.99	1.55
93.5	371.09	1.55

System: methanol + water; phases: Liquid, Gas
Fixed: Pressure, kPa = 101.3
Property: Boiling temperature at pressure P, K (Liquid); method: DSC
Mole fraction of methanol	Boiling temperature at pressure P, K	uncertainty
0	373.16	1.55
0.0129	371.91	1.55
0.0376	367.95	1.55
0.0752	363.76	1.55
0.1196	359.8	1.55
0.174	356.38	1.55
0.2424	352.97	1.55
0.3176	350.52	1.55
0.4246	347.93	1.55
0.556	344.68	1.55
0.7394	341.75	1.55
0.8584	340.01	1.55
0.8999	339.12	1.55
1	337.78	1.55

System: propan-2-ol + water; phases: Liquid, Gas
Fixed: Pressure, kPa = 101.3
Property: Boiling temperature at pressure P, K (Liquid); method: DSC
Mole fraction of propan-2-ol	Boiling temperature at pressure P, K	uncertainty
0	373.15	1.55
0.0009	372.42	1.6
0.0018	371.7	1.6
0.0063	368.77	1.57
0.0221	362.51	1.56
0.0372	359.41	1.55
0.0573	357.15	1.55
0.0847	355.66	1.55
0.1304	354.74	1.55
0.1485	354.59	1.55
0.1553	354.55	1.55
0.1874	354.42	1.55
0.2621	354.22	1.55
0.3447	353.97	1.55
0.4445	353.61	1.55
0.556	353.28	1.55
0.6329	353.16	1.55
0.6781	353.15	1.55
0.6868	353.17	1.55
0.8037	353.47	1.55
0.8909	354.11	1.55
0.942	354.72	1.55
0.9685	355.13	1.55
1	355.71	1.55

System: cyclohexane + toluene; phases: Liquid, Gas
Fixed: Pressure, kPa = 101.3
Property: Boiling temperature at pressure P, K (Liquid); method: DSC
Mole fraction of cyclohexane	Boiling temperature at pressure P, K	uncertainty
0	383.6	1.55
0.0295	382.12	1.55
0.0515	380.72	1.55
0.0987	378.33	1.55
0.1838	374.31	1.55
0.2964	369.86	1.55
0.3968	366.5	1.55
0.4981	363.57	1.55
0.5994	361.15	1.55
0.6985	358.97	1.55
0.8018	356.94	1.55
0.9	355.27	1.55
0.953	354.42	1.55
0.9703	354.19	1.55
0.9839	353.84	1.55
1	353.82	1.55
