Measured thermophysical data. Synthesis and thermochemistry of SrB2O4*4H2O and SrB2O4
Source: Thermochim. Acta, 2006, 10.1016/j.tca.2006.05.018
Compound 1: boric acid, BH3O3, InChI=1S/BH3O3/c2-1(3)4/h2-4H
Compound 2: strontium hydroxide octahydrate Sr(OH)2*8H2O, H18O10Sr, InChI=1S/10H2O.Sr/h10*1H2;/q;;;;;;;;;;+2/p-2
Compound 3: water, H2O, InChI=1S/H2O/h1H2
Compound 4: strontium borate hydrate SrB2O4*4H2O, B2H8O8Sr, InChI=1S/2BO2.4H2O.Sr/c2*2-1-3;;;;;/h;;4*1H2;/q2*-1;;;;;+2, purity 98%
Compound 5: strontium borate SrB2O4, B2O4Sr, InChI=1S/2BO2.Sr/c2*2-1-3;/q2*-1;+2, purity 99%

Reaction: -2 boric acid + 1 strontium borate hydrate SrB2O4*4H2O + -1 strontium hydroxide octahydrate Sr(OH)2*8H2O + 8 water
Property: Molar enthalpy of reaction, kJ/mol
2.05

Reaction: -2 boric acid + 1 strontium borate SrB2O4 + -1 strontium hydroxide octahydrate Sr(OH)2*8H2O + 12 water
Property: Molar enthalpy of reaction, kJ/mol
73.48
