Measured thermophysical data. Thermochemistry of Cs(hydrogen phthalate) and Cs2(terephthalate)
Source: Thermochim. Acta, 2005, 10.1016/j.tca.2005.01.024
Compound 1: 1,4-benzenedicarboxylic acid, C8H6O4, InChI=1S/C8H6O4/c9-7(10)5-1-2-6(4-3-5)8(11)12/h1-4H,(H,9,10)(H,11,12)
Compound 2: cesium hydroxide (Cs(OH)), CsHO, InChI=1S/Cs.H2O/h;1H2/q+1;/p-1
Compound 3: water, H2O, InChI=1S/H2O/h1H2
Compound 4: 1,2-benzenedicarboxylic acid, C8H6O4, InChI=1S/C8H6O4/c9-7(10)5-3-1-2-4-6(5)8(11)12/h1-4H,(H,9,10)(H,11,12)
Compound 5: dicesium benzene-1,4-dicarboxylate, C8H4Cs2O4, InChI=1S/C8H6O4.2Cs/c9-7(10)5-1-2-6(4-3-5)8(11)12;;/h1-4H,(H,9,10)(H,11,12);;/q;2*+1/p-2, purity 99%
Compound 6: caesium hydrogen benzene-1,2-dicarboxylate (1:1:1), C8H5CsO4, InChI=1S/C8H6O4.Cs/c9-7(10)5-3-1-2-4-6(5)8(11)12;/h1-4H,(H,9,10)(H,11,12);/q;+1/p-1, purity 99%

Reaction: -1 1,4-benzenedicarboxylic acid + -2 cesium hydroxide (Cs(OH)) + 1 dicesium benzene-1,4-dicarboxylate + 2 water
Property: Molar enthalpy of reaction, kJ/mol
-46.32

Reaction: -1 1,2-benzenedicarboxylic acid + -1 cesium hydroxide (Cs(OH)) + 1 caesium hydrogen benzene-1,2-dicarboxylate (1:1:1) + 1 water
Property: Molar enthalpy of reaction, kJ/mol
-50.95
