Measured thermophysical data. Temperature and composition-dependent properties of the two-component system D- + L-camphor at 'ordinary' pressure
Source: Thermochim. Acta, 2010, 10.1016/j.tca.2010.07.023
Compound 1: d-camphor, C10H16O, InChI=1S/C10H16O/c1-9(2)7-4-5-10(9,3)8(11)6-7/h7H,4-6H2,1-3H3/t7-,10+/m1/s1, purity 98%
Compound 2: 1,7,7-trimethylbicyclo[2.2.1]-2-heptanone, C10H16O, InChI=1S/C10H16O/c1-9(2)7-4-5-10(9,3)8(11)6-7/h7H,4-6H2,1-3H3, purity 98%

System: d-camphor; phases: Crystal 3, Crystal 2, Gas
Property: Molar enthalpy of transition or fusion, kJ/mol (Crystal 3); method: DSC
Molar enthalpy of transition or fusion, kJ/mol	uncertainty
11.2	0.5

System: d-camphor; phases: Crystal 2, Crystal 1, Gas
Property: Molar enthalpy of transition or fusion, kJ/mol (Crystal 2); method: DSC
Molar enthalpy of transition or fusion, kJ/mol	uncertainty
0.16	0.1

System: d-camphor; phases: Crystal 1, Liquid, Gas
Property: Molar enthalpy of transition or fusion, kJ/mol (Crystal 1); method: DSC
Molar enthalpy of transition or fusion, kJ/mol	uncertainty
6.3	0.5

System: d-camphor; phases: Crystal 3, Crystal 2, Gas
Property: Triple point temperature, K (Crystal 3); method: DTA:corrimp
Triple point temperature, K	uncertainty
242.7	1.4

System: d-camphor; phases: Crystal 2, Crystal 1, Gas
Property: Triple point temperature, K (Crystal 2); method: DTA:corrimp
Triple point temperature, K	uncertainty
370	4

System: d-camphor; phases: Crystal 1, Liquid, Gas
Property: Triple point temperature, K (Crystal 1); method: DTA:corrimp
Triple point temperature, K	uncertainty
451.8	1.4

System: 1,7,7-trimethylbicyclo[2.2.1]-2-heptanone; phases: Crystal 3, Crystal 2, Gas
Property: Molar enthalpy of transition or fusion, kJ/mol (Crystal 3); method: DSC
Molar enthalpy of transition or fusion, kJ/mol	uncertainty
1.3	0.3

System: 1,7,7-trimethylbicyclo[2.2.1]-2-heptanone; phases: Crystal 2, Crystal 1, Gas
Property: Molar enthalpy of transition or fusion, kJ/mol (Crystal 2); method: DSC
Molar enthalpy of transition or fusion, kJ/mol	uncertainty
0.17	0.1

System: 1,7,7-trimethylbicyclo[2.2.1]-2-heptanone; phases: Crystal 1, Liquid, Gas
Property: Molar enthalpy of transition or fusion, kJ/mol (Crystal 1); method: DSC
Molar enthalpy of transition or fusion, kJ/mol	uncertainty
5.9	0.3

System: 1,7,7-trimethylbicyclo[2.2.1]-2-heptanone; phases: Crystal 3, Crystal 2, Gas
Property: Triple point temperature, K (Crystal 3); method: DTA:corrimp
Triple point temperature, K	uncertainty
206.1	1.4

System: 1,7,7-trimethylbicyclo[2.2.1]-2-heptanone; phases: Crystal 2, Crystal 1, Gas
Property: Triple point temperature, K (Crystal 2); method: DTA:corrimp
Triple point temperature, K	uncertainty
364	5

System: 1,7,7-trimethylbicyclo[2.2.1]-2-heptanone; phases: Crystal 1, Liquid, Gas
Property: Triple point temperature, K (Crystal 1); method: DTA:corrimp
Triple point temperature, K	uncertainty
448	1.5
