Measured thermophysical data. Measurements of the density and viscosity of 1-hexene + 1-octene mixtures at high temperatures and high pressures
Source: Thermochim. Acta, 2014, 10.1016/j.tca.2014.08.016
Compound 1: hex-1-ene, C6H12, InChI=1S/C6H12/c1-3-5-6-4-2/h3H,1,4-6H2,2H3, purity 98%
Compound 2: oct-1-ene, C8H16, InChI=1S/C8H16/c1-3-5-7-8-6-4-2/h3H,1,4-8H2,2H3, purity 98%

System: oct-1-ene + hex-1-ene; phases: Liquid
Property: Mass density, kg/m3 (Liquid); method: Buoyancy - hydrostatic balance with magnetic suspension - one sinker
Temperature, K	Pressure, kPa	Mole fraction of oct-1-ene	Mass density, kg/m3	uncertainty
298.15	98	0.2	685.08	2.1
305.25	98	0.2	679.54	2.08
313.65	98	0.2	672.69	2.06
323.28	98	0.2	664.43	2.03
298.15	24510	0.2	709.99	2.18
323.23	24510	0.2	692.21	2.12
355.02	24510	0.2	671.58	2.06
395.52	24510	0.2	641.62	1.96
433.62	24510	0.2	614.08	1.87
468.18	24510	0.2	589.18	1.8
298.15	49030	0.2	727.77	2.23
323.24	49030	0.2	714.09	2.19
355.04	49030	0.2	694.07	2.13
395.33	49030	0.2	668.64	2.05
433.58	49030	0.2	642.37	1.96
468.07	49030	0.2	620.58	1.9
298.15	98060	0.2	754.11	2.32
323.14	98060	0.2	743.21	2.28
354.84	98060	0.2	727.23	2.23
395.31	98060	0.2	706.62	2.17
433.51	98060	0.2	682.68	2.09
468.04	98060	0.2	661.09	2.02
298.15	196130	0.2	792.06	2.44
322.95	196130	0.2	781.57	2.41
354.41	196130	0.2	767.99	2.36
395.05	196130	0.2	750.63	2.31
432.98	196130	0.2	733.67	2.25
467.87	196130	0.2	715.63	2.2
298.15	98	0.4823	696.22	2.13
303.67	98	0.4823	692.48	2.12
313.35	98	0.4823	685.54	2.1
323.86	98	0.4823	678.22	2.08
298.15	24510	0.4823	720.99	2.21
323.73	24510	0.4823	705.99	2.16
354.61	24510	0.4823	683.97	2.09
390.73	24510	0.4823	661.95	2.03
435.49	24510	0.4823	631.36	1.93
467.96	24510	0.4823	610.74	1.86
298.15	49030	0.4823	736.94	2.26
323.72	49030	0.4823	723.85	2.22
354.59	49030	0.4823	705.39	2.16
390.76	49030	0.4823	683.17	2.09
435.7	49030	0.4823	656.28	2.01
467.95	49030	0.4823	636.15	1.94
298.15	98060	0.4823	765.67	2.35
323.71	98060	0.4823	753.36	2.32
354.58	98060	0.4823	737.84	2.27
390.61	98060	0.4823	718.3	2.2
435.61	98060	0.4823	693.82	2.13
468.06	98060	0.4823	675.8	2.07
298.15	196130	0.4823	801.39	2.47
323.53	196130	0.4823	791.05	2.44
354.53	196130	0.4823	778.99	2.4
390.42	196130	0.4823	763	2.35
435.46	196130	0.4823	741.63	2.28
467.82	196130	0.4823	725.29	2.23
298.15	98	0.6923	705.6	2.16
302.9	98	0.6923	703	2.15
312.9	98	0.6923	696.34	2.13
322.86	98	0.6923	688.08	2.11
298.15	24510	0.6923	729.5	2.24
322.74	24510	0.6923	712.73	2.19
355.44	24510	0.6923	691.53	2.12
390.66	24510	0.6923	668.32	2.05
433.38	24510	0.6923	641.38	1.96
470.16	24510	0.6923	618.99	1.89
298.15	49030	0.6923	745.31	2.29
322.7	49030	0.6923	730.47	2.24
355.27	49030	0.6923	713.02	2.19
390.89	49030	0.6923	690.6	2.12
433.33	49030	0.6923	664.02	2.03
470.05	49030	0.6923	641.64	1.96
298.15	98060	0.6923	771.37	2.37
322.63	98060	0.6923	759.23	2.33
355.16	98060	0.6923	741.82	2.28
390.68	98060	0.6923	722.16	2.22
433.2	98060	0.6923	698.66	2.14
469.83	98060	0.6923	677.9	2.08
298.15	196130	0.6923	806.92	2.49
322.39	196130	0.6923	796.19	2.45
355.35	196130	0.6923	782.46	2.41
390.6	196130	0.6923	764.29	2.35
433.17	196130	0.6923	744.1	2.29
469.84	196130	0.6923	725.11	2.23

System: oct-1-ene + hex-1-ene; phases: Liquid
Property: Viscosity, Pa*s (Liquid); method: Falling or rolling sphere viscometry
Temperature, K	Pressure, kPa	Mole fraction of oct-1-ene	Viscosity, Pa*s	uncertainty
298.15	98	0.2	0.000317	7e-06
305.25	98	0.2	0.000304	7e-06
313.65	98	0.2	0.000283	7e-06
323.28	98	0.2	0.000256	6e-06
298.15	24510	0.2	0.000395	9e-06
323.23	24510	0.2	0.000323	8e-06
355.02	24510	0.2	0.000259	6e-06
395.52	24510	0.2	0.000205	5e-06
433.62	24510	0.2	0.000169	4e-06
468.18	24510	0.2	0.000148	4e-06
298.15	49030	0.2	0.000473	1.1e-05
323.24	49030	0.2	0.000388	9e-06
355.04	49030	0.2	0.000317	7e-06
395.33	49030	0.2	0.000253	6e-06
433.58	49030	0.2	0.000213	5e-06
468.07	49030	0.2	0.00019	5e-06
298.15	98060	0.2	0.000644	1.5e-05
323.14	98060	0.2	0.000525	1.2e-05
354.84	98060	0.2	0.000428	1e-05
395.31	98060	0.2	0.000345	8e-06
433.51	98060	0.2	0.000289	7e-06
468.04	98060	0.2	0.000262	6e-06
298.15	196130	0.2	0.001053	2.5e-05
322.95	196130	0.2	0.000842	2e-05
354.41	196130	0.2	0.000675	1.6e-05
395.05	196130	0.2	0.000535	1.3e-05
432.98	196130	0.2	0.000451	1.1e-05
467.87	196130	0.2	0.000403	9e-06
298.15	98	0.4823	0.00036	8e-06
303.67	98	0.4823	0.000347	8e-06
313.35	98	0.4823	0.000319	8e-06
323.86	98	0.4823	0.000285	7e-06
298.15	24510	0.4823	0.000444	1e-05
323.73	24510	0.4823	0.000358	8e-06
354.61	24510	0.4823	0.000291	7e-06
390.73	24510	0.4823	0.000233	6e-06
435.49	24510	0.4823	0.000184	4e-06
467.96	24510	0.4823	0.000162	4e-06
298.15	49030	0.4823	0.000537	1.3e-05
323.72	49030	0.4823	0.000434	1e-05
354.59	49030	0.4823	0.000354	8e-06
390.76	49030	0.4823	0.000286	7e-06
435.7	49030	0.4823	0.000232	5e-06
467.95	49030	0.4823	0.000207	5e-06
298.15	98060	0.4823	0.000737	1.7e-05
323.71	98060	0.4823	0.000589	1.4e-05
354.58	98060	0.4823	0.000478	1.1e-05
390.61	98060	0.4823	0.000392	9e-06
435.61	98060	0.4823	0.000318	8e-06
468.06	98060	0.4823	0.000285	7e-06
298.15	196130	0.4823	0.001225	2.9e-05
323.53	196130	0.4823	0.000962	2.3e-05
354.53	196130	0.4823	0.000757	1.8e-05
390.42	196130	0.4823	0.000614	1.4e-05
435.46	196130	0.4823	0.000489	1.2e-05
467.82	196130	0.4823	0.000447	1.1e-05
298.15	98	0.6923	0.000411	1e-05
302.9	98	0.6923	0.000396	9e-06
312.9	98	0.6923	0.00036	8e-06
322.86	98	0.6923	0.000325	8e-06
298.15	24510	0.6923	0.000511	1.2e-05
322.74	24510	0.6923	0.00041	1e-05
355.44	24510	0.6923	0.000327	8e-06
390.66	24510	0.6923	0.000258	6e-06
433.38	24510	0.6923	0.000204	5e-06
470.16	24510	0.6923	0.000176	4e-06
298.15	49030	0.6923	0.000618	1.5e-05
322.7	49030	0.6923	0.000497	1.2e-05
355.27	49030	0.6923	0.000398	9e-06
390.89	49030	0.6923	0.000319	8e-06
433.33	49030	0.6923	0.000255	6e-06
470.05	49030	0.6923	0.000224	5e-06
298.15	98060	0.6923	0.000859	2e-05
322.63	98060	0.6923	0.000688	1.6e-05
355.16	98060	0.6923	0.000544	1.3e-05
390.68	98060	0.6923	0.000433	1e-05
433.2	98060	0.6923	0.000349	8e-06
469.83	98060	0.6923	0.000311	7e-06
298.15	196130	0.6923	0.00147	3.5e-05
322.39	196130	0.6923	0.001133	2.7e-05
355.35	196130	0.6923	0.000876	2.1e-05
390.6	196130	0.6923	0.000684	1.6e-05
433.17	196130	0.6923	0.000549	1.3e-05
469.84	196130	0.6923	0.000482	1.1e-05
