Measured thermophysical data. Critical behaviour study of ferroelectric semiconductors (PbxSn1-x)2P2S6 from thermal diffusivity measurements
Source: Thermochim. Acta, 2015, 10.1016/j.tca.2015.08.031
Compound 1: tin(II) hypothiodiphosphate (Sn2P2S6), P2S6Sn2, InChI=1S/H4P2S6.2Sn/c3-1(4,5)2(6,7)8;;/h(H2,3,4,5)(H2,6,7,8);;/q;2*+2/p-4, purity 98%
Compound 2: lead(II) hypothiodiphosphate (Pb2P2S6), P2Pb2S6, InChI=1S/H4P2S6.2Pb/c3-1(4,5)2(6,7)8;;/h(H2,3,4,5)(H2,6,7,8);;/q;2*+2/p-4, purity 98%

System: tin(II) hypothiodiphosphate (Sn2P2S6); phases: Crystal
Property: Thermal diffusivity, m2/s (Crystal); method: photopyroelectric calorimeter
Temperature, K	Pressure, kPa	Thermal diffusivity, m2/s	uncertainty
292	100	2.5e-07	4e-08

System: lead(II) hypothiodiphosphate (Pb2P2S6); phases: Crystal
Fixed: Pressure, kPa = 100
Property: Thermal diffusivity, m2/s (Crystal); method: photopyroelectric calorimeter
Temperature, K	Thermal diffusivity, m2/s	uncertainty
292	4.32e-07	4e-08
60.65	3.3335e-06	4e-08
61.32	3.2684e-06	4e-08
61.98	3.2047e-06	4e-08
62.65	3.1448e-06	4e-08
63.31	3.0907e-06	4e-08
63.97	3.0355e-06	4e-08
64.64	2.9812e-06	4e-08
65.31	2.9259e-06	4e-08
65.97	2.8722e-06	4e-08
66.63	2.8203e-06	4e-08
67.32	2.7699e-06	4e-08
67.98	2.7216e-06	4e-08
68.64	2.6757e-06	4e-08
69.31	2.6309e-06	4e-08
69.97	2.5867e-06	4e-08
70.63	2.5442e-06	4e-08
71.3	2.4989e-06	4e-08
71.97	2.4585e-06	4e-08
72.64	2.4194e-06	4e-08
73.32	2.3802e-06	4e-08
73.98	2.3429e-06	4e-08
74.64	2.3068e-06	4e-08
75.3	2.2709e-06	4e-08
75.96	2.2368e-06	4e-08
76.63	2.2031e-06	4e-08
77.3	2.1698e-06	4e-08
77.97	2.1373e-06	4e-08
78.63	2.1055e-06	4e-08
79.31	2.0738e-06	4e-08
79.97	2.0451e-06	4e-08
80.63	2.0156e-06	4e-08
81.32	1.988e-06	4e-08
81.99	1.9611e-06	4e-08
82.66	1.9349e-06	4e-08
83.32	1.9094e-06	4e-08
84.07	1.8813e-06	4e-08
84.73	1.8582e-06	4e-08
85.43	1.8328e-06	4e-08
86.12	1.8094e-06	4e-08
86.79	1.7866e-06	4e-08
87.44	1.7652e-06	4e-08
88.12	1.7437e-06	4e-08
88.82	1.7215e-06	4e-08
89.5	1.6997e-06	4e-08
90.17	1.6788e-06	4e-08
90.84	1.6596e-06	4e-08
91.57	1.6386e-06	4e-08
92.23	1.6193e-06	4e-08
93	1.5976e-06	4e-08
93.67	1.5793e-06	4e-08
94.35	1.5616e-06	4e-08
95.04	1.5444e-06	4e-08
95.7	1.5282e-06	4e-08
96.48	1.51e-06	4e-08
97.28	1.4923e-06	4e-08
98.01	1.4768e-06	4e-08
98.8	1.4606e-06	4e-08
99.51	1.4465e-06	4e-08
100.18	1.4339e-06	4e-08
101.55	1.4094e-06	4e-08
102.61	1.3916e-06	4e-08
103.8	1.3728e-06	4e-08
105.53	1.3473e-06	4e-08
106.59	1.3327e-06	4e-08
107.67	1.3184e-06	4e-08
109.05	1.301e-06	4e-08
110.92	1.2785e-06	4e-08
112.03	1.2656e-06	4e-08
113.35	1.2506e-06	4e-08
114.32	1.2397e-06	4e-08
115.49	1.2262e-06	4e-08
117.81	1.1991e-06	4e-08
118.92	1.1864e-06	4e-08
120.59	1.1677e-06	4e-08
122.05	1.1516e-06	4e-08
123.53	1.1357e-06	4e-08
125.81	1.1118e-06	4e-08
126.73	1.1024e-06	4e-08
128.95	1.0801e-06	4e-08
129.69	1.0729e-06	4e-08
130.84	1.0618e-06	4e-08
132.27	1.0482e-06	4e-08
133.41	1.0376e-06	4e-08
135.14	1.022e-06	4e-08
136.31	1.0116e-06	4e-08
138.46	9.931e-07	4e-08
139.63	9.833e-07	4e-08
140.44	9.767e-07	4e-08
141.64	9.67e-07	4e-08
142.9	9.571e-07	4e-08
143.97	9.489e-07	4e-08
144.4	9.456e-07	4e-08
145.51	9.365e-07	4e-08
146.45	9.311e-07	4e-08
147.14	9.257e-07	4e-08
147.8	9.212e-07	4e-08
148.77	9.14e-07	4e-08
150.21	9.047e-07	4e-08
151.3	8.978e-07	4e-08
152.65	8.89e-07	4e-08
153.29	8.853e-07	4e-08
155.72	8.695e-07	4e-08
156.14	8.669e-07	4e-08
157.29	8.6e-07	4e-08
158.33	8.53e-07	4e-08
158.77	8.503e-07	4e-08
159.99	8.45e-07	4e-08
161.45	8.341e-07	4e-08
162.21	8.297e-07	4e-08
164.12	8.192e-07	4e-08
165.41	8.107e-07	4e-08
166.09	8.073e-07	4e-08
166.88	8.03e-07	4e-08
168.27	7.951e-07	4e-08
169.43	7.9e-07	4e-08
170	7.869e-07	4e-08
171.07	7.816e-07	4e-08
171.89	7.768e-07	4e-08
173.09	7.705e-07	4e-08
173.95	7.67e-07	4e-08
174.72	7.63e-07	4e-08
175.69	7.585e-07	4e-08
177.72	7.498e-07	4e-08
178.3	7.467e-07	4e-08
179.66	7.408e-07	4e-08
181.24	7.348e-07	4e-08
183.05	7.278e-07	4e-08
184.33	7.188e-07	4e-08
184.73	7.161e-07	4e-08
185.51	7.11e-07	4e-08
185.78	7.096e-07	4e-08
187.93	7.027e-07	4e-08
189.24	6.965e-07	4e-08
191.16	6.909e-07	4e-08
191.73	6.88e-07	4e-08
194	6.807e-07	4e-08
194.3	6.771e-07	4e-08
196.06	6.714e-07	4e-08
198.12	6.633e-07	4e-08
200.02	6.528e-07	4e-08
201.14	6.49e-07	4e-08
201.33	6.473e-07	4e-08
202.03	6.453e-07	4e-08
203.43	6.433e-07	4e-08
203.69	6.393e-07	4e-08
205.9	6.365e-07	4e-08
206.01	6.314e-07	4e-08
208.12	6.28e-07	4e-08
209.43	6.252e-07	4e-08
210.71	6.251e-07	4e-08
210.85	6.212e-07	4e-08
212.5	6.178e-07	4e-08
213.34	6.129e-07	4e-08
214.2	6.114e-07	4e-08
215.75	6.054e-07	4e-08
216.65	6.03e-07	4e-08
217.77	6.005e-07	4e-08
218.08	5.992e-07	4e-08
218.89	5.958e-07	4e-08
220.27	5.916e-07	4e-08
221.46	5.877e-07	4e-08
223.23	5.825e-07	4e-08
224.44	5.777e-07	4e-08
225.56	5.744e-07	4e-08
226.62	5.711e-07	4e-08
227.72	5.678e-07	4e-08
228.68	5.649e-07	4e-08
229.49	5.624e-07	4e-08
230.66	5.589e-07	4e-08
231.48	5.567e-07	4e-08
232.44	5.54e-07	4e-08
233.25	5.517e-07	4e-08
234.06	5.493e-07	4e-08
235	5.467e-07	4e-08
235.81	5.444e-07	4e-08
236.76	5.418e-07	4e-08
237.7	5.393e-07	4e-08
238.65	5.367e-07	4e-08
239.45	5.345e-07	4e-08
240.26	5.324e-07	4e-08
241.37	5.295e-07	4e-08
242.17	5.275e-07	4e-08
242.98	5.255e-07	4e-08
244.08	5.228e-07	4e-08
244.89	5.208e-07	4e-08
245.85	5.185e-07	4e-08
246.66	5.165e-07	4e-08
247.77	5.139e-07	4e-08
248.58	5.12e-07	4e-08
249.38	5.101e-07	4e-08
250.33	5.079e-07	4e-08
251.33	5.055e-07	4e-08
252.14	5.037e-07	4e-08
253.09	5.014e-07	4e-08
253.9	4.997e-07	4e-08
254.7	4.977e-07	4e-08
255.65	4.956e-07	4e-08
256.46	4.938e-07	4e-08
257.26	4.922e-07	4e-08
258.56	4.895e-07	4e-08
259.86	4.867e-07	4e-08
261.02	4.842e-07	4e-08
262.32	4.814e-07	4e-08
263.77	4.782e-07	4e-08
264.93	4.758e-07	4e-08
266.08	4.734e-07	4e-08
267.46	4.706e-07	4e-08
268.62	4.686e-07	4e-08
269.77	4.663e-07	4e-08
271.08	4.638e-07	4e-08
272.24	4.617e-07	4e-08
273.54	4.594e-07	4e-08
274.7	4.573e-07	4e-08
276.01	4.549e-07	4e-08
277.16	4.527e-07	4e-08
278.32	4.506e-07	4e-08
279.53	4.486e-07	4e-08
280.69	4.469e-07	4e-08
281.86	4.452e-07	4e-08
283.2	4.434e-07	4e-08
284.67	4.413e-07	4e-08
285.85	4.396e-07	4e-08
287.18	4.378e-07	4e-08
288.5	4.358e-07	4e-08
289.85	4.341e-07	4e-08
291.04	4.327e-07	4e-08
292.23	4.312e-07	4e-08
293.43	4.296e-07	4e-08
294.63	4.278e-07	4e-08
295.83	4.264e-07	4e-08
297.01	4.25e-07	4e-08
298.14	4.235e-07	4e-08
299.13	4.221e-07	4e-08
299.61	4.217e-07	4e-08

System: tin(II) hypothiodiphosphate (Sn2P2S6) + lead(II) hypothiodiphosphate (Pb2P2S6); phases: Crystal
Fixed: Temperature, K = 292
Fixed: Pressure, kPa = 100
Property: Thermal diffusivity, m2/s (Crystal); method: photopyroelectric calorimeter
Mole fraction of lead(II) hypothiodiphosphate (Pb2P2S6)	Thermal diffusivity, m2/s	uncertainty
0	2.5e-07	4e-08
0.1	2.06e-07	4e-08
0.2	2.55e-07	4e-08
0.3	2.45e-07	4e-08
0.45	2.69e-07	4e-08
0.8	3.27e-07	4e-08
1	4.32e-07	4e-08

System: tin(II) hypothiodiphosphate (Sn2P2S6) + lead(II) hypothiodiphosphate (Pb2P2S6); phases: Crystal
Fixed: Pressure, kPa = 100
Property: Thermal diffusivity, m2/s (Crystal); method: photopyroelectric calorimeter
Temperature, K	Mole fraction of lead(II) hypothiodiphosphate (Pb2P2S6)	Thermal diffusivity, m2/s	uncertainty
60.92	0.1	1.1522e-06	4.23e-08
61.37	0.1	1.1391e-06	4.23e-08
62.09	0.1	1.1188e-06	4.23e-08
62.78	0.1	1.0989e-06	4.23e-08
63.68	0.1	1.0761e-06	4.22e-08
64.63	0.1	1.0518e-06	4.22e-08
65.25	0.1	1.0382e-06	4.22e-08
66.02	0.1	1.0189e-06	4.21e-08
66.83	0.1	1.0003e-06	4.2e-08
67.49	0.1	9.868e-07	4.19e-08
68.18	0.1	9.723e-07	4.19e-08
68.77	0.1	9.608e-07	4.19e-08
69.4	0.1	9.485e-07	4.18e-08
70.03	0.1	9.367e-07	4.18e-08
70.55	0.1	9.272e-07	4.18e-08
71.13	0.1	9.176e-07	4.18e-08
72.03	0.1	9.015e-07	4.17e-08
72.63	0.1	8.914e-07	4.16e-08
73.19	0.1	8.83e-07	4.2e-08
73.73	0.1	8.745e-07	4.16e-08
74.36	0.1	8.651e-07	4.15e-08
74.87	0.1	8.574e-07	4.15e-08
75.38	0.1	8.476e-07	4.15e-08
75.87	0.1	8.426e-07	4.14e-08
76.48	0.1	8.338e-07	4.14e-08
77.02	0.1	8.277e-07	4.14e-08
77.83	0.1	8.158e-07	4.13e-08
78.59	0.1	8.075e-07	4.13e-08
79.19	0.1	7.99e-07	4.1e-08
79.74	0.1	7.924e-07	4.12e-08
80.33	0.1	7.851e-07	4.12e-08
80.7	0.1	7.81e-07	4.1e-08
81.11	0.1	7.764e-07	4.12e-08
81.57	0.1	7.712e-07	4.12e-08
82.22	0.1	7.637e-07	4.12e-08
82.73	0.1	7.588e-07	4.11e-08
83.24	0.1	7.526e-07	4.11e-08
83.86	0.1	7.45e-07	4.1e-08
84.41	0.1	7.401e-07	4.1e-08
84.8	0.1	7.363e-07	4.1e-08
85.26	0.1	7.322e-07	4.1e-08
85.9	0.1	7.254e-07	4.1e-08
86.69	0.1	7.177e-07	4.09e-08
87.59	0.1	7.087e-07	4.09e-08
88.35	0.1	7.021e-07	4.09e-08
88.89	0.1	6.97e-07	4.1e-08
89.52	0.1	6.91e-07	4.1e-08
90.46	0.1	6.828e-07	4.08e-08
91.42	0.1	6.746e-07	4.07e-08
92.22	0.1	6.684e-07	4.07e-08
93.19	0.1	6.602e-07	4.07e-08
94.16	0.1	6.526e-07	4.06e-08
95.68	0.1	6.405e-07	4.06e-08
97.06	0.1	6.327e-07	4.06e-08
98.43	0.1	6.181e-07	4.05e-08
99.86	0.1	6.107e-07	4.05e-08
100.77	0.1	6.05e-07	4e-08
102.22	0.1	5.945e-07	4.04e-08
103.98	0.1	5.865e-07	4.04e-08
104.94	0.1	5.788e-07	4.04e-08
105.22	0.1	5.766e-07	4.04e-08
106.03	0.1	5.727e-07	4.03e-08
106.66	0.1	5.679e-07	4.03e-08
107.31	0.1	5.637e-07	4.03e-08
108.68	0.1	5.553e-07	4.03e-08
109.25	0.1	5.527e-07	4.03e-08
110.16	0.1	5.481e-07	4.03e-08
110.52	0.1	5.457e-07	4.03e-08
110.94	0.1	5.447e-07	4.03e-08
111.52	0.1	5.391e-07	4.03e-08
112.12	0.1	5.394e-07	4.02e-08
112.98	0.1	5.324e-07	4.02e-08
113.79	0.1	5.288e-07	4.02e-08
115.12	0.1	5.204e-07	4.02e-08
115.98	0.1	5.184e-07	4.02e-08
116.56	0.1	5.145e-07	4.02e-08
116.74	0.1	5.131e-07	4.02e-08
117.33	0.1	5.116e-07	4.02e-08
117.74	0.1	5.089e-07	4.02e-08
117.99	0.1	5.079e-07	4.02e-08
118.68	0.1	5.057e-07	4.02e-08
120.76	0.1	4.953e-07	4.02e-08
121.43	0.1	4.917e-07	4.02e-08
122.81	0.1	4.868e-07	4.01e-08
123.88	0.1	4.8e-07	4e-08
125.29	0.1	4.751e-07	4.01e-08
125.79	0.1	4.732e-07	4.01e-08
127.84	0.1	4.643e-07	4.01e-08
128.29	0.1	4.629e-07	4.01e-08
128.61	0.1	4.623e-07	4.01e-08
129.69	0.1	4.577e-07	4.01e-08
130.83	0.1	4.56e-07	4e-08
132.59	0.1	4.47e-07	4e-08
133.22	0.1	4.448e-07	4.01e-08
133.94	0.1	4.388e-07	4.01e-08
135.66	0.1	4.352e-07	4.01e-08
136.45	0.1	4.311e-07	4.01e-08
136.58	0.1	4.317e-07	4.01e-08
137.53	0.1	4.263e-07	4.01e-08
139.46	0.1	4.228e-07	4.01e-08
140.35	0.1	4.18e-07	4e-08
142.79	0.1	4.109e-07	4e-08
144.17	0.1	4.068e-07	4e-08
144.83	0.1	4.064e-07	4e-08
145.26	0.1	4.029e-07	4e-08
145.62	0.1	4.02e-07	4e-08
146.94	0.1	3.981e-07	4e-08
147.71	0.1	3.961e-07	4e-08
149.78	0.1	3.919e-07	4e-08
151.17	0.1	3.854e-07	4e-08
152.93	0.1	3.808e-07	4e-08
154.08	0.1	3.773e-07	4e-08
154.82	0.1	3.777e-07	4e-08
155.81	0.1	3.728e-07	4e-08
157.95	0.1	3.677e-07	4e-08
158.54	0.1	3.665e-07	4e-08
159.54	0.1	3.64e-07	4e-08
160.32	0.1	3.626e-07	4e-08
161.37	0.1	3.594e-07	4e-08
162.81	0.1	3.527e-07	4e-08
163.91	0.1	3.535e-07	4e-08
164.78	0.1	3.521e-07	4e-08
166.51	0.1	3.467e-07	4e-08
167.12	0.1	3.468e-07	4e-08
167.81	0.1	3.447e-07	4e-08
169.12	0.1	3.425e-07	4e-08
169.63	0.1	3.405e-07	4e-08
170.68	0.1	3.386e-07	4e-08
171.03	0.1	3.37e-07	4e-08
173.04	0.1	3.345e-07	4e-08
173.95	0.1	3.316e-07	4e-08
175.38	0.1	3.297e-07	4e-08
177.03	0.1	3.26e-07	4e-08
178.68	0.1	3.219e-07	4e-08
179.21	0.1	3.221e-07	4e-08
179.39	0.1	3.211e-07	4e-08
180.66	0.1	3.157e-07	4e-08
181.77	0.1	3.137e-07	4e-08
182.42	0.1	3.141e-07	4e-08
183.98	0.1	3.118e-07	4e-08
184.31	0.1	3.116e-07	4e-08
185.11	0.1	3.097e-07	4e-08
186.66	0.1	3.054e-07	4e-08
187.47	0.1	3.016e-07	4e-08
188.53	0.1	3.041e-07	4e-08
190.15	0.1	3.005e-07	4e-08
190.8	0.1	3.007e-07	4e-08
192.34	0.1	2.978e-07	4e-08
192.77	0.1	2.966e-07	4e-08
193.99	0.1	2.949e-07	4e-08
195.07	0.1	2.948e-07	4e-08
196.8	0.1	2.902e-07	4e-08
197.49	0.1	2.902e-07	4e-08
198.06	0.1	2.884e-07	4e-08
199.5	0.1	2.861e-07	4e-08
200.27	0.1	2.864e-07	4e-08
201.38	0.1	2.835e-07	4e-08
202.46	0.1	2.831e-07	4e-08
203.95	0.1	2.801e-07	4e-08
204.33	0.1	2.788e-07	4e-08
205.18	0.1	2.78e-07	4e-08
205.37	0.1	2.775e-07	4e-08
205.51	0.1	2.767e-07	4e-08
206.45	0.1	2.763e-07	4e-08
207.35	0.1	2.749e-07	4e-08
207.94	0.1	2.747e-07	4e-08
208.52	0.1	2.745e-07	4e-08
209.95	0.1	2.723e-07	4e-08
210.96	0.1	2.715e-07	4e-08
212.13	0.1	2.68e-07	4e-08
213.44	0.1	2.674e-07	4e-08
214.84	0.1	2.651e-07	4e-08
215.77	0.1	2.631e-07	4e-08
216.63	0.1	2.626e-07	4e-08
218.39	0.1	2.616e-07	4e-08
220.09	0.1	2.593e-07	4e-08
220.63	0.1	2.587e-07	4e-08
221.79	0.1	2.572e-07	4e-08
222.94	0.1	2.559e-07	4e-08
224.23	0.1	2.544e-07	4e-08
225.38	0.1	2.529e-07	4e-08
226.56	0.1	2.516e-07	4e-08
227.71	0.1	2.503e-07	4e-08
229.01	0.1	2.489e-07	4e-08
230.18	0.1	2.477e-07	4e-08
231.33	0.1	2.464e-07	4e-08
232.49	0.1	2.453e-07	4e-08
233.65	0.1	2.441e-07	4e-08
234.8	0.1	2.431e-07	4e-08
236.24	0.1	2.417e-07	4e-08
237.54	0.1	2.405e-07	4e-08
238.69	0.1	2.396e-07	4e-08
239.85	0.1	2.385e-07	4e-08
241	0.1	2.375e-07	4e-08
242.15	0.1	2.366e-07	4e-08
243.45	0.1	2.355e-07	4e-08
244.61	0.1	2.345e-07	4e-08
245.78	0.1	2.334e-07	4e-08
246.95	0.1	2.325e-07	4e-08
248.09	0.1	2.315e-07	4e-08
249.39	0.1	2.305e-07	4e-08
250.69	0.1	2.295e-07	4e-08
251.99	0.1	2.285e-07	4e-08
253.14	0.1	2.277e-07	4e-08
254.29	0.1	2.268e-07	4e-08
255.58	0.1	2.259e-07	4e-08
256.73	0.1	2.251e-07	4e-08
257.88	0.1	2.242e-07	4e-08
259.03	0.1	2.233e-07	4e-08
260.32	0.1	2.224e-07	4e-08
261.61	0.1	2.215e-07	4e-08
263.06	0.1	2.205e-07	4e-08
264.21	0.1	2.197e-07	4e-08
265.37	0.1	2.189e-07	4e-08
266.66	0.1	2.181e-07	4e-08
267.82	0.1	2.173e-07	4e-08
269.1	0.1	2.165e-07	4e-08
270.25	0.1	2.158e-07	4e-08
271.54	0.1	2.15e-07	4e-08
272.7	0.1	2.144e-07	4e-08
273.93	0.1	2.137e-07	4e-08
275.08	0.1	2.131e-07	4e-08
276.22	0.1	2.125e-07	4e-08
277.66	0.1	2.117e-07	4e-08
278.8	0.1	2.112e-07	4e-08
280	0.1	2.107e-07	4e-08
281.16	0.1	2.102e-07	4e-08
282.46	0.1	2.097e-07	4e-08
283.6	0.1	2.092e-07	4e-08
284.75	0.1	2.087e-07	4e-08
285.9	0.1	2.082e-07	4e-08
287.2	0.1	2.076e-07	4e-08
288.5	0.1	2.07e-07	4e-08
289.64	0.1	2.065e-07	4e-08
290.78	0.1	2.061e-07	4e-08
291.89	0.1	2.057e-07	4e-08
293.31	0.1	2.051e-07	4e-08
294.03	0.1	2.048e-07	4e-08
294.3	0.1	2.046e-07	4e-08
294.52	0.1	2.045e-07	4e-08
294.72	0.1	2.044e-07	4e-08
294.92	0.1	2.042e-07	4e-08
295.15	0.1	2.04e-07	4e-08
295.37	0.1	2.039e-07	4e-08
295.58	0.1	2.037e-07	4e-08
295.78	0.1	2.036e-07	4e-08
295.99	0.1	2.035e-07	4e-08
296.2	0.1	2.032e-07	4e-08
296.4	0.1	2.032e-07	4e-08
296.64	0.1	2.03e-07	4e-08
296.88	0.1	2.027e-07	4e-08
297.08	0.1	2.025e-07	4e-08
297.28	0.1	2.023e-07	4e-08
297.49	0.1	2.021e-07	4e-08
297.69	0.1	2.018e-07	4e-08
297.89	0.1	2.015e-07	4e-08
298.09	0.1	2.013e-07	4e-08
298.32	0.1	2.009e-07	4e-08
298.54	0.1	2.005e-07	4e-08
298.75	0.1	2e-07	1e-07
298.95	0.1	2e-07	1e-07
299.16	0.1	2.007e-07	4e-08
299.38	0.1	2.031e-07	4.01e-08
299.75	0.1	2.087e-07	4.01e-08
300.28	0.1	2.162e-07	4.01e-08
300.69	0.1	2.212e-07	4.01e-08
301.03	0.1	2.249e-07	4.01e-08
301.39	0.1	2.284e-07	4e-08
301.7	0.1	2.31e-07	4e-08
302.03	0.1	2.328e-07	4e-08
302.31	0.1	2.338e-07	4e-08
302.64	0.1	2.341e-07	4e-08
302.96	0.1	2.342e-07	4e-08
303.58	0.1	2.344e-07	4e-08
304.24	0.1	2.346e-07	4e-08
304.89	0.1	2.348e-07	4e-08
305.56	0.1	2.35e-07	4e-08
306.25	0.1	2.352e-07	4e-08
306.9	0.1	2.353e-07	4e-08
307.55	0.1	2.354e-07	4e-08
308.2	0.1	2.355e-07	4e-08
309.5	0.1	2.357e-07	4e-08
310.5	0.1	2.357e-07	4e-08
311.03	0.1	2.357e-07	4e-08
312.5	0.1	2.357e-07	4e-08
313.84	0.1	2.357e-07	4e-08
314.5	0.1	2.357e-07	4e-08
315.06	0.1	2.357e-07	4e-08
316.5	0.1	2.357e-07	4e-08
317.25	0.1	2.356e-07	4e-08
318.5	0.1	2.356e-07	4e-08
319.12	0.1	2.356e-07	4e-08
62.3	0.2	1.8055e-06	4.42e-08
62.96	0.2	1.7814e-06	4.02e-08
63.62	0.2	1.7568e-06	4.02e-08
64.27	0.2	1.733e-06	4.1e-08
65	0.2	1.7078e-06	4.02e-08
66.02	0.2	1.669e-06	4e-08
66.88	0.2	1.6378e-06	4.01e-08
67.76	0.2	1.609e-06	4e-08
68.76	0.2	1.5777e-06	4.06e-08
69.27	0.2	1.5638e-06	4.01e-08
70.9	0.2	1.5199e-06	4.02e-08
71.87	0.2	1.4911e-06	4.01e-08
73.05	0.2	1.457e-06	4e-08
73.69	0.2	1.4375e-06	4.01e-08
74.24	0.2	1.4231e-06	4.02e-08
74.71	0.2	1.4118e-06	4.01e-08
75.06	0.2	1.4041e-06	4.01e-08
75.93	0.2	1.3833e-06	4.01e-08
76.34	0.2	1.3744e-06	4.01e-08
77.27	0.2	1.3523e-06	4.01e-08
78.02	0.2	1.3339e-06	4.01e-08
78.48	0.2	1.3239e-06	4.02e-08
79.1	0.2	1.3108e-06	4.01e-08
79.69	0.2	1.2971e-06	4.01e-08
80.28	0.2	1.2854e-06	4.01e-08
81.19	0.2	1.2653e-06	4.01e-08
81.91	0.2	1.2503e-06	4.05e-08
82.53	0.2	1.2372e-06	4.01e-08
83.19	0.2	1.224e-06	4e-08
84.49	0.2	1.1968e-06	4.01e-08
85.3	0.2	1.18e-06	4e-08
85.69	0.2	1.1732e-06	4.01e-08
86.64	0.2	1.1538e-06	4.01e-08
87.23	0.2	1.1424e-06	4e-08
88.27	0.2	1.1211e-06	4.01e-08
88.88	0.2	1.1082e-06	4.01e-08
89.72	0.2	1.0934e-06	4e-08
90.42	0.2	1.0802e-06	4.02e-08
90.93	0.2	1.0714e-06	4.01e-08
91.75	0.2	1.0567e-06	4.01e-08
92.18	0.2	1.0492e-06	4.01e-08
92.74	0.2	1.0399e-06	4.01e-08
93.61	0.2	1.026e-06	4e-08
94.42	0.2	1.0124e-06	4.01e-08
95.06	0.2	1.0013e-06	4.01e-08
96.17	0.2	9.841e-07	4e-08
96.8	0.2	9.743e-07	4.01e-08
97.63	0.2	9.608e-07	4.01e-08
98.34	0.2	9.497e-07	4e-08
99.03	0.2	9.384e-07	4.01e-08
100.21	0.2	9.208e-07	4e-08
101.4	0.2	9.034e-07	4e-08
102	0.2	8.942e-07	4e-08
102.38	0.2	8.89e-07	4e-08
103.25	0.2	8.771e-07	4.02e-08
104.11	0.2	8.65e-07	4e-08
104.82	0.2	8.548e-07	4.01e-08
105.22	0.2	8.49e-07	4e-08
106.66	0.2	8.298e-07	4e-08
107.06	0.2	8.251e-07	4.02e-08
107.61	0.2	8.18e-07	4e-08
108.63	0.2	8.045e-07	4e-08
109.9	0.2	7.885e-07	4e-08
111.14	0.2	7.729e-07	4e-08
112.49	0.2	7.589e-07	4e-08
113.08	0.2	7.523e-07	4e-08
114.13	0.2	7.405e-07	4e-08
114.78	0.2	7.335e-07	4e-08
115.77	0.2	7.239e-07	4.01e-08
116.11	0.2	7.2e-07	4e-08
117.63	0.2	7.045e-07	4e-08
118.45	0.2	6.967e-07	4e-08
118.84	0.2	6.931e-07	4e-08
119.73	0.2	6.844e-07	4e-08
121.26	0.2	6.692e-07	4e-08
122.8	0.2	6.534e-07	4e-08
124.45	0.2	6.417e-07	4e-08
125.61	0.2	6.315e-07	4e-08
126.76	0.2	6.216e-07	4e-08
127.92	0.2	6.12e-07	4e-08
129.08	0.2	6.021e-07	4e-08
130.25	0.2	5.924e-07	4e-08
131.41	0.2	5.832e-07	4e-08
132.57	0.2	5.742e-07	4e-08
133.72	0.2	5.655e-07	4e-08
134.88	0.2	5.57e-07	4e-08
136.04	0.2	5.487e-07	4e-08
137.19	0.2	5.408e-07	4e-08
138.35	0.2	5.33e-07	4e-08
139.51	0.2	5.254e-07	4e-08
140.67	0.2	5.181e-07	4e-08
141.83	0.2	5.109e-07	4e-08
142.99	0.2	5.04e-07	4e-08
144.14	0.2	4.972e-07	4e-08
145.3	0.2	4.907e-07	4e-08
146.45	0.2	4.843e-07	4e-08
147.57	0.2	4.783e-07	4e-08
148.66	0.2	4.726e-07	4e-08
149.66	0.2	4.675e-07	4e-08
150.36	0.2	4.64e-07	4e-08
150.85	0.2	4.616e-07	4e-08
151.55	0.2	4.582e-07	4e-08
152.25	0.2	4.548e-07	4e-08
152.95	0.2	4.515e-07	4e-08
153.65	0.2	4.483e-07	4e-08
154.35	0.2	4.451e-07	4e-08
155.05	0.2	4.419e-07	4e-08
155.75	0.2	4.388e-07	4e-08
156.45	0.2	4.358e-07	4e-08
157.15	0.2	4.328e-07	4e-08
157.85	0.2	4.298e-07	4e-08
158.44	0.2	4.274e-07	4e-08
159.02	0.2	4.25e-07	4e-08
159.59	0.2	4.227e-07	4e-08
160.17	0.2	4.204e-07	4e-08
160.75	0.2	4.181e-07	4e-08
161.33	0.2	4.158e-07	4e-08
161.92	0.2	4.136e-07	4e-08
162.5	0.2	4.114e-07	4e-08
163.08	0.2	4.092e-07	4e-08
163.66	0.2	4.071e-07	4e-08
164.25	0.2	4.049e-07	4e-08
164.83	0.2	4.028e-07	4e-08
165.4	0.2	4.008e-07	4e-08
165.98	0.2	3.988e-07	4e-08
166.55	0.2	3.968e-07	4e-08
167.13	0.2	3.948e-07	4e-08
167.7	0.2	3.929e-07	4e-08
168.28	0.2	3.91e-07	4e-08
168.85	0.2	3.891e-07	4e-08
169.43	0.2	3.872e-07	4e-08
170	0.2	3.854e-07	4e-08
170.58	0.2	3.836e-07	4e-08
171.15	0.2	3.818e-07	4e-08
171.73	0.2	3.8e-07	4e-08
172.31	0.2	3.782e-07	4e-08
172.89	0.2	3.765e-07	4e-08
173.48	0.2	3.748e-07	4e-08
174.06	0.2	3.731e-07	4e-08
174.64	0.2	3.714e-07	4e-08
175.22	0.2	3.697e-07	4e-08
175.86	0.2	3.673e-07	4e-08
176.56	0.2	3.65e-07	4e-08
177.47	0.2	3.624e-07	4e-08
178.51	0.2	3.588e-07	4e-08
179.51	0.2	3.559e-07	4e-08
180.58	0.2	3.532e-07	4e-08
181.68	0.2	3.508e-07	4e-08
182.84	0.2	3.474e-07	4e-08
183.97	0.2	3.447e-07	4e-08
184.99	0.2	3.423e-07	4e-08
185.9	0.2	3.401e-07	4e-08
186.7	0.2	3.379e-07	4e-08
187.39	0.2	3.362e-07	4e-08
188.75	0.2	3.33e-07	4e-08
190.49	0.2	3.285e-07	4e-08
191.69	0.2	3.262e-07	4e-08
193.19	0.2	3.227e-07	4e-08
194.71	0.2	3.194e-07	4e-08
196.08	0.2	3.165e-07	4e-08
197.42	0.2	3.137e-07	4e-08
199.08	0.2	3.103e-07	4e-08
200.41	0.2	3.078e-07	4e-08
201.81	0.2	3.052e-07	4e-08
202.96	0.2	3.029e-07	4e-08
204.11	0.2	3.009e-07	4e-08
205.11	0.2	2.99e-07	4e-08
206.17	0.2	2.97e-07	4e-08
207.16	0.2	2.952e-07	4e-08
208.15	0.2	2.935e-07	4e-08
209.14	0.2	2.917e-07	4e-08
210.12	0.2	2.9e-07	4e-08
211.1	0.2	2.883e-07	4e-08
212.09	0.2	2.867e-07	4e-08
213.07	0.2	2.85e-07	4e-08
214.56	0.2	2.826e-07	4e-08
216.19	0.2	2.801e-07	4e-08
217.44	0.2	2.778e-07	4e-08
218.8	0.2	2.755e-07	4e-08
220.24	0.2	2.732e-07	4e-08
221.6	0.2	2.708e-07	4e-08
222.89	0.2	2.695e-07	4e-08
224.37	0.2	2.674e-07	4e-08
225.58	0.2	2.659e-07	4e-08
226.83	0.2	2.651e-07	4e-08
228.12	0.2	2.628e-07	4e-08
229.19	0.2	2.62e-07	4e-08
230.18	0.2	2.615e-07	4e-08
230.99	0.2	2.602e-07	4e-08
231.59	0.2	2.6e-07	4e-08
231.97	0.2	2.594e-07	4e-08
232.54	0.2	2.589e-07	4e-08
233.32	0.2	2.581e-07	4e-08
233.76	0.2	2.577e-07	4e-08
234.49	0.2	2.569e-07	4e-08
235.13	0.2	2.565e-07	4e-08
235.8	0.2	2.558e-07	4e-08
236.35	0.2	2.552e-07	4e-08
236.93	0.2	2.548e-07	4e-08
237.36	0.2	2.544e-07	4e-08
237.79	0.2	2.539e-07	4e-08
238.28	0.2	2.534e-07	4e-08
238.69	0.2	2.531e-07	4e-08
238.97	0.2	2.527e-07	4e-08
239.29	0.2	2.524e-07	4e-08
239.68	0.2	2.52e-07	4e-08
239.98	0.2	2.517e-07	4e-08
240.42	0.2	2.512e-07	4e-08
240.77	0.2	2.508e-07	4e-08
241.12	0.2	2.504e-07	4e-08
241.44	0.2	2.501e-07	4e-08
241.73	0.2	2.498e-07	4e-08
242.08	0.2	2.496e-07	4e-08
242.29	0.2	2.503e-07	4e-08
242.39	0.2	2.507e-07	4e-08
242.51	0.2	2.514e-07	4e-08
242.72	0.2	2.533e-07	4e-08
242.84	0.2	2.547e-07	4e-08
242.95	0.2	2.561e-07	4e-08
243.16	0.2	2.582e-07	4e-08
243.31	0.2	2.601e-07	4e-08
243.49	0.2	2.618e-07	4e-08
243.66	0.2	2.633e-07	4e-08
243.86	0.2	2.648e-07	4e-08
244.02	0.2	2.658e-07	4e-08
244.14	0.2	2.663e-07	4e-08
244.3	0.2	2.67e-07	4e-08
244.44	0.2	2.674e-07	4e-08
244.7	0.2	2.679e-07	4e-08
244.98	0.2	2.683e-07	4e-08
245.23	0.2	2.685e-07	4e-08
245.66	0.2	2.687e-07	4e-08
245.91	0.2	2.687e-07	4e-08
246.15	0.2	2.689e-07	4e-08
246.44	0.2	2.689e-07	4e-08
246.69	0.2	2.69e-07	4e-08
246.98	0.2	2.689e-07	4e-08
247.26	0.2	2.689e-07	4e-08
247.55	0.2	2.689e-07	4e-08
247.85	0.2	2.69e-07	4e-08
248.1	0.2	2.689e-07	4e-08
248.39	0.2	2.689e-07	4e-08
248.66	0.2	2.688e-07	4e-08
248.98	0.2	2.688e-07	4e-08
249.23	0.2	2.688e-07	4e-08
249.48	0.2	2.687e-07	4e-08
249.73	0.2	2.687e-07	4e-08
249.97	0.2	2.685e-07	4e-08
250.3	0.2	2.685e-07	4e-08
250.56	0.2	2.684e-07	4e-08
250.81	0.2	2.683e-07	4e-08
251.05	0.2	2.684e-07	4e-08
251.31	0.2	2.683e-07	4e-08
251.59	0.2	2.683e-07	4e-08
251.91	0.2	2.681e-07	4e-08
252.16	0.2	2.681e-07	4e-08
252.41	0.2	2.679e-07	4e-08
252.69	0.2	2.678e-07	4e-08
252.94	0.2	2.677e-07	4e-08
253.19	0.2	2.678e-07	4e-08
253.49	0.2	2.677e-07	4e-08
253.75	0.2	2.675e-07	4e-08
254	0.2	2.674e-07	4e-08
254.25	0.2	2.673e-07	4e-08
254.54	0.2	2.673e-07	4e-08
254.78	0.2	2.672e-07	4e-08
255.03	0.2	2.671e-07	4e-08
255.28	0.2	2.67e-07	4e-08
255.53	0.2	2.669e-07	4e-08
255.81	0.2	2.668e-07	4e-08
256.06	0.2	2.667e-07	4e-08
256.31	0.2	2.666e-07	4e-08
256.55	0.2	2.666e-07	4e-08
256.84	0.2	2.665e-07	4e-08
257.09	0.2	2.663e-07	4e-08
257.38	0.2	2.663e-07	4e-08
257.63	0.2	2.661e-07	4e-08
257.88	0.2	2.66e-07	4e-08
258.13	0.2	2.659e-07	4e-08
258.45	0.2	2.658e-07	4e-08
258.73	0.2	2.657e-07	4e-08
258.98	0.2	2.657e-07	4e-08
259.23	0.2	2.655e-07	4e-08
259.48	0.2	2.655e-07	4e-08
259.73	0.2	2.654e-07	4e-08
259.98	0.2	2.653e-07	4e-08
260.23	0.2	2.651e-07	4e-08
260.47	0.2	2.651e-07	4e-08
260.89	0.2	2.649e-07	4e-08
261.62	0.2	2.646e-07	4e-08
262.3	0.2	2.643e-07	4e-08
263	0.2	2.641e-07	4e-08
263.72	0.2	2.638e-07	4e-08
264.39	0.2	2.633e-07	4e-08
265.16	0.2	2.631e-07	4e-08
265.82	0.2	2.629e-07	4e-08
266.49	0.2	2.625e-07	4e-08
267.19	0.2	2.623e-07	4e-08
267.92	0.2	2.62e-07	4e-08
268.62	0.2	2.618e-07	4e-08
269.29	0.2	2.615e-07	4e-08
269.96	0.2	2.612e-07	4e-08
270.7	0.2	2.61e-07	4e-08
271.36	0.2	2.607e-07	4e-08
272.05	0.2	2.604e-07	4e-08
272.71	0.2	2.602e-07	4e-08
273.43	0.2	2.599e-07	4e-08
274.12	0.2	2.597e-07	4e-08
274.82	0.2	2.595e-07	4e-08
275.52	0.2	2.593e-07	4e-08
276.21	0.2	2.591e-07	4e-08
276.91	0.2	2.588e-07	4e-08
277.57	0.2	2.586e-07	4e-08
278.26	0.2	2.585e-07	4e-08
278.97	0.2	2.583e-07	4e-08
279.63	0.2	2.581e-07	4e-08
280.3	0.2	2.579e-07	4e-08
281	0.2	2.578e-07	4e-08
281.67	0.2	2.576e-07	4e-08
282.39	0.2	2.574e-07	4e-08
283.09	0.2	2.573e-07	4e-08
283.75	0.2	2.572e-07	4e-08
284.43	0.2	2.57e-07	4e-08
285.1	0.2	2.568e-07	4e-08
285.77	0.2	2.567e-07	4e-08
286.44	0.2	2.566e-07	4e-08
287.13	0.2	2.564e-07	4e-08
287.8	0.2	2.564e-07	4e-08
288.49	0.2	2.563e-07	4e-08
289.18	0.2	2.561e-07	4e-08
289.87	0.2	2.559e-07	4e-08
290.53	0.2	2.558e-07	4e-08
291.22	0.2	2.557e-07	4e-08
291.88	0.2	2.556e-07	4e-08
292.49	0.2	2.555e-07	4e-08
292.75	0.2	2.554e-07	4e-08
61.73	0.3	7.565e-07	4.1e-08
62.29	0.3	7.521e-07	4.1e-08
62.87	0.3	7.451e-07	4.07e-08
63.66	0.3	7.352e-07	4.08e-08
64.6	0.3	7.251e-07	4.08e-08
65.32	0.3	7.171e-07	4.07e-08
66.44	0.3	7.038e-07	4.06e-08
69.48	0.3	6.707e-07	4.05e-08
70.77	0.3	6.569e-07	4.06e-08
71.58	0.3	6.492e-07	4.05e-08
72.82	0.3	6.376e-07	4.05e-08
73.71	0.3	6.288e-07	4.05e-08
74.84	0.3	6.188e-07	4.05e-08
75.65	0.3	6.119e-07	4.04e-08
76.59	0.3	6.042e-07	4.04e-08
77.6	0.3	5.949e-07	4.04e-08
78.82	0.3	5.851e-07	4.04e-08
79.77	0.3	5.776e-07	4.04e-08
80.47	0.3	5.726e-07	4.04e-08
81.16	0.3	5.674e-07	4.03e-08
82.61	0.3	5.565e-07	4.04e-08
83.43	0.3	5.518e-07	4.04e-08
84.1	0.3	5.472e-07	4.04e-08
84.79	0.3	5.433e-07	4.04e-08
85.81	0.3	5.361e-07	4.03e-08
86.55	0.3	5.31e-07	4e-08
87.03	0.3	5.282e-07	4.03e-08
87.5	0.3	5.253e-07	4.03e-08
87.99	0.3	5.218e-07	4.03e-08
88.43	0.3	5.193e-07	4.03e-08
89.25	0.3	5.144e-07	4.03e-08
90.02	0.3	5.099e-07	4.02e-08
90.66	0.3	5.062e-07	4.04e-08
91.22	0.3	5.027e-07	4.02e-08
91.87	0.3	4.984e-07	4.02e-08
93.1	0.3	4.92e-07	4e-08
94.25	0.3	4.846e-07	4.02e-08
95.21	0.3	4.81e-07	4e-08
96.01	0.3	4.762e-07	4.02e-08
97.05	0.3	4.704e-07	4.02e-08
97.89	0.3	4.657e-07	4.02e-08
99.14	0.3	4.599e-07	4.02e-08
100.36	0.3	4.549e-07	4.02e-08
101.75	0.3	4.473e-07	4.01e-08
102.6	0.3	4.435e-07	4.02e-08
103.7	0.3	4.375e-07	4.01e-08
104.68	0.3	4.325e-07	4.01e-08
105.7	0.3	4.279e-07	4.01e-08
106.59	0.3	4.242e-07	4.01e-08
107.33	0.3	4.207e-07	4.01e-08
108.54	0.3	4.156e-07	4.01e-08
109.72	0.3	4.102e-07	4.01e-08
110.49	0.3	4.073e-07	4.01e-08
111.63	0.3	4.022e-07	4.01e-08
112.67	0.3	3.994e-07	4.01e-08
113.53	0.3	3.953e-07	4.01e-08
114.05	0.3	3.936e-07	4.01e-08
114.77	0.3	3.911e-07	4.01e-08
115.43	0.3	3.887e-07	4.01e-08
116.44	0.3	3.846e-07	4.01e-08
117.47	0.3	3.811e-07	4.01e-08
118.47	0.3	3.77e-07	4e-08
119.61	0.3	3.737e-07	4.01e-08
120.27	0.3	3.714e-07	4.01e-08
121.24	0.3	3.678e-07	4.01e-08
121.73	0.3	3.662e-07	4.01e-08
122.1	0.3	3.651e-07	4.01e-08
122.29	0.3	3.644e-07	4.01e-08
122.73	0.3	3.629e-07	4.01e-08
123.25	0.3	3.613e-07	4.01e-08
123.73	0.3	3.598e-07	4e-08
124.28	0.3	3.58e-07	4e-08
124.65	0.3	3.569e-07	4e-08
125.33	0.3	3.547e-07	4.01e-08
125.99	0.3	3.526e-07	4.01e-08
126.41	0.3	3.515e-07	4e-08
127.13	0.3	3.492e-07	4e-08
127.75	0.3	3.474e-07	4e-08
128.77	0.3	3.445e-07	4e-08
129.22	0.3	3.432e-07	4e-08
129.67	0.3	3.421e-07	4e-08
130.12	0.3	3.408e-07	4e-08
130.56	0.3	3.395e-07	4e-08
131.04	0.3	3.383e-07	4e-08
131.56	0.3	3.369e-07	4e-08
132	0.3	3.357e-07	4e-08
132.36	0.3	3.345e-07	4e-08
132.74	0.3	3.337e-07	4e-08
133.1	0.3	3.327e-07	4e-08
133.51	0.3	3.316e-07	4e-08
133.89	0.3	3.307e-07	4e-08
134.38	0.3	3.293e-07	4e-08
135.01	0.3	3.276e-07	4e-08
135.5	0.3	3.264e-07	4e-08
136.06	0.3	3.25e-07	4e-08
136.93	0.3	3.23e-07	4e-08
138.01	0.3	3.204e-07	4e-08
138.53	0.3	3.191e-07	4e-08
139.21	0.3	3.176e-07	4e-08
139.61	0.3	3.166e-07	4e-08
140.57	0.3	3.143e-07	4e-08
141.28	0.3	3.125e-07	4e-08
142.22	0.3	3.105e-07	4e-08
142.67	0.3	3.094e-07	4e-08
143.35	0.3	3.08e-07	4e-08
143.88	0.3	3.067e-07	4e-08
144.47	0.3	3.051e-07	4e-08
145.07	0.3	3.038e-07	4e-08
146.63	0.3	3.005e-07	4e-08
147.19	0.3	2.996e-07	4e-08
147.92	0.3	2.978e-07	4e-08
148.76	0.3	2.96e-07	4e-08
150.16	0.3	2.927e-07	4e-08
150.5	0.3	2.928e-07	4e-08
151.1	0.3	2.915e-07	4e-08
151.62	0.3	2.903e-07	4e-08
152.46	0.3	2.891e-07	4e-08
153	0.3	2.882e-07	4e-08
153.78	0.3	2.869e-07	4e-08
154.36	0.3	2.859e-07	4e-08
154.86	0.3	2.849e-07	4e-08
155.75	0.3	2.831e-07	4e-08
156.54	0.3	2.819e-07	4e-08
157.29	0.3	2.804e-07	4e-08
158.01	0.3	2.792e-07	4e-08
158.49	0.3	2.785e-07	4e-08
159.14	0.3	2.774e-07	4e-08
159.98	0.3	2.759e-07	4e-08
160.58	0.3	2.75e-07	4e-08
161.15	0.3	2.741e-07	4e-08
162.06	0.3	2.726e-07	4e-08
163.24	0.3	2.71e-07	4e-08
164.57	0.3	2.691e-07	4e-08
166.22	0.3	2.664e-07	4e-08
167.84	0.3	2.643e-07	4e-08
169.47	0.3	2.624e-07	4e-08
170.27	0.3	2.611e-07	4e-08
171.31	0.3	2.599e-07	4e-08
172.71	0.3	2.578e-07	4e-08
173.94	0.3	2.565e-07	4e-08
175.05	0.3	2.551e-07	4e-08
176.1	0.3	2.538e-07	4e-08
177.07	0.3	2.524e-07	4e-08
177.73	0.3	2.515e-07	4e-08
178.44	0.3	2.507e-07	4e-08
179.29	0.3	2.497e-07	4e-08
180.07	0.3	2.488e-07	4e-08
180.53	0.3	2.484e-07	4e-08
180.9	0.3	2.48e-07	4e-08
181.29	0.3	2.477e-07	4e-08
181.63	0.3	2.476e-07	4e-08
182.01	0.3	2.471e-07	4e-08
182.25	0.3	2.469e-07	4e-08
182.5	0.3	2.466e-07	4e-08
182.74	0.3	2.464e-07	4e-08
182.99	0.3	2.462e-07	4e-08
183.26	0.3	2.459e-07	4e-08
183.51	0.3	2.458e-07	4e-08
183.76	0.3	2.455e-07	4e-08
184.01	0.3	2.452e-07	4e-08
184.25	0.3	2.45e-07	4e-08
184.51	0.3	2.447e-07	4e-08
184.76	0.3	2.445e-07	4e-08
185	0.3	2.442e-07	4e-08
185.26	0.3	2.439e-07	4e-08
185.5	0.3	2.437e-07	4e-08
185.75	0.3	2.435e-07	4e-08
186	0.3	2.433e-07	4e-08
186.25	0.3	2.43e-07	4e-08
186.49	0.3	2.429e-07	4e-08
186.74	0.3	2.425e-07	4e-08
186.99	0.3	2.424e-07	4e-08
187.24	0.3	2.42e-07	4e-08
187.48	0.3	2.418e-07	4e-08
187.74	0.3	2.415e-07	4e-08
187.98	0.3	2.413e-07	4e-08
188.23	0.3	2.41e-07	4e-08
188.48	0.3	2.408e-07	4e-08
188.73	0.3	2.405e-07	4e-08
188.97	0.3	2.401e-07	4e-08
189.27	0.3	2.399e-07	4e-08
189.51	0.3	2.396e-07	4e-08
189.76	0.3	2.394e-07	4e-08
190	0.3	2.39e-07	4e-08
190.26	0.3	2.387e-07	4e-08
190.51	0.3	2.384e-07	4e-08
190.74	0.3	2.38e-07	4e-08
191	0.3	2.376e-07	4e-08
191.25	0.3	2.373e-07	4e-08
191.49	0.3	2.37e-07	4e-08
191.74	0.3	2.365e-07	4e-08
191.98	0.3	2.361e-07	4e-08
192.24	0.3	2.354e-07	4e-08
192.49	0.3	2.349e-07	4e-08
192.74	0.3	2.343e-07	4e-08
192.98	0.3	2.335e-07	4e-08
193.23	0.3	2.324e-07	4e-08
193.48	0.3	2.311e-07	4e-08
193.77	0.3	2.291e-07	4e-08
194.01	0.3	2.273e-07	4e-08
194.27	0.3	2.263e-07	4e-08
194.51	0.3	2.268e-07	4e-08
194.76	0.3	2.301e-07	4e-08
195.03	0.3	2.351e-07	4e-08
195.32	0.3	2.403e-07	4e-08
195.57	0.3	2.438e-07	4e-08
195.85	0.3	2.472e-07	4e-08
196.13	0.3	2.5e-07	4e-08
196.38	0.3	2.525e-07	4e-08
196.63	0.3	2.548e-07	4e-08
196.87	0.3	2.566e-07	4e-08
197.12	0.3	2.582e-07	4e-08
197.36	0.3	2.595e-07	4e-08
197.61	0.3	2.609e-07	4e-08
197.86	0.3	2.618e-07	4e-08
198.1	0.3	2.627e-07	4e-08
198.39	0.3	2.635e-07	4e-08
198.66	0.3	2.639e-07	4e-08
198.92	0.3	2.645e-07	4e-08
199.2	0.3	2.649e-07	4e-08
199.73	0.3	2.656e-07	4e-08
200.06	0.3	2.659e-07	4e-08
200.3	0.3	2.663e-07	4e-08
200.55	0.3	2.665e-07	4e-08
200.8	0.3	2.667e-07	4e-08
201.05	0.3	2.67e-07	4e-08
201.34	0.3	2.671e-07	4e-08
201.62	0.3	2.672e-07	4e-08
201.87	0.3	2.675e-07	4e-08
202.12	0.3	2.677e-07	4e-08
202.36	0.3	2.679e-07	4e-08
202.62	0.3	2.681e-07	4e-08
202.89	0.3	2.68e-07	4e-08
203.18	0.3	2.684e-07	4e-08
203.43	0.3	2.685e-07	4e-08
203.67	0.3	2.685e-07	4e-08
203.95	0.3	2.687e-07	4e-08
204.22	0.3	2.687e-07	4e-08
204.47	0.3	2.689e-07	4e-08
204.74	0.3	2.69e-07	4e-08
204.99	0.3	2.692e-07	4e-08
205.24	0.3	2.691e-07	4e-08
205.49	0.3	2.692e-07	4e-08
205.74	0.3	2.693e-07	4e-08
205.98	0.3	2.695e-07	4e-08
206.23	0.3	2.695e-07	4e-08
206.48	0.3	2.697e-07	4e-08
206.76	0.3	2.696e-07	4e-08
207.01	0.3	2.696e-07	4e-08
207.35	0.3	2.696e-07	4e-08
207.6	0.3	2.699e-07	4e-08
207.88	0.3	2.697e-07	4e-08
208.14	0.3	2.698e-07	4e-08
208.4	0.3	2.698e-07	4e-08
208.72	0.3	2.697e-07	4e-08
208.97	0.3	2.697e-07	4e-08
209.25	0.3	2.697e-07	4e-08
209.78	0.3	2.696e-07	4e-08
211.03	0.3	2.695e-07	4e-08
211.81	0.3	2.694e-07	4e-08
212.43	0.3	2.694e-07	4e-08
212.93	0.3	2.696e-07	4e-08
213.51	0.3	2.696e-07	4e-08
214.12	0.3	2.695e-07	4e-08
214.77	0.3	2.696e-07	4e-08
215.29	0.3	2.695e-07	4e-08
216.09	0.3	2.694e-07	4e-08
216.58	0.3	2.693e-07	4e-08
217.28	0.3	2.692e-07	4e-08
217.92	0.3	2.691e-07	4e-08
218.62	0.3	2.691e-07	4e-08
219.61	0.3	2.691e-07	4e-08
220.71	0.3	2.687e-07	4e-08
221.86	0.3	2.684e-07	4e-08
223.54	0.3	2.679e-07	4e-08
224.95	0.3	2.673e-07	4e-08
226.5	0.3	2.668e-07	4e-08
228.37	0.3	2.66e-07	4e-08
230.01	0.3	2.653e-07	4e-08
231.89	0.3	2.647e-07	4e-08
233.2	0.3	2.642e-07	4e-08
234.37	0.3	2.636e-07	4e-08
236.01	0.3	2.63e-07	4e-08
237.66	0.3	2.621e-07	4e-08
239.11	0.3	2.615e-07	4e-08
240.42	0.3	2.612e-07	4e-08
241.44	0.3	2.61e-07	4e-08
242.35	0.3	2.605e-07	4e-08
242.8	0.3	2.607e-07	4e-08
243.67	0.3	2.604e-07	4e-08
244.72	0.3	2.6e-07	4e-08
245.2	0.3	2.598e-07	4e-08
246.16	0.3	2.596e-07	4e-08
246.96	0.3	2.595e-07	4e-08
247.58	0.3	2.594e-07	4e-08
248.13	0.3	2.593e-07	4e-08
248.69	0.3	2.592e-07	4e-08
250.29	0.3	2.589e-07	4e-08
251.27	0.3	2.586e-07	4e-08
252.72	0.3	2.581e-07	4e-08
253.61	0.3	2.578e-07	4e-08
254.48	0.3	2.575e-07	4e-08
255.29	0.3	2.573e-07	4e-08
256.13	0.3	2.57e-07	4e-08
256.8	0.3	2.568e-07	4e-08
257.91	0.3	2.565e-07	4e-08
258.96	0.3	2.562e-07	4e-08
259.79	0.3	2.558e-07	4e-08
260.6	0.3	2.556e-07	4e-08
261.62	0.3	2.552e-07	4e-08
262.9	0.3	2.547e-07	4e-08
263.57	0.3	2.545e-07	4e-08
264.93	0.3	2.54e-07	4e-08
265.73	0.3	2.537e-07	4e-08
266.78	0.3	2.533e-07	4e-08
267.74	0.3	2.53e-07	4e-08
268.61	0.3	2.527e-07	4e-08
269.27	0.3	2.525e-07	4e-08
270.39	0.3	2.521e-07	4e-08
271.35	0.3	2.517e-07	4e-08
272.18	0.3	2.515e-07	4e-08
273.03	0.3	2.512e-07	4e-08
273.84	0.3	2.51e-07	4e-08
274.97	0.3	2.506e-07	4e-08
275.78	0.3	2.504e-07	4e-08
276.91	0.3	2.5e-07	4e-08
277.77	0.3	2.497e-07	4e-08
278.58	0.3	2.494e-07	4e-08
279.39	0.3	2.492e-07	4e-08
280.01	0.3	2.49e-07	4e-08
280.34	0.3	2.488e-07	4e-08
281.22	0.3	2.485e-07	4e-08
282.14	0.3	2.484e-07	4e-08
283.2	0.3	2.479e-07	4e-08
284.33	0.3	2.476e-07	4e-08
285.49	0.3	2.473e-07	4e-08
286.36	0.3	2.469e-07	4e-08
287.5	0.3	2.465e-07	4e-08
288.37	0.3	2.461e-07	4e-08
289.61	0.3	2.459e-07	4e-08
290.79	0.3	2.455e-07	4e-08
291.4	0.3	2.454e-07	4e-08
292.49	0.3	2.45e-07	4e-08
60.92	0.45	7.143e-07	4e-08
61.93	0.45	7.018e-07	4e-08
62.8	0.45	6.9e-07	4e-08
64.19	0.45	6.721e-07	4e-08
65.46	0.45	6.565e-07	4e-08
66.84	0.45	6.394e-07	4e-08
67.95	0.45	6.262e-07	4e-08
68.94	0.45	6.162e-07	4e-08
70.16	0.45	6.044e-07	4e-08
71.11	0.45	5.935e-07	4e-08
71.92	0.45	5.861e-07	4e-08
72.95	0.45	5.765e-07	4e-08
74.18	0.45	5.659e-07	4e-08
75.2	0.45	5.576e-07	4e-08
75.87	0.45	5.517e-07	4e-08
77.03	0.45	5.425e-07	4e-08
77.95	0.45	5.362e-07	4e-08
79.25	0.45	5.262e-07	4e-08
80.36	0.45	5.186e-07	4e-08
81.63	0.45	5.099e-07	4e-08
82.11	0.45	5.069e-07	4e-08
82.91	0.45	5.022e-07	4e-08
84.45	0.45	4.927e-07	4e-08
85.37	0.45	4.867e-07	4e-08
87	0.45	4.782e-07	4e-08
87.62	0.45	4.743e-07	4e-08
89.09	0.45	4.665e-07	4e-08
90.09	0.45	4.612e-07	4e-08
91.48	0.45	4.539e-07	4e-08
92.19	0.45	4.509e-07	4e-08
93.33	0.45	4.457e-07	4e-08
94.08	0.45	4.434e-07	4e-08
95.08	0.45	4.382e-07	4e-08
95.8	0.45	4.349e-07	4e-08
96.28	0.45	4.33e-07	4e-08
96.72	0.45	4.312e-07	4e-08
97.35	0.45	4.287e-07	4e-08
97.74	0.45	4.27e-07	4e-08
98.1	0.45	4.257e-07	4e-08
98.5	0.45	4.24e-07	4e-08
99.21	0.45	4.214e-07	4e-08
99.57	0.45	4.203e-07	4e-08
99.93	0.45	4.189e-07	4e-08
100.56	0.45	4.163e-07	4e-08
100.95	0.45	4.149e-07	4e-08
101.42	0.45	4.133e-07	4e-08
101.86	0.45	4.117e-07	4e-08
102.34	0.45	4.102e-07	4e-08
102.86	0.45	4.083e-07	4e-08
103.29	0.45	4.067e-07	4e-08
103.73	0.45	4.054e-07	4e-08
104.49	0.45	4.028e-07	4e-08
104.85	0.45	4.017e-07	4e-08
105.52	0.45	3.996e-07	4e-08
105.96	0.45	3.98e-07	4e-08
106.32	0.45	3.969e-07	4e-08
106.72	0.45	3.959e-07	4e-08
107.47	0.45	3.934e-07	4e-08
107.83	0.45	3.923e-07	4e-08
108.41	0.45	3.908e-07	4e-08
108.88	0.45	3.892e-07	4e-08
109.31	0.45	3.879e-07	4e-08
109.71	0.45	3.869e-07	4e-08
110.15	0.45	3.856e-07	4e-08
110.62	0.45	3.844e-07	4e-08
110.74	0.45	3.838e-07	4e-08
110.84	0.45	3.836e-07	4e-08
111.08	0.45	3.829e-07	4e-08
111.37	0.45	3.821e-07	4e-08
111.68	0.45	3.81e-07	4e-08
112	0.45	3.802e-07	4e-08
112.33	0.45	3.794e-07	4e-08
112.65	0.45	3.784e-07	4e-08
112.97	0.45	3.776e-07	4e-08
113.3	0.45	3.768e-07	4e-08
113.65	0.45	3.759e-07	4e-08
113.97	0.45	3.75e-07	4e-08
114.3	0.45	3.741e-07	4e-08
114.62	0.45	3.733e-07	4e-08
114.94	0.45	3.726e-07	4e-08
115.26	0.45	3.717e-07	4e-08
115.58	0.45	3.709e-07	4e-08
115.9	0.45	3.701e-07	4e-08
116.21	0.45	3.693e-07	4e-08
116.53	0.45	3.684e-07	4e-08
116.85	0.45	3.678e-07	4e-08
117.17	0.45	3.669e-07	4e-08
117.49	0.45	3.661e-07	4e-08
117.81	0.45	3.653e-07	4e-08
118.13	0.45	3.645e-07	4e-08
118.48	0.45	3.636e-07	4e-08
118.8	0.45	3.63e-07	4e-08
119.12	0.45	3.623e-07	4e-08
119.45	0.45	3.618e-07	4e-08
119.83	0.45	3.609e-07	4e-08
120.15	0.45	3.605e-07	4e-08
120.55	0.45	3.595e-07	4e-08
120.88	0.45	3.589e-07	4e-08
121.28	0.45	3.579e-07	4e-08
121.6	0.45	3.578e-07	4e-08
121.96	0.45	3.569e-07	4e-08
122.28	0.45	3.564e-07	4e-08
122.6	0.45	3.555e-07	4e-08
122.92	0.45	3.552e-07	4e-08
123.34	0.45	3.545e-07	4e-08
123.66	0.45	3.542e-07	4e-08
124	0.45	3.542e-07	4e-08
124.32	0.45	3.539e-07	4e-08
124.64	0.45	3.537e-07	4e-08
124.99	0.45	3.537e-07	4e-08
125.51	0.45	3.539e-07	4e-08
125.9	0.45	3.54e-07	4e-08
126.27	0.45	3.543e-07	4e-08
126.64	0.45	3.545e-07	4e-08
126.96	0.45	3.551e-07	4e-08
127.29	0.45	3.553e-07	4e-08
127.61	0.45	3.56e-07	4e-08
127.95	0.45	3.562e-07	4e-08
128.3	0.45	3.567e-07	4e-08
128.68	0.45	3.568e-07	4e-08
129	0.45	3.573e-07	4e-08
129.33	0.45	3.573e-07	4e-08
129.66	0.45	3.574e-07	4e-08
130.3	0.45	3.58e-07	4e-08
130.82	0.45	3.582e-07	4e-08
131.54	0.45	3.584e-07	4e-08
131.91	0.45	3.581e-07	4e-08
132.33	0.45	3.584e-07	4e-08
132.78	0.45	3.578e-07	4e-08
133.22	0.45	3.574e-07	4e-08
133.74	0.45	3.573e-07	4e-08
134.34	0.45	3.57e-07	4e-08
134.71	0.45	3.57e-07	4e-08
135.13	0.45	3.568e-07	4e-08
135.57	0.45	3.566e-07	4e-08
136.07	0.45	3.564e-07	4e-08
136.41	0.45	3.563e-07	4e-08
136.89	0.45	3.559e-07	4e-08
137.36	0.45	3.552e-07	4e-08
137.98	0.45	3.554e-07	4e-08
138.82	0.45	3.548e-07	4e-08
139.27	0.45	3.546e-07	4e-08
139.82	0.45	3.542e-07	4e-08
140.51	0.45	3.537e-07	4e-08
140.66	0.45	3.537e-07	4e-08
140.89	0.45	3.533e-07	4e-08
141.34	0.45	3.529e-07	4e-08
141.66	0.45	3.529e-07	4e-08
142.18	0.45	3.524e-07	4e-08
142.66	0.45	3.521e-07	4e-08
143.94	0.45	3.513e-07	4e-08
144.59	0.45	3.506e-07	4e-08
145.97	0.45	3.497e-07	4e-08
147.01	0.45	3.489e-07	4e-08
147.69	0.45	3.484e-07	4e-08
149.23	0.45	3.466e-07	4e-08
150.42	0.45	3.456e-07	4e-08
151.74	0.45	3.447e-07	4e-08
152.81	0.45	3.443e-07	4e-08
153.56	0.45	3.437e-07	4e-08
155.4	0.45	3.423e-07	4e-08
156.78	0.45	3.413e-07	4e-08
157.62	0.45	3.405e-07	4e-08
159.74	0.45	3.389e-07	4e-08
160.88	0.45	3.379e-07	4e-08
161.94	0.45	3.372e-07	4e-08
163.45	0.45	3.359e-07	4e-08
165.08	0.45	3.35e-07	4e-08
166.7	0.45	3.339e-07	4e-08
168.21	0.45	3.33e-07	4e-08
169.36	0.45	3.32e-07	4e-08
170.59	0.45	3.311e-07	4e-08
171.43	0.45	3.305e-07	4e-08
172.32	0.45	3.299e-07	4e-08
173.22	0.45	3.294e-07	4e-08
174.12	0.45	3.288e-07	4e-08
175.02	0.45	3.282e-07	4e-08
175.91	0.45	3.276e-07	4e-08
176.8	0.45	3.271e-07	4e-08
177.69	0.45	3.265e-07	4e-08
178.58	0.45	3.259e-07	4e-08
179.47	0.45	3.254e-07	4e-08
180.36	0.45	3.248e-07	4e-08
181.25	0.45	3.243e-07	4e-08
182.14	0.45	3.237e-07	4e-08
183.03	0.45	3.232e-07	4e-08
183.92	0.45	3.227e-07	4e-08
184.81	0.45	3.221e-07	4e-08
185.71	0.45	3.216e-07	4e-08
186.6	0.45	3.211e-07	4e-08
187.5	0.45	3.205e-07	4e-08
188.39	0.45	3.2e-07	4e-08
189.28	0.45	3.195e-07	4e-08
190.18	0.45	3.189e-07	4e-08
191.07	0.45	3.184e-07	4e-08
191.96	0.45	3.179e-07	4e-08
192.85	0.45	3.174e-07	4e-08
193.75	0.45	3.169e-07	4e-08
194.64	0.45	3.164e-07	4e-08
195.53	0.45	3.159e-07	4e-08
196.42	0.45	3.154e-07	4e-08
197.31	0.45	3.149e-07	4e-08
198.19	0.45	3.144e-07	4e-08
199.08	0.45	3.139e-07	4e-08
199.97	0.45	3.134e-07	4e-08
200.87	0.45	3.129e-07	4e-08
201.76	0.45	3.124e-07	4e-08
202.65	0.45	3.119e-07	4e-08
203.55	0.45	3.114e-07	4e-08
204.44	0.45	3.109e-07	4e-08
205.33	0.45	3.104e-07	4e-08
206.23	0.45	3.1e-07	4e-08
207.12	0.45	3.095e-07	4e-08
208.02	0.45	3.09e-07	4e-08
208.9	0.45	3.085e-07	4e-08
209.79	0.45	3.081e-07	4e-08
210.67	0.45	3.076e-07	4e-08
211.56	0.45	3.071e-07	4e-08
212.44	0.45	3.067e-07	4e-08
213.34	0.45	3.062e-07	4e-08
214.23	0.45	3.057e-07	4e-08
215.12	0.45	3.053e-07	4e-08
216.02	0.45	3.048e-07	4e-08
216.92	0.45	3.043e-07	4e-08
217.81	0.45	3.039e-07	4e-08
218.71	0.45	3.034e-07	4e-08
219.6	0.45	3.029e-07	4e-08
220.5	0.45	3.025e-07	4e-08
221.38	0.45	3.02e-07	4e-08
222.27	0.45	3.016e-07	4e-08
223.15	0.45	3.011e-07	4e-08
224.04	0.45	3.006e-07	4e-08
224.93	0.45	3.002e-07	4e-08
225.81	0.45	2.998e-07	4e-08
226.7	0.45	2.993e-07	4e-08
227.59	0.45	2.988e-07	4e-08
228.48	0.45	2.984e-07	4e-08
229.38	0.45	2.98e-07	4e-08
230.27	0.45	2.975e-07	4e-08
231.17	0.45	2.971e-07	4e-08
232.06	0.45	2.966e-07	4e-08
232.96	0.45	2.962e-07	4e-08
233.85	0.45	2.957e-07	4e-08
234.74	0.45	2.953e-07	4e-08
235.63	0.45	2.948e-07	4e-08
236.52	0.45	2.944e-07	4e-08
237.4	0.45	2.94e-07	4e-08
238.29	0.45	2.935e-07	4e-08
239.18	0.45	2.931e-07	4e-08
240.06	0.45	2.927e-07	4e-08
240.95	0.45	2.922e-07	4e-08
241.84	0.45	2.918e-07	4e-08
242.73	0.45	2.913e-07	4e-08
243.61	0.45	2.909e-07	4e-08
244.51	0.45	2.905e-07	4e-08
245.41	0.45	2.9e-07	4e-08
246.31	0.45	2.896e-07	4e-08
247.2	0.45	2.892e-07	4e-08
248.09	0.45	2.887e-07	4e-08
248.98	0.45	2.883e-07	4e-08
249.57	0.45	2.88e-07	4e-08
250.16	0.45	2.877e-07	4e-08
250.75	0.45	2.874e-07	4e-08
251.35	0.45	2.871e-07	4e-08
251.94	0.45	2.868e-07	4e-08
252.53	0.45	2.865e-07	4e-08
253.12	0.45	2.863e-07	4e-08
253.72	0.45	2.859e-07	4e-08
254.45	0.45	2.853e-07	4e-08
255.68	0.45	2.848e-07	4e-08
256.82	0.45	2.844e-07	4e-08
257.85	0.45	2.837e-07	4e-08
258.94	0.45	2.832e-07	4e-08
260.08	0.45	2.827e-07	4e-08
260.87	0.45	2.822e-07	4e-08
261.91	0.45	2.815e-07	4e-08
262.85	0.45	2.811e-07	4e-08
264.68	0.45	2.801e-07	4e-08
265.42	0.45	2.799e-07	4e-08
266.21	0.45	2.795e-07	4e-08
267	0.45	2.793e-07	4e-08
268.23	0.45	2.781e-07	4e-08
269.12	0.45	2.781e-07	4e-08
269.87	0.45	2.776e-07	4e-08
270.85	0.45	2.773e-07	4e-08
271.69	0.45	2.772e-07	4e-08
272.78	0.45	2.765e-07	4e-08
273.87	0.45	2.761e-07	4e-08
274.85	0.45	2.754e-07	4e-08
275.89	0.45	2.752e-07	4e-08
276.77	0.45	2.747e-07	4e-08
277.6	0.45	2.745e-07	4e-08
278.64	0.45	2.741e-07	4e-08
279.48	0.45	2.739e-07	4e-08
280.52	0.45	2.735e-07	4e-08
281.31	0.45	2.733e-07	4e-08
282	0.45	2.729e-07	4e-08
283.09	0.45	2.724e-07	4e-08
284.27	0.45	2.719e-07	4e-08
285.06	0.45	2.716e-07	4e-08
285.91	0.45	2.712e-07	4e-08
286.89	0.45	2.706e-07	4e-08
287.68	0.45	2.708e-07	4e-08
288.77	0.45	2.699e-07	4e-08
289.81	0.45	2.696e-07	4e-08
290.94	0.45	2.693e-07	4e-08
292.27	0.45	2.688e-07	4e-08
293.09	0.45	2.68e-07	4e-08
60.22	0.8	7.841e-07	4.56e-08
60.92	0.8	7.776e-07	4.12e-08
61.63	0.8	7.709e-07	4.08e-08
62.3	0.8	7.647e-07	4.24e-08
62.97	0.8	7.594e-07	4.17e-08
63.65	0.8	7.545e-07	4.21e-08
64.38	0.8	7.488e-07	4.06e-08
65.09	0.8	7.43e-07	4.1e-08
65.76	0.8	7.38e-07	4.1e-08
66.44	0.8	7.343e-07	4.11e-08
67.18	0.8	7.299e-07	4.05e-08
67.92	0.8	7.241e-07	4.05e-08
68.59	0.8	7.2e-07	4e-08
69.26	0.8	7.153e-07	4.06e-08
69.95	0.8	7.104e-07	4.05e-08
70.62	0.8	7.066e-07	4.07e-08
71.29	0.8	7.026e-07	4.05e-08
71.97	0.8	6.987e-07	4.04e-08
72.64	0.8	6.948e-07	4.05e-08
73.31	0.8	6.911e-07	4.05e-08
73.98	0.8	6.875e-07	4.04e-08
74.65	0.8	6.841e-07	4.06e-08
75.31	0.8	6.807e-07	4.04e-08
75.97	0.8	6.774e-07	4.03e-08
76.65	0.8	6.741e-07	4.04e-08
77.32	0.8	6.71e-07	4e-08
77.99	0.8	6.679e-07	4.03e-08
78.66	0.8	6.649e-07	4.06e-08
79.32	0.8	6.62e-07	4e-08
79.99	0.8	6.592e-07	4.03e-08
80.62	0.8	6.566e-07	4.04e-08
80.95	0.8	6.552e-07	4.04e-08
82.42	0.8	6.495e-07	4.02e-08
83.3	0.8	6.462e-07	4.03e-08
83.74	0.8	6.446e-07	4.05e-08
84.07	0.8	6.434e-07	4.02e-08
84.46	0.8	6.42e-07	4e-08
85.11	0.8	6.397e-07	4.03e-08
86.12	0.8	6.363e-07	4.03e-08
86.51	0.8	6.351e-07	4.04e-08
87.19	0.8	6.328e-07	4.02e-08
87.97	0.8	6.304e-07	4.02e-08
88.76	0.8	6.28e-07	4e-08
89.81	0.8	6.249e-07	4.02e-08
90.33	0.8	6.234e-07	4.04e-08
91	0.8	6.215e-07	4.02e-08
92.28	0.8	6.18e-07	4e-08
93.59	0.8	6.145e-07	4.02e-08
94.33	0.8	6.126e-07	4.02e-08
95.79	0.8	6.089e-07	4.01e-08
96.23	0.8	6.078e-07	4.02e-08
96.84	0.8	6.063e-07	4.02e-08
97.78	0.8	6.041e-07	4.01e-08
98.63	0.8	6.021e-07	4.01e-08
99.03	0.8	6.011e-07	4.01e-08
99.78	0.8	5.994e-07	4.01e-08
100.78	0.8	5.962e-07	4.01e-08
101.32	0.8	5.965e-07	4.02e-08
101.87	0.8	5.945e-07	4.01e-08
102.97	0.8	5.915e-07	4.01e-08
104.06	0.8	5.89e-07	4e-08
104.74	0.8	5.872e-07	4.01e-08
106.08	0.8	5.836e-07	4.01e-08
107.1	0.8	5.828e-07	4.01e-08
108.31	0.8	5.791e-07	4.01e-08
109.24	0.8	5.772e-07	4.01e-08
110.34	0.8	5.738e-07	4.01e-08
111.1	0.8	5.728e-07	4.01e-08
112.02	0.8	5.703e-07	4.01e-08
112.26	0.8	5.698e-07	4.01e-08
113.51	0.8	5.673e-07	4.01e-08
114.66	0.8	5.646e-07	4.01e-08
116.18	0.8	5.617e-07	4.01e-08
117.42	0.8	5.592e-07	4.01e-08
118.68	0.8	5.563e-07	4.01e-08
120.51	0.8	5.517e-07	4.01e-08
122.66	0.8	5.482e-07	4.01e-08
123.39	0.8	5.466e-07	4.01e-08
124.61	0.8	5.449e-07	4.01e-08
125.53	0.8	5.446e-07	4.01e-08
127.73	0.8	5.386e-07	4.01e-08
128.31	0.8	5.37e-07	4e-08
128.84	0.8	5.365e-07	4.01e-08
129.95	0.8	5.36e-07	4e-08
131.24	0.8	5.294e-07	4.01e-08
132.17	0.8	5.305e-07	4.01e-08
132.53	0.8	5.283e-07	4.01e-08
133.47	0.8	5.259e-07	4.01e-08
135.84	0.8	5.221e-07	4.01e-08
137.69	0.8	5.197e-07	4.01e-08
138.78	0.8	5.177e-07	4.01e-08
139.39	0.8	5.167e-07	4.01e-08
141.44	0.8	5.122e-07	4e-08
142.93	0.8	5.106e-07	4e-08
143.66	0.8	5.078e-07	4e-08
144.77	0.8	5.061e-07	4.01e-08
146.03	0.8	5.031e-07	4.01e-08
146.51	0.8	5.016e-07	4e-08
147.4	0.8	5.004e-07	4e-08
148.17	0.8	4.991e-07	4.01e-08
148.87	0.8	4.974e-07	4e-08
149.5	0.8	4.967e-07	4.01e-08
149.98	0.8	4.958e-07	4e-08
151.76	0.8	4.928e-07	4e-08
152.01	0.8	4.924e-07	4e-08
152.22	0.8	4.922e-07	4e-08
152.69	0.8	4.912e-07	4e-08
153.17	0.8	4.903e-07	4e-08
153.92	0.8	4.891e-07	4.01e-08
154.15	0.8	4.891e-07	4.01e-08
155.23	0.8	4.866e-07	4e-08
155.86	0.8	4.862e-07	4.01e-08
156.07	0.8	4.857e-07	4e-08
156.29	0.8	4.855e-07	4e-08
156.88	0.8	4.844e-07	4e-08
157.56	0.8	4.835e-07	4e-08
157.78	0.8	4.83e-07	4e-08
158.68	0.8	4.809e-07	4.01e-08
159.62	0.8	4.806e-07	4e-08
160.13	0.8	4.794e-07	4.01e-08
160.62	0.8	4.787e-07	4e-08
160.86	0.8	4.783e-07	4.01e-08
161.42	0.8	4.776e-07	4e-08
162.73	0.8	4.755e-07	4e-08
163.53	0.8	4.741e-07	4e-08
164.61	0.8	4.728e-07	4e-08
165.09	0.8	4.725e-07	4e-08
165.88	0.8	4.707e-07	4e-08
166.09	0.8	4.704e-07	4e-08
166.88	0.8	4.692e-07	4e-08
168.06	0.8	4.675e-07	4e-08
168.51	0.8	4.668e-07	4.01e-08
169	0.8	4.661e-07	4e-08
169.28	0.8	4.657e-07	4e-08
169.56	0.8	4.653e-07	4e-08
170.01	0.8	4.646e-07	4e-08
170.5	0.8	4.639e-07	4e-08
171.01	0.8	4.631e-07	4e-08
171.83	0.8	4.619e-07	4e-08
172.72	0.8	4.607e-07	4e-08
172.96	0.8	4.603e-07	4e-08
173.81	0.8	4.591e-07	4e-08
174.02	0.8	4.588e-07	4e-08
174.64	0.8	4.579e-07	4e-08
175.09	0.8	4.573e-07	4e-08
176.8	0.8	4.549e-07	4e-08
177.98	0.8	4.532e-07	4.01e-08
178.25	0.8	4.528e-07	4e-08
178.74	0.8	4.521e-07	4e-08
179.1	0.8	4.517e-07	4e-08
180.39	0.8	4.499e-07	4e-08
181.32	0.8	4.486e-07	4e-08
182.31	0.8	4.473e-07	4e-08
182.86	0.8	4.465e-07	4e-08
183.37	0.8	4.458e-07	4e-08
183.6	0.8	4.455e-07	4e-08
183.94	0.8	4.451e-07	4e-08
184.92	0.8	4.438e-07	4e-08
186.42	0.8	4.418e-07	4e-08
187.14	0.8	4.408e-07	4e-08
187.38	0.8	4.405e-07	4e-08
188.22	0.8	4.394e-07	4e-08
189.15	0.8	4.382e-07	4e-08
189.55	0.8	4.377e-07	4e-08
190.52	0.8	4.364e-07	4e-08
190.78	0.8	4.361e-07	4e-08
191.61	0.8	4.35e-07	4e-08
192.8	0.8	4.335e-07	4e-08
193.19	0.8	4.33e-07	4e-08
193.7	0.8	4.324e-07	4e-08
193.92	0.8	4.321e-07	4e-08
194.58	0.8	4.312e-07	4e-08
195.21	0.8	4.305e-07	4e-08
196.18	0.8	4.292e-07	4e-08
196.44	0.8	4.289e-07	4e-08
197.36	0.8	4.278e-07	4e-08
197.72	0.8	4.273e-07	4e-08
197.93	0.8	4.271e-07	4e-08
198.16	0.8	4.268e-07	4e-08
199.01	0.8	4.257e-07	4e-08
201.16	0.8	4.231e-07	4e-08
201.84	0.8	4.223e-07	4e-08
202.91	0.8	4.21e-07	4e-08
203.76	0.8	4.2e-07	4e-08
205.28	0.8	4.182e-07	4e-08
206.32	0.8	4.17e-07	4e-08
209.09	0.8	4.137e-07	4e-08
210.12	0.8	4.125e-07	4e-08
211.03	0.8	4.115e-07	4e-08
212	0.8	4.104e-07	4e-08
212.82	0.8	4.094e-07	4e-08
213.64	0.8	4.085e-07	4e-08
214.47	0.8	4.076e-07	4e-08
215.31	0.8	4.066e-07	4e-08
216.16	0.8	4.057e-07	4e-08
217.13	0.8	4.046e-07	4e-08
217.97	0.8	4.037e-07	4e-08
218.8	0.8	4.028e-07	4e-08
219.63	0.8	4.018e-07	4e-08
220.62	0.8	4.008e-07	4e-08
221.44	0.8	3.999e-07	4e-08
222.26	0.8	3.99e-07	4e-08
223.07	0.8	3.981e-07	4e-08
223.91	0.8	3.972e-07	4e-08
224.91	0.8	3.961e-07	4e-08
225.73	0.8	3.951e-07	4e-08
226.56	0.8	3.939e-07	4e-08
227.4	0.8	3.929e-07	4e-08
228.37	0.8	3.917e-07	4e-08
229.21	0.8	3.906e-07	4e-08
230.05	0.8	3.895e-07	4e-08
230.9	0.8	3.886e-07	4e-08
231.72	0.8	3.877e-07	4e-08
232.55	0.8	3.866e-07	4e-08
233.52	0.8	3.855e-07	4e-08
234.36	0.8	3.845e-07	4e-08
235.2	0.8	3.835e-07	4e-08
236.02	0.8	3.827e-07	4e-08
236.84	0.8	3.815e-07	4e-08
237.81	0.8	3.802e-07	4e-08
238.64	0.8	3.792e-07	4e-08
239.46	0.8	3.781e-07	4e-08
240.28	0.8	3.77e-07	4e-08
241.1	0.8	3.762e-07	4e-08
242.14	0.8	3.752e-07	4e-08
242.96	0.8	3.744e-07	4e-08
243.78	0.8	3.737e-07	4e-08
244.61	0.8	3.728e-07	4e-08
245.46	0.8	3.717e-07	4e-08
246.29	0.8	3.707e-07	4e-08
247.25	0.8	3.697e-07	4e-08
248.61	0.8	3.683e-07	4e-08
250.15	0.8	3.668e-07	4e-08
251.93	0.8	3.657e-07	4e-08
253.06	0.8	3.642e-07	4e-08
254.42	0.8	3.624e-07	4e-08
256.37	0.8	3.605e-07	4e-08
258.1	0.8	3.585e-07	4e-08
259.6	0.8	3.57e-07	4e-08
260.87	0.8	3.56e-07	4e-08
261.87	0.8	3.55e-07	4e-08
262.87	0.8	3.536e-07	4e-08
263.86	0.8	3.523e-07	4e-08
265.03	0.8	3.511e-07	4e-08
266.03	0.8	3.501e-07	4e-08
267.03	0.8	3.492e-07	4e-08
268.18	0.8	3.48e-07	4e-08
269.34	0.8	3.469e-07	4e-08
270.35	0.8	3.461e-07	4e-08
271.35	0.8	3.451e-07	4e-08
272.52	0.8	3.441e-07	4e-08
273.68	0.8	3.43e-07	4e-08
274.7	0.8	3.423e-07	4e-08
275.88	0.8	3.413e-07	4e-08
276.9	0.8	3.405e-07	4e-08
278.08	0.8	3.392e-07	4e-08
279.27	0.8	3.384e-07	4e-08
280.33	0.8	3.376e-07	4e-08
281.38	0.8	3.364e-07	4e-08
282.6	0.8	3.356e-07	4e-08
283.82	0.8	3.346e-07	4e-08
284.89	0.8	3.337e-07	4e-08
286.11	0.8	3.324e-07	4e-08
287.18	0.8	3.312e-07	4e-08
288.24	0.8	3.302e-07	4e-08
289.45	0.8	3.29e-07	4e-08
290.49	0.8	3.28e-07	4e-08
291.51	0.8	3.272e-07	4e-08
292.51	0.8	3.263e-07	4e-08
293.49	0.8	3.256e-07	4e-08
294.41	0.8	3.251e-07	4e-08
295.19	0.8	3.247e-07	4e-08
295.66	0.8	3.246e-07	4e-08
60.65	1	3.3335e-06	4e-08
61.32	1	3.2684e-06	4e-08
61.98	1	3.2047e-06	4e-08
62.65	1	3.1448e-06	4e-08
63.31	1	3.0907e-06	4e-08
63.97	1	3.0355e-06	4e-08
64.64	1	2.9812e-06	4e-08
65.31	1	2.9259e-06	4e-08
65.97	1	2.8722e-06	4e-08
66.63	1	2.8203e-06	4e-08
67.32	1	2.7699e-06	4e-08
67.98	1	2.7216e-06	4e-08
68.64	1	2.6757e-06	4e-08
69.31	1	2.6309e-06	4e-08
69.97	1	2.5867e-06	4e-08
70.63	1	2.5442e-06	4e-08
71.3	1	2.4989e-06	4e-08
71.97	1	2.4585e-06	4e-08
72.64	1	2.4194e-06	4e-08
73.32	1	2.3802e-06	4e-08
73.98	1	2.3429e-06	4e-08
74.64	1	2.3068e-06	4e-08
75.3	1	2.2709e-06	4e-08
75.96	1	2.2368e-06	4e-08
76.63	1	2.2031e-06	4e-08
77.3	1	2.1698e-06	4e-08
77.97	1	2.1373e-06	4e-08
78.63	1	2.1055e-06	4e-08
79.31	1	2.0738e-06	4e-08
79.97	1	2.0451e-06	4e-08
80.63	1	2.0156e-06	4e-08
81.32	1	1.988e-06	4e-08
81.99	1	1.9611e-06	4e-08
82.66	1	1.9349e-06	4e-08
83.32	1	1.9094e-06	4e-08
84.07	1	1.8813e-06	4e-08
84.73	1	1.8582e-06	4e-08
85.43	1	1.8328e-06	4e-08
86.12	1	1.8094e-06	4e-08
86.79	1	1.7866e-06	4e-08
87.44	1	1.7652e-06	4e-08
88.12	1	1.7437e-06	4e-08
88.82	1	1.7215e-06	4e-08
89.5	1	1.6997e-06	4e-08
90.17	1	1.6788e-06	4e-08
90.84	1	1.6596e-06	4e-08
91.57	1	1.6386e-06	4e-08
92.23	1	1.6193e-06	4e-08
93	1	1.5976e-06	4e-08
93.67	1	1.5793e-06	4e-08
94.35	1	1.5616e-06	4e-08
95.04	1	1.5444e-06	4e-08
95.7	1	1.5282e-06	4e-08
96.48	1	1.51e-06	4e-08
97.28	1	1.4923e-06	4e-08
98.01	1	1.4768e-06	4e-08
98.8	1	1.4606e-06	4e-08
99.51	1	1.4465e-06	4e-08
100.18	1	1.4339e-06	4e-08
101.55	1	1.4094e-06	4e-08
102.61	1	1.3916e-06	4e-08
103.8	1	1.3728e-06	4e-08
105.53	1	1.3473e-06	4e-08
106.59	1	1.3327e-06	4e-08
107.67	1	1.3184e-06	4e-08
109.05	1	1.301e-06	4e-08
110.92	1	1.2785e-06	4e-08
112.03	1	1.2656e-06	4e-08
113.35	1	1.2506e-06	4e-08
114.32	1	1.2397e-06	4e-08
115.49	1	1.2262e-06	4e-08
117.81	1	1.1991e-06	4e-08
118.92	1	1.1864e-06	4e-08
120.59	1	1.1677e-06	4e-08
122.05	1	1.1516e-06	4e-08
123.53	1	1.1357e-06	4e-08
125.81	1	1.1118e-06	4e-08
126.73	1	1.1024e-06	4e-08
128.95	1	1.0801e-06	4e-08
129.69	1	1.0729e-06	4e-08
130.84	1	1.0618e-06	4e-08
132.27	1	1.0482e-06	4e-08
133.41	1	1.0376e-06	4e-08
135.14	1	1.022e-06	4e-08
136.31	1	1.0116e-06	4e-08
138.46	1	9.931e-07	4e-08
139.63	1	9.833e-07	4e-08
140.44	1	9.767e-07	4e-08
141.64	1	9.67e-07	4e-08
142.9	1	9.571e-07	4e-08
143.97	1	9.489e-07	4e-08
144.4	1	9.456e-07	4e-08
145.51	1	9.365e-07	4e-08
146.45	1	9.311e-07	4e-08
147.14	1	9.257e-07	4e-08
147.8	1	9.212e-07	4e-08
148.77	1	9.14e-07	4e-08
150.21	1	9.047e-07	4e-08
151.3	1	8.978e-07	4e-08
152.65	1	8.89e-07	4e-08
153.29	1	8.853e-07	4e-08
155.72	1	8.695e-07	4e-08
156.14	1	8.669e-07	4e-08
157.29	1	8.6e-07	4e-08
158.33	1	8.53e-07	4e-08
158.77	1	8.503e-07	4e-08
159.99	1	8.45e-07	4e-08
161.45	1	8.341e-07	4e-08
162.21	1	8.297e-07	4e-08
164.12	1	8.192e-07	4e-08
165.41	1	8.107e-07	4e-08
166.09	1	8.073e-07	4e-08
166.88	1	8.03e-07	4e-08
168.27	1	7.951e-07	4e-08
169.43	1	7.9e-07	4e-08
170	1	7.869e-07	4e-08
171.07	1	7.816e-07	4e-08
171.89	1	7.768e-07	4e-08
173.09	1	7.705e-07	4e-08
173.95	1	7.67e-07	4e-08
174.72	1	7.63e-07	4e-08
175.69	1	7.585e-07	4e-08
177.72	1	7.498e-07	4e-08
178.3	1	7.467e-07	4e-08
179.66	1	7.408e-07	4e-08
181.24	1	7.348e-07	4e-08
183.05	1	7.278e-07	4e-08
184.33	1	7.188e-07	4e-08
184.73	1	7.161e-07	4e-08
185.51	1	7.11e-07	4e-08
185.78	1	7.096e-07	4e-08
187.93	1	7.027e-07	4e-08
189.24	1	6.965e-07	4e-08
191.16	1	6.909e-07	4e-08
191.73	1	6.88e-07	4e-08
194	1	6.807e-07	4e-08
194.3	1	6.771e-07	4e-08
196.06	1	6.714e-07	4e-08
198.12	1	6.633e-07	4e-08
200.02	1	6.528e-07	4e-08
201.14	1	6.49e-07	4e-08
201.33	1	6.473e-07	4e-08
202.03	1	6.453e-07	4e-08
203.43	1	6.433e-07	4e-08
203.69	1	6.393e-07	4e-08
205.9	1	6.365e-07	4e-08
206.01	1	6.314e-07	4e-08
208.12	1	6.28e-07	4e-08
209.43	1	6.252e-07	4e-08
210.71	1	6.251e-07	4e-08
210.85	1	6.212e-07	4e-08
212.5	1	6.178e-07	4e-08
213.34	1	6.129e-07	4e-08
214.2	1	6.114e-07	4e-08
215.75	1	6.054e-07	4e-08
216.65	1	6.03e-07	4e-08
217.77	1	6.005e-07	4e-08
218.08	1	5.992e-07	4e-08
218.89	1	5.958e-07	4e-08
220.27	1	5.916e-07	4e-08
221.46	1	5.877e-07	4e-08
223.23	1	5.825e-07	4e-08
224.44	1	5.777e-07	4e-08
225.56	1	5.744e-07	4e-08
226.62	1	5.711e-07	4e-08
227.72	1	5.678e-07	4e-08
228.68	1	5.649e-07	4e-08
229.49	1	5.624e-07	4e-08
230.66	1	5.589e-07	4e-08
231.48	1	5.567e-07	4e-08
232.44	1	5.54e-07	4e-08
233.25	1	5.517e-07	4e-08
234.06	1	5.493e-07	4e-08
235	1	5.467e-07	4e-08
235.81	1	5.444e-07	4e-08
236.76	1	5.418e-07	4e-08
237.7	1	5.393e-07	4e-08
238.65	1	5.367e-07	4e-08
239.45	1	5.345e-07	4e-08
240.26	1	5.324e-07	4e-08
241.37	1	5.295e-07	4e-08
242.17	1	5.275e-07	4e-08
242.98	1	5.255e-07	4e-08
244.08	1	5.228e-07	4e-08
244.89	1	5.208e-07	4e-08
245.85	1	5.185e-07	4e-08
246.66	1	5.165e-07	4e-08
247.77	1	5.139e-07	4e-08
248.58	1	5.12e-07	4e-08
249.38	1	5.101e-07	4e-08
250.33	1	5.079e-07	4e-08
251.33	1	5.055e-07	4e-08
252.14	1	5.037e-07	4e-08
253.09	1	5.014e-07	4e-08
253.9	1	4.997e-07	4e-08
254.7	1	4.977e-07	4e-08
255.65	1	4.956e-07	4e-08
256.46	1	4.938e-07	4e-08
257.26	1	4.922e-07	4e-08
258.56	1	4.895e-07	4e-08
259.86	1	4.867e-07	4e-08
261.02	1	4.842e-07	4e-08
262.32	1	4.814e-07	4e-08
263.77	1	4.782e-07	4e-08
264.93	1	4.758e-07	4e-08
266.08	1	4.734e-07	4e-08
267.46	1	4.706e-07	4e-08
268.62	1	4.686e-07	4e-08
269.77	1	4.663e-07	4e-08
271.08	1	4.638e-07	4e-08
272.24	1	4.617e-07	4e-08
273.54	1	4.594e-07	4e-08
274.7	1	4.573e-07	4e-08
276.01	1	4.549e-07	4e-08
277.16	1	4.527e-07	4e-08
278.32	1	4.506e-07	4e-08
279.53	1	4.486e-07	4e-08
280.69	1	4.469e-07	4e-08
281.86	1	4.452e-07	4e-08
283.2	1	4.434e-07	4e-08
284.67	1	4.413e-07	4e-08
285.85	1	4.396e-07	4e-08
287.18	1	4.378e-07	4e-08
288.5	1	4.358e-07	4e-08
289.85	1	4.341e-07	4e-08
291.04	1	4.327e-07	4e-08
292.23	1	4.312e-07	4e-08
293.43	1	4.296e-07	4e-08
294.63	1	4.278e-07	4e-08
295.83	1	4.264e-07	4e-08
297.01	1	4.25e-07	4e-08
298.14	1	4.235e-07	4e-08
299.13	1	4.221e-07	4e-08
299.61	1	4.217e-07	4e-08
