Measured thermophysical data. Calorimetric Study of AlNd2: Heat capacity; Standard Gibbs Energy of Formation
Source: Thermochim. Acta, 2011, 10.1016/j.tca.2011.08.025
Compound 1: aluminum, compound with neodymium (1:2), AlNd2, purity 99%
Compound 2: aluminum, Al, InChI=1S/Al
Compound 3: neodymium, Nd, InChI=1S/Nd

System: aluminum, compound with neodymium (1:2); phases: Crystal 3
Fixed: Pressure, kPa = 101.325
Property: Molar heat capacity at constant pressure, J/K/mol (Crystal 3); method: Relaxation calorimetry
Temperature, K	Molar heat capacity at constant pressure, J/K/mol	uncertainty
2.135	0.3777	0.0066
2.351	0.4479	0.013
2.563	0.66	0.019
2.776	0.8478	0.019
2.989	1.064	0.021
3.206	1.306	0.023
3.418	1.562	0.025
3.627	1.826	0.026
3.838	2.1	0.026
4.046	2.375	0.026
4.254	2.65	0.026
4.46	2.918	0.026
4.669	3.183	0.02
4.868	3.432	0.02
5.071	3.672	0.02
5.184	3.804	0.02
5.278	3.909	0.02
5.482	4.131	0.02
5.687	4.344	0.02
5.893	4.548	0.02
6.098	4.743	0.02
6.302	4.932	0.02
6.506	5.115	0.02
6.709	5.301	0.02
6.911	5.49	0.009

System: aluminum, compound with neodymium (1:2); phases: Crystal 2
Fixed: Pressure, kPa = 101.325
Property: Molar heat capacity at constant pressure, J/K/mol (Crystal 2); method: Relaxation calorimetry
Temperature, K	Molar heat capacity at constant pressure, J/K/mol	uncertainty
7.113	5.478	0.003
7.312	5.505	0.003
7.512	5.535	0.003
7.712	5.571	0.006
7.914	5.61	0.006
8.112	5.655	0.006
8.301	5.703	0.006
8.507	5.76	0.006
8.719	5.823	0.006
8.925	5.892	0.006
9.129	5.964	0.009
9.341	6.045	0.009
9.481	6.099	0.009
9.548	6.129	0.009
9.749	6.216	0.009
9.951	6.309	0.009
10.15	6.408	0.009
10.36	6.516	0.01
10.56	6.627	0.01
10.77	6.747	0.01
10.98	6.87	0.01
11.19	7.002	0.01
11.38	7.131	0.01
11.59	7.269	0.01
11.79	7.413	0.01
12	7.569	0.01
12.2	7.725	0.01
12.4	7.884	0.01
12.61	8.052	0.02
12.81	8.226	0.02
13.01	8.406	0.02
13.22	8.589	0.02
13.42	8.778	0.02
13.64	8.991	0.02
13.79	9.138	0.02
13.83	9.177	0.02
14.05	9.402	0.02
14.23	9.588	0.02
14.46	9.831	0.02
14.64	10.03	0.02
14.86	10.28	0.02
15.04	10.49	0.02
15.25	10.73	0.02
15.28	10.76	0.02
16.36	12.1	0.03
17.45	13.58	0.03
18.14	14.58	0.03
18.49	15.11	0.03
19.62	16.86	0.033
20.68	18.6	0.033
21.76	20.43	0.033
22.42	21.58	0.036
22.85	22.33	0.036
23.95	24.28	0.036
25	26.18	0.036
26.07	28.14	0.036
26.73	29.36	0.039
27.19	30.21	0.03
28.26	32.25	0.03
29.35	34.35	0.03
30.4	36.45	0.03
30.46	36.57	0.03
31.04	37.8	0.06
31.44	38.67	0.06
32.52	41.13	0.06
33.58	43.8	0.06
34.64	46.8	0.06
35.34	49.02	0.06
35.7	50.25	0.06
36.76	54.21	0.09
37.81	58.92	0.09
38.87	64.5	0.12
39.62	69.09	0.06
39.92	71.13	0.03

System: aluminum, compound with neodymium (1:2); phases: Crystal 1
Fixed: Pressure, kPa = 101.325
Property: Molar heat capacity at constant pressure, J/K/mol (Crystal 1); method: Relaxation calorimetry
Temperature, K	Molar heat capacity at constant pressure, J/K/mol	uncertainty
40.99	60.15	0.18
42.06	51.75	0.12
43.12	48.15	0.03
43.93	48.69	0.03
44.19	49.47	0.03
45.25	48.33	0.03
46.32	48.81	0.03
47.38	49.26	0.03
48.23	49.62	0.03
48.45	49.74	0.03
49.52	50.16	0.03
50.58	50.55	0.03
52.53	52.08	0.03
56.82	54.57	0.03
61.12	57.06	0.03
65.42	59.25	0.03
69.71	60.87	0.03
74.02	61.59	0.03
78.32	61.14	0.03
82.63	62.19	0.03
86.92	63.57	0.03
91.22	64.8	0.03
95.53	65.88	0.03
99.82	66.87	0.03
104.1	67.74	0.03
108.4	68.49	0.03
112.7	69.18	0.03
117	69.78	0.03
121.3	70.29	0.03
125.6	70.77	0.03
129.9	71.22	0.03
134.2	71.61	0.03
138.5	71.97	0.03
142.8	72.33	0.03
147.1	72.63	0.03
151.4	72.87	0.03
155.6	73.23	0.03
159.9	73.56	0.03
164.2	73.89	0.03
168.5	74.19	0.03
172.8	74.49	0.03
177	74.76	0.03
181.3	75.03	0.03
185.6	75.3	0.03
189.9	75.54	0.03
194.2	75.75	0.03
198.5	75.96	0.03
202.8	76.17	0.03
207.1	76.38	0.03
211.4	76.56	0.03
215.7	76.71	0.03
220	76.89	0.03
224.3	77.01	0.03
228.6	77.16	0.03
232.9	77.28	0.03
237.2	77.4	0.03
241.5	77.49	0.03
245.8	77.61	0.03
250	77.67	0.03
254.3	77.76	0.03
258.6	77.85	0.03
262.9	77.91	0.03
267.2	78	0.03
271.5	78.06	0.03
275.8	78.18	0.03
280.1	78.27	0.03
284.4	78.39	0.03
288.7	78.54	0.03
293	78.75	0.03
297.3	78.96	0.03
301.6	79.26	0.03
301.7	79.26	0.03

System: aluminum, compound with neodymium (1:2); phases: Crystal 2
Fixed: Pressure, kPa = 101.325
Property: Molar heat capacity at constant pressure, J/K/mol (Crystal 2); method: OTHER
Temperature, K	Molar heat capacity at constant pressure, J/K/mol	uncertainty
10	19.7	0.06
25	84.78	0.06

System: aluminum, compound with neodymium (1:2); phases: Crystal 1
Fixed: Pressure, kPa = 101.325
Property: Molar heat capacity at constant pressure, J/K/mol (Crystal 1); method: OTHER
Temperature, K	Molar heat capacity at constant pressure, J/K/mol	uncertainty
50	139.8	0.03
100	201.6	0.03
150	226.4	0.03
200	237.8	0.03
250	244.7	0.03
298	250.6	0.03
300	250.2	0.03

System: aluminum, compound with neodymium (1:2); phases: Crystal 2
Fixed: Pressure, kPa = 101.325
Property: Molar enthalpy, kJ/mol (Crystal 2); method: OTHER
Temperature, K	Molar enthalpy, kJ/mol	uncertainty
0	-59.13	0.03
10	-59.04	0.03
25	-58.32	0.03
39.59	-56.58	0.03

System: aluminum, compound with neodymium (1:2); phases: Crystal 1
Fixed: Pressure, kPa = 101.325
Property: Molar enthalpy, kJ/mol (Crystal 1); method: OTHER
Temperature, K	Molar enthalpy, kJ/mol	uncertainty
39.59	-56.58	0.03
50	-55.14	0.03
100	-46.41	0.03
150	-35.64	0.03
200	-24	0.03
250	-11.9	0.03
298	0	0.03
300	0.45	0.03

System: aluminum, compound with neodymium (1:2); phases: Crystal 2
Fixed: Pressure, kPa = 101.325
Property: Molar entropy, J/K/mol (Crystal 2); method: OTHER
Temperature, K	Molar entropy, J/K/mol	uncertainty
10	15	0.06
25	54.81	0.06
39.59	107.7	0.06

System: aluminum, compound with neodymium (1:2); phases: Crystal 1
Fixed: Pressure, kPa = 101.325
Property: Molar entropy, J/K/mol (Crystal 1); method: OTHER
Temperature, K	Molar entropy, J/K/mol	uncertainty
39.59	107.7	0.06
50	140.2	0.06
100	258.7	0.03
150	345.75	0.03
200	412.62	0.03
250	466.56	0.03
298	510.06	0.03
300	511.62	0.03

System: aluminum; phases: Crystal
Fixed: Pressure, kPa = 101.325
Property: Molar heat capacity at constant pressure, J/K/mol (Crystal); method: Relaxation calorimetry
Temperature, K	Molar heat capacity at constant pressure, J/K/mol	uncertainty
5.284	0.011	0.001
9.67	0.035	0.001
14.08	0.085	0.001
18.45	0.181	0.001
22.82	0.341	0.001
27.12	0.602	0.002
31.49	0.992	0.002
35.83	1.526	0.003
40.18	2.149	0.003
44.52	2.841	0.003
48.85	3.64	0.004
53.19	4.446	0.004
57.52	5.317	0.004
61.85	6.177	0.004
66.18	7.052	0.004
70.51	7.917	0.004
74.83	8.774	0.004
79.16	9.582	0.004
83.49	10.38	0.01
87.82	11.08	0.01
92.15	11.77	0.01
96.47	12.46	0.01
100.7	13.15	0.01
105.1	13.74	0.01
109.4	14.29	0.01
113.7	14.88	0.01
118	15.37	0.01
122.4	15.87	0.01
126.7	16.34	0.01
131	16.78	0.01
135.3	17.22	0.01
139.7	17.63	0.01
144	17.97	0.01
148.3	18.36	0.01
152.6	18.61	0.01
156.9	18.93	0.01
161.2	19.21	0.01
165.6	19.46	0.01
169.9	19.74	0.01
174.2	20.03	0.01
178.5	20.29	0.01
182.8	20.49	0.01
187.1	20.74	0.01
191.4	20.96	0.01
195.7	21.15	0.01
200.1	21.31	0.01
204.4	21.47	0.01
208.7	21.66	0.01
213	21.83	0.01
217.3	22.01	0.01
221.7	22.2	0.01
226	22.34	0.01
230.3	22.46	0.01
234.6	22.58	0.01
238.9	22.73	0.01
243.3	22.82	0.01
247.6	22.99	0.01
251.9	23.05	0.01
256.2	23.21	0.01
260.5	23.34	0.01
264.9	23.48	0.01
269.2	23.61	0.01
273.5	23.7	0.01
277.8	23.73	0.01
282.1	23.82	0.01
286.4	23.93	0.01
290.8	24.02	0.01
295.1	24.12	0.01
299.4	24.14	0.01
303.8	24.21	0.01

System: neodymium; phases: Crystal
Fixed: Pressure, kPa = 101.325
Property: Molar heat capacity at constant pressure, J/K/mol (Crystal); method: Relaxation calorimetry
Temperature, K	Molar heat capacity at constant pressure, J/K/mol	uncertainty
2.151	0.8396	0.0178
2.367	1.016	0.019
2.581	1.201	0.019
2.795	1.394	0.02
3.01	1.604	0.02
3.226	1.824	0.021
3.438	2.061	0.022
3.649	2.3	0.023
3.86	2.548	0.024
4.072	2.809	0.025
4.282	3.093	0.026
4.49	3.38	0.027
4.705	3.673	0.026
4.913	3.971	0.026
5.122	4.282	0.025
5.177	4.343	0.025
5.328	4.571	0.024
5.524	4.815	0.024
5.736	5.023	0.021
5.948	5.221	0.02
6.156	5.44	0.019
6.362	5.633	0.018
6.569	5.743	0.018
6.774	5.889	0.018
6.98	6.064	0.017
7.186	6.234	0.015
7.391	6.437	0.01
7.596	6.646	0.005
7.801	6.846	0.001
8.006	7.013	0.003
8.204	6.953	0.006
8.407	6.62	0.008
8.613	6.23	0.011
8.819	5.945	0.013
9.025	5.776	0.014
9.228	5.667	0.014
9.431	5.598	0.01
9.437	5.599	0.01
9.634	5.571	0.006
9.84	5.554	0.002
10.04	5.573	0.001
10.2	5.561	0.002
10.39	5.603	0.004
10.6	5.69	0.005
10.81	5.744	0.006
11.01	5.812	0.007
11.21	5.88	0.008
11.41	5.952	0.008
11.63	6.046	0.009
11.84	6.143	0.009
12.03	6.237	0.01
12.24	6.337	0.01
12.44	6.442	0.011
12.66	6.573	0.011
12.86	6.675	0.01
13.06	6.796	0.012
13.26	6.922	0.013
13.47	7.055	0.013
13.68	7.208	0.013
13.77	7.145	0.013
13.88	7.299	0.013
14.1	7.441	0.014
14.28	7.621	0.014
14.48	7.747	0.014
14.69	7.885	0.016
14.92	8.025	0.015
15.12	8.197	0.015
15.23	8.285	0.015
15.32	8.377	0.015
15.77	8.706	0.017
16.3	9.115	0.017
16.83	9.61	0.017
17.36	10.08	0.02
17.88	10.46	0.02
18.09	10.52	0.02
18.42	10.87	0.02
18.95	11.22	0.01
19.48	11.63	0.01
20.09	11.62	0.01
20.59	11.44	0.01
21.1	10.32	0.01
21.61	10.49	0.01
22.17	11.13	0.02
22.39	11.25	0.02
26.7	13.57	0.01
31.01	15.8	0.01
35.3	17.93	0.01
39.6	19.66	0.01
43.89	21.19	0.01
48.19	22.54	0.01
52.48	23.47	0.01
56.77	24.17	0.01
61.06	24.73	0.01
65.35	25.19	0.01
69.65	25.58	0.01
73.95	25.83	0.01
78.25	25.98	0.01
82.54	26.16	0.01
86.85	26.23	0.01
91.14	26.36	0.01
95.45	26.37	0.01
99.73	26.49	0.01
104	26.61	0.01
108.3	26.65	0.01
112.6	26.74	0.01
116.9	26.72	0.01
121.2	26.78	0.01
125.5	26.72	0.01
129.8	26.67	0.01
134	26.77	0.01
138.3	26.81	0.01
142.6	26.97	0.01
146.8	26.95	0.01
151.1	27.04	0.01
155.4	27.01	0.01
159.7	26.93	0.01
164	26.99	0.01
168.3	27.12	0.01
172.6	27.08	0.01
176.9	27.2	0.01
181.2	27.26	0.01
185.5	27.14	0.01
189.8	27.14	0.01
194.1	27.14	0.01
198.3	27.21	0.01
202.6	27.44	0.01
206.9	27.36	0.01
211.2	27.35	0.01
215.5	27.48	0.01
219.8	27.48	0.01
224.1	27.64	0.01
228.4	27.65	0.01
232.7	27.61	0.01
237	27.52	0.01
241.3	27.5	0.01
245.6	27.95	0.01
249.8	27.71	0.01
254.1	27.92	0.01
258.4	27.8	0.01
262.7	27.77	0.01
267	27.72	0.01
271.3	28.15	0.01
275.6	27.76	0.01
279.9	28.06	0.01
284.2	28.25	0.01
288.5	28.11	0.01
292.8	28.27	0.01
297.1	28.29	0.01
301.5	28.22	0.01

Reaction: -1 aluminum + -2 neodymium + 1 aluminum, compound with neodymium (1:2)
Property: Molar enthalpy of reaction, kJ/mol
-103.56
