Measured thermophysical data. Prediction of the eutectic mixture formation of monovalent cation ternary salt mixture based on theoretical modeling and differential scanning calorimeter method
Source: Thermochim. Acta, 2017, 10.1016/j.tca.2017.04.015
Compound 1: sodium fluoride, FNa, InChI=1S/FH.Na/h1H;/q;+1/p-1
Compound 2: sodium chloride, ClNa, InChI=1S/ClH.Na/h1H;/q;+1/p-1
Compound 3: sodium nitrate, NNaO3, InChI=1S/NO3.Na/c2-1(3)4;/q-1;+1

System: sodium nitrate + sodium chloride + sodium fluoride; phases: Crystal, Crystal, Crystal, Liquid, Air at 1 atmosphere
Property: Eutectic temperature, K (Crystal); method: DTA
Eutectic temperature, K	uncertainty
566.65	1.74
