Measured thermophysical data. Densities of Ammonium and Phosphonium based Deep Eutectic Solvents: Prediction using  Artificial Intelligent and Group Contribution Techniques
Source: Thermochim. Acta, 2012, 10.1016/j.tca.2011.10.010
Compound 1: glycerol, C3H8O3, InChI=1S/C3H8O3/c4-1-3(6)2-5/h3-6H,1-2H2
Compound 2: choline chloride, C5H14ClNO, InChI=1S/C5H14NO.ClH/c1-6(2,3)4-5-7;/h7H,4-5H2,1-3H3;1H/q+1;/p-1
Compound 3: 1,2-ethanediol, C2H6O2, InChI=1S/C2H6O2/c3-1-2-4/h3-4H,1-2H2
Compound 4: 2-(diethylamino)ethanol hydrochloride, C6H16ClNO, InChI=1S/C6H15NO.ClH/c1-3-7(4-2)5-6-8;/h8H,3-6H2,1-2H3;1H
Compound 5: methyltriphenylphosphonium bromide, C19H18BrP, InChI=1S/C19H18P.BrH/c1-20(17-11-5-2-6-12-17,18-13-7-3-8-14-18)19-15-9-4-10-16-19;/h2-16H,1H3;1H/q+1;/p-1

System: glycerol + choline chloride; phases: Liquid
Fixed: Pressure, kPa = 101
Property: Mass density, kg/m3 (Liquid); method: Vibrating tube method
Temperature, K	Mole fraction of choline chloride	Mass density, kg/m3	uncertainty
298.15	0.25	1203	12.3
298.15	0.33	1192	12.2
303.15	0.25	1200.2	12.3
303.15	0.33	1189.5	12.2
303.15	0.5	1153.5	12
308.15	0.25	1197.6	12.3
308.15	0.33	1186.7	12.2
313.15	0.25	1195.1	12.3
313.15	0.33	1183.8	12.2
313.15	0.5	1148.3	11.9
318.15	0.25	1192.2	12.2
318.15	0.33	1181.4	12.2
323.15	0.25	1189.1	12.2
323.15	0.33	1177.6	12.1
323.15	0.5	1143	11.9
328.15	0.25	1186.8	12.2
328.15	0.33	1176.1	12.1
333.15	0.25	1184.4	12.2
333.15	0.33	1174.1	12.1
333.15	0.5	1137.9	11.9
338.15	0.25	1181.4	12.2
338.15	0.33	1170.8	12.1
343.15	0.25	1178.1	12.1
343.15	0.33	1167.4	12.1
343.15	0.5	1132.6	11.9
348.15	0.25	1176	12.1
348.15	0.33	1165.5	12.1
353.15	0.25	1173.2	12.1
353.15	0.33	1163.5	12
353.15	0.5	1126.6	11.8
358.15	0.25	1170.6	12.1
358.15	0.33	1160.2	12
363.15	0.25	1167.8	12.1
363.15	0.33	1157.1	12
363.15	0.5	1122	11.8
368.15	0.25	1165.2	12.1
368.15	0.33	1154.9	12

System: glycerol + choline chloride; phases: Liquid, Crystal
Fixed: Pressure, kPa = 101
Property: Solid-liquid equilibrium temperature, K (Liquid); method: DTA
Mole fraction of choline chloride	Solid-liquid equilibrium temperature, K	uncertainty
0.5	281.18	2.03
0.33	237	2.03
0.25	240.5	2.03

System: choline chloride + 1,2-ethanediol; phases: Liquid
Fixed: Pressure, kPa = 101
Property: Mass density, kg/m3 (Liquid); method: Vibrating tube method
Mole fraction of choline chloride	Temperature, K	Mass density, kg/m3	uncertainty
0.28	298.15	1117	11.8
0.28	303.15	1114.1	11.7
0.28	308.15	1111.1	11.7
0.28	313.15	1108.2	11.7
0.28	318.15	1105.2	11.7
0.28	323.15	1102.3	11.7
0.28	328.15	1099.3	11.7
0.28	333.15	1096.2	11.6
0.28	338.15	1093.4	11.6
0.28	343.15	1090.4	11.6
0.28	348.15	1087.5	11.6
0.28	353.15	1084.7	11.6
0.28	358.15	1081.6	11.6
0.28	363.15	1078.8	11.5
0.28	368.15	1075.7	11.5
0.33	303.15	1114.6	11.7
0.33	313.15	1108.8	11.7
0.33	323.15	1103.6	11.7
0.33	333.15	1097.4	11.6
0.33	343.15	1091.6	11.6
0.33	353.15	1085.4	11.6
0.33	363.15	1079.1	11.5
0.36	298.15	1118	11.8
0.36	303.15	1115.6	11.7
0.36	308.15	1112.2	11.7
0.36	313.15	1109.7	11.7
0.36	318.15	1106.4	11.7
0.36	323.15	1103.7	11.7
0.36	328.15	1100.6	11.7
0.36	333.15	1096.8	11.6
0.36	338.15	1094.8	11.6
0.36	343.15	1091	11.6
0.36	348.15	1089	11.6
0.36	353.15	1087	11.6
0.36	358.15	1083.2	11.6
0.36	363.15	1082	11.6
0.36	368.15	1077.4	11.5

System: choline chloride + 1,2-ethanediol; phases: Liquid, Crystal
Property: Solid-liquid equilibrium temperature, K (Liquid); method: DTA
Mole fraction of choline chloride	Pressure, kPa	Solid-liquid equilibrium temperature, K	uncertainty
0.28	101	277.3	2.03

System: choline chloride + 1,2-ethanediol; phases: Liquid, Crystal
Fixed: Pressure, kPa = 101
Property: Solid-liquid equilibrium temperature, K (Liquid); method: DTA
Mole fraction of choline chloride	Solid-liquid equilibrium temperature, K	uncertainty
0.36	239.83	2.03
0.33	207.14	2.03

System: glycerol + 2-(diethylamino)ethanol hydrochloride; phases: Liquid
Fixed: Pressure, kPa = 101
Property: Mass density, kg/m3 (Liquid); method: Vibrating tube method
Mole fraction of 2-(diethylamino)ethanol hydrochloride	Temperature, K	Mass density, kg/m3	uncertainty
0.2	298.15	1220.1	12.4
0.2	303.15	1217.3	12.4
0.2	308.15	1214.1	12.4
0.2	313.15	1211.4	12.4
0.2	318.15	1208.1	12.4
0.2	323.15	1204.8	12.3
0.2	328.15	1202.1	12.3
0.2	333.15	1198.9	12.3
0.2	338.15	1196.1	12.3
0.2	343.15	1193.6	12.2
0.2	348.15	1190.1	12.2
0.2	353.15	1187.3	12.2
0.2	358.15	1184.1	12.2
0.2	363.15	1180.7	12.2
0.2	368.15	1178.1	12.1
0.25	298.15	1205.1	12.3
0.25	303.15	1202	12.3
0.25	308.15	1199	12.3
0.25	313.15	1196.1	12.3
0.25	318.15	1192.9	12.2
0.25	323.15	1188.4	12.2
0.25	328.15	1186.8	12.2
0.25	333.15	1184	12.2
0.25	338.15	1180.7	12.2
0.25	343.15	1177.7	12.1
0.25	348.15	1174.6	12.1
0.25	353.15	1171.9	12.1
0.25	358.15	1168.5	12.1
0.25	363.15	1166.1	12.1
0.25	368.15	1162.4	12
0.33	303.15	1170	12.1
0.33	313.15	1163.8	12
0.33	323.15	1158.5	12
0.33	333.15	1153.1	12
0.33	343.15	1145.8	11.9
0.33	353.15	1140.3	11.9
0.33	363.15	1134.4	11.9

System: glycerol + 2-(diethylamino)ethanol hydrochloride; phases: Liquid, Crystal
Fixed: Pressure, kPa = 101
Property: Solid-liquid equilibrium temperature, K (Liquid); method: DTA
Mole fraction of 2-(diethylamino)ethanol hydrochloride	Solid-liquid equilibrium temperature, K	uncertainty
0.33	271.82	2.03
0.25	274.85	2.03
0.2	275.12	2.03

System: 1,2-ethanediol + 2-(diethylamino)ethanol hydrochloride; phases: Liquid
Fixed: Pressure, kPa = 101
Property: Mass density, kg/m3 (Liquid); method: Vibrating tube method
Mole fraction of 2-(diethylamino)ethanol hydrochloride	Temperature, K	Mass density, kg/m3	uncertainty
0.2	298.15	1103.7	11.7
0.2	303.15	1100.4	11.7
0.2	308.15	1097.3	11.6
0.2	313.15	1094.2	11.6
0.2	318.15	1091	11.6
0.2	323.15	1087.7	11.6
0.2	328.15	1084.6	11.6
0.2	333.15	1081.5	11.6
0.2	338.15	1078.2	11.5
0.2	343.15	1075	11.5
0.2	348.15	1071.8	11.5
0.2	353.15	1068.3	11.5
0.2	358.15	1065.4	11.5
0.2	363.15	1062.2	11.4
0.2	368.15	1059	11.4
0.25	303.15	1098.6	11.6
0.25	313.15	1092.6	11.6
0.25	323.15	1086.2	11.6
0.25	333.15	1079.7	11.5
0.25	343.15	1074	11.5
0.25	353.15	1067.5	11.5
0.25	363.15	1060	11.4
0.33	298.15	1099.5	11.7
0.33	303.15	1096.5	11.6
0.33	308.15	1093.3	11.6
0.33	313.15	1090.3	11.6
0.33	318.15	1087.1	11.6
0.33	323.15	1084	11.6
0.33	328.15	1080.9	11.5
0.33	333.15	1077.8	11.5
0.33	338.15	1074.8	11.5
0.33	343.15	1071.7	11.5
0.33	348.15	1068.6	11.5
0.33	353.15	1065.5	11.5
0.33	358.15	1062.4	11.5
0.33	363.15	1059	11.4
0.33	368.15	1056.2	11.4

System: 1,2-ethanediol + 2-(diethylamino)ethanol hydrochloride; phases: Liquid, Crystal 1
Fixed: Pressure, kPa = 101
Property: Solid-liquid equilibrium temperature, K (Liquid); method: DTA
Mole fraction of 2-(diethylamino)ethanol hydrochloride	Solid-liquid equilibrium temperature, K	uncertainty
0.33	242.12	2.03
0.25	250.9	2.03
0.2	251.48	2.03

System: glycerol + methyltriphenylphosphonium bromide; phases: Liquid
Fixed: Pressure, kPa = 101
Property: Mass density, kg/m3 (Liquid); method: Vibrating tube method
Mole fraction of methyltriphenylphosphonium bromide	Temperature, K	Mass density, kg/m3	uncertainty
0.2	298.15	1288.9	13
0.2	303.15	1285.5	12.9
0.2	308.15	1281.7	12.9
0.2	313.15	1278	12.9
0.2	318.15	1274.5	12.9
0.2	323.15	1271	12.8
0.2	328.15	1267.3	12.8
0.2	333.15	1263.4	12.8
0.2	338.15	1260.1	12.7
0.2	343.15	1256.8	12.7
0.2	348.15	1252.9	12.7
0.2	353.15	1249.5	12.7
0.2	358.15	1245.7	12.6
0.2	363.15	1242.3	12.6
0.2	368.15	1238.5	12.6
0.25	298.15	1297.6	13
0.25	303.15	1294.5	13
0.25	308.15	1290.6	13
0.25	313.15	1287	13
0.25	318.15	1283.6	12.9
0.25	323.15	1280.9	12.9
0.25	328.15	1276.6	12.9
0.25	333.15	1273.6	12.8
0.25	338.15	1269.6	12.8
0.25	343.15	1266	12.8
0.25	348.15	1262.6	12.8
0.25	353.15	1259.3	12.7
0.25	358.15	1255.6	12.7
0.25	363.15	1252.4	12.7
0.25	368.15	1248.6	12.7
0.33	303.15	1303	13.1
0.33	313.15	1295.2	13
0.33	323.15	1288.6	13
0.33	333.15	1281.7	12.9
0.33	343.15	1274.9	12.9
0.33	353.15	1268.2	12.8
0.33	363.15	1261.5	12.8

System: glycerol + methyltriphenylphosphonium bromide; phases: Liquid, Crystal
Fixed: Pressure, kPa = 101
Property: Solid-liquid equilibrium temperature, K (Liquid); method: DTA
Mole fraction of methyltriphenylphosphonium bromide	Solid-liquid equilibrium temperature, K	uncertainty
0.33	276.9	2.03
0.25	267.6	2.03
0.2	288.9	2.03

System: 1,2-ethanediol + methyltriphenylphosphonium bromide; phases: Liquid
Fixed: Pressure, kPa = 101
Property: Mass density, kg/m3 (Liquid); method: Vibrating tube method
Mole fraction of methyltriphenylphosphonium bromide	Temperature, K	Mass density, kg/m3	uncertainty
0.16	303.15	1216.3	12.4
0.16	313.15	1208.6	12.4
0.16	323.15	1202	12.3
0.16	333.15	1194.7	12.3
0.16	343.15	1187	12.2
0.16	353.15	1179.2	12.2
0.16	363.15	1172.3	12.1
0.2	303.15	1229	12.5
0.2	313.15	1222	12.5
0.2	323.15	1215.1	12.4
0.2	333.15	1207.9	12.4
0.2	343.15	1200.6	12.3
0.2	353.15	1193.6	12.2
0.2	363.15	1186.4	12.2
0.25	303.15	1242.4	12.6
0.25	313.15	1239.8	12.6
0.25	323.15	1232.4	12.5
0.25	333.15	1226	12.5
0.25	343.15	1218.8	12.4
0.25	353.15	1211.9	12.4
0.25	363.15	1204.5	12.3

System: 1,2-ethanediol + methyltriphenylphosphonium bromide; phases: Liquid, Crystal
Fixed: Pressure, kPa = 101
Property: Solid-liquid equilibrium temperature, K (Liquid); method: DTA
Mole fraction of methyltriphenylphosphonium bromide	Solid-liquid equilibrium temperature, K	uncertainty
0.25	226.9	2.03
0.2	223.8	2.03
0.16	224.6	2.03
