Measured thermophysical data. High-pressure volumetric properties of choline chloride-ethylene glycol based deep eutectic  solvent and its mixtures with water
Source: Thermochim. Acta, 2012, 10.1016/j.tca.2012.07.024
Compound 1: 1,2-ethanediol, C2H6O2, InChI=1S/C2H6O2/c3-1-2-4/h3-4H,1-2H2, purity 98%
Compound 2: choline chloride, C5H14ClNO, InChI=1S/C5H14NO.ClH/c1-6(2,3)4-5-7;/h7H,4-5H2,1-3H3;1H/q+1;/p-1, purity 98%
Compound 3: water, H2O, InChI=1S/H2O/h1H2, purity 99.9%

System: choline chloride + 1,2-ethanediol; phases: Liquid
Fixed: Mole fraction of choline chloride = 0.33
Property: Mass density, kg/m3 (Liquid); method: Vibrating tube method
Temperature, K	Pressure, kPa	Mass density, kg/m3	uncertainty
298.15	100	1117.4	2.4
298.15	5000	1119	2.5
298.15	10000	1120.6	2.5
298.15	15000	1122.1	2.5
298.15	20000	1123.6	2.5
298.15	25000	1125.1	2.5
298.15	30000	1126.6	2.5
298.15	35000	1128.1	2.5
298.15	40000	1129.6	2.6
298.15	45000	1131	2.6
298.15	50000	1132.4	2.6
303.15	100	1114.5	2.4
303.15	5000	1116.1	2.5
303.15	10000	1117.7	2.5
303.15	15000	1119.3	2.5
303.15	20000	1120.8	2.5
303.15	25000	1122.3	2.5
303.15	30000	1123.8	2.5
303.15	35000	1125.3	2.5
303.15	40000	1126.8	2.5
303.15	45000	1128.2	2.6
303.15	50000	1129.6	2.6
308.15	100	1111.6	2.4
308.15	5000	1113.2	2.4
308.15	10000	1114.8	2.5
308.15	15000	1116.4	2.5
308.15	20000	1117.9	2.5
308.15	25000	1119.5	2.5
308.15	30000	1121	2.5
308.15	35000	1122.5	2.5
308.15	40000	1124	2.5
308.15	45000	1125.5	2.6
308.15	50000	1126.9	2.6
313.15	100	1108.7	2.4
313.15	5000	1110.3	2.4
313.15	10000	1111.9	2.4
313.15	15000	1113.5	2.5
313.15	20000	1115.1	2.5
313.15	25000	1116.6	2.5
313.15	30000	1118.2	2.5
313.15	35000	1119.7	2.5
313.15	40000	1121.2	2.5
313.15	45000	1122.7	2.5
313.15	50000	1124.1	2.6
318.15	100	1105.9	2.4
318.15	5000	1107.5	2.4
318.15	10000	1109.1	2.4
318.15	15000	1110.7	2.5
318.15	20000	1112.3	2.5
318.15	25000	1113.8	2.5
318.15	30000	1115.4	2.5
318.15	35000	1116.9	2.5
318.15	40000	1118.4	2.5
318.15	45000	1119.9	2.5
318.15	50000	1121.4	2.6
323.15	100	1103	2.4
323.15	5000	1104.7	2.4
323.15	10000	1106.3	2.4
323.15	15000	1107.9	2.4
323.15	20000	1109.5	2.5
323.15	25000	1111	2.5
323.15	30000	1112.6	2.5
323.15	35000	1114.1	2.5
323.15	40000	1115.7	2.5
323.15	45000	1117.2	2.5
323.15	50000	1118.7	2.5

System: choline chloride + 1,2-ethanediol + water; phases: Liquid
Fixed: Solvent: Mole fraction of choline chloride = 0.33
Property: Mass density, kg/m3 (Liquid); method: Vibrating tube method
Temperature, K	Pressure, kPa	Mole fraction of water	Mass density, kg/m3	uncertainty
298.15	100	0.0999	1115.7	2.3
298.15	100	0.1998	1113.6	2.3
298.15	100	0.3001	1110.9	2.3
298.15	100	0.4005	1107.3	2.3
298.15	100	0.5003	1102.3	2.3
298.15	100	0.6001	1095.1	2.2
298.15	100	0.7	1084.5	2.2
298.15	100	0.8001	1068.4	2.2
298.15	100	0.9	1042.4	2.1
298.15	5000	0.0999	1117.2	2.3
298.15	5000	0.1998	1115.1	2.3
298.15	5000	0.3001	1112.5	2.3
298.15	5000	0.4005	1108.8	2.3
298.15	5000	0.5003	1103.8	2.3
298.15	5000	0.6001	1096.6	2.2
298.15	5000	0.7	1086	2.2
298.15	5000	0.8001	1070	2.2
298.15	5000	0.9	1044.2	2.1
298.15	10000	0.0999	1118.8	2.3
298.15	10000	0.1998	1116.7	2.3
298.15	10000	0.3001	1114	2.3
298.15	10000	0.4005	1110.4	2.3
298.15	10000	0.5003	1105.3	2.3
298.15	10000	0.6001	1098.1	2.3
298.15	10000	0.7	1087.6	2.2
298.15	10000	0.8001	1071.6	2.2
298.15	10000	0.9	1046	2.1
298.15	15000	0.0999	1120.3	2.3
298.15	15000	0.1998	1118.2	2.3
298.15	15000	0.3001	1115.5	2.3
298.15	15000	0.4005	1111.9	2.3
298.15	15000	0.5003	1106.7	2.3
298.15	15000	0.6001	1099.6	2.3
298.15	15000	0.7	1089.1	2.2
298.15	15000	0.8001	1073.2	2.2
298.15	15000	0.9	1047.7	2.1
298.15	20000	0.0999	1121.8	2.3
298.15	20000	0.1998	1119.7	2.3
298.15	20000	0.3001	1116.9	2.3
298.15	20000	0.4005	1113.3	2.3
298.15	20000	0.5003	1108.2	2.3
298.15	20000	0.6001	1101.1	2.3
298.15	20000	0.7	1090.6	2.2
298.15	20000	0.8001	1074.8	2.2
298.15	20000	0.9	1049.4	2.1
298.15	25000	0.0999	1123.3	2.3
298.15	25000	0.1998	1121.2	2.3
298.15	25000	0.3001	1118.4	2.3
298.15	25000	0.4005	1114.8	2.3
298.15	25000	0.5003	1109.7	2.3
298.15	25000	0.6001	1102.5	2.3
298.15	25000	0.7	1092.1	2.3
298.15	25000	0.8001	1076.3	2.2
298.15	25000	0.9	1051.1	2.2
298.15	30000	0.0999	1124.8	2.3
298.15	30000	0.1998	1122.6	2.3
298.15	30000	0.3001	1119.9	2.3
298.15	30000	0.4005	1116.2	2.3
298.15	30000	0.5003	1111.1	2.3
298.15	30000	0.6001	1104	2.3
298.15	30000	0.7	1093.6	2.3
298.15	30000	0.8001	1077.8	2.2
298.15	30000	0.9	1052.9	2.2
298.15	35000	0.0999	1126.3	2.3
298.15	35000	0.1998	1124.1	2.3
298.15	35000	0.3001	1121.4	2.3
298.15	35000	0.4005	1117.7	2.3
298.15	35000	0.5003	1112.6	2.3
298.15	35000	0.6001	1105.5	2.3
298.15	35000	0.7	1095.1	2.3
298.15	35000	0.8001	1079.4	2.2
298.15	35000	0.9	1054.6	2.2
298.15	40000	0.0999	1127.8	2.4
298.15	40000	0.1998	1125.6	2.4
298.15	40000	0.3001	1122.9	2.3
298.15	40000	0.4005	1119.1	2.3
298.15	40000	0.5003	1114	2.3
298.15	40000	0.6001	1106.9	2.3
298.15	40000	0.7	1096.5	2.3
298.15	40000	0.8001	1080.9	2.2
298.15	40000	0.9	1056.3	2.2
298.15	45000	0.0999	1129.2	2.4
298.15	45000	0.1998	1127	2.4
298.15	45000	0.3001	1124.3	2.4
298.15	45000	0.4005	1120.5	2.3
298.15	45000	0.5003	1115.4	2.3
298.15	45000	0.6001	1108.2	2.3
298.15	45000	0.7	1097.9	2.3
298.15	45000	0.8001	1082.3	2.2
298.15	45000	0.9	1058	2.2
298.15	50000	0.0999	1130.6	2.4
298.15	50000	0.1998	1128.4	2.4
298.15	50000	0.3001	1125.6	2.4
298.15	50000	0.4005	1121.9	2.4
298.15	50000	0.5003	1116.8	2.3
298.15	50000	0.6001	1109.7	2.3
298.15	50000	0.7	1099.4	2.3
298.15	50000	0.8001	1083.9	2.3
298.15	50000	0.9	1059.7	2.2
303.15	100	0.0999	1112.8	2.3
303.15	100	0.1998	1110.7	2.3
303.15	100	0.3001	1108	2.3
303.15	100	0.4005	1104.4	2.3
303.15	100	0.5003	1099.4	2.3
303.15	100	0.6001	1092.3	2.2
303.15	100	0.7	1081.8	2.2
303.15	100	0.8001	1065.8	2.2
303.15	100	0.9	1040.3	2.1
303.15	5000	0.0999	1114.3	2.3
303.15	5000	0.1998	1112.2	2.3
303.15	5000	0.3001	1109.6	2.3
303.15	5000	0.4005	1105.9	2.3
303.15	5000	0.5003	1100.9	2.3
303.15	5000	0.6001	1093.8	2.2
303.15	5000	0.7	1083.3	2.2
303.15	5000	0.8001	1067.5	2.2
303.15	5000	0.9	1042	2.1
303.15	10000	0.0999	1115.9	2.3
303.15	10000	0.1998	1113.8	2.3
303.15	10000	0.3001	1111.1	2.3
303.15	10000	0.4005	1107.5	2.3
303.15	10000	0.5003	1102.5	2.3
303.15	10000	0.6001	1095.4	2.2
303.15	10000	0.7	1084.9	2.2
303.15	10000	0.8001	1069.1	2.2
303.15	10000	0.9	1043.8	2.1
303.15	15000	0.0999	1117.5	2.3
303.15	15000	0.1998	1115.4	2.3
303.15	15000	0.3001	1112.7	2.3
303.15	15000	0.4005	1109.1	2.3
303.15	15000	0.5003	1104	2.3
303.15	15000	0.6001	1096.9	2.3
303.15	15000	0.7	1086.4	2.2
303.15	15000	0.8001	1070.6	2.2
303.15	15000	0.9	1045.6	2.1
303.15	20000	0.0999	1119	2.3
303.15	20000	0.1998	1116.9	2.3
303.15	20000	0.3001	1114.1	2.3
303.15	20000	0.4005	1110.5	2.3
303.15	20000	0.5003	1105.5	2.3
303.15	20000	0.6001	1098.4	2.3
303.15	20000	0.7	1087.9	2.2
303.15	20000	0.8001	1072.2	2.2
303.15	20000	0.9	1047.3	2.1
303.15	25000	0.0999	1120.5	2.3
303.15	25000	0.1998	1118.4	2.3
303.15	25000	0.3001	1115.6	2.3
303.15	25000	0.4005	1112	2.3
303.15	25000	0.5003	1107	2.3
303.15	25000	0.6001	1099.8	2.3
303.15	25000	0.7	1089.4	2.2
303.15	25000	0.8001	1073.8	2.2
303.15	25000	0.9	1049	2.1
303.15	30000	0.0999	1122	2.3
303.15	30000	0.1998	1119.8	2.3
303.15	30000	0.3001	1117.1	2.3
303.15	30000	0.4005	1113.5	2.3
303.15	30000	0.5003	1108.4	2.3
303.15	30000	0.6001	1101.3	2.3
303.15	30000	0.7	1090.9	2.3
303.15	30000	0.8001	1075.4	2.2
303.15	30000	0.9	1050.7	2.2
303.15	35000	0.0999	1123.5	2.3
303.15	35000	0.1998	1121.3	2.3
303.15	35000	0.3001	1118.6	2.3
303.15	35000	0.4005	1114.9	2.3
303.15	35000	0.5003	1109.9	2.3
303.15	35000	0.6001	1102.8	2.3
303.15	35000	0.7	1092.4	2.3
303.15	35000	0.8001	1076.9	2.2
303.15	35000	0.9	1052.4	2.2
303.15	40000	0.0999	1125	2.4
303.15	40000	0.1998	1122.8	2.3
303.15	40000	0.3001	1120.1	2.3
303.15	40000	0.4005	1116.4	2.3
303.15	40000	0.5003	1111.3	2.3
303.15	40000	0.6001	1104.2	2.3
303.15	40000	0.7	1093.9	2.3
303.15	40000	0.8001	1078.4	2.2
303.15	40000	0.9	1054.1	2.2
303.15	45000	0.0999	1126.4	2.4
303.15	45000	0.1998	1124.2	2.4
303.15	45000	0.3001	1121.5	2.3
303.15	45000	0.4005	1117.8	2.3
303.15	45000	0.5003	1112.7	2.3
303.15	45000	0.6001	1105.6	2.3
303.15	45000	0.7	1095.3	2.3
303.15	45000	0.8001	1079.9	2.2
303.15	45000	0.9	1055.7	2.2
303.15	50000	0.0999	1127.8	2.4
303.15	50000	0.1998	1125.6	2.4
303.15	50000	0.3001	1122.8	2.4
303.15	50000	0.4005	1119.2	2.3
303.15	50000	0.5003	1114.1	2.3
303.15	50000	0.6001	1107	2.3
303.15	50000	0.7	1096.8	2.3
303.15	50000	0.8001	1081.4	2.2
303.15	50000	0.9	1057.4	2.2
308.15	100	0.0999	1109.9	2.3
308.15	100	0.1998	1107.8	2.3
308.15	100	0.3001	1105.1	2.3
308.15	100	0.4005	1101.5	2.3
308.15	100	0.5003	1096.6	2.2
308.15	100	0.6001	1089.5	2.2
308.15	100	0.7	1079	2.2
308.15	100	0.8001	1063.3	2.2
308.15	100	0.9	1038	2.1
308.15	5000	0.0999	1111.4	2.3
308.15	5000	0.1998	1109.3	2.3
308.15	5000	0.3001	1106.7	2.3
308.15	5000	0.4005	1103.1	2.3
308.15	5000	0.5003	1098.1	2.3
308.15	5000	0.6001	1091	2.2
308.15	5000	0.7	1080.6	2.2
308.15	5000	0.8001	1064.9	2.2
308.15	5000	0.9	1039.8	2.1
308.15	10000	0.0999	1113	2.3
308.15	10000	0.1998	1110.9	2.3
308.15	10000	0.3001	1108.2	2.3
308.15	10000	0.4005	1104.6	2.3
308.15	10000	0.5003	1099.6	2.3
308.15	10000	0.6001	1092.6	2.2
308.15	10000	0.7	1082.2	2.2
308.15	10000	0.8001	1066.5	2.2
308.15	10000	0.9	1041.6	2.1
308.15	15000	0.0999	1114.6	2.3
308.15	15000	0.1998	1112.5	2.3
308.15	15000	0.3001	1109.8	2.3
308.15	15000	0.4005	1106.2	2.3
308.15	15000	0.5003	1101.2	2.3
308.15	15000	0.6001	1094.1	2.3
308.15	15000	0.7	1083.7	2.2
308.15	15000	0.8001	1068.1	2.2
308.15	15000	0.9	1043.3	2.1
308.15	20000	0.0999	1116.1	2.3
308.15	20000	0.1998	1114	2.3
308.15	20000	0.3001	1111.2	2.3
308.15	20000	0.4005	1107.6	2.3
308.15	20000	0.5003	1102.7	2.3
308.15	20000	0.6001	1095.6	2.3
308.15	20000	0.7	1085.2	2.2
308.15	20000	0.8001	1069.7	2.2
308.15	20000	0.9	1045.1	2.1
308.15	25000	0.0999	1117.7	2.3
308.15	25000	0.1998	1115.6	2.3
308.15	25000	0.3001	1112.8	2.3
308.15	25000	0.4005	1109.2	2.3
308.15	25000	0.5003	1104.2	2.3
308.15	25000	0.6001	1097.1	2.3
308.15	25000	0.7	1086.8	2.2
308.15	25000	0.8001	1071.3	2.2
308.15	25000	0.9	1046.8	2.1
308.15	30000	0.0999	1119.2	2.3
308.15	30000	0.1998	1117	2.3
308.15	30000	0.3001	1114.3	2.3
308.15	30000	0.4005	1110.7	2.3
308.15	30000	0.5003	1105.6	2.3
308.15	30000	0.6001	1098.6	2.3
308.15	30000	0.7	1088.3	2.2
308.15	30000	0.8001	1072.8	2.2
308.15	30000	0.9	1048.5	2.2
308.15	35000	0.0999	1120.7	2.3
308.15	35000	0.1998	1118.5	2.3
308.15	35000	0.3001	1115.8	2.3
308.15	35000	0.4005	1112.1	2.3
308.15	35000	0.5003	1107.1	2.3
308.15	35000	0.6001	1100.1	2.3
308.15	35000	0.7	1089.8	2.3
308.15	35000	0.8001	1074.4	2.2
308.15	35000	0.9	1050.2	2.2
308.15	40000	0.0999	1122.2	2.3
308.15	40000	0.1998	1120	2.3
308.15	40000	0.3001	1117.3	2.3
308.15	40000	0.4005	1113.6	2.3
308.15	40000	0.5003	1108.6	2.3
308.15	40000	0.6001	1101.5	2.3
308.15	40000	0.7	1091.3	2.3
308.15	40000	0.8001	1075.9	2.2
308.15	40000	0.9	1051.8	2.2
308.15	45000	0.0999	1123.7	2.4
308.15	45000	0.1998	1121.5	2.3
308.15	45000	0.3001	1118.8	2.3
308.15	45000	0.4005	1115.1	2.3
308.15	45000	0.5003	1110	2.3
308.15	45000	0.6001	1103	2.3
308.15	45000	0.7	1092.7	2.3
308.15	45000	0.8001	1077.4	2.2
308.15	45000	0.9	1053.4	2.2
308.15	50000	0.0999	1125.1	2.4
308.15	50000	0.1998	1122.9	2.4
308.15	50000	0.3001	1120.1	2.4
308.15	50000	0.4005	1116.5	2.3
308.15	50000	0.5003	1111.4	2.3
308.15	50000	0.6001	1104.4	2.3
308.15	50000	0.7	1094.2	2.3
308.15	50000	0.8001	1079	2.2
308.15	50000	0.9	1055.1	2.2
313.15	100	0.0999	1107	2.3
313.15	100	0.1998	1104.9	2.3
313.15	100	0.3001	1102.2	2.3
313.15	100	0.4005	1098.6	2.2
313.15	100	0.5003	1093.7	2.2
313.15	100	0.6001	1086.7	2.2
313.15	100	0.7	1076.3	2.2
313.15	100	0.8001	1060.6	2.2
313.15	100	0.9	1035.7	2.1
313.15	5000	0.0999	1108.5	2.3
313.15	5000	0.1998	1106.4	2.3
313.15	5000	0.3001	1103.8	2.3
313.15	5000	0.4005	1100.2	2.3
313.15	5000	0.5003	1095.2	2.2
313.15	5000	0.6001	1088.2	2.2
313.15	5000	0.7	1077.8	2.2
313.15	5000	0.8001	1062.2	2.2
313.15	5000	0.9	1037.5	2.1
313.15	10000	0.0999	1110.1	2.3
313.15	10000	0.1998	1108	2.3
313.15	10000	0.3001	1105.3	2.3
313.15	10000	0.4005	1101.7	2.3
313.15	10000	0.5003	1096.8	2.3
313.15	10000	0.6001	1089.8	2.2
313.15	10000	0.7	1079.4	2.2
313.15	10000	0.8001	1063.9	2.2
313.15	10000	0.9	1039.3	2.1
313.15	15000	0.0999	1111.7	2.3
313.15	15000	0.1998	1109.6	2.3
313.15	15000	0.3001	1106.9	2.3
313.15	15000	0.4005	1103.3	2.3
313.15	15000	0.5003	1098.4	2.3
313.15	15000	0.6001	1091.3	2.2
313.15	15000	0.7	1081	2.2
313.15	15000	0.8001	1065.6	2.2
313.15	15000	0.9	1041	2.1
313.15	20000	0.0999	1113.3	2.3
313.15	20000	0.1998	1111.2	2.3
313.15	20000	0.3001	1108.4	2.3
313.15	20000	0.4005	1104.9	2.3
313.15	20000	0.5003	1099.9	2.3
313.15	20000	0.6001	1092.9	2.3
313.15	20000	0.7	1082.6	2.2
313.15	20000	0.8001	1067.1	2.2
313.15	20000	0.9	1042.8	2.1
313.15	25000	0.0999	1114.8	2.3
313.15	25000	0.1998	1112.7	2.3
313.15	25000	0.3001	1109.9	2.3
313.15	25000	0.4005	1106.3	2.3
313.15	25000	0.5003	1101.4	2.3
313.15	25000	0.6001	1094.4	2.3
313.15	25000	0.7	1084.1	2.2
313.15	25000	0.8001	1068.7	2.2
313.15	25000	0.9	1044.5	2.1
313.15	30000	0.0999	1116.4	2.3
313.15	30000	0.1998	1114.2	2.3
313.15	30000	0.3001	1111.5	2.3
313.15	30000	0.4005	1107.9	2.3
313.15	30000	0.5003	1102.9	2.3
313.15	30000	0.6001	1095.9	2.3
313.15	30000	0.7	1085.6	2.2
313.15	30000	0.8001	1070.3	2.2
313.15	30000	0.9	1046.2	2.1
313.15	35000	0.0999	1117.9	2.3
313.15	35000	0.1998	1115.7	2.3
313.15	35000	0.3001	1113	2.3
313.15	35000	0.4005	1109.3	2.3
313.15	35000	0.5003	1104.4	2.3
313.15	35000	0.6001	1097.4	2.3
313.15	35000	0.7	1087.1	2.2
313.15	35000	0.8001	1071.8	2.2
313.15	35000	0.9	1047.9	2.2
313.15	40000	0.0999	1119.4	2.3
313.15	40000	0.1998	1117.2	2.3
313.15	40000	0.3001	1114.5	2.3
313.15	40000	0.4005	1110.8	2.3
313.15	40000	0.5003	1105.9	2.3
313.15	40000	0.6001	1098.9	2.3
313.15	40000	0.7	1088.6	2.3
313.15	40000	0.8001	1073.4	2.2
313.15	40000	0.9	1049.6	2.2
313.15	45000	0.0999	1120.9	2.3
313.15	45000	0.1998	1118.7	2.3
313.15	45000	0.3001	1116	2.3
313.15	45000	0.4005	1112.3	2.3
313.15	45000	0.5003	1107.3	2.3
313.15	45000	0.6001	1100.3	2.3
313.15	45000	0.7	1090.1	2.3
313.15	45000	0.8001	1074.9	2.2
313.15	45000	0.9	1051.2	2.2
313.15	50000	0.0999	1122.3	2.4
313.15	50000	0.1998	1120.1	2.4
313.15	50000	0.3001	1117.3	2.3
313.15	50000	0.4005	1113.7	2.3
313.15	50000	0.5003	1108.7	2.3
313.15	50000	0.6001	1101.7	2.3
313.15	50000	0.7	1091.5	2.3
313.15	50000	0.8001	1076.4	2.2
313.15	50000	0.9	1052.9	2.2
318.15	100	0.0999	1104.2	2.3
318.15	100	0.1998	1102.1	2.3
318.15	100	0.3001	1099.4	2.3
318.15	100	0.4005	1095.8	2.2
318.15	100	0.5003	1090.8	2.2
318.15	100	0.6001	1083.8	2.2
318.15	100	0.7	1073.4	2.2
318.15	100	0.8001	1057.9	2.2
318.15	100	0.9	1033.3	2.1
318.15	5000	0.0999	1105.7	2.3
318.15	5000	0.1998	1103.6	2.3
318.15	5000	0.3001	1101	2.3
318.15	5000	0.4005	1097.4	2.3
318.15	5000	0.5003	1092.4	2.2
318.15	5000	0.6001	1085.3	2.2
318.15	5000	0.7	1075	2.2
318.15	5000	0.8001	1059.6	2.2
318.15	5000	0.9	1035.1	2.1
318.15	10000	0.0999	1107.3	2.3
318.15	10000	0.1998	1105.2	2.3
318.15	10000	0.3001	1102.5	2.3
318.15	10000	0.4005	1098.9	2.3
318.15	10000	0.5003	1094	2.2
318.15	10000	0.6001	1086.9	2.2
318.15	10000	0.7	1076.7	2.2
318.15	10000	0.8001	1061.2	2.2
318.15	10000	0.9	1036.8	2.1
318.15	15000	0.0999	1108.9	2.3
318.15	15000	0.1998	1106.8	2.3
318.15	15000	0.3001	1104.1	2.3
318.15	15000	0.4005	1100.5	2.3
318.15	15000	0.5003	1095.6	2.3
318.15	15000	0.6001	1088.5	2.2
318.15	15000	0.7	1078.3	2.2
318.15	15000	0.8001	1062.9	2.2
318.15	15000	0.9	1038.6	2.1
318.15	20000	0.0999	1110.5	2.3
318.15	20000	0.1998	1108.4	2.3
318.15	20000	0.3001	1105.6	2.3
318.15	20000	0.4005	1102.1	2.3
318.15	20000	0.5003	1097.1	2.3
318.15	20000	0.6001	1090.1	2.2
318.15	20000	0.7	1079.8	2.2
318.15	20000	0.8001	1064.5	2.2
318.15	20000	0.9	1040.3	2.1
318.15	25000	0.0999	1112	2.3
318.15	25000	0.1998	1109.9	2.3
318.15	25000	0.3001	1107.1	2.3
318.15	25000	0.4005	1103.5	2.3
318.15	25000	0.5003	1098.6	2.3
318.15	25000	0.6001	1091.6	2.3
318.15	25000	0.7	1081.4	2.2
318.15	25000	0.8001	1066.1	2.2
318.15	25000	0.9	1042	2.1
318.15	30000	0.0999	1113.6	2.3
318.15	30000	0.1998	1111.4	2.3
318.15	30000	0.3001	1108.7	2.3
318.15	30000	0.4005	1105.1	2.3
318.15	30000	0.5003	1100.1	2.3
318.15	30000	0.6001	1093.1	2.3
318.15	30000	0.7	1082.9	2.2
318.15	30000	0.8001	1067.7	2.2
318.15	30000	0.9	1043.8	2.1
318.15	35000	0.0999	1115.1	2.3
318.15	35000	0.1998	1112.9	2.3
318.15	35000	0.3001	1110.2	2.3
318.15	35000	0.4005	1106.5	2.3
318.15	35000	0.5003	1101.6	2.3
318.15	35000	0.6001	1094.6	2.3
318.15	35000	0.7	1084.4	2.2
318.15	35000	0.8001	1069.3	2.2
318.15	35000	0.9	1045.5	2.1
318.15	40000	0.0999	1116.6	2.3
318.15	40000	0.1998	1114.4	2.3
318.15	40000	0.3001	1111.7	2.3
318.15	40000	0.4005	1108	2.3
318.15	40000	0.5003	1103.1	2.3
318.15	40000	0.6001	1096.1	2.3
318.15	40000	0.7	1085.9	2.2
318.15	40000	0.8001	1070.8	2.2
318.15	40000	0.9	1047.2	2.2
318.15	45000	0.0999	1118.1	2.3
318.15	45000	0.1998	1115.9	2.3
318.15	45000	0.3001	1113.2	2.3
318.15	45000	0.4005	1109.5	2.3
318.15	45000	0.5003	1104.5	2.3
318.15	45000	0.6001	1097.5	2.3
318.15	45000	0.7	1087.4	2.3
318.15	45000	0.8001	1072.4	2.2
318.15	45000	0.9	1048.8	2.2
318.15	50000	0.0999	1119.6	2.3
318.15	50000	0.1998	1117.4	2.3
318.15	50000	0.3001	1114.6	2.3
318.15	50000	0.4005	1111	2.3
318.15	50000	0.5003	1106	2.3
318.15	50000	0.6001	1099	2.3
318.15	50000	0.7	1088.8	2.3
318.15	50000	0.8001	1073.9	2.2
318.15	50000	0.9	1050.5	2.2
323.15	100	0.0999	1101.3	2.3
323.15	100	0.1998	1099.2	2.3
323.15	100	0.3001	1096.5	2.2
323.15	100	0.4005	1092.9	2.2
323.15	100	0.5003	1087.9	2.2
323.15	100	0.6001	1080.9	2.2
323.15	100	0.7	1070.6	2.2
323.15	100	0.8001	1055.2	2.2
323.15	100	0.9	1030.7	2.1
323.15	5000	0.0999	1102.9	2.3
323.15	5000	0.1998	1100.8	2.3
323.15	5000	0.3001	1098.2	2.3
323.15	5000	0.4005	1094.5	2.2
323.15	5000	0.5003	1089.5	2.2
323.15	5000	0.6001	1082.5	2.2
323.15	5000	0.7	1072.2	2.2
323.15	5000	0.8001	1056.9	2.2
323.15	5000	0.9	1032.5	2.1
323.15	10000	0.0999	1104.5	2.3
323.15	10000	0.1998	1102.4	2.3
323.15	10000	0.3001	1099.7	2.3
323.15	10000	0.4005	1096	2.3
323.15	10000	0.5003	1091.2	2.2
323.15	10000	0.6001	1084.1	2.2
323.15	10000	0.7	1073.9	2.2
323.15	10000	0.8001	1058.6	2.2
323.15	10000	0.9	1034.3	2.1
323.15	15000	0.0999	1106.1	2.3
323.15	15000	0.1998	1104	2.3
323.15	15000	0.3001	1101.3	2.3
323.15	15000	0.4005	1097.6	2.3
323.15	15000	0.5003	1092.7	2.2
323.15	15000	0.6001	1085.7	2.2
323.15	15000	0.7	1075.4	2.2
323.15	15000	0.8001	1060.2	2.2
323.15	15000	0.9	1036	2.1
323.15	20000	0.0999	1107.7	2.3
323.15	20000	0.1998	1105.6	2.3
323.15	20000	0.3001	1102.8	2.3
323.15	20000	0.4005	1099.2	2.3
323.15	20000	0.5003	1094.3	2.3
323.15	20000	0.6001	1087.3	2.2
323.15	20000	0.7	1077	2.2
323.15	20000	0.8001	1061.8	2.2
323.15	20000	0.9	1037.8	2.1
323.15	25000	0.0999	1109.2	2.3
323.15	25000	0.1998	1107.1	2.3
323.15	25000	0.3001	1104.3	2.3
323.15	25000	0.4005	1100.7	2.3
323.15	25000	0.5003	1095.8	2.3
323.15	25000	0.6001	1088.8	2.2
323.15	25000	0.7	1078.6	2.2
323.15	25000	0.8001	1063.5	2.2
323.15	25000	0.9	1039.5	2.1
323.15	30000	0.0999	1110.8	2.3
323.15	30000	0.1998	1108.6	2.3
323.15	30000	0.3001	1105.9	2.3
323.15	30000	0.4005	1102.3	2.3
323.15	30000	0.5003	1097.3	2.3
323.15	30000	0.6001	1090.3	2.3
323.15	30000	0.7	1080.2	2.2
323.15	30000	0.8001	1065.1	2.2
323.15	30000	0.9	1041.3	2.1
323.15	35000	0.0999	1112.3	2.3
323.15	35000	0.1998	1110.1	2.3
323.15	35000	0.3001	1107.4	2.3
323.15	35000	0.4005	1103.7	2.3
323.15	35000	0.5003	1098.8	2.3
323.15	35000	0.6001	1091.8	2.3
323.15	35000	0.7	1081.7	2.2
323.15	35000	0.8001	1066.6	2.2
323.15	35000	0.9	1043	2.1
323.15	40000	0.0999	1113.9	2.3
323.15	40000	0.1998	1111.7	2.3
323.15	40000	0.3001	1109	2.3
323.15	40000	0.4005	1105.3	2.3
323.15	40000	0.5003	1100.4	2.3
323.15	40000	0.6001	1093.4	2.3
323.15	40000	0.7	1083.2	2.2
323.15	40000	0.8001	1068.2	2.2
323.15	40000	0.9	1044.7	2.1
323.15	45000	0.0999	1115.4	2.3
323.15	45000	0.1998	1113.2	2.3
323.15	45000	0.3001	1110.5	2.3
323.15	45000	0.4005	1106.8	2.3
323.15	45000	0.5003	1101.8	2.3
323.15	45000	0.6001	1094.8	2.3
323.15	45000	0.7	1084.7	2.3
323.15	45000	0.8001	1069.8	2.2
323.15	45000	0.9	1046.4	2.2
323.15	50000	0.0999	1116.9	2.3
323.15	50000	0.1998	1114.7	2.3
323.15	50000	0.3001	1111.9	2.3
323.15	50000	0.4005	1108.2	2.3
323.15	50000	0.5003	1103.3	2.3
323.15	50000	0.6001	1096.3	2.3
323.15	50000	0.7	1086.2	2.3
323.15	50000	0.8001	1071.3	2.2
323.15	50000	0.9	1048	2.2
