Measured thermophysical data. Excess molar volumes of Diisopropylamine + (C1-C5) Alkan-1-ols:  application of the ERAS model and cubic EOS
Source: Thermochim. Acta, 2011, 10.1016/j.tca.2011.05.006
Compound 1: diisopropylamine, C6H15N, InChI=1S/C6H15N/c1-5(2)7-6(3)4/h5-7H,1-4H3, purity 99%
Compound 2: methanol, CH4O, InChI=1S/CH4O/c1-2/h2H,1H3, purity 99%
Compound 3: ethanol, C2H6O, InChI=1S/C2H6O/c1-2-3/h3H,2H2,1H3, purity 99%
Compound 4: propan-1-ol, C3H8O, InChI=1S/C3H8O/c1-2-3-4/h4H,2-3H2,1H3, purity 99%
Compound 5: butan-1-ol, C4H10O, InChI=1S/C4H10O/c1-2-3-4-5/h5H,2-4H2,1H3, purity 99%
Compound 6: pentan-1-ol, C5H12O, InChI=1S/C5H12O/c1-2-3-4-5-6/h6H,2-5H2,1H3, purity 99%

System: diisopropylamine; phases: Liquid
Fixed: Pressure, kPa = 101
Property: Mass density, kg/m3 (Liquid); method: Vibrating tube method
Temperature, K	Mass density, kg/m3	uncertainty
293.15	720.89	0.24
298.15	715.35	0.24
303.15	710.23	0.24
313.15	699.71	0.25

System: methanol; phases: Liquid
Fixed: Pressure, kPa = 101
Property: Mass density, kg/m3 (Liquid); method: Vibrating tube method
Temperature, K	Mass density, kg/m3	uncertainty
293.15	791.72	0.24
298.15	787.35	0.24
303.15	782.24	0.24
313.15	772.73	0.24

System: ethanol; phases: Liquid
Fixed: Pressure, kPa = 101
Property: Mass density, kg/m3 (Liquid); method: Vibrating tube method
Temperature, K	Mass density, kg/m3	uncertainty
293.15	792.17	0.24
298.15	786.71	0.24
303.15	781.3	0.24
313.15	771.14	0.24

System: propan-1-ol; phases: Liquid
Fixed: Pressure, kPa = 101
Property: Mass density, kg/m3 (Liquid); method: Vibrating tube method
Temperature, K	Mass density, kg/m3	uncertainty
293.15	800.03	0.24
298.15	797.81	0.24
303.15	795.05	0.24
313.15	787.95	0.24

System: butan-1-ol; phases: Liquid
Fixed: Pressure, kPa = 101
Property: Mass density, kg/m3 (Liquid); method: Vibrating tube method
Temperature, K	Mass density, kg/m3	uncertainty
293.15	809.78	0.24
298.15	806.05	0.24
303.15	802.03	0.24
313.15	794.12	0.24

System: pentan-1-ol; phases: Liquid
Fixed: Pressure, kPa = 101
Property: Mass density, kg/m3 (Liquid); method: Vibrating tube method
Temperature, K	Mass density, kg/m3	uncertainty
293.15	814.8	0.24
298.15	810.82	0.24
303.15	807.07	0.24
313.15	799.4	0.24

System: methanol + diisopropylamine; phases: Liquid
Fixed: Pressure, kPa = 101
Property: Mass density, kg/m3 (Liquid); method: Vibrating tube method
Temperature, K	Mole fraction of diisopropylamine	Mass density, kg/m3	uncertainty
293.15	0	791.72	0.24
293.15	0.0808	789.98	0.24
293.15	0.1599	786.75	0.24
293.15	0.2399	782.33	0.24
293.15	0.3477	774.9	0.24
293.15	0.4444	767.44	0.24
293.15	0.5563	757.92	0.24
293.15	0.6507	749.84	0.24
293.15	0.7388	742.2	0.24
293.15	0.8482	732.94	0.24
293.15	0.94	725.56	0.24
293.15	1	720.89	0.24
298.15	0	787.35	0.24
298.15	0.0808	785.35	0.24
298.15	0.1599	781.66	0.24
298.15	0.2399	777.02	0.24
298.15	0.3477	769.38	0.24
298.15	0.4444	761.76	0.24
298.15	0.5563	752.29	0.24
298.15	0.6507	744.22	0.24
298.15	0.7388	736.62	0.24
298.15	0.8482	727.37	0.24
298.15	0.94	719.98	0.24
298.15	1	715.35	0.24
303.15	0	782.24	0.24
303.15	0.0808	779.68	0.24
303.15	0.1599	776.01	0.24
303.15	0.2399	771.2	0.24
303.15	0.3477	763.6	0.24
303.15	0.4444	756.06	0.24
303.15	0.5563	746.8	0.24
303.15	0.6507	738.78	0.24
303.15	0.7388	731.3	0.24
303.15	0.8482	722.19	0.24
303.15	0.94	714.87	0.24
303.15	1	710.23	0.24
313.15	0	772.73	0.24
313.15	0.0808	768.72	0.24
313.15	0.1599	764.23	0.24
313.15	0.2399	758.93	0.24
313.15	0.3477	751.16	0.24
313.15	0.4444	744.11	0.24
313.15	0.5563	735.46	0.24
313.15	0.6507	727.96	0.24
313.15	0.7388	720.89	0.24
313.15	0.8482	712.05	0.25
313.15	0.94	704.62	0.25
313.15	1	699.71	0.25

System: ethanol + diisopropylamine; phases: Liquid
Fixed: Pressure, kPa = 101
Property: Mass density, kg/m3 (Liquid); method: Vibrating tube method
Temperature, K	Mole fraction of diisopropylamine	Mass density, kg/m3	uncertainty
293.15	0	792.17	0.24
293.15	0.0808	788.65	0.24
293.15	0.1601	784.61	0.24
293.15	0.2386	779.98	0.24
293.15	0.3497	772.63	0.24
293.15	0.4411	766.01	0.24
293.15	0.5532	757.4	0.2
293.15	0.65	749.49	0.24
293.15	0.7395	742.16	0.24
293.15	0.8478	733.27	0.24
293.15	0.9385	725.8	0.2
293.15	1	720.89	0.24
298.15	0	786.71	0.24
298.15	0.0808	783.48	0.24
298.15	0.1601	779.32	0.24
298.15	0.2386	774.56	0.24
298.15	0.3497	767.12	0.24
298.15	0.4411	760.55	0.24
298.15	0.5532	752.37	0.24
298.15	0.65	744.83	0.24
298.15	0.7395	737.7	0.24
298.15	0.8478	728.73	0.24
298.15	0.9385	720.86	0.24
298.15	1	715.35	0.24
303.15	0	781.3	0.24
303.15	0.0808	777.89	0.24
303.15	0.1601	773.64	0.24
303.15	0.2386	768.86	0.24
303.15	0.3497	761.5	0.2
303.15	0.4411	755.15	0.24
303.15	0.5532	747.04	0.24
303.15	0.65	739.74	0.24
303.15	0.7395	732.71	0.24
303.15	0.8478	723.74	0.24
303.15	0.9385	715.91	0.25
303.15	1	710.23	0.24
313.15	0	771.14	0.24
313.15	0.0808	767.17	0.24
313.15	0.1601	762.87	0.24
313.15	0.2386	758.28	0.24
313.15	0.3497	751.13	0.24
313.15	0.4411	744.76	0.24
313.15	0.5532	736.47	0.24
313.15	0.65	728.89	0.24
313.15	0.7395	721.68	0.24
313.15	0.8478	712.63	0.25
313.15	0.9385	704.95	0.25
313.15	1	699.71	0.25

System: propan-1-ol + diisopropylamine; phases: Liquid
Fixed: Pressure, kPa = 101
Property: Mass density, kg/m3 (Liquid); method: Vibrating tube method
Temperature, K	Mole fraction of diisopropylamine	Mass density, kg/m3	uncertainty
293.15	0	800.03	0.24
293.15	0.0813	796.38	0.24
293.15	0.1608	791.55	0.24
293.15	0.2398	785.63	0.24
293.15	0.3497	777.13	0.24
293.15	0.4398	769.26	0.24
293.15	0.5546	760.03	0.24
293.15	0.6487	752.32	0.24
293.15	0.7383	744.72	0.24
293.15	0.8491	735.16	0.24
293.15	0.9395	726.79	0.24
293.15	1	720.89	0.24
298.15	0	797.81	0.24
298.15	0.0813	793.94	0.24
298.15	0.1608	788.58	0.24
298.15	0.2398	782.57	0.24
298.15	0.3497	773.41	0.24
298.15	0.4398	765.67	0.24
298.15	0.5546	755.85	0.24
298.15	0.6487	747.75	0.24
298.15	0.7383	740.05	0.24
298.15	0.8491	730.09	0.24
298.15	0.9395	721.53	0.24
298.15	1	715.35	0.24
303.15	0	795.05	0.24
303.15	0.0813	791.19	0.24
303.15	0.1608	785.66	0.24
303.15	0.2398	779.21	0.24
303.15	0.3497	769.55	0.24
303.15	0.4398	761.55	0.24
303.15	0.5546	751.48	0.24
303.15	0.6487	743.28	0.24
303.15	0.7383	735.49	0.24
303.15	0.8491	725.47	0.24
303.15	0.9395	716.61	0.24
303.15	1	710.23	0.24
313.15	0	787.95	0.24
313.15	0.0813	784.48	0.24
313.15	0.1608	779.04	0.24
313.15	0.2398	772.45	0.24
313.15	0.3497	762.48	0.24
313.15	0.4398	754.19	0.24
313.15	0.5546	743.87	0.24
313.15	0.6487	735.48	0.24
313.15	0.7383	727.35	0.24
313.15	0.8491	716.62	0.24
313.15	0.9395	706.82	0.25
313.15	1	699.71	0.25

System: butan-1-ol + diisopropylamine; phases: Liquid
Fixed: Pressure, kPa = 101
Property: Mass density, kg/m3 (Liquid); method: Vibrating tube method
Temperature, K	Mole fraction of diisopropylamine	Mass density, kg/m3	uncertainty
293.15	0	809.78	0.24
293.15	0.0815	804.64	0.24
293.15	0.1611	798.64	0.24
293.15	0.2404	792.1	0.24
293.15	0.3496	782.52	0.24
293.15	0.44	774.49	0.24
293.15	0.56	763.71	0.24
293.15	0.6499	755.59	0.24
293.15	0.74	747.35	0.24
293.15	0.8484	736.91	0.24
293.15	0.9384	727.64	0.24
293.15	1	720.89	0.24
298.15	0	806.05	0.24
298.15	0.0815	800.71	0.24
298.15	0.1611	794.65	0.24
298.15	0.2404	788	0.24
298.15	0.3496	778.41	0.24
298.15	0.44	770.21	0.24
298.15	0.56	759.1	0.24
298.15	0.6499	750.61	0.24
298.15	0.74	741.97	0.24
298.15	0.8484	731.98	0.24
298.15	0.9384	721.96	0.24
298.15	1	715.35	0.24
303.15	0	802.03	0.24
303.15	0.0815	796.89	0.24
303.15	0.1611	790.84	0.24
303.15	0.2404	784.11	0.24
303.15	0.3496	774.3	0.24
303.15	0.44	766.09	0.24
303.15	0.56	754.95	0.24
303.15	0.6499	746.56	0.24
303.15	0.74	737.86	0.24
303.15	0.8484	727	0.24
303.15	0.9384	717.35	0.25
303.15	1	710.23	0.24
313.15	0	794.12	0.24
313.15	0.0815	789.72	0.24
313.15	0.1611	783.86	0.24
313.15	0.2404	777.07	0.24
313.15	0.3496	767.06	0.24
313.15	0.44	758.54	0.24
313.15	0.56	747.2	0.24
313.15	0.6499	738.57	0.24
313.15	0.74	729.62	0.24
313.15	0.8484	718.21	0.24
313.15	0.9384	707.61	0.25
313.15	1	699.71	0.25

System: pentan-1-ol + diisopropylamine; phases: Liquid
Fixed: Pressure, kPa = 101
Property: Mass density, kg/m3 (Liquid); method: Vibrating tube method
Temperature, K	Mole fraction of diisopropylamine	Mass density, kg/m3	uncertainty
293.15	0	814.8	0.24
293.15	0.0815	809.89	0.24
293.15	0.16	804.18	0.24
293.15	0.2392	797.77	0.24
293.15	0.35	787.88	0.24
293.15	0.4401	779.23	0.24
293.15	0.5597	767.21	0.24
293.15	0.6498	757.9	0.24
293.15	0.7356	748.9	0.24
293.15	0.8497	736.82	0.24
293.15	0.9379	727.48	0.24
293.15	1	720.89	0.24
298.15	0	810.82	0.24
298.15	0.0815	805.62	0.24
298.15	0.16	799.78	0.24
298.15	0.2392	793.23	0.24
298.15	0.35	783.17	0.24
298.15	0.4401	774.43	0.24
298.15	0.5597	762.29	0.24
298.15	0.6498	752.85	0.24
298.15	0.7356	743.79	0.24
298.15	0.8497	731.52	0.24
298.15	0.9379	722.03	0.24
298.15	1	715.35	0.24
303.15	0	807.07	0.24
303.15	0.0815	801.64	0.24
303.15	0.16	795.61	0.24
303.15	0.2392	788.98	0.24
303.15	0.35	778.74	0.24
303.15	0.4401	769.93	0.24
303.15	0.5597	757.69	0.24
303.15	0.6498	748.14	0.24
303.15	0.7356	738.95	0.24
303.15	0.8497	726.57	0.24
303.15	0.9379	716.97	0.24
303.15	1	710.23	0.24
313.15	0	799.4	0.24
313.15	0.0815	794.78	0.24
313.15	0.16	788.52	0.24
313.15	0.2392	780.98	0.24
313.15	0.35	769.75	0.24
313.15	0.4401	760.48	0.24
313.15	0.5597	748.46	0.24
313.15	0.6498	739.55	0.24
313.15	0.7356	730.94	0.24
313.15	0.8497	718.73	0.24
313.15	0.9379	708.08	0.25
313.15	1	699.71	0.25
