Measured thermophysical data. Enthalpies of combustion and formation of 3-formylchromones
Source: Thermochim. Acta, 2006, 10.1016/j.tca.2006.07.010
Compound 1: carbon dioxide, CO2, InChI=1S/CO2/c2-1-3
Compound 2: water, H2O, InChI=1S/H2O/h1H2
Compound 3: oxygen, O2, InChI=1S/O2/c1-2
Compound 4: 3-formylchromone, C10H6O3, InChI=1S/C10H6O3/c11-5-7-6-13-9-4-2-1-3-8(9)10(7)12/h1-6H, purity 99%
Compound 5: 3-formyl-6-methylchromone, C11H8O3, InChI=1S/C11H8O3/c1-7-2-3-10-9(4-7)11(13)8(5-12)6-14-10/h2-6H,1H3, purity 99%
Compound 6: 3-formyl-6-isopropylchromone, C13H12O3, InChI=1S/C13H12O3/c1-8(2)9-3-4-12-11(5-9)13(15)10(6-14)7-16-12/h3-8H,1-2H3, purity 97%

System: 3-formylchromone; phases: Crystal, Liquid, Gas
Property: Molar enthalpy of transition or fusion, kJ/mol (Crystal); method: DSC
Molar enthalpy of transition or fusion, kJ/mol	uncertainty
25.37	0.57

System: 3-formylchromone; phases: Crystal, Liquid, Gas
Property: Triple point temperature, K (Crystal); method: DTA
Triple point temperature, K	uncertainty
424.89	0.39

System: 3-formylchromone; phases: Crystal
Property: Molar heat capacity at constant pressure, J/K/mol (Crystal); method: Small sample (50 mg) DSC
Temperature, K	Pressure, kPa	Molar heat capacity at constant pressure, J/K/mol	uncertainty
298	101.325	121.0397068568	2.43813976

System: 3-formylchromone; phases: Crystal
Property: Mass density, kg/m3 (Crystal); method: Pycnometric method
Temperature, K	Pressure, kPa	Mass density, kg/m3	uncertainty
298	101.325	1700	10

System: 3-formyl-6-methylchromone; phases: Crystal, Liquid, Gas
Property: Molar enthalpy of transition or fusion, kJ/mol (Crystal); method: DSC
Molar enthalpy of transition or fusion, kJ/mol	uncertainty
26.8	0.79

System: 3-formyl-6-methylchromone; phases: Crystal, Liquid, Gas
Property: Triple point temperature, K (Crystal); method: DTA
Triple point temperature, K	uncertainty
444.45	0.39

System: 3-formyl-6-methylchromone; phases: Crystal
Property: Molar heat capacity at constant pressure, J/K/mol (Crystal); method: Small sample (50 mg) DSC
Temperature, K	Pressure, kPa	Molar heat capacity at constant pressure, J/K/mol	uncertainty
298	101.325	178.9605102142	3.57540898

System: 3-formyl-6-methylchromone; phases: Crystal
Property: Mass density, kg/m3 (Crystal); method: Pycnometric method
Temperature, K	Pressure, kPa	Mass density, kg/m3	uncertainty
298	101.325	1470	10

System: 3-formyl-6-isopropylchromone; phases: Crystal, Liquid, Gas
Property: Molar enthalpy of transition or fusion, kJ/mol (Crystal); method: DSC
Molar enthalpy of transition or fusion, kJ/mol	uncertainty
24.08	0.83

System: 3-formyl-6-isopropylchromone; phases: Crystal, Liquid, Gas
Property: Triple point temperature, K (Crystal); method: DTA
Triple point temperature, K	uncertainty
371.47	0.39

System: 3-formyl-6-isopropylchromone; phases: Crystal
Property: Molar heat capacity at constant pressure, J/K/mol (Crystal); method: Small sample (50 mg) DSC
Temperature, K	Pressure, kPa	Molar heat capacity at constant pressure, J/K/mol	uncertainty
298	101.325	222.50332482	4.54088418

System: 3-formyl-6-isopropylchromone; phases: Crystal
Property: Mass density, kg/m3 (Crystal); method: Pycnometric method
Temperature, K	Pressure, kPa	Mass density, kg/m3	uncertainty
298	101.325	1170	10

Reaction: -1 3-formylchromone + 10 carbon dioxide + 3 water + -10 oxygen
Property: Specific internal energy of reaction at constant volume, J/g
-25567.9

Reaction: -1 3-formyl-6-methylchromone + 11 carbon dioxide + 4 water + -11.5 oxygen
Property: Specific internal energy of reaction at constant volume, J/g
-27184.7

Reaction: -1 3-formyl-6-isopropylchromone + 13 carbon dioxide + 6 water + -14.5 oxygen
Property: Specific internal energy of reaction at constant volume, J/g
-29650.5
