Measured thermophysical data. (Solid + liquid) equilibria of (phenanthrene + dichlorobenzenes)
Source: Thermochim. Acta, 2008, 10.1016/j.tca.2008.09.010
Compound 1: phenanthrene, C14H10, InChI=1S/C14H10/c1-3-7-13-11(5-1)9-10-12-6-2-4-8-14(12)13/h1-10H, purity 99%
Compound 2: 1,2-dichlorobenzene, C6H4Cl2, InChI=1S/C6H4Cl2/c7-5-3-1-2-4-6(5)8/h1-4H
Compound 3: 1,3-dichlorobenzene, C6H4Cl2, InChI=1S/C6H4Cl2/c7-5-2-1-3-6(8)4-5/h1-4H
Compound 4: 1,4-dichlorobenzene, C6H4Cl2, InChI=1S/C6H4Cl2/c7-5-1-2-6(8)4-3-5/h1-4H

System: phenanthrene; phases: Crystal, Liquid, Air at 1 atmosphere
Property: Molar enthalpy of transition or fusion, kJ/mol (Crystal); method: DSC
Molar enthalpy of transition or fusion, kJ/mol	uncertainty
16.685	0.404

System: phenanthrene; phases: Crystal, Liquid, Air at 1 atmosphere
Property: Normal melting temperature, K (Crystal); method: DTA
Normal melting temperature, K	uncertainty
372.05	0.5

System: 1,2-dichlorobenzene; phases: Crystal, Liquid, Air at 1 atmosphere
Property: Molar enthalpy of transition or fusion, kJ/mol (Crystal); method: DSC
Molar enthalpy of transition or fusion, kJ/mol	uncertainty
13.094	0.332

System: 1,2-dichlorobenzene; phases: Crystal, Liquid, Air at 1 atmosphere
Property: Normal melting temperature, K (Crystal); method: DTA
Normal melting temperature, K	uncertainty
255.85	0.5

System: 1,3-dichlorobenzene; phases: Crystal, Liquid, Air at 1 atmosphere
Property: Molar enthalpy of transition or fusion, kJ/mol (Crystal); method: DSC
Molar enthalpy of transition or fusion, kJ/mol	uncertainty
12.51	0.321

System: 1,3-dichlorobenzene; phases: Crystal, Liquid, Air at 1 atmosphere
Property: Normal melting temperature, K (Crystal); method: DTA
Normal melting temperature, K	uncertainty
248.25	0.5

System: 1,4-dichlorobenzene; phases: Crystal, Liquid, Air at 1 atmosphere
Property: Molar enthalpy of transition or fusion, kJ/mol (Crystal); method: DSC
Molar enthalpy of transition or fusion, kJ/mol	uncertainty
18.082	0.428

System: 1,4-dichlorobenzene; phases: Crystal, Liquid, Air at 1 atmosphere
Property: Normal melting temperature, K (Crystal); method: DTA
Normal melting temperature, K	uncertainty
326.15	0.5

System: phenanthrene + 1,2-dichlorobenzene; phases: Crystal, Crystal, Glass, Air at 1 atmosphere
Property: Eutectic temperature, K (Crystal); method: DTA:
Eutectic temperature, K	uncertainty
248.15	0.4

System: phenanthrene + 1,2-dichlorobenzene; phases: Liquid, Crystal
Fixed: Pressure, kPa = 101
Property: Solid-liquid equilibrium temperature, K (Liquid); method: DTA
Mole fraction of phenanthrene	Solid-liquid equilibrium temperature, K	uncertainty
0.12	259.65	0.5
0.1506	269.05	0.5
0.1913	279.25	0.5
0.2382	288.65	0.5
0.2719	296.65	0.5
0.3118	302.35	0.5
0.3403	307.45	0.5
0.3752	313.15	0.5
0.4311	321.15	0.5
0.469	324.95	0.5
0.5062	330.15	0.5
0.5579	335.15	0.5
0.6241	342.65	0.5
0.6968	348.95	0.5
0.7605	354.15	0.5
0.801	357.25	0.5
0.8279	360.15	0.5
0.88	364.05	0.5
0.9242	367.05	0.5
0.9511	368.85	0.5
1	372.05	0.5

System: phenanthrene + 1,4-dichlorobenzene; phases: Crystal, Crystal, Glass, Air at 1 atmosphere
Property: Eutectic temperature, K (Crystal); method: DTA:
Eutectic temperature, K	uncertainty
306.75	0.4

System: phenanthrene + 1,4-dichlorobenzene; phases: Liquid, Crystal
Fixed: Pressure, kPa = 101
Property: Solid-liquid equilibrium temperature, K (Liquid); method: DTA
Mole fraction of phenanthrene	Solid-liquid equilibrium temperature, K	uncertainty
0.306	306.75	0.5
0.3444	311.65	0.5
0.3583	313.45	0.5
0.4092	319.55	0.5
0.4464	323.75	0.5
0.5111	331.05	0.5
0.559	336.05	0.5
0.638	343.65	0.5
0.7023	349.95	0.5
0.7182	350.65	0.5
0.7458	352.95	0.5
0.8163	358.65	0.5
0.8374	359.85	0.5
0.909	365.65	0.5
0.9255	366.95	0.5
0.9571	369.15	0.5
1	372.05	0.5

System: phenanthrene + 1,4-dichlorobenzene; phases: Liquid, Crystal
Fixed: Pressure, kPa = 101
Property: Solid-liquid equilibrium temperature, K (Liquid); method: DTA
Mole fraction of phenanthrene	Solid-liquid equilibrium temperature, K	uncertainty
0	326.15	0.5
0.0518	323.25	0.5
0.1057	320.65	0.5
0.1518	318.15	0.5
0.1948	316.05	0.5
0.306	306.75	0.5

System: phenanthrene + 1,3-dichlorobenzene; phases: Crystal, Crystal, Glass, Air at 1 atmosphere
Property: Eutectic temperature, K (Crystal); method: DTA:
Eutectic temperature, K	uncertainty
245.15	0.4

System: phenanthrene + 1,3-dichlorobenzene; phases: Liquid, Crystal
Fixed: Pressure, kPa = 101
Property: Solid-liquid equilibrium temperature, K (Liquid); method: DTA
Mole fraction of phenanthrene	Solid-liquid equilibrium temperature, K	uncertainty
0.0812	255.05	0.5
0.1151	266.15	0.5
0.1612	278.15	0.5
0.2188	290.65	0.5
0.2678	299.25	0.5
0.3031	305.05	0.5
0.3543	313.15	0.5
0.4102	320.25	0.5
0.4576	325.75	0.5
0.4912	329.75	0.5
0.5443	335.35	0.5
0.601	340.95	0.5
0.662	346.65	0.5
0.6981	349.85	0.5
0.7452	353.65	0.5
0.7878	357.25	0.5
0.8548	362.25	0.5
0.9082	366.05	0.5
0.96	369.45	0.5
1	372.05	0.5
