Measured thermophysical data. Standard enthalpies and heat capacities of solution of 2,4-dimethyl- and 2,4-diethylglycolurils in water at temperatures from (278.15 to 313.15) K
Source: Thermochim. Acta, 2014, 10.1016/j.tca.2014.04.012
Compound 1: water, H2O, InChI=1S/H2O/h1H2
Compound 2: tetrahydro-1,3-dimethylimidazo[4,5-d]imidazole-2,5(1H,3H)-dione, C6H10N4O2, InChI=1S/C6H10N4O2/c1-9-3-4(8-5(11)7-3)10(2)6(9)12/h3-4H,1-2H3,(H2,7,8,11)
Compound 3: 1,3-diethyltetrahydroimidazo[4,5-d]imidazole-2,5(1H,3H)-dione, C8H14N4O2, InChI=1S/C8H14N4O2/c1-3-11-5-6(10-7(13)9-5)12(4-2)8(11)14/h5-6H,3-4H2,1-2H3,(H2,9,10,13)

System: tetrahydro-1,3-dimethylimidazo[4,5-d]imidazole-2,5(1H,3H)-dione; phases: Crystal, Liquid, Air at 1 atmosphere
Property: Normal melting temperature, K (Crystal); method: VISOBS
Normal melting temperature, K	uncertainty
533.15	2

System: 1,3-diethyltetrahydroimidazo[4,5-d]imidazole-2,5(1H,3H)-dione; phases: Crystal, Liquid, Air at 1 atmosphere
Property: Normal melting temperature, K (Crystal); method: VISOBS
Normal melting temperature, K	uncertainty
583.15	2

System: tetrahydro-1,3-dimethylimidazo[4,5-d]imidazole-2,5(1H,3H)-dione + water; phases: Liquid
Fixed: Molality, mol/kg of tetrahydro-1,3-dimethylimidazo[4,5-d]imidazole-2,5(1H,3H)-dione = 0
Fixed: Pressure, kPa = 101
Property: Molar enthalpy of solution, kJ/mol (Liquid); method: ISOPERIBOL
Temperature, K	Molar enthalpy of solution, kJ/mol	uncertainty
278.15	7.96	0.2
279.15	8.07	0.2
288.15	8.88	0.26
298.15	9.73	0.14
308.15	10.7	0.16
313.15	11.13	0.21

System: water + 1,3-diethyltetrahydroimidazo[4,5-d]imidazole-2,5(1H,3H)-dione; phases: Liquid
Fixed: Pressure, kPa = 101
Fixed: Molality, mol/kg of 1,3-diethyltetrahydroimidazo[4,5-d]imidazole-2,5(1H,3H)-dione = 0
Property: Molar enthalpy of solution, kJ/mol (Liquid); method: ISOPERIBOL
Temperature, K	Molar enthalpy of solution, kJ/mol	uncertainty
278.15	5.77	0.2
279.15	5.88	0.28
288.15	7.56	0.26
298.15	9.19	0.26
308.15	10.85	0.24
313.15	11.74	0.21
