Measured thermophysical data. Thermodynamics of hydrogen bonding and van der Waals interactions of organic solutes in solutions of imidazolium based ionic liquids: "structure-property" relationships
Source: Thermochim. Acta, 2016, 10.1016/j.tca.2016.03.036
Compound 1: 1-butyl-3-methylimidazolium tetrafluoroborate, C8H15BF4N2, InChI=1S/C8H15N2.BF4/c1-3-4-5-10-7-6-9(2)8-10;2-1(3,4)5/h6-8H,3-5H2,1-2H3;/q+1;-1, purity 98%
Compound 2: 1-butyl-3-methylimidazolium trifluoromethanesulfonate, C9H15F3N2O3S, InChI=1S/C8H15N2.CHF3O3S/c1-3-4-5-10-7-6-9(2)8-10;2-1(3,4)8(5,6)7/h6-8H,3-5H2,1-2H3;(H,5,6,7)/q+1;/p-1, purity 98%
Compound 3: acetone, C3H6O, InChI=1S/C3H6O/c1-3(2)4/h1-2H3, purity 98%
Compound 4: acetonitrile, C2H3N, InChI=1S/C2H3N/c1-2-3/h1H3, purity 98%
Compound 5: aniline, C6H7N, InChI=1S/C6H7N/c7-6-4-2-1-3-5-6/h1-5H,7H2, purity 98%
Compound 6: benzene, C6H6, InChI=1S/C6H6/c1-2-4-6-5-3-1/h1-6H, purity 98%
Compound 7: butan-1-ol, C4H10O, InChI=1S/C4H10O/c1-2-3-4-5/h5H,2-4H2,1H3, purity 98%
Compound 8: dimethyl sulfoxide, C2H6OS, InChI=1S/C2H6OS/c1-4(2)3/h1-2H3, purity 98%
Compound 9: dimethylformamide, C3H7NO, InChI=1S/C3H7NO/c1-4(2)3-5/h3H,1-2H3, purity 99%
Compound 10: ethanol, C2H6O, InChI=1S/C2H6O/c1-2-3/h3H,2H2,1H3, purity 98%
Compound 11: 1,2-ethanediol, C2H6O2, InChI=1S/C2H6O2/c3-1-2-4/h3-4H,1-2H2, purity 99%
Compound 12: formamide, CH3NO, InChI=1S/CH3NO/c2-1-3/h1H,(H2,2,3), purity 98%
Compound 13: heptane, C7H16, InChI=1S/C7H16/c1-3-5-7-6-4-2/h3-7H2,1-2H3, purity 98%
Compound 14: methanol, CH4O, InChI=1S/CH4O/c1-2/h2H,1H3, purity 98%
Compound 15: 2-methoxyethan-1-ol, C3H8O2, InChI=1S/C3H8O2/c1-5-3-2-4/h4H,2-3H2,1H3, purity 98%
Compound 16: nonane, C9H20, InChI=1S/C9H20/c1-3-5-7-9-8-6-4-2/h3-9H2,1-2H3, purity 99%
Compound 17: octane, C8H18, InChI=1S/C8H18/c1-3-5-7-8-6-4-2/h3-8H2,1-2H3, purity 98%
Compound 18: propan-1-ol, C3H8O, InChI=1S/C3H8O/c1-2-3-4/h4H,2-3H2,1H3, purity 99%
Compound 19: 4-methyl-1,3-dioxolan-2-one, C4H6O3, InChI=1S/C4H6O3/c1-3-2-6-4(5)7-3/h3H,2H2,1H3, purity 98%
Compound 20: tetrahydrofuran, C4H8O, InChI=1S/C4H8O/c1-2-4-5-3-1/h1-4H2, purity 98%
Compound 21: toluene, C7H8, InChI=1S/C7H8/c1-7-5-3-2-4-6-7/h2-6H,1H3, purity 99%
Compound 22: trichloromethane, CHCl3, InChI=1S/CHCl3/c2-1(3)4/h1H, purity 99%
Compound 23: 1,3-dimethylbenzene, C8H10, InChI=1S/C8H10/c1-7-4-3-5-8(2)6-7/h3-6H,1-2H3, purity 99%

System: acetonitrile + 1-butyl-3-methylimidazolium tetrafluoroborate; phases: Liquid
Property: Molar enthalpy of solution, kJ/mol (Liquid); method: Titration calorimetry
Mole fraction of acetonitrile	Pressure, kPa	Temperature, K	Molar enthalpy of solution, kJ/mol	uncertainty
0	100	298.15	-0.89	0.03

System: acetone + 1-butyl-3-methylimidazolium tetrafluoroborate; phases: Liquid
Property: Molar enthalpy of solution, kJ/mol (Liquid); method: Titration calorimetry
Mole fraction of acetone	Pressure, kPa	Temperature, K	Molar enthalpy of solution, kJ/mol	uncertainty
0	100	298.15	-1.83	0.03

System: aniline + 1-butyl-3-methylimidazolium tetrafluoroborate; phases: Liquid
Property: Molar enthalpy of solution, kJ/mol (Liquid); method: Titration calorimetry
Mole fraction of aniline	Pressure, kPa	Temperature, K	Molar enthalpy of solution, kJ/mol	uncertainty
0	100	298.15	-5.34	0.13

System: benzene + 1-butyl-3-methylimidazolium tetrafluoroborate; phases: Liquid
Property: Molar enthalpy of solution, kJ/mol (Liquid); method: Titration calorimetry
Mole fraction of benzene	Pressure, kPa	Temperature, K	Molar enthalpy of solution, kJ/mol	uncertainty
0	100	298.15	-0.61	0.03

System: butan-1-ol + 1-butyl-3-methylimidazolium tetrafluoroborate; phases: Liquid
Property: Molar enthalpy of solution, kJ/mol (Liquid); method: Titration calorimetry
Mole fraction of butan-1-ol	Pressure, kPa	Temperature, K	Molar enthalpy of solution, kJ/mol	uncertainty
0	100	298.15	9.58	0.09

System: dimethyl sulfoxide + 1-butyl-3-methylimidazolium tetrafluoroborate; phases: Liquid
Property: Molar enthalpy of solution, kJ/mol (Liquid); method: Titration calorimetry
Mole fraction of dimethyl sulfoxide	Pressure, kPa	Temperature, K	Molar enthalpy of solution, kJ/mol	uncertainty
0	100	298.15	-2.84	0.03

System: dimethylformamide + 1-butyl-3-methylimidazolium tetrafluoroborate; phases: Liquid
Property: Molar enthalpy of solution, kJ/mol (Liquid); method: Titration calorimetry
Mole fraction of dimethylformamide	Pressure, kPa	Temperature, K	Molar enthalpy of solution, kJ/mol	uncertainty
0	100	298.15	-2.68	0.03

System: ethanol + 1-butyl-3-methylimidazolium tetrafluoroborate; phases: Liquid
Property: Molar enthalpy of solution, kJ/mol (Liquid); method: Titration calorimetry
Mole fraction of ethanol	Pressure, kPa	Temperature, K	Molar enthalpy of solution, kJ/mol	uncertainty
0	100	298.15	7.6	0.09

System: 1,2-ethanediol + 1-butyl-3-methylimidazolium tetrafluoroborate; phases: Liquid
Property: Molar enthalpy of solution, kJ/mol (Liquid); method: Titration calorimetry
Mole fraction of 1,2-ethanediol	Pressure, kPa	Temperature, K	Molar enthalpy of solution, kJ/mol	uncertainty
0	100	298.15	10.29	0.11

System: formamide + 1-butyl-3-methylimidazolium tetrafluoroborate; phases: Liquid
Property: Molar enthalpy of solution, kJ/mol (Liquid); method: Titration calorimetry
Mole fraction of formamide	Pressure, kPa	Temperature, K	Molar enthalpy of solution, kJ/mol	uncertainty
0	100	298.15	4.01	0.06

System: heptane + 1-butyl-3-methylimidazolium tetrafluoroborate; phases: Liquid
Property: Molar enthalpy of solution, kJ/mol (Liquid); method: Titration calorimetry
Mole fraction of heptane	Pressure, kPa	Temperature, K	Molar enthalpy of solution, kJ/mol	uncertainty
0	100	298.15	10.64	0.29

System: methanol + 1-butyl-3-methylimidazolium tetrafluoroborate; phases: Liquid
Property: Molar enthalpy of solution, kJ/mol (Liquid); method: Titration calorimetry
Mole fraction of methanol	Pressure, kPa	Temperature, K	Molar enthalpy of solution, kJ/mol	uncertainty
0	100	298.15	6.01	0.05

System: 2-methoxyethan-1-ol + 1-butyl-3-methylimidazolium tetrafluoroborate; phases: Liquid
Property: Molar enthalpy of solution, kJ/mol (Liquid); method: Titration calorimetry
Mole fraction of 2-methoxyethan-1-ol	Pressure, kPa	Temperature, K	Molar enthalpy of solution, kJ/mol	uncertainty
0	100	298.15	2.41	0.05

System: nonane + 1-butyl-3-methylimidazolium tetrafluoroborate; phases: Liquid
Property: Molar enthalpy of solution, kJ/mol (Liquid); method: Titration calorimetry
Mole fraction of nonane	Pressure, kPa	Temperature, K	Molar enthalpy of solution, kJ/mol	uncertainty
0	100	298.15	13.57	0.23

System: octane + 1-butyl-3-methylimidazolium tetrafluoroborate; phases: Liquid
Property: Molar enthalpy of solution, kJ/mol (Liquid); method: Titration calorimetry
Mole fraction of octane	Pressure, kPa	Temperature, K	Molar enthalpy of solution, kJ/mol	uncertainty
0	100	298.15	11.32	0.17

System: propan-1-ol + 1-butyl-3-methylimidazolium tetrafluoroborate; phases: Liquid
Property: Molar enthalpy of solution, kJ/mol (Liquid); method: Titration calorimetry
Mole fraction of propan-1-ol	Pressure, kPa	Temperature, K	Molar enthalpy of solution, kJ/mol	uncertainty
0	100	298.15	8.21	0.08

System: 4-methyl-1,3-dioxolan-2-one + 1-butyl-3-methylimidazolium tetrafluoroborate; phases: Liquid
Property: Molar enthalpy of solution, kJ/mol (Liquid); method: Titration calorimetry
Mole fraction of 4-methyl-1,3-dioxolan-2-one	Pressure, kPa	Temperature, K	Molar enthalpy of solution, kJ/mol	uncertainty
0	100	298.15	-1.09	0.05

System: toluene + 1-butyl-3-methylimidazolium tetrafluoroborate; phases: Liquid
Property: Molar enthalpy of solution, kJ/mol (Liquid); method: Titration calorimetry
Mole fraction of toluene	Pressure, kPa	Temperature, K	Molar enthalpy of solution, kJ/mol	uncertainty
0	100	298.15	-0.38	0.01

System: trichloromethane + 1-butyl-3-methylimidazolium tetrafluoroborate; phases: Liquid
Property: Molar enthalpy of solution, kJ/mol (Liquid); method: Titration calorimetry
Mole fraction of trichloromethane	Pressure, kPa	Temperature, K	Molar enthalpy of solution, kJ/mol	uncertainty
0	100	298.15	-5.75	0.13

System: 1,3-dimethylbenzene + 1-butyl-3-methylimidazolium tetrafluoroborate; phases: Liquid
Property: Molar enthalpy of solution, kJ/mol (Liquid); method: Titration calorimetry
Mole fraction of 1,3-dimethylbenzene	Pressure, kPa	Temperature, K	Molar enthalpy of solution, kJ/mol	uncertainty
0	100	298.15	0.38	0.03

System: acetonitrile + 1-butyl-3-methylimidazolium trifluoromethanesulfonate; phases: Liquid
Property: Molar enthalpy of solution, kJ/mol (Liquid); method: Titration calorimetry
Mole fraction of acetonitrile	Pressure, kPa	Temperature, K	Molar enthalpy of solution, kJ/mol	uncertainty
0	100	298.15	-0.04	0.01

System: acetone + 1-butyl-3-methylimidazolium trifluoromethanesulfonate; phases: Liquid
Property: Molar enthalpy of solution, kJ/mol (Liquid); method: Titration calorimetry
Mole fraction of acetone	Pressure, kPa	Temperature, K	Molar enthalpy of solution, kJ/mol	uncertainty
0	100	298.15	-2.25	0.05

System: aniline + 1-butyl-3-methylimidazolium trifluoromethanesulfonate; phases: Liquid
Property: Molar enthalpy of solution, kJ/mol (Liquid); method: Titration calorimetry
Mole fraction of aniline	Pressure, kPa	Temperature, K	Molar enthalpy of solution, kJ/mol	uncertainty
0	100	298.15	-7.22	0.06

System: benzene + 1-butyl-3-methylimidazolium trifluoromethanesulfonate; phases: Liquid
Property: Molar enthalpy of solution, kJ/mol (Liquid); method: Titration calorimetry
Mole fraction of benzene	Pressure, kPa	Temperature, K	Molar enthalpy of solution, kJ/mol	uncertainty
0	100	298.15	-0.71	0.03

System: butan-1-ol + 1-butyl-3-methylimidazolium trifluoromethanesulfonate; phases: Liquid
Property: Molar enthalpy of solution, kJ/mol (Liquid); method: Titration calorimetry
Mole fraction of butan-1-ol	Pressure, kPa	Temperature, K	Molar enthalpy of solution, kJ/mol	uncertainty
0	100	298.15	4.83	0.11

System: dimethyl sulfoxide + 1-butyl-3-methylimidazolium trifluoromethanesulfonate; phases: Liquid
Property: Molar enthalpy of solution, kJ/mol (Liquid); method: Titration calorimetry
Mole fraction of dimethyl sulfoxide	Pressure, kPa	Temperature, K	Molar enthalpy of solution, kJ/mol	uncertainty
0	100	298.15	-3.72	0.06

System: dimethylformamide + 1-butyl-3-methylimidazolium trifluoromethanesulfonate; phases: Liquid
Property: Molar enthalpy of solution, kJ/mol (Liquid); method: Titration calorimetry
Mole fraction of dimethylformamide	Pressure, kPa	Temperature, K	Molar enthalpy of solution, kJ/mol	uncertainty
0	100	298.15	-4.01	0.06

System: ethanol + 1-butyl-3-methylimidazolium trifluoromethanesulfonate; phases: Liquid
Property: Molar enthalpy of solution, kJ/mol (Liquid); method: Titration calorimetry
Mole fraction of ethanol	Pressure, kPa	Temperature, K	Molar enthalpy of solution, kJ/mol	uncertainty
0	100	298.15	3.51	0.06

System: 1,2-ethanediol + 1-butyl-3-methylimidazolium trifluoromethanesulfonate; phases: Liquid
Property: Molar enthalpy of solution, kJ/mol (Liquid); method: Titration calorimetry
Mole fraction of 1,2-ethanediol	Pressure, kPa	Temperature, K	Molar enthalpy of solution, kJ/mol	uncertainty
0	100	298.15	5.67	0.13

System: formamide + 1-butyl-3-methylimidazolium trifluoromethanesulfonate; phases: Liquid
Property: Molar enthalpy of solution, kJ/mol (Liquid); method: Titration calorimetry
Mole fraction of formamide	Pressure, kPa	Temperature, K	Molar enthalpy of solution, kJ/mol	uncertainty
0	100	298.15	1.46	0.02

System: methanol + 1-butyl-3-methylimidazolium trifluoromethanesulfonate; phases: Liquid
Property: Molar enthalpy of solution, kJ/mol (Liquid); method: Titration calorimetry
Mole fraction of methanol	Pressure, kPa	Temperature, K	Molar enthalpy of solution, kJ/mol	uncertainty
0	100	298.15	3.3	0.16

System: 2-methoxyethan-1-ol + 1-butyl-3-methylimidazolium trifluoromethanesulfonate; phases: Liquid
Property: Molar enthalpy of solution, kJ/mol (Liquid); method: Titration calorimetry
Mole fraction of 2-methoxyethan-1-ol	Pressure, kPa	Temperature, K	Molar enthalpy of solution, kJ/mol	uncertainty
0	100	298.15	-0.42	0.01

System: propan-1-ol + 1-butyl-3-methylimidazolium trifluoromethanesulfonate; phases: Liquid
Property: Molar enthalpy of solution, kJ/mol (Liquid); method: Titration calorimetry
Mole fraction of propan-1-ol	Pressure, kPa	Temperature, K	Molar enthalpy of solution, kJ/mol	uncertainty
0	100	298.15	4.19	0.08

System: 4-methyl-1,3-dioxolan-2-one + 1-butyl-3-methylimidazolium trifluoromethanesulfonate; phases: Liquid
Property: Molar enthalpy of solution, kJ/mol (Liquid); method: Titration calorimetry
Mole fraction of 4-methyl-1,3-dioxolan-2-one	Pressure, kPa	Temperature, K	Molar enthalpy of solution, kJ/mol	uncertainty
0	100	298.15	-0.34	0.03

System: tetrahydrofuran + 1-butyl-3-methylimidazolium trifluoromethanesulfonate; phases: Liquid
Property: Molar enthalpy of solution, kJ/mol (Liquid); method: Titration calorimetry
Mole fraction of tetrahydrofuran	Pressure, kPa	Temperature, K	Molar enthalpy of solution, kJ/mol	uncertainty
0	100	298.15	-1.57	0.08

System: trichloromethane + 1-butyl-3-methylimidazolium trifluoromethanesulfonate; phases: Liquid
Property: Molar enthalpy of solution, kJ/mol (Liquid); method: Titration calorimetry
Mole fraction of trichloromethane	Pressure, kPa	Temperature, K	Molar enthalpy of solution, kJ/mol	uncertainty
0	100	298.15	-5.38	0.11
