Measured thermophysical data. Thermodynamic Studies of Crystalline 2-Amino-5-nitropyridine (C5H5N3O2)
Source: Thermochim. Acta, 2007, 10.1016/j.tca.2007.04.006
Compound 1: carbon dioxide, CO2, InChI=1S/CO2/c2-1-3
Compound 2: nitrogen, N2, InChI=1S/N2/c1-2
Compound 3: water, H2O, InChI=1S/H2O/h1H2
Compound 4: oxygen, O2, InChI=1S/O2/c1-2
Compound 5: 2-amino-5-nitropyridine, C5H5N3O2, InChI=1S/C5H5N3O2/c6-5-2-1-4(3-7-5)8(9)10/h1-3H,(H2,6,7), purity 98%

System: 2-amino-5-nitropyridine; phases: Crystal
Fixed: Pressure, kPa = 101.325
Property: Molar heat capacity at constant pressure, J/K/mol (Crystal); method: Vacuum adiabatic calorimetry
Temperature, K	Molar heat capacity at constant pressure, J/K/mol	uncertainty
80.244	52.77	0.235
84.162	54.558	0.243
87.021	56.26	0.25
89.972	58.052	0.257
93.007	60.059	0.303
96.124	61.79	0.309
99.151	63.515	0.315
102.109	65.155	0.321
105.159	66.832	0.327
108.299	68.539	0.334
111.378	69.972	0.339
114.399	71.405	0.344
117.369	72.83	0.35
120.429	74.387	0.355
123.582	76.051	0.362
126.69	77.402	0.367
129.749	78.849	0.372
132.769	80.206	0.377
135.749	81.691	0.383
138.823	82.965	0.388
141.987	84.371	0.393
145.115	85.834	0.399
148.207	87.222	0.404
151.264	88.707	0.409
154.292	90.071	0.415
157.287	91.425	0.42
160.258	92.536	0.424
163.317	93.795	0.429
166.467	95.358	0.435
169.59	96.535	0.439
172.687	97.558	0.443
175.758	99.166	0.45
178.805	100.656	0.455
181.834	101.774	0.46
184.861	103.742	0.467
187.995	105.445	0.474
191.236	107.041	0.48
194.476	108.105	0.484
197.714	110.074	0.492
200.946	111.83	0.499
204.285	113.745	0.506
207.713	115.82	0.514
211.104	117.363	0.52
214.451	118.481	0.525
217.747	119.732	0.53
220.982	121.46	0.537
224.241	123.444	0.544
227.37	125.238	0.551
230.471	126.781	0.557
233.535	128.005	0.562
236.699	129.175	0.567
239.834	130.772	0.573
242.82	132.208	0.579
245.896	133.334	0.583
248.995	134.922	0.589
252.082	136.092	0.594
255.247	137.552	0.6
258.391	138.821	0.605
261.517	140.608	0.612
264.624	142.668	0.62
267.714	144.567	0.628
270.786	146.14	0.634
273.842	147.159	0.638
276.889	148.401	0.643
279.924	149.946	0.649
282.943	151.572	0.655
286.045	152.949	0.661
289.254	154.401	0.667
292.39	157.056	0.677
295.475	158.971	0.685
298.56	161.472	0.695
301.644	163.121	0.701
304.712	164.665	0.707
307.773	165.742	0.712
310.829	167.196	0.717
313.872	168.745	0.724
316.904	170.427	0.73
319.925	172.151	0.737
323.022	174.561	0.747
326.189	175.602	0.751
329.34	177.957	0.76
332.478	180.367	0.77
335.622	182.545	0.779
338.767	183.774	0.784
341.9	185.047	0.789
345.023	186.907	0.796
348.139	188.462	0.802
351.241	190.038	0.809
354.334	191.862	0.816
357.417	193.396	0.822
360.576	194.973	0.828
363.802	195.55	0.831
367.019	197.03	0.837
370.227	198.93	0.844
373.423	200.162	0.849
376.613	202.176	0.857
379.79	203.08	0.861
382.956	204.623	0.867
386.12	205.847	0.872
389.273	207.337	0.878
392.446	208.401	0.882
395.482	209.359	0.886

System: 2-amino-5-nitropyridine; phases: Crystal
Fixed: Pressure, kPa = 101.325
Property: Molar heat capacity at constant pressure, J/K/mol (Crystal); method: Vacuum adiabatic calorimetry
Temperature, K	Molar heat capacity at constant pressure, J/K/mol	uncertainty
80	52.328	0.233
85	55.336	0.246
90	58.247	0.296
95	61.069	0.306
100	63.811	0.316
105	66.479	0.326
110	69.08	0.336
115	71.622	0.345
120	74.11	0.354
125	76.551	0.363
130	78.951	0.372
135	81.315	0.381
140	83.65	0.39
145	85.96	0.399
150	88.251	0.408
155	90.526	0.416
160	92.791	0.425
165	95.049	0.434
170	97.305	0.442
175	99.563	0.451
180	101.825	0.46
185	104.095	0.469
190	106.376	0.478
195	108.67	0.486
200	110.979	0.495
205	113.307	0.505
210	115.655	0.514
215	118.023	0.523
220	120.415	0.532
225	122.83	0.542
230	125.27	0.551
235	127.735	0.561
240	130.225	0.571
245	132.741	0.581
250	135.283	0.591
255	137.849	0.601
260	140.439	0.611
265	143.053	0.622
270	145.688	0.632
275	148.344	0.643
280	151.019	0.653
285	153.71	0.664
290	156.416	0.675
295	159.133	0.685
298.15	160.85	0.692
300	161.86	0.696
305	164.592	0.707
310	167.328	0.718
315	170.062	0.729
320	172.792	0.74
325	175.513	0.751
330	178.22	0.761
335	180.911	0.772
340	183.578	0.783
345	186.218	0.793
350	188.825	0.804
355	191.393	0.814
360	193.916	0.824
365	196.389	0.834
370	198.805	0.844
375	201.156	0.853
380	203.437	0.862
385	205.64	0.871
390	207.758	0.88
395	209.783	0.888

System: 2-amino-5-nitropyridine; phases: Crystal
Fixed: Pressure, kPa = 101.325
Property: Molar enthalpy, kJ/mol (Crystal); method: Vacuum adiabatic calorimetry
Temperature, K	Molar enthalpy, kJ/mol	uncertainty
80	-23.231	0.098
85	-22.962	0.097
90	-22.678	0.091
95	-22.379	0.09
100	-22.067	0.088
105	-21.741	0.087
110	-21.402	0.086
115	-21.051	0.084
120	-20.686	0.083
125	-20.31	0.081
130	-19.921	0.08
135	-19.52	0.078
140	-19.108	0.077
145	-18.684	0.075
150	-18.248	0.073
155	-17.801	0.072
160	-17.343	0.07
165	-16.873	0.068
170	-16.392	0.067
175	-15.9	0.065
180	-15.397	0.063
185	-14.882	0.062
190	-14.356	0.06
195	-13.818	0.058
200	-13.269	0.056
205	-12.708	0.055
210	-12.136	0.053
215	-11.552	0.051
220	-10.956	0.05
225	-10.348	0.048
230	-9.727	0.047
235	-9.095	0.045
240	-8.45	0.044
245	-7.793	0.043
250	-7.123	0.042
255	-6.44	0.041
260	-5.744	0.04
265	-5.035	0.04
270	-4.313	0.039
275	-3.578	0.04
280	-2.83	0.041
285	-2.068	0.043
290	-1.293	0.044
295	-0.504	0.045
298.15	0	0.06
300	0.299	0.047
305	1.115	0.048
310	1.944	0.05
315	2.788	0.051
320	3.645	0.053
325	4.516	0.054
330	5.4	0.055
335	6.298	0.058
340	7.209	0.061
345	8.134	0.064
350	9.071	0.067
355	10.022	0.07
360	10.985	0.073
365	11.961	0.077
370	12.949	0.08
375	13.949	0.084
380	14.96	0.088
385	15.983	0.092
390	17.017	0.096
395	18.061	0.1

System: 2-amino-5-nitropyridine; phases: Crystal
Fixed: Pressure, kPa = 101.325
Property: Molar entropy, J/K/mol (Crystal); method: Vacuum adiabatic calorimetry
Temperature, K	Molar entropy, J/K/mol	uncertainty
80	-125.383	0.785
85	-122.12	0.764
90	-118.874	0.719
95	-115.649	0.7
100	-112.446	0.681
105	-109.268	0.663
110	-106.115	0.645
115	-102.988	0.627
120	-99.887	0.609
125	-96.812	0.591
130	-93.763	0.574
135	-90.739	0.557
140	-87.739	0.54
145	-84.764	0.523
150	-81.811	0.507
155	-78.88	0.491
160	-75.97	0.475
165	-73.08	0.459
170	-70.209	0.443
175	-67.356	0.428
180	-64.52	0.413
185	-61.699	0.398
190	-58.892	0.384
195	-56.1	0.37
200	-53.319	0.356
205	-50.55	0.342
210	-47.792	0.329
215	-45.043	0.317
220	-42.302	0.304
225	-39.569	0.292
230	-36.843	0.281
235	-34.122	0.27
240	-31.407	0.26
245	-28.696	0.251
250	-25.989	0.242
255	-23.284	0.234
260	-20.583	0.227
265	-17.883	0.221
270	-15.184	0.216
275	-12.487	0.218
280	-9.79	0.221
285	-7.093	0.224
290	-4.396	0.228
295	-1.699	0.231
298.15	0	0.3
300	0.998	0.234
305	3.696	0.237
310	6.395	0.24
315	9.094	0.243
320	11.793	0.246
325	14.493	0.249
330	17.194	0.253
335	19.894	0.262
340	22.594	0.272
345	25.293	0.283
350	27.991	0.295
355	30.688	0.306
360	33.382	0.319
365	36.074	0.331
370	38.763	0.344
375	41.447	0.357
380	44.127	0.37
385	46.8	0.384
390	49.468	0.398
395	52.127	0.412

Reaction: -1 2-amino-5-nitropyridine + 5 carbon dioxide + 1.5 nitrogen + 2.5 water + -5.25 oxygen
Property: Molar internal energy of reaction at constant volume, kJ/mol
-2676.26
