Measured thermophysical data. Ferrocenium ionic liquids: phase transitions and physical properties
Source: Thermochim. Acta, 2012, 10.1016/j.tca.2011.01.013
Compound 1: 1-butyl-1',2,2',3,3',4,4',5-octamethylferrocene, C22H34Fe, InChI=1S/C13H21.C9H13.Fe/c1-6-7-8-13-11(4)9(2)10(3)12(13)5;1-6-5-7(2)9(4)8(6)3;/h6-8H2,1-5H3;5H,1-4H3;
Compound 2: 1-hexyl-1',2,2',3,3',4,4',5-octamethylferrocene, C24H38Fe, InChI=1S/C15H25.C9H13.Fe/c1-6-7-8-9-10-15-13(4)11(2)12(3)14(15)5;1-6-5-7(2)9(4)8(6)3;/h6-10H2,1-5H3;5H,1-4H3;
Compound 3: 1-butyl-1',2,2',3,3',4,4',5-octamethylferrocenium bis(trifluoromethylsulfonyl)amide, C24H34F6FeNO4S2, InChI=1S/C13H21.C9H13.C2F6NO4S2.Fe/c1-6-7-8-13-11(4)9(2)10(3)12(13)5;1-6-5-7(2)9(4)8(6)3;3-1(4,5)14(10,11)9-15(12,13)2(6,7)8;/h6-8H2,1-5H3;5H,1-4H3;;/q;;-1;+1
Compound 4: 1-hexyl-1',2,2',3,3',4,4',5-octamethylferrocenium bis(trifluoromethylsulfonyl)amide, C26H38F6FeNO4S2, InChI=1S/C15H25.C9H13.C2F6NO4S2.Fe/c1-6-7-8-9-10-15-13(4)11(2)12(3)14(15)5;1-6-5-7(2)9(4)8(6)3;3-1(4,5)14(10,11)9-15(12,13)2(6,7)8;/h6-10H2,1-5H3;5H,1-4H3;;/q;;-1;+1
Compound 5: 1-butyl-1',2,2',3,3',4,4',5-octamethylferrocenium, tetracyanoethylenide, C28H34FeN4, InChI=1S/C13H21.C9H13.C6N4.Fe/c1-6-7-8-13-11(4)9(2)10(3)12(13)5;1-6-5-7(2)9(4)8(6)3;7-1-5(2-8)6(3-9)4-10;/h6-8H2,1-5H3;5H,1-4H3;;/q;;-1;+1
Compound 6: 1-hexyl-1',2,2',3,3',4,4',5-octamethylferrocenium tetracyanoethylenide, C30H38FeN4, InChI=1S/C15H25.C9H13.C6N4.Fe/c1-6-7-8-9-10-15-13(4)11(2)12(3)14(15)5;1-6-5-7(2)9(4)8(6)3;7-1-5(2-8)6(3-9)4-10;/h6-10H2,1-5H3;5H,1-4H3;;/q;;-1;+1

System: 1-butyl-1',2,2',3,3',4,4',5-octamethylferrocene; phases: Crystal, Liquid, Air at 1 atmosphere
Property: Normal melting temperature, K (Crystal); method: DTA
Normal melting temperature, K	uncertainty
300.75	0.5

System: 1-butyl-1',2,2',3,3',4,4',5-octamethylferrocene; phases: Crystal, Liquid, Air at 1 atmosphere
Property: Molar enthalpy of transition or fusion, kJ/mol (Crystal); method: DSC
Molar enthalpy of transition or fusion, kJ/mol	uncertainty
24.24	0.75

System: 1-hexyl-1',2,2',3,3',4,4',5-octamethylferrocene; phases: Crystal, Liquid, Air at 1 atmosphere
Property: Normal melting temperature, K (Crystal); method: DTA
Normal melting temperature, K	uncertainty
295.25	0.5

System: 1-hexyl-1',2,2',3,3',4,4',5-octamethylferrocene; phases: Crystal, Liquid, Air at 1 atmosphere
Property: Molar enthalpy of transition or fusion, kJ/mol (Crystal); method: DSC
Molar enthalpy of transition or fusion, kJ/mol	uncertainty
25.01	0.77

System: 1-butyl-1',2,2',3,3',4,4',5-octamethylferrocenium bis(trifluoromethylsulfonyl)amide; phases: Crystal, Liquid, Air at 1 atmosphere
Property: Normal melting temperature, K (Crystal); method: DTA
Normal melting temperature, K	uncertainty
307.55	0.5

System: 1-butyl-1',2,2',3,3',4,4',5-octamethylferrocenium bis(trifluoromethylsulfonyl)amide; phases: Crystal, Liquid, Air at 1 atmosphere
Property: Molar enthalpy of transition or fusion, kJ/mol (Crystal); method: DSC
Molar enthalpy of transition or fusion, kJ/mol	uncertainty
26.54	0.8

System: 1-hexyl-1',2,2',3,3',4,4',5-octamethylferrocenium bis(trifluoromethylsulfonyl)amide; phases: Crystal, Liquid, Air at 1 atmosphere
Property: Normal melting temperature, K (Crystal); method: DTA
Normal melting temperature, K	uncertainty
300.85	0.5

System: 1-hexyl-1',2,2',3,3',4,4',5-octamethylferrocenium bis(trifluoromethylsulfonyl)amide; phases: Crystal, Liquid, Air at 1 atmosphere
Property: Molar enthalpy of transition or fusion, kJ/mol (Crystal); method: DSC
Molar enthalpy of transition or fusion, kJ/mol	uncertainty
25.45	0.78

System: 1-butyl-1',2,2',3,3',4,4',5-octamethylferrocenium, tetracyanoethylenide; phases: Crystal, Liquid, Air at 1 atmosphere
Property: Normal melting temperature, K (Crystal); method: DTA
Normal melting temperature, K	uncertainty
373.35	0.5

System: 1-butyl-1',2,2',3,3',4,4',5-octamethylferrocenium, tetracyanoethylenide; phases: Crystal, Liquid, Air at 1 atmosphere
Property: Molar enthalpy of transition or fusion, kJ/mol (Crystal); method: DSC
Molar enthalpy of transition or fusion, kJ/mol	uncertainty
35.06	1.01

System: 1-butyl-1',2,2',3,3',4,4',5-octamethylferrocenium, tetracyanoethylenide; phases: Crystal
Property: Mass density, kg/m3 (Crystal); method: X-ray diffraction
Temperature, K	Pressure, kPa	Mass density, kg/m3	uncertainty
100	101.325	1262	13

System: 1-hexyl-1',2,2',3,3',4,4',5-octamethylferrocenium tetracyanoethylenide; phases: Crystal, Liquid, Air at 1 atmosphere
Property: Normal melting temperature, K (Crystal); method: DTA
Normal melting temperature, K	uncertainty
354.05	0.5

System: 1-hexyl-1',2,2',3,3',4,4',5-octamethylferrocenium tetracyanoethylenide; phases: Crystal, Liquid, Air at 1 atmosphere
Property: Molar enthalpy of transition or fusion, kJ/mol (Crystal); method: DSC
Molar enthalpy of transition or fusion, kJ/mol	uncertainty
38.95	1.1
