Measured thermophysical data. Thermodynamic and acoustic properties of binary mixtures of oxolane with aniline and substituted anilines at 303.15, 313.15 and 323.15 K
Source: Thermochim. Acta, 2010, 10.1016/j.tca.2010.04.025
Compound 1: tetrahydrofuran, C4H8O, InChI=1S/C4H8O/c1-2-4-5-3-1/h1-4H2, purity 99.5%
Compound 2: aniline, C6H7N, InChI=1S/C6H7N/c7-6-4-2-1-3-5-6/h1-5H,7H2, purity 99.5%
Compound 3: N-methylaniline, C7H9N, InChI=1S/C7H9N/c1-8-7-5-3-2-4-6-7/h2-6,8H,1H3, purity 99.5%
Compound 4: N-ethylaminobenzene, C8H11N, InChI=1S/C8H11N/c1-2-9-8-6-4-3-5-7-8/h3-7,9H,2H2,1H3, purity 99.5%

System: tetrahydrofuran; phases: Liquid
Fixed: Pressure, kPa = 101
Property: Speed of sound, m/s (Liquid); method: Linear variable-path acoustic interferometer
Temperature, K	Speed of sound, m/s	uncertainty
303.15	1256	2
313.15	1212	2
323.15	1171	2

System: tetrahydrofuran; phases: Liquid
Fixed: Pressure, kPa = 101
Property: Mass density, kg/m3 (Liquid); method: Pycnometric method
Temperature, K	Mass density, kg/m3	uncertainty
303.15	877.3	0.3
313.15	867.2	0.3
323.15	856.6	0.3
323.15	857.1	0.3

System: aniline; phases: Liquid
Fixed: Pressure, kPa = 101
Property: Speed of sound, m/s (Liquid); method: Linear variable-path acoustic interferometer
Temperature, K	Speed of sound, m/s	uncertainty
303.15	1615	3
313.15	1583	3
323.15	1558	3

System: aniline; phases: Liquid
Fixed: Pressure, kPa = 101
Property: Mass density, kg/m3 (Liquid); method: Pycnometric method
Temperature, K	Mass density, kg/m3	uncertainty
303.15	1012.8	0.4
313.15	1004.9	0.4
323.15	998.4	0.4

System: N-methylaniline; phases: Liquid
Fixed: Pressure, kPa = 101
Property: Speed of sound, m/s (Liquid); method: Linear variable-path acoustic interferometer
Temperature, K	Speed of sound, m/s	uncertainty
303.15	1548	3
313.15	1512	3
323.15	1477	3

System: N-methylaniline; phases: Liquid
Fixed: Pressure, kPa = 101
Property: Mass density, kg/m3 (Liquid); method: Pycnometric method
Temperature, K	Mass density, kg/m3	uncertainty
303.15	978.2	0.3
313.15	969.8	0.4
323.15	961	0.4

System: N-ethylaminobenzene; phases: Liquid
Fixed: Pressure, kPa = 101
Property: Speed of sound, m/s (Liquid); method: Linear variable-path acoustic interferometer
Temperature, K	Speed of sound, m/s	uncertainty
303.15	1497	3
313.15	1462	3
323.15	1431	3

System: N-ethylaminobenzene; phases: Liquid
Fixed: Pressure, kPa = 101
Property: Mass density, kg/m3 (Liquid); method: Pycnometric method
Temperature, K	Mass density, kg/m3	uncertainty
303.15	951.9	0.3
313.15	944.3	0.4
323.15	935.9	0.4

System: aniline + tetrahydrofuran; phases: Liquid
Fixed: Pressure, kPa = 101
Property: Speed of sound, m/s (Liquid); method: Linear variable-path acoustic interferometer
Temperature, K	Mole fraction of tetrahydrofuran	Speed of sound, m/s	uncertainty
303.15	0	1615	3
303.15	0.087	1592	3
303.15	0.1803	1565	3
303.15	0.2735	1535	3
303.15	0.3573	1509	3
303.15	0.4556	1476	3
303.15	0.5638	1438	3
303.15	0.6708	1393	3
303.15	0.8169	1334	3
303.15	0.8812	1306	2
303.15	1	1256	2
313.15	0	1583	3
313.15	0.087	1561	3
313.15	0.1803	1531	3
313.15	0.2735	1500	3
313.15	0.3573	1473	3
313.15	0.4556	1440	3
313.15	0.5638	1402	3
313.15	0.6708	1359	3
313.15	0.8169	1299	2
313.15	0.8812	1267	2
313.15	1	1212	2
323.15	0	1558	3
323.15	0.087	1537	3
323.15	0.1803	1510	3
323.15	0.2735	1478	3
323.15	0.3573	1450	3
323.15	0.4556	1417	3
323.15	0.5638	1379	3
323.15	0.6708	1334	3
323.15	0.8169	1268	2
323.15	0.8812	1237	2
323.15	1	1171	2

System: aniline + tetrahydrofuran; phases: Liquid
Fixed: Pressure, kPa = 101
Property: Mass density, kg/m3 (Liquid); method: Pycnometric method
Temperature, K	Mole fraction of tetrahydrofuran	Mass density, kg/m3	uncertainty
303.15	0	1012.8	0.4
303.15	0.087	1004.4	0.4
303.15	0.1803	994.8	0.3
303.15	0.2735	984.8	0.3
303.15	0.3573	975.4	0.3
303.15	0.4556	964.1	0.3
303.15	0.5638	950.5	0.3
303.15	0.6708	935	0.3
303.15	0.8169	910.1	0.3
303.15	0.8812	898.7	0.3
303.15	1	877.3	0.3
313.15	0	1004.9	0.4
313.15	0.087	997.5	0.4
313.15	0.1803	988.2	0.4
313.15	0.2735	978.5	0.4
313.15	0.3573	969.4	0.4
313.15	0.4556	957.8	0.4
313.15	0.5638	943.9	0.4
313.15	0.6708	928.7	0.3
313.15	0.8169	904	0.3
313.15	0.8812	892.2	0.3
313.15	1	867.2	0.3
323.15	0	998.4	0.4
323.15	0.087	991.5	0.4
323.15	0.1803	981.6	0.4
323.15	0.2735	971.8	0.4
323.15	0.3573	962.4	0.4
323.15	0.4556	951.6	0.4
323.15	0.5638	937.9	0.4
323.15	0.6708	922.6	0.4
323.15	0.8169	898.5	0.4
323.15	0.8812	885	0.4
323.15	1	856.6	0.3

System: N-methylaniline + tetrahydrofuran; phases: Liquid
Fixed: Pressure, kPa = 101
Property: Speed of sound, m/s (Liquid); method: Linear variable-path acoustic interferometer
Temperature, K	Mole fraction of tetrahydrofuran	Speed of sound, m/s	uncertainty
303.15	0	1548	3
303.15	0.0831	1528	3
303.15	0.1864	1502	3
303.15	0.2813	1478	3
303.15	0.3782	1453	3
303.15	0.4714	1428	3
303.15	0.5746	1396	3
303.15	0.6956	1357	3
303.15	0.7823	1329	3
303.15	0.8882	1293	2
303.15	1	1256	2
313.15	0	1512	3
313.15	0.0831	1493	3
313.15	0.1864	1466	3
313.15	0.2813	1442	3
313.15	0.3782	1416	3
313.15	0.4714	1390	3
313.15	0.5746	1358	3
313.15	0.6956	1318	2
313.15	0.7823	1289	2
313.15	0.8882	1252	2
313.15	1	1212	2
323.15	0	1477	3
323.15	0.0831	1459	3
323.15	0.1864	1433	3
323.15	0.2813	1407	3
323.15	0.3782	1381	3
323.15	0.4714	1354	3
323.15	0.5746	1322	3
323.15	0.6956	1282	2
323.15	0.7823	1252	2
323.15	0.8882	1213	2
323.15	1	1171	2

System: N-methylaniline + tetrahydrofuran; phases: Liquid
Fixed: Pressure, kPa = 101
Property: Mass density, kg/m3 (Liquid); method: Pycnometric method
Temperature, K	Mole fraction of tetrahydrofuran	Mass density, kg/m3	uncertainty
303.15	0	978.2	0.3
303.15	0.0831	973.1	0.3
303.15	0.1864	966	0.3
303.15	0.2813	959.1	0.3
303.15	0.3782	951.5	0.3
303.15	0.4714	943.5	0.3
303.15	0.5746	933.2	0.3
303.15	0.6956	919.4	0.3
303.15	0.7823	908.2	0.3
303.15	0.8882	893.4	0.3
303.15	1	877.3	0.3
313.15	0	969.8	0.4
313.15	0.0831	964.9	0.4
313.15	0.1864	958.3	0.4
313.15	0.2813	951.4	0.4
313.15	0.3782	944	0.4
313.15	0.4714	936	0.4
313.15	0.5746	926	0.3
313.15	0.6956	912.2	0.3
313.15	0.7823	900.8	0.3
313.15	0.8882	885.7	0.3
313.15	1	867.2	0.3
323.15	0	961	0.4
323.15	0.0831	956.6	0.4
323.15	0.1864	949.9	0.4
323.15	0.2813	943.4	0.4
323.15	0.3782	935.8	0.4
323.15	0.4714	927.4	0.4
323.15	0.5746	916.9	0.4
323.15	0.6956	902.6	0.4
323.15	0.7823	891.1	0.4
323.15	0.8882	875.8	0.4
323.15	1	856.6	0.3

System: N-ethylaminobenzene + tetrahydrofuran; phases: Liquid
Fixed: Pressure, kPa = 101
Property: Speed of sound, m/s (Liquid); method: Linear variable-path acoustic interferometer
Temperature, K	Mole fraction of tetrahydrofuran	Speed of sound, m/s	uncertainty
303.15	0	1497	3
303.15	0.0904	1482	3
303.15	0.1892	1469	3
303.15	0.2849	1452	3
303.15	0.3819	1433	3
303.15	0.4674	1414	3
303.15	0.5758	1387	3
303.15	0.6778	1360	3
303.15	0.7876	1326	2
303.15	0.8903	1291	2
303.15	1	1256	2
313.15	0	1462	3
313.15	0.0904	1450	3
313.15	0.1892	1435	3
313.15	0.2849	1418	3
313.15	0.3819	1399	3
313.15	0.4674	1379	3
313.15	0.5758	1351	3
313.15	0.6778	1323	2
313.15	0.7876	1287	2
313.15	0.8903	1251	2
313.15	1	1212	2
323.15	0	1431	3
323.15	0.0904	1420	3
323.15	0.1892	1404	3
323.15	0.2849	1388	3
323.15	0.3819	1367	3
323.15	0.4674	1346	3
323.15	0.5758	1317	2
323.15	0.6778	1286	2
323.15	0.7876	1250	2
323.15	0.8903	1215	2
323.15	1	1171	2

System: N-ethylaminobenzene + tetrahydrofuran; phases: Liquid
Fixed: Pressure, kPa = 101
Property: Mass density, kg/m3 (Liquid); method: Pycnometric method
Temperature, K	Mole fraction of tetrahydrofuran	Mass density, kg/m3	uncertainty
303.15	0	951.9	0.3
303.15	0.0904	947.8	0.3
303.15	0.1892	943.8	0.3
303.15	0.2849	939.5	0.3
303.15	0.3819	934.5	0.3
303.15	0.4674	929.3	0.3
303.15	0.5758	921.9	0.3
303.15	0.6778	913.1	0.3
303.15	0.7876	902.1	0.3
303.15	0.8903	890.8	0.3
303.15	1	877.3	0.3
313.15	0	944.3	0.4
313.15	0.0904	940.8	0.3
313.15	0.1892	936.7	0.3
313.15	0.2849	932.4	0.3
313.15	0.3819	927.6	0.3
313.15	0.4674	922.6	0.3
313.15	0.5758	915.2	0.3
313.15	0.6778	906.4	0.3
313.15	0.7876	895.4	0.3
313.15	0.8903	882.8	0.3
313.15	1	867.2	0.3
323.15	0	935.9	0.4
323.15	0.0904	932.8	0.4
323.15	0.1892	929.1	0.4
323.15	0.2849	925.2	0.4
323.15	0.3819	920.6	0.4
323.15	0.4674	915.7	0.4
323.15	0.5758	908.1	0.4
323.15	0.6778	899.5	0.4
323.15	0.7876	887.7	0.4
323.15	0.8903	874.2	0.3
323.15	1	857.1	0.3
