Measured thermophysical data. Determination of the thermodynamic functions of bismuth chalcoiodides by EMF method with morpholinium formate as electrolyte
Source: Thermochim. Acta, 2019, 10.1016/j.tca.2019.178319
Compound 1: bismuth triiodide, BiI3, InChI=1S/Bi.3HI/h;3*1H/q+3;;;/p-3, purity 99%
Compound 2: bismuth(III) sulfide, Bi2S3, InChI=1S/2Bi.3S/q2*+3;3*-2, purity 99%
Compound 3: bismuth(III) selenide, Bi2Se3, InChI=1S/2Bi.3Se/q2*+3;3*-2, purity 99%
Compound 4: bismuth(III) telluride, Bi2Te3, InChI=1S/2Bi.3Te/q2*+3;3*-2, purity 99%

System: bismuth triiodide; phases: Crystal, Liquid, Air at 1 atmosphere
Property: Normal melting temperature, K (Crystal); method: DTA
Normal melting temperature, K	uncertainty
680	4

System: bismuth triiodide; phases: Crystal
Property: Mass density, kg/m3 (Crystal); method: X-ray diffraction
Temperature, K	Pressure, kPa	Mass density, kg/m3	uncertainty
298	101.325	5770	20

System: bismuth(III) sulfide; phases: Crystal, Liquid, Air at 1 atmosphere
Property: Normal melting temperature, K (Crystal); method: DTA
Normal melting temperature, K	uncertainty
1050	6

System: bismuth(III) sulfide; phases: Crystal
Property: Mass density, kg/m3 (Crystal); method: X-ray diffraction
Temperature, K	Pressure, kPa	Mass density, kg/m3	uncertainty
298	101.325	6800	20

System: bismuth(III) selenide; phases: Crystal, Liquid, Air at 1 atmosphere
Property: Normal melting temperature, K (Crystal); method: DTA
Normal melting temperature, K	uncertainty
980	6

System: bismuth(III) selenide; phases: Crystal
Property: Mass density, kg/m3 (Crystal); method: X-ray diffraction
Temperature, K	Pressure, kPa	Mass density, kg/m3	uncertainty
298	101.325	7660	30

System: bismuth(III) telluride; phases: Crystal, Liquid, Air at 1 atmosphere
Property: Normal melting temperature, K (Crystal); method: DTA
Normal melting temperature, K	uncertainty
860	4

System: bismuth(III) telluride; phases: Crystal
Property: Mass density, kg/m3 (Crystal); method: X-ray diffraction
Temperature, K	Pressure, kPa	Mass density, kg/m3	uncertainty
298	101.325	7820	30
