Measured thermophysical data. Enthalpies of combustion and formation of 2-acetylpyrrole, 2-acetylfuran and 2-acetylthiophene
Source: Thermochim. Acta, 2009, 10.1016/j.tca.2009.04.012
Compound 1: carbon dioxide, CO2, InChI=1S/CO2/c2-1-3
Compound 2: nitrogen, N2, InChI=1S/N2/c1-2
Compound 3: water, H2O, InChI=1S/H2O/h1H2
Compound 4: oxygen, O2, InChI=1S/O2/c1-2
Compound 5: sulfuric acid, H2O4S, InChI=1S/H2O4S/c1-5(2,3)4/h(H2,1,2,3,4)
Compound 6: 2-acetylpyrrole, C6H7NO, InChI=1S/C6H7NO/c1-5(8)6-3-2-4-7-6/h2-4,7H,1H3, purity 99.9%
Compound 7: 2-acetylfuran, C6H6O2, InChI=1S/C6H6O2/c1-5(7)6-3-2-4-8-6/h2-4H,1H3, purity 99.9%
Compound 8: 2-acetylthiophene, C6H6OS, InChI=1S/C6H6OS/c1-5(7)6-3-2-4-8-6/h2-4H,1H3, purity 99.9%

System: 2-acetylpyrrole; phases: Crystal, Liquid, Air at 1 atmosphere
Property: Molar enthalpy of transition or fusion, kJ/mol (Crystal); method: DSC
Molar enthalpy of transition or fusion, kJ/mol	uncertainty
14.08	1.09

System: 2-acetylpyrrole; phases: Crystal, Liquid, Air at 1 atmosphere
Property: Normal melting temperature, K (Crystal); method: DTA:corrimp
Normal melting temperature, K	uncertainty
362.97	0.4

System: 2-acetylpyrrole; phases: Crystal
Property: Molar heat capacity at constant pressure, J/K/mol (Crystal); method: Small sample (50 mg) DSC
Temperature, K	Pressure, kPa	Molar heat capacity at constant pressure, J/K/mol	uncertainty
298.15	101.325	132.0423632	6.5475552

System: 2-acetylfuran; phases: Crystal, Liquid, Air at 1 atmosphere
Property: Molar enthalpy of transition or fusion, kJ/mol (Crystal); method: DSC
Molar enthalpy of transition or fusion, kJ/mol	uncertainty
15.51	0.69

System: 2-acetylfuran; phases: Crystal, Liquid, Air at 1 atmosphere
Property: Normal melting temperature, K (Crystal); method: DTA:corrimp
Normal melting temperature, K	uncertainty
301.62	0.4

System: 2-acetylfuran; phases: Crystal
Property: Molar heat capacity at constant pressure, J/K/mol (Crystal); method: Small sample (50 mg) DSC
Temperature, K	Pressure, kPa	Molar heat capacity at constant pressure, J/K/mol	uncertainty
298.15	101.325	140.9416192	6.6066384

System: 2-acetylfuran; phases: Crystal
Property: Mass density, kg/m3 (Crystal); method: UNKNOWN
Temperature, K	Pressure, kPa	Mass density, kg/m3	uncertainty
298.15	101.325	1098	5

System: 2-acetylthiophene; phases: Liquid
Property: Molar heat capacity at constant pressure, J/K/mol (Liquid); method: Small sample (50 mg) DSC
Temperature, K	Pressure, kPa	Molar heat capacity at constant pressure, J/K/mol	uncertainty
298.15	101.325	210.7159908	10.0941792

System: 2-acetylthiophene; phases: Liquid
Property: Mass density, kg/m3 (Liquid); method: UNKNOWN
Temperature, K	Pressure, kPa	Mass density, kg/m3	uncertainty
298.15	101.325	1171	5

Reaction: -1 2-acetylpyrrole + 6 carbon dioxide + .5 nitrogen + 3.5 water + -7.25 oxygen
Property: Specific internal energy of reaction at constant volume, J/g
-29290

Reaction: -1 2-acetylfuran + 6 carbon dioxide + 3 water + -6.5 oxygen
Property: Specific internal energy of reaction at constant volume, J/g
-26645.6

Reaction: -1 2-acetylthiophene + 1 sulfuric acid + 6 carbon dioxide + 2 water + -8.5 oxygen
Property: Specific internal energy of reaction at constant volume, J/g
-29249.2
