Measured thermophysical data. Molar excess enthalpies of ethyl acetate + alkanols at T=298.15K, p=10MPa
Source: Thermochim. Acta, 2005, 10.1016/j.tca.2005.03.009
Compound 1: ethyl acetate, C4H8O2, InChI=1S/C4H8O2/c1-3-6-4(2)5/h3H2,1-2H3, purity 99.5%
Compound 2: methanol, CH4O, InChI=1S/CH4O/c1-2/h2H,1H3, purity 99.5%
Compound 3: ethanol, C2H6O, InChI=1S/C2H6O/c1-2-3/h3H,2H2,1H3, purity 99.5%
Compound 4: propan-1-ol, C3H8O, InChI=1S/C3H8O/c1-2-3-4/h4H,2-3H2,1H3, purity 99%
Compound 5: propan-2-ol, C3H8O, InChI=1S/C3H8O/c1-3(2)4/h3-4H,1-2H3, purity 99%
Compound 6: butanone, C4H8O, InChI=1S/C4H8O/c1-3-4(2)5/h3H2,1-2H3, purity 99%

System: methanol + ethyl acetate; phases: Liquid
Fixed: Temperature, K = 298.15
Fixed: Pressure, kPa = 10000
Property: Excess molar enthalpy (molar enthalpy of mixing), kJ/mol (Liquid); method: Flow calorimetry
Mole fraction of ethyl acetate	Excess molar enthalpy (molar enthalpy of mixing), kJ/mol	uncertainty
0.057	0.1826	0.0097
0.086	0.2725	0.0089
0.113	0.3338	0.0086
0.188	0.5232	0.0095
0.257	0.6803	0.0102
0.319	0.8094	0.0106
0.377	0.8971	0.0109
0.43	0.9683	0.0111
0.478	0.9958	0.0111
0.524	1.0133	0.0111
0.566	1.0091	0.0111
0.605	0.987	0.0109
0.641	0.9774	0.0109
0.675	0.9453	0.0109
0.707	0.9102	0.0107
0.738	0.8696	0.0107
0.766	0.8218	0.0108
0.793	0.7676	0.0108
0.818	0.7113	0.0108
0.842	0.6513	0.0111
0.864	0.5854	0.0114
0.886	0.5181	0.0117
0.906	0.4465	0.0125
0.926	0.3677	0.0136
0.944	0.2846	0.0145
0.962	0.2001	0.0156
0.979	0.1059	0.0168

System: ethanol + ethyl acetate; phases: Liquid
Fixed: Temperature, K = 298.15
Fixed: Pressure, kPa = 10000
Property: Excess molar enthalpy (molar enthalpy of mixing), kJ/mol (Liquid); method: Flow calorimetry
Mole fraction of ethyl acetate	Excess molar enthalpy (molar enthalpy of mixing), kJ/mol	uncertainty
0.03	0.141	0.0135
0.054	0.2474	0.0145
0.078	0.3659	0.0141
0.104	0.4696	0.0129
0.13	0.566	0.0127
0.157	0.6609	0.013
0.184	0.7551	0.0131
0.213	0.8459	0.013
0.243	0.9311	0.013
0.274	1.0073	0.0132
0.306	1.0823	0.0135
0.339	1.148	0.0136
0.373	1.2042	0.0138
0.409	1.2507	0.014
0.446	1.2976	0.0143
0.485	1.3282	0.0144
0.525	1.3375	0.0144
0.567	1.3304	0.0143
0.611	1.3093	0.0143
0.657	1.2592	0.0141
0.705	1.1927	0.014
0.754	1.0879	0.0139
0.807	0.9471	0.0139
0.861	0.7632	0.0146
0.919	0.5089	0.0151
0.939	0.3995	0.0179
0.96	0.2744	0.0183

System: propan-1-ol + ethyl acetate; phases: Liquid
Fixed: Temperature, K = 298.15
Fixed: Pressure, kPa = 10000
Property: Excess molar enthalpy (molar enthalpy of mixing), kJ/mol (Liquid); method: Flow calorimetry
Mole fraction of ethyl acetate	Excess molar enthalpy (molar enthalpy of mixing), kJ/mol	uncertainty
0.039	0.2506	0.0156
0.068	0.3971	0.0156
0.098	0.5416	0.0151
0.129	0.6742	0.0146
0.16	0.7963	0.0147
0.192	0.9191	0.0144
0.225	1.0174	0.0144
0.258	1.1204	0.0149
0.291	1.2049	0.0148
0.326	1.2803	0.0154
0.361	1.365	0.0157
0.396	1.4126	0.0156
0.433	1.4592	0.0159
0.47	1.4839	0.016
0.508	1.5112	0.0162
0.547	1.5144	0.0161
0.586	1.503	0.0161
0.627	1.4637	0.0159
0.668	1.4184	0.0158
0.71	1.3441	0.0158
0.753	1.2364	0.0156
0.797	1.1084	0.0159
0.842	0.9322	0.0163
0.888	0.7247	0.0174
0.935	0.4574	0.0185
0.951	0.3509	0.0203
0.968	0.2396	0.0199

System: propan-2-ol + ethyl acetate; phases: Liquid
Fixed: Temperature, K = 298.15
Fixed: Pressure, kPa = 10000
Property: Excess molar enthalpy (molar enthalpy of mixing), kJ/mol (Liquid); method: Flow calorimetry
Mole fraction of ethyl acetate	Excess molar enthalpy (molar enthalpy of mixing), kJ/mol	uncertainty
0.039	0.2719	0.02
0.07	0.4751	0.0193
0.1	0.6471	0.0176
0.132	0.8052	0.0171
0.163	0.9524	0.0167
0.196	1.0818	0.0165
0.229	1.2072	0.0167
0.262	1.3097	0.0167
0.296	1.406	0.017
0.331	1.4915	0.0172
0.366	1.5567	0.0174
0.402	1.6174	0.0176
0.439	1.6528	0.0178
0.476	1.6903	0.0181
0.514	1.7123	0.0181
0.553	1.6967	0.018
0.592	1.6833	0.018
0.632	1.6308	0.0178
0.673	1.5668	0.0177
0.715	1.4676	0.0175
0.758	1.3443	0.0175
0.801	1.1861	0.0175
0.845	0.999	0.0179
0.891	0.7611	0.0189
0.937	0.4823	0.0196
0.952	0.378	0.0219
0.969	0.2541	0.0221

System: butanone + ethyl acetate; phases: Liquid
Fixed: Temperature, K = 298.15
Fixed: Pressure, kPa = 10000
Property: Excess molar enthalpy (molar enthalpy of mixing), kJ/mol (Liquid); method: Flow calorimetry
Mole fraction of ethyl acetate	Excess molar enthalpy (molar enthalpy of mixing), kJ/mol	uncertainty
0.047	0.2974	0.0178
0.082	0.4998	0.0177
0.118	0.6917	0.0164
0.153	0.8397	0.0162
0.189	1.003	0.0165
0.225	1.1348	0.0162
0.262	1.258	0.0162
0.298	1.35	0.0164
0.335	1.4463	0.0169
0.371	1.5155	0.0171
0.408	1.5831	0.0174
0.446	1.6271	0.0176
0.483	1.6716	0.0179
0.52	1.6944	0.018
0.558	1.6868	0.0179
0.596	1.676	0.018
0.634	1.6191	0.0177
0.673	1.5659	0.0175
0.711	1.481	0.0174
0.75	1.379	0.0175
0.789	1.2383	0.0174
0.828	1.0903	0.0175
0.867	0.9055	0.0185
0.907	0.6805	0.0194
0.947	0.4312	0.0205
0.96	0.3236	0.0242
0.974	0.2169	0.0231
