Measured thermophysical data. Excess properties from p.rho.T data for n-heptane + isomeric chlorobutane mixtures
Source: Thermochim. Acta, 2015, 10.1016/j.tca.2015.06.017
Compound 1: heptane, C7H16, InChI=1S/C7H16/c1-3-5-7-6-4-2/h3-7H2,1-2H3, purity 99%
Compound 2: 1-chlorobutane, C4H9Cl, InChI=1S/C4H9Cl/c1-2-3-4-5/h2-4H2,1H3, purity 99%
Compound 3: 2-chlorobutane, C4H9Cl, InChI=1S/C4H9Cl/c1-3-4(2)5/h4H,3H2,1-2H3, purity 99%
Compound 4: 1-chloro-2-methylpropane, C4H9Cl, InChI=1S/C4H9Cl/c1-4(2)3-5/h4H,3H2,1-2H3, purity 99%
Compound 5: 2-chloro-2-methylpropane, C4H9Cl, InChI=1S/C4H9Cl/c1-4(2,3)5/h1-3H3, purity 99%

System: heptane; phases: Liquid
Property: Mass density, kg/m3 (Liquid); method: Vibrating tube method
Temperature, K	Pressure, kPa	Mass density, kg/m3	uncertainty
283.15	100	692.57	0.25
288.15	100	688.55	0.25
293.15	100	684.19	0.25
298.15	100	679.95	0.25
303.15	100	675.68	0.25
308.15	100	671.39	0.25
313.15	100	667.06	0.25
318.15	100	662.54	0.25
323.15	100	658.32	0.25
328.15	100	653.81	0.25
283.15	2000	694.49	0.27
288.15	2000	690.28	0.27
293.15	2000	686.15	0.27
298.15	2000	682.02	0.27
303.15	2000	677.75	0.27
308.15	2000	673.45	0.27
313.15	2000	669.26	0.27
318.15	2000	664.87	0.27
323.15	2000	660.53	0.28
328.15	2000	656.27	0.28
283.15	5000	697.06	0.3
288.15	5000	693.01	0.3
293.15	5000	688.99	0.31
298.15	5000	684.8	0.31
303.15	5000	680.76	0.31
308.15	5000	676.49	0.31
313.15	5000	672.35	0.31
318.15	5000	668.35	0.31
323.15	5000	664.05	0.31
328.15	5000	659.84	0.32
283.15	7000	698.8	0.33
288.15	7000	694.77	0.33
293.15	7000	690.74	0.33
298.15	7000	686.68	0.33
303.15	7000	682.65	0.33
308.15	7000	678.48	0.33
313.15	7000	674.51	0.34
318.15	7000	670.32	0.34
323.15	7000	666.33	0.34
328.15	7000	661.99	0.34
283.15	10000	701.2	0.36
288.15	10000	697.23	0.36
293.15	10000	693.41	0.36
298.15	10000	689.23	0.37
303.15	10000	685.52	0.37
308.15	10000	681.37	0.37
313.15	10000	677.42	0.37
318.15	10000	673.52	0.37
323.15	10000	669.41	0.38
328.15	10000	665.25	0.38
283.15	20000	709.08	0.47
288.15	20000	705.18	0.47
293.15	20000	701.57	0.48
298.15	20000	697.65	0.48
303.15	20000	694.07	0.48
308.15	20000	690.12	0.49
313.15	20000	686.53	0.49
318.15	20000	682.85	0.49
323.15	20000	679.17	0.5
328.15	20000	675.25	0.5
283.15	30000	716.12	0.57
288.15	30000	712.38	0.58
293.15	30000	708.99	0.58
298.15	30000	705.17	0.59
303.15	30000	701.86	0.59
308.15	30000	698.22	0.6
313.15	30000	694.65	0.6
318.15	30000	691.31	0.6
323.15	30000	687.64	0.61
328.15	30000	684.02	0.61
283.15	40000	722.63	0.67
288.15	40000	719.01	0.68
293.15	40000	715.7	0.68
298.15	40000	712.11	0.69
303.15	40000	708.87	0.69
308.15	40000	705.32	0.7
313.15	40000	702.08	0.71
318.15	40000	698.89	0.71
323.15	40000	695.38	0.72
328.15	40000	691.84	0.72
283.15	50000	728.63	0.77
288.15	50000	725.2	0.77
293.15	50000	722.03	0.78
298.15	50000	718.54	0.79
303.15	50000	715.5	0.79
308.15	50000	712.12	0.8
313.15	50000	708.98	0.81
318.15	50000	705.82	0.81
323.15	50000	702.5	0.82
328.15	50000	699.13	0.83
283.15	60000	734.33	0.86
288.15	60000	731.01	0.87
293.15	60000	728.02	0.87
298.15	60000	724.73	0.88
303.15	60000	721.67	0.89
308.15	60000	718.41	0.9
313.15	60000	715.39	0.9
318.15	60000	712.36	0.91
323.15	60000	709.15	0.92
328.15	60000	706.05	0.93
283.15	65000	736.99	0.9
288.15	65000	733.73	0.91
293.15	65000	730.72	0.92
298.15	65000	727.65	0.93
303.15	65000	724.56	0.93
308.15	65000	721.43	0.94
313.15	65000	718.32	0.95
318.15	65000	715.32	0.96
323.15	65000	712.32	0.97
328.15	65000	709.3	0.97

System: 1-chlorobutane + heptane; phases: Liquid
Property: Mass density, kg/m3 (Liquid); method: Vibrating tube method
Temperature, K	Mole fraction of heptane	Pressure, kPa	Mass density, kg/m3	uncertainty
283.15	0.0508	100	882.75	0.24
283.15	0.0994	100	869.33	0.24
283.15	0.2013	100	842.84	0.24
283.15	0.3015	100	818.82	0.24
283.15	0.4008	100	796.7	0.24
283.15	0.5026	100	775.72	0.24
283.15	0.6012	100	756.89	0.24
283.15	0.7003	100	739.21	0.25
283.15	0.7995	100	722.69	0.25
283.15	0.9011	100	706.94	0.25
283.15	0.9494	100	699.8	0.25
293.15	0.0508	100	871.93	0.24
293.15	0.0994	100	858.68	0.24
293.15	0.2013	100	832.5	0.24
293.15	0.3015	100	808.71	0.24
293.15	0.4008	100	786.9	0.24
293.15	0.5026	100	766.2	0.24
293.15	0.6012	100	747.61	0.24
293.15	0.7003	100	730.17	0.25
293.15	0.7995	100	713.87	0.25
293.15	0.9011	100	698.34	0.25
293.15	0.9494	100	691.32	0.25
298.15	0.0508	100	866.47	0.24
298.15	0.0994	100	853.29	0.24
298.15	0.2013	100	827.27	0.24
298.15	0.3015	100	803.67	0.24
298.15	0.4008	100	781.96	0.24
298.15	0.5026	100	761.38	0.24
298.15	0.6012	100	742.88	0.25
298.15	0.7003	100	725.57	0.25
298.15	0.7995	100	709.43	0.25
298.15	0.9011	100	694	0.25
298.15	0.9494	100	687.02	0.25
303.15	0.0508	100	860.95	0.24
303.15	0.0994	100	847.86	0.24
303.15	0.2013	100	822	0.24
303.15	0.3015	100	798.55	0.24
303.15	0.4008	100	777.02	0.24
303.15	0.5026	100	756.58	0.24
303.15	0.6012	100	738.17	0.25
303.15	0.7003	100	720.97	0.25
303.15	0.7995	100	704.97	0.25
303.15	0.9011	100	689.64	0.25
303.15	0.9494	100	682.71	0.25
313.15	0.0508	100	849.81	0.24
313.15	0.0994	100	836.88	0.24
313.15	0.2013	100	811.33	0.24
313.15	0.3015	100	788.17	0.24
313.15	0.4008	100	766.92	0.24
313.15	0.5026	100	746.79	0.25
313.15	0.6012	100	728.67	0.25
313.15	0.7003	100	711.73	0.25
313.15	0.7995	100	695.88	0.25
313.15	0.9011	100	680.8	0.25
313.15	0.9494	100	673.98	0.25
323.15	0.0508	100	838.56	0.24
323.15	0.0994	100	825.81	0.24
323.15	0.2013	100	800.61	0.24
323.15	0.3015	100	777.72	0.24
323.15	0.4008	100	756.76	0.24
323.15	0.5026	100	736.89	0.25
323.15	0.6012	100	719.03	0.25
323.15	0.7003	100	702.32	0.25
323.15	0.7995	100	686.71	0.25
323.15	0.9011	100	671.83	0.25
323.15	0.9494	100	665.13	0.25
283.15	0.0508	2000	884.62	0.25
283.15	0.0994	2000	871.23	0.25
283.15	0.2013	2000	844.73	0.25
283.15	0.3015	2000	820.72	0.25
283.15	0.4008	2000	798.63	0.26
283.15	0.5026	2000	777.65	0.26
283.15	0.6012	2000	758.81	0.26
283.15	0.7003	2000	741.14	0.26
283.15	0.7995	2000	724.62	0.27
283.15	0.9011	2000	708.86	0.27
283.15	0.9494	2000	701.72	0.27
293.15	0.0508	2000	873.92	0.25
293.15	0.0994	2000	860.68	0.25
293.15	0.2013	2000	834.49	0.25
293.15	0.3015	2000	810.76	0.25
293.15	0.4008	2000	788.97	0.26
293.15	0.5026	2000	768.2	0.26
293.15	0.6012	2000	749.57	0.26
293.15	0.7003	2000	732.18	0.26
293.15	0.7995	2000	715.87	0.27
293.15	0.9011	2000	700.31	0.27
293.15	0.9494	2000	693.28	0.27
298.15	0.0508	2000	868.56	0.25
298.15	0.0994	2000	855.4	0.25
298.15	0.2013	2000	829.39	0.25
298.15	0.3015	2000	805.75	0.25
298.15	0.4008	2000	784.08	0.26
298.15	0.5026	2000	763.54	0.26
298.15	0.6012	2000	745	0.26
298.15	0.7003	2000	727.68	0.27
298.15	0.7995	2000	711.52	0.27
298.15	0.9011	2000	696.1	0.27
298.15	0.9494	2000	689.1	0.27
303.15	0.0508	2000	863.1	0.25
303.15	0.0994	2000	849.99	0.25
303.15	0.2013	2000	824.16	0.25
303.15	0.3015	2000	800.7	0.26
303.15	0.4008	2000	779.13	0.26
303.15	0.5026	2000	758.72	0.26
303.15	0.6012	2000	740.28	0.26
303.15	0.7003	2000	723.08	0.27
303.15	0.7995	2000	707.04	0.27
303.15	0.9011	2000	691.71	0.27
303.15	0.9494	2000	684.78	0.27
313.15	0.0508	2000	852.16	0.25
313.15	0.0994	2000	839.22	0.25
313.15	0.2013	2000	813.71	0.25
313.15	0.3015	2000	790.49	0.26
313.15	0.4008	2000	769.27	0.26
313.15	0.5026	2000	749.1	0.26
313.15	0.6012	2000	730.92	0.26
313.15	0.7003	2000	713.94	0.27
313.15	0.7995	2000	698.12	0.27
313.15	0.9011	2000	683.02	0.27
313.15	0.9494	2000	676.19	0.27
323.15	0.0508	2000	840.94	0.25
323.15	0.0994	2000	828.16	0.25
323.15	0.2013	2000	802.98	0.26
323.15	0.3015	2000	780.1	0.26
323.15	0.4008	2000	759.09	0.26
323.15	0.5026	2000	739.17	0.26
323.15	0.6012	2000	721.27	0.27
323.15	0.7003	2000	704.55	0.27
323.15	0.7995	2000	688.99	0.27
323.15	0.9011	2000	674.07	0.27
323.15	0.9494	2000	667.35	0.28
283.15	0.0508	5000	887.46	0.26
283.15	0.0994	5000	874.03	0.26
283.15	0.2013	5000	847.53	0.27
283.15	0.3015	5000	823.49	0.27
283.15	0.4008	5000	801.35	0.28
283.15	0.5026	5000	780.38	0.28
283.15	0.6012	5000	761.44	0.29
283.15	0.7003	5000	743.76	0.29
283.15	0.7995	5000	727.26	0.3
283.15	0.9011	5000	711.45	0.3
283.15	0.9494	5000	704.3	0.3
293.15	0.0508	5000	876.95	0.26
293.15	0.0994	5000	863.68	0.26
293.15	0.2013	5000	837.52	0.27
293.15	0.3015	5000	813.71	0.27
293.15	0.4008	5000	791.93	0.28
293.15	0.5026	5000	771.16	0.28
293.15	0.6012	5000	752.54	0.29
293.15	0.7003	5000	735.08	0.29
293.15	0.7995	5000	718.74	0.3
293.15	0.9011	5000	703.17	0.3
293.15	0.9494	5000	696.13	0.31
298.15	0.0508	5000	871.65	0.26
298.15	0.0994	5000	858.46	0.27
298.15	0.2013	5000	832.44	0.27
298.15	0.3015	5000	808.8	0.28
298.15	0.4008	5000	787.1	0.28
298.15	0.5026	5000	766.44	0.29
298.15	0.6012	5000	747.93	0.29
298.15	0.7003	5000	730.59	0.3
298.15	0.7995	5000	714.37	0.3
298.15	0.9011	5000	698.9	0.3
298.15	0.9494	5000	691.9	0.31
303.15	0.0508	5000	866.34	0.26
303.15	0.0994	5000	853.23	0.27
303.15	0.2013	5000	827.36	0.27
303.15	0.3015	5000	803.89	0.28
303.15	0.4008	5000	782.29	0.28
303.15	0.5026	5000	761.81	0.29
303.15	0.6012	5000	743.41	0.29
303.15	0.7003	5000	726.22	0.3
303.15	0.7995	5000	710.1	0.3
303.15	0.9011	5000	694.74	0.31
303.15	0.9494	5000	687.8	0.31
313.15	0.0508	5000	855.66	0.27
313.15	0.0994	5000	842.7	0.27
313.15	0.2013	5000	817.15	0.27
313.15	0.3015	5000	793.89	0.28
313.15	0.4008	5000	772.63	0.28
313.15	0.5026	5000	752.4	0.29
313.15	0.6012	5000	734.17	0.29
313.15	0.7003	5000	717.17	0.3
313.15	0.7995	5000	701.32	0.3
313.15	0.9011	5000	686.16	0.31
313.15	0.9494	5000	679.3	0.31
323.15	0.0508	5000	844.77	0.27
323.15	0.0994	5000	831.99	0.27
323.15	0.2013	5000	806.76	0.28
323.15	0.3015	5000	783.86	0.28
323.15	0.4008	5000	762.86	0.29
323.15	0.5026	5000	742.92	0.29
323.15	0.6012	5000	724.95	0.3
323.15	0.7003	5000	708.22	0.3
323.15	0.7995	5000	692.58	0.31
323.15	0.9011	5000	677.65	0.31
323.15	0.9494	5000	670.89	0.31
283.15	0.0508	7000	889.28	0.27
283.15	0.0994	7000	875.85	0.27
283.15	0.2013	7000	849.37	0.28
283.15	0.3015	7000	825.31	0.29
283.15	0.4008	7000	803.16	0.29
283.15	0.5026	7000	782.19	0.3
283.15	0.6012	7000	763.28	0.3
283.15	0.7003	7000	745.54	0.31
283.15	0.7995	7000	729.04	0.32
283.15	0.9011	7000	713.2	0.32
283.15	0.9494	7000	706.05	0.32
293.15	0.0508	7000	878.92	0.27
293.15	0.0994	7000	865.65	0.27
293.15	0.2013	7000	839.47	0.28
293.15	0.3015	7000	815.63	0.29
293.15	0.4008	7000	793.83	0.3
293.15	0.5026	7000	773.03	0.3
293.15	0.6012	7000	754.35	0.31
293.15	0.7003	7000	736.9	0.31
293.15	0.7995	7000	720.57	0.32
293.15	0.9011	7000	704.95	0.33
293.15	0.9494	7000	697.9	0.33
298.15	0.0508	7000	873.68	0.27
298.15	0.0994	7000	860.48	0.28
298.15	0.2013	7000	834.46	0.28
298.15	0.3015	7000	810.76	0.29
298.15	0.4008	7000	789.09	0.3
298.15	0.5026	7000	768.42	0.3
298.15	0.6012	7000	749.89	0.31
298.15	0.7003	7000	732.52	0.32
298.15	0.7995	7000	716.31	0.32
298.15	0.9011	7000	700.8	0.33
298.15	0.9494	7000	693.79	0.33
303.15	0.0508	7000	868.42	0.27
303.15	0.0994	7000	855.3	0.28
303.15	0.2013	7000	829.43	0.28
303.15	0.3015	7000	805.92	0.29
303.15	0.4008	7000	784.34	0.3
303.15	0.5026	7000	763.83	0.31
303.15	0.6012	7000	745.42	0.31
303.15	0.7003	7000	728.16	0.32
303.15	0.7995	7000	712.06	0.32
303.15	0.9011	7000	696.65	0.33
303.15	0.9494	7000	689.71	0.33
313.15	0.0508	7000	857.83	0.28
313.15	0.0994	7000	844.87	0.28
313.15	0.2013	7000	819.33	0.29
313.15	0.3015	7000	796.12	0.29
313.15	0.4008	7000	774.82	0.3
313.15	0.5026	7000	754.59	0.31
313.15	0.6012	7000	736.35	0.31
313.15	0.7003	7000	719.35	0.32
313.15	0.7995	7000	703.48	0.33
313.15	0.9011	7000	688.32	0.33
313.15	0.9494	7000	681.45	0.33
323.15	0.0508	7000	847.24	0.28
323.15	0.0994	7000	834.44	0.28
323.15	0.2013	7000	809.21	0.29
323.15	0.3015	7000	786.24	0.3
323.15	0.4008	7000	765.22	0.3
323.15	0.5026	7000	745.31	0.31
323.15	0.6012	7000	727.32	0.32
323.15	0.7003	7000	710.53	0.32
323.15	0.7995	7000	694.9	0.33
323.15	0.9011	7000	679.93	0.33
323.15	0.9494	7000	673.17	0.34
283.15	0.0508	10000	891.99	0.28
283.15	0.0994	10000	878.55	0.28
283.15	0.2013	10000	852.02	0.29
283.15	0.3015	10000	827.93	0.3
283.15	0.4008	10000	805.75	0.31
283.15	0.5026	10000	784.72	0.32
283.15	0.6012	10000	765.77	0.33
283.15	0.7003	10000	748.04	0.34
283.15	0.7995	10000	731.51	0.35
283.15	0.9011	10000	715.65	0.35
283.15	0.9494	10000	708.47	0.36
293.15	0.0508	10000	881.85	0.28
293.15	0.0994	10000	868.56	0.29
293.15	0.2013	10000	842.33	0.3
293.15	0.3015	10000	818.52	0.31
293.15	0.4008	10000	796.66	0.32
293.15	0.5026	10000	775.83	0.33
293.15	0.6012	10000	757.17	0.33
293.15	0.7003	10000	739.62	0.34
293.15	0.7995	10000	723.28	0.35
293.15	0.9011	10000	707.66	0.36
293.15	0.9494	10000	700.58	0.36
298.15	0.0508	10000	876.62	0.28
298.15	0.0994	10000	863.41	0.29
298.15	0.2013	10000	837.33	0.3
298.15	0.3015	10000	813.6	0.31
298.15	0.4008	10000	791.87	0.32
298.15	0.5026	10000	771.16	0.33
298.15	0.6012	10000	752.57	0.34
298.15	0.7003	10000	735.16	0.35
298.15	0.7995	10000	718.95	0.35
298.15	0.9011	10000	703.38	0.36
298.15	0.9494	10000	696.37	0.36
303.15	0.0508	10000	871.51	0.29
303.15	0.0994	10000	858.41	0.29
303.15	0.2013	10000	832.51	0.3
303.15	0.3015	10000	808.97	0.31
303.15	0.4008	10000	787.38	0.32
303.15	0.5026	10000	766.86	0.33
303.15	0.6012	10000	748.41	0.34
303.15	0.7003	10000	731.09	0.35
303.15	0.7995	10000	714.97	0.35
303.15	0.9011	10000	699.57	0.36
303.15	0.9494	10000	692.59	0.37
313.15	0.0508	10000	861.16	0.29
313.15	0.0994	10000	848.2	0.3
313.15	0.2013	10000	822.59	0.31
313.15	0.3015	10000	799.33	0.32
313.15	0.4008	10000	777.95	0.33
313.15	0.5026	10000	757.71	0.33
313.15	0.6012	10000	739.49	0.34
313.15	0.7003	10000	722.43	0.35
313.15	0.7995	10000	706.51	0.36
313.15	0.9011	10000	691.27	0.37
313.15	0.9494	10000	684.4	0.37
323.15	0.0508	10000	850.72	0.3
323.15	0.0994	10000	837.9	0.3
323.15	0.2013	10000	812.61	0.31
323.15	0.3015	10000	789.63	0.32
323.15	0.4008	10000	768.57	0.33
323.15	0.5026	10000	748.59	0.34
323.15	0.6012	10000	730.62	0.35
323.15	0.7003	10000	713.78	0.36
323.15	0.7995	10000	698.05	0.36
323.15	0.9011	10000	683.06	0.37
323.15	0.9494	10000	676.28	0.37
283.15	0.0508	20000	900.53	0.31
283.15	0.0994	20000	887.08	0.32
283.15	0.2013	20000	860.48	0.34
283.15	0.3015	20000	836.34	0.36
283.15	0.4008	20000	814.1	0.38
283.15	0.5026	20000	793.03	0.4
283.15	0.6012	20000	773.97	0.41
283.15	0.7003	20000	756.2	0.43
283.15	0.7995	20000	739.54	0.44
283.15	0.9011	20000	723.61	0.46
283.15	0.9494	20000	716.4	0.46
293.15	0.0508	20000	890.77	0.32
293.15	0.0994	20000	877.47	0.33
293.15	0.2013	20000	851.18	0.35
293.15	0.3015	20000	827.25	0.37
293.15	0.4008	20000	805.35	0.39
293.15	0.5026	20000	784.43	0.41
293.15	0.6012	20000	765.68	0.42
293.15	0.7003	20000	748.06	0.44
293.15	0.7995	20000	731.66	0.45
293.15	0.9011	20000	715.92	0.46
293.15	0.9494	20000	708.79	0.47
298.15	0.0508	20000	885.92	0.32
298.15	0.0994	20000	872.69	0.33
298.15	0.2013	20000	846.51	0.36
298.15	0.3015	20000	822.71	0.37
298.15	0.4008	20000	800.83	0.39
298.15	0.5026	20000	780.1	0.41
298.15	0.6012	20000	761.37	0.42
298.15	0.7003	20000	743.91	0.44
298.15	0.7995	20000	727.56	0.45
298.15	0.9011	20000	711.9	0.47
298.15	0.9494	20000	704.84	0.47
303.15	0.0508	20000	881.1	0.33
303.15	0.0994	20000	867.95	0.34
303.15	0.2013	20000	841.94	0.36
303.15	0.3015	20000	818.31	0.38
303.15	0.4008	20000	796.57	0.4
303.15	0.5026	20000	775.93	0.41
303.15	0.6012	20000	757.4	0.43
303.15	0.7003	20000	740.01	0.44
303.15	0.7995	20000	723.78	0.46
303.15	0.9011	20000	708.24	0.47
303.15	0.9494	20000	701.2	0.48
313.15	0.0508	20000	871.22	0.34
313.15	0.0994	20000	858.21	0.35
313.15	0.2013	20000	832.53	0.37
313.15	0.3015	20000	809.13	0.39
313.15	0.4008	20000	787.71	0.4
313.15	0.5026	20000	767.37	0.42
313.15	0.6012	20000	749.02	0.44
313.15	0.7003	20000	731.86	0.45
313.15	0.7995	20000	715.81	0.46
313.15	0.9011	20000	700.5	0.48
313.15	0.9494	20000	693.56	0.48
323.15	0.0508	20000	861.47	0.34
323.15	0.0994	20000	848.64	0.35
323.15	0.2013	20000	823.24	0.37
323.15	0.3015	20000	800.16	0.39
323.15	0.4008	20000	779.03	0.41
323.15	0.5026	20000	758.92	0.43
323.15	0.6012	20000	740.82	0.44
323.15	0.7003	20000	723.85	0.46
323.15	0.7995	20000	708.08	0.47
323.15	0.9011	20000	692.95	0.48
323.15	0.9494	20000	686.11	0.49
283.15	0.0508	30000	908.4	0.34
283.15	0.0994	30000	894.89	0.36
283.15	0.2013	30000	868.22	0.39
283.15	0.3015	30000	843.95	0.42
283.15	0.4008	30000	821.67	0.44
283.15	0.5026	30000	800.5	0.47
283.15	0.6012	30000	781.4	0.49
283.15	0.7003	30000	763.51	0.51
283.15	0.7995	30000	746.78	0.53
283.15	0.9011	30000	730.75	0.55
283.15	0.9494	30000	723.48	0.56
293.15	0.0508	30000	899	0.35
293.15	0.0994	30000	885.66	0.37
293.15	0.2013	30000	859.31	0.4
293.15	0.3015	30000	835.33	0.43
293.15	0.4008	30000	813.25	0.45
293.15	0.5026	30000	792.34	0.48
293.15	0.6012	30000	773.46	0.5
293.15	0.7003	30000	755.75	0.52
293.15	0.7995	30000	739.24	0.54
293.15	0.9011	30000	723.44	0.56
293.15	0.9494	30000	716.27	0.57
298.15	0.0508	30000	894.38	0.36
298.15	0.0994	30000	881.09	0.37
298.15	0.2013	30000	854.8	0.4
298.15	0.3015	30000	830.93	0.43
298.15	0.4008	30000	808.96	0.46
298.15	0.5026	30000	788.14	0.48
298.15	0.6012	30000	769.31	0.51
298.15	0.7003	30000	751.75	0.53
298.15	0.7995	30000	735.28	0.55
298.15	0.9011	30000	719.55	0.57
298.15	0.9494	30000	712.41	0.58
303.15	0.0508	30000	889.77	0.36
303.15	0.0994	30000	876.56	0.38
303.15	0.2013	30000	850.48	0.41
303.15	0.3015	30000	826.73	0.44
303.15	0.4008	30000	804.94	0.46
303.15	0.5026	30000	784.21	0.49
303.15	0.6012	30000	765.55	0.51
303.15	0.7003	30000	748.07	0.53
303.15	0.7995	30000	731.77	0.55
303.15	0.9011	30000	716.14	0.57
303.15	0.9494	30000	709.05	0.58
313.15	0.0508	30000	880.41	0.37
313.15	0.0994	30000	867.36	0.39
313.15	0.2013	30000	841.53	0.42
313.15	0.3015	30000	818.07	0.45
313.15	0.4008	30000	796.54	0.47
313.15	0.5026	30000	776	0.5
313.15	0.6012	30000	757.6	0.52
313.15	0.7003	30000	740.3	0.54
313.15	0.7995	30000	724.2	0.56
313.15	0.9011	30000	708.75	0.58
313.15	0.9494	30000	701.75	0.59
323.15	0.0508	30000	871.14	0.38
323.15	0.0994	30000	858.24	0.4
323.15	0.2013	30000	832.76	0.43
323.15	0.3015	30000	809.58	0.46
323.15	0.4008	30000	788.23	0.48
323.15	0.5026	30000	767.99	0.51
323.15	0.6012	30000	749.78	0.53
323.15	0.7003	30000	732.75	0.55
323.15	0.7995	30000	716.78	0.57
323.15	0.9011	30000	701.56	0.59
323.15	0.9494	30000	694.65	0.6
283.15	0.0508	40000	915.72	0.36
283.15	0.0994	40000	902.19	0.39
283.15	0.2013	40000	875.41	0.43
283.15	0.3015	40000	851.07	0.47
283.15	0.4008	40000	828.73	0.5
283.15	0.5026	40000	807.4	0.53
283.15	0.6012	40000	788.26	0.57
283.15	0.7003	40000	770.26	0.59
283.15	0.7995	40000	753.48	0.62
283.15	0.9011	40000	737.36	0.65
283.15	0.9494	40000	730.05	0.66
293.15	0.0508	40000	906.7	0.38
293.15	0.0994	40000	893.3	0.4
293.15	0.2013	40000	866.83	0.44
293.15	0.3015	40000	842.76	0.48
293.15	0.4008	40000	820.58	0.51
293.15	0.5026	40000	799.52	0.55
293.15	0.6012	40000	780.6	0.58
293.15	0.7003	40000	762.81	0.61
293.15	0.7995	40000	746.17	0.63
293.15	0.9011	40000	730.25	0.66
293.15	0.9494	40000	723.03	0.67
298.15	0.0508	40000	902.26	0.39
298.15	0.0994	40000	888.92	0.41
298.15	0.2013	40000	862.54	0.45
298.15	0.3015	40000	838.54	0.49
298.15	0.4008	40000	816.49	0.52
298.15	0.5026	40000	795.57	0.55
298.15	0.6012	40000	776.69	0.58
298.15	0.7003	40000	759	0.61
298.15	0.7995	40000	742.45	0.64
298.15	0.9011	40000	726.58	0.67
298.15	0.9494	40000	719.41	0.68
303.15	0.0508	40000	897.85	0.39
303.15	0.0994	40000	884.61	0.41
303.15	0.2013	40000	858.37	0.45
303.15	0.3015	40000	834.56	0.49
303.15	0.4008	40000	812.66	0.53
303.15	0.5026	40000	791.81	0.56
303.15	0.6012	40000	773.04	0.59
303.15	0.7003	40000	755.46	0.62
303.15	0.7995	40000	739	0.65
303.15	0.9011	40000	723.24	0.67
303.15	0.9494	40000	716.11	0.68
313.15	0.0508	40000	888.86	0.41
313.15	0.0994	40000	875.75	0.43
313.15	0.2013	40000	849.87	0.47
313.15	0.3015	40000	826.26	0.5
313.15	0.4008	40000	804.63	0.54
313.15	0.5026	40000	783.99	0.57
313.15	0.6012	40000	765.46	0.6
313.15	0.7003	40000	748.11	0.63
313.15	0.7995	40000	731.87	0.66
313.15	0.9011	40000	716.29	0.68
313.15	0.9494	40000	709.25	0.69
323.15	0.0508	40000	880.1	0.42
323.15	0.0994	40000	867.14	0.44
323.15	0.2013	40000	841.52	0.48
323.15	0.3015	40000	818.18	0.52
323.15	0.4008	40000	796.79	0.55
323.15	0.5026	40000	776.38	0.58
323.15	0.6012	40000	758.03	0.61
323.15	0.7003	40000	740.88	0.64
323.15	0.7995	40000	724.82	0.67
323.15	0.9011	40000	709.43	0.69
323.15	0.9494	40000	702.46	0.71
283.15	0.0508	50000	922.47	0.38
283.15	0.0994	50000	908.9	0.41
283.15	0.2013	50000	882.07	0.46
283.15	0.3015	50000	857.66	0.51
283.15	0.4008	50000	835.21	0.55
283.15	0.5026	50000	813.85	0.6
283.15	0.6012	50000	794.6	0.63
283.15	0.7003	50000	776.55	0.67
283.15	0.7995	50000	759.63	0.7
283.15	0.9011	50000	743.44	0.74
283.15	0.9494	50000	736.1	0.75
293.15	0.0508	50000	913.76	0.4
293.15	0.0994	50000	900.34	0.43
293.15	0.2013	50000	873.81	0.48
293.15	0.3015	50000	849.63	0.53
293.15	0.4008	50000	827.43	0.57
293.15	0.5026	50000	806.3	0.61
293.15	0.6012	50000	787.26	0.65
293.15	0.7003	50000	769.39	0.68
293.15	0.7995	50000	752.7	0.72
293.15	0.9011	50000	736.68	0.75
293.15	0.9494	50000	729.41	0.77
298.15	0.0508	50000	909.49	0.41
298.15	0.0994	50000	896.12	0.43
298.15	0.2013	50000	869.69	0.49
298.15	0.3015	50000	845.59	0.53
298.15	0.4008	50000	823.5	0.58
298.15	0.5026	50000	802.4	0.62
298.15	0.6012	50000	783.45	0.66
298.15	0.7003	50000	765.7	0.69
298.15	0.7995	50000	749.08	0.73
298.15	0.9011	50000	733.13	0.76
298.15	0.9494	50000	725.89	0.77
303.15	0.0508	50000	905.34	0.42
303.15	0.0994	50000	892.06	0.44
303.15	0.2013	50000	865.75	0.49
303.15	0.3015	50000	841.81	0.54
303.15	0.4008	50000	819.81	0.58
303.15	0.5026	50000	798.87	0.63
303.15	0.6012	50000	780.02	0.66
303.15	0.7003	50000	762.36	0.7
303.15	0.7995	50000	745.84	0.73
303.15	0.9011	50000	729.99	0.76
303.15	0.9494	50000	722.81	0.78
313.15	0.0508	50000	896.61	0.43
313.15	0.0994	50000	883.49	0.46
313.15	0.2013	50000	857.51	0.51
313.15	0.3015	50000	833.86	0.56
313.15	0.4008	50000	812.1	0.6
313.15	0.5026	50000	791.37	0.64
313.15	0.6012	50000	772.75	0.68
313.15	0.7003	50000	755.31	0.71
313.15	0.7995	50000	738.98	0.75
313.15	0.9011	50000	723.31	0.78
313.15	0.9494	50000	716.21	0.79
323.15	0.0508	50000	888.16	0.45
323.15	0.0994	50000	875.18	0.48
323.15	0.2013	50000	849.47	0.53
323.15	0.3015	50000	826.06	0.57
323.15	0.4008	50000	804.52	0.61
323.15	0.5026	50000	784.01	0.66
323.15	0.6012	50000	765.61	0.69
323.15	0.7003	50000	748.29	0.73
323.15	0.7995	50000	732.14	0.76
323.15	0.9011	50000	716.65	0.79
323.15	0.9494	50000	709.64	0.81
283.15	0.0508	60000	928.92	0.4
283.15	0.0994	60000	915.32	0.43
283.15	0.2013	60000	888.42	0.49
283.15	0.3015	60000	863.89	0.55
283.15	0.4008	60000	841.39	0.6
283.15	0.5026	60000	819.91	0.65
283.15	0.6012	60000	800.58	0.7
283.15	0.7003	60000	782.47	0.74
283.15	0.7995	60000	765.51	0.78
283.15	0.9011	60000	749.23	0.82
283.15	0.9494	60000	741.85	0.84
293.15	0.0508	60000	920.42	0.42
293.15	0.0994	60000	906.99	0.45
293.15	0.2013	60000	880.39	0.51
293.15	0.3015	60000	856.15	0.57
293.15	0.4008	60000	833.88	0.62
293.15	0.5026	60000	812.63	0.67
293.15	0.6012	60000	793.52	0.72
293.15	0.7003	60000	775.64	0.76
293.15	0.7995	60000	758.87	0.8
293.15	0.9011	60000	742.77	0.84
293.15	0.9494	60000	735.46	0.86
298.15	0.0508	60000	916.33	0.43
298.15	0.0994	60000	902.96	0.46
298.15	0.2013	60000	876.46	0.52
298.15	0.3015	60000	852.33	0.58
298.15	0.4008	60000	830.1	0.63
298.15	0.5026	60000	809.01	0.68
298.15	0.6012	60000	790	0.72
298.15	0.7003	60000	772.14	0.77
298.15	0.7995	60000	755.42	0.81
298.15	0.9011	60000	739.4	0.85
298.15	0.9494	60000	732.12	0.86
303.15	0.0508	60000	912.31	0.44
303.15	0.0994	60000	899.01	0.47
303.15	0.2013	60000	872.64	0.53
303.15	0.3015	60000	848.6	0.59
303.15	0.4008	60000	826.55	0.64
303.15	0.5026	60000	805.54	0.69
303.15	0.6012	60000	786.57	0.73
303.15	0.7003	60000	768.84	0.78
303.15	0.7995	60000	752.23	0.82
303.15	0.9011	60000	736.26	0.85
303.15	0.9494	60000	729.04	0.87
313.15	0.0508	60000	903.88	0.46
313.15	0.0994	60000	890.72	0.49
313.15	0.2013	60000	864.67	0.55
313.15	0.3015	60000	840.92	0.6
313.15	0.4008	60000	819.09	0.66
313.15	0.5026	60000	798.31	0.71
313.15	0.6012	60000	779.58	0.75
313.15	0.7003	60000	762	0.79
313.15	0.7995	60000	745.59	0.83
313.15	0.9011	60000	729.82	0.87
313.15	0.9494	60000	722.67	0.89
323.15	0.0508	60000	895.85	0.48
323.15	0.0994	60000	882.82	0.51
323.15	0.2013	60000	856.99	0.57
323.15	0.3015	60000	833.5	0.62
323.15	0.4008	60000	811.83	0.67
323.15	0.5026	60000	791.24	0.72
323.15	0.6012	60000	772.72	0.77
323.15	0.7003	60000	755.34	0.81
323.15	0.7995	60000	739.04	0.85
323.15	0.9011	60000	723.43	0.88
323.15	0.9494	60000	716.36	0.9
283.15	0.0508	65000	931.98	0.4
283.15	0.0994	65000	918.36	0.44
283.15	0.2013	65000	891.39	0.51
283.15	0.3015	65000	866.87	0.57
283.15	0.4008	65000	844.29	0.63
283.15	0.5026	65000	822.81	0.68
283.15	0.6012	65000	803.45	0.73
283.15	0.7003	65000	785.25	0.78
283.15	0.7995	65000	768.28	0.82
283.15	0.9011	65000	751.95	0.86
283.15	0.9494	65000	744.53	0.88
293.15	0.0508	65000	923.76	0.43
293.15	0.0994	65000	910.28	0.46
293.15	0.2013	65000	883.59	0.53
293.15	0.3015	65000	859.28	0.59
293.15	0.4008	65000	836.95	0.64
293.15	0.5026	65000	815.67	0.7
293.15	0.6012	65000	796.5	0.75
293.15	0.7003	65000	778.5	0.8
293.15	0.7995	65000	761.67	0.84
293.15	0.9011	65000	745.52	0.88
293.15	0.9494	65000	738.19	0.9
298.15	0.0508	65000	919.61	0.44
298.15	0.0994	65000	906.21	0.47
298.15	0.2013	65000	879.69	0.54
298.15	0.3015	65000	855.51	0.6
298.15	0.4008	65000	833.25	0.65
298.15	0.5026	65000	812.1	0.71
298.15	0.6012	65000	793.04	0.76
298.15	0.7003	65000	775.16	0.8
298.15	0.7995	65000	758.43	0.85
298.15	0.9011	65000	742.37	0.89
298.15	0.9494	65000	735.07	0.91
303.15	0.0508	65000	915.61	0.45
303.15	0.0994	65000	902.28	0.48
303.15	0.2013	65000	875.88	0.55
303.15	0.3015	65000	851.83	0.61
303.15	0.4008	65000	829.71	0.66
303.15	0.5026	65000	808.61	0.72
303.15	0.6012	65000	789.63	0.77
303.15	0.7003	65000	771.84	0.81
303.15	0.7995	65000	755.19	0.86
303.15	0.9011	65000	739.21	0.9
303.15	0.9494	65000	731.94	0.92
313.15	0.0508	65000	907.45	0.47
313.15	0.0994	65000	894.26	0.5
313.15	0.2013	65000	868.13	0.57
313.15	0.3015	65000	844.29	0.63
313.15	0.4008	65000	822.37	0.68
313.15	0.5026	65000	801.56	0.74
313.15	0.6012	65000	782.77	0.78
313.15	0.7003	65000	765.13	0.83
313.15	0.7995	65000	748.66	0.87
313.15	0.9011	65000	732.82	0.91
313.15	0.9494	65000	725.63	0.93
323.15	0.0508	65000	899.38	0.49
323.15	0.0994	65000	886.34	0.52
323.15	0.2013	65000	860.51	0.58
323.15	0.3015	65000	836.96	0.64
323.15	0.4008	65000	815.25	0.7
323.15	0.5026	65000	794.63	0.75
323.15	0.6012	65000	776.07	0.8
323.15	0.7003	65000	758.61	0.85
323.15	0.7995	65000	742.31	0.89
323.15	0.9011	65000	726.65	0.93
323.15	0.9494	65000	719.56	0.95

System: 2-chlorobutane + heptane; phases: Liquid
Property: Mass density, kg/m3 (Liquid); method: Vibrating tube method
Temperature, K	Mole fraction of heptane	Pressure, kPa	Mass density, kg/m3	uncertainty
283.15	0.0524	100	870.08	0.24
283.15	0.1018	100	857.33	0.24
283.15	0.1968	100	834.23	0.24
283.15	0.3006	100	810.89	0.24
283.15	0.4029	100	789.62	0.24
283.15	0.5017	100	770.58	0.24
283.15	0.6008	100	752.78	0.24
283.15	0.7023	100	735.82	0.24
283.15	0.7977	100	720.94	0.25
283.15	0.8986	100	706.28	0.25
283.15	0.952	100	698.95	0.25
293.15	0.0524	100	859.09	0.24
293.15	0.1018	100	846.5	0.24
293.15	0.1968	100	823.7	0.24
293.15	0.3006	100	800.7	0.24
293.15	0.4029	100	779.7	0.24
293.15	0.5017	100	760.98	0.24
293.15	0.6008	100	743.44	0.24
293.15	0.7023	100	726.75	0.25
293.15	0.7977	100	712.09	0.25
293.15	0.8986	100	697.66	0.25
293.15	0.952	100	690.45	0.25
298.15	0.0524	100	853.5	0.24
298.15	0.1018	100	841	0.24
298.15	0.1968	100	818.39	0.24
298.15	0.3006	100	795.55	0.24
298.15	0.4029	100	774.75	0.24
298.15	0.5017	100	756.09	0.24
298.15	0.6008	100	738.72	0.25
298.15	0.7023	100	722.14	0.25
298.15	0.7977	100	707.68	0.25
298.15	0.8986	100	693.37	0.25
298.15	0.952	100	686.19	0.25
303.15	0.0524	100	847.91	0.24
303.15	0.1018	100	835.49	0.24
303.15	0.1968	100	813.06	0.24
303.15	0.3006	100	790.36	0.24
303.15	0.4029	100	769.73	0.24
303.15	0.5017	100	751.19	0.24
303.15	0.6008	100	733.91	0.25
303.15	0.7023	100	717.52	0.25
303.15	0.7977	100	703.14	0.25
303.15	0.8986	100	688.99	0.25
303.15	0.952	100	681.86	0.25
313.15	0.0524	100	836.56	0.24
313.15	0.1018	100	824.33	0.24
313.15	0.1968	100	802.22	0.24
313.15	0.3006	100	779.88	0.24
313.15	0.4029	100	759.54	0.24
313.15	0.5017	100	741.34	0.25
313.15	0.6008	100	724.36	0.25
313.15	0.7023	100	708.18	0.25
313.15	0.7977	100	694.03	0.25
313.15	0.8986	100	680.16	0.25
313.15	0.952	100	673.13	0.25
323.15	0.0524	100	825.09	0.24
323.15	0.1018	100	813.02	0.24
323.15	0.1968	100	791.28	0.24
323.15	0.3006	100	769.26	0.24
323.15	0.4029	100	749.24	0.24
323.15	0.5017	100	731.3	0.25
323.15	0.6008	100	714.64	0.25
323.15	0.7023	100	698.73	0.25
323.15	0.7977	100	684.8	0.25
323.15	0.8986	100	671.19	0.25
323.15	0.952	100	664.27	0.25
283.15	0.0524	2000	872.12	0.25
283.15	0.1018	2000	859.33	0.25
283.15	0.1968	2000	836.28	0.25
283.15	0.3006	2000	812.93	0.25
283.15	0.4029	2000	791.64	0.26
283.15	0.5017	2000	772.59	0.26
283.15	0.6008	2000	754.76	0.26
283.15	0.7023	2000	737.76	0.26
283.15	0.7977	2000	722.86	0.27
283.15	0.8986	2000	708.14	0.27
283.15	0.952	2000	700.89	0.27
293.15	0.0524	2000	861.28	0.25
293.15	0.1018	2000	848.65	0.25
293.15	0.1968	2000	825.79	0.25
293.15	0.3006	2000	802.72	0.25
293.15	0.4029	2000	781.78	0.26
293.15	0.5017	2000	763.02	0.26
293.15	0.6008	2000	745.47	0.26
293.15	0.7023	2000	728.77	0.26
293.15	0.7977	2000	714.07	0.27
293.15	0.8986	2000	699.64	0.27
293.15	0.952	2000	692.42	0.27
298.15	0.0524	2000	855.76	0.25
298.15	0.1018	2000	843.26	0.25
298.15	0.1968	2000	820.66	0.25
298.15	0.3006	2000	797.76	0.26
298.15	0.4029	2000	776.96	0.26
298.15	0.5017	2000	758.28	0.26
298.15	0.6008	2000	740.85	0.26
298.15	0.7023	2000	724.29	0.27
298.15	0.7977	2000	709.77	0.27
298.15	0.8986	2000	695.44	0.27
298.15	0.952	2000	688.29	0.27
303.15	0.0524	2000	850.2	0.25
303.15	0.1018	2000	837.83	0.25
303.15	0.1968	2000	815.38	0.25
303.15	0.3006	2000	792.62	0.26
303.15	0.4029	2000	771.9	0.26
303.15	0.5017	2000	753.34	0.26
303.15	0.6008	2000	736.05	0.26
303.15	0.7023	2000	719.64	0.27
303.15	0.7977	2000	705.19	0.27
303.15	0.8986	2000	691.08	0.27
303.15	0.952	2000	683.95	0.27
313.15	0.0524	2000	839.05	0.25
313.15	0.1018	2000	826.85	0.25
313.15	0.1968	2000	804.68	0.25
313.15	0.3006	2000	782.33	0.26
313.15	0.4029	2000	761.96	0.26
313.15	0.5017	2000	743.67	0.26
313.15	0.6008	2000	726.67	0.27
313.15	0.7023	2000	710.46	0.27
313.15	0.7977	2000	696.31	0.27
313.15	0.8986	2000	682.39	0.27
313.15	0.952	2000	675.34	0.27
323.15	0.0524	2000	827.83	0.25
323.15	0.1018	2000	815.67	0.25
323.15	0.1968	2000	793.94	0.26
323.15	0.3006	2000	771.89	0.26
323.15	0.4029	2000	751.76	0.26
323.15	0.5017	2000	733.83	0.26
323.15	0.6008	2000	717.08	0.27
323.15	0.7023	2000	701.07	0.27
323.15	0.7977	2000	687.1	0.27
323.15	0.8986	2000	673.45	0.27
323.15	0.952	2000	666.5	0.28
283.15	0.0524	5000	875.14	0.26
283.15	0.1018	5000	862.34	0.26
283.15	0.1968	5000	839.19	0.27
283.15	0.3006	5000	815.75	0.27
283.15	0.4029	5000	794.46	0.28
283.15	0.5017	5000	775.35	0.28
283.15	0.6008	5000	757.49	0.29
283.15	0.7023	5000	740.41	0.29
283.15	0.7977	5000	725.51	0.3
283.15	0.8986	5000	710.74	0.3
283.15	0.952	5000	703.44	0.3
293.15	0.0524	5000	864.55	0.26
293.15	0.1018	5000	851.88	0.27
293.15	0.1968	5000	828.97	0.27
293.15	0.3006	5000	805.92	0.28
293.15	0.4029	5000	784.93	0.28
293.15	0.5017	5000	766.08	0.29
293.15	0.6008	5000	748.48	0.29
293.15	0.7023	5000	731.73	0.3
293.15	0.7977	5000	716.99	0.3
293.15	0.8986	5000	702.52	0.3
293.15	0.952	5000	695.28	0.31
298.15	0.0524	5000	859.07	0.26
298.15	0.1018	5000	846.59	0.27
298.15	0.1968	5000	823.96	0.27
298.15	0.3006	5000	800.99	0.28
298.15	0.4029	5000	780.1	0.28
298.15	0.5017	5000	761.4	0.29
298.15	0.6008	5000	743.93	0.29
298.15	0.7023	5000	727.26	0.3
298.15	0.7977	5000	712.67	0.3
298.15	0.8986	5000	698.28	0.3
298.15	0.952	5000	691.09	0.31
303.15	0.0524	5000	853.75	0.27
303.15	0.1018	5000	841.34	0.27
303.15	0.1968	5000	818.82	0.27
303.15	0.3006	5000	795.97	0.28
303.15	0.4029	5000	775.25	0.28
303.15	0.5017	5000	756.66	0.29
303.15	0.6008	5000	739.33	0.29
303.15	0.7023	5000	722.77	0.3
303.15	0.7977	5000	708.3	0.3
303.15	0.8986	5000	694.14	0.31
303.15	0.952	5000	686.97	0.31
313.15	0.0524	5000	842.87	0.27
313.15	0.1018	5000	830.59	0.27
313.15	0.1968	5000	808.31	0.28
313.15	0.3006	5000	785.99	0.28
313.15	0.4029	5000	765.53	0.29
313.15	0.5017	5000	747.19	0.29
313.15	0.6008	5000	730.09	0.3
313.15	0.7023	5000	713.8	0.3
313.15	0.7977	5000	699.58	0.3
313.15	0.8986	5000	685.57	0.31
313.15	0.952	5000	678.46	0.31
323.15	0.0524	5000	831.91	0.27
323.15	0.1018	5000	819.82	0.27
323.15	0.1968	5000	797.9	0.28
323.15	0.3006	5000	775.73	0.28
323.15	0.4029	5000	755.62	0.29
323.15	0.5017	5000	737.6	0.29
323.15	0.6008	5000	720.78	0.3
323.15	0.7023	5000	704.73	0.3
323.15	0.7977	5000	690.71	0.31
323.15	0.8986	5000	677.02	0.31
323.15	0.952	5000	670.04	0.31
283.15	0.0524	7000	877.15	0.27
283.15	0.1018	7000	864.31	0.27
283.15	0.1968	7000	841.13	0.28
283.15	0.3006	7000	817.66	0.29
283.15	0.4029	7000	796.31	0.29
283.15	0.5017	7000	777.21	0.3
283.15	0.6008	7000	759.32	0.31
283.15	0.7023	7000	742.22	0.31
283.15	0.7977	7000	727.32	0.32
283.15	0.8986	7000	712.5	0.32
283.15	0.952	7000	705.2	0.33
293.15	0.0524	7000	866.63	0.27
293.15	0.1018	7000	853.99	0.28
293.15	0.1968	7000	831.06	0.28
293.15	0.3006	7000	807.98	0.29
293.15	0.4029	7000	786.88	0.3
293.15	0.5017	7000	768.04	0.3
293.15	0.6008	7000	750.4	0.31
293.15	0.7023	7000	733.58	0.32
293.15	0.7977	7000	718.82	0.32
293.15	0.8986	7000	704.3	0.33
293.15	0.952	7000	697.05	0.33
298.15	0.0524	7000	861.28	0.27
298.15	0.1018	7000	848.7	0.28
298.15	0.1968	7000	826.06	0.29
298.15	0.3006	7000	803.03	0.29
298.15	0.4029	7000	782.16	0.3
298.15	0.5017	7000	763.43	0.3
298.15	0.6008	7000	745.91	0.31
298.15	0.7023	7000	729.24	0.32
298.15	0.7977	7000	714.61	0.32
298.15	0.8986	7000	700.19	0.33
298.15	0.952	7000	692.99	0.33
303.15	0.0524	7000	856.02	0.28
303.15	0.1018	7000	843.56	0.28
303.15	0.1968	7000	820.99	0.29
303.15	0.3006	7000	798.15	0.29
303.15	0.4029	7000	777.41	0.3
303.15	0.5017	7000	758.81	0.31
303.15	0.6008	7000	741.44	0.31
303.15	0.7023	7000	724.78	0.32
303.15	0.7977	7000	710.27	0.32
303.15	0.8986	7000	696.07	0.33
303.15	0.952	7000	688.88	0.33
313.15	0.0524	7000	845.3	0.28
313.15	0.1018	7000	832.97	0.28
313.15	0.1968	7000	810.78	0.29
313.15	0.3006	7000	788.3	0.3
313.15	0.4029	7000	767.84	0.3
313.15	0.5017	7000	749.48	0.31
313.15	0.6008	7000	732.35	0.32
313.15	0.7023	7000	716.03	0.32
313.15	0.7977	7000	701.8	0.33
313.15	0.8986	7000	687.74	0.33
313.15	0.952	7000	680.62	0.33
323.15	0.0524	7000	834.54	0.28
323.15	0.1018	7000	822.46	0.29
323.15	0.1968	7000	800.49	0.29
323.15	0.3006	7000	778.37	0.3
323.15	0.4029	7000	758.11	0.31
323.15	0.5017	7000	740.05	0.31
323.15	0.6008	7000	723.19	0.32
323.15	0.7023	7000	707.1	0.32
323.15	0.7977	7000	693.06	0.33
323.15	0.8986	7000	679.34	0.34
323.15	0.952	7000	672.34	0.34
283.15	0.0524	10000	880.01	0.28
283.15	0.1018	10000	867.16	0.29
283.15	0.1968	10000	844.01	0.3
283.15	0.3006	10000	820.49	0.31
283.15	0.4029	10000	799.08	0.32
283.15	0.5017	10000	779.9	0.32
283.15	0.6008	10000	761.96	0.33
283.15	0.7023	10000	744.79	0.34
283.15	0.7977	10000	729.85	0.35
283.15	0.8986	10000	714.98	0.35
283.15	0.952	10000	707.64	0.36
293.15	0.0524	10000	869.74	0.29
293.15	0.1018	10000	857.1	0.29
293.15	0.1968	10000	834.15	0.3
293.15	0.3006	10000	810.94	0.31
293.15	0.4029	10000	789.81	0.32
293.15	0.5017	10000	770.91	0.33
293.15	0.6008	10000	753.22	0.34
293.15	0.7023	10000	736.37	0.34
293.15	0.7977	10000	721.59	0.35
293.15	0.8986	10000	707.02	0.36
293.15	0.952	10000	699.74	0.36
298.15	0.0524	10000	864.5	0.29
298.15	0.1018	10000	851.96	0.29
298.15	0.1968	10000	829.21	0.3
298.15	0.3006	10000	806.14	0.31
298.15	0.4029	10000	785.11	0.32
298.15	0.5017	10000	766.31	0.33
298.15	0.6008	10000	748.74	0.34
298.15	0.7023	10000	731.99	0.35
298.15	0.7977	10000	717.31	0.35
298.15	0.8986	10000	702.79	0.36
298.15	0.952	10000	695.56	0.36
303.15	0.0524	10000	859.35	0.29
303.15	0.1018	10000	846.8	0.3
303.15	0.1968	10000	824.17	0.31
303.15	0.3006	10000	801.36	0.32
303.15	0.4029	10000	780.55	0.32
303.15	0.5017	10000	761.91	0.33
303.15	0.6008	10000	744.48	0.34
303.15	0.7023	10000	727.81	0.35
303.15	0.7977	10000	713.22	0.36
303.15	0.8986	10000	699	0.36
303.15	0.952	10000	691.77	0.37
313.15	0.0524	10000	848.77	0.3
313.15	0.1018	10000	836.51	0.3
313.15	0.1968	10000	814.23	0.31
313.15	0.3006	10000	791.7	0.32
313.15	0.4029	10000	771.16	0.33
313.15	0.5017	10000	752.73	0.34
313.15	0.6008	10000	735.56	0.34
313.15	0.7023	10000	719.19	0.35
313.15	0.7977	10000	704.84	0.36
313.15	0.8986	10000	690.69	0.37
313.15	0.952	10000	683.56	0.37
323.15	0.0524	10000	838.27	0.3
323.15	0.1018	10000	826.08	0.31
323.15	0.1968	10000	804.11	0.31
323.15	0.3006	10000	781.87	0.32
323.15	0.4029	10000	761.62	0.33
323.15	0.5017	10000	743.56	0.34
323.15	0.6008	10000	726.61	0.35
323.15	0.7023	10000	710.43	0.36
323.15	0.7977	10000	696.28	0.36
323.15	0.8986	10000	682.48	0.37
323.15	0.952	10000	675.45	0.37
283.15	0.0524	20000	889.1	0.32
283.15	0.1018	20000	876.16	0.33
283.15	0.1968	20000	852.83	0.35
283.15	0.3006	20000	829.21	0.37
283.15	0.4029	20000	807.66	0.39
283.15	0.5017	20000	788.35	0.4
283.15	0.6008	20000	770.29	0.42
283.15	0.7023	20000	753.01	0.43
283.15	0.7977	20000	737.95	0.44
283.15	0.8986	20000	722.98	0.46
283.15	0.952	20000	715.57	0.46
293.15	0.0524	20000	879.38	0.33
293.15	0.1018	20000	866.54	0.34
293.15	0.1968	20000	843.5	0.36
293.15	0.3006	20000	820.12	0.38
293.15	0.4029	20000	798.87	0.39
293.15	0.5017	20000	779.78	0.41
293.15	0.6008	20000	761.93	0.42
293.15	0.7023	20000	744.92	0.44
293.15	0.7977	20000	730	0.45
293.15	0.8986	20000	715.31	0.46
293.15	0.952	20000	707.96	0.47
298.15	0.0524	20000	874.44	0.33
298.15	0.1018	20000	861.8	0.34
298.15	0.1968	20000	838.93	0.36
298.15	0.3006	20000	815.63	0.38
298.15	0.4029	20000	794.49	0.4
298.15	0.5017	20000	775.52	0.41
298.15	0.6008	20000	757.79	0.43
298.15	0.7023	20000	740.82	0.44
298.15	0.7977	20000	726.04	0.45
298.15	0.8986	20000	711.31	0.47
298.15	0.952	20000	704.04	0.47
303.15	0.0524	20000	869.52	0.34
303.15	0.1018	20000	857	0.35
303.15	0.1968	20000	834.1	0.36
303.15	0.3006	20000	811.1	0.38
303.15	0.4029	20000	790.07	0.4
303.15	0.5017	20000	771.19	0.42
303.15	0.6008	20000	753.6	0.43
303.15	0.7023	20000	736.87	0.45
303.15	0.7977	20000	722.07	0.46
303.15	0.8986	20000	707.69	0.47
303.15	0.952	20000	700.38	0.48
313.15	0.0524	20000	859.69	0.34
313.15	0.1018	20000	847.28	0.35
313.15	0.1968	20000	824.81	0.37
313.15	0.3006	20000	802.08	0.39
313.15	0.4029	20000	781.34	0.41
313.15	0.5017	20000	762.72	0.42
313.15	0.6008	20000	745.36	0.44
313.15	0.7023	20000	728.79	0.45
313.15	0.7977	20000	714.29	0.47
313.15	0.8986	20000	699.96	0.48
313.15	0.952	20000	692.74	0.48
323.15	0.0524	20000	849.8	0.35
323.15	0.1018	20000	837.53	0.36
323.15	0.1968	20000	815.4	0.38
323.15	0.3006	20000	792.88	0.4
323.15	0.4029	20000	772.5	0.42
323.15	0.5017	20000	754.11	0.43
323.15	0.6008	20000	737	0.45
323.15	0.7023	20000	720.73	0.46
323.15	0.7977	20000	706.35	0.47
323.15	0.8986	20000	692.38	0.48
323.15	0.952	20000	685.27	0.49
283.15	0.0524	30000	897.39	0.35
283.15	0.1018	30000	884.45	0.37
283.15	0.1968	30000	860.93	0.4
283.15	0.3006	30000	837.18	0.42
283.15	0.4029	30000	815.5	0.45
283.15	0.5017	30000	796.06	0.47
283.15	0.6008	30000	777.85	0.5
283.15	0.7023	30000	760.42	0.52
283.15	0.7977	30000	745.22	0.54
283.15	0.8986	30000	730.14	0.56
283.15	0.952	30000	722.65	0.56
293.15	0.0524	30000	888.05	0.36
293.15	0.1018	30000	875.23	0.38
293.15	0.1968	30000	852.05	0.41
293.15	0.3006	30000	828.48	0.43
293.15	0.4029	30000	807.16	0.46
293.15	0.5017	30000	787.91	0.48
293.15	0.6008	30000	769.94	0.51
293.15	0.7023	30000	752.73	0.53
293.15	0.7977	30000	737.68	0.55
293.15	0.8986	30000	722.85	0.56
293.15	0.952	30000	715.45	0.57
298.15	0.0524	30000	883.44	0.37
298.15	0.1018	30000	870.7	0.38
298.15	0.1968	30000	847.61	0.41
298.15	0.3006	30000	824.28	0.44
298.15	0.4029	30000	802.95	0.47
298.15	0.5017	30000	783.76	0.49
298.15	0.6008	30000	765.87	0.51
298.15	0.7023	30000	748.83	0.53
298.15	0.7977	30000	733.86	0.55
298.15	0.8986	30000	719	0.57
298.15	0.952	30000	711.62	0.58
303.15	0.0524	30000	878.79	0.38
303.15	0.1018	30000	866.11	0.39
303.15	0.1968	30000	843.05	0.42
303.15	0.3006	30000	819.96	0.45
303.15	0.4029	30000	798.75	0.47
303.15	0.5017	30000	779.74	0.49
303.15	0.6008	30000	761.98	0.52
303.15	0.7023	30000	745.03	0.54
303.15	0.7977	30000	730.14	0.56
303.15	0.8986	30000	715.59	0.57
303.15	0.952	30000	708.22	0.58
313.15	0.0524	30000	869.48	0.39
313.15	0.1018	30000	856.99	0.4
313.15	0.1968	30000	834.35	0.43
313.15	0.3006	30000	811.43	0.46
313.15	0.4029	30000	790.51	0.48
313.15	0.5017	30000	771.71	0.5
313.15	0.6008	30000	754.16	0.53
313.15	0.7023	30000	737.41	0.55
313.15	0.7977	30000	722.74	0.56
313.15	0.8986	30000	708.23	0.58
313.15	0.952	30000	700.93	0.59
323.15	0.0524	30000	860.04	0.4
323.15	0.1018	30000	847.72	0.41
323.15	0.1968	30000	825.47	0.44
323.15	0.3006	30000	802.73	0.47
323.15	0.4029	30000	782.02	0.49
323.15	0.5017	30000	763.53	0.51
323.15	0.6008	30000	746.23	0.54
323.15	0.7023	30000	729.67	0.56
323.15	0.7977	30000	715.26	0.57
323.15	0.8986	30000	700.97	0.59
323.15	0.952	30000	693.82	0.6
283.15	0.0524	40000	905.09	0.38
283.15	0.1018	40000	892.06	0.4
283.15	0.1968	40000	868.43	0.44
283.15	0.3006	40000	844.52	0.48
283.15	0.4029	40000	822.78	0.51
283.15	0.5017	40000	803.2	0.54
283.15	0.6008	40000	784.86	0.57
283.15	0.7023	40000	767.33	0.6
283.15	0.7977	40000	751.95	0.62
283.15	0.8986	40000	736.77	0.65
283.15	0.952	40000	729.23	0.66
293.15	0.0524	40000	896.17	0.39
293.15	0.1018	40000	883.24	0.41
293.15	0.1968	40000	859.99	0.45
293.15	0.3006	40000	836.22	0.49
293.15	0.4029	40000	814.71	0.52
293.15	0.5017	40000	795.32	0.55
293.15	0.6008	40000	777.21	0.58
293.15	0.7023	40000	759.89	0.61
293.15	0.7977	40000	744.68	0.64
293.15	0.8986	40000	729.72	0.66
293.15	0.952	40000	722.25	0.67
298.15	0.0524	40000	891.7	0.4
298.15	0.1018	40000	878.82	0.42
298.15	0.1968	40000	855.64	0.46
298.15	0.3006	40000	832.09	0.5
298.15	0.4029	40000	810.61	0.53
298.15	0.5017	40000	791.32	0.56
298.15	0.6008	40000	773.3	0.59
298.15	0.7023	40000	756.08	0.62
298.15	0.7977	40000	741.01	0.64
298.15	0.8986	40000	726.09	0.67
298.15	0.952	40000	718.59	0.68
303.15	0.0524	40000	887.22	0.41
303.15	0.1018	40000	874.41	0.43
303.15	0.1968	40000	851.38	0.46
303.15	0.3006	40000	827.93	0.5
303.15	0.4029	40000	806.62	0.54
303.15	0.5017	40000	787.49	0.57
303.15	0.6008	40000	769.55	0.6
303.15	0.7023	40000	752.43	0.62
303.15	0.7977	40000	737.42	0.65
303.15	0.8986	40000	722.69	0.67
303.15	0.952	40000	715.28	0.68
313.15	0.0524	40000	878.27	0.42
313.15	0.1018	40000	865.7	0.44
313.15	0.1968	40000	842.91	0.48
313.15	0.3006	40000	819.81	0.51
313.15	0.4029	40000	798.72	0.55
313.15	0.5017	40000	779.77	0.58
313.15	0.6008	40000	762.09	0.61
313.15	0.7023	40000	745.16	0.64
313.15	0.7977	40000	730.38	0.66
313.15	0.8986	40000	715.74	0.68
313.15	0.952	40000	708.38	0.7
323.15	0.0524	40000	869.34	0.44
323.15	0.1018	40000	856.96	0.46
323.15	0.1968	40000	834.4	0.49
323.15	0.3006	40000	811.6	0.53
323.15	0.4029	40000	790.72	0.56
323.15	0.5017	40000	772.1	0.59
323.15	0.6008	40000	754.63	0.62
323.15	0.7023	40000	737.89	0.65
323.15	0.7977	40000	723.24	0.67
323.15	0.8986	40000	708.82	0.69
323.15	0.952	40000	701.63	0.71
283.15	0.0524	50000	912.23	0.4
283.15	0.1018	50000	899.1	0.43
283.15	0.1968	50000	875.41	0.47
283.15	0.3006	50000	851.37	0.52
283.15	0.4029	50000	829.44	0.57
283.15	0.5017	50000	809.74	0.6
283.15	0.6008	50000	791.3	0.64
283.15	0.7023	50000	773.63	0.68
283.15	0.7977	50000	758.16	0.71
283.15	0.8986	50000	742.88	0.74
283.15	0.952	50000	735.27	0.75
293.15	0.0524	50000	903.66	0.42
293.15	0.1018	50000	890.68	0.45
293.15	0.1968	50000	867.25	0.49
293.15	0.3006	50000	843.41	0.54
293.15	0.4029	50000	821.7	0.58
293.15	0.5017	50000	802.25	0.62
293.15	0.6008	50000	784.01	0.66
293.15	0.7023	50000	766.55	0.69
293.15	0.7977	50000	751.26	0.72
293.15	0.8986	50000	736.16	0.75
293.15	0.952	50000	728.63	0.77
298.15	0.0524	50000	899.36	0.43
298.15	0.1018	50000	886.42	0.45
298.15	0.1968	50000	863	0.5
298.15	0.3006	50000	839.43	0.55
298.15	0.4029	50000	817.84	0.59
298.15	0.5017	50000	798.42	0.63
298.15	0.6008	50000	780.24	0.66
298.15	0.7023	50000	762.91	0.7
298.15	0.7977	50000	747.7	0.73
298.15	0.8986	50000	732.64	0.76
298.15	0.952	50000	725.09	0.77
303.15	0.0524	50000	894.96	0.44
303.15	0.1018	50000	882.16	0.46
303.15	0.1968	50000	858.96	0.51
303.15	0.3006	50000	835.46	0.55
303.15	0.4029	50000	813.98	0.6
303.15	0.5017	50000	794.72	0.63
303.15	0.6008	50000	776.69	0.67
303.15	0.7023	50000	759.44	0.7
303.15	0.7977	50000	744.29	0.74
303.15	0.8986	50000	729.42	0.77
303.15	0.952	50000	721.96	0.78
313.15	0.0524	50000	886.46	0.45
313.15	0.1018	50000	873.81	0.48
313.15	0.1968	50000	850.85	0.52
313.15	0.3006	50000	827.58	0.57
313.15	0.4029	50000	806.37	0.61
313.15	0.5017	50000	787.33	0.65
313.15	0.6008	50000	769.48	0.68
313.15	0.7023	50000	752.43	0.72
313.15	0.7977	50000	737.47	0.75
313.15	0.8986	50000	722.77	0.78
313.15	0.952	50000	715.34	0.79
323.15	0.0524	50000	877.82	0.47
323.15	0.1018	50000	865.47	0.49
323.15	0.1968	50000	842.71	0.54
323.15	0.3006	50000	819.72	0.58
323.15	0.4029	50000	798.76	0.63
323.15	0.5017	50000	779.9	0.66
323.15	0.6008	50000	762.28	0.7
323.15	0.7023	50000	745.43	0.73
323.15	0.7977	50000	730.63	0.76
323.15	0.8986	50000	716.08	0.79
323.15	0.952	50000	708.79	0.81
283.15	0.0524	60000	918.92	0.42
283.15	0.1018	60000	905.75	0.45
283.15	0.1968	60000	881.9	0.51
283.15	0.3006	60000	857.83	0.56
283.15	0.4029	60000	835.76	0.62
283.15	0.5017	60000	816	0.66
283.15	0.6008	60000	797.44	0.71
283.15	0.7023	60000	779.67	0.75
283.15	0.7977	60000	764.09	0.79
283.15	0.8986	60000	748.68	0.82
283.15	0.952	60000	741.04	0.84
293.15	0.0524	60000	910.6	0.44
293.15	0.1018	60000	897.63	0.47
293.15	0.1968	60000	874.05	0.53
293.15	0.3006	60000	850.18	0.58
293.15	0.4029	60000	828.39	0.63
293.15	0.5017	60000	808.8	0.68
293.15	0.6008	60000	790.44	0.72
293.15	0.7023	60000	772.89	0.77
293.15	0.7977	60000	757.51	0.8
293.15	0.8986	60000	742.26	0.84
293.15	0.952	60000	734.67	0.86
298.15	0.0524	60000	906.5	0.45
298.15	0.1018	60000	893.49	0.48
298.15	0.1968	60000	870.05	0.54
298.15	0.3006	60000	846.26	0.59
298.15	0.4029	60000	824.58	0.64
298.15	0.5017	60000	805.08	0.69
298.15	0.6008	60000	786.84	0.73
298.15	0.7023	60000	769.41	0.77
298.15	0.7977	60000	754.11	0.81
298.15	0.8986	60000	738.96	0.85
298.15	0.952	60000	731.32	0.87
303.15	0.0524	60000	902.31	0.46
303.15	0.1018	60000	889.34	0.49
303.15	0.1968	60000	866.09	0.54
303.15	0.3006	60000	842.43	0.6
303.15	0.4029	60000	820.82	0.65
303.15	0.5017	60000	801.47	0.7
303.15	0.6008	60000	783.34	0.74
303.15	0.7023	60000	766	0.78
303.15	0.7977	60000	750.71	0.82
303.15	0.8986	60000	735.66	0.86
303.15	0.952	60000	728.17	0.87
313.15	0.0524	60000	894.03	0.48
313.15	0.1018	60000	881.29	0.51
313.15	0.1968	60000	858.17	0.56
313.15	0.3006	60000	834.83	0.62
313.15	0.4029	60000	813.47	0.67
313.15	0.5017	60000	794.34	0.71
313.15	0.6008	60000	776.43	0.76
313.15	0.7023	60000	759.35	0.8
313.15	0.7977	60000	744.21	0.83
313.15	0.8986	60000	729.29	0.87
313.15	0.952	60000	721.82	0.89
323.15	0.0524	60000	885.83	0.5
323.15	0.1018	60000	873.29	0.53
323.15	0.1968	60000	850.37	0.58
323.15	0.3006	60000	827.3	0.64
323.15	0.4029	60000	806.2	0.69
323.15	0.5017	60000	787.21	0.73
323.15	0.6008	60000	769.46	0.77
323.15	0.7023	60000	752.51	0.81
323.15	0.7977	60000	737.59	0.85
323.15	0.8986	60000	722.89	0.89
323.15	0.952	60000	715.52	0.9
283.15	0.0524	65000	922.13	0.43
283.15	0.1018	65000	908.95	0.46
283.15	0.1968	65000	885.12	0.52
283.15	0.3006	65000	860.95	0.58
283.15	0.4029	65000	838.88	0.64
283.15	0.5017	65000	819	0.69
283.15	0.6008	65000	800.38	0.74
283.15	0.7023	65000	782.58	0.78
283.15	0.7977	65000	766.97	0.82
283.15	0.8986	65000	751.48	0.87
283.15	0.952	65000	743.76	0.89
293.15	0.0524	65000	913.94	0.45
293.15	0.1018	65000	900.93	0.48
293.15	0.1968	65000	877.31	0.54
293.15	0.3006	65000	853.35	0.6
293.15	0.4029	65000	831.52	0.66
293.15	0.5017	65000	811.84	0.71
293.15	0.6008	65000	793.41	0.76
293.15	0.7023	65000	775.8	0.8
293.15	0.7977	65000	760.33	0.84
293.15	0.8986	65000	745.06	0.88
293.15	0.952	65000	737.4	0.9
298.15	0.0524	65000	909.89	0.46
298.15	0.1018	65000	896.87	0.49
298.15	0.1968	65000	873.4	0.55
298.15	0.3006	65000	849.57	0.61
298.15	0.4029	65000	827.86	0.67
298.15	0.5017	65000	808.29	0.72
298.15	0.6008	65000	789.99	0.77
298.15	0.7023	65000	772.52	0.81
298.15	0.7977	65000	757.18	0.85
298.15	0.8986	65000	741.94	0.89
298.15	0.952	65000	734.28	0.91
303.15	0.0524	65000	905.77	0.47
303.15	0.1018	65000	892.87	0.5
303.15	0.1968	65000	869.57	0.56
303.15	0.3006	65000	845.82	0.62
303.15	0.4029	65000	824.21	0.68
303.15	0.5017	65000	804.75	0.73
303.15	0.6008	65000	786.56	0.77
303.15	0.7023	65000	769.12	0.82
303.15	0.7977	65000	753.9	0.86
303.15	0.8986	65000	738.65	0.9
303.15	0.952	65000	731.1	0.92
313.15	0.0524	65000	897.67	0.49
313.15	0.1018	65000	884.92	0.52
313.15	0.1968	65000	861.74	0.58
313.15	0.3006	65000	838.38	0.64
313.15	0.4029	65000	816.9	0.7
313.15	0.5017	65000	797.7	0.75
313.15	0.6008	65000	779.7	0.79
313.15	0.7023	65000	762.47	0.84
313.15	0.7977	65000	747.31	0.88
313.15	0.8986	65000	732.32	0.92
313.15	0.952	65000	724.77	0.93
323.15	0.0524	65000	889.59	0.51
323.15	0.1018	65000	877.02	0.54
323.15	0.1968	65000	854.06	0.6
323.15	0.3006	65000	830.95	0.66
323.15	0.4029	65000	809.85	0.71
323.15	0.5017	65000	790.81	0.76
323.15	0.6008	65000	772.98	0.81
323.15	0.7023	65000	755.89	0.85
323.15	0.7977	65000	740.95	0.89
323.15	0.8986	65000	726.04	0.93
323.15	0.952	65000	718.69	0.95

System: heptane + 1-chloro-2-methylpropane; phases: Liquid
Property: Mass density, kg/m3 (Liquid); method: Vibrating tube method
Temperature, K	Mole fraction of heptane	Pressure, kPa	Mass density, kg/m3	uncertainty
283.15	0.0531	100	874.07	0.24
283.15	0.1023	100	861	0.24
283.15	0.2009	100	836.3	0.24
283.15	0.3009	100	813.26	0.24
283.15	0.3981	100	792.55	0.24
283.15	0.4986	100	772.68	0.24
283.15	0.5998	100	754.11	0.24
283.15	0.7038	100	736.38	0.25
283.15	0.7993	100	721.25	0.25
283.15	0.8995	100	706.4	0.25
283.15	0.9507	100	699.19	0.25
293.15	0.0531	100	862.97	0.24
293.15	0.1023	100	850.09	0.24
293.15	0.2009	100	825.74	0.24
293.15	0.3009	100	803.04	0.24
293.15	0.3981	100	782.63	0.24
293.15	0.4986	100	763.05	0.24
293.15	0.5998	100	744.76	0.24
293.15	0.7038	100	727.31	0.25
293.15	0.7993	100	712.4	0.25
293.15	0.8995	100	697.78	0.25
293.15	0.9507	100	690.68	0.25
298.15	0.0531	100	857.37	0.24
298.15	0.1023	100	844.58	0.24
298.15	0.2009	100	820.42	0.24
298.15	0.3009	100	797.89	0.24
298.15	0.3981	100	777.63	0.24
298.15	0.4986	100	758.2	0.24
298.15	0.5998	100	740.04	0.25
298.15	0.7038	100	722.73	0.25
298.15	0.7993	100	707.93	0.25
298.15	0.8995	100	693.43	0.25
298.15	0.9507	100	686.38	0.25
303.15	0.0531	100	851.74	0.24
303.15	0.1023	100	839.04	0.24
303.15	0.2009	100	815.06	0.24
303.15	0.3009	100	792.69	0.24
303.15	0.3981	100	772.58	0.24
303.15	0.4986	100	753.31	0.24
303.15	0.5998	100	735.29	0.25
303.15	0.7038	100	718.11	0.25
303.15	0.7993	100	703.45	0.25
303.15	0.8995	100	689.05	0.25
303.15	0.9507	100	682.07	0.25
313.15	0.0531	100	840.36	0.24
313.15	0.1023	100	827.85	0.24
313.15	0.2009	100	804.22	0.24
313.15	0.3009	100	782.2	0.24
313.15	0.3981	100	762.38	0.24
313.15	0.4986	100	743.42	0.25
313.15	0.5998	100	725.7	0.25
313.15	0.7038	100	708.77	0.25
313.15	0.7993	100	694.32	0.25
313.15	0.8995	100	680.21	0.25
313.15	0.9507	100	673.34	0.25
323.15	0.0531	100	828.79	0.24
323.15	0.1023	100	816.48	0.24
323.15	0.2009	100	793.26	0.24
323.15	0.3009	100	771.57	0.24
323.15	0.3981	100	752.04	0.24
323.15	0.4986	100	733.39	0.25
323.15	0.5998	100	715.95	0.25
323.15	0.7038	100	699.34	0.25
323.15	0.7993	100	685.15	0.25
323.15	0.8995	100	671.24	0.25
323.15	0.9507	100	664.49	0.25
283.15	0.0531	2000	876.04	0.25
283.15	0.1023	2000	862.99	0.25
283.15	0.2009	2000	838.37	0.25
283.15	0.3009	2000	815.32	0.25
283.15	0.3981	2000	794.55	0.26
283.15	0.4986	2000	774.64	0.26
283.15	0.5998	2000	756.04	0.26
283.15	0.7038	2000	738.29	0.26
283.15	0.7993	2000	723.14	0.27
283.15	0.8995	2000	708.31	0.27
283.15	0.9507	2000	701.15	0.27
293.15	0.0531	2000	865	0.25
293.15	0.1023	2000	852.14	0.25
293.15	0.2009	2000	827.88	0.25
293.15	0.3009	2000	805.15	0.25
293.15	0.3981	2000	784.68	0.26
293.15	0.4986	2000	765.08	0.26
293.15	0.5998	2000	746.74	0.26
293.15	0.7038	2000	729.29	0.26
293.15	0.7993	2000	714.35	0.27
293.15	0.8995	2000	699.74	0.27
293.15	0.9507	2000	692.69	0.27
298.15	0.0531	2000	859.45	0.25
298.15	0.1023	2000	846.69	0.25
298.15	0.2009	2000	822.61	0.25
298.15	0.3009	2000	800.07	0.26
298.15	0.3981	2000	779.77	0.26
298.15	0.4986	2000	760.3	0.26
298.15	0.5998	2000	742.16	0.26
298.15	0.7038	2000	724.79	0.27
298.15	0.7993	2000	709.96	0.27
298.15	0.8995	2000	695.5	0.27
298.15	0.9507	2000	688.51	0.27
303.15	0.0531	2000	853.98	0.25
303.15	0.1023	2000	841.31	0.25
303.15	0.2009	2000	817.39	0.25
303.15	0.3009	2000	794.98	0.26
303.15	0.3981	2000	774.81	0.26
303.15	0.4986	2000	755.48	0.26
303.15	0.5998	2000	737.44	0.26
303.15	0.7038	2000	720.22	0.27
303.15	0.7993	2000	705.49	0.27
303.15	0.8995	2000	691.14	0.27
303.15	0.9507	2000	684.19	0.27
313.15	0.0531	2000	842.7	0.25
313.15	0.1023	2000	830.21	0.25
313.15	0.2009	2000	806.67	0.25
313.15	0.3009	2000	784.62	0.26
313.15	0.3981	2000	764.76	0.26
313.15	0.4986	2000	745.75	0.26
313.15	0.5998	2000	727.98	0.27
313.15	0.7038	2000	711.05	0.27
313.15	0.7993	2000	696.57	0.27
313.15	0.8995	2000	682.44	0.27
313.15	0.9507	2000	675.59	0.27
323.15	0.0531	2000	831.42	0.25
323.15	0.1023	2000	819.08	0.25
323.15	0.2009	2000	795.85	0.26
323.15	0.3009	2000	774.11	0.26
323.15	0.3981	2000	754.54	0.26
323.15	0.4986	2000	735.78	0.26
323.15	0.5998	2000	718.28	0.27
323.15	0.7038	2000	701.64	0.27
323.15	0.7993	2000	687.35	0.27
323.15	0.8995	2000	673.46	0.27
323.15	0.9507	2000	666.75	0.28
283.15	0.0531	5000	879.03	0.26
283.15	0.1023	5000	865.96	0.26
283.15	0.2009	5000	841.29	0.27
283.15	0.3009	5000	818.18	0.27
283.15	0.3981	5000	797.37	0.28
283.15	0.4986	5000	777.41	0.28
283.15	0.5998	5000	758.77	0.29
283.15	0.7038	5000	741	0.29
283.15	0.7993	5000	725.78	0.3
283.15	0.8995	5000	710.91	0.3
283.15	0.9507	5000	703.73	0.3
293.15	0.0531	5000	868.28	0.26
293.15	0.1023	5000	855.4	0.27
293.15	0.2009	5000	831.08	0.27
293.15	0.3009	5000	808.31	0.28
293.15	0.3981	5000	787.79	0.28
293.15	0.4986	5000	768.11	0.29
293.15	0.5998	5000	749.74	0.29
293.15	0.7038	5000	732.21	0.3
293.15	0.7993	5000	717.25	0.3
293.15	0.8995	5000	702.62	0.3
293.15	0.9507	5000	695.55	0.31
298.15	0.0531	5000	862.78	0.26
298.15	0.1023	5000	849.99	0.27
298.15	0.2009	5000	825.85	0.27
298.15	0.3009	5000	803.24	0.28
298.15	0.3981	5000	782.87	0.28
298.15	0.4986	5000	763.35	0.29
298.15	0.5998	5000	745.14	0.29
298.15	0.7038	5000	727.73	0.3
298.15	0.7993	5000	712.83	0.3
298.15	0.8995	5000	698.32	0.3
298.15	0.9507	5000	691.31	0.31
303.15	0.0531	5000	857.38	0.27
303.15	0.1023	5000	844.68	0.27
303.15	0.2009	5000	820.73	0.27
303.15	0.3009	5000	798.27	0.28
303.15	0.3981	5000	778.06	0.28
303.15	0.4986	5000	758.67	0.29
303.15	0.5998	5000	740.59	0.29
303.15	0.7038	5000	723.33	0.3
303.15	0.7993	5000	708.59	0.3
303.15	0.8995	5000	694.18	0.31
303.15	0.9507	5000	687.22	0.31
313.15	0.0531	5000	846.39	0.27
313.15	0.1023	5000	833.87	0.27
313.15	0.2009	5000	810.25	0.28
313.15	0.3009	5000	788.13	0.28
313.15	0.3981	5000	768.2	0.29
313.15	0.4986	5000	749.13	0.29
313.15	0.5998	5000	731.29	0.3
313.15	0.7038	5000	714.28	0.3
313.15	0.7993	5000	699.76	0.3
313.15	0.8995	5000	685.54	0.31
313.15	0.9507	5000	678.7	0.31
323.15	0.0531	5000	835.4	0.27
323.15	0.1023	5000	823.02	0.27
323.15	0.2009	5000	799.77	0.28
323.15	0.3009	5000	777.97	0.28
323.15	0.3981	5000	758.35	0.29
323.15	0.4986	5000	739.53	0.29
323.15	0.5998	5000	721.98	0.3
323.15	0.7038	5000	705.28	0.3
323.15	0.7993	5000	690.97	0.31
323.15	0.8995	5000	677.02	0.31
323.15	0.9507	5000	670.29	0.31
283.15	0.0531	7000	880.97	0.27
283.15	0.1023	7000	867.88	0.27
283.15	0.2009	7000	843.19	0.28
283.15	0.3009	7000	820.06	0.29
283.15	0.3981	7000	799.24	0.29
283.15	0.4986	7000	779.24	0.3
283.15	0.5998	7000	760.58	0.31
283.15	0.7038	7000	742.77	0.31
283.15	0.7993	7000	727.56	0.32
283.15	0.8995	7000	712.67	0.32
283.15	0.9507	7000	705.48	0.33
293.15	0.0531	7000	870.39	0.27
293.15	0.1023	7000	857.47	0.28
293.15	0.2009	7000	833.12	0.28
293.15	0.3009	7000	810.3	0.29
293.15	0.3981	7000	789.75	0.3
293.15	0.4986	7000	770.05	0.3
293.15	0.5998	7000	751.63	0.31
293.15	0.7038	7000	734.07	0.31
293.15	0.7993	7000	719.06	0.32
293.15	0.8995	7000	704.42	0.33
293.15	0.9507	7000	697.32	0.33
298.15	0.0531	7000	864.94	0.27
298.15	0.1023	7000	852.13	0.28
298.15	0.2009	7000	827.95	0.28
298.15	0.3009	7000	805.31	0.29
298.15	0.3981	7000	784.94	0.3
298.15	0.4986	7000	765.38	0.3
298.15	0.5998	7000	747.13	0.31
298.15	0.7038	7000	729.69	0.32
298.15	0.7993	7000	714.76	0.32
298.15	0.8995	7000	700.23	0.33
298.15	0.9507	7000	693.2	0.33
303.15	0.0531	7000	859.64	0.28
303.15	0.1023	7000	846.92	0.28
303.15	0.2009	7000	822.92	0.29
303.15	0.3009	7000	800.42	0.29
303.15	0.3981	7000	780.18	0.3
303.15	0.4986	7000	760.74	0.31
303.15	0.5998	7000	742.6	0.31
303.15	0.7038	7000	725.32	0.32
303.15	0.7993	7000	710.55	0.32
303.15	0.8995	7000	696.12	0.33
303.15	0.9507	7000	689.13	0.33
313.15	0.0531	7000	848.82	0.28
313.15	0.1023	7000	836.28	0.28
313.15	0.2009	7000	812.64	0.29
313.15	0.3009	7000	790.49	0.3
313.15	0.3981	7000	770.54	0.3
313.15	0.4986	7000	751.42	0.31
313.15	0.5998	7000	733.56	0.32
313.15	0.7038	7000	716.53	0.32
313.15	0.7993	7000	701.96	0.33
313.15	0.8995	7000	687.72	0.33
313.15	0.9507	7000	680.86	0.33
323.15	0.0531	7000	838.13	0.28
323.15	0.1023	7000	825.7	0.29
323.15	0.2009	7000	802.4	0.29
323.15	0.3009	7000	780.57	0.3
323.15	0.3981	7000	760.9	0.31
323.15	0.4986	7000	742.03	0.31
323.15	0.5998	7000	724.42	0.32
323.15	0.7038	7000	707.68	0.32
323.15	0.7993	7000	693.36	0.33
323.15	0.8995	7000	679.35	0.34
323.15	0.9507	7000	672.58	0.34
283.15	0.0531	10000	883.84	0.28
283.15	0.1023	10000	870.72	0.29
283.15	0.2009	10000	845.97	0.3
283.15	0.3009	10000	822.78	0.31
283.15	0.3981	10000	801.92	0.31
283.15	0.4986	10000	781.87	0.32
283.15	0.5998	10000	763.16	0.33
283.15	0.7038	10000	745.31	0.34
283.15	0.7993	10000	730.05	0.35
283.15	0.8995	10000	715.13	0.35
283.15	0.9507	10000	707.91	0.36
293.15	0.0531	10000	873.43	0.29
293.15	0.1023	10000	860.49	0.29
293.15	0.2009	10000	836.1	0.3
293.15	0.3009	10000	813.24	0.31
293.15	0.3981	10000	792.65	0.32
293.15	0.4986	10000	772.89	0.33
293.15	0.5998	10000	754.46	0.34
293.15	0.7038	10000	736.87	0.34
293.15	0.7993	10000	721.81	0.35
293.15	0.8995	10000	707.11	0.36
293.15	0.9507	10000	700	0.36
298.15	0.0531	10000	868.11	0.29
298.15	0.1023	10000	855.26	0.29
298.15	0.2009	10000	831	0.3
298.15	0.3009	10000	808.29	0.31
298.15	0.3981	10000	787.84	0.32
298.15	0.4986	10000	768.21	0.33
298.15	0.5998	10000	749.91	0.34
298.15	0.7038	10000	732.42	0.35
298.15	0.7993	10000	717.45	0.35
298.15	0.8995	10000	702.88	0.36
298.15	0.9507	10000	695.78	0.36
303.15	0.0531	10000	862.96	0.29
303.15	0.1023	10000	850.21	0.29
303.15	0.2009	10000	826.15	0.31
303.15	0.3009	10000	803.62	0.31
303.15	0.3981	10000	783.33	0.32
303.15	0.4986	10000	763.84	0.33
303.15	0.5998	10000	745.64	0.34
303.15	0.7038	10000	728.31	0.35
303.15	0.7993	10000	713.5	0.36
303.15	0.8995	10000	699.03	0.36
303.15	0.9507	10000	692.03	0.37
313.15	0.0531	10000	852.24	0.29
313.15	0.1023	10000	839.68	0.3
313.15	0.2009	10000	815.97	0.31
313.15	0.3009	10000	793.76	0.32
313.15	0.3981	10000	773.76	0.33
313.15	0.4986	10000	754.58	0.34
313.15	0.5998	10000	736.65	0.34
313.15	0.7038	10000	719.62	0.35
313.15	0.7993	10000	705.01	0.36
313.15	0.8995	10000	690.72	0.37
313.15	0.9507	10000	683.8	0.37
323.15	0.0531	10000	841.75	0.3
323.15	0.1023	10000	829.31	0.3
323.15	0.2009	10000	805.94	0.31
323.15	0.3009	10000	784.05	0.32
323.15	0.3981	10000	764.32	0.33
323.15	0.4986	10000	745.38	0.34
323.15	0.5998	10000	727.75	0.35
323.15	0.7038	10000	710.93	0.36
323.15	0.7993	10000	696.57	0.36
323.15	0.8995	10000	682.48	0.37
323.15	0.9507	10000	675.7	0.37
283.15	0.0531	20000	892.78	0.32
283.15	0.1023	20000	879.6	0.33
283.15	0.2009	20000	854.73	0.35
283.15	0.3009	20000	831.42	0.37
283.15	0.3981	20000	810.43	0.38
283.15	0.4986	20000	790.3	0.4
283.15	0.5998	20000	771.47	0.42
283.15	0.7038	20000	753.52	0.43
283.15	0.7993	20000	738.16	0.44
283.15	0.8995	20000	723.13	0.46
283.15	0.9507	20000	715.85	0.46
293.15	0.0531	20000	882.96	0.33
293.15	0.1023	20000	869.95	0.34
293.15	0.2009	20000	845.39	0.36
293.15	0.3009	20000	822.38	0.37
293.15	0.3981	20000	801.64	0.39
293.15	0.4986	20000	781.73	0.41
293.15	0.5998	20000	763.14	0.42
293.15	0.7038	20000	745.41	0.44
293.15	0.7993	20000	730.25	0.45
293.15	0.8995	20000	715.39	0.46
293.15	0.9507	20000	708.22	0.47
298.15	0.0531	20000	877.88	0.33
298.15	0.1023	20000	865.08	0.34
298.15	0.2009	20000	840.5	0.36
298.15	0.3009	20000	817.71	0.38
298.15	0.3981	20000	797.11	0.39
298.15	0.4986	20000	777.37	0.41
298.15	0.5998	20000	758.88	0.43
298.15	0.7038	20000	741.28	0.44
298.15	0.7993	20000	726.13	0.45
298.15	0.8995	20000	711.41	0.47
298.15	0.9507	20000	704.25	0.47
303.15	0.0531	20000	873	0.33
303.15	0.1023	20000	860.17	0.34
303.15	0.2009	20000	835.94	0.36
303.15	0.3009	20000	813.23	0.38
303.15	0.3981	20000	792.77	0.4
303.15	0.4986	20000	773.13	0.41
303.15	0.5998	20000	754.8	0.43
303.15	0.7038	20000	737.29	0.45
303.15	0.7993	20000	722.32	0.46
303.15	0.8995	20000	707.71	0.47
303.15	0.9507	20000	700.65	0.48
313.15	0.0531	20000	863.01	0.34
313.15	0.1023	20000	850.29	0.35
313.15	0.2009	20000	826.35	0.37
313.15	0.3009	20000	804.06	0.39
313.15	0.3981	20000	783.83	0.41
313.15	0.4986	20000	764.52	0.42
313.15	0.5998	20000	746.45	0.44
313.15	0.7038	20000	729.18	0.45
313.15	0.7993	20000	714.39	0.47
313.15	0.8995	20000	699.99	0.48
313.15	0.9507	20000	692.96	0.48
323.15	0.0531	20000	853.08	0.35
323.15	0.1023	20000	840.6	0.36
323.15	0.2009	20000	817.1	0.38
323.15	0.3009	20000	794.98	0.4
323.15	0.3981	20000	775.23	0.41
323.15	0.4986	20000	755.93	0.43
323.15	0.5998	20000	738.09	0.44
323.15	0.7038	20000	721.08	0.46
323.15	0.7993	20000	706.61	0.47
323.15	0.8995	20000	692.36	0.48
323.15	0.9507	20000	685.54	0.49
283.15	0.0531	30000	900.97	0.35
283.15	0.1023	30000	887.68	0.36
283.15	0.2009	30000	862.6	0.39
283.15	0.3009	30000	839.17	0.42
283.15	0.3981	30000	818.12	0.45
283.15	0.4986	30000	797.85	0.47
283.15	0.5998	30000	778.93	0.5
283.15	0.7038	30000	760.8	0.52
283.15	0.7993	30000	745.44	0.54
283.15	0.8995	30000	730.29	0.56
283.15	0.9507	30000	722.95	0.56
293.15	0.0531	30000	891.52	0.36
293.15	0.1023	30000	878.34	0.38
293.15	0.2009	30000	853.68	0.41
293.15	0.3009	30000	830.55	0.43
293.15	0.3981	30000	809.73	0.46
293.15	0.4986	30000	789.74	0.48
293.15	0.5998	30000	771.06	0.5
293.15	0.7038	30000	753.18	0.53
293.15	0.7993	30000	737.88	0.55
293.15	0.8995	30000	722.93	0.56
293.15	0.9507	30000	715.7	0.57
298.15	0.0531	30000	886.78	0.37
298.15	0.1023	30000	873.9	0.38
298.15	0.2009	30000	849.18	0.41
298.15	0.3009	30000	826.21	0.44
298.15	0.3981	30000	805.55	0.46
298.15	0.4986	30000	785.57	0.49
298.15	0.5998	30000	766.94	0.51
298.15	0.7038	30000	749.15	0.53
298.15	0.7993	30000	733.94	0.55
298.15	0.8995	30000	719.07	0.57
298.15	0.9507	30000	711.84	0.58
303.15	0.0531	30000	882.09	0.37
303.15	0.1023	30000	869.13	0.39
303.15	0.2009	30000	844.8	0.42
303.15	0.3009	30000	821.91	0.44
303.15	0.3981	30000	801.3	0.47
303.15	0.4986	30000	781.52	0.49
303.15	0.5998	30000	763.03	0.51
303.15	0.7038	30000	745.43	0.54
303.15	0.7993	30000	730.33	0.56
303.15	0.8995	30000	715.6	0.57
303.15	0.9507	30000	708.5	0.58
313.15	0.0531	30000	872.66	0.38
313.15	0.1023	30000	859.97	0.4
313.15	0.2009	30000	835.81	0.43
313.15	0.3009	30000	813.29	0.45
313.15	0.3981	30000	792.99	0.48
313.15	0.4986	30000	773.45	0.5
313.15	0.5998	30000	755.17	0.52
313.15	0.7038	30000	737.72	0.55
313.15	0.7993	30000	722.79	0.56
313.15	0.8995	30000	708.23	0.58
313.15	0.9507	30000	701.14	0.59
323.15	0.0531	30000	863.29	0.39
323.15	0.1023	30000	850.64	0.41
323.15	0.2009	30000	826.96	0.44
323.15	0.3009	30000	804.68	0.46
323.15	0.3981	30000	784.58	0.49
323.15	0.4986	30000	765.27	0.51
323.15	0.5998	30000	747.25	0.53
323.15	0.7038	30000	730.1	0.56
323.15	0.7993	30000	715.4	0.57
323.15	0.8995	30000	700.96	0.59
323.15	0.9507	30000	694.07	0.6
283.15	0.0531	40000	908.57	0.38
283.15	0.1023	40000	895.22	0.4
283.15	0.2009	40000	870.06	0.44
283.15	0.3009	40000	846.56	0.47
283.15	0.3981	40000	825.29	0.51
283.15	0.4986	40000	804.92	0.54
283.15	0.5998	40000	785.84	0.57
283.15	0.7038	40000	767.67	0.6
283.15	0.7993	40000	752.19	0.62
283.15	0.8995	40000	736.93	0.65
283.15	0.9507	40000	729.53	0.66
293.15	0.0531	40000	899.47	0.39
293.15	0.1023	40000	886.28	0.41
293.15	0.2009	40000	861.43	0.45
293.15	0.3009	40000	838.11	0.49
293.15	0.3981	40000	817.16	0.52
293.15	0.4986	40000	797.04	0.55
293.15	0.5998	40000	778.18	0.58
293.15	0.7038	40000	760.15	0.61
293.15	0.7993	40000	744.84	0.64
293.15	0.8995	40000	729.76	0.66
293.15	0.9507	40000	722.48	0.67
298.15	0.0531	40000	895.02	0.4
298.15	0.1023	40000	882.04	0.42
298.15	0.2009	40000	857.18	0.46
298.15	0.3009	40000	834.09	0.49
298.15	0.3981	40000	813.22	0.53
298.15	0.4986	40000	793.13	0.56
298.15	0.5998	40000	774.36	0.59
298.15	0.7038	40000	756.46	0.62
298.15	0.7993	40000	741.11	0.64
298.15	0.8995	40000	726.12	0.67
298.15	0.9507	40000	718.83	0.68
303.15	0.0531	40000	890.44	0.4
303.15	0.1023	40000	877.39	0.42
303.15	0.2009	40000	852.91	0.46
303.15	0.3009	40000	829.87	0.5
303.15	0.3981	40000	809.15	0.53
303.15	0.4986	40000	789.24	0.56
303.15	0.5998	40000	770.61	0.59
303.15	0.7038	40000	752.83	0.62
303.15	0.7993	40000	737.59	0.65
303.15	0.8995	40000	722.73	0.67
303.15	0.9507	40000	715.55	0.68
313.15	0.0531	40000	881.46	0.42
313.15	0.1023	40000	868.66	0.44
313.15	0.2009	40000	844.37	0.48
313.15	0.3009	40000	821.69	0.51
313.15	0.3981	40000	801.27	0.54
313.15	0.4986	40000	781.56	0.58
313.15	0.5998	40000	763.14	0.61
313.15	0.7038	40000	745.56	0.63
313.15	0.7993	40000	730.5	0.66
313.15	0.8995	40000	715.76	0.68
313.15	0.9507	40000	708.64	0.7
323.15	0.0531	40000	872.52	0.43
323.15	0.1023	40000	859.81	0.45
323.15	0.2009	40000	835.84	0.49
323.15	0.3009	40000	813.46	0.53
323.15	0.3981	40000	793.25	0.56
323.15	0.4986	40000	773.87	0.59
323.15	0.5998	40000	755.68	0.62
323.15	0.7038	40000	738.29	0.65
323.15	0.7993	40000	723.4	0.67
323.15	0.8995	40000	708.85	0.69
323.15	0.9507	40000	701.87	0.71
283.15	0.0531	50000	915.66	0.4
283.15	0.1023	50000	902.32	0.42
283.15	0.2009	50000	876.98	0.47
283.15	0.3009	50000	853.42	0.52
283.15	0.3981	50000	832.08	0.56
283.15	0.4986	50000	811.56	0.6
283.15	0.5998	50000	792.36	0.64
283.15	0.7038	50000	774.06	0.68
283.15	0.7993	50000	758.41	0.71
283.15	0.8995	50000	743.05	0.74
283.15	0.9507	50000	735.59	0.75
293.15	0.0531	50000	906.83	0.41
293.15	0.1023	50000	893.73	0.44
293.15	0.2009	50000	868.58	0.49
293.15	0.3009	50000	845.22	0.53
293.15	0.3981	50000	824.17	0.58
293.15	0.4986	50000	803.9	0.62
293.15	0.5998	50000	784.93	0.65
293.15	0.7038	50000	766.85	0.69
293.15	0.7993	50000	751.39	0.72
293.15	0.8995	50000	736.21	0.75
293.15	0.9507	50000	728.86	0.77
298.15	0.0531	50000	902.53	0.42
298.15	0.1023	50000	889.53	0.45
298.15	0.2009	50000	864.58	0.5
298.15	0.3009	50000	841.36	0.54
298.15	0.3981	50000	820.34	0.58
298.15	0.4986	50000	800.16	0.62
298.15	0.5998	50000	781.27	0.66
298.15	0.7038	50000	763.24	0.7
298.15	0.7993	50000	747.78	0.73
298.15	0.8995	50000	732.67	0.76
298.15	0.9507	50000	725.32	0.77
303.15	0.0531	50000	898.25	0.43
303.15	0.1023	50000	885.12	0.46
303.15	0.2009	50000	860.41	0.5
303.15	0.3009	50000	837.32	0.55
303.15	0.3981	50000	816.52	0.59
303.15	0.4986	50000	796.41	0.63
303.15	0.5998	50000	777.65	0.67
303.15	0.7038	50000	759.78	0.7
303.15	0.7993	50000	744.45	0.74
303.15	0.8995	50000	729.47	0.77
303.15	0.9507	50000	722.23	0.78
313.15	0.0531	50000	889.63	0.45
313.15	0.1023	50000	876.7	0.47
313.15	0.2009	50000	852.23	0.52
313.15	0.3009	50000	829.5	0.57
313.15	0.3981	50000	808.88	0.61
313.15	0.4986	50000	789.11	0.65
313.15	0.5998	50000	770.57	0.68
313.15	0.7038	50000	752.8	0.72
313.15	0.7993	50000	737.67	0.75
313.15	0.8995	50000	722.82	0.78
313.15	0.9507	50000	715.59	0.79
323.15	0.0531	50000	881.03	0.46
323.15	0.1023	50000	868.25	0.49
323.15	0.2009	50000	844.11	0.54
323.15	0.3009	50000	821.56	0.58
323.15	0.3981	50000	801.14	0.62
323.15	0.4986	50000	781.63	0.66
323.15	0.5998	50000	763.29	0.7
323.15	0.7038	50000	745.73	0.73
323.15	0.7993	50000	730.8	0.76
323.15	0.8995	50000	716.06	0.79
323.15	0.9507	50000	709.05	0.81
283.15	0.0531	60000	922.27	0.41
283.15	0.1023	60000	908.86	0.44
283.15	0.2009	60000	883.47	0.5
283.15	0.3009	60000	859.78	0.56
283.15	0.3981	60000	838.33	0.61
283.15	0.4986	60000	817.73	0.66
283.15	0.5998	60000	798.43	0.7
283.15	0.7038	60000	780.03	0.75
283.15	0.7993	60000	764.33	0.79
283.15	0.8995	60000	748.87	0.82
283.15	0.9507	60000	741.35	0.84
293.15	0.0531	60000	913.81	0.43
293.15	0.1023	60000	900.5	0.46
293.15	0.2009	60000	875.39	0.52
293.15	0.3009	60000	851.83	0.58
293.15	0.3981	60000	830.75	0.63
293.15	0.4986	60000	810.36	0.68
293.15	0.5998	60000	791.29	0.72
293.15	0.7038	60000	773.13	0.77
293.15	0.7993	60000	757.58	0.8
293.15	0.8995	60000	742.31	0.84
293.15	0.9507	60000	734.9	0.86
298.15	0.0531	60000	909.64	0.44
298.15	0.1023	60000	896.54	0.47
298.15	0.2009	60000	871.48	0.53
298.15	0.3009	60000	848.21	0.59
298.15	0.3981	60000	827.13	0.64
298.15	0.4986	60000	806.82	0.68
298.15	0.5998	60000	787.83	0.73
298.15	0.7038	60000	769.72	0.77
298.15	0.7993	60000	754.16	0.81
298.15	0.8995	60000	738.97	0.85
298.15	0.9507	60000	731.55	0.87
303.15	0.0531	60000	905.4	0.45
303.15	0.1023	60000	892.33	0.48
303.15	0.2009	60000	867.48	0.54
303.15	0.3009	60000	844.24	0.6
303.15	0.3981	60000	823.28	0.65
303.15	0.4986	60000	803.13	0.69
303.15	0.5998	60000	784.27	0.74
303.15	0.7038	60000	766.25	0.78
303.15	0.7993	60000	750.88	0.82
303.15	0.8995	60000	735.73	0.86
303.15	0.9507	60000	728.44	0.87
313.15	0.0531	60000	897.18	0.47
313.15	0.1023	60000	884.27	0.5
313.15	0.2009	60000	859.72	0.56
313.15	0.3009	60000	836.81	0.61
313.15	0.3981	60000	815.99	0.66
313.15	0.4986	60000	796.1	0.71
313.15	0.5998	60000	777.45	0.75
313.15	0.7038	60000	759.57	0.8
313.15	0.7993	60000	744.29	0.83
313.15	0.8995	60000	729.33	0.87
313.15	0.9507	60000	722.04	0.89
323.15	0.0531	60000	888.87	0.49
323.15	0.1023	60000	876.05	0.52
323.15	0.2009	60000	851.78	0.58
323.15	0.3009	60000	829.15	0.63
323.15	0.3981	60000	808.64	0.68
323.15	0.4986	60000	788.91	0.73
323.15	0.5998	60000	770.47	0.77
323.15	0.7038	60000	752.78	0.81
323.15	0.7993	60000	737.68	0.85
323.15	0.8995	60000	722.83	0.89
323.15	0.9507	60000	715.76	0.9
283.15	0.0531	65000	925.46	0.42
283.15	0.1023	65000	912	0.45
283.15	0.2009	65000	886.55	0.52
283.15	0.3009	65000	862.78	0.58
283.15	0.3981	65000	841.29	0.63
283.15	0.4986	65000	820.65	0.69
283.15	0.5998	65000	801.22	0.74
283.15	0.7038	65000	782.82	0.78
283.15	0.7993	65000	767.1	0.82
283.15	0.8995	65000	751.59	0.86
283.15	0.9507	65000	744.04	0.88
293.15	0.0531	65000	917.1	0.44
293.15	0.1023	65000	903.79	0.48
293.15	0.2009	65000	878.75	0.54
293.15	0.3009	65000	855.14	0.6
293.15	0.3981	65000	833.84	0.65
293.15	0.4986	65000	813.47	0.7
293.15	0.5998	65000	794.31	0.75
293.15	0.7038	65000	775.99	0.8
293.15	0.7993	65000	760.39	0.84
293.15	0.8995	65000	745.06	0.88
293.15	0.9507	65000	737.63	0.9
298.15	0.0531	65000	913.06	0.45
298.15	0.1023	65000	899.93	0.48
298.15	0.2009	65000	874.82	0.55
298.15	0.3009	65000	851.5	0.61
298.15	0.3981	65000	830.36	0.66
298.15	0.4986	65000	810	0.71
298.15	0.5998	65000	790.97	0.76
298.15	0.7038	65000	772.79	0.81
298.15	0.7993	65000	757.19	0.85
298.15	0.8995	65000	741.93	0.89
298.15	0.9507	65000	734.52	0.91
303.15	0.0531	65000	908.87	0.46
303.15	0.1023	65000	895.79	0.5
303.15	0.2009	65000	870.84	0.56
303.15	0.3009	65000	847.58	0.62
303.15	0.3981	65000	826.58	0.67
303.15	0.4986	65000	806.34	0.72
303.15	0.5998	65000	787.42	0.77
303.15	0.7038	65000	769.32	0.82
303.15	0.7993	65000	753.84	0.86
303.15	0.8995	65000	738.7	0.9
303.15	0.9507	65000	731.35	0.92
313.15	0.0531	65000	900.74	0.48
313.15	0.1023	65000	887.8	0.52
313.15	0.2009	65000	863.12	0.58
313.15	0.3009	65000	840.18	0.64
313.15	0.3981	65000	819.3	0.69
313.15	0.4986	65000	799.37	0.74
313.15	0.5998	65000	780.62	0.79
313.15	0.7038	65000	762.72	0.84
313.15	0.7993	65000	747.34	0.88
313.15	0.8995	65000	732.38	0.91
313.15	0.9507	65000	725.02	0.93
323.15	0.0531	65000	892.62	0.5
323.15	0.1023	65000	879.77	0.54
323.15	0.2009	65000	855.45	0.6
323.15	0.3009	65000	832.75	0.66
323.15	0.3981	65000	812.18	0.71
323.15	0.4986	65000	792.37	0.76
323.15	0.5998	65000	773.88	0.81
323.15	0.7038	65000	756.14	0.85
323.15	0.7993	65000	741.15	0.89
323.15	0.8995	65000	726.04	0.93
323.15	0.9507	65000	718.95	0.95

System: heptane + 2-chloro-2-methylpropane; phases: Liquid
Property: Mass density, kg/m3 (Liquid); method: Vibrating tube method
Temperature, K	Mole fraction of heptane	Pressure, kPa	Mass density, kg/m3	uncertainty
283.15	0.0554	100	842.44	0.24
283.15	0.1017	100	832.31	0.24
283.15	0.2004	100	811.94	0.24
283.15	0.3016	100	792.65	0.24
283.15	0.4097	100	773.66	0.24
283.15	0.498	100	759.27	0.24
283.15	0.5983	100	744.02	0.24
283.15	0.7017	100	729.43	0.24
283.15	0.7995	100	716.55	0.25
283.15	0.9032	100	703.79	0.25
283.15	0.9482	100	698.49	0.25
293.15	0.0554	100	830.68	0.24
293.15	0.1017	100	820.81	0.24
293.15	0.2004	100	800.91	0.24
293.15	0.3016	100	782.03	0.24
293.15	0.4097	100	763.43	0.24
293.15	0.498	100	749.33	0.24
293.15	0.5983	100	734.42	0.24
293.15	0.7017	100	720.16	0.25
293.15	0.7995	100	707.61	0.25
293.15	0.9032	100	695.15	0.25
293.15	0.9482	100	689.98	0.25
298.15	0.0554	100	824.75	0.24
298.15	0.1017	100	814.99	0.24
298.15	0.2004	100	795.33	0.24
298.15	0.3016	100	776.67	0.24
298.15	0.4097	100	758.26	0.24
298.15	0.498	100	744.32	0.24
298.15	0.5983	100	729.58	0.25
298.15	0.7017	100	715.49	0.25
298.15	0.7995	100	703.09	0.25
298.15	0.9032	100	690.79	0.25
298.15	0.9482	100	685.68	0.25
303.15	0.0554	100	818.78	0.24
303.15	0.1017	100	809.14	0.24
303.15	0.2004	100	789.72	0.24
303.15	0.3016	100	771.27	0.24
303.15	0.4097	100	753.07	0.24
303.15	0.498	100	739.29	0.24
303.15	0.5983	100	724.71	0.25
303.15	0.7017	100	710.79	0.25
303.15	0.7995	100	698.55	0.25
303.15	0.9032	100	686.4	0.25
303.15	0.9482	100	681.35	0.25
313.15	0.0554	100	806.66	0.24
313.15	0.1017	100	797.28	0.24
313.15	0.2004	100	778.36	0.24
313.15	0.3016	100	760.35	0.24
313.15	0.4097	100	742.58	0.24
313.15	0.498	100	729.11	0.25
313.15	0.5983	100	714.88	0.25
313.15	0.7017	100	701.3	0.25
313.15	0.7995	100	689.36	0.25
313.15	0.9032	100	677.52	0.25
313.15	0.9482	100	672.6	0.25
323.15	0.0554	100	794.33	0.24
323.15	0.1017	100	785.21	0.24
323.15	0.2004	100	766.79	0.24
323.15	0.3016	100	749.26	0.24
323.15	0.4097	100	731.93	0.25
323.15	0.498	100	718.79	0.25
323.15	0.5983	100	704.9	0.25
323.15	0.7017	100	691.67	0.25
323.15	0.7995	100	680.04	0.25
323.15	0.9032	100	668.52	0.25
323.15	0.9482	100	663.72	0.25
283.15	0.0554	2000	844.68	0.25
283.15	0.1017	2000	834.48	0.25
283.15	0.2004	2000	814.1	0.25
283.15	0.3016	2000	794.78	0.26
283.15	0.4097	2000	775.6	0.26
283.15	0.498	2000	761.33	0.26
283.15	0.5983	2000	745.93	0.26
283.15	0.7017	2000	731.35	0.26
283.15	0.7995	2000	718.47	0.27
283.15	0.9032	2000	705.72	0.27
283.15	0.9482	2000	700.41	0.27
293.15	0.0554	2000	833.14	0.25
293.15	0.1017	2000	823.24	0.25
293.15	0.2004	2000	803.29	0.25
293.15	0.3016	2000	784.22	0.26
293.15	0.4097	2000	765.58	0.26
293.15	0.498	2000	751.59	0.26
293.15	0.5983	2000	736.51	0.26
293.15	0.7017	2000	722.23	0.27
293.15	0.7995	2000	709.61	0.27
293.15	0.9032	2000	697.14	0.27
293.15	0.9482	2000	691.94	0.27
298.15	0.0554	2000	827.29	0.25
298.15	0.1017	2000	817.46	0.25
298.15	0.2004	2000	797.78	0.25
298.15	0.3016	2000	778.97	0.26
298.15	0.4097	2000	760.5	0.26
298.15	0.498	2000	746.66	0.26
298.15	0.5983	2000	731.77	0.26
298.15	0.7017	2000	717.66	0.27
298.15	0.7995	2000	705.19	0.27
298.15	0.9032	2000	692.86	0.27
298.15	0.9482	2000	687.76	0.27
303.15	0.0554	2000	821.47	0.25
303.15	0.1017	2000	811.82	0.25
303.15	0.2004	2000	792.22	0.26
303.15	0.3016	2000	773.66	0.26
303.15	0.4097	2000	755.51	0.26
303.15	0.498	2000	741.69	0.26
303.15	0.5983	2000	727.08	0.26
303.15	0.7017	2000	713.01	0.27
303.15	0.7995	2000	700.74	0.27
303.15	0.9032	2000	688.51	0.27
303.15	0.9482	2000	683.42	0.27
313.15	0.0554	2000	809.52	0.25
313.15	0.1017	2000	800.05	0.25
313.15	0.2004	2000	781	0.26
313.15	0.3016	2000	763.03	0.26
313.15	0.4097	2000	745.07	0.26
313.15	0.498	2000	731.68	0.26
313.15	0.5983	2000	717.4	0.27
313.15	0.7017	2000	703.64	0.27
313.15	0.7995	2000	691.69	0.27
313.15	0.9032	2000	679.76	0.27
313.15	0.9482	2000	674.8	0.27
323.15	0.0554	2000	797.48	0.26
323.15	0.1017	2000	788.27	0.26
323.15	0.2004	2000	769.77	0.26
323.15	0.3016	2000	752.1	0.26
323.15	0.4097	2000	734.59	0.26
323.15	0.498	2000	721.4	0.27
323.15	0.5983	2000	707.53	0.27
323.15	0.7017	2000	694.11	0.27
323.15	0.7995	2000	682.44	0.27
323.15	0.9032	2000	670.78	0.27
323.15	0.9482	2000	665.93	0.28
283.15	0.0554	5000	848.13	0.27
283.15	0.1017	5000	837.91	0.27
283.15	0.2004	5000	817.4	0.27
283.15	0.3016	5000	797.97	0.28
283.15	0.4097	5000	778.78	0.28
283.15	0.498	5000	764.17	0.29
283.15	0.5983	5000	748.83	0.29
283.15	0.7017	5000	734.11	0.29
283.15	0.7995	5000	721.17	0.3
283.15	0.9032	5000	708.35	0.3
283.15	0.9482	5000	703.02	0.3
293.15	0.0554	5000	836.88	0.27
293.15	0.1017	5000	826.9	0.27
293.15	0.2004	5000	806.74	0.28
293.15	0.3016	5000	787.77	0.28
293.15	0.4097	5000	769.03	0.28
293.15	0.498	5000	754.81	0.29
293.15	0.5983	5000	739.75	0.29
293.15	0.7017	5000	725.28	0.3
293.15	0.7995	5000	712.57	0.3
293.15	0.9032	5000	700.04	0.3
293.15	0.9482	5000	694.81	0.31
298.15	0.0554	5000	831.22	0.27
298.15	0.1017	5000	821.35	0.27
298.15	0.2004	5000	801.38	0.28
298.15	0.3016	5000	782.63	0.28
298.15	0.4097	5000	763.93	0.29
298.15	0.498	5000	749.94	0.29
298.15	0.5983	5000	734.95	0.29
298.15	0.7017	5000	720.69	0.3
298.15	0.7995	5000	708.17	0.3
298.15	0.9032	5000	695.72	0.3
298.15	0.9482	5000	690.58	0.31
303.15	0.0554	5000	825.59	0.27
303.15	0.1017	5000	815.8	0.27
303.15	0.2004	5000	796.16	0.28
303.15	0.3016	5000	777.4	0.28
303.15	0.4097	5000	759.02	0.29
303.15	0.498	5000	745.08	0.29
303.15	0.5983	5000	730.47	0.3
303.15	0.7017	5000	716.37	0.3
303.15	0.7995	5000	703.86	0.3
303.15	0.9032	5000	691.56	0.31
303.15	0.9482	5000	686.48	0.31
313.15	0.0554	5000	813.98	0.27
313.15	0.1017	5000	804.42	0.28
313.15	0.2004	5000	785.28	0.28
313.15	0.3016	5000	767.03	0.29
313.15	0.4097	5000	749.04	0.29
313.15	0.498	5000	735.25	0.29
313.15	0.5983	5000	720.98	0.3
313.15	0.7017	5000	707.1	0.3
313.15	0.7995	5000	695.02	0.31
313.15	0.9032	5000	682.92	0.31
313.15	0.9482	5000	677.95	0.31
323.15	0.0554	5000	802.32	0.28
323.15	0.1017	5000	793.03	0.28
323.15	0.2004	5000	774.28	0.28
323.15	0.3016	5000	756.52	0.29
323.15	0.4097	5000	738.91	0.29
323.15	0.498	5000	725.49	0.3
323.15	0.5983	5000	711.44	0.3
323.15	0.7017	5000	697.95	0.3
323.15	0.7995	5000	686.17	0.31
323.15	0.9032	5000	674.4	0.31
323.15	0.9482	5000	669.52	0.31
283.15	0.0554	7000	850.47	0.28
283.15	0.1017	7000	840.22	0.28
283.15	0.2004	7000	819.61	0.29
283.15	0.3016	7000	800.1	0.29
283.15	0.4097	7000	780.74	0.3
283.15	0.498	7000	766.3	0.3
283.15	0.5983	7000	750.75	0.31
283.15	0.7017	7000	736.02	0.31
283.15	0.7995	7000	722.99	0.32
283.15	0.9032	7000	710.1	0.32
283.15	0.9482	7000	704.76	0.32
293.15	0.0554	7000	839.29	0.28
293.15	0.1017	7000	829.3	0.28
293.15	0.2004	7000	809.03	0.29
293.15	0.3016	7000	789.87	0.3
293.15	0.4097	7000	771.15	0.3
293.15	0.498	7000	756.85	0.31
293.15	0.5983	7000	741.66	0.31
293.15	0.7017	7000	727.16	0.32
293.15	0.7995	7000	714.5	0.32
293.15	0.9032	7000	701.82	0.33
293.15	0.9482	7000	696.6	0.33
298.15	0.0554	7000	833.69	0.28
298.15	0.1017	7000	823.79	0.29
298.15	0.2004	7000	803.89	0.29
298.15	0.3016	7000	784.93	0.3
298.15	0.4097	7000	766.14	0.3
298.15	0.498	7000	752.1	0.31
298.15	0.5983	7000	737.06	0.31
298.15	0.7017	7000	722.75	0.32
298.15	0.7995	7000	710.2	0.32
298.15	0.9032	7000	697.64	0.33
298.15	0.9482	7000	692.49	0.33
303.15	0.0554	7000	828.15	0.28
303.15	0.1017	7000	818.38	0.29
303.15	0.2004	7000	798.56	0.29
303.15	0.3016	7000	779.88	0.3
303.15	0.4097	7000	761.39	0.31
303.15	0.498	7000	747.28	0.31
303.15	0.5983	7000	732.58	0.32
303.15	0.7017	7000	718.4	0.32
303.15	0.7995	7000	705.86	0.32
303.15	0.9032	7000	693.5	0.33
303.15	0.9482	7000	688.38	0.33
313.15	0.0554	7000	816.75	0.29
313.15	0.1017	7000	807.19	0.29
313.15	0.2004	7000	787.92	0.3
313.15	0.3016	7000	769.57	0.3
313.15	0.4097	7000	751.4	0.31
313.15	0.498	7000	737.68	0.31
313.15	0.5983	7000	723.34	0.32
313.15	0.7017	7000	709.4	0.32
313.15	0.7995	7000	697.26	0.33
313.15	0.9032	7000	685.15	0.33
313.15	0.9482	7000	680.11	0.33
323.15	0.0554	7000	805.4	0.29
323.15	0.1017	7000	796.06	0.29
323.15	0.2004	7000	777.25	0.3
323.15	0.3016	7000	759.21	0.31
323.15	0.4097	7000	741.54	0.31
323.15	0.498	7000	728.22	0.32
323.15	0.5983	7000	714.07	0.32
323.15	0.7017	7000	700.51	0.33
323.15	0.7995	7000	688.53	0.33
323.15	0.9032	7000	676.71	0.34
323.15	0.9482	7000	671.83	0.34
283.15	0.0554	10000	853.75	0.29
283.15	0.1017	10000	843.46	0.3
283.15	0.2004	10000	822.51	0.31
283.15	0.3016	10000	803.09	0.31
283.15	0.4097	10000	783.69	0.32
283.15	0.498	10000	769.05	0.33
283.15	0.5983	10000	753.62	0.34
283.15	0.7017	10000	738.75	0.34
283.15	0.7995	10000	725.53	0.35
283.15	0.9032	10000	712.59	0.36
283.15	0.9482	10000	707.21	0.36
293.15	0.0554	10000	842.85	0.3
293.15	0.1017	10000	832.92	0.3
293.15	0.2004	10000	812.44	0.31
293.15	0.3016	10000	793.26	0.32
293.15	0.4097	10000	774.21	0.33
293.15	0.498	10000	759.84	0.33
293.15	0.5983	10000	744.65	0.34
293.15	0.7017	10000	730.1	0.35
293.15	0.7995	10000	717.31	0.35
293.15	0.9032	10000	704.57	0.36
293.15	0.9482	10000	699.31	0.36
298.15	0.0554	10000	837.41	0.3
298.15	0.1017	10000	827.3	0.3
298.15	0.2004	10000	807.34	0.31
298.15	0.3016	10000	788.26	0.32
298.15	0.4097	10000	769.41	0.33
298.15	0.498	10000	755.22	0.34
298.15	0.5983	10000	740.1	0.34
298.15	0.7017	10000	725.72	0.35
298.15	0.7995	10000	712.96	0.36
298.15	0.9032	10000	700.3	0.36
298.15	0.9482	10000	695.09	0.36
303.15	0.0554	10000	832	0.3
303.15	0.1017	10000	822.04	0.31
303.15	0.2004	10000	802.32	0.31
303.15	0.3016	10000	783.29	0.32
303.15	0.4097	10000	764.7	0.33
303.15	0.498	10000	750.6	0.34
303.15	0.5983	10000	735.66	0.34
303.15	0.7017	10000	721.43	0.35
303.15	0.7995	10000	708.91	0.36
303.15	0.9032	10000	696.4	0.36
303.15	0.9482	10000	691.28	0.37
313.15	0.0554	10000	820.74	0.31
313.15	0.1017	10000	811.13	0.31
313.15	0.2004	10000	791.72	0.32
313.15	0.3016	10000	773.41	0.33
313.15	0.4097	10000	754.97	0.34
313.15	0.498	10000	741.18	0.34
313.15	0.5983	10000	726.57	0.35
313.15	0.7017	10000	712.75	0.36
313.15	0.7995	10000	700.32	0.36
313.15	0.9032	10000	688.14	0.37
313.15	0.9482	10000	683.1	0.37
323.15	0.0554	10000	809.88	0.31
323.15	0.1017	10000	800.36	0.32
323.15	0.2004	10000	781.49	0.32
323.15	0.3016	10000	763.36	0.33
323.15	0.4097	10000	745.37	0.34
323.15	0.498	10000	731.85	0.35
323.15	0.5983	10000	717.55	0.35
323.15	0.7017	10000	703.96	0.36
323.15	0.7995	10000	691.76	0.37
323.15	0.9032	10000	679.93	0.37
323.15	0.9482	10000	674.96	0.37
283.15	0.0554	20000	864	0.34
283.15	0.1017	20000	853.55	0.35
283.15	0.2004	20000	832.47	0.37
283.15	0.3016	20000	812.54	0.38
283.15	0.4097	20000	792.93	0.4
283.15	0.498	20000	778.04	0.41
283.15	0.5983	20000	762.35	0.42
283.15	0.7017	20000	747.22	0.44
283.15	0.7995	20000	733.81	0.45
283.15	0.9032	20000	720.64	0.46
283.15	0.9482	20000	715.18	0.46
293.15	0.0554	20000	853.69	0.35
293.15	0.1017	20000	843.51	0.36
293.15	0.2004	20000	822.74	0.37
293.15	0.3016	20000	803.2	0.39
293.15	0.4097	20000	783.9	0.41
293.15	0.498	20000	769.27	0.42
293.15	0.5983	20000	753.74	0.43
293.15	0.7017	20000	738.84	0.44
293.15	0.7995	20000	725.88	0.45
293.15	0.9032	20000	712.92	0.47
293.15	0.9482	20000	707.57	0.47
298.15	0.0554	20000	848.71	0.35
298.15	0.1017	20000	838.45	0.36
298.15	0.2004	20000	818.1	0.38
298.15	0.3016	20000	798.58	0.39
298.15	0.4097	20000	779.66	0.41
298.15	0.498	20000	765.11	0.42
298.15	0.5983	20000	749.57	0.43
298.15	0.7017	20000	734.93	0.45
298.15	0.7995	20000	721.79	0.46
298.15	0.9032	20000	708.9	0.47
298.15	0.9482	20000	703.58	0.47
303.15	0.0554	20000	843.57	0.36
303.15	0.1017	20000	833.51	0.36
303.15	0.2004	20000	813.29	0.38
303.15	0.3016	20000	793.94	0.4
303.15	0.4097	20000	774.96	0.41
303.15	0.498	20000	760.6	0.43
303.15	0.5983	20000	745.27	0.44
303.15	0.7017	20000	730.77	0.45
303.15	0.7995	20000	717.92	0.46
303.15	0.9032	20000	705.2	0.47
303.15	0.9482	20000	699.94	0.48
313.15	0.0554	20000	833.07	0.37
313.15	0.1017	20000	823.38	0.37
313.15	0.2004	20000	803.53	0.39
313.15	0.3016	20000	784.77	0.4
313.15	0.4097	20000	766.04	0.42
313.15	0.498	20000	751.92	0.43
313.15	0.5983	20000	737.01	0.45
313.15	0.7017	20000	722.7	0.46
313.15	0.7995	20000	709.98	0.47
313.15	0.9032	20000	697.53	0.48
313.15	0.9482	20000	692.28	0.48
323.15	0.0554	20000	823.12	0.37
323.15	0.1017	20000	813.35	0.38
323.15	0.2004	20000	794.06	0.4
323.15	0.3016	20000	775.49	0.41
323.15	0.4097	20000	757.06	0.43
323.15	0.498	20000	743.41	0.44
323.15	0.5983	20000	728.54	0.45
323.15	0.7017	20000	714.57	0.46
323.15	0.7995	20000	702.11	0.48
323.15	0.9032	20000	689.93	0.49
323.15	0.9482	20000	684.86	0.49
283.15	0.0554	30000	873.3	0.38
283.15	0.1017	30000	862.73	0.39
283.15	0.2004	30000	841.24	0.42
283.15	0.3016	30000	821.19	0.44
283.15	0.4097	30000	801.28	0.47
283.15	0.498	30000	786.13	0.49
283.15	0.5983	30000	770.17	0.51
283.15	0.7017	30000	754.83	0.52
283.15	0.7995	30000	741.14	0.54
283.15	0.9032	30000	727.83	0.56
283.15	0.9482	30000	722.3	0.57
293.15	0.0554	30000	863.54	0.39
293.15	0.1017	30000	853.13	0.41
293.15	0.2004	30000	832.13	0.43
293.15	0.3016	30000	812.29	0.45
293.15	0.4097	30000	792.63	0.48
293.15	0.498	30000	777.78	0.5
293.15	0.5983	30000	762.02	0.52
293.15	0.7017	30000	746.9	0.53
293.15	0.7995	30000	733.66	0.55
293.15	0.9032	30000	720.51	0.57
293.15	0.9482	30000	715.09	0.57
298.15	0.0554	30000	858.8	0.4
298.15	0.1017	30000	848.35	0.41
298.15	0.2004	30000	827.76	0.44
298.15	0.3016	30000	807.95	0.46
298.15	0.4097	30000	788.48	0.48
298.15	0.498	30000	773.73	0.5
298.15	0.5983	30000	758.07	0.52
298.15	0.7017	30000	743.08	0.54
298.15	0.7995	30000	729.79	0.56
298.15	0.9032	30000	716.58	0.57
298.15	0.9482	30000	711.27	0.58
303.15	0.0554	30000	853.99	0.4
303.15	0.1017	30000	843.73	0.42
303.15	0.2004	30000	823.05	0.44
303.15	0.3016	30000	803.47	0.46
303.15	0.4097	30000	784.21	0.49
303.15	0.498	30000	769.56	0.51
303.15	0.5983	30000	753.98	0.53
303.15	0.7017	30000	739.18	0.54
303.15	0.7995	30000	726.07	0.56
303.15	0.9032	30000	713.06	0.58
303.15	0.9482	30000	707.83	0.58
313.15	0.0554	30000	844.1	0.42
313.15	0.1017	30000	834.2	0.43
313.15	0.2004	30000	814.01	0.45
313.15	0.3016	30000	794.87	0.48
313.15	0.4097	30000	775.79	0.5
313.15	0.498	30000	761.41	0.52
313.15	0.5983	30000	746.13	0.54
313.15	0.7017	30000	731.52	0.55
313.15	0.7995	30000	718.59	0.57
313.15	0.9032	30000	705.89	0.59
313.15	0.9482	30000	700.51	0.59
323.15	0.0554	30000	834.6	0.43
323.15	0.1017	30000	824.82	0.44
323.15	0.2004	30000	805.07	0.46
323.15	0.3016	30000	786.11	0.49
323.15	0.4097	30000	767.3	0.51
323.15	0.498	30000	753.1	0.53
323.15	0.5983	30000	738.15	0.55
323.15	0.7017	30000	723.78	0.56
323.15	0.7995	30000	711.07	0.58
323.15	0.9032	30000	698.64	0.6
323.15	0.9482	30000	693.47	0.6
283.15	0.0554	40000	881.82	0.42
283.15	0.1017	40000	870.96	0.43
283.15	0.2004	40000	849.41	0.47
283.15	0.3016	40000	829.08	0.5
283.15	0.4097	40000	808.91	0.53
283.15	0.498	40000	793.67	0.56
283.15	0.5983	40000	777.41	0.58
283.15	0.7017	40000	761.79	0.61
283.15	0.7995	40000	747.96	0.63
283.15	0.9032	40000	734.49	0.65
283.15	0.9482	40000	728.9	0.66
293.15	0.0554	40000	872.42	0.43
293.15	0.1017	40000	862.05	0.45
293.15	0.2004	40000	840.65	0.48
293.15	0.3016	40000	820.63	0.51
293.15	0.4097	40000	800.54	0.55
293.15	0.498	40000	785.54	0.57
293.15	0.5983	40000	769.5	0.6
293.15	0.7017	40000	754.19	0.62
293.15	0.7995	40000	740.77	0.64
293.15	0.9032	40000	727.37	0.66
293.15	0.9482	40000	721.88	0.67
298.15	0.0554	40000	867.89	0.44
298.15	0.1017	40000	857.39	0.45
298.15	0.2004	40000	836.44	0.49
298.15	0.3016	40000	816.41	0.52
298.15	0.4097	40000	796.66	0.55
298.15	0.498	40000	781.69	0.58
298.15	0.5983	40000	765.72	0.6
298.15	0.7017	40000	750.52	0.63
298.15	0.7995	40000	737.07	0.65
298.15	0.9032	40000	723.74	0.67
298.15	0.9482	40000	718.29	0.68
303.15	0.0554	40000	863.35	0.45
303.15	0.1017	40000	852.88	0.46
303.15	0.2004	40000	832.1	0.5
303.15	0.3016	40000	812.13	0.53
303.15	0.4097	40000	792.62	0.56
303.15	0.498	40000	777.76	0.58
303.15	0.5983	40000	761.89	0.61
303.15	0.7017	40000	746.9	0.63
303.15	0.7995	40000	733.47	0.65
303.15	0.9032	40000	720.32	0.68
303.15	0.9482	40000	714.92	0.68
313.15	0.0554	40000	854.03	0.46
313.15	0.1017	40000	843.96	0.48
313.15	0.2004	40000	823.46	0.51
313.15	0.3016	40000	804.15	0.54
313.15	0.4097	40000	784.83	0.57
313.15	0.498	40000	770.02	0.59
313.15	0.5983	40000	754.48	0.62
313.15	0.7017	40000	739.67	0.64
313.15	0.7995	40000	726.54	0.67
313.15	0.9032	40000	713.51	0.69
313.15	0.9482	40000	708.05	0.7
323.15	0.0554	40000	844.99	0.47
323.15	0.1017	40000	835.05	0.49
323.15	0.2004	40000	814.92	0.52
323.15	0.3016	40000	795.67	0.55
323.15	0.4097	40000	776.64	0.58
323.15	0.498	40000	762.18	0.61
323.15	0.5983	40000	746.92	0.63
323.15	0.7017	40000	732.28	0.66
323.15	0.7995	40000	719.25	0.68
323.15	0.9032	40000	706.58	0.7
323.15	0.9482	40000	701.31	0.71
283.15	0.0554	50000	889.56	0.45
283.15	0.1017	50000	878.68	0.47
283.15	0.2004	50000	856.76	0.51
283.15	0.3016	50000	836.39	0.55
283.15	0.4097	50000	815.92	0.59
283.15	0.498	50000	800.51	0.62
283.15	0.5983	50000	784.09	0.66
283.15	0.7017	50000	768.34	0.69
283.15	0.7995	50000	754.42	0.71
283.15	0.9032	50000	740.62	0.74
283.15	0.9482	50000	734.97	0.75
293.15	0.0554	50000	880.62	0.46
293.15	0.1017	50000	870	0.49
293.15	0.2004	50000	848.46	0.53
293.15	0.3016	50000	828.17	0.57
293.15	0.4097	50000	807.96	0.61
293.15	0.498	50000	792.71	0.64
293.15	0.5983	50000	776.5	0.67
293.15	0.7017	50000	761.01	0.7
293.15	0.7995	50000	747.33	0.73
293.15	0.9032	50000	733.84	0.76
293.15	0.9482	50000	728.3	0.77
298.15	0.0554	50000	876.38	0.47
298.15	0.1017	50000	865.68	0.49
298.15	0.2004	50000	844.44	0.54
298.15	0.3016	50000	824.32	0.58
298.15	0.4097	50000	804.27	0.61
298.15	0.498	50000	789.1	0.65
298.15	0.5983	50000	772.96	0.68
298.15	0.7017	50000	757.53	0.71
298.15	0.7995	50000	743.9	0.74
298.15	0.9032	50000	730.37	0.76
298.15	0.9482	50000	724.81	0.77
303.15	0.0554	50000	871.81	0.48
303.15	0.1017	50000	861.28	0.5
303.15	0.2004	50000	840.18	0.54
303.15	0.3016	50000	820.14	0.58
303.15	0.4097	50000	800.42	0.62
303.15	0.498	50000	785.33	0.65
303.15	0.5983	50000	769.3	0.68
303.15	0.7017	50000	753.99	0.72
303.15	0.7995	50000	740.47	0.74
303.15	0.9032	50000	727.09	0.77
303.15	0.9482	50000	721.65	0.78
313.15	0.0554	50000	862.97	0.5
313.15	0.1017	50000	852.84	0.52
313.15	0.2004	50000	832.15	0.56
313.15	0.3016	50000	812.43	0.6
313.15	0.4097	50000	792.76	0.64
313.15	0.498	50000	777.91	0.67
313.15	0.5983	50000	762.19	0.7
313.15	0.7017	50000	747.09	0.73
313.15	0.7995	50000	733.8	0.76
313.15	0.9032	50000	720.62	0.78
313.15	0.9482	50000	715.12	0.79
323.15	0.0554	50000	854.39	0.52
323.15	0.1017	50000	844.39	0.54
323.15	0.2004	50000	823.81	0.58
323.15	0.3016	50000	804.37	0.61
323.15	0.4097	50000	785.03	0.65
323.15	0.498	50000	770.31	0.68
323.15	0.5983	50000	754.82	0.71
323.15	0.7017	50000	739.94	0.74
323.15	0.7995	50000	726.85	0.77
323.15	0.9032	50000	713.88	0.8
323.15	0.9482	50000	708.52	0.81
283.15	0.0554	60000	896.85	0.47
283.15	0.1017	60000	885.94	0.5
283.15	0.2004	60000	863.93	0.55
283.15	0.3016	60000	843.17	0.6
283.15	0.4097	60000	822.77	0.65
283.15	0.498	60000	807.05	0.68
283.15	0.5983	60000	790.42	0.72
283.15	0.7017	60000	774.43	0.76
283.15	0.7995	60000	760.28	0.8
283.15	0.9032	60000	746.42	0.83
283.15	0.9482	60000	740.73	0.84
293.15	0.0554	60000	888.24	0.49
293.15	0.1017	60000	877.59	0.52
293.15	0.2004	60000	855.9	0.57
293.15	0.3016	60000	835.3	0.62
293.15	0.4097	60000	814.87	0.67
293.15	0.498	60000	799.57	0.7
293.15	0.5983	60000	783.15	0.74
293.15	0.7017	60000	767.47	0.78
293.15	0.7995	60000	753.62	0.81
293.15	0.9032	60000	739.97	0.84
293.15	0.9482	60000	734.33	0.86
298.15	0.0554	60000	884.1	0.5
298.15	0.1017	60000	873.27	0.53
298.15	0.2004	60000	852	0.58
298.15	0.3016	60000	831.63	0.63
298.15	0.4097	60000	811.3	0.67
298.15	0.498	60000	796.01	0.71
298.15	0.5983	60000	779.73	0.75
298.15	0.7017	60000	764.12	0.79
298.15	0.7995	60000	750.3	0.82
298.15	0.9032	60000	736.68	0.85
298.15	0.9482	60000	731.11	0.87
303.15	0.0554	60000	879.84	0.51
303.15	0.1017	60000	869.24	0.54
303.15	0.2004	60000	847.92	0.59
303.15	0.3016	60000	827.68	0.63
303.15	0.4097	60000	807.57	0.68
303.15	0.498	60000	792.31	0.72
303.15	0.5983	60000	776.11	0.76
303.15	0.7017	60000	760.58	0.8
303.15	0.7995	60000	746.99	0.83
303.15	0.9032	60000	733.41	0.86
303.15	0.9482	60000	727.85	0.87
313.15	0.0554	60000	871.31	0.53
313.15	0.1017	60000	861.07	0.56
313.15	0.2004	60000	840.18	0.61
313.15	0.3016	60000	820.2	0.65
313.15	0.4097	60000	800.35	0.7
313.15	0.498	60000	785.26	0.74
313.15	0.5983	60000	769.28	0.77
313.15	0.7017	60000	753.92	0.81
313.15	0.7995	60000	740.45	0.84
313.15	0.9032	60000	727.14	0.88
313.15	0.9482	60000	721.6	0.89
323.15	0.0554	60000	863.07	0.55
323.15	0.1017	60000	852.83	0.58
323.15	0.2004	60000	832.16	0.62
323.15	0.3016	60000	812.47	0.67
323.15	0.4097	60000	792.82	0.72
323.15	0.498	60000	778.02	0.75
323.15	0.5983	60000	762.27	0.79
323.15	0.7017	60000	747.09	0.83
323.15	0.7995	60000	733.8	0.86
323.15	0.9032	60000	720.67	0.89
323.15	0.9482	60000	715.25	0.9
283.15	0.0554	65000	900.21	0.48
283.15	0.1017	65000	889.29	0.51
283.15	0.2004	65000	867.33	0.57
283.15	0.3016	65000	846.38	0.62
283.15	0.4097	65000	825.84	0.67
283.15	0.498	65000	809.97	0.71
283.15	0.5983	65000	793.31	0.76
283.15	0.7017	65000	777.27	0.8
283.15	0.7995	65000	763.11	0.83
283.15	0.9032	65000	749.1	0.87
283.15	0.9482	65000	743.43	0.89
293.15	0.0554	65000	891.92	0.5
293.15	0.1017	65000	881.11	0.53
293.15	0.2004	65000	859.41	0.59
293.15	0.3016	65000	838.73	0.64
293.15	0.4097	65000	818.27	0.69
293.15	0.498	65000	802.79	0.73
293.15	0.5983	65000	786.25	0.77
293.15	0.7017	65000	770.47	0.82
293.15	0.7995	65000	756.52	0.85
293.15	0.9032	65000	742.75	0.89
293.15	0.9482	65000	737.09	0.9
298.15	0.0554	65000	887.83	0.52
298.15	0.1017	65000	877.03	0.54
298.15	0.2004	65000	855.63	0.6
298.15	0.3016	65000	834.93	0.65
298.15	0.4097	65000	814.66	0.7
298.15	0.498	65000	799.35	0.74
298.15	0.5983	65000	782.96	0.78
298.15	0.7017	65000	767.16	0.82
298.15	0.7995	65000	753.28	0.86
298.15	0.9032	65000	739.66	0.9
298.15	0.9482	65000	734.01	0.91
303.15	0.0554	65000	883.64	0.53
303.15	0.1017	65000	872.96	0.55
303.15	0.2004	65000	851.56	0.61
303.15	0.3016	65000	831.16	0.66
303.15	0.4097	65000	810.96	0.71
303.15	0.498	65000	795.68	0.75
303.15	0.5983	65000	779.38	0.79
303.15	0.7017	65000	763.77	0.83
303.15	0.7995	65000	749.98	0.87
303.15	0.9032	65000	736.38	0.9
303.15	0.9482	65000	730.82	0.92
313.15	0.0554	65000	875.25	0.55
313.15	0.1017	65000	864.95	0.57
313.15	0.2004	65000	843.84	0.63
313.15	0.3016	65000	823.81	0.68
313.15	0.4097	65000	803.85	0.73
313.15	0.498	65000	788.68	0.77
313.15	0.5983	65000	772.62	0.81
313.15	0.7017	65000	757.22	0.85
313.15	0.7995	65000	743.57	0.89
313.15	0.9032	65000	730.17	0.92
313.15	0.9482	65000	724.57	0.94
323.15	0.0554	65000	867.24	0.57
323.15	0.1017	65000	856.84	0.59
323.15	0.2004	65000	836.1	0.65
323.15	0.3016	65000	816.3	0.7
323.15	0.4097	65000	796.58	0.75
323.15	0.498	65000	781.6	0.79
323.15	0.5983	65000	765.81	0.83
323.15	0.7017	65000	750.52	0.87
323.15	0.7995	65000	737.12	0.9
323.15	0.9032	65000	723.9	0.94
323.15	0.9482	65000	718.48	0.95
