Measured thermophysical data. Solubilities and enthalpies of solution of picric acid and picrates at 298.15K in DMF, EtOH and acetic acid
Source: Thermochim. Acta, 2007, 10.1016/j.tca.2007.04.013
Compound 1: 2,4,6-trinitrophenol, C6H3N3O7, InChI=1S/C6H3N3O7/c10-6-4(8(13)14)1-3(7(11)12)2-5(6)9(15)16/h1-2,10H
Compound 2: water, H2O, InChI=1S/H2O/h1H2, purity 99.9%
Compound 3: dimethylformamide, C3H7NO, InChI=1S/C3H7NO/c1-4(2)3-5/h3H,1-2H3, purity 99%
Compound 4: acetic acid, C2H4O2, InChI=1S/C2H4O2/c1-2(3)4/h1H3,(H,3,4), purity 99%
Compound 5: ethanol, C2H6O, InChI=1S/C2H6O/c1-2-3/h3H,2H2,1H3, purity 99%
Compound 6: potassium picrate, C6H2KN3O7, InChI=1S/C6H3N3O7.K/c10-6-4(8(13)14)1-3(7(11)12)2-5(6)9(15)16;/h1-2,10H;/q;+1/p-1
Compound 7: lead dipicrate monohydrate, C12H6N6O15Pb, InChI=1S/2C6H3N3O7.H2O.Pb/c2*10-6-4(8(13)14)1-3(7(11)12)2-5(6)9(15)16;;/h2*1-2,10H;1H2;/q;;;+2/p-2

System: 2,4,6-trinitrophenol + water; phases: Liquid, Crystal
Property: Mass ratio of solute to solvent of 2,4,6-trinitrophenol (Liquid); method: UNKNOWN
Temperature, K	Pressure, kPa	Mass ratio of solute to solvent of 2,4,6-trinitrophenol	uncertainty
298.15	101	0.00254	1e-05

System: dimethylformamide + 2,4,6-trinitrophenol; phases: Liquid
Property: Molar enthalpy of solution, kJ/mol (Liquid); method: Calvet calorimetry
Mass ratio of solute to solvent of 2,4,6-trinitrophenol	Temperature, K	Pressure, kPa	Molar enthalpy of solution, kJ/mol	uncertainty
0.06	298.15	101	-15.97	0.14

System: acetic acid + 2,4,6-trinitrophenol; phases: Liquid, Crystal
Property: Mass ratio of solute to solvent of 2,4,6-trinitrophenol (Liquid); method: UNKNOWN
Temperature, K	Pressure, kPa	Mass ratio of solute to solvent of 2,4,6-trinitrophenol	uncertainty
298.15	101	0.2122	0.0001

System: acetic acid + 2,4,6-trinitrophenol; phases: Liquid
Property: Molar enthalpy of solution, kJ/mol (Liquid); method: Calvet calorimetry
Mass ratio of solute to solvent of 2,4,6-trinitrophenol	Temperature, K	Pressure, kPa	Molar enthalpy of solution, kJ/mol	uncertainty
0.06	298.15	101	8.66	0.38

System: ethanol + 2,4,6-trinitrophenol; phases: Liquid, Crystal
Property: Mass ratio of solute to solvent of 2,4,6-trinitrophenol (Liquid); method: UNKNOWN
Temperature, K	Pressure, kPa	Mass ratio of solute to solvent of 2,4,6-trinitrophenol	uncertainty
298.15	101	0.0745	0.0001

System: ethanol + 2,4,6-trinitrophenol; phases: Liquid
Property: Molar enthalpy of solution, kJ/mol (Liquid); method: Calvet calorimetry
Mass ratio of solute to solvent of 2,4,6-trinitrophenol	Temperature, K	Pressure, kPa	Molar enthalpy of solution, kJ/mol	uncertainty
0.06	298.15	101	9.53	0.16

System: potassium picrate + water; phases: Liquid, Crystal
Property: Mass ratio of solute to solvent of potassium picrate (Liquid); method: UNKNOWN
Temperature, K	Pressure, kPa	Mass ratio of solute to solvent of potassium picrate	uncertainty
298.15	101	0.00892	1e-05

System: dimethylformamide + potassium picrate; phases: Liquid, Crystal
Property: Mass ratio of solute to solvent of potassium picrate (Liquid); method: UNKNOWN
Temperature, K	Pressure, kPa	Mass ratio of solute to solvent of potassium picrate	uncertainty
298.15	101	0.3316	0.0001

System: dimethylformamide + potassium picrate; phases: Liquid
Property: Molar enthalpy of solution, kJ/mol (Liquid); method: Calvet calorimetry
Mass ratio of solute to solvent of potassium picrate	Temperature, K	Pressure, kPa	Molar enthalpy of solution, kJ/mol	uncertainty
0.06	298.15	101	10.71	0.13

System: acetic acid + potassium picrate; phases: Liquid, Crystal
Property: Mass ratio of solute to solvent of potassium picrate (Liquid); method: UNKNOWN
Temperature, K	Pressure, kPa	Mass ratio of solute to solvent of potassium picrate	uncertainty
298.15	101	0.00637	1e-05

System: ethanol + potassium picrate; phases: Liquid, Crystal
Property: Mass ratio of solute to solvent of potassium picrate (Liquid); method: UNKNOWN
Temperature, K	Pressure, kPa	Mass ratio of solute to solvent of potassium picrate	uncertainty
298.15	101	0.00056	1e-05

System: water + lead dipicrate monohydrate; phases: Liquid, Crystal
Property: Mass ratio of solute to solvent of lead dipicrate monohydrate (Liquid); method: UNKNOWN
Temperature, K	Pressure, kPa	Mass ratio of solute to solvent of lead dipicrate monohydrate	uncertainty
298.15	101	0.00706	1e-05

System: dimethylformamide + lead dipicrate monohydrate; phases: Liquid, Crystal
Property: Mass ratio of solute to solvent of lead dipicrate monohydrate (Liquid); method: UNKNOWN
Temperature, K	Pressure, kPa	Mass ratio of solute to solvent of lead dipicrate monohydrate	uncertainty
298.15	101	0.1786	0.0001

System: dimethylformamide + lead dipicrate monohydrate; phases: Liquid
Property: Molar enthalpy of solution, kJ/mol (Liquid); method: Calvet calorimetry
Mass ratio of solute to solvent of lead dipicrate monohydrate	Temperature, K	Pressure, kPa	Molar enthalpy of solution, kJ/mol	uncertainty
0.06	298.15	101	-23.5	0.3

System: acetic acid + lead dipicrate monohydrate; phases: Liquid, Crystal
Property: Mass ratio of solute to solvent of lead dipicrate monohydrate (Liquid); method: UNKNOWN
Temperature, K	Pressure, kPa	Mass ratio of solute to solvent of lead dipicrate monohydrate	uncertainty
298.15	101	0.00587	1e-05

System: ethanol + lead dipicrate monohydrate; phases: Liquid, Crystal
Property: Mass ratio of solute to solvent of lead dipicrate monohydrate (Liquid); method: UNKNOWN
Temperature, K	Pressure, kPa	Mass ratio of solute to solvent of lead dipicrate monohydrate	uncertainty
298.15	101	0.0085	1e-05
