Measured thermophysical data. The thermodynamic properties of 1-bromoadamantane in the gaseous state
Source: Thermochim. Acta, 2005, 10.1016/j.tca.2005.06.043
Compound 1: 1-bromotricyclo[3.3.1.1(3,7)]decane, C10H15Br, InChI=1S/C10H15Br/c11-10-4-7-1-8(5-10)3-9(2-7)6-10/h7-9H,1-6H2, purity 99%
Compound 2: benzoic acid, C7H6O2, InChI=1S/C7H6O2/c8-7(9)6-4-2-1-3-5-6/h1-5H,(H,8,9), purity 99.995%

System: 1-bromotricyclo[3.3.1.1(3,7)]decane; phases: Crystal 2, Gas
Property: Molar enthalpy of vaporization or sublimation, kJ/mol (Crystal 2); method: Static calorimetry
Temperature, K	Molar enthalpy of vaporization or sublimation, kJ/mol	uncertainty
303	71.77	0.63

System: 1-bromotricyclo[3.3.1.1(3,7)]decane; phases: Crystal 2, Gas
Property: Vapor or sublimation pressure, kPa (Crystal 2); method: Calculated from knudsen effusion weight loss
Temperature, K	Vapor or sublimation pressure, kPa	uncertainty
288.36	0.001603	0.000149
293.31	0.002687	0.000267
298.28	0.004279	0.000452
303.22	0.006896	0.000773
308.19	0.0111	0.00132

System: 1-bromotricyclo[3.3.1.1(3,7)]decane; phases: Crystal 1, Gas
Property: Vapor or sublimation pressure, kPa (Crystal 1); method: Calculated from knudsen effusion weight loss
Temperature, K	Vapor or sublimation pressure, kPa	uncertainty
313.16	0.0169	0.00211
314.21	0.01766	0.00222
314.65	0.01847	0.00234
315.63	0.01952	0.00249
316.65	0.0215	0.00278
318.12	0.02411	0.00316
320.59	0.02925	0.00393
323.03	0.03472	0.00476

System: benzoic acid; phases: Crystal, Gas
Property: Vapor or sublimation pressure, kPa (Crystal); method: Calculated from knudsen effusion weight loss
Temperature, K	Vapor or sublimation pressure, kPa	uncertainty
318.02	0.001022	8.9e-05
322.7	0.001693	0.000158
322.99	0.001744	0.000163
327.9	0.00289	0.00029
332.6	0.004567	0.000486
