Measured thermophysical data. Synthesis, Structural Characterization and  Thermochemistry of Copper Pyridine 2,6-dicarboxylate
Source: Thermochim. Acta, 2013, 10.1016/j.tca.2012.12.024
Compound 1: pyridine-2,6-dicarboxylic acid, C7H5NO4, InChI=1S/C7H5NO4/c9-6(10)4-2-1-3-5(8-4)7(11)12/h1-3H,(H,9,10)(H,11,12)
Compound 2: water, H2O, InChI=1S/H2O/h1H2
Compound 3: copper, Cu, InChI=1S/Cu
Compound 4: hydrogen, H2, InChI=1S/H2/h1H
Compound 5: nitrogen, N2, InChI=1S/N2/c1-2
Compound 6: graphite, C
Compound 7: oxygen, O2, InChI=1S/O2/c1-2
Compound 8: cuprate(2-), bis[2,6-pyridinedicarboxylato(2-)-N1,O2,O6]-, dihydrogen, trihydrate, (OC-6-11')-, C14H14CuN2O11, InChI=1S/2C7H5NO4.Cu.3H2O/c2*9-6(10)4-2-1-3-5(8-4)7(11)12;;;;/h2*1-3H,(H,9,10)(H,11,12);;3*1H2/q;;+2;;;/p-2
Compound 9: acetic acid, C2H4O2, InChI=1S/C2H4O2/c1-2(3)4/h1H3,(H,3,4)
Compound 10: copper(II) acetate hydrate, C4H8CuO5, InChI=1S/2C2H4O2.Cu.H2O/c2*1-2(3)4;;/h2*1H3,(H,3,4);;1H2/q;;+2;/p-2

System: cuprate(2-), bis[2,6-pyridinedicarboxylato(2-)-N1,O2,O6]-, dihydrogen, trihydrate, (OC-6-11')-; phases: Crystal
Property: Mass density, kg/m3 (Crystal); method: X-ray diffraction
Temperature, K	Pressure, kPa	Mass density, kg/m3	uncertainty
298	101.325	1714	2

System: cuprate(2-), bis[2,6-pyridinedicarboxylato(2-)-N1,O2,O6]-, dihydrogen, trihydrate, (OC-6-11')-; phases: Crystal
Fixed: Pressure, kPa = 101.325
Property: Molar heat capacity at constant pressure, J/K/mol (Crystal); method: Vacuum adiabatic calorimetry
Temperature, K	Molar heat capacity at constant pressure, J/K/mol	uncertainty
78.209	242.953	1.505
79.799	247.272	1.532
82.147	252.699	1.565
84.573	258.944	1.604
86.91	264.605	1.639
89.109	269.594	1.669
91.307	274.409	1.681
93.506	279.655	1.712
95.635	284.047	1.739
97.678	288.578	1.766
99.721	292.502	1.79
101.76	296.753	1.815
103.81	301.634	1.845
105.7	305.486	1.868
107.67	309.717	1.893
109.56	313.431	1.916
111.53	316.747	1.936
113.35	321.068	1.962
115.16	324.035	1.98
117.6	328.707	2.008
120.04	333.705	2.038
122.5	338.75	2.068
124.72	343.142	2.095
126.83	347.626	2.122
129.41	351.532	2.145
131.99	356.726	2.177
134.71	361.161	2.203
137.29	366.735	2.237
139.94	371.374	2.265
142.52	376.247	2.294
145.16	380.683	2.321
147.74	384.972	2.347
150.31	388.591	2.369
152.96	393.347	2.397
155.54	397.432	2.422
158.11	402.334	2.452
160.7	405.938	2.473
163.2	410.505	2.501
165.75	414.546	2.525
168.34	418.413	2.548
170.97	422.148	2.571
173.56	425.766	2.593
176.06	429.647	2.616
178.93	433.337	2.638
181.61	437.394	2.663
185.47	443.27	2.698
189.24	447.991	2.727
191.88	451.357	2.747
194.79	455.034	2.769
197.56	458.599	2.791
200.29	461.848	2.81
203.1	466.385	2.838
205.74	469.128	2.854
208.56	473.008	2.878
211.19	476.257	2.897
213.87	479.063	2.914
216.42	482.507	2.935
219.01	485.822	2.955
221.51	488.949	2.974
223.92	491.585	2.99
226.58	494.161	3.005
229.14	497.41	3.025
231.64	500.231	3.042
234.16	503.066	3.059
236.96	506.485	3.08
239.23	508.815	3.094
242.34	511.825	3.112
245.82	515.375	3.133
249.32	519.238	3.157
252.09	522.12	3.174
254.91	525.247	3.193
257.73	528.64	3.213
260.59	531.398	3.23
263.45	534.082	3.246
266.41	536.986	3.264
269.31	540.123	3.283
272.18	542.486	3.297
274.99	545.492	3.315
277.95	547.972	3.33
280.72	550.937	3.348
283.77	553.618	3.364
286.86	556.872	3.384
289.36	559.133	3.398
292.49	562.212	3.416
294.81	564.415	3.429
297.34	567.085	3.446
300.44	569.872	3.462
303.43	572.687	3.479
306.34	575.285	3.495
309.32	578.246	3.513
312.22	581.106	3.53
315.2	583.615	3.545
318.04	586.242	3.561
321.02	588.923	3.577
323.93	591.761	3.594
326.7	594.441	3.611
329.54	596.571	3.624
332.31	600.169	3.645
335.14	602.377	3.659
337.98	605.865	3.68
340.13	607.353	3.689
342.35	609.571	3.702
345.05	611.745	3.715
347.82	614.488	3.732
350.52	616.997	3.747
353.22	619.419	3.761
355.85	622.512	3.78
358.34	624.964	3.795
361.04	627.59	3.811
363.74	630.041	3.826
366.24	632.596	3.841
368.66	635.171	3.857
370.95	637.799	3.872
373.16	639.796	3.884
375.17	641.477	3.895
377.11	644.053	3.91
378.84	645.472	3.919
380.43	647.521	3.931
381.96	649.15	3.941
383.2	650.937	3.952

Reaction: 2 acetic acid + -2 pyridine-2,6-dicarboxylic acid + -1 copper(II) acetate hydrate + 1 cuprate(2-), bis[2,6-pyridinedicarboxylato(2-)-N1,O2,O6]-, dihydrogen, trihydrate, (OC-6-11')- + -2 water
Property: Molar enthalpy of reaction, kJ/mol
-16.043

Reaction: -1 copper + 1 cuprate(2-), bis[2,6-pyridinedicarboxylato(2-)-N1,O2,O6]-, dihydrogen, trihydrate, (OC-6-11')- + -7 hydrogen + -1 nitrogen + -14 graphite + -5.5 oxygen
Property: Molar enthalpy of reaction, kJ/mol
-2389.92
