Measured thermophysical data. On the photothermal characterization of liquid thermoelectrics. New methodology based on coupled pyroelectric-Seebeck effects, together with frequency and thickness scanning procedures
Source: Thermochim. Acta, 2017, 10.1016/j.tca.2017.04.013
Compound 1: octan-1-ol, C8H18O, InChI=1S/C8H18O/c1-2-3-4-5-6-7-8-9/h9H,2-8H2,1H3
Compound 2: tetradodecylammonium nitrate, C48H100N2O3, InChI=1S/C48H100N.NO3/c1-5-9-13-17-21-25-29-33-37-41-45-49(46-42-38-34-30-26-22-18-14-10-6-2,47-43-39-35-31-27-23-19-15-11-7-3)48-44-40-36-32-28-24-20-16-12-8-4;2-1(3)4/h5-48H2,1-4H3;/q+1;-1

System: octan-1-ol + tetradodecylammonium nitrate; phases: Liquid
Property: Thermal diffusivity, m2/s (Liquid); method: photopyroelectric-photothermoelectric technique
Amount concentration (molarity), mol/dm3 of tetradodecylammonium nitrate	Pressure, kPa	Temperature, K	Thermal diffusivity, m2/s	uncertainty
0.1	100	298	6.77e-08	1.9e-09
