Measured thermophysical data. Heat capacity and phase behaviour of aqueous 2-(hexyloxytetraethoxy)ethanol by DSC
Source: Thermochim. Acta, 2005, 10.1016/j.tca.2004.11.001
Compound 1: water, H2O, InChI=1S/H2O/h1H2
Compound 2: 2-(hexyloxytetraethoxy)ethanol, C16H34O6, InChI=1S/C16H34O6/c1-2-3-4-5-7-18-9-11-20-13-15-22-16-14-21-12-10-19-8-6-17/h17H,2-16H2,1H3

System: water + 2-(hexyloxytetraethoxy)ethanol; phases: Liquid mixture 1, Liquid mixture 2
Fixed: Pressure, kPa = 101.325
Property: Liquid-liquid equilibrium temperature, K (Liquid mixture 1); method: DSC
Mole fraction of 2-(hexyloxytetraethoxy)ethanol	Liquid-liquid equilibrium temperature, K	uncertainty
0.00281	345.74	0.2
0.00324	346.17	0.2
0.00357	346.35	0.2
0.00398	346.61	0.2
0.00444	346.86	0.2
0.00473	347.05	0.2
0.00503	347.21	0.2
0.00543	347.38	0.2
0.00585	347.63	0.2
0.0063	347.78	0.2
0.0069	347.98	0.2
0.00752	348.32	0.2
0.00819	348.46	0.2
0.00886	348.81	0.2
0.00969	349.09	0.2
0.01071	349.36	0.2
0.01179	349.54	0.2
0.01312	349.47	0.2
0.01453	349.52	0.2
0.01647	349.94	0.2
0.01786	350.42	0.2
0.01996	350.8	0.2
0.02247	351.21	0.2
0.02471	351.58	0.2
0.02729	352.08	0.2
0.0303	352.79	0.2
0.0303	352.67	0.2
0.03518	353.93	0.2
0.0397	354.94	0.2
0.04518	356.44	0.2
0.05201	358.41	0.2
0.06018	361.09	0.2
0.07563	367.08	0.2
0.08524	379.35	0.2

System: water + 2-(hexyloxytetraethoxy)ethanol; phases: Liquid
Fixed: Pressure, kPa = 101.325
Property: Molar heat capacity at constant pressure, J/K/mol (Liquid); method: LDSC:UFactor:0.25
Temperature, K	Mole fraction of 2-(hexyloxytetraethoxy)ethanol	Molar heat capacity at constant pressure, J/K/mol	uncertainty
283	0	75.52726	0.2918
283	0.00036	75.87796	0.2936
283	0.00072	76.24923	0.2954
283	0.00106	76.59586	0.2971
283	0.00146	77.03986	0.299
283	0.00175	77.35451	0.3005
283	0.0018	77.45698	0.3007
283	0.00235	78.12563	0.3034
283	0.00281	78.98334	0.3057
283	0.00324	79.99107	0.3097
283	0.00357	80.50757	0.3114
283	0.00398	80.99708	0.3134
283	0.00473	81.76241	0.3171
283	0.00503	82.05826	0.3186
283	0.00543	82.41408	0.3186
283	0.00585	82.79344	0.3207
283	0.0063	83.10326	0.3209
283	0.0069	83.53687	0.3239
283	0.00752	84.01814	0.3249
283	0.00819	84.47861	0.3281
283	0.00886	84.99773	0.3293
283	0.00969	85.51258	0.3312
283	0.0118	87.08456	0.3371
283	0.01312	88.00419	0.3411
283	0.01647	90.67944	0.3523
283	0.01786	91.43802	0.3541
283	0.01996	92.94038	0.359
283	0.02247	94.72985	0.3679
283	0.02729	98.29521	0.3817
283	0.0303	100.5102	0.3895
283	0.03518	103.9782	0.4021
283	0.0397	107.2403	0.4154
283	0.04518	111.0107	0.4289
283	0.05201	115.6697	0.4468
283	0.06018	121.3821	0.4687
283	0.07563	131.7672	0.5089
283	0.09777	146.1501	0.5638
283	0.13562	170.7692	0.6642
283	0.19782	210.0796	0.8137
283	0.30664	278.4195	1.08
283	0.69244	513.7458	1.991
283	1	686.9532	2.676
288	0	75.41016	0.2918
288	0.00036	75.76197	0.2936
288	0.00072	76.13436	0.2954
288	0.00106	76.5005	0.2971
288	0.00146	76.93834	0.2972
288	0.00175	77.33226	0.2986
288	0.0018	77.41799	0.3007
288	0.00235	78.253	0.3034
288	0.00281	78.98523	0.3057
288	0.00324	79.70225	0.3078
288	0.00357	80.06059	0.3095
288	0.00398	80.46065	0.3115
288	0.00473	81.25658	0.3152
288	0.00503	81.55396	0.3167
288	0.00543	81.90861	0.3167
288	0.00585	82.26884	0.3187
288	0.0063	82.57702	0.3189
288	0.0069	83.02593	0.3219
288	0.00752	83.52677	0.3228
288	0.00819	84.02947	0.3261
288	0.00886	84.56277	0.3273
288	0.00969	85.11424	0.3292
288	0.0118	86.76477	0.3371
288	0.01312	87.74668	0.3389
288	0.01647	90.57121	0.35
288	0.01786	91.38877	0.3541
288	0.01996	92.9741	0.359
288	0.02247	94.8417	0.3679
288	0.02729	98.55581	0.3817
288	0.0303	100.8807	0.3895
288	0.03518	104.4809	0.405
288	0.0397	107.8303	0.4184
288	0.04518	111.6905	0.4321
288	0.05201	116.4787	0.4502
288	0.06018	122.3377	0.4724
288	0.07563	132.8137	0.513
288	0.09777	147.2777	0.5686
288	0.13562	171.9789	0.6642
288	0.19782	211.3939	0.8215
288	0.30664	279.6779	1.08
288	0.69244	515.3475	1.991
288	1	689.2103	2.676
298	0	75.30027	0.2918
298	0.00036	75.65684	0.2936
298	0.00072	76.04319	0.2954
298	0.00106	76.42715	0.2952
298	0.00146	76.91988	0.2972
298	0.00175	77.40645	0.3005
298	0.0018	77.4774	0.3007
298	0.00235	78.20056	0.3034
298	0.00281	78.73991	0.3057
298	0.00324	79.23671	0.3078
298	0.00357	79.52573	0.3075
298	0.00398	79.77617	0.3096
298	0.00473	80.56981	0.3113
298	0.00503	80.8542	0.3127
298	0.00543	81.22218	0.3147
298	0.00585	81.58389	0.3167
298	0.0063	81.89531	0.3169
298	0.0069	82.38222	0.3198
298	0.00752	82.9156	0.3208
298	0.00819	83.46344	0.324
298	0.00886	84.0201	0.3252
298	0.00969	84.64253	0.3271
298	0.0118	86.36935	0.3349
298	0.01312	87.45616	0.3389
298	0.01647	90.4883	0.35
298	0.01786	91.35594	0.3541
298	0.01996	93.06806	0.3614
298	0.02247	95.04303	0.3679
298	0.02729	98.9954	0.3843
298	0.0303	101.4772	0.3922
298	0.03518	105.268	0.4079
298	0.0397	108.7664	0.4214
298	0.04518	112.7866	0.4384
298	0.05201	117.7514	0.457
298	0.06018	123.8347	0.4796
298	0.07563	134.5619	0.5212
298	0.09777	149.313	0.5781
298	0.13562	174.2857	0.676
298	0.19782	213.9131	0.8293
298	0.30664	282.3506	1.091
298	0.69244	519.9695	2.014
298	1	693.9501	2.676
308	0	75.27505	0.2918
308	0.00036	75.64415	0.2936
308	0.00072	76.0286	0.2936
308	0.00106	76.42348	0.2952
308	0.00146	76.94757	0.2972
308	0.00175	77.34895	0.3005
308	0.0018	77.43841	0.3007
308	0.00235	78.06195	0.3016
308	0.00281	78.45119	0.3038
308	0.00324	78.86427	0.3059
308	0.00357	79.17807	0.3075
308	0.00398	79.43393	0.3076
308	0.00473	80.18654	0.3113
308	0.00503	80.47499	0.3108
308	0.00543	80.84652	0.3127
308	0.00585	81.21767	0.3148
308	0.0063	81.53651	0.3149
308	0.0069	82.04226	0.3178
308	0.00752	82.61712	0.3208
308	0.00819	83.17837	0.322
308	0.00886	83.74877	0.3252
308	0.00969	84.4203	0.3271
308	0.0118	86.20513	0.3349
308	0.01312	87.3307	0.3389
308	0.01647	90.47679	0.35
308	0.01786	91.39581	0.3541
308	0.01996	93.17406	0.3614
308	0.02247	95.24436	0.3679
308	0.02729	99.31654	0.3843
308	0.0303	101.8994	0.395
308	0.03518	105.8367	0.4108
308	0.0397	109.4437	0.4244
308	0.04518	113.5999	0.4384
308	0.05201	118.6755	0.4603
308	0.06018	124.9757	0.4833
308	0.07563	135.9736	0.5253
308	0.09777	151.057	0.5829
308	0.13562	176.4206	0.682
308	0.19782	216.4558	0.8371
308	0.30664	285.3017	1.102
308	0.69244	524.5914	2.036
308	1	698.9801	2.708
318	0	75.29666	0.2918
318	0.00036	75.67859	0.2936
318	0.00072	76.06871	0.2954
318	0.00106	76.46382	0.2952
318	0.00146	76.94572	0.2972
318	0.00175	77.24508	0.2986
318	0.0018	77.34931	0.2989
318	0.00235	77.87652	0.3016
318	0.00281	78.26814	0.3038
318	0.00324	78.68376	0.304
318	0.00357	78.99469	0.3056
318	0.00398	79.28589	0.3076
318	0.00473	80.00561	0.3093
318	0.00503	80.30494	0.3108
318	0.00543	80.67344	0.3127
318	0.00585	81.05336	0.3148
318	0.0063	81.37306	0.3149
318	0.0069	81.88536	0.3178
318	0.00752	82.48718	0.3188
318	0.00819	83.05942	0.322
318	0.00886	83.64313	0.3231
318	0.00969	84.34902	0.3271
318	0.0118	86.15976	0.3328
318	0.01312	87.29989	0.3389
318	0.01647	90.50903	0.35
318	0.01786	91.48727	0.3541
318	0.01996	93.25839	0.3614
318	0.02247	95.42332	0.3703
318	0.02729	99.54029	0.3843
318	0.0303	102.1909	0.395
318	0.03518	106.2389	0.4108
318	0.0397	109.9313	0.4244
318	0.04518	114.1749	0.4416
318	0.05201	119.366	0.4637
318	0.06018	125.8441	0.4869
318	0.07563	137.0981	0.5294
318	0.09777	152.5094	0.5925
318	0.13562	178.3419	0.6879
318	0.19782	218.9515	0.8449
318	0.30664	288.4087	1.1136
318	0.69244	529.4651	2.059
318	1	704.913	2.741
328	0	75.35071	0.2918
328	0.00036	75.76921	0.2936
328	0.00072	76.14347	0.2954
328	0.00106	76.53167	0.2971
328	0.00146	76.93095	0.2972
328	0.00175	77.18387	0.2986
328	0.0018	77.28434	0.2989
328	0.00235	77.80909	0.3016
328	0.00281	78.21342	0.3038
328	0.00324	78.62865	0.304
328	0.00357	78.92974	0.3056
328	0.00398	79.24936	0.3076
328	0.00473	79.94919	0.3093
328	0.00503	80.23848	0.3108
328	0.00543	80.60853	0.3127
328	0.00585	80.99199	0.3128
328	0.0063	81.31326	0.3149
328	0.0069	81.823	0.3178
328	0.00752	82.42829	0.3188
328	0.00819	83.02455	0.322
328	0.00886	83.60585	0.3231
328	0.00969	84.37417	0.3271
328	0.0118	86.19001	0.3328
328	0.01312	87.3175	0.3389
328	0.01647	90.57581	0.35
328	0.01786	91.60454	0.3541
328	0.01996	93.30898	0.3614
328	0.02247	95.5476	0.3703
328	0.02729	99.68243	0.3869
328	0.0303	102.3815	0.3977
328	0.03518	106.506	0.4136
328	0.0397	110.2353	0.4274
328	0.04518	114.5339	0.4448
328	0.05201	119.8669	0.4637
328	0.06018	126.5744	0.4905
328	0.07563	137.9558	0.5335
328	0.09777	153.6896	0.5972
328	0.13562	180.032	0.6998
328	0.19782	221.3064	0.8606
328	0.30664	291.4935	1.1248
328	0.69244	534.659	2.082
328	1	711.2328	2.741
338	0	75.42998	0.2918
338	0.00036	75.85078	0.2936
338	0.00072	76.23282	0.2954
338	0.00106	76.60319	0.2971
338	0.00146	76.9568	0.2972
338	0.00175	77.195	0.2986
338	0.0018	77.29548	0.2989
338	0.00235	77.82594	0.3016
338	0.00281	78.26626	0.3038
338	0.00324	78.60775	0.304
338	0.00357	78.99278	0.3056
338	0.00398	79.27243	0.3076
338	0.00473	79.96864	0.3093
338	0.00503	80.25021	0.3108
338	0.00543	80.56723	0.3127
338	0.00585	81.00981	0.3128
338	0.0063	81.32323	0.3149
338	0.0069	81.83105	0.3178
338	0.00752	82.46281	0.3188
338	0.00819	83.05942	0.322
338	0.00886	83.64935	0.3231
338	0.00969	84.46223	0.3271
338	0.0118	86.22026	0.3349
338	0.01312	87.36592	0.3389
338	0.01647	90.43994	0.35
338	0.01786	91.72414	0.3541
338	0.01996	93.3162	0.3614
338	0.02247	95.58737	0.3703
338	0.02729	99.80878	0.3869
338	0.0303	102.5232	0.3977
338	0.03518	106.6755	0.4136
338	0.0397	110.4761	0.4274
338	0.04518	114.8198	0.4448
338	0.05201	120.2054	0.4671
338	0.06018	126.876	0.4905
338	0.07563	138.5591	0.5376
338	0.09777	154.5878	0.5972
338	0.13562	181.4612	0.7057
338	0.19782	223.411	0.8684
338	0.30664	294.3667	1.1359
338	0.69244	538.6403	2.082
338	1	716.9722	2.773
