Measured thermophysical data. Apparent thermodynamic analysis and the dissolution behavior of levamisole hydrochloride in three binary solvent mixtures
Source: Thermochim. Acta, 2019, 10.1016/j.tca.2019.178375
Compound 1: (-)-Levamisole hydrochloride, C11H13ClN2S, InChI=1S/C11H12N2S.ClH/c1-2-4-9(5-3-1)10-8-13-6-7-14-11(13)12-10;/h1-5,10H,6-8H2;1H/t10-;/m1./s1, purity 99%
Compound 2: methanol, CH4O, InChI=1S/CH4O/c1-2/h2H,1H3, purity 99.9%
Compound 3: ethanol, C2H6O, InChI=1S/C2H6O/c1-2-3/h3H,2H2,1H3, purity 99.5%
Compound 4: propan-2-ol, C3H8O, InChI=1S/C3H8O/c1-3(2)4/h3-4H,1-2H3, purity 99.9%
Compound 5: dimethyl sulfoxide, C2H6OS, InChI=1S/C2H6OS/c1-4(2)3/h1-2H3, purity 99.8%

System: (-)-Levamisole hydrochloride; phases: Crystal, Liquid, Air at 1 atmosphere
Property: Normal melting temperature, K (Crystal); method: DTA
Normal melting temperature, K	uncertainty
500.15	4

System: (-)-Levamisole hydrochloride; phases: Crystal, Liquid, Air at 1 atmosphere
Property: Molar enthalpy of transition or fusion, kJ/mol (Crystal); method: DSC
Molar enthalpy of transition or fusion, kJ/mol	uncertainty
31.92386106	2.02232604

System: (-)-Levamisole hydrochloride + methanol + ethanol; phases: Liquid, Crystal
Fixed: Pressure, kPa = 100
Property: Mole fraction of (-)-Levamisole hydrochloride (Liquid); method: Titration method
Temperature, K	Solvent: Mass fraction of methanol	Mole fraction of (-)-Levamisole hydrochloride	uncertainty
283.15	0.2	0.01061	0.00135
283.15	0.4	0.01815	0.0023
283.15	0.6	0.02278	0.00278
283.15	0.8	0.02619	0.00315
288.15	0.2	0.01259	0.00159
288.15	0.4	0.02088	0.00266
288.15	0.6	0.02733	0.00336
288.15	0.8	0.03279	0.00395
293.15	0.2	0.01532	0.00192
293.15	0.4	0.02464	0.00315
293.15	0.6	0.03314	0.00407
293.15	0.8	0.03875	0.00467
298.15	0.2	0.01825	0.00227
298.15	0.4	0.02872	0.00368
298.15	0.6	0.03952	0.00485
298.15	0.8	0.0458	0.00551
303.15	0.2	0.02205	0.00274
303.15	0.4	0.03371	0.00429
303.15	0.6	0.04553	0.0056
303.15	0.8	0.05389	0.00649
308.15	0.2	0.02634	0.00326
308.15	0.4	0.03956	0.00503
308.15	0.6	0.05411	0.00666
308.15	0.8	0.06414	0.00772
313.15	0.2	0.03129	0.00386
313.15	0.4	0.04642	0.00585
313.15	0.6	0.06106	0.0075
313.15	0.8	0.0726	0.00874
318.15	0.2	0.03715	0.00454
318.15	0.4	0.05213	0.00655
318.15	0.6	0.06918	0.00849
318.15	0.8	0.08132	0.00979
323.15	0.2	0.04526	0.00551
323.15	0.4	0.0599	0.00745
323.15	0.6	0.07789	0.00952
323.15	0.8	0.09018	0.01085

System: (-)-Levamisole hydrochloride + methanol + propan-2-ol; phases: Liquid, Crystal
Fixed: Pressure, kPa = 100
Property: Mole fraction of (-)-Levamisole hydrochloride (Liquid); method: Titration method
Temperature, K	Solvent: Mass fraction of methanol	Mole fraction of (-)-Levamisole hydrochloride	uncertainty
283.15	0.2	0.002727	0.000465
283.15	0.4	0.008229	0.001268
283.15	0.6	0.01597	0.00206
283.15	0.8	0.02094	0.00253
288.15	0.2	0.003467	0.000549
288.15	0.4	0.00955	0.001486
288.15	0.6	0.01921	0.00251
288.15	0.8	0.02594	0.00314
293.15	0.2	0.004562	0.000697
293.15	0.4	0.01174	0.00177
293.15	0.6	0.02251	0.00296
293.15	0.8	0.03179	0.00386
298.15	0.2	0.005658	0.000827
298.15	0.4	0.01348	0.00206
298.15	0.6	0.02695	0.00356
298.15	0.8	0.03838	0.00467
303.15	0.2	0.006656	0.000963
303.15	0.4	0.01585	0.00242
303.15	0.6	0.0315	0.00422
303.15	0.8	0.04704	0.00573
308.15	0.2	0.008411	0.001181
308.15	0.4	0.01859	0.00282
308.15	0.6	0.03718	0.005
308.15	0.8	0.05614	0.00683
313.15	0.2	0.01015	0.00142
313.15	0.4	0.02243	0.00333
313.15	0.6	0.04287	0.00574
313.15	0.8	0.06474	0.00788
318.15	0.2	0.01247	0.00169
318.15	0.4	0.02577	0.00385
318.15	0.6	0.05053	0.00671
318.15	0.8	0.07373	0.00897
323.15	0.2	0.0152	0.00207
323.15	0.4	0.03142	0.00456
323.15	0.6	0.05784	0.00767
323.15	0.8	0.08555	0.0104

System: (-)-Levamisole hydrochloride + ethanol + dimethyl sulfoxide; phases: Liquid, Crystal
Fixed: Pressure, kPa = 100
Property: Mole fraction of (-)-Levamisole hydrochloride (Liquid); method: Titration method
Temperature, K	Solvent: Mass fraction of ethanol	Mole fraction of (-)-Levamisole hydrochloride	uncertainty
293.15	0.2	0.01566	0.00188
293.15	0.4	0.01649	0.00198
293.15	0.6	0.01542	0.00186
293.15	0.8	0.01431	0.00172
298.15	0.2	0.01699	0.00204
298.15	0.4	0.01784	0.00214
298.15	0.6	0.0174	0.00209
298.15	0.8	0.01631	0.00196
303.15	0.2	0.01842	0.00221
303.15	0.4	0.0194	0.00233
303.15	0.6	0.01953	0.00234
303.15	0.8	0.01854	0.00223
308.15	0.2	0.01985	0.00238
308.15	0.4	0.02089	0.00251
308.15	0.6	0.02168	0.0026
308.15	0.8	0.02119	0.00254
313.15	0.2	0.02172	0.00261
313.15	0.4	0.0229	0.00275
313.15	0.6	0.02381	0.00286
313.15	0.8	0.02424	0.00291
318.15	0.2	0.02361	0.00284
318.15	0.4	0.02518	0.00303
318.15	0.6	0.02625	0.00315
318.15	0.8	0.027	0.00324
323.15	0.2	0.02568	0.00308
323.15	0.4	0.0276	0.00332
323.15	0.6	0.02946	0.00354
323.15	0.8	0.03066	0.00368
328.15	0.2	0.02813	0.00338
328.15	0.4	0.03037	0.00365
328.15	0.6	0.03221	0.00387
328.15	0.8	0.03385	0.00406
328.15	1	0.0339	0.00407
333.15	0.2	0.03043	0.00366
333.15	0.4	0.03327	0.004
333.15	0.6	0.03535	0.00425
333.15	0.8	0.03812	0.00458
333.15	1	0.03991	0.00479

System: (-)-Levamisole hydrochloride + ethanol; phases: Liquid, Crystal
Fixed: Pressure, kPa = 100
Property: Mole fraction of (-)-Levamisole hydrochloride (Liquid); method: Titration method
Temperature, K	Mole fraction of (-)-Levamisole hydrochloride	uncertainty
328.15	0.0339	0.00407
333.15	0.03991	0.00479
