Measured thermophysical data. Nano-inclusion aided thermal conductivity enhancement in palmitic acid/di-methyl formamide phase change material for latent heat thermal energy storage
Source: Thermochim. Acta, 2019, 10.1016/j.tca.2019.178309
Compound 1: hexadecanoic acid, C16H32O2, InChI=1S/C16H32O2/c1-2-3-4-5-6-7-8-9-10-11-12-13-14-15-16(17)18/h2-15H2,1H3,(H,17,18), purity 98%
Compound 2: dimethylformamide, C3H7NO, InChI=1S/C3H7NO/c1-4(2)3-5/h3H,1-2H3, purity 99%

System: hexadecanoic acid; phases: Crystal, Liquid, Air at 1 atmosphere
Property: Normal melting temperature, K (Crystal); method: DTA:corrimp
Normal melting temperature, K	uncertainty
335.75	4.5

System: hexadecanoic acid; phases: Crystal, Liquid, Air at 1 atmosphere
Property: Normal melting temperature, K (Crystal); method: From refractive index measurements
Normal melting temperature, K	uncertainty
332.15	4

System: hexadecanoic acid; phases: Crystal, Liquid, Air at 1 atmosphere
Property: Normal melting temperature, K (Crystal); method: Infrared thermography
Normal melting temperature, K	uncertainty
334.25	4.1

System: hexadecanoic acid; phases: Crystal, Liquid, Air at 1 atmosphere
Property: Molar enthalpy of transition or fusion, kJ/mol (Crystal); method: DSC
Molar enthalpy of transition or fusion, kJ/mol	uncertainty
43.84851768	8.820988352

System: hexadecanoic acid; phases: Liquid
Property: Thermal conductivity, W/m/K (Liquid); method: THOTW
Temperature, K	Pressure, kPa	Thermal conductivity, W/m/K	uncertainty
343.15	100	0.151	0.008

System: hexadecanoic acid; phases: Crystal
Property: Thermal conductivity, W/m/K (Crystal); method: THOTW
Temperature, K	Pressure, kPa	Thermal conductivity, W/m/K	uncertainty
288.15	100	0.172	0.008

System: hexadecanoic acid; phases: Liquid
Fixed: Pressure, kPa = 100
Property: Refractive index (Na D-line) (Liquid); method: Standard Abbe refractometry
Temperature, K	Refractive index (Na D-line)	uncertainty
336.15	1.4335	0.0006
338.15	1.4329	0.0007
340.15	1.4321	0.0007
342.15	1.4314	0.0007
344.15	1.4306	0.0007
346.15	1.4299	0.0007
348.15	1.429	0.0007

System: hexadecanoic acid + dimethylformamide; phases: Liquid, Crystal
Fixed: Pressure, kPa = 100
Property: Solid-liquid equilibrium temperature, K (Liquid); method: DTA:corrimp
Mass fraction of dimethylformamide	Solid-liquid equilibrium temperature, K	uncertainty
0	335.75	4
0.166	327.95	4
0.274	318.35	4
0.505	309.05	4
0.594	303.95	4

System: hexadecanoic acid + dimethylformamide; phases: Liquid, Crystal
Fixed: Pressure, kPa = 100
Property: Solid-liquid equilibrium temperature, K (Liquid); method: From refractive index measurements
Mass fraction of dimethylformamide	Solid-liquid equilibrium temperature, K	uncertainty
0	332.15	4
0.166	322.15	4
0.274	320.15	4
0.505	313.15	4
0.594	303.15	4

System: hexadecanoic acid + dimethylformamide; phases: Liquid, Crystal
Fixed: Pressure, kPa = 100
Property: Solid-liquid equilibrium temperature, K (Liquid); method: Infrared thermography
Mass fraction of dimethylformamide	Solid-liquid equilibrium temperature, K	uncertainty
0	334.25	4
0.166	324.95	4
0.274	314.75	4
0.505	303.15	4
0.594	301.15	4

System: hexadecanoic acid + dimethylformamide; phases: Liquid
Fixed: Pressure, kPa = 100
Property: Thermal conductivity, W/m/K (Liquid); method: THOTW
Temperature, K	Mass fraction of dimethylformamide	Thermal conductivity, W/m/K	uncertainty
343.15	0	0.151	0.008
333.15	0.166	0.154	0.008
323.15	0.274	0.157	0.008
320.15	0.505	0.163	0.008
320.15	0.594	0.17	0.008

System: hexadecanoic acid + dimethylformamide; phases: Liquid
Fixed: Pressure, kPa = 100
Property: Refractive index (Na D-line) (Liquid); method: Standard Abbe refractometry
Temperature, K	Mass fraction of dimethylformamide	Refractive index (Na D-line)	uncertainty
336.15	0	1.4335	0.01
338.15	0	1.4329	0.01
340.15	0	1.4321	0.01
342.15	0	1.4314	0.01
344.15	0	1.4306	0.01
346.15	0	1.4299	0.01
348.15	0	1.429	0.01
330.15	0.166	1.4345	0.01
332.15	0.166	1.4338	0.01
334.15	0.166	1.4331	0.01
336.15	0.166	1.4324	0.01
338.15	0.166	1.4316	0.01
340.15	0.166	1.4308	0.01
342.15	0.166	1.4301	0.01
344.15	0.166	1.4292	0.01
346.15	0.166	1.4282	0.01
348.15	0.166	1.4272	0.01
308.15	0.594	1.434	0.01
311.15	0.594	1.4331	0.01
313.15	0.594	1.4317	0.01
315.15	0.594	1.4306	0.01
317.15	0.594	1.4294	0.01
319.15	0.594	1.428	0.01
321.15	0.594	1.4263	0.01
323.15	0.594	1.4247	0.01
330.15	0.274	1.4338	0.01
332.15	0.274	1.4331	0.01
334.15	0.274	1.4323	0.01
336.15	0.274	1.4314	0.01
338.15	0.274	1.4305	0.01
340.15	0.274	1.4292	0.01
342.15	0.274	1.4279	0.01
344.15	0.274	1.4269	0.01
346.15	0.274	1.4257	0.01
348.15	0.274	1.4249	0.01
330.15	0.505	1.4342	0.01
332.15	0.505	1.4337	0.01
334.15	0.505	1.4328	0.01
336.15	0.505	1.4323	0.01
338.15	0.505	1.4317	0.01
340.15	0.505	1.4309	0.01
342.15	0.505	1.4302	0.01
344.15	0.505	1.4294	0.01
346.15	0.505	1.4279	0.01
348.15	0.505	1.426	0.0101
