Measured thermophysical data. Temperature dependence vapour pressure measurements of Mg(tmhd)2(tmeda)  [(tmhd = 2,2,6,6-tetramethyl-3,5-heptanedione,  tmeda =N,N,N ,N -tetramethylethylenediamine]
Source: Thermochim. Acta, 2008, 10.1016/j.tca.2008.04.020
Compound 1: bis-2,4-pentanedionato magnesium, C10H14MgO4, InChI=1S/2C5H7O2.Mg/c2*1-4(6)3-5(2)7;/h2*3H,1-2H3;/q2*-1;+2, purity 96%
Compound 2: magnesium bis-2,2,6,6-tetramethyl-3,5-heptanedionate, N,N,N',N'-tetramethylethylenediamine complex, C28H54MgN2O4, InChI=1S/2C11H19O2.C6H16N2.Mg/c2*1-10(2,3)8(12)7-9(13)11(4,5)6;1-7(2)5-6-8(3)4;/h2*7H,1-6H3;5-6H2,1-4H3;/q2*-1;;+2, purity 96%

System: magnesium bis-2,2,6,6-tetramethyl-3,5-heptanedionate, N,N,N',N'-tetramethylethylenediamine complex; phases: Crystal, Liquid, Air at 1 atmosphere
Property: Molar enthalpy of transition or fusion, kJ/mol (Crystal); method: Cryoscopy
Molar enthalpy of transition or fusion, kJ/mol	uncertainty
58.3	5.2

System: magnesium bis-2,2,6,6-tetramethyl-3,5-heptanedionate, N,N,N',N'-tetramethylethylenediamine complex; phases: Crystal, Gas
Property: Vapor or sublimation pressure, kPa (Crystal); method: Transpiration method
Temperature, K	Vapor or sublimation pressure, kPa	uncertainty
363.53	6.438e-05	3.36e-06
372.86	0.00010975	5.66e-06
382.48	0.00024827	1.267e-05
392.08	0.0004386	2.231e-05
401.83	0.00077766	3.949e-05
411.66	0.00161507	8.19e-05

System: bis-2,4-pentanedionato magnesium + magnesium bis-2,2,6,6-tetramethyl-3,5-heptanedionate, N,N,N',N'-tetramethylethylenediamine complex; phases: Liquid, Crystal
Fixed: Pressure, kPa = 101
Property: Solid-liquid equilibrium temperature, K (Liquid); method: DTA
Mole fraction of magnesium bis-2,2,6,6-tetramethyl-3,5-heptanedionate, N,N,N',N'-tetramethylethylenediamine complex	Solid-liquid equilibrium temperature, K	uncertainty
1	417	0.5
0.82	411.9	0.5
0.78	410.5	0.5
0.66	407.6	0.5
0.62	406.5	0.5
