Measured thermophysical data. Thermodynamic stability of Ca3TeO6 determined by a solid electrolyte EMF method
Source: Thermochim. Acta, 2015, 10.1016/j.tca.2015.07.001
Compound 1: tellurium, Te, InChI=1S/Te, purity 99.999%
Compound 2: calcium monoxide, CaO, InChI=1S/Ca.O/q+2;-2, purity 99.9%
Compound 3: oxygen, O2, InChI=1S/O2/c1-2, purity 99.95%
Compound 4: calcium orthotellurate, Ca3O6Te, InChI=1S/3Ca.H6O6Te/c;;;1-7(2,3,4,5)6/h;;;1-6H/q3*+2;/p-6, purity 95%
Compound 5: calcium, Ca, InChI=1S/Ca

Reaction: -3 calcium monoxide + -1 tellurium + 1 calcium orthotellurate + -1.5 oxygen
Property: Molar Gibbs energy of reaction, kJ/mol
-444.32
-449.6
-451.79
-443.28
-445.75
-448.26
-450.64
-454.17
-440.52
-446.81
-437.62
-436.08
-431.99
-427.88
-430.56

Reaction: -3 calcium + -1 tellurium + 1 calcium orthotellurate + -3 oxygen
Property: Molar Gibbs energy of reaction, kJ/mol
-2092.8
-2086.98
-2081.16
-2075.33
-2069.51
-2063.69
-2057.86
-2052.04
-2046.22
-2040.4
-2035.16
