Measured thermophysical data. Effect of temperature on the solvation of 15-crown-5 ether in water-methanol mixtures
Source: Thermochim. Acta, 2012, 10.1016/j.tca.2012.01.011
Compound 1: 1,4,7,10,13-pentaoxacyclopentadecane, C10H20O5, InChI=1S/C10H20O5/c1-2-12-5-6-14-9-10-15-8-7-13-4-3-11-1/h1-10H2, purity 98%
Compound 2: methanol, CH4O, InChI=1S/CH4O/c1-2/h2H,1H3, purity 99.8%
Compound 3: water, H2O, InChI=1S/H2O/h1H2, purity 99.9%

System: methanol + 1,4,7,10,13-pentaoxacyclopentadecane; phases: Liquid, Crystal
Fixed: Pressure, kPa = 101
Property: Molar enthalpy of solution, kJ/mol (Liquid); method: Isoperibol calorimeter
Temperature, K	Molar enthalpy of solution, kJ/mol	uncertainty
293.15	2.35	0.01
298.15	2.65	0.01
303.15	2.91	0.01
308.15	3.17	0.01

System: methanol + water + 1,4,7,10,13-pentaoxacyclopentadecane; phases: Liquid, Crystal
Fixed: Pressure, kPa = 101
Property: Molar enthalpy of solution, kJ/mol (Liquid); method: Isoperibol calorimeter
Temperature, K	Solvent: Mole fraction of water	Molar enthalpy of solution, kJ/mol	uncertainty
293.15	0	2.35	0.01
293.15	0.1	-1.33	0.01
293.15	0.2	-4.77	0.01
293.15	0.3	-7.87	0.01
293.15	0.4	-10.33	0.01
293.15	0.5	-12.03	0.01
293.15	0.6	-13.77	0.01
293.15	0.7	-16.09	0.02
293.15	0.8	-19.41	0.02
293.15	0.9	-26.75	0.03
293.15	0.92	-29.24	0.02
293.15	0.94	-31.74	0.03
293.15	0.96	-34.35	0.04
293.15	0.98	-37.34	0.03
298.15	0	2.65	0.01
298.15	0.1	-0.84	0.01
298.15	0.2	-4.14	0.01
298.15	0.3	-7.11	0.01
298.15	0.4	-9.52	0.01
298.15	0.5	-11.18	0.01
298.15	0.6	-12.92	0.01
298.15	0.7	-15.2	0.01
298.15	0.8	-18.55	0.02
298.15	0.9	-25.8	0.03
298.15	0.92	-28.26	0.03
298.15	0.94	-30.68	0.03
298.15	0.96	-33.18	0.03
298.15	0.98	-36.18	0.04
303.15	0	2.91	0.01
303.15	0.1	-0.39	0.01
303.15	0.2	-3.51	0.01
303.15	0.3	-6.37	0.01
303.15	0.4	-8.72	0.01
303.15	0.5	-10.32	0.01
303.15	0.6	-12.05	0.01
303.15	0.7	-14.35	0.02
303.15	0.8	-17.63	0.03
303.15	0.9	-24.84	0.03
303.15	0.92	-27.29	0.03
303.15	0.94	-29.63	0.02
303.15	0.96	-32.07	0.05
303.15	0.98	-34.93	0.04
308.15	0	3.17	0.01
308.15	0.1	0.07	0.01
308.15	0.2	-2.91	0.01
308.15	0.3	-5.64	0.01
308.15	0.4	-7.92	0.01
308.15	0.5	-9.5	0.01
308.15	0.6	-11.19	0.01
308.15	0.7	-13.49	0.01
308.15	0.8	-16.74	0.02
308.15	0.9	-23.95	0.03
308.15	0.92	-26.4	0.03
308.15	0.94	-28.65	0.03
308.15	0.96	-30.95	0.04
308.15	0.98	-33.7	0.03
