Measured thermophysical data. Thermochemistry of dicesium calcium tetraborate octahydrate
Source: Thermochim. Acta, 2006, 10.1016/j.tca.2006.05.020
Compound 1: calcium monoxide, CaO, InChI=1S/Ca.O/q+2;-2
Compound 2: hydrogen chloride, ClH, InChI=1S/ClH/h1H
Compound 3: cesium chloride, ClCs, InChI=1S/ClH.Cs/h1H;/q;+1/p-1
Compound 4: boric acid, BH3O3, InChI=1S/BH3O3/c2-1(3)4/h2-4H
Compound 5: water, H2O, InChI=1S/H2O/h1H2
Compound 6: Cs2Ca[B4O5(OH)4]2*8H2O, B8CaCs2H24O26, InChI=1S/2B4H4O9.Ca.2Cs.8H2O/c2*5-1(6)11-3(9)13-4(10)12-2(7)8;;;;;;;;;;;/h2*5,7,9-10H;;;;8*1H2/q2*-2;+2;2*+1;;;;;;;;, purity 99.5%

Reaction: 1 calcium monoxide + -2 hydrogen chloride + 2 cesium chloride + 8 boric acid + -1 Cs2Ca[B4O5(OH)4]2*8H2O + 1 water
Property: Molar enthalpy of reaction, kJ/mol
93.65
