Measured thermophysical data. Thermal behavior of benzoyl peroxide mixed with NaOH solution
Source: Thermochim. Acta, 2018, 10.1016/j.tca.2018.10.003
Compound 1: benzoyl peroxide, C14H10O4, InChI=1S/C14H10O4/c15-13(11-7-3-1-4-8-11)17-18-14(16)12-9-5-2-6-10-12/h1-10H

System: benzoyl peroxide; phases: Crystal, Liquid, Air at 1 atmosphere
Property: Triple point temperature, K (Crystal); method: DSC
Triple point temperature, K	uncertainty
377.75	4.1
