Measured thermophysical data. Formation of Ba(1-x)CaxTiO3 solid solutions beyond the solubility limit by 'sputter-anneal' method
Source: Thermochim. Acta, 2019, 10.1016/j.tca.2019.178339
Compound 1: calcium titanium(IV) oxide, CaO3Ti, InChI=1S/Ca.3O.Ti/q+2;3*-2;+4, purity 99%
Compound 2: barium titanium(IV) oxide, BaO3Ti, InChI=1S/Ba.3O.Ti/q+2;3*-2;+4, purity 99%

System: calcium titanium(IV) oxide; phases: Crystal
Property: Relative permittivity at various frequencies (Crystal); method: impedance analyzer Solartron, SI1260
Pressure, kPa	Temperature, K	Frequency, MHz	Relative permittivity at various frequencies	uncertainty
100	298.15	0.001	121	13

System: calcium titanium(IV) oxide; phases: Crystal
Property: Mass density, kg/m3 (Crystal); method: X-ray diffraction
Pressure, kPa	Temperature, K	Mass density, kg/m3	uncertainty
100	298.15	4043	14

System: barium titanium(IV) oxide; phases: Crystal
Property: Relative permittivity at various frequencies (Crystal); method: impedance analyzer Solartron, SI1260
Pressure, kPa	Temperature, K	Frequency, MHz	Relative permittivity at various frequencies	uncertainty
100	298.15	0.001	339	23

System: barium titanium(IV) oxide; phases: Crystal
Property: Mass density, kg/m3 (Crystal); method: X-ray diffraction
Pressure, kPa	Temperature, K	Mass density, kg/m3	uncertainty
100	298.15	5987	16

System: calcium titanium(IV) oxide + barium titanium(IV) oxide; phases: Crystal
Fixed: Pressure, kPa = 100
Fixed: Temperature, K = 298.15
Fixed: Frequency, MHz = 0.001
Property: Relative permittivity at various frequencies (Crystal); method: impedance analyzer Solartron, SI1260
Mole fraction of calcium titanium(IV) oxide	Relative permittivity at various frequencies	uncertainty
0	339	23
0.2	412	53
0.35	568	58
0.5	433	67
0.7	230	77
0.9	142	34
1	121	13

System: calcium titanium(IV) oxide + barium titanium(IV) oxide; phases: Crystal
Fixed: Pressure, kPa = 100
Fixed: Temperature, K = 298.15
Property: Mass density, kg/m3 (Crystal); method: X-ray diffraction
Mole fraction of calcium titanium(IV) oxide	Mass density, kg/m3	uncertainty
0	5987	16
0.2	5647	65
0.35	5358	66
0.5	5096	69
0.7	4676	72
0.9	4279	73
1	4043	14
