Measured thermophysical data. Low-temperature heat-capacity and standard molar enthalpy of formation of copper l-threonate hydrate Cu(C4H6O5)*0.5H2O(s)
Source: Thermochim. Acta, 2006, 10.1016/j.tca.2005.12.008
Compound 1: copper(II) oxide, CuO, InChI=1S/Cu.O/q+2;-2
Compound 2: carbon dioxide, CO2, InChI=1S/CO2/c2-1-3
Compound 3: water, H2O, InChI=1S/H2O/h1H2
Compound 4: oxygen, O2, InChI=1S/O2/c1-2
Compound 5: copper(II) (2R,3S)-2,3,4-trihydroxybutanoate hydrate, C8H16CuO11, InChI=1S/2C4H8O5.Cu.H2O/c2*5-1-2(6)3(7)4(8)9;;/h2*2-3,5-7H,1H2,(H,8,9);;1H2/q;;+2;/p-2/t2*2-,3+;;/m00../s1

System: copper(II) (2R,3S)-2,3,4-trihydroxybutanoate hydrate; phases: Crystal
Fixed: Pressure, kPa = 101.325
Property: Molar heat capacity at constant pressure, J/K/mol (Crystal); method: Small (less than 1 g) adiabatic calorimetry
Temperature, K	Molar heat capacity at constant pressure, J/K/mol	uncertainty
77.95	157.12	1.13
78.769	158.43	1.14
79.578	159.75	1.15
81.053	161.91	1.17
83.228	165.7	1.19
85.304	168.87	1.21
87.325	172.05	1.24
89.303	175.55	1.26
91.237	178.89	1.25
93.138	182.28	1.28
95.007	185.29	1.3
96.853	188.44	1.32
98.652	191.21	1.34
100.437	194.62	1.36
102.181	197.16	1.37
103.922	200.13	1.39
105.629	203.01	1.41
107.323	205.34	1.43
108.995	207.51	1.44
110.656	210.17	1.46
112.292	213.09	1.48
113.914	215.33	1.49
115.525	217.99	1.51
117.122	220.64	1.53
118.705	222.67	1.54
120.276	224.56	1.56
121.829	227.52	1.58
123.374	230.1	1.59
124.902	231.86	1.6
127.773	236.46	1.63
132.031	242.38	1.67
136.293	248.21	1.71
140.39	253.18	1.74
144.488	258.87	1.78
148.503	263.42	1.81
152.437	269.25	1.85
156.37	273.65	1.88
160.222	278.91	1.91
163.992	283.6	1.95
167.761	289.57	1.99
171.531	294.4	2.02
175.219	298.81	2.05
178.906	303.93	2.08
182.512	308.62	2.11
186.036	314.59	2.15
189.633	319.74	2.19
193.173	324.58	2.22
196.607	329.37	2.25
200.049	333.92	2.28
203.479	338.93	2.31
206.757	344.03	2.35
210.139	349.72	2.38
213.407	353.68	2.41
216.696	358.82	2.44
219.869	365.27	2.49
223.068	370.33	2.52
226.267	374.9	2.55
229.388	380.28	2.59
232.43	385.56	2.62
235.446	390.94	2.66
238.483	396.17	2.69
241.434	401.58	2.73
244.302	406.42	2.76
247.252	410.96	2.79
250.168	415.09	2.82
253.07	420.05	2.85
255.939	424.32	2.88
258.807	430.57	2.92
261.593	435.83	2.95
264.379	439.95	2.98
267.248	446.35	3.02
269.952	449.9	3.05
272.738	455.45	3.08
275.443	460.56	3.12
278.147	465.27	3.15
280.868	471.63	3.19
283.457	476.96	3.23
286.112	481.85	3.26
288.636	486.29	3.29
291.259	492.12	3.33
293.799	496.38	3.36
296.176	501.64	3.39
298.716	506.76	3.42
301.339	511.59	3.46
304.731	517.6	3.5
308.009	525.08	3.55
311.681	533.37	3.6
315.352	539.96	3.64
318.302	546.62	3.69
321.219	553.21	3.73
324.169	560.99	3.78
327.087	567.58	3.83
330.185	573.7	3.87
333.381	581.34	3.92
336.119	586.57	3.95
338.865	593.18	4
341.625	602.58	4.06
344.261	609.21	4.1
346.732	617.4	4.16
349.057	625.08	4.21
351.278	633.61	4.27
353.438	639.41	4.3
355.514	652.09	4.39

Reaction: 1 copper(II) oxide + -1 copper(II) (2R,3S)-2,3,4-trihydroxybutanoate hydrate + 8 carbon dioxide + 8 water + -7 oxygen
Property: Molar enthalpy of reaction, kJ/mol
-1616.77
