Measured thermophysical data. Low temperature measurements of the heat capacity and thermodynamic functions of pseudomalachite  Cu5(PO4)2(OH)4
Source: Thermochim. Acta, 2012, 10.1016/j.tca.2010.11.035
Compound 1: copper hydroxide phosphate (Cu5(OH)4(PO4)2), Cu5H4O12P2, InChI=1S/5Cu.2H3O4P.4H2O/c;;;;;2*1-5(2,3)4;;;;/h;;;;;2*(H3,1,2,3,4);4*1H2/q5*+2;;;;;;/p-10, purity 98%

System: copper hydroxide phosphate (Cu5(OH)4(PO4)2); phases: Crystal
Fixed: Pressure, kPa = 101.325
Property: Molar heat capacity at constant pressure, J/K/mol (Crystal); method: Vacuum adiabatic calorimetry
Temperature, K	Molar heat capacity at constant pressure, J/K/mol	uncertainty
1.986	1.6079411893272	0.031663718372
2.004	1.6902668570944	0.031663718372
2.363	2.0011470011104	0.034542238224
2.436	2.0880783006408	0.034542238224
2.729	2.415078155828	0.0362693501352
2.79	2.4225623074432	0.0368450541056
3.057	2.6033333541488	0.0362693501352
3.082	2.67702346236	0.0368450541056
3.35	2.8923367472896	0.0379964620464
3.423	2.8531888773024	0.037420758076
3.647	2.90730505052	0.037420758076
3.774	3.0869246892848	0.0385721660168
3.974	3.0863489853144	0.0379964620464
4.134	2.96487544756	0.0368450541056
4.323	2.9579669999152	0.0368450541056
4.528	3.0259000684224	0.037420758076
4.274	2.4415605384664	0.0322394223424
4.814	2.8883068194968	0.0356936461648
5.496	2.881398371852	0.0351179421944
5.806	2.8635515487696	0.0351179421944
6.092	2.8566431011248	0.034542238224
6.379	2.872762812296	0.034542238224
6.667	2.8854282996448	0.034542238224
6.953	2.9026994187568	0.034542238224
7.236	2.9545127760928	0.0351179421944
7.52	3.0034476135768	0.0351179421944
7.802	3.0535338590016	0.0356936461648
8.082	3.117436999716	0.0362693501352
8.363	3.2003383714536	0.0362693501352
8.642	3.2717256637832	0.0368450541056
8.92	3.3926234975672	0.0379964620464
9.2	3.4968259162096	0.0385721660168
9.479	3.5561234251608	0.0391478699872
9.755	3.7023522336424	0.040299277928
10.031	3.8623979374136	0.0414506858688
10.308	3.9412693813584	0.0420263898392
10.578	4.1928520164232	0.0443292057208
10.851	4.4507673951624	0.0454806136616
11.129	4.550939886012	0.0466320216024
11.404	4.7996440012248	0.0483591335136
11.681	5.002867502776	0.0495105414544
11.957	5.1732758780144	0.0506619493952
12.235	5.3448356611936	0.0512376533656
12.51	5.567057393768	0.0529647652768
12.785	5.8359111479448	0.054691877188
13.062	6.0414374653776	0.0558432851288
13.338	6.2797789091232	0.05757039704
13.614	6.5388456958032	0.0592975089512
13.89	6.868148366872	0.0616003248328
14.167	7.1341236011968	0.0627517327736
14.445	7.4536393047688	0.0650545486552
14.723	7.7956074631864	0.0667816605664
15.001	8.1473625891008	0.069084476448
15.373	8.7006141046552	0.0719629963
15.841	9.2268075336008	0.0742658121816
16.313	9.7127016846184	0.0759929240928
16.786	10.2348651857712	0.0788714439448
17.255	10.9262856542216	0.0823256677672
17.726	11.5906480360632	0.0857798915896
18.197	12.2751600568688	0.0880827074712
18.67	12.93894673474	0.0909612273232
19.143	13.6119446761376	0.0938397471752
19.616	14.3862665163256	0.0967182670272
20.092	15.1185619666744	0.0995967868792
20.568	15.8341620018816	0.1013238987904
21.032	16.5411264775328	0.103626714672
21.497	17.2060645633448	0.1059295305536
21.963	17.9291487501672	0.1076566424648
22.429	18.7184388935856	0.1105351623168
22.894	19.5779649213928	0.112262274228
23.362	20.3937374474496	0.1145650901096
23.831	21.0713410206104	0.1157164980504
24.3	21.8468142687392	0.1174436099616
4.264	2.5866379390072	0.0333908302832
4.984	2.8911853393488	0.0356936461648
5.845	2.8629758447992	0.0351179421944
6.254	2.8572188050952	0.034542238224
6.751	2.8946395631712	0.034542238224
7.252	2.9608455197672	0.0351179421944
7.748	3.0489282272384	0.0356936461648
8.239	3.163493317348	0.0362693501352
8.723	3.3039650861256	0.037420758076
9.202	3.48300902092	0.0385721660168
9.678	3.6948680820272	0.040299277928
10.152	3.9239982622464	0.0420263898392
10.865	4.378228694892	0.0454806136616
11.822	5.0368340370296	0.0495105414544
12.781	5.7933090541352	0.054691877188
13.737	6.6862259122256	0.060448916892
14.692	7.7305529145312	0.066205956596
15.649	8.8623869203376	0.0719629963
16.613	9.9447103846896	0.0771443320336
17.578	11.26940522058	0.0840527796784
18.541	12.6746986123264	0.0898098193824
19.508	14.0972631231848	0.094991155116
20.479	15.5399772730072	0.1001724908496
21.939	17.9942032988224	0.1082323464352
23.894	21.2590205149608	0.1162922020208
25.866	24.818598163944	0.1232006496656
27.842	28.55491693184	0.1260791695176
29.823	32.3712585516216	0.1272305774584
31.808	36.2186881858048	0.1191707218728
33.796	40.0753290835144	0.1249277615768
35.786	43.9573009559216	0.135290433044
37.774	48.0666758966368	0.1427745846592
33.759	39.913556267832	0.1249277615768
35.888	44.1657057932064	0.1358661370144
37.876	48.2031177376216	0.1427745846592
39.859	52.2100173716056	0.149683032304
41.841	56.2566405795472	0.1577428878896
43.827	60.123644148724	0.1646513355344
45.812	63.9791336384928	0.1721354871496
47.799	67.8075650416528	0.1801953427352
49.788	71.5387024738152	0.18710379038
51.772	75.7804893277224	0.1963150539064
53.758	79.8599276619768	0.2032235015512
55.747	83.456926069036	0.210131949196
57.742	86.5789687005152	0.2153132849296
59.735	90.402794471912	0.2251002524264
61.726	94.3820603153168	0.2308572921304
63.721	97.9951784335472	0.2394928516864
65.72	101.458037815503	0.24467418742
67.72	104.852388424982	0.2521583390352
69.722	108.308915063263	0.25906678668
72.225	112.714777548734	0.267702346236
75.24	117.714766531658	0.2774893137328
78.264	122.793626958527	0.2872762812296
81.296	127.802251501007	0.2976389526968
23.336	20.3240772670312	0.1139893861392
23.832	21.1576966161704	0.1157164980504
24.319	21.9308670484176	0.1174436099616
24.805	22.8836571194296	0.1197464258432
25.291	23.8197517753	0.1214735377544
25.778	24.6004063591624	0.1226249456952
26.262	25.5589534698784	0.123776353636
26.746	26.6297628548224	0.1255034655472
27.232	27.4069632148624	0.1255034655472
27.717	28.33902794294	0.1260791695176
28.202	29.1628603245824	0.126654873488
28.686	30.1893405038056	0.1278062814288
29.171	31.1029827048304	0.1278062814288
29.655	32.1467340031656	0.1278062814288
30.139	32.9924431356832	0.1128379781984
30.623	33.9055096327376	0.11514079408
31.111	34.9060831332928	0.1162922020208
31.594	36.090881904376	0.1185950179024
32.082	36.6654344668352	0.1197464258432
32.566	37.6637051515088	0.1203221298136
33.05	38.6890339227912	0.1232006496656
33.536	39.3821815031528	0.1243520576064
34.019	40.230193451552	0.1249277615768
34.502	41.1783778908008	0.1289576893696
34.986	41.9250659404096	0.1306848012808
35.469	43.2376709929216	0.1329876171624
35.954	44.1927638798152	0.1358661370144
36.438	45.0874078498168	0.1358661370144
36.923	46.2008193285704	0.138168952896
37.408	46.9647784972912	0.141047472748
37.893	48.177786762924	0.1427745846592
38.378	49.355101382392	0.1450774005408
38.867	50.3263139804568	0.1462288084816
37.528	47.2129069085336	0.1404717687776
38.065	48.4806070513544	0.1421988806888
38.552	49.470242176472	0.1450774005408
39.039	50.3234354606048	0.1462288084816
39.526	51.3965476614304	0.1491073283336
40.012	52.469659862256	0.1508344402448
40.499	53.6147350593816	0.1531372561264
40.987	54.4627470077808	0.1537129600968
41.476	55.4437465733424	0.1560157759784
41.964	56.165679352224	0.1571671839192
42.45	57.4731030690024	0.1600457037712
42.938	58.3366590246024	0.1617728156824
43.425	59.3044173988448	0.1629242236232
43.914	60.1599134988592	0.1646513355344
44.402	61.1558813676512	0.166954151416
44.891	62.0027419081096	0.1686812633272
45.381	63.1961762387488	0.1704083752384
45.87	64.1069399199216	0.17271119112
46.36	64.8265698829216	0.1738625990608
46.849	65.8185078239208	0.1750140070016
47.338	66.88240876122	0.178468230824
47.828	67.4396902045672	0.1796196387648
48.316	68.894494137768	0.1819224546464
48.807	69.7304163027888	0.1830738625872
49.298	70.5283420057632	0.1848009744984
49.788	71.4068662645936	0.18710379038
50.278	72.4794027614488	0.189982310232
50.768	73.5064586446424	0.1917094221432
51.259	74.7010443832224	0.1945879419952
51.75	75.5979911691056	0.1963150539064
52.241	76.9180803732328	0.1974664618472
52.733	77.838055317932	0.1997692777288
53.226	78.4471501186152	0.2003449816992
53.718	79.6204348102904	0.2026477975808
54.209	80.5029889969136	0.2055263174328
54.701	81.6181275875784	0.2066777253736
55.192	82.7073594995752	0.2084048372848
55.685	83.3020617009984	0.2095562452256
56.177	84.1172585230848	0.210131949196
56.67	85.1477686301008	0.213010469048
57.163	85.6123617342136	0.2135861730184
57.656	86.548456390084	0.2153132849296
58.15	87.4246778330328	0.2176161008112
58.644	88.0786775434072	0.2199189166928
59.137	89.0084394556032	0.221646028604
59.631	90.4379124141064	0.2251002524264
60.124	91.2312324853176	0.2268273643376
60.617	92.250804216896	0.227403068308
61.111	93.2709516524448	0.2297058841896
61.606	94.15638435892	0.2308572921304
62.1	94.8259280764952	0.2320087000712
62.595	95.448839772468	0.233160108012
63.089	96.44480764126	0.236038627864
63.582	97.4914374594472	0.2383414437456
64.076	98.715959804488	0.2412199635976
64.572	99.513309803492	0.2423713715384
65.067	100.520216047722	0.2435227794792
65.563	101.491428645786	0.24467418742
66.059	102.124127309256	0.2464012993312
66.554	102.528847200447	0.247552707272
67.049	103.541510484381	0.2492798191832
67.543	104.996314417582	0.2527340430056
68.04	105.323314272769	0.253309746976
68.536	106.05963965091	0.2538854509464
69.033	107.250771165668	0.2567639707984
69.53	107.7286054611	0.2579153787392
70.026	108.648580405799	0.2596424906504
70.768	110.192618454412	0.2625210105024
71.758	111.841434625638	0.2653995303544
72.752	113.421166320415	0.2688537541768
73.748	115.14136978397	0.2723079779992
74.747	116.763127868587	0.2757622018216
75.749	118.562202776087	0.279216425644
76.752	120.094151041322	0.282094945496
77.756	121.886893205147	0.2855491693184
78.763	123.495985802415	0.2884276891704
78.513	122.635884070638	0.2867005772592
80.863	126.588091827434	0.2947604328448
82.895	130.019287491018	0.3016688804896
84.929	133.392912757562	0.3085773281344
86.967	136.718754594562	0.3154857757792
89.006	140.0399907998	0.3218185194536
91.047	143.331866102547	0.3448466782696
93.09	146.601288950449	0.3477251981216
95.135	149.849986455416	0.351179421944
97.182	153.160284285216	0.3546336457664
99.233	156.10155586999	0.3575121656184
101.286	159.278290378657	0.3603906854704
103.341	162.502232612897	0.3638449092928
105.398	165.65824177863	0.3667234291448
107.456	168.788344265694	0.3696019489968
109.516	171.827485525436	0.3730561728192
111.588	174.800996532552	0.3759346926712
113.648	177.853378983613	0.3788132125232
115.712	180.865462156746	0.3822674363456
117.777	183.956992477794	0.3851459561976
119.843	186.876387311692	0.3880244760496
121.908	190.645521205901	0.391478699872
123.985	193.157317628756	0.3937815157536
126.072	196.130828635872	0.397235739576
128.162	198.971352025826	0.400114259428
130.252	202.069790794518	0.4035684832504
132.343	205.402541079164	0.4064470031024
134.438	208.099138476518	0.4093255229544
136.531	211.09682905039	0.4122040428064
138.623	213.709949372036	0.414506858688
140.713	216.692095938708	0.4179610825104
142.801	219.543557704099	0.420263898392
144.883	222.477345137258	0.423142418244
146.967	225.291386144573	0.426020938096
149.052	228.22287076185	0.428899457948
151.133	231.096784982086	0.4323536817704
153.215	233.925794292632	0.434656497652
155.295	236.840583494767	0.437535017504
157.375	239.688015332366	0.440413537356
159.454	242.949954028652	0.4438677611784
161.528	245.289614964358	0.44617057706
163.608	248.150287993275	0.449049096912
165.686	251.249302465938	0.4525033207344
167.755	254.154304700577	0.4553818405864
169.824	256.59068390331	0.457684656468
171.897	259.223378159949	0.4599874723496
173.967	261.952214979645	0.4622902882312
176.036	264.582030716432	0.4651688080832
178.058	267.234298908065	0.4680473279352
180.119	269.710401684755	0.4703501438168
182.177	272.557257818383	0.4732286636688
184.232	275.609064565474	0.4761071835208
186.271	277.366113083134	0.4784099994024
188.317	280.52557647269	0.4812885192544
190.346	283.211811198576	0.4841670391064
192.373	285.047155456211	0.4858941510176
194.412	288.028150614942	0.4887726708696
196.433	290.589457579252	0.4910754867512
198.448	296.273382879011	0.4968325264552
200.485	296.476606380562	0.4968325264552
202.568	297.226172950023	0.497983934396
204.655	299.498476521192	0.4997110463072
206.743	301.729329406492	0.5020138621888
208.832	303.212342834242	0.5037409741
210.898	306.925057739352	0.5071951979224
212.995	308.650442538641	0.5089223098336
215.1	310.775365893387	0.5112251257152
217.209	311.972254447849	0.512376533656
219.327	314.716059570775	0.515255053508
221.442	316.063206861511	0.5164064614488
223.561	317.973392635298	0.51813357336
225.679	320.195609961042	0.5204363892416
227.792	323.113853387	0.5233149090936
229.898	324.945743420813	0.5256177249752
232.009	327.433360276911	0.5279205408568
234.108	329.501288938588	0.529647652768
236.204	331.37520536224	0.5319504686496
238.298	333.638873373853	0.5342532845312
240.385	335.897360049732	0.5359803964424
242.469	338.19672170751	0.538283212324
244.506	339.631376001746	0.5400103242352
246.588	340.186930333182	0.5405860282056
248.673	342.302066720432	0.5428888440872
250.745	345.605456102587	0.5457673639392
252.802	347.658992165004	0.5480701798208
254.86	348.878333174311	0.549797291732
256.925	351.342346167623	0.5515244036432
258.973	352.495481220334	0.552675811584
261.029	355.063120928318	0.555554331436
263.07	356.311822840116	0.5567057393768
265.119	357.95891189943	0.558432851288
267.162	360.613482906945	0.56131137114
269.183	362.669321785243	0.5630384830512
271.2	364.381465393213	0.5647655949624
273.211	366.197811419825	0.5664927068736
275.214	367.964646904982	0.5682198187848
277.13	369.483353978898	0.5705226346664
279.117	370.370513797284	0.5705226346664
281.098	371.882312423554	0.5722497465776
283.07	373.472406789799	0.5762796743704
285.03	374.980751192247	0.5751282664296
286.98	376.588116677604	0.5768553783408
288.92	377.956565015245	0.5780067862816
290.848	379.292198226573	0.5791581942224
292.766	380.970375300289	0.581461010104
294.675	382.577740785646	0.5826124180448
296.573	384.249585115687	0.584339529956
298.464	385.704964752858	0.5860666418672
300.347	387.056717675358	0.587218049808
302.221	388.387745254922	0.5889451617192
304.088	389.582906697473	0.5895208656896
305.95	390.916237092919	0.5912479776008
307.666	392.315197740991	0.5923993855416
309.519	393.313468425665	0.5935507934824
311.367	394.258198641091	0.5941264974528
313.206	395.532231527586	0.595853609364
315.037	396.390030443482	0.5964293133344
316.856	397.858075568002	0.5981564252456
318.667	399.13498697435	0.5993078331864
320.471	400.153983001958	0.6004592411272
322.27	399.879372208077	0.5998835371568
79.868	125.049810818525	0.2913062090224
83.391	130.839089944867	0.3033959924008
86.435	135.843108855584	0.3131829598976
89.487	140.856339029827	0.3229699273944
92.547	145.833875557906	0.3471494941512
95.614	150.549466779452	0.3517551259144
98.69	155.35429211641	0.3563607576776
101.772	160.054339330756	0.3615420934112
104.862	164.732509794226	0.3661477251744
107.96	169.380167947266	0.3707533569376
111.065	173.985799710466	0.3753589887008
114.178	178.605824072926	0.379964620464
117.301	183.171156558198	0.3845702522272
120.431	187.797513664332	0.38860018002
123.571	192.286853225511	0.394357219724
126.717	196.768132931105	0.3978114435464
129.887	201.357069279163	0.4024170753096
133.044	205.867134183277	0.4070227070728
136.212	210.29084349183	0.4110526348656
139.388	214.73700525523	0.4156582666288
142.57	219.378906368565	0.420263898392
145.768	223.70474600215	0.4242938261848
148.962	227.994891989571	0.428899457948
152.159	232.763447976394	0.4335050897112
155.374	236.936726057824	0.437535017504
158.593	241.283291034344	0.4421406492672
161.818	245.786447490813	0.4467462810304
165.053	250.055868135299	0.4507762088232
168.294	254.681649537463	0.4553818405864
171.545	259.177321842317	0.4599874723496
174.808	262.963151151667	0.463441696172
178.07	267.065041940767	0.4680473279352
181.341	271.307404498645	0.472077255728
184.607	275.79098702012	0.4766828874912
187.886	279.520973044342	0.4801371113136
191.168	283.782333833242	0.4841670391064
194.456	288.45705007289	0.48934837484
197.768	292.029868913193	0.4945297105736
201.102	295.467397320451	0.4956811185144
204.45	299.128298868225	0.4997110463072
207.809	302.20083095825	0.5025895661592
211.163	306.20197355253	0.506619493952
214.52	308.927931852374	0.5089223098336
220.432	314.994700292449	0.5158307574784
223.71	318.69590111815	0.5192849813008
226.981	322.395950535911	0.5227392051232
230.232	325.053400063278	0.5256177249752
233.449	328.840380780569	0.5290719487976
236.658	332.101168068914	0.53252617262
239.849	335.23299766789	0.535404692472
243.026	338.205932971036	0.538283212324
246.186	341.374031920147	0.5417374361464
249.332	343.725206935261	0.5446159559984
252.441	347.614662959283	0.5480701798208
255.557	350.460943388941	0.5509486996728
258.662	353.274984396256	0.5532515155544
261.756	355.994609952426	0.5567057393768
264.838	358.705024245069	0.5590085552584
267.907	361.524246588118	0.5618870751104
271.032	364.618655429018	0.5647655949624
274.079	367.19896062435	0.5676441148144
277.117	369.31467271557	0.5705226346664
280.148	371.318698236533	0.5716740426072
283.166	373.668721843706	0.5762796743704
286.175	376.206424945229	0.5762796743704
289.179	378.731462559403	0.5791581942224
292.178	381.218503711531	0.5820367140744
295.172	383.114872590029	0.5831881220152
298.162	385.307153309312	0.5854909378968
301.147	387.638754389432	0.5877937537784
304.132	389.750436552859	0.59009656966
307.116	391.882844059221	0.5918236815712
310.101	393.878809724598	0.5941264974528
313.088	395.757907483983	0.595853609364
316.075	397.428024702114	0.5975807212752
319.246	399.301941125766	0.5993078331864
322.249	400.775167586019	0.6010349450976
78.288	122.329609558385	0.2867005772592
80.636	126.261091972246	0.2947604328448
82.669	129.665229549222	0.3005174725488
84.705	132.985314346518	0.308001624164
86.741	136.417085714073	0.3149100718088
88.78	139.988177442464	0.3218185194536
90.824	142.91793494783	0.3442709742992
92.87	146.186782091761	0.3477251981216
94.917	149.414754253794	0.3506037179736
96.968	152.584004610846	0.354057941796
99.022	155.75728489569	0.356936461648
101.08	158.954169043322	0.3603906854704
103.146	162.193655284762	0.3632692053224
105.214	165.253521887438	0.3667234291448
107.285	168.32087264173	0.3696019489968
109.36	171.396858955577	0.3724804688488
111.454	174.535597002198	0.3753589887008
113.533	177.595463604874	0.3788132125232
115.618	180.668571398869	0.3816917323752
117.705	183.730165113456	0.3845702522272
119.794	186.762973629523	0.3880244760496
121.884	189.822264528229	0.3909029959016
123.978	192.885585354727	0.3937815157536
126.073	195.908031199327	0.3966600356056
128.17	198.856786935716	0.400114259428
130.27	201.904563755014	0.40299277928
132.372	204.882680393893	0.405871299132
134.475	207.80092381985	0.408749818984
136.579	210.766374971381	0.411628338836
138.683	213.748521538053	0.414506858688
140.787	216.960373988914	0.4179610825104
142.895	219.699573480078	0.4208396023624
145.008	222.66847885543	0.4237181222144
147.112	225.523970548614	0.4265966420664
149.216	228.333405924166	0.4294751619184
151.32	231.430693284918	0.4323536817704
153.424	234.356996566462	0.4352322016224
155.528	237.265453024922	0.4381107214744
157.634	240.084675367971	0.4409892413264
159.74	242.908503342783	0.4438677611784
161.844	246.079480811746	0.4467462810304
163.948	248.702963804859	0.4496248008824
166.054	251.414529505443	0.4525033207344
168.16	254.534845025011	0.4553818405864
170.263	256.991373866708	0.457684656468
172.368	260.202650613599	0.46056317632
174.469	262.817498047156	0.463441696172
176.569	265.135282231986	0.4657445120536
178.652	267.894055658143	0.4686230319056
180.752	270.81057197219	0.4715015517576
182.848	273.12835615702	0.4743800716096
184.947	275.677573337951	0.4761071835208
187.042	278.653387160949	0.4795614073432
189.131	281.435188745922	0.4824399271952
191.22	284.252108273089	0.4847427430768
193.312	287.170927403017	0.4881969668992
195.413	289.889401551246	0.4904997827808
197.527	292.40004656616	0.4956811185144
199.661	294.824911689485	0.495105414544
201.814	296.30044096562	0.4962568224848
203.981	298.780573670103	0.4991353423368
206.157	300.355124029147	0.500862454248
208.338	302.478320271982	0.5025895661592
210.525	304.642967200686	0.5054680860112
212.735	306.695927559133	0.5071951979224
214.928	309.540480876879	0.509498013804
217.131	311.304437842185	0.5118008296856
219.328	313.401151702382	0.5135279415968
221.52	316.315365200546	0.5164064614488
223.717	318.79549790503	0.5192849813008
225.916	320.827732920542	0.521012093212
228.112	322.614718044663	0.5227392051232
230.301	324.747125551025	0.5250420210048
232.486	327.555985222606	0.5279205408568
234.673	328.999275076399	0.5290719487976
236.853	331.747685831089	0.5319504686496
239.034	334.31071990731	0.5348289885016
241.217	335.716589003026	0.5359803964424
243.393	337.203056654599	0.5371318043832
245.562	340.084455026451	0.5400103242352
247.735	342.634823615323	0.5428888440872
249.903	344.629637872759	0.5457673639392
252.072	346.471890578039	0.54691877188
254.241	348.74649696509	0.5492215877616
256.41	350.721737287532	0.5509486996728
258.577	352.700431833797	0.552675811584
260.747	353.814994720491	0.5544029234952
262.911	356.37457457289	0.5567057393768
265.073	358.588732043048	0.5590085552584
267.235	360.526551607414	0.56131137114
269.397	362.657807705835	0.5630384830512
271.558	364.695224057081	0.5647655949624
273.718	367.469541490438	0.5676441148144
275.884	367.354976400329	0.5676441148144
278.047	371.068842713379	0.5710983386368
280.217	374.195490976622	0.5745525624592
282.467	372.858130653382	0.572825450548
284.707	378.681376313978	0.5791581942224
286.998	375.880000794012	0.5762796743704
289.267	379.642226240576	0.5797338981928
291.561	379.868477900943	0.5803096021632
293.839	383.157474683838	0.5831881220152
296.149	382.954251182287	0.5831881220152
298.446	386.353207423529	0.5866423458376
300.782	387.797648685262	0.5877937537784
303.133	389.447616264429	0.5895208656896
305.497	390.659473122121	0.5906722736304
307.872	392.308289293346	0.5923993855416
310.256	393.829299183143	0.5941264974528
312.649	395.417666437477	0.595853609364
315.051	396.743512681308	0.5970050173048
317.465	398.209830693917	0.5981564252456
320.066	399.438958670721	0.5993078331864
322.513	401.448165527417	0.601610649068

System: copper hydroxide phosphate (Cu5(OH)4(PO4)2); phases: Crystal
Fixed: Pressure, kPa = 101.325
Property: Molar heat capacity at constant pressure, J/K/mol (Crystal); method: Vacuum adiabatic calorimetry
Temperature, K	Molar heat capacity at constant pressure, J/K/mol	uncertainty
2	1.668	0.032
2.5	2.16	0.034
3	2.587	0.037
3.5	2.901	0.038
4	3.036	0.038
4.5	2.975	0.037
5	2.898	0.036
6	2.862	0.035
7	2.92	0.035
8	3.1	0.036
9	3.405	0.038
10	3.838	0.042
12	5.17	0.051
14	7.008	0.062
16	9.291	0.074
18	11.945	0.087
20	14.897	0.099
25	23.238	0.12
30	32.732	0.112
35	42.419	0.131
40	52.349	0.15
45	62.311	0.169
50	72.135	0.188
55	81.856	0.207
60	91.139	0.225
65	100.08	0.24
70	108.77	0.26
75	117.13	0.28
80	125.42	0.29
85	133.59	0.31
90	141.63	0.34
95	149.56	0.35
100	157.35	0.36
110	172.43	0.37
120	187.19	0.39
130	201.61	0.4
140	215.71	0.42
150	229.61	0.43
160	243.34	0.44
170	256.76	0.46
180	269.79	0.47
190	282.63	0.48
200	294.24	0.49
210	304.91	0.51
220	314.81	0.52
230	325.01	0.53
240	334.96	0.54
250	344.63	0.54
260	354	0.55
270	363	0.56
273.15	365.72	0.57
280	371.45	0.57
290	379.38	0.58
298.15	385.43	0.59
300	386.75	0.59
310	393.53	0.59
320	399.67	0.6

System: copper hydroxide phosphate (Cu5(OH)4(PO4)2); phases: Crystal
Fixed: Pressure, kPa = 101.325
Property: Molar entropy, J/K/mol (Crystal); method: Vacuum adiabatic calorimetry
Temperature, K	Molar entropy, J/K/mol	uncertainty
2	1.315	0.038
2.5	1.741	0.043
3	2.174	0.048
3.5	2.598	0.053
4	2.997	0.058
4.5	3.352	0.062
5	3.661	0.065
6	4.185	0.07
7	4.629	0.074
8	5.029	0.078
9	5.41	0.08
10	5.79	0.083
12	6.601	0.088
14	7.529	0.094
16	8.61	0.099
18	9.854	0.105
20	11.263	0.111
25	15.453	0.121
30	20.519	0.123
35	26.282	0.141
40	32.593	0.16
45	39.334	0.18
50	46.41	0.201
55	53.745	0.223
60	61.268	0.246
65	68.918	0.269
70	76.654	0.292
75	84.443	0.315
80	92.268	0.338
85	100.12	0.36
90	107.98	0.46
95	115.85	0.47
100	123.72	0.49
110	139.43	0.51
120	155.07	0.53
130	170.62	0.56
140	186.08	0.58
150	201.44	0.6
160	216.69	0.63
170	231.85	0.65
180	246.9	0.67
190	261.84	0.69
200	276.63	0.72
210	291.25	0.74
220	305.67	0.76
230	319.89	0.78
240	333.93	0.8
250	347.8	0.82
260	361.5	0.84
270	375.03	0.86
273.15	379.26	0.87
280	388.39	0.88
290	401.56	0.9
298.15	412.16	0.92
300	414.55	0.92
310	427.34	0.94
320	439.94	0.96

System: copper hydroxide phosphate (Cu5(OH)4(PO4)2); phases: Crystal
Fixed: Pressure, kPa = 101.325
Property: Molar enthalpy function {Hm(T)-Hm(0)}/T, J/K/mol (Crystal); method: Vacuum adiabatic calorimetry
Temperature, K	Molar enthalpy function {Hm(T)-Hm(0)}/T, J/K/mol	uncertainty
2	0.7304	0.0194
2.5	0.9677	0.0213
3	1.203	0.023
3.5	1.425	0.025
4	1.62	0.026
4.5	1.775	0.026
5	1.891	0.027
6	2.054	0.028
7	2.172	0.028
8	2.276	0.029
9	2.383	0.029
10	2.506	0.03
12	2.832	0.031
14	3.292	0.033
16	3.895	0.036
18	4.639	0.039
20	5.515	0.042
25	8.198	0.048
30	11.487	0.065
35	15.208	0.072
40	19.228	0.08
45	23.462	0.089
50	27.84	0.097
55	32.312	0.106
60	36.831	0.115
65	41.354	0.124
70	45.86	0.133
75	50.333	0.142
80	54.767	0.151
85	59.164	0.159
90	63.522	0.264
95	67.843	0.268
100	72.124	0.273
110	80.559	0.281
120	88.833	0.289
130	96.955	0.297
140	104.94	0.31
150	112.78	0.31
160	120.52	0.32
170	128.14	0.33
180	135.65	0.34
190	143.05	0.34
200	150.33	0.35
210	157.44	0.36
220	164.37	0.36
230	171.13	0.37
240	177.75	0.38
250	184.23	0.38
260	190.58	0.39
270	196.8	0.4
273.15	198.74	0.4
280	202.89	0.4
290	208.84	0.41
298.15	213.59	0.41
300	214.65	0.41
310	220.31	0.42
320	225.83	0.43
