Measured thermophysical data. A thermochemical study of serine stereoisomers
Source: Thermochim. Acta, 2014, 10.1016/j.tca.2014.08.032
Compound 1: carbon dioxide, CO2, InChI=1S/CO2/c2-1-3
Compound 2: nitrogen, N2, InChI=1S/N2/c1-2
Compound 3: water, H2O, InChI=1S/H2O/h1H2
Compound 4: oxygen, O2, InChI=1S/O2/c1-2
Compound 5: L-serine, C3H7NO3, InChI=1S/C3H7NO3/c4-2(1-5)3(6)7/h2,5H,1,4H2,(H,6,7)/t2-/m0/s1, purity 98%
Compound 6: (R)-(-)-serine, C3H7NO3, InChI=1S/C3H7NO3/c4-2(1-5)3(6)7/h2,5H,1,4H2,(H,6,7)/t2-/m1/s1, purity 98%
Compound 7: (.+-.)-serine, C3H7NO3, InChI=1S/C3H7NO3/c4-2(1-5)3(6)7/h2,5H,1,4H2,(H,6,7), purity 98%

Reaction: -1 L-serine + 3 carbon dioxide + .5 nitrogen + 3.5 water + -3.25 oxygen
Property: Molar internal energy of reaction at constant volume, kJ/mol
-1443.2

Reaction: -1 (R)-(-)-serine + 3 carbon dioxide + .5 nitrogen + 3.5 water + -3.25 oxygen
Property: Molar internal energy of reaction at constant volume, kJ/mol
-1442.3

Reaction: -1 (.+-.)-serine + 3 carbon dioxide + .5 nitrogen + 3.5 water + -3.25 oxygen
Property: Molar internal energy of reaction at constant volume, kJ/mol
-1435.7
