Measured thermophysical data. Thermodynamic properties of liquid Au-Cu-Sn alloys determined from electromotive force measurements
Source: Thermochim. Acta, 2011, 10.1016/j.tca.2011.08.011
Compound 1: copper, Cu, InChI=1S/Cu, purity 99.9%
Compound 2: tin, Sn, InChI=1S/Sn, purity 99.999%
Compound 3: gold, Au, InChI=1S/Au, purity 99.95%

System: tin + copper + gold; phases: Crystal, Liquid
Fixed: Pressure, kPa = 101
Property: Solid-liquid equilibrium temperature, K (Crystal); method: DTA
Mole fraction of tin	Mole fraction of gold	Solid-liquid equilibrium temperature, K	uncertainty
0.2	0.2	891.8	0.5
0.2	0.4	843	0.5
0.2	0.6	680.9	0.5
0.3	0.175	842.9	0.5
0.3	0.35	734.2	0.5
0.3	0.525	623	0.5
0.4	0.15	830.5	0.5
0.4	0.3	813.9	0.5
0.4	0.45	673.1	0.5
0.5	0.125	813.9	0.5
0.5	0.25	730	0.5
0.5	0.375	706.1	0.5
0.6	0.1	801.5	0.5
0.6	0.2	726.4	0.5
0.6	0.3	688.7	0.5
0.7	0.075	723.8	0.5
0.7	0.15	704.8	0.5
0.7	0.225	663.5	0.5
0.8	0.05	691.2	0.5
0.8	0.1	662.4	0.5
0.8	0.15	599.1	0.5
0.9	0.025	611.9	0.5
0.9	0.05	628.4	0.5
0.9	0.075	586.1	0.5
