Measured thermophysical data. Studies on the thermal decomposition of lanthanum(III) valerate and lanthanum(III) caproate in argon
Source: Thermochim. Acta, 2015, 10.1016/j.tca.2015.05.002
Compound 1: lanthanum(III) pentanoate, C15H27LaO6, InChI=1S/3C5H10O2.La/c3*1-2-3-4-5(6)7;/h3*2-4H2,1H3,(H,6,7);/q;;;+3/p-3, purity 90%
Compound 2: lanthanum(III) hexanoate, C18H33LaO6, InChI=1S/3C6H12O2.La/c3*1-2-3-4-5-6(7)8;/h3*2-5H2,1H3,(H,7,8);/q;;;+3/p-3, purity 90%

System: lanthanum(III) pentanoate; phases: Crystal 2, Crystal 1, Air at 1 atmosphere
Property: Triple point temperature, K (Crystal 2); method: DTA
Triple point temperature, K	uncertainty
366.15	10

System: lanthanum(III) pentanoate; phases: Crystal 1, Smectic liquid crystal, Air at 1 atmosphere
Property: Triple point temperature, K (Crystal 1); method: DTA
Triple point temperature, K	uncertainty
410.95	10

System: lanthanum(III) pentanoate; phases: Smectic liquid crystal, Liquid, Air at 1 atmosphere
Property: Triple point temperature, K (Smectic liquid crystal); method: DTA
Triple point temperature, K	uncertainty
451.65	10

System: lanthanum(III) pentanoate; phases: Crystal 1, Smectic liquid crystal, Air at 1 atmosphere
Property: Molar enthalpy of transition or fusion, kJ/mol (Crystal 1); method: DSC
Molar enthalpy of transition or fusion, kJ/mol	uncertainty
7.07	0.57

System: lanthanum(III) pentanoate; phases: Smectic liquid crystal, Liquid, Air at 1 atmosphere
Property: Molar enthalpy of transition or fusion, kJ/mol (Smectic liquid crystal); method: DSC
Molar enthalpy of transition or fusion, kJ/mol	uncertainty
3	0.53

System: lanthanum(III) hexanoate; phases: Crystal 2, Crystal 1, Air at 1 atmosphere
Property: Triple point temperature, K (Crystal 2); method: DTA
Triple point temperature, K	uncertainty
380.45	10

System: lanthanum(III) hexanoate; phases: Crystal 1, Smectic liquid crystal, Air at 1 atmosphere
Property: Triple point temperature, K (Crystal 1); method: DTA
Triple point temperature, K	uncertainty
406.85	10

System: lanthanum(III) hexanoate; phases: Smectic liquid crystal, Liquid, Air at 1 atmosphere
Property: Triple point temperature, K (Smectic liquid crystal); method: DTA
Triple point temperature, K	uncertainty
459.05	0.5

System: lanthanum(III) hexanoate; phases: Crystal 2, Crystal 1, Air at 1 atmosphere
Property: Molar enthalpy of transition or fusion, kJ/mol (Crystal 2); method: DSC
Molar enthalpy of transition or fusion, kJ/mol	uncertainty
6.22	0.56

System: lanthanum(III) hexanoate; phases: Crystal 1, Smectic liquid crystal, Air at 1 atmosphere
Property: Molar enthalpy of transition or fusion, kJ/mol (Crystal 1); method: DSC
Molar enthalpy of transition or fusion, kJ/mol	uncertainty
4.6	0.54

System: lanthanum(III) hexanoate; phases: Smectic liquid crystal, Liquid, Air at 1 atmosphere
Property: Molar enthalpy of transition or fusion, kJ/mol (Smectic liquid crystal); method: DSC
Molar enthalpy of transition or fusion, kJ/mol	uncertainty
1.34	0.52
