Measured thermophysical data. Organic eutectic mixture as efficient stabilizer for nitrocellulose: Kinetic modeling and stability assessment
Source: Thermochim. Acta, 2019, 10.1016/j.tca.2019.01.015
Compound 1: N-(2-methoxyethyl)-4-nitroaniline, C9H12N2O3, InChI=1S/C9H12N2O3/c1-14-7-6-10-8-2-4-9(5-3-8)11(12)13/h2-5,10H,6-7H2,1H3, purity 98%
Compound 2: diphenylamine, C12H11N, InChI=1S/C12H11N/c1-3-7-11(8-4-1)13-12-9-5-2-6-10-12/h1-10,13H, purity 99%

System: N-(2-methoxyethyl)-4-nitroaniline + diphenylamine; phases: Crystal, Crystal, Liquid, Air at 1 atmosphere
Property: Eutectic temperature, K (Crystal); method: DTA
Eutectic temperature, K	uncertainty
313.7	0.5

System: N-(2-methoxyethyl)-4-nitroaniline + diphenylamine; phases: Crystal, Crystal, Liquid, Air at 1 atmosphere
Property: Eutectic composition: mole fraction of N-(2-methoxyethyl)-4-nitroaniline (Crystal); method: Derived from phase diagram analysis
Eutectic composition: mole fraction of N-(2-methoxyethyl)-4-nitroaniline	uncertainty
0.3129	0.0031
