Measured thermophysical data. Order disorder phase transition in crystalline di-tert-butylphosphinic acid dimer: The role of the ice rules and quantum tunneling
Source: Thermochim. Acta, 2012, 10.1016/j.tca.2010.12.008
Compound 1: di-tert-butylphosphinic acid, C8H19O2P, InChI=1S/C8H19O2P/c1-7(2,3)11(9,10)8(4,5)6/h1-6H3,(H,9,10)

System: di-tert-butylphosphinic acid; phases: Crystal 2, Crystal 1, Gas
Property: Triple point temperature, K (Crystal 2); method: VISOBS
Triple point temperature, K	uncertainty
37.8	0.5

System: di-tert-butylphosphinic acid; phases: Crystal 2, Crystal 1, Gas
Property: Molar enthalpy of transition or fusion, kJ/mol (Crystal 2); method: Adiabatic calorimetry
Molar enthalpy of transition or fusion, kJ/mol	uncertainty
0	0.1

System: di-tert-butylphosphinic acid; phases: Crystal 1
Fixed: Pressure, kPa = 101.325
Property: Molar heat capacity at constant pressure, J/K/mol (Crystal 1); method: ADIACNV
Temperature, K	Molar heat capacity at constant pressure, J/K/mol	uncertainty
81.514	92.046	4.602
82.469	93.111	4.656
83.424	94.176	4.709
84.38	95.242	4.762
85.335	96.413	4.821
86.29	97.479	4.874
87.351	98.651	4.933
88.306	99.822	4.991
89.262	100.888	5.044
90.323	102.06	5.1
91.278	103.232	5.162
92.34	104.403	5.22
93.295	105.575	5.279
94.356	106.747	5.337
95.311	107.812	5.391
96.266	109.091	5.455
97.328	110.156	5.508
98.389	111.328	5.566
99.345	112.393	5.62
100.406	113.565	5.678
101.467	114.737	5.737
102.529	115.803	5.79
103.59	116.974	5.849
104.546	118.04	5.9
105.713	119.318	5.966
106.775	120.49	6.02
107.836	121.555	6.078
108.898	122.727	6.136
109.959	123.899	6.195
111.021	124.964	6.248
112.082	126.243	6.312
113.143	127.308	6.365
114.205	128.48	6.42
115.266	129.545	6.477
116.434	130.611	6.531
117.496	131.889	6.594
118.557	133.168	6.658
119.725	134.339	6.717
120.786	135.298	6.765
121.954	136.47	6.82
123.122	137.642	6.882
124.183	138.92	6.95
125.351	139.986	6.999
126.519	141.051	7.053
127.686	142.223	7.111
128.854	143.395	7.17
130.022	144.567	7.228
131.19	145.739	7.287
132.463	147.017	7.351
133.525	148.189	7.409
134.693	149.041	7.452
135.754	150.32	7.52
137.241	151.278	7.564
138.409	152.45	7.62
139.577	153.516	7.676
141.063	154.794	7.74
142.444	156.072	7.804
143.93	157.564	7.878
145.204	158.736	7.937
146.69	160.121	8.006
148.177	161.399	8.07
149.875	162.997	8.15
151.255	164.382	8.219
152.742	165.767	8.288
154.334	167.045	8.352
155.608	168.324	8.416
157.307	169.709	8.485
158.794	170.987	8.549
160.174	172.372	8.619
162.085	173.757	8.688
163.678	175.249	8.762
164.952	176.42	8.82
166.757	177.805	8.89
168.243	179.297	8.965
169.942	180.788	9.039
171.641	182.28	9.11
173.34	183.771	9.189
174.826	185.05	9.25
176.737	186.861	9.343
182.79	191.655	9.583
183.958	192.72	9.64
185.126	193.786	9.689
186.612	195.064	9.753
188.099	196.236	9.812
189.16	197.301	9.865
190.754	198.366	9.918
192.134	199.645	9.982
193.62	200.923	10.046
195.107	202.202	10.11
196.487	203.374	10.169
198.08	204.652	10.233
199.567	205.717	10.286
201.159	207.102	10.355
202.646	208.274	10.414
204.132	209.553	10.478
205.725	210.724	10.536
207.318	212.003	10.6
209.017	213.175	10.659
210.504	214.453	10.723
212.309	215.732	10.787
213.796	217.01	10.85
215.495	218.501	10.925
217.3	219.78	10.99
218.893	221.165	11.058
220.698	222.763	11.138
222.503	224.041	11.202
224.308	225.533	11.277
225.9	227.237	11.362
227.812	228.622	11.431
229.723	230.114	11.506
231.528	231.818	11.591
233.227	233.203	11.66
235.032	234.695	11.735
236.838	236.08	11.8
238.855	237.571	11.879
240.66	239.062	11.953
242.784	240.767	12.038
244.696	242.152	12.108
246.607	243.75	12.19
248.518	245.348	12.267
250.536	247.053	12.353
252.553	248.757	12.438
254.571	250.249	12.512
256.588	251.847	12.592
258.712	253.445	12.672
260.623	255.256	12.763
262.747	257.067	12.853
264.977	258.771	12.939
266.888	260.689	13.034
269.224	262.393	13.12
271.347	264.631	13.232
273.365	265.909	13.295
275.702	267.401	13.37
277.825	269.318	13.466
280.267	271.449	13.572
282.179	272.621	13.631
284.621	274.964	13.748
286.957	276.989	13.849
289.293	279.013	13.951
291.628	281.143	14.057
293.645	283.168	14.158
295.984	283.487	14.174
38.016	45.28	2.27

System: di-tert-butylphosphinic acid; phases: Crystal 2
Fixed: Pressure, kPa = 101.325
Property: Molar heat capacity at constant pressure, J/K/mol (Crystal 2); method: ADIACNV
Temperature, K	Molar heat capacity at constant pressure, J/K/mol	uncertainty
2.277	0.028	0.002
2.67	0.056	0.005
3.092	0.169	0.01
3.71	0.338	0.018
4.497	0.591	0.03
5.284	0.929	0.048
5.987	1.352	0.069
6.633	1.83	0.09
7.223	2.337	0.118
7.813	2.872	0.145
8.404	3.548	0.179
9.078	4.337	0.218
9.808	5.322	0.267
10.736	6.589	0.331
11.663	7.941	0.398
12.562	9.405	0.471
13.517	10.926	0.547
14.444	12.418	0.622
15.343	13.939	0.698
16.242	15.459	0.774
17.169	17.036	0.852
18.152	18.698	0.936
19.22	20.472	1.024
20.315	22.274	1.114
21.299	23.935	1.197
22.282	25.54	1.28
23.293	27.174	1.359
24.305	28.835	1.442
25.372	30.693	1.535
26.44	32.045	1.602
27.479	33.538	1.677
28.603	35.227	1.762
29.671	36.776	1.839
30.738	38.465	1.924
31.778	40.07	2
32.817	41.873	2.094
34.728	45.111	2.256
35.205	46.012	2.301
35.879	47.279	2.364
36.582	48.406	2.42

System: di-tert-butylphosphinic acid; phases: Crystal 1
Fixed: Pressure, kPa = 101.325
Property: Molar heat capacity at constant pressure, J/K/mol (Crystal 1); method: ADIACNV
Temperature, K	Molar heat capacity at constant pressure, J/K/mol	uncertainty
38.775	45.252	2.263
39.59	45.815	2.291
40.377	46.519	2.326
41.164	47.251	2.363
41.951	48.011	2.401
42.738	48.772	2.439
43.553	49.645	2.482
44.367	50.517	2.526
45.182	51.334	2.567
45.997	52.179	2.609
46.84	53.052	2.653
47.655	53.897	2.695
48.47	54.741	2.737
49.313	55.53	2.78
50.1	56.318	2.816
50.971	57.079	2.854
51.814	57.895	2.895
52.629	58.796	2.94
53.444	59.557	2.978
54.287	60.429	3.022
55.101	61.302	3.065
55.944	62.175	3.109
56.787	63.076	3.154
57.659	63.978	3.199
58.67	65.076	3.254
59.344	65.808	3.29
60.187	66.737	3.337
61.002	67.638	3.382
61.649	68.314	3.416
62.632	69.412	3.471
63.11	69.947	3.497
63.559	70.454	3.523
64.571	71.58	3.58
65.273	72.397	3.62
66.004	73.157	3.658
66.903	74.199	3.71
67.409	74.762	3.738
67.943	75.354	3.768
68.898	76.368	3.818
69.572	77.212	3.861
70.275	77.944	3.897
70.64	78.423	3.921
71.23	79.24	3.96
71.623	79.662	3.983
37.369	47.617	2.381
