Measured thermophysical data. Solubility of hydrogen in methanol at temperatures from 248.41 to 308.20K
Source: Thermochim. Acta, 2005, 10.1016/j.tca.2004.12.001
Compound 1: methanol, CH4O, InChI=1S/CH4O/c1-2/h2H,1H3
Compound 2: hydrogen, H2, InChI=1S/H2/h1H

System: methanol + hydrogen; phases: Liquid, Gas
Property: Mole fraction of hydrogen (Liquid); method: Chromatography
Temperature, K	Pressure, kPa	Mole fraction of hydrogen	uncertainty
248.41	561	0.00057	5e-05
248.41	1361	0.00148	0.00012
248.41	2271	0.00241	0.00019
263.38	482	0.00058	5e-05
263.38	967	0.00108	9e-05
263.38	1550	0.00184	0.00015
263.38	2040	0.00235	0.00019
263.38	3026	0.0034	0.00027
278.01	453.3	0.00062	5e-05
278.01	603	0.00082	7e-05
278.01	920	0.00124	0.0001
278.01	1319	0.00188	0.00015
278.01	1558	0.00213	0.00017
278.01	1984	0.00284	0.00023
278.01	2564	0.00347	0.00028
278.01	3011	0.00413	0.00033
291.2	432.7	0.0007	6e-05
291.2	1292	0.00196	0.00016
291.2	2514	0.00375	0.0003
291.2	3104	0.00477	0.00038
308.2	752	0.00134	0.00011
308.2	1383	0.0026	0.00021
308.2	2635	0.00484	0.00039
308.2	3427	0.00619	0.0005
