Measured thermophysical data. Heat capacity and enthalpy of indapamide
Source: Thermochim. Acta, 2019, 10.1016/j.tca.2019.01.032
Compound 1: Indapamide, C16H16ClN3O3S, InChI=1S/C16H16ClN3O3S/c1-10-8-11-4-2-3-5-14(11)20(10)19-16(21)12-6-7-13(17)15(9-12)24(18,22)23/h2-7,9-10H,8H2,1H3,(H,19,21)(H2,18,22,23), purity 99%

System: Indapamide; phases: Crystal, Liquid, Air at 1 atmosphere
Property: Normal melting temperature, K (Crystal); method: DTA
Normal melting temperature, K	uncertainty
439.7	0.9

System: Indapamide; phases: Crystal, Liquid, Air at 1 atmosphere
Property: Molar enthalpy of transition or fusion, kJ/mol (Crystal); method: DSC
Molar enthalpy of transition or fusion, kJ/mol	uncertainty
28.3522404	0.768254256

System: Indapamide; phases: Glass, Liquid, Air at 1 atmosphere
Property: Triple point temperature, K (Glass); method: DSC
Triple point temperature, K	uncertainty
375.4	4.1

System: Indapamide; phases: Crystal
Fixed: Pressure, kPa = 101.325
Property: Molar heat capacity at constant pressure, J/K/mol (Crystal); method: RELAXCAL
Temperature, K	Molar heat capacity at constant pressure, J/K/mol	uncertainty
1.839	0.0558045258144	0.0026266978848
1.903	0.0614200985904	0.0028827826368
1.985	0.0708879177072	0.0032413012896
2.068	0.0817934697888	0.0036912787824
2.155	0.0946818495216	0.0041778398112
2.246	0.1071312268224	0.004646109072
2.344	0.1198805891184	0.0051692536368
2.443	0.1416185262096	0.0060509168544
2.547	0.1582896435648	0.0066911287344
2.656	0.1808104683264	0.0075984004272
2.77	0.209934621336	0.0087910237008
2.891	0.2398526370768	0.0100385222784
3.017	0.2721046824144	0.011322604392
3.149	0.3159024917136	0.0131261727168
3.291	0.3614855775696	0.0149846163456
3.436	0.421661835936	0.017413763136
3.587	0.478000481376	0.019718525904
3.744	0.563532788544	0.023193961824
3.911	0.64862609328	0.026669397744
4.086	0.743048199696	0.030510669024
4.269	0.837616640256	0.03438852384
4.459	0.9530011128	0.039071216448
4.656	1.087518774672	0.044522163312
4.862	1.245193814832	0.050924282112
5.079	1.408612470144	0.057582485664
5.306	1.604517305424	0.065557696512
5.543	1.834993582224	0.074959665264
5.79	2.058848239008	0.083995798656
6.05	2.342736478368	0.095519612496
6.318	2.631051325584	0.107262927552
6.599	2.97314397072	0.121128087696
6.894	3.327126265056	0.135505417344
7.201	3.731520672	0.146334144
7.521	4.133939568	0.18291768
7.857	4.609525536	0.18291768
8.208	5.158278576	0.219501216
8.574	5.707031616	0.219501216
8.956	6.365535264	0.256084752
9.354	6.987455376	0.292668288
9.769	7.719126096	0.329251824
10.242	8.523963888	0.329251824
10.696	9.365385216	0.36583536
11.171	10.206806544	0.402418896
11.669	11.15797848	0.439002432
12.188	12.182317488	0.475585968
12.727	13.279823568	0.512169504
13.289	14.413913184	0.54875304
13.876	15.621169872	0.621920112
14.491	16.901593632	0.658503648
15.133	18.255184464	0.695087184
15.635	19.352690544	0.768254256
17.089	22.462291104	0.878004864
18.681	25.901143488	0.987755472
20.406	29.742414768	1.134089616
22.315	33.693436656	1.317007296
24.389	38.083460976	1.46334144
26.647	42.766153584	1.64625912
29.127	47.92443216	1.865760336
31.832	53.338795488	2.048678016
34.789	59.045827104	2.304762768
38.024	65.11869408	2.524263984
41.555	71.52081288	2.780348736
45.415	78.28876704	3.036433488
49.631	84.983554128	3.29251824
54.236	92.300261328	3.585186528
59.27	100.092554496	3.877854816
64.773	108.214099488	4.20710664
70.778	116.555145696	4.499774928
77.353	125.920530912	4.865610288
84.496	136.895591712	5.30461272
92.365	148.126737264	5.743615152
100.93	158.04087552	6.109450512
111.03	170.515861296	6.621620016
121.08	184.344437904	7.13378952
131.2	196.782840144	7.609375488
141.28	208.928574096	8.084961456
151.33	222.208397664	8.59713096
161.44	234.646799904	9.072716928
171.53	246.829117392	9.548302896
181.61	258.718766592	10.023888864
191.68	270.937667616	10.499474832
201.77	283.15656864	10.9750608
211.85	294.936467232	11.414063232
221.95	306.643198752	11.8896492
232.03	318.606015024	12.328651632
242.1	330.568831296	12.8042376
252.19	343.043817072	13.279823568
262.28	355.152967488	13.755409536
272.38	367.225534368	14.230995504
282.46	379.37126832	14.706581472
292.53	389.724409008	15.109000368
302.64	401.431140528	15.5480028
302.65	406.44308496	15.73092048

System: Indapamide; phases: Crystal
Fixed: Pressure, kPa = 101.325
Property: Molar heat capacity at constant pressure, J/K/mol (Crystal); method: DSC
Temperature, K	Molar heat capacity at constant pressure, J/K/mol	uncertainty
239.15	318.64259856	16.82842656
240.15	320.47177536	15.36508512
241.15	322.30095216	14.99924976
242.15	323.7642936	14.26757904
243.15	325.5934704	15.36508512
244.15	327.4226472	14.99924976
245.15	329.251824	14.99924976
246.15	331.0810008	14.99924976
247.15	333.27601296	14.6334144
248.15	335.10518976	14.6334144
249.15	336.93436656	14.26757904
250.15	339.12937872	14.26757904
251.15	340.95855552	14.26757904
252.15	342.78773232	13.90174368
253.15	344.61690912	14.6334144
254.15	346.81192128	13.90174368
255.15	348.27526272	14.26757904
256.15	349.73860416	13.90174368
257.15	351.56778096	13.90174368
258.15	352.66528704	14.26757904
259.15	354.12862848	13.90174368
260.15	355.59196992	14.26757904
261.15	357.05531136	14.26757904
262.15	358.15281744	14.26757904
263.15	359.25032352	13.90174368
264.15	360.3478296	13.90174368
265.15	361.81117104	13.90174368
266.15	363.27451248	14.26757904
267.15	364.73785392	14.26757904
268.15	365.83536	14.26757904
269.15	367.29870144	14.26757904
270.15	368.76204288	14.26757904
271.15	370.22538432	14.26757904
272.15	371.68872576	14.26757904
273.15	373.1520672	14.6334144
274.15	374.24957328	14.6334144
275.15	375.71291472	14.6334144
276.15	377.17625616	14.6334144
277.15	378.27376224	14.6334144
278.15	379.37126832	14.6334144
279.15	380.83460976	14.6334144
280.15	382.2979512	14.6334144
281.15	383.39545728	14.99924976
282.15	384.85879872	14.99924976
283.15	386.32214016	14.99924976
284.15	387.7854816	14.99924976
285.15	389.24882304	14.99924976
286.15	390.71216448	14.99924976
287.15	392.17550592	15.36508512
288.15	393.273012	15.36508512
289.15	394.73635344	15.36508512
290.15	396.19969488	15.36508512
291.15	397.66303632	15.36508512
292.15	399.49221312	15.36508512
293.15	400.5897192	20.1209448
294.15	401.68722528	20.1209448
295.15	403.51640208	20.1209448
296.15	404.97974352	20.1209448
297.15	406.0772496	20.48678016
298.15	407.54059104	20.48678016
299.15	409.00393248	20.48678016
300.15	410.46727392	20.48678016
302.15	413.02812144	16.09675584
303.15	414.12562752	16.09675584
304.15	415.58896896	16.09675584
305.15	416.68647504	16.09675584
306.15	418.14981648	16.09675584
307.15	419.24732256	16.09675584
308.15	420.710664	16.4625912
309.15	422.17400544	16.4625912
310.15	423.27151152	16.4625912
311.15	424.73485296	16.4625912
312.15	425.83235904	16.4625912
313.15	427.29570048	16.4625912
314.15	428.75904192	16.82842656
315.15	429.856548	16.82842656
316.15	430.95405408	17.19426192
317.15	432.41739552	17.56009728
318.15	433.88073696	18.291768
319.15	434.97824304	18.65760336
320.15	436.44158448	18.65760336
321.15	437.53909056	19.02343872
322.15	439.002432	19.02343872
323.15	440.46577344	19.38927408
324.15	441.56327952	20.1209448
325.15	443.02662096	20.1209448
326.15	444.12412704	20.48678016
327.15	445.22163312	20.85261552
328.15	446.68497456	21.58428624
329.15	448.148316	21.9501216
330.15	449.24582208	22.68179232
331.15	450.70916352	22.68179232
332.15	451.8066696	23.7792984
333.15	452.90417568	23.7792984
334.15	454.36751712	23.41346304
335.15	455.4650232	23.7792984
336.15	456.56252928	24.51096912
337.15	458.02587072	24.87680448
338.15	459.1233768	24.87680448
339.15	460.58671824	24.87680448
340.15	461.68422432	25.24263984
341.15	463.14756576	25.24263984
342.15	464.6109072	25.6084752
343.15	465.34257792	26.34014592
344.15	466.440084	26.34014592
345.15	468.2692608	26.34014592
346.15	469.36676688	25.97431056
347.15	470.46427296	25.24263984
348.15	471.56177904	25.24263984
349.15	472.65928512	24.87680448
350.15	474.12262656	23.41346304
351.15	475.22013264	22.68179232
352.15	476.31763872	21.9501216
353.15	477.4151448	20.48678016
354.15	478.87848624	20.1209448
355.15	479.97599232	19.75510944
356.15	481.0734984	20.1209448
357.15	482.17100448	20.1209448
358.15	482.9026752	20.1209448
359.15	484.36601664	20.1209448
360.15	485.46352272	20.1209448
361.15	486.5610288	20.1209448
362.15	488.02437024	20.1209448
363.15	489.12187632	19.75510944
364.15	490.2193824	19.38927408
365.15	490.95105312	19.38927408
366.15	492.41439456	19.02343872
367.15	493.877736	19.02343872
368.15	494.97524208	19.02343872
369.15	496.07274816	19.38927408
370.15	497.17025424	19.38927408
371.15	498.26776032	19.38927408
372.15	499.3652664	19.38927408
373.15	500.46277248	19.38927408
374.15	501.56027856	19.38927408
375.15	503.02362	19.38927408
376.15	503.75529072	25.24263984
377.15	505.21863216	25.24263984
378.15	506.31613824	19.75510944
379.15	507.41364432	19.75510944
380.15	508.5111504	19.75510944
381.15	509.97449184	19.75510944
382.15	510.70616256	19.75510944
383.15	511.80366864	19.75510944
384.15	513.26701008	19.75510944
385.15	514.36451616	20.48678016
386.15	515.8278576	20.85261552
387.15	516.55952832	20.85261552
388.15	518.02286976	22.31595696
389.15	519.12037584	23.04762768
390.15	520.21788192	23.04762768
391.15	521.315388	24.51096912
392.15	522.77872944	24.87680448
393.15	523.87623552	24.87680448
394.15	524.60790624	25.6084752
395.15	525.70541232	26.70598128
396.15	526.8029184	26.70598128
397.15	527.90042448	27.07181664
398.15	529.36376592	27.80348736
399.15	530.461272	28.16932272
400.15	531.55877808	28.90099344
401.15	532.65628416	29.63266416
402.15	533.38795488	29.99849952
403.15	534.48546096	29.99849952
404.15	535.58296704	29.99849952
405.15	537.04630848	29.99849952
406.15	538.14381456	29.99849952
407.15	539.24132064	30.73017024
408.15	539.97299136	31.46184096
409.15	541.07049744	30.73017024
410.15	542.53383888	31.46184096
411.15	543.63134496	30.73017024
412.15	544.36301568	31.46184096
413.15	545.82635712	32.19351168
414.15	546.55802784	32.19351168
415.15	547.65553392	31.46184096
416.15	549.11887536	31.46184096
417.15	550.21638144	31.46184096
418.15	551.31388752	32.19351168
419.15	552.4113936	35.12019456
420.15	553.50889968	34.7543592
421.15	554.97224112	34.02268848
422.15	556.0697472	32.9251824
423.15	557.53308864	32.19351168
424.15	559.36226544	32.19351168
425.15	560.82560688	32.55934704
426.15	562.65478368	32.55934704
427.15	564.11812512	32.55934704
428.15	566.67897264	31.82767632
429.15	569.97149088	32.19351168
430.15	575.82485664	32.55934704
431.15	582.77572848	35.12019456
432.15	595.94580144	33.29101776
433.15	616.06674624	31.82767632

System: Indapamide; phases: Liquid
Fixed: Pressure, kPa = 101.325
Property: Molar heat capacity at constant pressure, J/K/mol (Liquid); method: DSC
Temperature, K	Molar heat capacity at constant pressure, J/K/mol	uncertainty
456.15	766.79091456	261.93811776
457.15	764.96173776	189.13688112
458.15	764.23006704	127.31070528
459.15	763.13256096	81.94712064
460.15	761.66921952	56.7044808
461.15	762.03505488	44.26607856
462.15	762.40089024	39.87605424
463.15	760.9375488	37.68104208
464.15	760.57171344	38.04687744
465.15	761.30338416	37.68104208
466.15	761.66921952	37.31520672
467.15	762.03505488	36.583536
468.15	762.40089024	36.583536
469.15	762.7667256	36.21770064
470.15	763.13256096	35.12019456
471.15	764.23006704	35.12019456
472.15	764.96173776	35.85186528
473.15	765.69340848	35.48602992
474.15	766.79091456	34.7543592
475.15	767.52258528	34.02268848
476.15	768.254256	34.38852384
477.15	770.0834328	35.48602992
478.15	770.81510352	35.12019456
479.15	771.54677424	35.12019456
480.15	773.01011568	34.7543592
481.15	773.7417864	34.7543592
482.15	773.37595104	35.12019456
483.15	773.37595104	37.31520672
484.15	773.7417864	36.583536
485.15	774.83929248	36.583536
486.15	774.47345712	36.583536
487.15	774.83929248	36.21770064
488.15	775.20512784	35.12019456
489.15	775.20512784	35.48602992
490.15	775.20512784	35.12019456
491.15	775.20512784	34.7543592
492.15	775.5709632	35.12019456
493.15	775.5709632	35.48602992
494.15	775.5709632	34.7543592
495.15	775.20512784	35.12019456
496.15	774.10762176	35.48602992
497.15	772.64428032	34.7543592
498.15	771.9126096	34.38852384
499.15	771.54677424	34.38852384
500.15	768.98592672	34.38852384
393.15	684.84379392	26.70598128
394.15	685.20962928	26.70598128
395.15	685.20962928	26.70598128
396.15	685.9413	26.70598128
397.15	686.67297072	26.70598128
398.15	687.03880608	26.70598128
399.15	688.13631216	26.70598128
400.15	688.50214752	26.70598128
401.15	689.23381824	26.70598128
402.15	690.33132432	26.70598128
403.15	691.06299504	26.70598128
404.15	692.16050112	26.70598128
405.15	693.2580072	26.70598128
406.15	693.62384256	26.70598128
407.15	694.35551328	27.07181664
408.15	695.087184	27.07181664
409.15	696.18469008	27.07181664
410.15	696.9163608	27.07181664
411.15	698.01386688	27.07181664
412.15	698.37970224	27.07181664
413.15	699.11137296	27.07181664
414.15	699.84304368	27.07181664
415.15	700.94054976	27.07181664
416.15	702.03805584	27.07181664
417.15	702.4038912	27.07181664
418.15	703.86723264	27.437652
419.15	704.59890336	27.437652
420.15	705.33057408	27.437652
421.15	706.0622448	27.437652
422.15	707.15975088	27.437652
423.15	708.25725696	27.437652
424.15	708.98892768	27.437652
425.15	709.7205984	27.437652
426.15	710.45226912	27.437652
427.15	712.28144592	27.437652
428.15	712.64728128	27.437652
429.15	713.01311664	27.437652
430.15	714.11062272	27.80348736
431.15	714.84229344	27.80348736
432.15	715.93979952	27.80348736
433.15	716.30563488	27.80348736
434.15	717.40314096	27.80348736
435.15	718.13481168	27.80348736
436.15	718.8664824	27.80348736
437.15	719.59815312	27.80348736
438.15	720.32982384	27.80348736
439.15	721.06149456	27.80348736
440.15	722.15900064	27.80348736
441.15	722.89067136	28.16932272
442.15	723.98817744	28.16932272
395.15	688.50214752	34.38852384
396.15	688.50214752	34.38852384
397.15	688.50214752	34.38852384
398.15	688.86798288	34.38852384
399.15	689.23381824	34.38852384
400.15	689.5996536	34.38852384
401.15	690.69715968	34.38852384
402.15	691.4288304	34.38852384
403.15	692.16050112	34.38852384
404.15	692.89217184	34.38852384
405.15	693.62384256	34.38852384
406.15	694.72134864	34.38852384
407.15	695.81885472	34.38852384
408.15	696.55052544	35.12019456
409.15	696.9163608	35.12019456
410.15	697.64803152	35.12019456
411.15	698.7455376	35.12019456
412.15	699.11137296	35.12019456
413.15	700.20887904	35.12019456
414.15	702.03805584	35.48602992
415.15	702.4038912	35.85186528
416.15	702.76972656	35.12019456
417.15	703.86723264	35.85186528
418.15	704.96473872	35.85186528
419.15	705.69640944	35.85186528
420.15	706.42808016	35.85186528
421.15	707.15975088	36.21770064
422.15	708.25725696	36.21770064
423.15	709.35476304	36.21770064
424.15	710.08643376	36.21770064
425.15	710.08643376	36.21770064
426.15	711.5497752	36.94937136
427.15	712.64728128	36.583536
428.15	713.01311664	36.583536
429.15	714.11062272	36.94937136
430.15	714.84229344	36.94937136
431.15	715.93979952	36.94937136
432.15	716.30563488	36.94937136
433.15	717.40314096	36.94937136
434.15	718.13481168	36.94937136
435.15	718.50064704	36.94937136
436.15	719.23231776	37.31520672
437.15	721.06149456	37.68104208
438.15	721.79316528	37.68104208
439.15	722.524836	37.68104208
440.15	722.89067136	37.68104208
441.15	723.62234208	37.68104208
442.15	725.08568352	38.4127128
443.15	725.81735424	37.68104208

System: Indapamide; phases: Glass
Fixed: Pressure, kPa = 101.325
Property: Molar heat capacity at constant pressure, J/K/mol (Glass); method: DSC
Temperature, K	Molar heat capacity at constant pressure, J/K/mol	uncertainty
313.15	414.49146288	18.291768
314.15	415.58896896	17.56009728
315.15	417.0523104	17.56009728
316.15	418.14981648	18.291768
317.15	419.61315792	18.291768
318.15	421.07649936	17.92593264
319.15	422.5398408	19.02343872
320.15	424.00318224	18.65760336
321.15	425.46652368	18.291768
322.15	426.92986512	17.92593264
323.15	428.0273712	18.65760336
324.15	429.49071264	18.65760336
325.15	430.95405408	18.65760336
326.15	432.41739552	19.38927408
327.15	433.5149016	19.02343872
328.15	434.97824304	18.65760336
329.15	436.07574912	19.02343872
330.15	437.53909056	19.02343872
331.15	438.63659664	18.291768
332.15	439.73410272	18.291768
333.15	441.19744416	18.65760336
334.15	442.6607856	18.65760336
335.15	444.12412704	19.02343872
336.15	444.85579776	19.02343872
337.15	445.95330384	18.65760336
338.15	447.41664528	19.02343872
339.15	449.24582208	19.02343872
340.15	450.34332816	19.38927408
341.15	451.44083424	19.75510944
342.15	452.17250496	19.75510944
343.15	453.6358464	19.02343872
344.15	455.09918784	18.65760336
345.15	456.19669392	18.65760336
346.15	457.2942	19.02343872
347.15	458.39170608	19.75510944
348.15	459.85504752	19.38927408
349.15	461.31838896	19.02343872
350.15	462.05005968	19.38927408
351.15	463.51340112	19.38927408
352.15	464.97674256	19.75510944
353.15	466.07424864	19.75510944
354.15	467.17175472	19.75510944
355.15	468.63509616	20.1209448
356.15	469.36676688	19.75510944
357.15	470.83010832	19.38927408
358.15	472.29344976	20.1209448
359.15	473.7567912	20.1209448
360.15	475.22013264	19.75510944
361.15	477.04930944	19.75510944
362.15	478.51265088	20.1209448
363.15	480.34182768	20.1209448
364.15	482.53683984	20.1209448
365.15	484.731852	20.1209448
366.15	487.65853488	20.48678016
367.15	490.58521776	20.48678016
368.15	493.51190064	20.85261552
314.15	417.0523104	23.41346304
315.15	418.14981648	23.41346304
316.15	419.24732256	23.41346304
317.15	421.07649936	24.14513376
318.15	422.17400544	24.14513376
319.15	423.63734688	24.14513376
320.15	425.10068832	24.14513376
321.15	426.1981944	24.14513376
322.15	427.29570048	24.14513376
323.15	428.75904192	24.14513376
324.15	430.22238336	24.51096912
325.15	431.31988944	24.51096912
326.15	432.78323088	24.51096912
327.15	433.88073696	24.51096912
328.15	435.3440784	24.51096912
329.15	436.80741984	24.51096912
330.15	437.90492592	24.51096912
331.15	439.002432	24.51096912
332.15	440.46577344	24.51096912
333.15	441.56327952	24.51096912
334.15	443.02662096	24.51096912
335.15	444.12412704	24.51096912
336.15	445.22163312	24.51096912
337.15	446.3191392	24.87680448
338.15	447.78248064	24.87680448
339.15	448.87998672	24.87680448
340.15	450.34332816	24.87680448
341.15	451.44083424	24.87680448
342.15	452.90417568	24.87680448
343.15	454.00168176	24.87680448
344.15	455.4650232	25.6084752
345.15	456.19669392	24.87680448
346.15	457.66003536	24.87680448
347.15	458.75754144	24.87680448
348.15	459.85504752	24.87680448
349.15	461.31838896	24.87680448
350.15	462.7817304	25.24263984
351.15	463.87923648	25.24263984
352.15	464.97674256	25.6084752
353.15	466.440084	25.6084752
354.15	467.53759008	25.24263984
355.15	469.00093152	25.97431056
356.15	470.0984376	25.24263984
357.15	471.56177904	25.24263984
358.15	473.02512048	25.24263984
359.15	474.48846192	25.97431056
360.15	475.95180336	25.97431056
361.15	477.4151448	25.97431056
362.15	478.51265088	25.97431056
363.15	479.97599232	25.97431056
364.15	481.43933376	25.97431056
365.15	482.9026752	25.97431056
366.15	484.00018128	25.6084752
367.15	486.19519344	25.6084752
368.15	488.02437024	25.24263984
369.15	489.85354704	25.24263984
370.15	492.0485592	25.24263984
371.15	495.34107744	25.24263984
372.15	498.63359568	24.87680448

System: Indapamide; phases: Crystal
Fixed: Pressure, kPa = 101.325
Property: Molar enthalpy, kJ/mol (Crystal); method: RELAXCAL
Temperature, K	Molar enthalpy, kJ/mol	uncertainty
1	2.356052885472e-06	7.05769576512e-07
2	3.73188650736e-05	2.4547552656e-06
3	0.000195301206936	1.00312055712e-05
4	0.000651113773728	3.01814172e-05
5	0.001648015129728	7.2545151888e-05
6	0.003448034851536	0.000147541400688
7	0.006292368192	0.000256084752
8	0.01042630776	0.000439002432
9	0.016023588768	0.000658503648
10	0.023267128896	0.000951171936
15	0.087727319328	0.003402268848
20	0.204465382704	0.007938627312
25	0.375090994608	0.014560247328
30	0.597994479456	0.023193961824
35	0.87087107448	0.033766603728
40	1.191489183984	0.046168422432
45	1.557397711056	0.060326250864
50	1.965596805744	0.076130338416
60	2.90235482856	0.112421206128
70	3.996824475072	0.154821524352
80	5.232323652864	0.20267278944
90	6.6005844828	0.255645749568
100	8.098680282	0.313667237664
110	9.72646471632	0.376737253728
120	11.48412070344	0.444782630688
130	13.371136073856	0.517876535616
140	15.387144992208	0.59594580144
150	17.530171947552	0.678953844624
160	19.79919260088	0.766827498096
170	22.191243685776	0.859493594784
180	24.70522769616	0.95684238408
190	27.339278871696	1.058873865984
200	30.09233628984	1.165478289888
210	32.96231468904	1.276655655792
220	35.950348158912	1.39236938016
230	39.055412360448	1.512619462992
240	42.276446371104	1.637369320752
250	45.614437946352	1.766655536976
260	49.070484592272	1.9005146952
270	52.644513141792	2.038910211888
273.15	53.794553179488	2.083468958736
280	56.337584517456	2.181951837648
290	60.151601063136	2.329676156016
298.15	63.349660613184	2.453548008912
300	64.087660284912	2.482119750528

System: Indapamide; phases: Crystal
Fixed: Pressure, kPa = 101.325
Property: Molar heat capacity at constant pressure, J/K/mol (Crystal); method: RELAXCAL
Temperature, K	Molar heat capacity at constant pressure, J/K/mol	uncertainty
1	0.00938696950224	0.00136493172816
2	0.0749084483136	0.0040095555456
3	0.27053524872	0.0125554695552
4	0.682539031152	0.029778998304
5	1.355017589904	0.057326400912
6	2.286324665856	0.095226944208
7	3.45403455144	0.142602623328
8	4.829026752	0.18291768
9	6.4021188	0.256084752
10	8.084961456	0.329251824
15	17.962516176	0.695087184
20	28.754659296	1.09750608
25	39.437051808	1.536508512
30	49.643858352	1.938927408
35	59.411662464	2.304762768
40	68.740464144	2.670598128
45	77.520512784	2.999849952
50	85.678641312	3.329101776
60	101.88514776	3.951021888
70	116.738063376	4.536358464
80	130.273971696	5.048527968
90	143.334294048	5.560697472
100	156.284865792	6.03628344
110	169.272021072	6.548452944
120	182.259176352	7.060622448
130	195.17316456	7.572791952
140	207.97740216	8.04837792
150	220.59872208	8.560547424
160	233.073707856	9.036133392
170	245.329192416	9.51171936
180	257.438342832	9.987305328
190	269.364575568	10.42630776
200	281.217641232	10.901893728
210	292.924372752	11.34089616
220	304.631104272	11.816482128
230	316.301252256	12.25548456
240	327.97140024	12.694486992
250	339.67813176	13.17007296
260	351.458030352	13.609075392
270	363.347679552	14.08466136
273.15	367.11578376	14.230995504
280	375.34707936	14.523663792
290	387.456229776	14.99924976
298.15	397.443535104	15.401668656
300	399.748297872	15.474835728

System: Indapamide; phases: Glass
Fixed: Pressure, kPa = 101.325
Property: Molar heat capacity at constant pressure, J/K/mol (Glass); method: RELAXCAL
Temperature, K	Molar heat capacity at constant pressure, J/K/mol	uncertainty
1	0.00938696950224	0.00136493172816
2	0.0749084483136	0.0040095555456
3	0.27053524872	0.0125554695552
4	0.682539031152	0.029778998304
5	1.355017589904	0.057326400912
6	2.286324665856	0.095226944208
7	3.45403455144	0.142456289184
8	4.75585968	0.36583536
9	6.58503648	0.36583536
10	8.04837792	0.36583536
15	17.92593264	0.73167072
20	28.90099344	1.09750608
25	39.51021888	1.46334144
30	49.75360896	1.8291768
35	59.26532832	2.19501216
40	68.77704768	2.56084752
45	77.55709632	2.92668288
50	85.60547424	3.29251824
60	102.06806544	4.02418896
70	116.70147984	4.39002432
80	130.23738816	5.12169504
90	143.40746112	5.4875304
100	156.21169872	6.21920112
110	169.38177168	6.58503648
120	182.18600928	6.95087184
130	195.35608224	7.68254256
140	208.16031984	8.04837792
150	220.59872208	8.41421328
160	233.03712432	9.145884
170	245.47552656	9.51171936
180	257.54809344	9.87755472
190	269.25482496	10.60922544
200	281.32739184	10.9750608
210	293.03412336	11.34089616
220	304.74085488	11.70673152
230	316.4475864	12.43840224
240	328.15431792	12.8042376
250	339.86104944	13.17007296
260	351.56778096	13.53590832
270	363.27451248	13.90174368
273.15	367.29870144	14.26757904
280	375.34707936	14.6334144
290	387.41964624	14.99924976
298.15	397.29720096	15.36508512
300	399.85804848	15.36508512

System: Indapamide; phases: Glass
Fixed: Pressure, kPa = 101.325
Property: Molar enthalpy, kJ/mol (Glass); method: RELAXCAL
Temperature, K	Molar enthalpy, kJ/mol	uncertainty
0	17.905884862272	0.727353862752
1	17.900836334304	0.727134361536
2	17.8975803996	0.726988027392
3	17.896080474624	0.726951443856
4	17.896336559376	0.726951443856
5	17.898348653856	0.727024610928
6	17.902116758064	0.727170945072
7	17.907640872	0.727427029824
8	17.914920995664	0.727719698112
9	17.92392054552	0.728085533472
10	17.93471268864	0.728524535904
15	18.01446479712	0.697684615056
20	18.137129393328	0.702440474736
25	18.302267474832	0.708842593536
30	18.5094400392	0.71685438792
35	18.758171500464	0.726512441424
40	19.048022856192	0.737743586976
45	19.378628271024	0.750547824576
50	19.749475575456	0.764888570688
60	20.61043251168	0.79825275552
70	21.627601146624	0.837653223792
80	22.797981630336	0.882980224896
90	24.11842777872	0.934124008224
100	25.58615924304	0.990938239632
110	27.19839567456	1.053386335584
120	28.952429891616	1.121321961936
130	30.845810797296	1.194671951616
140	32.876087294688	1.27328997048
150	35.04099120456	1.357139434992
160	37.338290931216	1.446110594544
170	39.766010963712	1.540130282064
180	42.322139207568	1.63912533048
190	45.004846485984	1.74302257272
200	47.81248653984	1.851785425248
210	50.743449693552	1.965304137456
220	53.79627260568	2.083542125808
230	56.96952851832	2.206426223232
240	60.262083341856	2.333956429728
250	63.672802986672	2.466059578224
260	67.200626530224	2.602662501648
270	70.844712551184	2.743801783536
273.15	71.699486869824	2.776909883616
280	74.604292795296	2.889440840352
290	78.478708758912	3.039469921488
298.15	81.720997803984	3.165061200576
300	82.467448272528	3.193962194016

System: Indapamide; phases: Liquid
Fixed: Pressure, kPa = 101.325
Property: Molar heat capacity at constant pressure, J/K/mol (Liquid); method: DSC
Temperature, K	Molar heat capacity at constant pressure, J/K/mol	uncertainty
369.7	659.96698944	32.9251824
370	660.3328248	32.9251824
380	668.74703808	33.29101776
400	685.57546464	34.38852384
410	693.98967792	34.7543592
420	702.4038912	35.12019456
430	710.81810448	35.48602992
431	711.5497752	35.48602992
432	712.64728128	35.48602992
433	713.378952	35.85186528
434	714.11062272	35.85186528
435	715.2081288	35.85186528
436	715.93979952	35.85186528
437	716.67147024	35.85186528
438	717.40314096	35.85186528
439	718.50064704	35.85186528
439.7	718.8664824	35.85186528
440	719.23231776	35.85186528
450	727.64653104	36.21770064
460	736.06074432	36.94937136
470	744.4749576	37.31520672
480	752.88917088	37.68104208
490	761.30338416	38.04687744
500	769.71759744	38.4127128

System: Indapamide; phases: Liquid
Fixed: Pressure, kPa = 101.325
Property: Molar enthalpy, kJ/mol (Liquid); method: DSC
Temperature, K	Molar enthalpy, kJ/mol	uncertainty
369.7	113.071551647472	5.653583069904
370	113.269614911376	5.66349720816
380	119.915087392848	5.995785465648
400	133.458458754192	6.672946717008
410	140.356321050528	7.017856294416
420	147.3383620632	7.366936394928
430	154.404545208672	7.720260185616
431	155.115765732048	7.755819382608
432	155.827864260288	7.791415163136
433	156.540804209856	7.8270475272
434	157.254548997216	7.862753058336
435	157.969208372976	7.898458589472
436	158.684636002992	7.93423728768
437	159.400941637872	7.970052569424
438	160.118052110544	8.005904434704
439	160.83604058808	8.041829467056
439.7	161.339137375152	8.066962356288
440	161.554870486944	8.077754499408
450	168.78930131448	8.43945591984
460	176.107910858352	8.805401030448
470	183.510662535024	9.17551666416
480	190.997556344496	9.549875988048
490	198.568592286768	9.92840583504
500	206.22377036184	10.311215955744

System: Indapamide; phases: Crystal
Fixed: Pressure, kPa = 101.325
Property: Molar enthalpy, kJ/mol (Crystal); method: DSC
Temperature, K	Molar enthalpy, kJ/mol	uncertainty
310	68.14817669616	3.407427126576
320	72.333772216992	3.616684952496
330	76.646605276032	3.832344897216
340	81.088907468976	4.054443544272
350	85.662946975056	4.283163811344
360	90.371065140576	4.518542281968
369.7	95.068427746512	4.753408583088
370	95.215639895376	4.76079845736
380	100.199232086976	5.009968921056
400	110.593456085904	5.529674633472
410	116.009355922416	5.800465966944
420	121.574699503488	6.078756925296
430	127.292267177856	6.3646206756
431	127.872518642352	6.393668003184
432	128.45430661536	6.422751914304
433	129.03763109688	6.451908992496
434	129.622565253984	6.48113923776
435	130.2090359196	6.510479233632
436	130.797079677264	6.539892396576
437	131.38665994344	6.569342143056
438	131.9778498852	6.598901640144
439	132.570576335472	6.628534304304
439.7	132.986604306864	6.649350336288

System: Indapamide; phases: Crystal
Fixed: Pressure, kPa = 101.325
Property: Molar heat capacity at constant pressure, J/K/mol (Crystal); method: DSC
Temperature, K	Molar heat capacity at constant pressure, J/K/mol	uncertainty
310	412.186700112	20.596530768
320	424.8299701536	21.2404010016
330	437.685424704	21.876954528
340	450.70916352	22.535458176
350	463.988987088	23.193961824
360	477.524895408	23.889049008
369.7	490.877886048	24.547552656
370	491.280304944	24.547552656
380	505.291799232	25.279223376
400	534.083042064	26.70598128
410	548.899374144	27.437652
420	564.008374512	28.205906256
430	579.373459632	28.974160512
431	580.909968144	29.047327584
432	582.483060192	29.120494656
433	584.0415188256	29.2009784352
434	585.592660752	29.2668288
435	587.1657528	29.376579408
436	588.738844848	29.44974648
437	590.311936896	29.522913552
438	591.885028944	29.596080624
439	593.458120992	29.669247696
439.7	594.555627072	29.742414768

System: Indapamide; phases: Glass
Fixed: Pressure, kPa = 101.325
Property: Molar heat capacity at constant pressure, J/K/mol (Glass); method: DSC
Temperature, K	Molar heat capacity at constant pressure, J/K/mol	uncertainty
310	412.29645072	20.48678016
320	424.73485296	21.21845088
330	437.53909056	21.9501216
340	450.70916352	22.68179232
350	463.87923648	23.04762768
360	477.4151448	23.7792984
369.7	490.95105312	24.51096912

System: Indapamide; phases: Glass
Fixed: Pressure, kPa = 101.325
Property: Molar enthalpy, kJ/mol (Glass); method: DSC
Temperature, K	Molar enthalpy, kJ/mol	uncertainty
310	86.570072333712	4.328490812448
320	90.786288274176	4.539321730416
330	95.115949759776	4.755786512928
340	99.55898362344	4.977958327056
350	104.11546303224	5.205764005728
360	108.78553432032	5.439276716016
369.7	113.071551647472	5.653583069904
