Measured thermophysical data. Excellent hydroxyl and nitrogen rich groups-containing tung-oil-based Ca/ Zn and polyol stabilizers for enhanced thermal stability of PVC
Source: Thermochim. Acta, 2017, 10.1016/j.tca.2017.10.008
Compound 1: hexamethylolmelamine, C9H18N6O6, InChI=1S/C9H18N6O6/c16-1-13(2-17)7-10-8(14(3-18)4-19)12-9(11-7)15(5-20)6-21/h16-21H,1-6H2

System: hexamethylolmelamine; phases: Crystal, Liquid, Air at 1 atmosphere
Property: Normal melting temperature, K (Crystal); method: VISOBS:UFactor:10
Normal melting temperature, K	uncertainty
426.15	5
