Measured thermophysical data. Enthalpy of Formation of Ln2O2CO3 II (Ln = La, Nd, Eu) and Thermodynamics of Decomposition  Equilibria
Source: Thermochim. Acta, 2012, 10.1016/j.tca.2012.09.036
Compound 1: lanthanum, La, InChI=1S/La
Compound 2: graphite, C
Compound 3: oxygen, O2, InChI=1S/O2/c1-2
Compound 4: neodymium, Nd, InChI=1S/Nd
Compound 5: europium, Eu, InChI=1S/Eu
Compound 6: lanthanum carbonate oxide (La2(CO3)O2), CLa2O5, InChI=1S/CH2O3.2La.2O/c2-1(3)4;;;;/h(H2,2,3,4);;;;/q;2*+3;2*-2/p-2, purity 98%
Compound 7: neodymium carbonate oxide (Nd2(CO3)O2), CNd2O5, InChI=1S/CH2O3.2Nd.2O/c2-1(3)4;;;;/h(H2,2,3,4);;;;/q;2*+3;2*-2/p-2, purity 98%
Compound 8: europium carbonate oxide (Eu2(CO3)O2), CEu2O5, InChI=1S/CH2O3.2Eu.2O/c2-1(3)4;;;;/h(H2,2,3,4);;;;/q;2*+3;2*-2/p-2, purity 98%

Reaction: -2 lanthanum + 1 lanthanum carbonate oxide (La2(CO3)O2) + -1 graphite + -2.5 oxygen
Property: Molar enthalpy of reaction, kJ/mol
-198

Reaction: -2 neodymium + 1 neodymium carbonate oxide (Nd2(CO3)O2) + -1 graphite + -2.5 oxygen
Property: Molar enthalpy of reaction, kJ/mol
-176.4

Reaction: 1 europium carbonate oxide (Eu2(CO3)O2) + -2 europium + -1 graphite + -2.5 oxygen
Property: Molar enthalpy of reaction, kJ/mol
-153.2
