Measured thermophysical data. Correlation of the Volumetric Behaviour of Pyridinium-Based Ionic Liquids with Two Different  Equations
Source: Thermochim. Acta, 2012, 10.1016/j.tca.2011.12.020
Compound 1: 1-butyl-2-methylpyridinium tetrafluoroborate, C10H16BF4N, InChI=1S/C10H16N.BF4/c1-3-4-8-11-9-6-5-7-10(11)2;2-1(3,4)5/h5-7,9H,3-4,8H2,1-2H3;/q+1;-1, purity 99%
Compound 2: 1-butyl-3-methylpyridinium tetrafluoroborate, C10H16BF4N, InChI=1S/C10H16N.BF4/c1-3-4-7-11-8-5-6-10(2)9-11;2-1(3,4)5/h5-6,8-9H,3-4,7H2,1-2H3;/q+1;-1, purity 99%
Compound 3: 1-butyl-4-methylpyridinium tetrafluoroborate, C10H16BF4N, InChI=1S/C10H16N.BF4/c1-3-4-7-11-8-5-10(2)6-9-11;2-1(3,4)5/h5-6,8-9H,3-4,7H2,1-2H3;/q+1;-1, purity 99%

System: 1-butyl-2-methylpyridinium tetrafluoroborate; phases: Liquid
Property: Mass density, kg/m3 (Liquid); method: Vibrating tube method
Temperature, K	Pressure, kPa	Mass density, kg/m3	uncertainty
293.15	100	1205.4	0.5
293.15	5000	1207.6	0.6
293.15	10000	1209.5	0.6
293.15	15000	1211.7	0.7
293.15	20000	1213.6	0.7
293.15	25000	1215.5	0.8
293.15	30000	1217.5	0.9
293.15	35000	1219.5	0.9
293.15	40000	1221.1	1
293.15	45000	1223	1
298.15	100	1202	0.5
298.15	5000	1204.2	0.6
298.15	10000	1206.4	0.6
298.15	15000	1208.4	0.7
298.15	20000	1210.3	0.7
298.15	25000	1212.3	0.8
298.15	30000	1214.3	0.8
298.15	35000	1216.2	0.9
298.15	40000	1218	1
298.15	45000	1219.8	1
298.15	50000	1221.5	1.1
298.15	55000	1223.3	1.1
303.15	100	1198.7	0.5
303.15	5000	1200.7	0.6
303.15	10000	1202.8	0.6
303.15	15000	1205.1	0.7
303.15	20000	1206.9	0.7
303.15	25000	1209.1	0.8
303.15	30000	1211.1	0.8
303.15	35000	1212.9	0.9
303.15	40000	1214.9	1
303.15	45000	1216.7	1
303.15	50000	1218.5	1.1
303.15	55000	1220.2	1.1
303.15	60000	1221.9	1.2
303.15	65000	1223.6	1.3
308.15	100	1195.2	0.5
308.15	5000	1197.2	0.6
308.15	10000	1199.3	0.6
308.15	15000	1201.4	0.7
308.15	20000	1203.6	0.7
308.15	25000	1205.6	0.8
308.15	30000	1207.6	0.8
308.15	35000	1209.5	0.9
308.15	40000	1211.4	0.9
308.15	45000	1213.3	1
308.15	50000	1215.1	1.1
308.15	55000	1216.8	1.1
308.15	60000	1218.6	1.2
308.15	65000	1220.4	1.2
313.15	100	1191.9	0.5
313.15	5000	1194	0.6
313.15	10000	1196.2	0.6
313.15	15000	1198.4	0.7
313.15	20000	1200.5	0.7
313.15	25000	1202.7	0.8
313.15	30000	1204.6	0.8
313.15	35000	1206.5	0.9
313.15	40000	1208.6	0.9
313.15	45000	1210.4	1
313.15	50000	1212.3	1.1
313.15	55000	1214.1	1.1
313.15	60000	1215.8	1.2
313.15	65000	1217.4	1.2
318.15	100	1188.5	0.5
318.15	5000	1190.6	0.5
318.15	10000	1192.9	0.6
318.15	15000	1194.9	0.7
318.15	20000	1197.1	0.7
318.15	25000	1199.1	0.8
318.15	30000	1201.2	0.8
318.15	35000	1203.3	0.9
318.15	40000	1205.1	0.9
318.15	45000	1207.1	1
318.15	50000	1208.9	1
318.15	55000	1210.9	1.1
318.15	60000	1212.5	1.2
318.15	65000	1214.4	1.2
323.15	100	1185.2	0.5
323.15	5000	1187.5	0.5
323.15	10000	1189.7	0.6
323.15	15000	1191.9	0.6
323.15	20000	1194	0.7
323.15	25000	1196.2	0.8
323.15	30000	1198.3	0.8
323.15	35000	1200.3	0.9
323.15	40000	1202.2	0.9
323.15	45000	1204.2	1
323.15	50000	1206.1	1
323.15	55000	1208	1.1
323.15	60000	1209.8	1.1
323.15	65000	1211.4	1.2
328.15	100	1181.8	0.5
328.15	5000	1183.9	0.5
328.15	10000	1186.3	0.6
328.15	15000	1188.6	0.6
328.15	20000	1190.7	0.7
328.15	25000	1192.8	0.7
328.15	30000	1194.9	0.8
328.15	35000	1197.1	0.9
328.15	40000	1199.1	0.9
328.15	45000	1201	1
328.15	50000	1202.9	1
328.15	55000	1204.9	1.1
328.15	60000	1206.5	1.1
328.15	65000	1208.5	1.2
333.15	100	1178.4	0.5
333.15	5000	1181	0.5
333.15	10000	1183.2	0.6
333.15	15000	1185.5	0.6
333.15	20000	1187.7	0.7
333.15	25000	1189.9	0.7
333.15	30000	1192.1	0.8
333.15	35000	1194	0.8
333.15	40000	1196.1	0.9
333.15	45000	1198	1
333.15	50000	1200	1
333.15	55000	1201.8	1.1
333.15	60000	1203.6	1.1
333.15	65000	1205.5	1.2

System: 1-butyl-3-methylpyridinium tetrafluoroborate; phases: Liquid
Property: Mass density, kg/m3 (Liquid); method: Vibrating tube method
Temperature, K	Pressure, kPa	Mass density, kg/m3	uncertainty
283.15	100	1193	0.5
283.15	5000	1195.3	0.6
283.15	10000	1197.5	0.6
283.15	15000	1199.7	0.7
283.15	20000	1201.8	0.7
283.15	25000	1203.8	0.8
283.15	30000	1205.7	0.8
283.15	35000	1207.7	0.9
283.15	40000	1209.6	0.9
283.15	45000	1211.5	1
283.15	50000	1213.3	1.1
283.15	55000	1215.1	1.1
283.15	60000	1216.8	1.2
283.15	65000	1218.4	1.2
288.15	100	1189.5	0.5
288.15	5000	1191.6	0.5
288.15	10000	1193.9	0.6
288.15	15000	1196	0.7
288.15	20000	1198.1	0.7
288.15	25000	1200.2	0.8
288.15	30000	1202.2	0.8
288.15	35000	1204.2	0.9
288.15	40000	1206.1	0.9
288.15	45000	1208	1
288.15	50000	1209.7	1
288.15	55000	1211.6	1.1
288.15	60000	1213.3	1.2
288.15	65000	1215.1	1.2
293.15	100	1186.1	0.5
293.15	5000	1188.4	0.5
293.15	10000	1190.6	0.6
293.15	15000	1192.8	0.6
293.15	20000	1195	0.7
293.15	25000	1197	0.8
293.15	30000	1199.1	0.8
293.15	35000	1201.1	0.9
293.15	40000	1203.1	0.9
293.15	45000	1205	1
293.15	50000	1206.8	1
293.15	55000	1208.6	1.1
293.15	60000	1210.4	1.2
293.15	65000	1212.2	1.2
298.15	100	1182.6	0.5
298.15	5000	1184.7	0.5
298.15	10000	1187.1	0.6
298.15	15000	1189.3	0.6
298.15	20000	1191.4	0.7
298.15	25000	1193.6	0.7
298.15	30000	1195.7	0.8
298.15	35000	1197.7	0.9
298.15	40000	1199.6	0.9
298.15	45000	1201.5	1
298.15	50000	1203.4	1
298.15	55000	1205.3	1.1
298.15	60000	1207.1	1.1
298.15	65000	1208.9	1.2
303.15	100	1179.2	0.5
303.15	5000	1181.6	0.5
303.15	10000	1183.7	0.6
303.15	15000	1186.1	0.6
303.15	20000	1188.2	0.7
303.15	25000	1190.4	0.7
303.15	30000	1192.4	0.8
303.15	35000	1194.6	0.8
303.15	40000	1196.4	0.9
303.15	45000	1198.6	1
303.15	50000	1200.4	1
303.15	55000	1202.3	1.1
303.15	60000	1204.1	1.1
303.15	65000	1205.7	1.2
308.15	100	1175.7	0.5
308.15	5000	1178	0.5
308.15	10000	1180.4	0.6
308.15	15000	1182.6	0.6
308.15	20000	1184.8	0.7
308.15	25000	1187	0.7
308.15	30000	1189.2	0.8
308.15	35000	1191.2	0.8
308.15	40000	1193.2	0.9
308.15	45000	1195.2	0.9
308.15	50000	1197.2	1
308.15	55000	1198.9	1.1
308.15	60000	1201	1.1
308.15	65000	1202.7	1.2
313.15	100	1172.4	0.5
313.15	5000	1174.9	0.5
313.15	10000	1177.1	0.6
313.15	15000	1179.5	0.6
313.15	20000	1181.8	0.7
313.15	25000	1184	0.7
313.15	30000	1186.1	0.8
313.15	35000	1188.1	0.8
313.15	40000	1190.1	0.9
313.15	45000	1192.2	0.9
313.15	50000	1194.2	1
313.15	55000	1196.1	1
313.15	60000	1198	1.1
313.15	65000	1199.7	1.2
318.15	100	1168.9	0.5
318.15	5000	1171.2	0.5
318.15	10000	1173.7	0.6
318.15	15000	1175.9	0.6
318.15	20000	1178.3	0.7
318.15	25000	1180.5	0.7
318.15	30000	1182.5	0.8
318.15	35000	1184.9	0.8
318.15	40000	1186.9	0.9
318.15	45000	1188.9	0.9
318.15	50000	1190.9	1
318.15	55000	1192.8	1
318.15	60000	1194.7	1.1
318.15	65000	1196.6	1.1
323.15	100	1165.6	0.5
323.15	5000	1168.1	0.5
323.15	10000	1170.6	0.6
323.15	15000	1173	0.6
323.15	20000	1175.3	0.7
323.15	25000	1177.5	0.7
323.15	30000	1179.7	0.8
323.15	35000	1181.8	0.8
323.15	40000	1183.9	0.9
323.15	45000	1186.1	0.9
323.15	50000	1188	1
323.15	55000	1189.9	1
323.15	60000	1191.9	1.1
323.15	65000	1193.7	1.1
328.15	100	1162.2	0.5
328.15	5000	1164.6	0.5
328.15	10000	1167	0.6
328.15	15000	1169.5	0.6
328.15	20000	1171.8	0.7
328.15	25000	1174.1	0.7
328.15	30000	1176.5	0.7
328.15	35000	1178.6	0.8
328.15	40000	1180.7	0.8
328.15	45000	1182.7	0.9
328.15	50000	1184.7	1
328.15	55000	1186.6	1
328.15	60000	1188.6	1.1
328.15	65000	1190.7	1.1
333.15	100	1159	0.5
333.15	5000	1161.5	0.5
333.15	10000	1164	0.6
333.15	15000	1166.4	0.6
333.15	20000	1168.8	0.6
333.15	25000	1171.1	0.7
333.15	30000	1173.5	0.7
333.15	35000	1175.7	0.8
333.15	40000	1177.8	0.8
333.15	45000	1179.9	0.9
333.15	50000	1181.9	0.9
333.15	55000	1183.9	1
333.15	60000	1185.8	1.1
333.15	65000	1187.8	1.1

System: 1-butyl-4-methylpyridinium tetrafluoroborate; phases: Liquid
Property: Mass density, kg/m3 (Liquid); method: Vibrating tube method
Temperature, K	Pressure, kPa	Mass density, kg/m3	uncertainty
283.15	100	1193.3	1.1
283.15	5000	1195.5	1.1
283.15	10000	1197.7	1.1
283.15	15000	1199.7	1.1
283.15	20000	1201.8	1.1
283.15	25000	1203.8	1.1
283.15	30000	1205.7	1.2
283.15	35000	1207.6	1.2
283.15	40000	1209.5	1.2
283.15	45000	1211.3	1.2
283.15	50000	1213.1	1.3
283.15	55000	1214.8	1.3
283.15	60000	1216.6	1.3
283.15	65000	1218.2	1.3
288.15	100	1189.8	1.1
288.15	5000	1192	1.1
288.15	10000	1194	1.1
288.15	15000	1196.2	1.1
288.15	20000	1198.3	1.1
288.15	25000	1200.3	1.1
288.15	30000	1202.3	1.2
288.15	35000	1204.2	1.2
288.15	40000	1206.1	1.2
288.15	45000	1207.9	1.2
288.15	50000	1209.8	1.2
288.15	55000	1211.5	1.3
288.15	60000	1213.2	1.3
288.15	65000	1215.1	1.3
293.15	100	1186.3	1.1
293.15	5000	1188.4	1.1
293.15	10000	1190.7	1.1
293.15	15000	1193	1.1
293.15	20000	1195.2	1.1
293.15	25000	1197.2	1.1
293.15	30000	1199.1	1.2
293.15	35000	1201.1	1.2
293.15	40000	1203.1	1.2
293.15	45000	1205	1.2
293.15	50000	1206.8	1.2
293.15	55000	1208.6	1.3
293.15	60000	1210.3	1.3
293.15	65000	1212	1.3
298.15	100	1182.8	1.1
298.15	5000	1185.1	1.1
298.15	10000	1187.2	1.1
298.15	15000	1189.5	1.1
298.15	20000	1191.5	1.1
298.15	25000	1193.6	1.1
298.15	30000	1195.7	1.1
298.15	35000	1197.6	1.2
298.15	40000	1199.6	1.2
298.15	45000	1201.6	1.2
298.15	50000	1203.5	1.2
298.15	55000	1205.2	1.3
298.15	60000	1206.9	1.3
298.15	65000	1208.8	1.3
303.15	100	1179.5	1.1
303.15	5000	1181.8	1.1
303.15	10000	1183.9	1.1
303.15	15000	1186.2	1.1
303.15	20000	1188.3	1.1
303.15	25000	1190.6	1.1
303.15	30000	1192.6	1.1
303.15	35000	1194.5	1.2
303.15	40000	1196.5	1.2
303.15	45000	1198.5	1.2
303.15	50000	1200.4	1.2
303.15	55000	1202.2	1.3
303.15	60000	1204	1.3
303.15	65000	1205.8	1.3
308.15	100	1175.9	1.1
308.15	5000	1178.2	1.1
308.15	10000	1180.5	1.1
308.15	15000	1182.7	1.1
308.15	20000	1184.8	1.1
308.15	25000	1187.1	1.1
308.15	30000	1189.1	1.1
308.15	35000	1191.2	1.2
308.15	40000	1193.1	1.2
308.15	45000	1195	1.2
308.15	50000	1196.9	1.2
308.15	55000	1198.8	1.3
308.15	60000	1200.7	1.3
308.15	65000	1202.5	1.3
313.15	100	1172.7	1.1
313.15	5000	1175	1.1
313.15	10000	1177.2	1.1
313.15	15000	1179.7	1.1
313.15	20000	1181.8	1.1
313.15	25000	1184	1.1
313.15	30000	1186.1	1.1
313.15	35000	1188.2	1.2
313.15	40000	1190.3	1.2
313.15	45000	1192.1	1.2
313.15	50000	1194.1	1.2
313.15	55000	1196	1.2
313.15	60000	1197.8	1.3
313.15	65000	1199.5	1.3
318.15	100	1169.2	1.1
318.15	5000	1171.5	1.1
318.15	10000	1173.7	1.1
318.15	15000	1176.2	1.1
318.15	20000	1178.4	1.1
318.15	25000	1180.6	1.1
318.15	30000	1182.8	1.1
318.15	35000	1184.9	1.2
318.15	40000	1187	1.2
318.15	45000	1188.8	1.2
318.15	50000	1190.8	1.2
318.15	55000	1192.8	1.2
318.15	60000	1194.4	1.3
318.15	65000	1196.6	1.3
323.15	100	1166	1.1
323.15	5000	1168.5	1.1
323.15	10000	1170.8	1.1
323.15	15000	1173.2	1.1
323.15	20000	1175.4	1.1
323.15	25000	1177.6	1.1
323.15	30000	1179.8	1.1
323.15	35000	1181.9	1.2
323.15	40000	1183.9	1.2
323.15	45000	1186	1.2
323.15	50000	1188	1.2
323.15	55000	1189.9	1.2
323.15	60000	1191.8	1.3
323.15	65000	1193.6	1.3
328.15	100	1162.5	1.1
328.15	5000	1164.8	1.1
328.15	10000	1167.3	1.1
328.15	15000	1169.6	1.1
328.15	20000	1171.9	1.1
328.15	25000	1174.3	1.1
328.15	30000	1176.4	1.1
328.15	35000	1178.6	1.1
328.15	40000	1180.7	1.2
328.15	45000	1182.6	1.2
328.15	50000	1184.6	1.2
328.15	55000	1186.5	1.2
328.15	60000	1188.5	1.3
328.15	65000	1190.6	1.3
333.15	100	1159.1	1.1
333.15	5000	1161.4	1.1
333.15	10000	1164	1.1
333.15	15000	1166.5	1.1
333.15	20000	1168.9	1.1
333.15	25000	1171.2	1.1
333.15	30000	1173.4	1.1
333.15	35000	1175.8	1.1
333.15	40000	1177.8	1.2
333.15	45000	1180	1.2
333.15	50000	1181.9	1.2
333.15	55000	1183.9	1.2
333.15	60000	1185.8	1.2
333.15	65000	1187.4	1.3
