Measured thermophysical data. Low-density polyethylene-thymol: Thermal behavior and phase diagram
Source: Thermochim. Acta, 2018, 10.1016/j.tca.2017.11.012
Compound 1: 3-methyl-6-isopropylphenol, C10H14O, InChI=1S/C10H14O/c1-7(2)9-5-4-8(3)6-10(9)11/h4-7,11H,1-3H3

System: 3-methyl-6-isopropylphenol; phases: Crystal, Liquid, Air at 1 atmosphere
Property: Normal melting temperature, K (Crystal); method: DTA
Normal melting temperature, K	uncertainty
322.65	2
