Measured thermophysical data. Densities and apparent molar volumes of myo-inositol in aqueous solutions of alkaline earth metal salts at different temperatures
Source: Thermochim. Acta, 2009, 10.1016/j.tca.2009.01.003
Compound 1: cis-1,2,3,5-trans-4,6-cyclohexanehexol, C6H12O6, InChI=1S/C6H12O6/c7-1-2(8)4(10)6(12)5(11)3(1)9/h1-12H/t1-,2-,3-,4+,5-,6-
Compound 2: magnesium chloride, Cl2Mg, InChI=1S/2ClH.Mg/h2*1H;/q;;+2/p-2
Compound 3: calcium chloride, CaCl2, InChI=1S/Ca.2ClH/h;2*1H/q+2;;/p-2
Compound 4: strontium chloride, Cl2Sr, InChI=1S/2ClH.Sr/h2*1H;/q;;+2/p-2
Compound 5: barium chloride, BaCl2, InChI=1S/Ba.2ClH/h;2*1H/q+2;;/p-2
Compound 6: water, H2O, InChI=1S/H2O/h1H2, purity 99.9%

System: cis-1,2,3,5-trans-4,6-cyclohexanehexol + water; phases: Liquid
Fixed: Pressure, kPa = 101
Property: Mass density, kg/m3 (Liquid); method: Vibrating tube method
Temperature, K	Molality, mol/kg of cis-1,2,3,5-trans-4,6-cyclohexanehexol	Mass density, kg/m3	uncertainty
293.15	0.09984	1006.205	0.088
293.15	0.19881	1014.161	0.085
293.15	0.29711	1021.023	0.089
293.15	0.39659	1029.428	0.091
293.15	0.49524	1036.371	0.087
298.15	0.09984	1004.972	0.088
298.15	0.19881	1012.856	0.084
298.15	0.29711	1019.662	0.088
298.15	0.39659	1027.989	0.09
298.15	0.49524	1034.883	0.086
303.15	0.09984	1003.508	0.087
303.15	0.19881	1011.331	0.083
303.15	0.29711	1018.083	0.087
303.15	0.39659	1026.347	0.089
303.15	0.49524	1033.191	0.085
308.15	0.09984	1001.835	0.088
308.15	0.19881	1009.601	0.083
308.15	0.29711	1016.307	0.086
308.15	0.39659	1024.521	0.089
308.15	0.49524	1031.312	0.084
318.15	0.09984	997.362	0.09
318.15	0.19881	1005.546	0.084
318.15	0.29711	1012.215	0.085
318.15	0.39659	1020.272	0.087
318.15	0.49524	1027.054	0.084

System: cis-1,2,3,5-trans-4,6-cyclohexanehexol + water + magnesium chloride; phases: Liquid
Fixed: Pressure, kPa = 101
Property: Mass density, kg/m3 (Liquid); method: Vibrating tube method
Molality, mol/kg of cis-1,2,3,5-trans-4,6-cyclohexanehexol	Temperature, K	Molality, mol/kg of magnesium chloride	Mass density, kg/m3	uncertainty
0.09929	293.15	0.09953	1014.249	0.157
0.09929	298.15	0.09953	1012.982	0.157
0.09929	303.15	0.09953	1011.497	0.156
0.09929	308.15	0.09953	1009.811	0.156
0.09929	318.15	0.09953	1005.889	0.152
0.0994	293.15	0.29436	1029.884	0.151
0.0994	298.15	0.29436	1028.553	0.151
0.0994	303.15	0.29436	1027.024	0.15
0.0994	308.15	0.29436	1025.317	0.15
0.0994	318.15	0.29436	1021.186	0.154
0.09942	293.15	0.48305	1044.769	0.148
0.09942	298.15	0.48305	1043.376	0.148
0.09942	303.15	0.48305	1041.805	0.147
0.09942	308.15	0.48305	1040.068	0.148
0.09942	318.15	0.48305	1035.816	0.149
0.09964	293.15	0.933	1081.295	0.147
0.09964	298.15	0.933	1079.789	0.147
0.09964	303.15	0.933	1078.142	0.146
0.09964	308.15	0.933	1076.357	0.147
0.09964	318.15	0.933	1072.082	0.162
0.09979	293.15	0.66604	1059.504	0.144
0.09979	298.15	0.66604	1058.065	0.144
0.09979	303.15	0.66604	1056.466	0.144
0.09979	308.15	0.66604	1054.649	0.144
0.09979	318.15	0.66604	1050.708	0.141
0.19804	293.15	0.933	1087.585	0.153
0.19804	298.15	0.933	1086.037	0.152
0.19804	303.15	0.933	1084.345	0.151
0.19804	308.15	0.933	1082.521	0.15
0.19804	318.15	0.933	1079.229	0.151
0.19866	293.15	0.29436	1036.945	0.153
0.19866	298.15	0.29436	1035.561	0.152
0.19866	303.15	0.29436	1033.979	0.151
0.19866	308.15	0.29436	1032.219	0.15
0.19866	318.15	0.29436	1028.436	0.147
0.19877	293.15	0.66604	1065.944	0.113
0.19877	298.15	0.66604	1064.456	0.149
0.19877	303.15	0.66604	1062.806	0.148
0.19877	308.15	0.66604	1061.005	0.148
0.19877	318.15	0.66604	1056.993	0.195
0.19888	293.15	0.09953	1021.77	0.155
0.19888	298.15	0.09953	1020.442	0.154
0.19888	303.15	0.09953	1018.897	0.153
0.19888	308.15	0.09953	1017.159	0.152
0.19888	318.15	0.09953	1013.155	0.152
0.1991	293.15	0.48305	1051.58	0.143
0.1991	298.15	0.48305	1050.139	0.142
0.1991	303.15	0.48305	1048.52	0.141
0.1991	308.15	0.48305	1046.738	0.141
0.1991	318.15	0.48305	1042.726	0.142
0.29704	293.15	0.933	1094.391	0.156
0.29704	298.15	0.933	1092.781	0.155
0.29704	303.15	0.933	1091.04	0.154
0.29704	308.15	0.933	1089.19	0.153
0.29704	318.15	0.933	1085.116	0.155
0.29722	293.15	0.09953	1028.919	0.159
0.29722	298.15	0.09953	1027.526	0.158
0.29722	303.15	0.09953	1025.924	0.157
0.29722	308.15	0.09953	1024.137	0.156
0.29722	318.15	0.09953	1020.217	0.153
0.29744	293.15	0.48305	1057.685	0.162
0.29744	298.15	0.48305	1056.195	0.16
0.29744	303.15	0.48305	1054.53	0.159
0.29744	308.15	0.48305	1052.706	0.158
0.29744	318.15	0.48305	1048.616	0.154
0.29775	293.15	0.66604	1072.826	0.162
0.29775	298.15	0.66604	1071.289	0.161
0.29775	303.15	0.66604	1069.591	0.16
0.29775	308.15	0.66604	1067.749	0.159
0.29775	318.15	0.66604	1063.578	0.156
0.29799	293.15	0.29436	1044.176	0.154
0.29799	298.15	0.29436	1042.727	0.153
0.29799	303.15	0.29436	1041.093	0.152
0.29799	308.15	0.29436	1039.285	0.151
0.29799	318.15	0.29436	1034.854	0.147
0.39593	293.15	0.09953	1036.658	0.158
0.39593	298.15	0.09953	1035.2	0.157
0.39593	303.15	0.09953	1033.543	0.156
0.39593	308.15	0.09953	1031.7	0.155
0.39593	318.15	0.09953	1027.487	0.152
0.39602	293.15	0.933	1100.855	0.164
0.39602	298.15	0.933	1099.216	0.163
0.39602	303.15	0.933	1097.44	0.162
0.39602	308.15	0.933	1095.533	0.161
0.39602	318.15	0.933	1092.576	0.151
0.39604	293.15	0.29436	1051.12	0.168
0.39604	298.15	0.29436	1049.615	0.166
0.39604	303.15	0.29436	1047.93	0.165
0.39604	308.15	0.29436	1046.078	0.164
0.39604	318.15	0.29436	1041.914	0.162
0.39637	293.15	0.48305	1066.225	0.164
0.39637	298.15	0.48305	1064.674	0.163
0.39637	303.15	0.48305	1062.949	0.162
0.39637	308.15	0.48305	1061.077	0.161
0.39637	318.15	0.48305	1056.753	0.16
0.39714	293.15	0.66604	1080.434	0.155
0.39714	298.15	0.66604	1078.838	0.154
0.39714	303.15	0.66604	1077.096	0.153
0.39714	308.15	0.66604	1075.22	0.152
0.39714	318.15	0.66604	1070.885	0.168
0.49509	293.15	0.933	1108.289	0.174
0.49509	298.15	0.933	1106.596	0.172
0.49509	303.15	0.933	1104.781	0.171
0.49509	308.15	0.933	1102.846	0.167
0.49509	318.15	0.933	1097.715	0.135
0.49524	293.15	0.66604	1086.29	0.143
0.49524	298.15	0.66604	1084.655	0.141
0.49524	303.15	0.66604	1082.865	0.14
0.49524	308.15	0.66604	1080.922	0.144
0.49524	318.15	0.66604	1078.607	0.174
0.49537	293.15	0.48305	1072.521	0.146
0.49537	298.15	0.48305	1070.918	0.144
0.49537	303.15	0.48305	1069.156	0.143
0.49537	308.15	0.48305	1067.244	0.141
0.49537	318.15	0.48305	1063.01	0.144
0.49559	293.15	0.09953	1043.691	0.152
0.49559	293.15	0.29436	1059.591	0.182
0.49559	298.15	0.09953	1042.18	0.15
0.49559	298.15	0.29436	1058.023	0.18
0.49559	303.15	0.09953	1040.476	0.149
0.49559	303.15	0.29436	1056.284	0.179
0.49559	308.15	0.09953	1038.592	0.148
0.49559	308.15	0.29436	1054.388	0.176
0.49559	318.15	0.09953	1034.344	0.149
0.49559	318.15	0.29436	1049.746	0.17

System: cis-1,2,3,5-trans-4,6-cyclohexanehexol + water + calcium chloride; phases: Liquid
Fixed: Pressure, kPa = 101
Property: Mass density, kg/m3 (Liquid); method: Vibrating tube method
Molality, mol/kg of cis-1,2,3,5-trans-4,6-cyclohexanehexol	Temperature, K	Molality, mol/kg of calcium chloride	Mass density, kg/m3	uncertainty
0.08911	293.15	0.48148	1049.069	0.148
0.08911	298.15	0.48148	1047.575	0.147
0.08911	303.15	0.48148	1045.922	0.147
0.08911	308.15	0.48148	1044.07	0.15
0.08911	318.15	0.48148	1039.511	0.151
0.08931	293.15	0.09955	1014.481	0.151
0.08931	298.15	0.09955	1013.198	0.151
0.08931	303.15	0.09955	1011.66	0.15
0.08931	308.15	0.09955	1009.921	0.151
0.08931	318.15	0.09955	1005.883	0.149
0.08942	293.15	0.6941	1069.354	0.149
0.08942	298.15	0.6941	1067.343	0.169
0.08942	303.15	0.6941	1065.378	0.163
0.08942	308.15	0.6941	1065.312	0.164
0.08942	318.15	0.6941	1062.213	0.182
0.08964	293.15	0.29303	1032.41	0.143
0.08964	298.15	0.29303	1031.014	0.143
0.08964	303.15	0.29303	1029.438	0.143
0.08964	308.15	0.29303	1027.658	0.142
0.08964	318.15	0.29303	1023.612	0.139
0.0899	293.15	0.93763	1093.944	0.117
0.0899	298.15	0.93763	1092.196	0.116
0.0899	303.15	0.93763	1090.348	0.116
0.0899	308.15	0.93763	1088.321	0.119
0.0899	318.15	0.93763	1083.103	0.126
0.19818	293.15	0.09955	1022.356	0.162
0.19818	298.15	0.09955	1021.006	0.16
0.19818	303.15	0.09955	1019.448	0.159
0.19818	308.15	0.09955	1017.69	0.159
0.19818	318.15	0.09955	1013.652	0.155
0.19829	293.15	0.29303	1039.702	0.158
0.19829	298.15	0.29303	1038.247	0.156
0.19829	303.15	0.29303	1036.638	0.155
0.19829	308.15	0.29303	1034.781	0.154
0.19829	318.15	0.29303	1030.664	0.15
0.19877	293.15	0.48148	1056.515	0.157
0.19877	298.15	0.48148	1054.963	0.155
0.19877	303.15	0.48148	1053.265	0.154
0.19877	308.15	0.48148	1051.363	0.154
0.19877	318.15	0.48148	1047.161	0.156
0.19888	293.15	0.6941	1076.623	0.161
0.19888	298.15	0.6941	1075.863	0.17
0.19888	303.15	0.6941	1074.165	0.168
0.19888	308.15	0.6941	1072.912	0.153
0.19888	318.15	0.6941	1071.514	0.171
0.1989	293.15	0.93763	1098.618	0.134
0.1989	298.15	0.93763	1096.843	0.132
0.1989	303.15	0.93763	1094.967	0.131
0.1989	308.15	0.93763	1092.912	0.131
0.1989	318.15	0.93763	1088.508	0.135
0.29722	293.15	0.29303	1047.753	0.16
0.29722	298.15	0.29303	1046.237	0.159
0.29722	303.15	0.29303	1044.555	0.158
0.29722	308.15	0.29303	1042.675	0.157
0.29722	318.15	0.29303	1038.204	0.156
0.29751	293.15	0.93763	1104.82	0.147
0.29751	298.15	0.93763	1103.007	0.146
0.29751	303.15	0.93763	1101.109	0.145
0.29751	308.15	0.93763	1099.01	0.14
0.29751	318.15	0.93763	1094.556	0.143
0.29764	293.15	0.48148	1064.074	0.163
0.29764	298.15	0.48148	1062.464	0.162
0.29764	303.15	0.48148	1060.719	0.161
0.29764	308.15	0.48148	1058.772	0.16
0.29764	318.15	0.48148	1054.506	0.155
0.2977	293.15	0.09955	1030.604	0.156
0.2977	298.15	0.09955	1029.185	0.155
0.2977	303.15	0.09955	1027.577	0.156
0.2977	308.15	0.09955	1025.753	0.153
0.2977	318.15	0.09955	1021.352	0.151
0.29817	293.15	0.6941	1084.431	0.167
0.29817	298.15	0.6941	1083.537	0.149
0.29817	303.15	0.6941	1081.296	0.151
0.29817	308.15	0.6941	1079.604	0.156
0.29817	318.15	0.6941	1078.543	0.158
0.39679	293.15	0.6941	1091.463	0.153
0.39679	298.15	0.6941	1088.635	0.145
0.39679	303.15	0.6941	1087.171	0.15
0.39679	308.15	0.6941	1086.575	0.154
0.39679	318.15	0.6941	1085.381	0.149
0.39699	293.15	0.29303	1054.536	0.153
0.39699	298.15	0.29303	1052.97	0.151
0.39699	303.15	0.29303	1051.267	0.151
0.39699	308.15	0.29303	1049.316	0.15
0.39699	318.15	0.29303	1045.044	0.15
0.39703	293.15	0.48148	1071.265	0.146
0.39703	298.15	0.48148	1069.609	0.146
0.39703	303.15	0.48148	1067.811	0.145
0.39703	308.15	0.48148	1065.832	0.144
0.39703	318.15	0.48148	1061.086	0.143
0.39725	293.15	0.09955	1037.054	0.16
0.39725	298.15	0.09955	1035.582	0.158
0.39725	303.15	0.09955	1034.159	0.157
0.39725	308.15	0.09955	1032.058	0.157
0.39725	318.15	0.09955	1027.855	0.154
0.39763	293.15	0.93763	1110.486	0.16
0.39763	298.15	0.93763	1108.639	0.158
0.39763	303.15	0.93763	1106.709	0.158
0.39763	308.15	0.93763	1104.577	0.157
0.39763	318.15	0.93763	1100.07	0.153
0.49504	293.15	0.48148	1076.781	0.134
0.49504	298.15	0.48148	1075.092	0.133
0.49504	303.15	0.48148	1073.274	0.132
0.49504	308.15	0.48148	1071.238	0.131
0.49504	318.15	0.48148	1066.837	0.137
0.49555	293.15	0.09955	1045.463	0.181
0.49555	298.15	0.09955	1043.92	0.178
0.49555	303.15	0.09955	1042.207	0.172
0.49555	308.15	0.09955	1040.295	0.174
0.49555	318.15	0.09955	1035.655	0.169
0.49584	293.15	0.6941	1097.243	0.143
0.49584	298.15	0.6941	1095.467	0.162
0.49584	303.15	0.6941	1093.976	0.162
0.49584	308.15	0.6941	1092.795	0.152
0.49584	318.15	0.6941	1091.164	0.141
0.49592	293.15	0.93763	1117.92	0.178
0.49592	298.15	0.93763	1116.028	0.177
0.49592	303.15	0.93763	1114.063	0.175
0.49592	308.15	0.93763	1111.896	0.174
0.49592	318.15	0.93763	1107.135	0.17
0.4963	293.15	0.29303	1061.614	0.157
0.4963	298.15	0.29303	1059.988	0.155
0.4963	303.15	0.29303	1058.246	0.153
0.4963	308.15	0.29303	1056.242	0.153
0.4963	318.15	0.29303	1051.895	0.152

System: cis-1,2,3,5-trans-4,6-cyclohexanehexol + water + strontium chloride; phases: Liquid
Fixed: Pressure, kPa = 101
Property: Mass density, kg/m3 (Liquid); method: Vibrating tube method
Molality, mol/kg of cis-1,2,3,5-trans-4,6-cyclohexanehexol	Temperature, K	Molality, mol/kg of strontium chloride	Mass density, kg/m3	uncertainty
0.09918	293.15	0.64118	1097.111	0.228
0.09918	298.15	0.64118	1095.385	0.232
0.09918	303.15	0.64118	1093.504	0.229
0.09918	308.15	0.64118	1091.471	0.227
0.09918	318.15	0.64118	1086.998	0.224
0.09975	293.15	0.28887	1047.075	0.204
0.09975	298.15	0.28887	1045.609	0.205
0.09975	303.15	0.28887	1043.942	0.204
0.09975	308.15	0.28887	1042.098	0.203
0.09975	318.15	0.28887	1037.955	0.197
0.10003	293.15	0.46906	1073.783	0.222
0.10003	298.15	0.46906	1072.177	0.216
0.10003	303.15	0.46906	1070.754	0.214
0.10003	308.15	0.46906	1068.804	0.213
0.10003	318.15	0.46906	1064.512	0.215
0.10008	293.15	0.91565	1137.973	0.222
0.10008	298.15	0.91565	1136.047	0.225
0.10008	303.15	0.91565	1132.993	0.223
0.10008	308.15	0.91565	1131.828	0.223
0.10008	318.15	0.91565	1127.446	0.213
0.10067	293.15	0.09897	1020.147	0.215
0.10067	298.15	0.09897	1018.836	0.215
0.10067	303.15	0.09897	1017.307	0.213
0.10067	308.15	0.09897	1015.578	0.213
0.10067	318.15	0.09897	1011.582	0.209
0.19796	293.15	0.28887	1053.908	0.214
0.19796	298.15	0.28887	1052.395	0.213
0.19796	303.15	0.28887	1050.691	0.211
0.19796	308.15	0.28887	1048.809	0.211
0.19796	318.15	0.28887	1044.571	0.208
0.19829	293.15	0.91565	1144.433	0.213
0.19829	298.15	0.91565	1142.479	0.212
0.19829	303.15	0.91565	1140.394	0.219
0.19829	308.15	0.91565	1138.187	0.211
0.19829	318.15	0.91565	1133.389	0.204
0.19848	293.15	0.09897	1027.726	0.21
0.19848	298.15	0.09897	1026.346	0.208
0.19848	303.15	0.09897	1024.763	0.207
0.19848	308.15	0.09897	1022.982	0.206
0.19848	318.15	0.09897	1018.905	0.204
0.19888	293.15	0.64118	1105.805	0.229
0.19888	298.15	0.64118	1104.031	0.228
0.19888	303.15	0.64118	1102.079	0.227
0.19888	308.15	0.64118	1099.905	0.226
0.19888	318.15	0.64118	1095.917	0.228
0.19892	293.15	0.46906	1080.796	0.218
0.19892	298.15	0.46906	1079.145	0.216
0.19892	303.15	0.46906	1077.321	0.213
0.19892	308.15	0.46906	1075.338	0.212
0.19892	318.15	0.46906	1070.935	0.211
0.29753	293.15	0.64118	1112.89	0.203
0.29753	298.15	0.64118	1111.077	0.202
0.29753	303.15	0.64118	1109.105	0.2
0.29753	308.15	0.64118	1106.992	0.198
0.29753	318.15	0.64118	1102.874	0.193
0.29755	293.15	0.28887	1061.631	0.214
0.29755	298.15	0.28887	1060.063	0.212
0.29755	303.15	0.28887	1058.305	0.211
0.29755	308.15	0.28887	1056.378	0.21
0.29755	318.15	0.28887	1052.064	0.206
0.29764	293.15	0.09897	1034.918	0.21
0.29764	298.15	0.09897	1033.483	0.209
0.29764	303.15	0.09897	1031.842	0.202
0.29764	308.15	0.09897	1030.014	0.207
0.29764	318.15	0.09897	1025.851	0.204
0.2977	293.15	0.46906	1087.952	0.223
0.2977	298.15	0.46906	1086.251	0.222
0.2977	303.15	0.46906	1084.383	0.221
0.2977	308.15	0.46906	1082.361	0.22
0.2977	318.15	0.46906	1077.901	0.217
0.29832	293.15	0.91565	1150.23	0.21
0.29832	298.15	0.91565	1148.243	0.208
0.29832	303.15	0.91565	1146.423	0.208
0.29832	308.15	0.91565	1143.879	0.207
0.29832	318.15	0.91565	1138.749	0.203
0.39631	293.15	0.64118	1117.575	0.203
0.39631	298.15	0.64118	1115.704	0.201
0.39631	303.15	0.64118	1113.339	0.2
0.39631	308.15	0.64118	1111.185	0.199
0.39631	318.15	0.64118	1106.394	0.193
0.39637	293.15	0.09897	1042.344	0.207
0.39637	298.15	0.09897	1040.848	0.207
0.39637	303.15	0.09897	1038.151	0.205
0.39637	308.15	0.09897	1037.278	0.204
0.39637	318.15	0.09897	1032.982	0.201
0.39648	293.15	0.46906	1095.746	0.205
0.39648	298.15	0.46906	1093.983	0.205
0.39648	303.15	0.46906	1092.066	0.203
0.39648	308.15	0.46906	1090.011	0.202
0.39648	318.15	0.46906	1085.199	0.202
0.39657	293.15	0.91565	1156.125	0.21
0.39657	298.15	0.91565	1154.101	0.209
0.39657	303.15	0.91565	1151.957	0.208
0.39657	308.15	0.91565	1149.788	0.208
0.39657	318.15	0.91565	1144.714	0.208
0.39758	293.15	0.28887	1068.402	0.206
0.39758	298.15	0.28887	1066.754	0.205
0.39758	303.15	0.28887	1064.912	0.206
0.39758	308.15	0.28887	1062.995	0.203
0.39758	318.15	0.28887	1058.221	0.2
0.495	293.15	0.91565	1161.197	0.204
0.495	298.15	0.91565	1159.149	0.202
0.495	303.15	0.91565	1156.972	0.202
0.495	308.15	0.91565	1154.687	0.199
0.495	318.15	0.91565	1149.801	0.201
0.49507	293.15	0.28887	1074.548	0.21
0.49507	298.15	0.28887	1072.88	0.205
0.49507	303.15	0.28887	1071.035	0.204
0.49507	308.15	0.28887	1069.032	0.203
0.49507	318.15	0.28887	1064.584	0.21
0.4954	293.15	0.09897	1049.196	0.201
0.4954	298.15	0.09897	1047.643	0.199
0.4954	303.15	0.09897	1045.898	0.213
0.4954	308.15	0.09897	1043.981	0.197
0.4954	318.15	0.09897	1039.657	0.197
0.49546	293.15	0.46906	1100.599	0.188
0.49546	298.15	0.46906	1098.811	0.189
0.49546	303.15	0.46906	1096.864	0.188
0.49546	308.15	0.46906	1094.772	0.187
0.49546	318.15	0.46906	1090.248	0.187
0.49551	293.15	0.64118	1124.558	0.213
0.49551	298.15	0.64118	1122.657	0.213
0.49551	303.15	0.64118	1120.619	0.217
0.49551	308.15	0.64118	1118.452	0.216
0.49551	318.15	0.64118	1113.645	0.215

System: cis-1,2,3,5-trans-4,6-cyclohexanehexol + water + barium chloride; phases: Liquid
Fixed: Pressure, kPa = 101
Property: Mass density, kg/m3 (Liquid); method: Vibrating tube method
Molality, mol/kg of cis-1,2,3,5-trans-4,6-cyclohexanehexol	Temperature, K	Molality, mol/kg of barium chloride	Mass density, kg/m3	uncertainty
0.08911	293.15	0.28388	1064.173	0.258
0.08911	298.15	0.28388	1062.648	0.26
0.08911	303.15	0.28388	1060.934	0.259
0.08911	308.15	0.28388	1059.046	0.258
0.08911	318.15	0.28388	1054.661	0.252
0.08955	293.15	0.09824	1025.131	0.263
0.08955	298.15	0.09824	1023.804	0.263
0.08955	303.15	0.09824	1022.254	0.261
0.08955	308.15	0.09824	1020.524	0.261
0.08955	318.15	0.09824	1016.498	0.257
0.09957	293.15	0.89137	1195.283	0.267
0.09957	298.15	0.89137	1193.785	0.266
0.09957	303.15	0.89137	1192.301	0.268
0.09957	308.15	0.89137	1191.883	0.26
0.09957	318.15	0.89137	1185.489	0.27
0.09964	293.15	0.45658	1104.506	0.265
0.09964	298.15	0.45658	1102.786	0.26
0.09964	303.15	0.45658	1100.901	0.259
0.09964	308.15	0.45658	1098.859	0.26
0.09964	318.15	0.45658	1093.027	0.264
0.0997	293.15	0.61882	1138.209	0.26
0.0997	298.15	0.61882	1136.329	0.26
0.0997	303.15	0.61882	1134.298	0.255
0.0997	308.15	0.61882	1132.123	0.257
0.0997	318.15	0.61882	1127.421	0.258
0.19831	293.15	0.89137	1200.582	0.264
0.19831	298.15	0.89137	1198.866	0.266
0.19831	303.15	0.89137	1197.745	0.27
0.19831	308.15	0.89137	1194.375	0.275
0.19831	318.15	0.89137	1190.845	0.275
0.1984	293.15	0.09824	1033.377	0.261
0.1984	298.15	0.09824	1031.984	0.259
0.1984	303.15	0.09824	1030.381	0.258
0.1984	308.15	0.09824	1028.581	0.257
0.1984	318.15	0.09824	1024.466	0.254
0.19844	293.15	0.45658	1109.352	0.26
0.19844	298.15	0.45658	1107.603	0.259
0.19844	303.15	0.45658	1105.681	0.257
0.19844	308.15	0.45658	1103.607	0.257
0.19844	318.15	0.45658	1099.035	0.261
0.19903	293.15	0.61882	1144.248	0.261
0.19903	298.15	0.61882	1142.324	0.27
0.19903	303.15	0.61882	1139.847	0.262
0.19903	308.15	0.61882	1137.783	0.259
0.19903	318.15	0.61882	1132.991	0.259
0.19906	293.15	0.28388	1071.698	0.267
0.19906	298.15	0.28388	1070.123	0.265
0.19906	303.15	0.28388	1068.357	0.265
0.19906	308.15	0.28388	1066.42	0.26
0.19906	318.15	0.28388	1062.073	0.262
0.29722	293.15	0.09824	1040.818	0.263
0.29722	298.15	0.09824	1039.362	0.261
0.29722	303.15	0.09824	1037.704	0.261
0.29722	308.15	0.09824	1035.86	0.26
0.29722	318.15	0.09824	1031.661	0.258
0.29744	293.15	0.45658	1116.015	0.26
0.29744	298.15	0.45658	1114.209	0.264
0.29744	303.15	0.45658	1112.245	0.257
0.29744	308.15	0.45658	1110.358	0.256
0.29744	318.15	0.45658	1105.723	0.254
0.29762	293.15	0.61882	1149.951	0.258
0.29762	298.15	0.61882	1149.95	0.259
0.29762	303.15	0.61882	1145.898	0.263
0.29762	308.15	0.61882	1143.665	0.266
0.29762	318.15	0.61882	1138.656	0.262
0.29764	293.15	0.89137	1205.293	0.262
0.29764	298.15	0.89137	1204.15	0.255
0.29764	303.15	0.89137	1203.081	0.264
0.29764	308.15	0.89137	1203.395	0.273
0.29764	318.15	0.89137	1197.241	0.268
0.29779	293.15	0.28388	1079.581	0.258
0.29779	298.15	0.28388	1077.94	0.257
0.29779	303.15	0.28388	1076.233	0.255
0.29779	308.15	0.28388	1074.245	0.255
0.29779	318.15	0.28388	1069.922	0.253
0.39587	293.15	0.89137	1210.292	0.265
0.39587	298.15	0.89137	1207.902	0.26
0.39587	303.15	0.89137	1206.765	0.265
0.39587	308.15	0.89137	1205.298	0.258
0.39587	318.15	0.89137	1200.379	0.266
0.39611	293.15	0.45658	1121.731	0.261
0.39611	298.15	0.45658	1119.883	0.259
0.39611	303.15	0.45658	1117.889	0.257
0.39611	308.15	0.45658	1115.741	0.255
0.39611	318.15	0.45658	1111.055	0.254
0.39635	293.15	0.09824	1048.271	0.25
0.39635	298.15	0.09824	1046.752	0.248
0.39635	303.15	0.09824	1045.041	0.247
0.39635	308.15	0.09824	1043.152	0.246
0.39635	318.15	0.09824	1038.872	0.245
0.39642	293.15	0.28388	1084.764	0.262
0.39642	298.15	0.28388	1083.088	0.26
0.39642	303.15	0.28388	1081.233	0.258
0.39642	308.15	0.28388	1079.214	0.257
0.39642	318.15	0.28388	1074.731	0.254
0.39697	293.15	0.61882	1155.774	0.259
0.39697	298.15	0.61882	1153.772	0.252
0.39697	303.15	0.61882	1151.633	0.262
0.39697	308.15	0.61882	1149.363	0.262
0.39697	318.15	0.61882	1144.459	0.259
0.49498	293.15	0.45658	1127.856	0.262
0.49498	298.15	0.45658	1125.972	0.261
0.49498	303.15	0.45658	1123.749	0.26
0.49498	308.15	0.45658	1121.563	0.257
0.49498	318.15	0.45658	1117.017	0.257
0.49522	293.15	0.09824	1054.788	0.255
0.49522	298.15	0.09824	1053.221	0.254
0.49522	303.15	0.09824	1051.461	0.253
0.49522	308.15	0.09824	1049.527	0.251
0.49522	318.15	0.09824	1045.176	0.25
0.4954	293.15	0.89137	1215.672	0.267
0.4954	298.15	0.89137	1213.415	0.271
0.4954	303.15	0.89137	1213.043	0.268
0.4954	308.15	0.89137	1210.572	0.269
0.4954	318.15	0.89137	1206.643	0.279
0.49573	293.15	0.61882	1161.533	0.254
0.49573	298.15	0.61882	1160.336	0.257
0.49573	303.15	0.61882	1158.176	0.264
0.49573	308.15	0.61882	1155.657	0.262
0.49573	318.15	0.61882	1150.268	0.263
0.49579	293.15	0.28388	1093.801	0.275
0.49579	298.15	0.28388	1092.064	0.277
0.49579	303.15	0.28388	1090.159	0.275
0.49579	308.15	0.28388	1088.094	0.274
0.49579	318.15	0.28388	1083.527	0.27
