Measured thermophysical data. Solubilities of benzene sulfonamide in supercritical CO2 in the absence and presence of cosolvent
Source: Thermochim. Acta, 2012, 10.1016/j.tca.2011.10.023
Compound 1: benzenesulfonamide, C6H7NO2S, InChI=1S/C6H7NO2S/c7-10(8,9)6-4-2-1-3-5-6/h1-5H,(H2,7,8,9), purity 99%
Compound 2: carbon dioxide, CO2, InChI=1S/CO2/c2-1-3, purity 99.9%
Compound 3: ethanol, C2H6O, InChI=1S/C2H6O/c1-2-3/h3H,2H2,1H3, purity 99.7%
Compound 4: 1,2-ethanediol, C2H6O2, InChI=1S/C2H6O2/c3-1-2-4/h3-4H,1-2H2, purity 99.7%
Compound 5: ethyl acetate, C4H8O2, InChI=1S/C4H8O2/c1-3-6-4(2)5/h3H2,1-2H3, purity 99.7%

System: benzenesulfonamide + carbon dioxide; phases: Fluid (supercritical or subcritical phases), Crystal
Property: Mole fraction of benzenesulfonamide (Fluid (supercritical or subcritical phases)); method: Phase equilibration
Temperature, K	Pressure, kPa	Mole fraction of benzenesulfonamide	uncertainty
308.15	11000	6.53e-05	6.6e-06
308.15	13000	8.08e-05	8.2e-06
308.15	15000	0.000104	1.05e-05
308.15	18000	0.0001417	1.43e-05
308.15	21000	0.0001608	1.62e-05
318.15	11000	4.53e-05	4.8e-06
318.15	13000	7.37e-05	7.6e-06
318.15	15000	0.0001145	1.17e-05
318.15	18000	0.0001739	1.75e-05
318.15	21000	0.0002044	2.06e-05
328.15	11000	2.74e-05	3.3e-06
328.15	13000	6.21e-05	6.8e-06
328.15	15000	0.0001339	1.39e-05
328.15	18000	0.0002314	2.34e-05
328.15	21000	0.0002895	2.91e-05

System: ethanol + benzenesulfonamide + carbon dioxide; phases: Fluid (supercritical or subcritical phases), Crystal
Fixed: Temperature, K = 308.15
Fixed: Solvent: Mole fraction of ethanol = 0.035
Property: Mole fraction of benzenesulfonamide (Fluid (supercritical or subcritical phases)); method: Phase equilibration
Pressure, kPa	Mole fraction of benzenesulfonamide	uncertainty
11000	0.000149	1.5e-05
13000	0.000173	1.7e-05
15000	0.000187	1.9e-05
18000	0.000205	2.1e-05
21000	0.000213	2.1e-05

System: benzenesulfonamide + 1,2-ethanediol + carbon dioxide; phases: Fluid (supercritical or subcritical phases), Crystal
Fixed: Temperature, K = 308.15
Fixed: Solvent: Mole fraction of 1,2-ethanediol = 0.035
Property: Mole fraction of benzenesulfonamide (Fluid (supercritical or subcritical phases)); method: Phase equilibration
Pressure, kPa	Mole fraction of benzenesulfonamide	uncertainty
11000	0.000251	2.6e-05
13000	0.000304	3.1e-05
15000	0.00035	3.5e-05
18000	0.000401	4e-05
21000	0.000424	4.3e-05

System: benzenesulfonamide + carbon dioxide + ethyl acetate; phases: Fluid (supercritical or subcritical phases), Crystal
Fixed: Temperature, K = 308.15
Fixed: Solvent: Mole fraction of ethyl acetate = 0.035
Property: Mole fraction of benzenesulfonamide (Fluid (supercritical or subcritical phases)); method: Phase equilibration
Pressure, kPa	Mole fraction of benzenesulfonamide	uncertainty
11000	0.000189	2e-05
13000	0.000246	2.5e-05
15000	0.000293	3e-05
18000	0.000325	3.3e-05
21000	0.000353	3.5e-05
