Measured thermophysical data. Dielectric data, densities, refractive indices, and their deviations of the binary mixtures of Nmethyldiethanolamine  with Sulfolane at T= (293.15 to 328.15) K and atmospheric pressure
Source: Thermochim. Acta, 2013, 10.1016/j.tca.2012.10.004
Compound 1: sulfolane, C4H8O2S, InChI=1S/C4H8O2S/c5-7(6)3-1-2-4-7/h1-4H2, purity 99%
Compound 2: N-methyldiethanolamine, C5H13NO2, InChI=1S/C5H13NO2/c1-6(2-4-7)3-5-8/h7-8H,2-5H2,1H3, purity 99%

System: sulfolane; phases: Liquid
Fixed: Pressure, kPa = 101.325
Property: Refractive index (Na D-line) (Liquid); method: Standard Abbe refractometry
Temperature, K	Refractive index (Na D-line)	uncertainty
293.15	1.4854	0.00037
298.15	1.4836	0.00037
303.15	1.4814	0.00037
308.15	1.4796	0.00037
313.15	1.478	0.00037
318.15	1.4762	0.00037
323.15	1.4744	0.00037
328.15	1.4726	0.00037

System: sulfolane; phases: Liquid
Fixed: Pressure, kPa = 101
Property: Relative permittivity at zero frequency (Liquid); method: Coaxial cylinder capacitor
Temperature, K	Relative permittivity at zero frequency	uncertainty
293.15	44.5	1.8
298.15	44	1.8
303.15	43.4	1.7
308.15	42.8	1.7
313.15	42.2	1.7
318.15	41.6	1.7
323.15	41.1	1.6
328.15	40.4	1.6

System: sulfolane; phases: Liquid
Fixed: Pressure, kPa = 101
Property: Mass density, kg/m3 (Liquid); method: Pycnometric method
Temperature, K	Mass density, kg/m3	uncertainty
293.15	1270.8	0.6
298.15	1266.5	0.6
303.15	1262	0.7
308.15	1257.6	0.7
313.15	1253.2	0.7
318.15	1248.7	0.7
323.15	1244.2	0.7
328.15	1240.3	0.7

System: N-methyldiethanolamine; phases: Liquid
Fixed: Pressure, kPa = 101.325
Property: Refractive index (Na D-line) (Liquid); method: Standard Abbe refractometry
Temperature, K	Refractive index (Na D-line)	uncertainty
293.15	1.46935	0.00037
298.15	1.46724	0.00037
303.15	1.46532	0.00037
308.15	1.4631	0.00037
313.15	1.46074	0.00037
318.15	1.45892	0.00037
323.15	1.45708	0.00037
328.15	1.45513	0.00037

System: N-methyldiethanolamine; phases: Liquid
Fixed: Pressure, kPa = 101
Property: Relative permittivity at zero frequency (Liquid); method: Coaxial cylinder capacitor
Temperature, K	Relative permittivity at zero frequency	uncertainty
293.15	22.9	0.9
298.15	22.4	0.9
303.15	21.8	0.9
308.15	21.3	0.9
313.15	20.8	0.8
318.15	20.3	0.8
323.15	19.8	0.8
328.15	19.3	0.8

System: N-methyldiethanolamine; phases: Liquid
Fixed: Pressure, kPa = 101
Property: Mass density, kg/m3 (Liquid); method: Pycnometric method
Temperature, K	Mass density, kg/m3	uncertainty
293.15	1041.6	0.5
298.15	1037.9	0.5
303.15	1034.1	0.5
308.15	1030.3	0.5
313.15	1026.5	0.5
318.15	1022.7	0.5
323.15	1018.9	0.5
328.15	1015	0.5

System: N-methyldiethanolamine + sulfolane; phases: Liquid
Fixed: Pressure, kPa = 101
Property: Refractive index (Na D-line) (Liquid); method: Standard Abbe refractometry
Temperature, K	Mole fraction of N-methyldiethanolamine	Refractive index (Na D-line)	uncertainty
293.15	0	1.4854	0.00037
293.15	0.1001	1.48265	0.00037
293.15	0.2012	1.48037	0.00037
293.15	0.2999	1.47845	0.00037
293.15	0.4003	1.4766	0.00037
293.15	0.5005	1.47489	0.00037
293.15	0.6	1.47343	0.00037
293.15	0.7002	1.47207	0.00037
293.15	0.8011	1.47093	0.00037
293.15	0.8998	1.47017	0.00037
293.15	1	1.46935	0.00037
298.15	0	1.4836	0.00037
298.15	0.1001	1.48095	0.00037
298.15	0.2012	1.47872	0.00037
298.15	0.2999	1.47672	0.00037
298.15	0.4003	1.47488	0.00037
298.15	0.5005	1.47316	0.00037
298.15	0.6	1.47164	0.00037
298.15	0.7002	1.47023	0.00037
298.15	0.8011	1.469	0.00037
298.15	0.8998	1.46802	0.00037
298.15	1	1.46724	0.00037
303.15	0	1.4814	0.00037
303.15	0.1001	1.47886	0.00037
303.15	0.2012	1.4767	0.00037
303.15	0.2999	1.47473	0.00037
303.15	0.4003	1.47288	0.00037
303.15	0.5005	1.47124	0.00037
303.15	0.6	1.46976	0.00037
303.15	0.7002	1.46844	0.00037
303.15	0.8011	1.46717	0.00037
303.15	0.8998	1.46615	0.00037
303.15	1	1.46532	0.00037
308.15	0	1.4796	0.00037
308.15	0.1001	1.47712	0.00037
308.15	0.2012	1.47488	0.00037
308.15	0.2999	1.47281	0.00037
308.15	0.4003	1.47099	0.00037
308.15	0.5005	1.46931	0.00037
308.15	0.6	1.46777	0.00037
308.15	0.7002	1.46639	0.00037
308.15	0.8011	1.46513	0.00037
308.15	0.8998	1.46413	0.00037
308.15	1	1.4631	0.00037
313.15	0	1.478	0.00037
313.15	0.1001	1.47549	0.00037
313.15	0.2012	1.47327	0.00037
313.15	0.2999	1.47109	0.00037
313.15	0.4003	1.46919	0.00037
313.15	0.5005	1.46741	0.00037
313.15	0.6	1.46584	0.00037
313.15	0.7002	1.46442	0.00037
313.15	0.8011	1.46301	0.00037
313.15	0.8998	1.46184	0.00037
313.15	1	1.46074	0.00037
318.15	0	1.4762	0.00037
318.15	0.1001	1.47376	0.00037
318.15	0.2012	1.47154	0.00037
318.15	0.2999	1.46941	0.00037
318.15	0.4003	1.46751	0.00037
318.15	0.5005	1.46573	0.00037
318.15	0.6	1.46414	0.00037
318.15	0.7002	1.46267	0.00037
318.15	0.8011	1.46127	0.00037
318.15	0.8998	1.46005	0.00037
318.15	1	1.45892	0.00037
323.15	0	1.4744	0.00037
323.15	0.1001	1.47203	0.00037
323.15	0.2012	1.46976	0.00037
323.15	0.2999	1.46769	0.00037
323.15	0.4003	1.46581	0.00037
323.15	0.5005	1.46403	0.00037
323.15	0.6	1.46242	0.00037
323.15	0.7002	1.46091	0.00037
323.15	0.8011	1.45949	0.00037
323.15	0.8998	1.45821	0.00037
323.15	1	1.45708	0.00037
328.15	0	1.4726	0.00037
328.15	0.1001	1.47021	0.00037
328.15	0.2012	1.46788	0.00037
328.15	0.2999	1.46596	0.00037
328.15	0.4003	1.46404	0.00037
328.15	0.5005	1.46226	0.00037
328.15	0.6	1.46061	0.00037
328.15	0.7002	1.45905	0.00037
328.15	0.8011	1.45761	0.00037
328.15	0.8998	1.45636	0.00037
328.15	1	1.45513	0.00037

System: N-methyldiethanolamine + sulfolane; phases: Liquid
Fixed: Pressure, kPa = 101
Property: Relative permittivity at zero frequency (Liquid); method: Coaxial cylinder capacitor
Temperature, K	Mole fraction of N-methyldiethanolamine	Relative permittivity at zero frequency	uncertainty
293.15	0	44.5	1.8
293.15	0.1001	40.8	1.6
293.15	0.2012	38.3	1.5
293.15	0.2999	35.5	1.4
293.15	0.4003	33.5	1.3
293.15	0.5005	31.7	1.3
293.15	0.6	30.2	1.2
293.15	0.7002	28.4	1.1
293.15	0.8011	26.6	1.1
293.15	0.8998	24.6	1
293.15	1	22.9	0.9
298.15	0	44	1.8
298.15	0.1001	40.1	1.6
298.15	0.2012	37.6	1.5
298.15	0.2999	34.8	1.4
298.15	0.4003	32.8	1.3
298.15	0.5005	31	1.2
298.15	0.6	29.5	1.2
298.15	0.7002	27.7	1.1
298.15	0.8011	26	1
298.15	0.8998	24.1	1
298.15	1	22.4	0.9
303.15	0	43.4	1.7
303.15	0.1001	39.4	1.6
303.15	0.2012	36.9	1.5
303.15	0.2999	34.1	1.4
303.15	0.4003	32.1	1.3
303.15	0.5005	30.3	1.2
303.15	0.6	28.8	1.2
303.15	0.7002	27	1.1
303.15	0.8011	25.3	1
303.15	0.8998	23.6	0.9
303.15	1	21.8	0.9
308.15	0	42.8	1.7
308.15	0.1001	38.7	1.5
308.15	0.2012	36.1	1.4
308.15	0.2999	33.4	1.3
308.15	0.4003	31.3	1.3
308.15	0.5005	29.5	1.2
308.15	0.6	28.1	1.1
308.15	0.7002	26.3	1.1
308.15	0.8011	24.6	1
308.15	0.8998	22.9	0.9
308.15	1	21.3	0.9
313.15	0	42.2	1.7
313.15	0.1001	38	1.5
313.15	0.2012	35.5	1.4
313.15	0.2999	32.7	1.3
313.15	0.4003	30.6	1.2
313.15	0.5005	28.7	1.1
313.15	0.6	27.4	1.1
313.15	0.7002	25.6	1
313.15	0.8011	24	1
313.15	0.8998	22.2	0.9
313.15	1	20.8	0.8
318.15	0	41.6	1.7
318.15	0.1001	37.4	1.5
318.15	0.2012	34.6	1.4
318.15	0.2999	32	1.3
318.15	0.4003	29.9	1.2
318.15	0.5005	28	1.1
318.15	0.6	26.7	1.1
318.15	0.7002	24.9	1
318.15	0.8011	23.3	0.9
318.15	0.8998	21.7	0.9
318.15	1	20.3	0.8
323.15	0	41.1	1.6
323.15	0.1001	36.7	1.5
323.15	0.2012	33.9	1.4
323.15	0.2999	31.3	1.3
323.15	0.4003	29.2	1.2
323.15	0.5005	27.3	1.1
323.15	0.6	26	1
323.15	0.7002	24.2	1
323.15	0.8011	22.7	0.9
323.15	0.8998	21.2	0.8
323.15	1	19.8	0.8
328.15	0	40.4	1.6
328.15	0.1001	36.2	1.4
328.15	0.2012	33.2	1.3
328.15	0.2999	30.6	1.2
328.15	0.4003	28.5	1.1
328.15	0.5005	26.5	1.1
328.15	0.6	25.2	1
328.15	0.7002	23.5	0.9
328.15	0.8011	22.1	0.9
328.15	0.8998	20.5	0.8
328.15	1	19.3	0.8

System: N-methyldiethanolamine + sulfolane; phases: Liquid
Fixed: Pressure, kPa = 101
Property: Mass density, kg/m3 (Liquid); method: Pycnometric method
Temperature, K	Mole fraction of N-methyldiethanolamine	Mass density, kg/m3	uncertainty
293.15	0	1270.8	0.6
293.15	0.1001	1241.9	0.6
293.15	0.2012	1214.9	0.6
293.15	0.2999	1188	0.6
293.15	0.4003	1163.1	0.6
293.15	0.5005	1139.8	0.5
293.15	0.6	1118.1	0.5
293.15	0.7002	1097.7	0.5
293.15	0.8011	1078.9	0.5
293.15	0.8998	1059.9	0.5
293.15	1	1041.6	0.5
298.15	0	1266.5	0.6
298.15	0.1001	1237.6	0.6
298.15	0.2012	1210.5	0.6
298.15	0.2999	1183.9	0.6
298.15	0.4003	1159.1	0.6
298.15	0.5005	1135.7	0.5
298.15	0.6	1114.1	0.5
298.15	0.7002	1093.6	0.5
298.15	0.8011	1074.9	0.5
298.15	0.8998	1055.9	0.5
298.15	1	1037.9	0.5
303.15	0	1262	0.7
303.15	0.1001	1233.1	0.6
303.15	0.2012	1205.9	0.6
303.15	0.2999	1179.5	0.6
303.15	0.4003	1154.8	0.6
303.15	0.5005	1131.5	0.6
303.15	0.6	1110	0.5
303.15	0.7002	1089.6	0.5
303.15	0.8011	1070.9	0.5
303.15	0.8998	1051.9	0.5
303.15	1	1034.1	0.5
308.15	0	1257.6	0.7
308.15	0.1001	1228.6	0.6
308.15	0.2012	1201.5	0.6
308.15	0.2999	1175.1	0.6
308.15	0.4003	1150.4	0.6
308.15	0.5005	1127.2	0.6
308.15	0.6	1105.8	0.5
308.15	0.7002	1085.6	0.5
308.15	0.8011	1066.8	0.5
308.15	0.8998	1048	0.5
308.15	1	1030.3	0.5
313.15	0	1253.2	0.7
313.15	0.1001	1224.1	0.6
313.15	0.2012	1197	0.6
313.15	0.2999	1170.7	0.6
313.15	0.4003	1146.2	0.6
313.15	0.5005	1123.1	0.6
313.15	0.6	1101.6	0.6
313.15	0.7002	1081.5	0.5
313.15	0.8011	1062.8	0.5
313.15	0.8998	1044	0.5
313.15	1	1026.5	0.5
318.15	0	1248.7	0.7
318.15	0.1001	1219.6	0.7
318.15	0.2012	1192.4	0.6
318.15	0.2999	1166.3	0.6
318.15	0.4003	1141.9	0.6
318.15	0.5005	1118.9	0.6
318.15	0.6	1097.5	0.6
318.15	0.7002	1077.5	0.5
318.15	0.8011	1058.7	0.5
318.15	0.8998	1040	0.5
318.15	1	1022.7	0.5
323.15	0	1244.2	0.7
323.15	0.1001	1215.2	0.7
323.15	0.2012	1187.6	0.6
323.15	0.2999	1161.9	0.6
323.15	0.4003	1137.5	0.6
323.15	0.5005	1114.6	0.6
323.15	0.6	1093.3	0.6
323.15	0.7002	1073.3	0.6
323.15	0.8011	1054.7	0.5
323.15	0.8998	1035.9	0.5
323.15	1	1018.9	0.5
328.15	0	1240.3	0.7
328.15	0.1001	1211.1	0.7
328.15	0.2012	1183.3	0.7
328.15	0.2999	1157.7	0.6
328.15	0.4003	1133.2	0.6
328.15	0.5005	1110.4	0.6
328.15	0.6	1089.2	0.6
328.15	0.7002	1069.2	0.6
328.15	0.8011	1050.6	0.6
328.15	0.8998	1032	0.5
328.15	1	1015	0.5
