Measured thermophysical data. Thermodynamic properties of K2Sr[B4O5(OH)4]2*10H2O
Source: Thermochim. Acta, 2007, 10.1016/j.tca.2007.03.007
Compound 1: potassium chloride, ClK, InChI=1S/ClH.K/h1H;/q;+1/p-1
Compound 2: hydrogen chloride, ClH, InChI=1S/ClH/h1H
Compound 3: boric acid, BH3O3, InChI=1S/BH3O3/c2-1(3)4/h2-4H
Compound 4: strontium hydroxide octahydrate Sr(OH)2*8H2O, H18O10Sr, InChI=1S/10H2O.Sr/h10*1H2;/q;;;;;;;;;;+2/p-2
Compound 5: water, H2O, InChI=1S/H2O/h1H2
Compound 6: K2Sr[B4O5(OH)4]2*10H2O, B8H28K2O28Sr, InChI=1S/2B4H4O9.2K.10H2O.Sr/c2*5-1(6)11-3(9)13-4(10)12-2(7)8;;;;;;;;;;;;;/h2*5,7,9-10H;;;10*1H2;/q2*-2;2*+1;;;;;;;;;;;+2, purity 98%

Reaction: -2 potassium chloride + 2 hydrogen chloride + -8 boric acid + -1 strontium hydroxide octahydrate Sr(OH)2*8H2O + 1 K2Sr[B4O5(OH)4]2*10H2O + 6 water
Property: Molar enthalpy of reaction, kJ/mol
56.29
