Measured thermophysical data. Thermochemical properties of 1,1-diamino-2,2-dinitroethylene (FOX-7) in dimethyl sulfoxide (DMSO)
Source: Thermochim. Acta, 2009, 10.1016/j.tca.2009.02.019
Compound 1: 1,1-diamino-2,2-dinitroethene, C2H4N4O4, InChI=1S/C2H4N4O4/c3-1(4)2(5(7)8)6(9)10/h3-4H2
Compound 2: dimethyl sulfoxide, C2H6OS, InChI=1S/C2H6OS/c1-4(2)3/h1-2H3, purity 99.8%

System: dimethyl sulfoxide + 1,1-diamino-2,2-dinitroethene; phases: Liquid
Fixed: Temperature, K = 298.15
Fixed: Pressure, kPa = 101
Property: Molar enthalpy of solution, kJ/mol (Liquid); method: Calvet calorimetry
Molality, mol/kg of 1,1-diamino-2,2-dinitroethene	Molar enthalpy of solution, kJ/mol	uncertainty
0.0214	-8.64	0.09
0.025	-8.81	0.09
0.03	-8.83	0.09
0.0318	-8.73	0.09
0.0368	-8.38	0.08
