Measured thermophysical data. Thermochemistry of 6-propyl-2-thiouracil: an experimental and computational study.
Source: Thermochim. Acta, 2014, 10.1016/j.tca.2014.04.018
Compound 1: sulfuric acid, H2O4S, InChI=1S/H2O4S/c1-5(2,3)4/h(H2,1,2,3,4)
Compound 2: carbon dioxide, CO2, InChI=1S/CO2/c2-1-3
Compound 3: nitrogen, N2, InChI=1S/N2/c1-2
Compound 4: water, H2O, InChI=1S/H2O/h1H2
Compound 5: oxygen, O2, InChI=1S/O2/c1-2
Compound 6: 6-propyl-2-thiouracil, C7H10N2OS, InChI=1S/C7H10N2OS/c1-2-3-5-4-6(10)9-7(11)8-5/h4H,2-3H2,1H3,(H2,8,9,10,11), purity 99.6%

System: 6-propyl-2-thiouracil; phases: Liquid, Gas
Property: Vapor or sublimation pressure, kPa (Liquid); method: Calculated from knudsen effusion weight loss
Temperature, K	Vapor or sublimation pressure, kPa	uncertainty
401.14	0.000103	5e-06
403.18	0.000124	6e-06
405.17	0.000151	8e-06
407.15	0.000196	1e-05
409.17	0.000231	1.2e-05
411.16	0.000274	1.4e-05
413.15	0.000332	1.7e-05
415.17	0.00041	2.1e-05
417.18	0.000484	2.4e-05
419.15	0.000583	2.9e-05
421.22	0.000714	3.6e-05
423.21	0.000853	4.3e-05

System: 6-propyl-2-thiouracil; phases: Liquid, Gas
Property: Vapor or sublimation pressure, kPa (Liquid); method: Calculated from knudsen effusion weight loss
Temperature, K	Vapor or sublimation pressure, kPa	uncertainty
401.14	0.000101	5e-06
403.18	0.000123	6e-06
405.17	0.000151	8e-06
407.15	0.000185	9e-06
409.17	0.000224	1.1e-05
411.16	0.000274	1.4e-05
413.15	0.000325	1.6e-05
415.17	0.000398	2e-05
417.18	0.000485	2.4e-05
421.22	0.000706	3.5e-05
423.21	0.000839	4.2e-05

System: 6-propyl-2-thiouracil; phases: Liquid, Gas
Property: Vapor or sublimation pressure, kPa (Liquid); method: Calculated from knudsen effusion weight loss
Temperature, K	Vapor or sublimation pressure, kPa	uncertainty
401.14	9.7e-05	5e-06
403.18	0.000118	6e-06
405.17	0.000144	7e-06
407.15	0.000178	9e-06
409.17	0.000216	1.1e-05
411.16	0.000265	1.3e-05
413.15	0.000317	1.6e-05
415.17	0.000382	1.9e-05
417.18	0.000468	2.3e-05
419.15	0.000558	2.8e-05
421.22	0.00068	3.4e-05
423.21	0.00083	4.2e-05

Reaction: -1 6-propyl-2-thiouracil + 1 sulfuric acid + 7 carbon dioxide + 1 nitrogen + 4 water + -10.5 oxygen
Property: Specific internal energy of reaction at constant volume, J/g
-26418.5
