Measured thermophysical data. Phase transitions of some sulfur-containing ammonium salts
Source: Thermochim. Acta, 2014, 10.1016/j.tca.2014.08.035
Compound 1: ammonium acid sulfate, H5NO4S, InChI=1S/H3N.H2O4S/c;1-5(2,3)4/h1H3;(H2,1,2,3,4), purity 98%
Compound 2: triammonium hydrogen disulfate, H13N3O8S2, InChI=1S/3H3N.2H2O4S/c;;;2*1-5(2,3)4/h3*1H3;2*(H2,1,2,3,4), purity 98%
Compound 3: ammonium sulfamate, H6N2O3S, InChI=1S/H3NO3S.H3N/c1-5(2,3)4;/h(H3,1,2,3,4);1H3, purity 99.5%
Compound 4: ammonium sulfate, H8N2O4S, InChI=1S/2H3N.H2O4S/c;;1-5(2,3)4/h2*1H3;(H2,1,2,3,4), purity 98%

System: ammonium acid sulfate; phases: Crystal, Liquid, Air at 1 atmosphere
Property: Normal melting temperature, K (Crystal); method: DTA
Normal melting temperature, K	uncertainty
417.35	0.5

System: ammonium acid sulfate; phases: Crystal, Liquid, Air at 1 atmosphere
Property: Molar enthalpy of transition or fusion, kJ/mol (Crystal); method: DSC
Molar enthalpy of transition or fusion, kJ/mol	uncertainty
14.7	0.6

System: triammonium hydrogen disulfate; phases: Crystal 2, Crystal 1, Air at 1 atmosphere
Property: Triple point temperature, K (Crystal 2); method: DTA
Triple point temperature, K	uncertainty
412.85	0.5

System: triammonium hydrogen disulfate; phases: Crystal 2, Crystal 1, Air at 1 atmosphere
Property: Molar enthalpy of transition or fusion, kJ/mol (Crystal 2); method: DSC
Molar enthalpy of transition or fusion, kJ/mol	uncertainty
2.7	0.3

System: triammonium hydrogen disulfate; phases: Crystal 1, Liquid, Air at 1 atmosphere
Property: Normal melting temperature, K (Crystal 1); method: DTA
Normal melting temperature, K	uncertainty
502.15	4

System: triammonium hydrogen disulfate; phases: Crystal 1, Liquid, Air at 1 atmosphere
Property: Molar enthalpy of transition or fusion, kJ/mol (Crystal 1); method: DSC
Molar enthalpy of transition or fusion, kJ/mol	uncertainty
32	8

System: ammonium sulfamate; phases: Crystal, Liquid, Air at 1 atmosphere
Property: Normal melting temperature, K (Crystal); method: DTA
Normal melting temperature, K	uncertainty
406.05	0.4

System: ammonium sulfamate; phases: Crystal, Liquid, Air at 1 atmosphere
Property: Molar enthalpy of transition or fusion, kJ/mol (Crystal); method: DSC
Molar enthalpy of transition or fusion, kJ/mol	uncertainty
16.7	0.6

System: ammonium sulfate; phases: Crystal 3, Crystal 2, Air at 1 atmosphere
Property: Molar enthalpy of transition or fusion, kJ/mol (Crystal 3); method: DSC
Molar enthalpy of transition or fusion, kJ/mol	uncertainty
2.85	1.76

System: ammonium sulfate; phases: Crystal 2, Crystal 1
Property: Solid-liquid equilibrium temperature, K (Crystal 2); method: DTA
Pressure, kPa	Solid-liquid equilibrium temperature, K	uncertainty
10000	640.05	0.8

System: ammonium sulfate; phases: Crystal 2, Crystal 1
Property: Molar enthalpy of transition or fusion, kJ/mol (Crystal 2); method: DSC
Temperature, K	Molar enthalpy of transition or fusion, kJ/mol	uncertainty
640.05	2.8	0.8
