Measured thermophysical data. Structural and thermodynamic properties of newpyrazolo[3,4-d]pyridazinones
Source: Thermochim. Acta, 2013, 10.1016/j.tca.2013.08.017
Compound 1: 4-phenyl-1-(1,1-dimethylethyl)-6,7-dihydro-1H-pyrazolo[3,4-d]pyridazin-7-one, C15H16N4O, InChI=1S/C15H16N4O/c1-15(2,3)19-13-11(9-16-19)12(17-18-14(13)20)10-7-5-4-6-8-10/h4-9H,1-3H3,(H,18,20), purity 97%
Compound 2: 4-trifluoromethyl-1-(1,1-dimethylethyl)-6,7-dihydro-1H-pyrazolo[3,4-d]pyridazin-7-one, C10H11F3N4O, InChI=1S/C10H11F3N4O/c1-9(2,3)17-6-5(4-14-17)7(10(11,12)13)15-16-8(6)18/h4H,1-3H3,(H,16,18), purity 97%

System: 4-phenyl-1-(1,1-dimethylethyl)-6,7-dihydro-1H-pyrazolo[3,4-d]pyridazin-7-one; phases: Crystal
Property: Mass density, kg/m3 (Crystal); method: X-ray diffraction
Temperature, K	Pressure, kPa	Mass density, kg/m3	uncertainty
296	101.325	1298	6

System: 4-phenyl-1-(1,1-dimethylethyl)-6,7-dihydro-1H-pyrazolo[3,4-d]pyridazin-7-one; phases: Crystal
Fixed: Pressure, kPa = 101.325
Property: Molar heat capacity at constant pressure, J/K/mol (Crystal); method: Small sample (50 mg) DSC
Temperature, K	Molar heat capacity at constant pressure, J/K/mol	uncertainty
273	944.5	18.9
283	1034.5	20.7
293	1124.7	22.5
303	1216.4	24.3
313	1310.8	26.2
323	1409.1	28.2
333	1512.5	30.3
343	1622.1	32.4
353	1739.2	34.8
363	1865	37.3
373	2000.7	40
383	2147.5	43
393	2306.5	46.1
403	2479	49.6
413	2666.2	53.3
423	2869.3	57.4

System: 4-trifluoromethyl-1-(1,1-dimethylethyl)-6,7-dihydro-1H-pyrazolo[3,4-d]pyridazin-7-one; phases: Crystal
Property: Mass density, kg/m3 (Crystal); method: X-ray diffraction
Temperature, K	Pressure, kPa	Mass density, kg/m3	uncertainty
293	101.325	1451	7

System: 4-trifluoromethyl-1-(1,1-dimethylethyl)-6,7-dihydro-1H-pyrazolo[3,4-d]pyridazin-7-one; phases: Crystal
Fixed: Pressure, kPa = 101.325
Property: Molar heat capacity at constant pressure, J/K/mol (Crystal); method: Small sample (50 mg) DSC
Temperature, K	Molar heat capacity at constant pressure, J/K/mol	uncertainty
273	174	3.5
283	202.9	4.1
293	231.9	4.6
303	260.8	5.2
313	289.8	5.8
323	318.7	6.4
333	347.6	7
343	376.6	7.5
353	405.5	8.1
363	434.4	8.7
373	463.4	9.3
383	492.3	9.8
393	521.2	10.4
403	550.2	11
413	579.1	11.6
423	608.1	12.2

System: 4-trifluoromethyl-1-(1,1-dimethylethyl)-6,7-dihydro-1H-pyrazolo[3,4-d]pyridazin-7-one; phases: Liquid
Fixed: Pressure, kPa = 101.325
Property: Molar heat capacity at constant pressure, J/K/mol (Liquid); method: Small sample (50 mg) DSC
Temperature, K	Molar heat capacity at constant pressure, J/K/mol	uncertainty
448	813.3	16.3
458	923.4	18.5
463	978.4	19.6
