Measured thermophysical data. Influence of alkyl group and temperature on thermophysical properties of carboxylic acid and their binary mixtures
Source: Thermochim. Acta, 2014, 10.1016/j.tca.2014.06.031
Compound 1: butanoic acid, C4H8O2, InChI=1S/C4H8O2/c1-2-3-4(5)6/h2-3H2,1H3,(H,5,6), purity 99%
Compound 2: heptanoic acid, C7H14O2, InChI=1S/C7H14O2/c1-2-3-4-5-6-7(8)9/h2-6H2,1H3,(H,8,9), purity 99%
Compound 3: pentanoic acid, C5H10O2, InChI=1S/C5H10O2/c1-2-3-4-5(6)7/h2-4H2,1H3,(H,6,7), purity 98%
Compound 4: diethyl carbonate, C5H10O3, InChI=1S/C5H10O3/c1-3-7-5(6)8-4-2/h3-4H2,1-2H3, purity 98%
Compound 5: ethanol, C2H6O, InChI=1S/C2H6O/c1-2-3/h3H,2H2,1H3, purity 98%

System: butanoic acid; phases: Liquid
Fixed: Pressure, kPa = 101.325
Property: Mass density, kg/m3 (Liquid); method: Vibrating tube method
Temperature, K	Mass density, kg/m3	uncertainty
293.15	957.78	0.24
298.15	952.81	0.24
303.15	947.94	0.24
308.15	942.92	0.24
313.15	938.05	0.24

System: butanoic acid; phases: Liquid
Fixed: Pressure, kPa = 101.325
Property: Speed of sound, m/s (Liquid); method: Sing-around technique in a fixed-path interferometer
Temperature, K	Speed of sound, m/s	uncertainty
293.15	1195.5	1.5
298.15	1176.9	1.5
303.15	1158.2	1.5
308.15	1139.7	1.5
313.15	1121.3	1.5

System: butanoic acid; phases: Liquid
Fixed: Pressure, kPa = 101.325
Property: Refractive index (Na D-line) (Liquid); method: Standard Abbe refractometry
Temperature, K	Refractive index (Na D-line)	uncertainty
293.15	1.39826	0.00037
298.15	1.3963	0.00037
303.15	1.39421	0.00037
308.15	1.39217	0.00037
313.15	1.3901	0.00037

System: heptanoic acid; phases: Liquid
Fixed: Pressure, kPa = 101.325
Property: Mass density, kg/m3 (Liquid); method: Vibrating tube method
Temperature, K	Mass density, kg/m3	uncertainty
293.15	917.65	0.24
298.15	913.47	0.24
303.15	909.29	0.24
308.15	905.11	0.24
313.15	900.94	0.24

System: heptanoic acid; phases: Liquid
Fixed: Pressure, kPa = 101.325
Property: Speed of sound, m/s (Liquid); method: Sing-around technique in a fixed-path interferometer
Temperature, K	Speed of sound, m/s	uncertainty
293.15	1295.4	1.5
298.15	1277.7	1.5
303.15	1259.9	1.5
308.15	1242.2	1.5
313.15	1224.7	1.5

System: heptanoic acid; phases: Liquid
Fixed: Pressure, kPa = 101.325
Property: Refractive index (Na D-line) (Liquid); method: Standard Abbe refractometry
Temperature, K	Refractive index (Na D-line)	uncertainty
293.15	1.42336	0.00037
298.15	1.42138	0.00037
303.15	1.41935	0.00037
308.15	1.41733	0.00037
313.15	1.4153	0.00037

System: pentanoic acid; phases: Liquid
Fixed: Pressure, kPa = 101.325
Property: Mass density, kg/m3 (Liquid); method: Vibrating tube method
Temperature, K	Mass density, kg/m3	uncertainty
293.15	939.41	0.77
298.15	934.85	0.76
303.15	930.29	0.76
308.15	925.73	0.75
313.15	921.16	0.75

System: pentanoic acid; phases: Liquid
Fixed: Pressure, kPa = 101.325
Property: Speed of sound, m/s (Liquid); method: Sing-around technique in a fixed-path interferometer
Temperature, K	Speed of sound, m/s	uncertainty
293.15	1234	2.3
298.15	1216	2.3
303.15	1197.9	2.3
308.15	1179.9	2.3
313.15	1162.1	2.3

System: pentanoic acid; phases: Liquid
Fixed: Pressure, kPa = 101.325
Property: Refractive index (Na D-line) (Liquid); method: Standard Abbe refractometry
Temperature, K	Refractive index (Na D-line)	uncertainty
293.15	1.4084	0.00051
298.15	1.40641	0.00051
303.15	1.40438	0.00051
308.15	1.40234	0.00051
313.15	1.4003	0.00051

System: diethyl carbonate; phases: Liquid
Property: Mass density, kg/m3 (Liquid); method: Vibrating tube method
Pressure, kPa	Temperature, K	Mass density, kg/m3	uncertainty
101	298.15	969.32	0.8

System: diethyl carbonate; phases: Liquid
Property: Refractive index (Na D-line) (Liquid); method: Standard Abbe refractometry
Temperature, K	Pressure, kPa	Refractive index (Na D-line)	uncertainty
298.15	101.325	1.38249	0.00051

System: diethyl carbonate; phases: Liquid
Property: Speed of sound, m/s (Liquid); method: Sing-around technique in a fixed-path interferometer
Temperature, K	Pressure, kPa	Frequency, MHz	Speed of sound, m/s	uncertainty
298.15	101	3	1176.6	2.3

System: ethanol; phases: Liquid
Property: Mass density, kg/m3 (Liquid); method: Vibrating tube method
Pressure, kPa	Temperature, K	Mass density, kg/m3	uncertainty
101	298.15	785.24	0.61

System: ethanol; phases: Liquid
Property: Refractive index (Na D-line) (Liquid); method: Standard Abbe refractometry
Temperature, K	Pressure, kPa	Refractive index (Na D-line)	uncertainty
298.15	101.325	1.35945	0.00051

System: ethanol; phases: Liquid
Property: Speed of sound, m/s (Liquid); method: Sing-around technique in a fixed-path interferometer
Temperature, K	Pressure, kPa	Frequency, MHz	Speed of sound, m/s	uncertainty
298.15	101	3	1142.8	2.3

System: ethanol + diethyl carbonate; phases: Liquid
Fixed: Pressure, kPa = 101
Fixed: Temperature, K = 298.15
Property: Mass density, kg/m3 (Liquid); method: Vibrating tube method
Mole fraction of diethyl carbonate	Mass density, kg/m3	uncertainty
0	785.24	0.61
0.0415	800.3	0.71
0.0943	817.71	0.71
0.1932	845.85	0.72
0.2929	869.58	0.73
0.3938	889.96	0.74
0.4965	907.82	0.75
0.597	922.99	0.76
0.6924	935.73	0.77
0.7911	947.58	0.79
0.899	959.27	0.8
0.9413	963.58	0.8
1	969.32	0.8

System: ethanol + diethyl carbonate; phases: Liquid
Fixed: Temperature, K = 298.15
Fixed: Pressure, kPa = 101
Property: Refractive index (Na D-line) (Liquid); method: Standard Abbe refractometry
Mole fraction of diethyl carbonate	Refractive index (Na D-line)	uncertainty
0	1.35945	0.00051
0.0415	1.36136	0.00051
0.0943	1.36347	0.00051
0.1932	1.36698	0.00051
0.2929	1.36981	0.00051
0.3938	1.37241	0.00051
0.4965	1.3746	0.00051
0.597	1.37647	0.00051
0.6924	1.37805	0.00051
0.7911	1.37957	0.00051
0.899	1.38109	0.00051
0.9413	1.38167	0.00051
1	1.38249	0.00051

System: ethanol + diethyl carbonate; phases: Liquid
Fixed: Temperature, K = 298.15
Fixed: Pressure, kPa = 101
Fixed: Frequency, MHz = 3
Property: Speed of sound, m/s (Liquid); method: Sing-around technique in a fixed-path interferometer
Mole fraction of diethyl carbonate	Speed of sound, m/s	uncertainty
0	1142.8	2.3
0.0415	1145.2	2.3
0.0943	1147.3	2.3
0.1932	1150.9	2.3
0.2929	1154	2.3
0.3938	1156.9	2.3
0.4965	1159.8	2.3
0.597	1162.8	2.3
0.6924	1166	2.3
0.7911	1169.7	2.3
0.899	1173.7	2.3
0.9413	1175	2.3
1	1176.6	2.3

System: butanoic acid + pentanoic acid; phases: Liquid
Fixed: Pressure, kPa = 101
Property: Mass density, kg/m3 (Liquid); method: Vibrating tube method
Temperature, K	Mole fraction of butanoic acid	Mass density, kg/m3	uncertainty
293.15	0	939.41	0.77
293.15	0.0472	940.14	0.73
293.15	0.0938	940.86	0.7
293.15	0.1944	942.46	0.64
293.15	0.2928	944.08	0.58
293.15	0.3946	945.82	0.52
293.15	0.4922	947.56	0.46
293.15	0.5938	949.45	0.41
293.15	0.6929	951.38	0.36
293.15	0.7973	953.48	0.31
293.15	0.895	955.52	0.27
293.15	1	957.78	0.23
298.15	0	934.85	0.76
298.15	0.0472	935.55	0.73
298.15	0.0938	936.26	0.7
298.15	0.1944	937.82	0.63
298.15	0.2928	939.4	0.57
298.15	0.3946	941.11	0.51
298.15	0.4922	942.81	0.46
298.15	0.5938	944.66	0.41
298.15	0.6929	946.54	0.36
298.15	0.7973	948.6	0.31
298.15	0.895	950.6	0.27
298.15	1	952.81	0.23
303.15	0	930.29	0.76
303.15	0.0472	930.96	0.72
303.15	0.0938	931.65	0.69
303.15	0.1944	933.18	0.63
303.15	0.2928	934.73	0.57
303.15	0.3946	936.39	0.51
303.15	0.4922	938.05	0.46
303.15	0.5938	939.87	0.4
303.15	0.6929	941.71	0.36
303.15	0.7973	943.73	0.31
303.15	0.895	945.68	0.27
303.15	1	947.94	0.24
308.15	0	925.73	0.75
308.15	0.0472	926.37	0.72
308.15	0.0938	927.04	0.69
308.15	0.1944	928.53	0.62
308.15	0.2928	930.05	0.57
308.15	0.3946	931.68	0.51
308.15	0.4922	933.3	0.45
308.15	0.5938	935.08	0.4
308.15	0.6929	936.87	0.36
308.15	0.7973	938.85	0.31
308.15	0.895	940.76	0.27
308.15	1	942.92	0.24
313.15	0	921.16	0.75
313.15	0.0472	921.78	0.72
313.15	0.0938	922.44	0.68
313.15	0.1944	923.89	0.62
313.15	0.2928	925.37	0.56
313.15	0.3946	926.97	0.5
313.15	0.4922	928.55	0.45
313.15	0.5938	930.29	0.4
313.15	0.6929	932.04	0.36
313.15	0.7973	933.98	0.31
313.15	0.895	935.84	0.27
313.15	1	938.05	0.24

System: butanoic acid + pentanoic acid; phases: Liquid
Fixed: Pressure, kPa = 101
Property: Refractive index (Na D-line) (Liquid); method: Standard Abbe refractometry
Temperature, K	Mole fraction of butanoic acid	Refractive index (Na D-line)	uncertainty
293.15	0	1.4084	0.00051
293.15	0.0472	1.40813	0.0005
293.15	0.0938	1.4077	0.00049
293.15	0.1944	1.40676	0.00048
293.15	0.2928	1.40581	0.00046
293.15	0.3946	1.40481	0.00045
293.15	0.4922	1.40383	0.00043
293.15	0.5938	1.40278	0.00042
293.15	0.6929	1.40174	0.00041
293.15	0.7973	1.4006	0.00039
293.15	0.895	1.39949	0.00038
293.15	1	1.39826	0.00037
298.15	0	1.40641	0.00051
298.15	0.0472	1.40607	0.0005
298.15	0.0938	1.40563	0.00049
298.15	0.1944	1.40469	0.00048
298.15	0.2928	1.40374	0.00046
298.15	0.3946	1.40274	0.00045
298.15	0.4922	1.40175	0.00043
298.15	0.5938	1.4007	0.00042
298.15	0.6929	1.39965	0.00041
298.15	0.7973	1.3985	0.00039
298.15	0.895	1.39744	0.00038
298.15	1	1.3963	0.00037
303.15	0	1.40438	0.00051
303.15	0.0472	1.40399	0.0005
303.15	0.0938	1.40355	0.00049
303.15	0.1944	1.4026	0.00048
303.15	0.2928	1.40164	0.00046
303.15	0.3946	1.40063	0.00045
303.15	0.4922	1.39964	0.00043
303.15	0.5938	1.39857	0.00042
303.15	0.6929	1.39751	0.00041
303.15	0.7973	1.39639	0.00039
303.15	0.895	1.39533	0.00038
303.15	1	1.39421	0.00037
308.15	0	1.40234	0.00051
308.15	0.0472	1.4019	0.0005
308.15	0.0938	1.40146	0.00049
308.15	0.1944	1.40051	0.00048
308.15	0.2928	1.39955	0.00046
308.15	0.3946	1.39853	0.00045
308.15	0.4922	1.39753	0.00043
308.15	0.5938	1.39646	0.00042
308.15	0.6929	1.39541	0.00041
308.15	0.7973	1.39431	0.00039
308.15	0.895	1.39326	0.00038
308.15	1	1.39217	0.00037
313.15	0	1.4003	0.00051
313.15	0.0472	1.39983	0.0005
313.15	0.0938	1.39937	0.00049
313.15	0.1944	1.39841	0.00048
313.15	0.2928	1.39745	0.00046
313.15	0.3946	1.39642	0.00045
313.15	0.4922	1.39542	0.00043
313.15	0.5938	1.39437	0.00042
313.15	0.6929	1.39332	0.00041
313.15	0.7973	1.39222	0.00039
313.15	0.895	1.39118	0.00038
313.15	1	1.3901	0.00037

System: butanoic acid + pentanoic acid; phases: Liquid
Fixed: Pressure, kPa = 101
Fixed: Frequency, MHz = 3
Property: Speed of sound, m/s (Liquid); method: Sing-around technique in a fixed-path interferometer
Temperature, K	Mole fraction of butanoic acid	Speed of sound, m/s	uncertainty
293.15	0	1234	2.3
293.15	0.0472	1232.3	2.3
293.15	0.0938	1230.6	2.2
293.15	0.1944	1226.9	2.1
293.15	0.2928	1223.3	2.1
293.15	0.3946	1219.5	2
293.15	0.4922	1215.8	1.9
293.15	0.5938	1211.9	1.8
293.15	0.6929	1208	1.7
293.15	0.7973	1203.8	1.7
293.15	0.895	1199.9	1.6
293.15	1	1195.5	1.5
298.15	0	1216	2.3
298.15	0.0472	1214.3	2.3
298.15	0.0938	1212.6	2.2
298.15	0.1944	1208.9	2.1
298.15	0.2928	1205.2	2.1
298.15	0.3946	1201.4	2
298.15	0.4922	1197.6	1.9
298.15	0.5938	1193.6	1.8
298.15	0.6929	1189.7	1.7
298.15	0.7973	1185.4	1.7
298.15	0.895	1181.4	1.6
298.15	1	1176.9	1.5
303.15	0	1197.9	2.3
303.15	0.0472	1196.2	2.3
303.15	0.0938	1194.5	2.2
303.15	0.1944	1190.7	2.1
303.15	0.2928	1187	2.1
303.15	0.3946	1183.1	2
303.15	0.4922	1179.3	1.9
303.15	0.5938	1175.2	1.8
303.15	0.6929	1171.2	1.7
303.15	0.7973	1166.9	1.7
303.15	0.895	1162.8	1.6
303.15	1	1158.2	1.5
308.15	0	1179.9	2.3
308.15	0.0472	1178.2	2.3
308.15	0.0938	1176.5	2.2
308.15	0.1944	1172.7	2.1
308.15	0.2928	1168.9	2.1
308.15	0.3946	1164.9	2
308.15	0.4922	1161	1.9
308.15	0.5938	1156.9	1.8
308.15	0.6929	1152.9	1.7
308.15	0.7973	1148.5	1.7
308.15	0.895	1144.3	1.6
308.15	1	1139.7	1.5
313.15	0	1162.1	2.3
313.15	0.0472	1160.4	2.3
313.15	0.0938	1158.6	2.2
313.15	0.1944	1154.8	2.1
313.15	0.2928	1151	2.1
313.15	0.3946	1146.9	2
313.15	0.4922	1143	1.9
313.15	0.5938	1138.9	1.8
313.15	0.6929	1134.7	1.7
313.15	0.7973	1130.2	1.7
313.15	0.895	1126	1.6
313.15	1	1121.3	1.5

System: pentanoic acid + heptanoic acid; phases: Liquid
Fixed: Pressure, kPa = 101
Property: Mass density, kg/m3 (Liquid); method: Vibrating tube method
Temperature, K	Mole fraction of heptanoic acid	Mass density, kg/m3	uncertainty
293.15	0	939.41	0.77
293.15	0.0641	937.59	0.72
293.15	0.1207	936.02	0.68
293.15	0.2317	933.14	0.61
293.15	0.3413	930.46	0.54
293.15	0.4383	928.25	0.48
293.15	0.5402	926.08	0.43
293.15	0.6442	923.97	0.38
293.15	0.7342	922.25	0.33
293.15	0.8259	920.58	0.3
293.15	0.9173	919	0.26
293.15	0.962	918.26	0.25
293.15	1	917.65	0.23
298.15	0	934.85	0.76
298.15	0.0641	933.06	0.72
298.15	0.1207	931.51	0.68
298.15	0.2317	928.68	0.6
298.15	0.3413	926.05	0.53
298.15	0.4383	923.88	0.48
298.15	0.5402	921.74	0.42
298.15	0.6442	919.68	0.37
298.15	0.7342	917.98	0.33
298.15	0.8259	916.35	0.3
298.15	0.9173	914.79	0.26
298.15	0.962	914.07	0.25
298.15	1	913.47	0.23
303.15	0	930.29	0.76
303.15	0.0641	928.52	0.71
303.15	0.1207	926.99	0.67
303.15	0.2317	924.22	0.6
303.15	0.3413	921.64	0.53
303.15	0.4383	919.51	0.48
303.15	0.5402	917.4	0.42
303.15	0.6442	915.38	0.37
303.15	0.7342	913.71	0.33
303.15	0.8259	912.11	0.3
303.15	0.9173	910.58	0.26
303.15	0.962	909.87	0.25
303.15	1	909.29	0.23
308.15	0	925.73	0.75
308.15	0.0641	923.98	0.71
308.15	0.1207	922.48	0.67
308.15	0.2317	919.75	0.59
308.15	0.3413	917.23	0.53
308.15	0.4383	915.14	0.47
308.15	0.5402	913.07	0.42
308.15	0.6442	911.08	0.37
308.15	0.7342	909.45	0.33
308.15	0.8259	907.87	0.29
308.15	0.9173	906.38	0.26
308.15	0.962	905.68	0.25
308.15	1	905.11	0.23
313.15	0	921.16	0.75
313.15	0.0641	919.44	0.7
313.15	0.1207	917.97	0.66
313.15	0.2317	915.29	0.59
313.15	0.3413	912.82	0.53
313.15	0.4383	910.77	0.47
313.15	0.5402	908.74	0.42
313.15	0.6442	906.79	0.37
313.15	0.7342	905.19	0.33
313.15	0.8259	903.64	0.29
313.15	0.9173	902.17	0.26
313.15	0.962	901.49	0.25
313.15	1	900.94	0.24

System: pentanoic acid + heptanoic acid; phases: Liquid
Fixed: Pressure, kPa = 101
Property: Refractive index (Na D-line) (Liquid); method: Standard Abbe refractometry
Temperature, K	Mole fraction of heptanoic acid	Refractive index (Na D-line)	uncertainty
293.15	0	1.4084	0.00051
293.15	0.0641	1.4099	0.0005
293.15	0.1207	1.4111	0.00049
293.15	0.2317	1.41293	0.00047
293.15	0.3413	1.41469	0.00045
293.15	0.4383	1.41617	0.00044
293.15	0.5402	1.4176	0.00043
293.15	0.6442	1.41903	0.00041
293.15	0.7342	1.42021	0.0004
293.15	0.8259	1.42135	0.00039
293.15	0.9173	1.42244	0.00038
293.15	0.962	1.42297	0.00037
293.15	1	1.42336	0.00037
298.15	0	1.40641	0.00051
298.15	0.0641	1.40789	0.0005
298.15	0.1207	1.40904	0.00049
298.15	0.2317	1.41092	0.00047
298.15	0.3413	1.41267	0.00045
298.15	0.4383	1.41413	0.00044
298.15	0.5402	1.41562	0.00043
298.15	0.6442	1.41705	0.00041
298.15	0.7342	1.4182	0.0004
298.15	0.8259	1.41936	0.00039
298.15	0.9173	1.42048	0.00038
298.15	0.962	1.42099	0.00037
298.15	1	1.42138	0.00037
303.15	0	1.40438	0.00051
303.15	0.0641	1.40585	0.0005
303.15	0.1207	1.40698	0.00049
303.15	0.2317	1.40886	0.00047
303.15	0.3413	1.41062	0.00045
303.15	0.4383	1.41208	0.00044
303.15	0.5402	1.41356	0.00043
303.15	0.6442	1.41498	0.00041
303.15	0.7342	1.4162	0.0004
303.15	0.8259	1.41733	0.00039
303.15	0.9173	1.41842	0.00038
303.15	0.962	1.41896	0.00037
303.15	1	1.41935	0.00037
308.15	0	1.40234	0.00051
308.15	0.0641	1.40383	0.0005
308.15	0.1207	1.40496	0.00049
308.15	0.2317	1.40684	0.00047
308.15	0.3413	1.40857	0.00045
308.15	0.4383	1.41004	0.00044
308.15	0.5402	1.41151	0.00043
308.15	0.6442	1.41294	0.00041
308.15	0.7342	1.41413	0.0004
308.15	0.8259	1.41531	0.00039
308.15	0.9173	1.41643	0.00038
308.15	0.962	1.41695	0.00037
308.15	1	1.41733	0.00037
313.15	0	1.4003	0.00051
313.15	0.0641	1.40175	0.0005
313.15	0.1207	1.40283	0.00049
313.15	0.2317	1.40471	0.00047
313.15	0.3413	1.40649	0.00045
313.15	0.4383	1.40796	0.00044
313.15	0.5402	1.40944	0.00043
313.15	0.6442	1.41086	0.00041
313.15	0.7342	1.41209	0.0004
313.15	0.8259	1.41324	0.00039
313.15	0.9173	1.41437	0.00038
313.15	0.962	1.4149	0.00037
313.15	1	1.4153	0.00037

System: pentanoic acid + heptanoic acid; phases: Liquid
Fixed: Pressure, kPa = 101
Fixed: Frequency, MHz = 3
Property: Speed of sound, m/s (Liquid); method: Sing-around technique in a fixed-path interferometer
Temperature, K	Mole fraction of heptanoic acid	Speed of sound, m/s	uncertainty
293.15	0	1234	2.3
293.15	0.0641	1238.8	2.3
293.15	0.1207	1242.9	2.2
293.15	0.2317	1250.6	2.1
293.15	0.3413	1257.9	2
293.15	0.4383	1264.1	2
293.15	0.5402	1270.3	1.9
293.15	0.6442	1276.3	1.8
293.15	0.7342	1281.4	1.7
293.15	0.8259	1286.4	1.7
293.15	0.9173	1291.2	1.6
293.15	0.962	1293.4	1.6
293.15	1	1295.4	1.5
298.15	0	1216	2.3
298.15	0.0641	1220.8	2.3
298.15	0.1207	1225	2.2
298.15	0.2317	1232.8	2.1
298.15	0.3413	1240.1	2
298.15	0.4383	1246.3	2
298.15	0.5402	1252.5	1.9
298.15	0.6442	1258.6	1.8
298.15	0.7342	1263.7	1.7
298.15	0.8259	1268.7	1.7
298.15	0.9173	1273.5	1.6
298.15	0.962	1275.8	1.6
298.15	1	1277.7	1.5
303.15	0	1197.9	2.3
303.15	0.0641	1202.7	2.3
303.15	0.1207	1206.9	2.2
303.15	0.2317	1214.7	2.1
303.15	0.3413	1222.1	2
303.15	0.4383	1228.3	1.9
303.15	0.5402	1234.6	1.9
303.15	0.6442	1240.7	1.8
303.15	0.7342	1245.8	1.7
303.15	0.8259	1250.8	1.7
303.15	0.9173	1255.7	1.6
303.15	0.962	1257.9	1.6
303.15	1	1259.9	1.5
308.15	0	1179.9	2.3
308.15	0.0641	1184.8	2.3
308.15	0.1207	1189	2.2
308.15	0.2317	1196.9	2.1
308.15	0.3413	1204.2	2
308.15	0.4383	1210.5	1.9
308.15	0.5402	1216.8	1.9
308.15	0.6442	1223	1.8
308.15	0.7342	1228.1	1.7
308.15	0.8259	1233.1	1.7
308.15	0.9173	1238	1.6
308.15	0.962	1240.3	1.6
308.15	1	1242.2	1.5
313.15	0	1162.1	2.3
313.15	0.0641	1167	2.3
313.15	0.1207	1171.2	2.2
313.15	0.2317	1179.1	2.1
313.15	0.3413	1186.6	2
313.15	0.4383	1192.9	1.9
313.15	0.5402	1199.2	1.9
313.15	0.6442	1205.4	1.8
313.15	0.7342	1210.5	1.7
313.15	0.8259	1215.6	1.7
313.15	0.9173	1220.4	1.6
313.15	0.962	1222.7	1.6
313.15	1	1224.7	1.5
