Measured thermophysical data. Solution and solvation enthalpies of aromatic derivitives in binary mixtures. Dipole moment and dielectric properties
Source: Thermochim. Acta, 2019, 10.1016/j.tca.2019.03.028
Compound 1: benzene, C6H6, InChI=1S/C6H6/c1-2-4-6-5-3-1/h1-6H, purity 98%
Compound 2: cyclohexane, C6H12, InChI=1S/C6H12/c1-2-4-6-5-3-1/h1-6H2, purity 98%
Compound 3: tetrachloromethane, CCl4, InChI=1S/CCl4/c2-1(3,4)5, purity 98%
Compound 4: acetonitrile, C2H3N, InChI=1S/C2H3N/c1-2-3/h1H3, purity 98%
Compound 5: 1,2-dichlorobenzene, C6H4Cl2, InChI=1S/C6H4Cl2/c7-5-3-1-2-4-6(5)8/h1-4H, purity 98%
Compound 6: 1,4-dichlorobenzene, C6H4Cl2, InChI=1S/C6H4Cl2/c7-5-1-2-6(8)4-3-5/h1-4H, purity 98%
Compound 7: 1-chloro-2-nitrobenzene, C6H4ClNO2, InChI=1S/C6H4ClNO2/c7-5-3-1-2-4-6(5)8(9)10/h1-4H, purity 98%
Compound 8: 1-chloro-4-nitrobenzene, C6H4ClNO2, InChI=1S/C6H4ClNO2/c7-5-1-3-6(4-2-5)8(9)10/h1-4H, purity 98%
Compound 9: 1,2-dinitrobenzene, C6H4N2O4, InChI=1S/C6H4N2O4/c9-7(10)5-3-1-2-4-6(5)8(11)12/h1-4H, purity 98%
Compound 10: 1,4-dinitrobenzene, C6H4N2O4, InChI=1S/C6H4N2O4/c9-7(10)5-1-2-6(4-3-5)8(11)12/h1-4H, purity 98%

System: benzene; phases: Liquid
Property: Relative permittivity at various frequencies (Liquid); method: Coaxial cylinder capacitor
Pressure, kPa	Temperature, K	Frequency, MHz	Relative permittivity at various frequencies	uncertainty
100	293.15	0.01	2.29	0.13

System: cyclohexane; phases: Liquid
Property: Relative permittivity at various frequencies (Liquid); method: Coaxial cylinder capacitor
Pressure, kPa	Temperature, K	Frequency, MHz	Relative permittivity at various frequencies	uncertainty
100	293.15	0.01	2.02	0.12

System: tetrachloromethane; phases: Liquid
Property: Relative permittivity at various frequencies (Liquid); method: Coaxial cylinder capacitor
Pressure, kPa	Temperature, K	Frequency, MHz	Relative permittivity at various frequencies	uncertainty
100	293.15	0.01	2.23	0.13

System: acetonitrile; phases: Liquid
Property: Relative permittivity at various frequencies (Liquid); method: Coaxial cylinder capacitor
Pressure, kPa	Temperature, K	Frequency, MHz	Relative permittivity at various frequencies	uncertainty
100	293.15	0.01	37.7	1.73

System: tetrachloromethane + acetonitrile + 1,2-dichlorobenzene; phases: Liquid
Fixed: Mole fraction of 1,2-dichlorobenzene = 0
Fixed: Pressure, kPa = 100
Fixed: Temperature, K = 298.15
Property: Molar enthalpy of solution, kJ/mol (Liquid); method: ISOPERIBOL
Solvent: Mass fraction of acetonitrile	Molar enthalpy of solution, kJ/mol	uncertainty
0.25	1.53	0.06
0.5	1.91	0.1
0.75	2.82	0.07

System: tetrachloromethane + acetonitrile + 1,4-dichlorobenzene; phases: Liquid
Fixed: Mole fraction of 1,4-dichlorobenzene = 0
Fixed: Pressure, kPa = 100
Fixed: Temperature, K = 298.15
Property: Molar enthalpy of solution, kJ/mol (Liquid); method: ISOPERIBOL
Solvent: Mass fraction of acetonitrile	Molar enthalpy of solution, kJ/mol	uncertainty
0.25	19.31	0.17
0.5	19.89	0.15
0.75	20.64	0.17

System: tetrachloromethane + acetonitrile + 1-chloro-2-nitrobenzene; phases: Liquid
Fixed: Mole fraction of 1-chloro-2-nitrobenzene = 0
Fixed: Pressure, kPa = 100
Fixed: Temperature, K = 298.15
Property: Molar enthalpy of solution, kJ/mol (Liquid); method: ISOPERIBOL
Solvent: Mass fraction of acetonitrile	Molar enthalpy of solution, kJ/mol	uncertainty
0	25.2	0.22
0.25	21.22	0.16
0.5	21.21	0.18
0.75	21.17	0.22

System: tetrachloromethane + acetonitrile + 1-chloro-4-nitrobenzene; phases: Liquid
Fixed: Mole fraction of 1-chloro-4-nitrobenzene = 0
Fixed: Pressure, kPa = 100
Fixed: Temperature, K = 298.15
Property: Molar enthalpy of solution, kJ/mol (Liquid); method: ISOPERIBOL
Solvent: Mass fraction of acetonitrile	Molar enthalpy of solution, kJ/mol	uncertainty
0	18.9	0.18
0.25	16.89	0.14
0.5	16.82	0.17
0.75	16.4	0.15

System: tetrachloromethane + acetonitrile + 1,2-dinitrobenzene; phases: Liquid
Fixed: Mole fraction of 1,2-dinitrobenzene = 0
Fixed: Pressure, kPa = 100
Fixed: Temperature, K = 298.15
Property: Molar enthalpy of solution, kJ/mol (Liquid); method: ISOPERIBOL
Solvent: Mass fraction of acetonitrile	Molar enthalpy of solution, kJ/mol	uncertainty
0.25	22.42	0.17
0.5	21.2	0.2
0.75	20.42	0.17

System: tetrachloromethane + acetonitrile + 1,4-dinitrobenzene; phases: Liquid
Fixed: Mole fraction of 1,4-dinitrobenzene = 0
Fixed: Pressure, kPa = 100
Fixed: Temperature, K = 298.15
Property: Molar enthalpy of solution, kJ/mol (Liquid); method: ISOPERIBOL
Solvent: Mass fraction of acetonitrile	Molar enthalpy of solution, kJ/mol	uncertainty
0.25	24.52	0.22
0.5	23.03	0.21
0.75	22	0.2

System: benzene + acetonitrile + 1,2-dichlorobenzene; phases: Liquid
Fixed: Mole fraction of 1,2-dichlorobenzene = 0
Fixed: Temperature, K = 298.15
Fixed: Pressure, kPa = 100
Property: Molar enthalpy of solution, kJ/mol (Liquid); method: ISOPERIBOL
Solvent: Mass fraction of acetonitrile	Molar enthalpy of solution, kJ/mol	uncertainty
0.25	1.92	0.04
0.5	2.22	0.07
0.75	2.74	0.1

System: benzene + acetonitrile + 1,4-dichlorobenzene; phases: Liquid
Fixed: Mole fraction of 1,4-dichlorobenzene = 0
Fixed: Temperature, K = 298.15
Fixed: Pressure, kPa = 100
Property: Molar enthalpy of solution, kJ/mol (Liquid); method: ISOPERIBOL
Solvent: Mass fraction of acetonitrile	Molar enthalpy of solution, kJ/mol	uncertainty
0.25	19.61	0.19
0.5	20.23	0.17
0.75	21.03	0.22

System: benzene + acetonitrile + 1-chloro-2-nitrobenzene; phases: Liquid
Fixed: Mole fraction of 1-chloro-2-nitrobenzene = 0
Fixed: Temperature, K = 298.15
Fixed: Pressure, kPa = 100
Property: Molar enthalpy of solution, kJ/mol (Liquid); method: ISOPERIBOL
Solvent: Mass fraction of acetonitrile	Molar enthalpy of solution, kJ/mol	uncertainty
0.25	20.21	0.17
0.5	20.72	0.19
0.75	21.1	0.2

System: benzene + acetonitrile + 1-chloro-4-nitrobenzene; phases: Liquid
Fixed: Mole fraction of 1-chloro-4-nitrobenzene = 0
Fixed: Temperature, K = 298.15
Fixed: Pressure, kPa = 100
Property: Molar enthalpy of solution, kJ/mol (Liquid); method: ISOPERIBOL
Solvent: Mass fraction of acetonitrile	Molar enthalpy of solution, kJ/mol	uncertainty
0.25	16.2	0.17
0.5	16.39	0.15
0.75	17.03	0.2

System: benzene + acetonitrile + 1,2-dinitrobenzene; phases: Liquid
Fixed: Mole fraction of 1,2-dinitrobenzene = 0
Fixed: Temperature, K = 298.15
Fixed: Pressure, kPa = 100
Property: Molar enthalpy of solution, kJ/mol (Liquid); method: ISOPERIBOL
Solvent: Mass fraction of acetonitrile	Molar enthalpy of solution, kJ/mol	uncertainty
0.25	20.5	0.19
0.5	20.28	0.19
0.75	20.32	0.17

System: benzene + acetonitrile + 1,4-dinitrobenzene; phases: Liquid
Fixed: Mole fraction of 1,4-dinitrobenzene = 0
Fixed: Temperature, K = 298.15
Fixed: Pressure, kPa = 100
Property: Molar enthalpy of solution, kJ/mol (Liquid); method: ISOPERIBOL
Solvent: Mass fraction of acetonitrile	Molar enthalpy of solution, kJ/mol	uncertainty
0.25	21.19	0.2
0.5	21.02	0.2
0.75	21.3	0.2

System: benzene + 1,2-dichlorobenzene + cyclohexane; phases: Liquid
Fixed: Mole fraction of 1,2-dichlorobenzene = 0
Fixed: Temperature, K = 298.15
Fixed: Pressure, kPa = 100
Property: Molar enthalpy of solution, kJ/mol (Liquid); method: ISOPERIBOL
Solvent: Mass fraction of cyclohexane	Molar enthalpy of solution, kJ/mol	uncertainty
0.25	0.82	0.03
0.5	1.31	0.06
0.75	2.92	0.1

System: benzene + 1,4-dichlorobenzene + cyclohexane; phases: Liquid
Fixed: Mole fraction of 1,4-dichlorobenzene = 0
Fixed: Temperature, K = 298.15
Fixed: Pressure, kPa = 100
Property: Molar enthalpy of solution, kJ/mol (Liquid); method: ISOPERIBOL
Solvent: Mass fraction of cyclohexane	Molar enthalpy of solution, kJ/mol	uncertainty
0.25	18.22	0.18
0.5	18.29	0.16
0.75	20.21	0.16

System: benzene + 1-chloro-2-nitrobenzene + cyclohexane; phases: Liquid
Fixed: Mole fraction of 1-chloro-2-nitrobenzene = 0
Fixed: Temperature, K = 298.15
Fixed: Pressure, kPa = 100
Property: Molar enthalpy of solution, kJ/mol (Liquid); method: ISOPERIBOL
Solvent: Mass fraction of cyclohexane	Molar enthalpy of solution, kJ/mol	uncertainty
0.25	21.11	0.2
0.5	22.93	0.23
0.75	26.12	0.25
1	31.01	0.25

System: benzene + 1-chloro-4-nitrobenzene + cyclohexane; phases: Liquid
Fixed: Mole fraction of 1-chloro-4-nitrobenzene = 0
Fixed: Temperature, K = 298.15
Fixed: Pressure, kPa = 100
Property: Molar enthalpy of solution, kJ/mol (Liquid); method: ISOPERIBOL
Solvent: Mass fraction of cyclohexane	Molar enthalpy of solution, kJ/mol	uncertainty
0.25	16.81	0.17
0.5	18.53	0.21
0.75	21.1	0.18
1	26.81	0.23

System: tetrachloromethane + 1-chloro-2-nitrobenzene; phases: Liquid
Property: Molar enthalpy of solution, kJ/mol (Liquid); method: ISOPERIBOL
Mole fraction of 1-chloro-2-nitrobenzene	Pressure, kPa	Temperature, K	Molar enthalpy of solution, kJ/mol	uncertainty
0	100	298.15	25.2	0.22

System: tetrachloromethane + 1-chloro-4-nitrobenzene; phases: Liquid
Property: Molar enthalpy of solution, kJ/mol (Liquid); method: ISOPERIBOL
Mole fraction of 1-chloro-4-nitrobenzene	Pressure, kPa	Temperature, K	Molar enthalpy of solution, kJ/mol	uncertainty
0	100	298.15	18.9	0.18

System: 1-chloro-2-nitrobenzene + cyclohexane; phases: Liquid
Property: Molar enthalpy of solution, kJ/mol (Liquid); method: ISOPERIBOL
Mole fraction of 1-chloro-2-nitrobenzene	Pressure, kPa	Temperature, K	Molar enthalpy of solution, kJ/mol	uncertainty
0	100	298.15	31.01	0.25

System: 1-chloro-4-nitrobenzene + cyclohexane; phases: Liquid
Property: Molar enthalpy of solution, kJ/mol (Liquid); method: ISOPERIBOL
Mole fraction of 1-chloro-4-nitrobenzene	Pressure, kPa	Temperature, K	Molar enthalpy of solution, kJ/mol	uncertainty
0	100	298.15	26.81	0.23

System: tetrachloromethane + acetonitrile; phases: Liquid
Fixed: Pressure, kPa = 100
Fixed: Temperature, K = 293.15
Fixed: Frequency, MHz = 0.01
Property: Relative permittivity at various frequencies (Liquid); method: Coaxial cylinder capacitor
Mass fraction of acetonitrile	Relative permittivity at various frequencies	uncertainty
0	2.23	0.13
0.25	14.96	0.71
0.5	25.7	1.19
0.75	34.2	1.58
1	37.7	1.73

System: benzene + cyclohexane; phases: Liquid
Fixed: Pressure, kPa = 100
Fixed: Temperature, K = 293.15
Fixed: Frequency, MHz = 0.01
Property: Relative permittivity at various frequencies (Liquid); method: Coaxial cylinder capacitor
Mass fraction of cyclohexane	Relative permittivity at various frequencies	uncertainty
0	2.29	0.13
0.25	2.2	0.13
0.5	2.13	0.13
0.75	2.07	0.12
1	2.02	0.12

System: benzene + acetonitrile; phases: Liquid
Fixed: Pressure, kPa = 100
Fixed: Temperature, K = 293.15
Fixed: Frequency, MHz = 0.01
Property: Relative permittivity at various frequencies (Liquid); method: Coaxial cylinder capacitor
Mass fraction of acetonitrile	Relative permittivity at various frequencies	uncertainty
0	2.29	0.13
0.25	10.21	0.49
0.5	19.8	0.93
0.75	28.5	1.32
1	37.7	1.73
