Measured thermophysical data. Thermodynamic study of 2-methyl-tetrahydrofuran with isomeric chlorobutanes
Source: Thermochim. Acta, 2005, 10.1016/j.tca.2004.11.034
Compound 1: 1-chlorobutane, C4H9Cl, InChI=1S/C4H9Cl/c1-2-3-4-5/h2-4H2,1H3
Compound 2: 2-methyltetrahydrofuran, C5H10O, InChI=1S/C5H10O/c1-5-3-2-4-6-5/h5H,2-4H2,1H3
Compound 3: 2-chlorobutane, C4H9Cl, InChI=1S/C4H9Cl/c1-3-4(2)5/h4H,3H2,1-2H3
Compound 4: 1-chloro-2-methylpropane, C4H9Cl, InChI=1S/C4H9Cl/c1-4(2)3-5/h4H,3H2,1-2H3
Compound 5: 2-chloro-2-methylpropane, C4H9Cl, InChI=1S/C4H9Cl/c1-4(2,3)5/h1-3H3

System: 1-chlorobutane; phases: Liquid
Property: Mass density, kg/m3 (Liquid); method: Vibrating tube method
Temperature, K	Pressure, kPa	Mass density, kg/m3	uncertainty
298.15	101.325	880.69	0.45

System: 1-chlorobutane; phases: Liquid
Property: Mass density, kg/m3 (Liquid); method: Vibrating tube method
Temperature, K	Pressure, kPa	Mass density, kg/m3	uncertainty
313.15	101.325	863.86	0.45

System: 1-chlorobutane; phases: Liquid
Fixed: Pressure, kPa = 101.325
Property: Speed of sound, m/s (Liquid); method: Anton Paar DSA 48
Temperature, K	Speed of sound, m/s	uncertainty
298.15	1118.8	1.4
333.15	1057.1	1.4

System: 2-methyltetrahydrofuran; phases: Liquid
Property: Mass density, kg/m3 (Liquid); method: Vibrating tube method
Temperature, K	Pressure, kPa	Mass density, kg/m3	uncertainty
298.15	101.325	849.2	0.46

System: 2-methyltetrahydrofuran; phases: Liquid
Property: Mass density, kg/m3 (Liquid); method: Vibrating tube method
Temperature, K	Pressure, kPa	Mass density, kg/m3	uncertainty
313.15	101.325	833.88	0.45

System: 2-methyltetrahydrofuran; phases: Liquid
Fixed: Pressure, kPa = 101.325
Property: Speed of sound, m/s (Liquid); method: Anton Paar DSA 48
Temperature, K	Speed of sound, m/s	uncertainty
298.15	1202.6	1.4
333.15	1136.2	1.4

System: 2-chlorobutane; phases: Liquid
Property: Mass density, kg/m3 (Liquid); method: Vibrating tube method
Temperature, K	Pressure, kPa	Mass density, kg/m3	uncertainty
298.15	101.325	867.37	0.45

System: 2-chlorobutane; phases: Liquid
Property: Mass density, kg/m3 (Liquid); method: Vibrating tube method
Temperature, K	Pressure, kPa	Mass density, kg/m3	uncertainty
313.15	101.325	850.16	0.45

System: 2-chlorobutane; phases: Liquid
Fixed: Pressure, kPa = 101.325
Property: Speed of sound, m/s (Liquid); method: Anton Paar DSA 48
Temperature, K	Speed of sound, m/s	uncertainty
298.15	1066.8	1.4
333.15	1006.9	1.4

System: 1-chloro-2-methylpropane; phases: Liquid
Property: Mass density, kg/m3 (Liquid); method: Vibrating tube method
Temperature, K	Pressure, kPa	Mass density, kg/m3	uncertainty
298.15	101.325	870.89	0.44

System: 1-chloro-2-methylpropane; phases: Liquid
Property: Mass density, kg/m3 (Liquid); method: Vibrating tube method
Temperature, K	Pressure, kPa	Mass density, kg/m3	uncertainty
313.15	101.325	853.56	0.43

System: 1-chloro-2-methylpropane; phases: Liquid
Fixed: Pressure, kPa = 101.325
Property: Speed of sound, m/s (Liquid); method: Anton Paar DSA 48
Temperature, K	Speed of sound, m/s	uncertainty
298.15	1079.2	1.4
333.15	1016.3	1.4

System: 2-chloro-2-methylpropane; phases: Liquid
Property: Mass density, kg/m3 (Liquid); method: Vibrating tube method
Temperature, K	Pressure, kPa	Mass density, kg/m3	uncertainty
298.15	101.325	835.67	0.44

System: 2-chloro-2-methylpropane; phases: Liquid
Property: Mass density, kg/m3 (Liquid); method: Vibrating tube method
Temperature, K	Pressure, kPa	Mass density, kg/m3	uncertainty
313.15	101.325	818.43	0.43

System: 2-chloro-2-methylpropane; phases: Liquid
Fixed: Pressure, kPa = 101.325
Property: Speed of sound, m/s (Liquid); method: Anton Paar DSA 48
Temperature, K	Speed of sound, m/s	uncertainty
298.15	983.1	1.4
333.15	920.3	1.4

System: 2-chlorobutane + 2-methyltetrahydrofuran; phases: Liquid
Fixed: Temperature, K = 298.15
Fixed: Pressure, kPa = 101.325
Property: Excess molar enthalpy (molar enthalpy of mixing), kJ/mol (Liquid); method: Flow calorimetry
Mole fraction of 2-methyltetrahydrofuran	Excess molar enthalpy (molar enthalpy of mixing), kJ/mol	uncertainty
0.057	-0.019	0.001
0.104	-0.042	0.001
0.201	-0.083	0.002
0.298	-0.116	0.002
0.398	-0.138	0.002
0.497	-0.149	0.002
0.597	-0.15	0.002
0.696	-0.135	0.002
0.799	-0.105	0.002
0.901	-0.059	0.001
0.954	-0.03	0.001

System: 2-chlorobutane + 2-methyltetrahydrofuran; phases: Liquid
Fixed: Pressure, kPa = 101.325
Property: Speed of sound, m/s (Liquid); method: Anton Paar DSA 48
Temperature, K	Mole fraction of 2-methyltetrahydrofuran	Speed of sound, m/s	uncertainty
298.15	0.049	1073.2	1.4
298.15	0.1006	1080.1	1.4
298.15	0.2041	1093.8	1.4
298.15	0.3034	1107.1	1.4
298.15	0.4055	1120.8	1.4
298.15	0.5026	1134	1.4
298.15	0.6005	1147.3	1.4
298.15	0.6989	1160.9	1.4
298.15	0.8022	1175.2	1.4
298.15	0.8991	1188.7	1.4
298.15	0.9472	1195.3	1.4
313.15	0.0565	1013.7	1.4
313.15	0.101	1019.3	1.4
313.15	0.201	1031.9	1.4
313.15	0.3045	1045.1	1.4
313.15	0.4039	1057.9	1.4
313.15	0.5074	1071.3	1.4
313.15	0.6044	1083.9	1.4
313.15	0.7042	1097	1.4
313.15	0.8034	1110	1.4
313.15	0.8988	1122.6	1.4
313.15	0.9456	1128.8	1.4

System: 2-chlorobutane + 2-methyltetrahydrofuran; phases: Liquid
Fixed: Pressure, kPa = 101.325
Property: Mass density, kg/m3 (Liquid); method: Vibrating tube method
Temperature, K	Mole fraction of 2-methyltetrahydrofuran	Mass density, kg/m3	uncertainty
298.15	0.049	866.71	0.45
298.15	0.1006	866.01	0.45
298.15	0.2041	864.52	0.45
298.15	0.3034	862.99	0.45
298.15	0.4055	861.31	0.45
298.15	0.5026	859.61	0.45
298.15	0.6005	857.81	0.45
298.15	0.6989	855.91	0.45
298.15	0.8022	853.81	0.45
298.15	0.8991	851.69	0.45
298.15	0.9472	850.55	0.44
313.15	0.0565	849.52	0.44
313.15	0.101	848.97	0.44
313.15	0.201	847.69	0.44
313.15	0.3045	846.28	0.44
313.15	0.4039	844.81	0.44
313.15	0.5074	843.19	0.44
313.15	0.6044	841.58	0.44
313.15	0.7042	839.79	0.44
313.15	0.8034	837.9	0.44
313.15	0.8988	835.97	0.44
313.15	0.9456	835.03	0.44

System: 2-methyltetrahydrofuran + 1-chloro-2-methylpropane; phases: Liquid
Fixed: Temperature, K = 298.15
Fixed: Pressure, kPa = 101.325
Property: Excess molar enthalpy (molar enthalpy of mixing), kJ/mol (Liquid); method: Flow calorimetry
Mole fraction of 2-methyltetrahydrofuran	Excess molar enthalpy (molar enthalpy of mixing), kJ/mol	uncertainty
0.06	-0.033	0.001
0.109	-0.067	0.002
0.21	-0.132	0.002
0.309	-0.174	0.003
0.411	-0.211	0.003
0.511	-0.224	0.003
0.609	-0.22	0.003
0.707	-0.196	0.003
0.806	-0.151	0.002
0.904	-0.084	0.002
0.954	-0.043	0.001

System: 2-methyltetrahydrofuran + 1-chloro-2-methylpropane; phases: Liquid
Fixed: Pressure, kPa = 101.325
Property: Speed of sound, m/s (Liquid); method: Anton Paar DSA 48
Temperature, K	Mole fraction of 2-methyltetrahydrofuran	Speed of sound, m/s	uncertainty
298.15	0.0515	1085.4	1.4
298.15	0.1006	1091.3	1.4
298.15	0.2026	1103.8	1.4
298.15	0.3059	1116.6	1.4
298.15	0.4062	1129.1	1.4
298.15	0.505	1141.4	1.4
298.15	0.6022	1153.5	1.4
298.15	0.7035	1166.1	1.4
298.15	0.8012	1178.2	1.4
298.15	0.9099	1191.6	1.4
298.15	0.9492	1196.4	1.4
313.15	0.0553	1023	1.4
313.15	0.1014	1028.6	1.4
313.15	0.1992	1040.5	1.4
313.15	0.3	1052.7	1.4
313.15	0.4072	1065.7	1.4
313.15	0.5015	1077	1.4
313.15	0.605	1089.3	1.4
313.15	0.7022	1100.8	1.4
313.15	0.8	1112.4	1.4
313.15	0.8967	1123.8	1.4
313.15	0.9491	1130	1.4

System: 2-methyltetrahydrofuran + 1-chloro-2-methylpropane; phases: Liquid
Fixed: Pressure, kPa = 101.325
Property: Mass density, kg/m3 (Liquid); method: Vibrating tube method
Temperature, K	Mole fraction of 2-methyltetrahydrofuran	Mass density, kg/m3	uncertainty
298.15	0.0515	870.05	0.45
298.15	0.1006	869.23	0.45
298.15	0.2026	867.39	0.45
298.15	0.3059	865.41	0.45
298.15	0.4062	863.41	0.45
298.15	0.505	861.34	0.45
298.15	0.6022	859.23	0.45
298.15	0.7035	856.92	0.45
298.15	0.8012	854.57	0.45
298.15	0.9099	851.75	0.45
298.15	0.9492	850.66	0.45
313.15	0.0553	852.78	0.45
313.15	0.1014	852.08	0.45
313.15	0.1992	850.48	0.44
313.15	0.3	848.74	0.44
313.15	0.4072	846.78	0.44
313.15	0.5015	844.98	0.44
313.15	0.605	842.9	0.44
313.15	0.7022	840.83	0.44
313.15	0.8	838.61	0.44
313.15	0.8967	836.35	0.44
313.15	0.9491	835.09	0.44

System: 2-methyltetrahydrofuran + 1-chlorobutane; phases: Liquid
Fixed: Temperature, K = 298.15
Fixed: Pressure, kPa = 101.325
Property: Excess molar enthalpy (molar enthalpy of mixing), kJ/mol (Liquid); method: Flow calorimetry
Mole fraction of 2-methyltetrahydrofuran	Excess molar enthalpy (molar enthalpy of mixing), kJ/mol	uncertainty
0.057	-0.028	0.001
0.104	-0.058	0.002
0.201	-0.116	0.002
0.298	-0.159	0.003
0.398	-0.195	0.003
0.497	-0.21	0.003
0.597	-0.207	0.003
0.696	-0.188	0.003
0.799	-0.147	0.002
0.901	-0.085	0.002
0.954	-0.043	0.001

System: 2-methyltetrahydrofuran + 1-chlorobutane; phases: Liquid
Fixed: Pressure, kPa = 101.325
Property: Speed of sound, m/s (Liquid); method: Anton Paar DSA 48
Temperature, K	Mole fraction of 2-methyltetrahydrofuran	Speed of sound, m/s	uncertainty
298.15	0.0535	1123.2	1.4
298.15	0.0972	1126.8	1.4
298.15	0.1958	1134.9	1.4
298.15	0.2975	1143.3	1.4
298.15	0.4006	1151.9	1.4
298.15	0.5031	1160.5	1.4
298.15	0.6017	1168.8	1.4
298.15	0.6986	1177	1.4
298.15	0.8009	1185.6	1.4
298.15	0.9005	1194.1	1.4
298.15	0.9489	1198.2	1.4
313.15	0.0507	1061	1.4
313.15	0.1022	1065	1.4
313.15	0.2014	1072.6	1.4
313.15	0.3019	1080.3	1.4
313.15	0.4047	1088.5	1.4
313.15	0.5017	1096.2	1.4
313.15	0.6026	1104.3	1.4
313.15	0.7017	1112.3	1.4
313.15	0.7994	1120.2	1.4
313.15	0.9009	1128.3	1.4
313.15	0.9487	1132.2	1.4

System: 2-methyltetrahydrofuran + 1-chlorobutane; phases: Liquid
Fixed: Pressure, kPa = 101.325
Property: Mass density, kg/m3 (Liquid); method: Vibrating tube method
Temperature, K	Mole fraction of 2-methyltetrahydrofuran	Mass density, kg/m3	uncertainty
298.15	0.0535	879.23	0.46
298.15	0.0972	878.04	0.46
298.15	0.1958	875.19	0.45
298.15	0.2975	872.17	0.45
298.15	0.4006	869.04	0.45
298.15	0.5031	865.88	0.45
298.15	0.6017	862.77	0.45
298.15	0.6986	859.63	0.45
298.15	0.8009	856.27	0.45
298.15	0.9005	852.87	0.45
298.15	0.9489	851.15	0.45
313.15	0.0507	862.5	0.45
313.15	0.1022	861.16	0.45
313.15	0.2014	858.46	0.45
313.15	0.3019	855.6	0.45
313.15	0.4047	852.6	0.45
313.15	0.5017	849.72	0.44
313.15	0.6026	846.65	0.44
313.15	0.7017	843.55	0.44
313.15	0.7994	840.43	0.44
313.15	0.9009	837.13	0.44
313.15	0.9487	835.54	0.44

System: 2-methyltetrahydrofuran + 2-chloro-2-methylpropane; phases: Liquid
Fixed: Temperature, K = 298.15
Fixed: Pressure, kPa = 101.325
Property: Excess molar enthalpy (molar enthalpy of mixing), kJ/mol (Liquid); method: Flow calorimetry
Mole fraction of 2-methyltetrahydrofuran	Excess molar enthalpy (molar enthalpy of mixing), kJ/mol	uncertainty
0.057	-0.014	0.001
0.104	-0.03	0.001
0.201	-0.061	0.001
0.298	-0.083	0.002
0.398	-0.101	0.002
0.497	-0.109	0.002
0.597	-0.106	0.002
0.696	-0.095	0.002
0.799	-0.077	0.002
0.901	-0.044	0.001
0.954	-0.023	0.001

System: 2-methyltetrahydrofuran + 2-chloro-2-methylpropane; phases: Liquid
Fixed: Pressure, kPa = 101.325
Property: Speed of sound, m/s (Liquid); method: Anton Paar DSA 48
Temperature, K	Mole fraction of 2-methyltetrahydrofuran	Speed of sound, m/s	uncertainty
298.15	0.0505	993.8	1.4
298.15	0.108	1006.1	1.4
298.15	0.2065	1027.5	1.4
298.15	0.3136	1050.9	1.4
298.15	0.4125	1072.6	1.4
298.15	0.5156	1095.2	1.4
298.15	0.6124	1116.5	1.4
298.15	0.7107	1138.2	1.4
298.15	0.8031	1158.7	1.4
298.15	0.9022	1180.6	1.4
298.15	0.9476	1190.7	1.4
313.15	0.0517	932.6	1.4
313.15	0.0895	941.2	1.4
313.15	0.195	964	1.4
313.15	0.3015	986.5	1.4
313.15	0.3969	1006.8	1.4
313.15	0.4986	1028.7	1.4
313.15	0.605	1051.5	1.4
313.15	0.6978	1071.1	1.4
313.15	0.7998	1092	1.4
313.15	0.8947	1111.7	1.4
313.15	0.949	1123.7	1.4

System: 2-methyltetrahydrofuran + 2-chloro-2-methylpropane; phases: Liquid
Fixed: Pressure, kPa = 101.325
Property: Mass density, kg/m3 (Liquid); method: Vibrating tube method
Temperature, K	Mole fraction of 2-methyltetrahydrofuran	Mass density, kg/m3	uncertainty
298.15	0.0505	837.22	0.44
298.15	0.108	838.65	0.44
298.15	0.2065	840.58	0.44
298.15	0.3136	842.3	0.44
298.15	0.4125	843.81	0.44
298.15	0.5156	845.26	0.44
298.15	0.6124	846.46	0.44
298.15	0.7107	847.59	0.44
298.15	0.8031	848.42	0.44
298.15	0.9022	848.98	0.44
298.15	0.9476	849.12	0.44
313.15	0.0517	819.88	0.43
313.15	0.0895	820.9	0.43
313.15	0.195	823.23	0.44
313.15	0.3015	825.36	0.44
313.15	0.3969	827.1	0.44
313.15	0.4986	828.77	0.44
313.15	0.605	830.31	0.44
313.15	0.6978	831.4	0.44
313.15	0.7998	832.45	0.44
313.15	0.8947	833.18	0.44
313.15	0.949	833.54	0.44
