Measured thermophysical data. Influence of the composition of water organic mixtures and the properties of organic solvents on thermochemical characteristics of l-methionine dissolution at 298.15 K
Source: Thermochim. Acta, 2015, 10.1016/j.tca.2015.08.006
Compound 1: L-methionine, C5H11NO2S, InChI=1S/C5H11NO2S/c1-9-3-2-4(6)5(7)8/h4H,2-3,6H2,1H3,(H,7,8)/t4-/m0/s1, purity 98%
Compound 2: acetonitrile, C2H3N, InChI=1S/C2H3N/c1-2-3/h1H3, purity 99.8%
Compound 3: 1,4-dioxane, C4H8O2, InChI=1S/C4H8O2/c1-2-6-4-3-5-1/h1-4H2, purity 99.8%
Compound 4: acetone, C3H6O, InChI=1S/C3H6O/c1-3(2)4/h1-2H3, purity 99.8%
Compound 5: formamide, CH3NO, InChI=1S/CH3NO/c2-1-3/h1H,(H2,2,3), purity 99.8%
Compound 6: N-methylformamide, C2H5NO, InChI=1S/C2H5NO/c1-3-2-4/h2H,1H3,(H,3,4), purity 99%
Compound 7: dimethylformamide, C3H7NO, InChI=1S/C3H7NO/c1-4(2)3-5/h3H,1-2H3, purity 99%
Compound 8: N,N-dimethylethanamide, C4H9NO, InChI=1S/C4H9NO/c1-4(6)5(2)3/h1-3H3, purity 99.8%
Compound 9: dimethyl sulfoxide, C2H6OS, InChI=1S/C2H6OS/c1-4(2)3/h1-2H3, purity 99.5%
Compound 10: water, H2O, InChI=1S/H2O/h1H2

System: L-methionine + formamide + water; phases: Liquid
Fixed: Temperature, K = 298.15
Fixed: Pressure, kPa = 100.5
Fixed: Mole fraction of L-methionine = 0
Property: Molar enthalpy of solution, kJ/mol (Liquid); method: ISOPERIBOL
Solvent: Molality, mol/kg of formamide	Molar enthalpy of solution, kJ/mol	uncertainty
0	11.21	0.18
1.242	10.86	0.11
2.193	10.63	0.1
3.637	10.39	0.1
5.079	10.17	0.09
7.521	9.82	0.11
8.359	9.74	0.09
10.867	9.52	0.09
12.756	9.49	0.1
17.647	9.56	0.09
25.445	10.29	0.09
35.557	11.37	0.1

System: L-methionine + N-methylformamide + water; phases: Liquid
Fixed: Temperature, K = 298.15
Fixed: Pressure, kPa = 100.5
Fixed: Mole fraction of L-methionine = 0
Property: Molar enthalpy of solution, kJ/mol (Liquid); method: ISOPERIBOL
Solvent: Molality, mol/kg of N-methylformamide	Molar enthalpy of solution, kJ/mol	uncertainty
0	11.21	0.18
0.721	11.8	0.13
1.536	12.87	0.11
2.515	13.72	0.13
3.396	14.34	0.13
4.456	15.14	0.12
5.599	15.67	0.14
6.915	16.19	0.13
8.409	16.43	0.13
10.087	17.07	0.13
12.005	17.24	0.13
16.781	17.38	0.15
23.518	17.17	0.16

System: L-methionine + dimethylformamide + water; phases: Liquid
Fixed: Temperature, K = 298.15
Fixed: Pressure, kPa = 100.5
Fixed: Mole fraction of L-methionine = 0
Property: Molar enthalpy of solution, kJ/mol (Liquid); method: ISOPERIBOL
Solvent: Molality, mol/kg of dimethylformamide	Molar enthalpy of solution, kJ/mol	uncertainty
0	11.21	0.18
0.567	12.18	0.13
1.201	13.19	0.11
1.879	14.41	0.12
2.657	15.44	0.13
3.731	16.84	0.13
4.355	17.57	0.14
5.378	18.46	0.14
6.521	19.32	0.16
7.825	20.29	0.16
9.404	21.04	0.18
12.977	22.12	0.19
18.216	21.86	0.18

System: L-methionine + N,N-dimethylethanamide + water; phases: Liquid
Fixed: Temperature, K = 298.15
Fixed: Pressure, kPa = 100.5
Fixed: Mole fraction of L-methionine = 0
Property: Molar enthalpy of solution, kJ/mol (Liquid); method: ISOPERIBOL
Solvent: Molality, mol/kg of N,N-dimethylethanamide	Molar enthalpy of solution, kJ/mol	uncertainty
0	11.21	0.18
0.467	12.42	0.13
0.977	13.34	0.13
1.528	14.29	0.13
2.125	15.38	0.13
2.803	16.41	0.14
3.562	17.54	0.16
4.404	18.23	0.14
5.321	19.38	0.15
6.392	19.96	0.17
7.605	20.03	0.16
10.648	20.38	0.18
14.927	19.21	0.18

System: L-methionine + acetonitrile + water; phases: Liquid
Fixed: Temperature, K = 298.15
Fixed: Pressure, kPa = 100.5
Fixed: Mole fraction of L-methionine = 0
Property: Molar enthalpy of solution, kJ/mol (Liquid); method: ISOPERIBOL
Solvent: Molality, mol/kg of acetonitrile	Molar enthalpy of solution, kJ/mol	uncertainty
0	11.21	0.18
0.809	12.25	0.13
1.694	13.24	0.14
2.661	14.11	0.13
3.754	14.86	0.13
4.929	15.55	0.14
6.266	16.15	0.13
7.73	16.46	0.13
9.412	16.58	0.13
11.276	16.44	0.14
13.438	16.09	0.14
15.904	15.39	0.14
18.782	14.61	0.14

System: L-methionine + 1,4-dioxane + water; phases: Liquid
Fixed: Temperature, K = 298.15
Fixed: Pressure, kPa = 100.5
Fixed: Mole fraction of L-methionine = 0
Property: Molar enthalpy of solution, kJ/mol (Liquid); method: ISOPERIBOL
Solvent: Molality, mol/kg of 1,4-dioxane	Molar enthalpy of solution, kJ/mol	uncertainty
0	11.21	0.18
0.525	12.08	0.15
1.086	13.13	0.14
1.693	14.11	0.12
2.353	14.81	0.13
3.112	15.54	0.14
3.904	16.35	0.13
4.845	16.67	0.13
5.836	17.15	0.14
7.029	17.57	0.15
8.328	17.54	0.15
11.598	17.14	0.15
16.306	17.04	0.16

System: L-methionine + acetone + water; phases: Liquid
Fixed: Temperature, K = 298.15
Fixed: Pressure, kPa = 100.5
Fixed: Mole fraction of L-methionine = 0
Property: Molar enthalpy of solution, kJ/mol (Liquid); method: ISOPERIBOL
Solvent: Molality, mol/kg of acetone	Molar enthalpy of solution, kJ/mol	uncertainty
0	11.21	0.18
0.584	12.34	0.13
1.229	13.43	0.13
1.908	14.48	0.13
2.652	15.44	0.13
3.498	16.38	0.13
4.46	17.61	0.14
5.513	18.79	0.16
6.689	19.87	0.16
8.031	20.73	0.16
9.582	21.33	0.17
13.423	22.09	0.18
18.812	22.44	0.19

System: L-methionine + dimethyl sulfoxide + water; phases: Liquid
Fixed: Temperature, K = 298.15
Fixed: Pressure, kPa = 100.5
Fixed: Mole fraction of L-methionine = 0
Property: Molar enthalpy of solution, kJ/mol (Liquid); method: ISOPERIBOL
Solvent: Molality, mol/kg of dimethyl sulfoxide	Molar enthalpy of solution, kJ/mol	uncertainty
0	11.21	0.18
0.657	11.87	0.15
1.338	12.68	0.13
2.101	13.22	0.14
2.923	13.79	0.11
3.871	14.49	0.13
4.812	14.67	0.12
5.982	15.18	0.12
7.157	15.59	0.14
8.639	15.61	0.14
10.178	15.43	0.14
14.225	15.1	0.15
20.014	14.53	0.16

System: L-methionine + water; phases: Liquid
Property: Molar enthalpy of solution, kJ/mol (Liquid); method: ISOPERIBOL
Temperature, K	Pressure, kPa	Mole fraction of L-methionine	Molar enthalpy of solution, kJ/mol	uncertainty
298.15	100.5	0	11.21	0.18
