Measured thermophysical data. Heat capacity and Raman spectra of Cr(C5H7O2)3 at low temperature
Source: Thermochim. Acta, 2006, 10.1016/j.tca.2005.12.024
Compound 1: tris(2,4-pentanedionato)chromium, C15H21CrO6, InChI=1S/3C5H7O2.Cr/c3*1-4(6)3-5(2)7;/h3*3H,1-2H3;/q3*-1;+3

System: tris(2,4-pentanedionato)chromium; phases: Crystal
Fixed: Pressure, kPa = 101.325
Property: Molar heat capacity at constant pressure, J/K/mol (Crystal); method: Vacuum adiabatic calorimetry
Temperature, K	Molar heat capacity at constant pressure, J/K/mol	uncertainty
4.9	1.148	0.026
6.17	2.135	0.034
7.27	3.324	0.045
8.7	5.192	0.059
10.37	7.709	0.077
12.37	11.292	0.1
14.67	15.813	0.124
17	20.742	0.146
19.75	26.829	0.168
22.21	32.26	0.181
23.22	34.529	0.185
24.48	37.466	0.189
24.55	37.584	0.189
25.99	40.946	0.191
27.39	44.233	0.192
27.85	45.338	0.192
29.83	50.223	0.189
30.57	52.013	0.151
31.91	54.954	0.157
34.08	60.062	0.167
36.42	65.822	0.179
37.3	68.088	0.184
41.15	77.448	0.201
42.87	81.837	0.21
43.47	83.185	0.211
45.92	89.529	0.225
46.92	92.225	0.23
49.3	98.412	0.243
51.32	103.881	0.254
53.16	108.898	0.264
55.97	117.049	0.28
57.04	120.291	0.285
58.09	122.636	0.289
60.55	128.556	0.301
60.56	128.908	0.301
63.91	136.267	0.315
64.15	136.96	0.317
65.54	139.617	0.322
67.85	144.65	0.332
70.92	150.922	0.344
71.78	152.869	0.349
75.78	161.568	0.366
75.84	161.53	0.366
76.87	164.109	0.371
79.05	168.715	0.38
80.06	170.69	0.383
81.28	173.158	0.389
82.06	175.055	0.392
83.26	177.408	0.397
84.38	179.572	0.401
84.96	180.827	0.404
86.91	184.813	0.412
87.94	186.773	0.415
88.47	187.582	0.417
90.71	192.115	0.394
91.61	193.563	0.395
94.95	200.008	0.402
95.5	201.141	0.403
99.24	207.839	0.409
99.28	207.718	0.409
103.58	214.817	0.416
106.8	220.428	0.422
110.04	225.532	0.427
114.71	232.636	0.434
119.52	239.528	0.44
124.45	246.37	0.447
129.5	253.52	0.454
134.54	260.04	0.461
139.45	266.03	0.467
144.36	272.099	0.473
149.43	278.014	0.479
154.65	284.092	0.485
159.87	289.93	0.49
165.11	295.59	0.5
170.26	301.31	0.5
174.76	305.92	0.51
179.21	310.45	0.51
184.02	315.44	0.52
188.75	320.27	0.52
193.51	325.12	0.53
198.29	329.94	0.53
203.71	335.55	0.54
209.36	340.75	0.54
214.53	346.27	0.55
219.64	351.86	0.55
224.51	356.22	0.56
229.67	361.44	0.56
235.31	366.76	0.57
240.88	372.1	0.57
246.38	377.18	0.58
251.83	382.68	0.58
257.71	388.87	0.59
263.5	394.88	0.6
268.77	400.54	0.6
275.5	407.45	0.61
277.87	409.89	0.61
281.32	413.33	0.61
285.19	417.22	0.62
288.93	421.14	0.62
292.64	424.92	0.63
296.43	428.72	0.63
300.42	432.75	0.63
304.53	436.63	0.64
308.77	440.79	0.64
313.07	444.86	0.65
317.49	448.89	0.65
321.88	453.39	0.65
