Measured thermophysical data. Measurement and correlation of viscosities and densities of methyl dodecanoate and ethyl dodecanoate at elevated pressures
Source: Thermochim. Acta, 2018, 10.1016/j.tca.2018.03.007
Compound 1: methyl dodecanoate, C13H26O2, InChI=1S/C13H26O2/c1-3-4-5-6-7-8-9-10-11-12-13(14)15-2/h3-12H2,1-2H3, purity 99%
Compound 2: ethyl dodecanoate, C14H28O2, InChI=1S/C14H28O2/c1-3-5-6-7-8-9-10-11-12-13-14(15)16-4-2/h3-13H2,1-2H3, purity 99%

System: methyl dodecanoate; phases: Liquid
Property: Mass density, kg/m3 (Liquid); method: Coriolis flow meter
Temperature, K	Pressure, kPa	Mass density, kg/m3	uncertainty
303.1	100	861.8	2
303.11	3010	863.7	2
303.13	6030	865.7	2
303.16	9050	867.9	2
303.2	12030	869.8	2
303.2	15040	871.7	2
312.95	100	853.4	2
313.11	3030	855.3	2
313.08	6050	857.4	2
313.06	9040	859.2	2
313.12	12030	861.2	2
312.95	15050	863.4	2
323.05	100	845.5	2
323.17	3030	847.4	2
323.3	6050	849.3	2
323.33	9050	851.6	2
323.27	12040	853.8	2
323.4	15020	855.9	2
333.15	100	837.8	2
333.15	3040	840.3	2
333.15	6040	842.3	2
333.18	9050	844.7	2
333.16	12020	846.9	2
333.14	15030	849	2
343.18	100	829.4	2
343.22	3020	831.9	2
343.22	6020	833.9	2
343.21	9040	836.6	2
343.19	12060	838.5	2
343.19	15050	841.1	2
353.27	100	821.6	2
353.28	3040	824.4	2
353.23	6050	826.8	2
353.26	9030	829.5	2
353.18	12030	831.6	2
353.16	15040	834.1	2

System: methyl dodecanoate; phases: Liquid
Property: Viscosity, Pa*s (Liquid); method: Capillary tube (Ostwald; Ubbelohde) method
Temperature, K	Pressure, kPa	Viscosity, Pa*s	uncertainty
302.98	100	0.002508	4.2e-05
302.99	3020	0.002588	4.3e-05
303.04	6010	0.002695	4.5e-05
303.07	9050	0.002768	4.6e-05
303.06	12040	0.002879	4.8e-05
303.05	15070	0.00298	5e-05
312.89	100	0.002052	3.4e-05
312.81	3030	0.002132	3.6e-05
312.77	6020	0.002206	3.7e-05
312.79	9050	0.002277	3.8e-05
312.83	12040	0.002338	3.9e-05
312.86	15060	0.002405	4e-05
323.12	100	0.001717	2.9e-05
323.22	3020	0.001773	3e-05
323.24	6050	0.001831	3.1e-05
323.32	9030	0.001898	3.2e-05
323.35	12010	0.001953	3.3e-05
323.39	15050	0.002012	3.4e-05
333.09	100	0.001453	2.4e-05
333.45	3050	0.001503	2.5e-05
333.46	6040	0.001552	2.6e-05
333.55	9020	0.0016	2.7e-05
333.63	12020	0.001638	2.7e-05
333.63	15050	0.001686	2.8e-05
342.82	100	0.001263	2.1e-05
342.95	3020	0.001291	2.2e-05
343.05	6040	0.001334	2.2e-05
343.31	9020	0.001377	2.3e-05
343.45	12030	0.001406	2.4e-05
343.32	15040	0.001445	2.4e-05
352.71	100	0.0011	1.8e-05
352.91	3030	0.001141	1.9e-05
353.17	6010	0.001162	1.9e-05
353.33	9000	0.001199	2e-05
353.42	12040	0.001228	2.1e-05
353.4	15050	0.001272	2.1e-05

System: ethyl dodecanoate; phases: Liquid
Property: Mass density, kg/m3 (Liquid); method: Coriolis flow meter
Temperature, K	Pressure, kPa	Mass density, kg/m3	uncertainty
303.06	100	853.9	2
303.07	3050	856.6	2
303.26	5990	858.4	2
303.22	9020	860.5	2
303.23	11990	862.5	2
303.24	15030	864.5	2
313.08	100	846.3	2
313.08	3010	848.3	2
313.1	5980	850.4	2
313.15	9030	852.6	2
313.17	12010	854.4	2
313.26	15030	857.5	2
323.14	100	838.3	2
323.09	3050	840.8	2
323.17	5980	842.9	2
323.17	8980	845	2
323.17	11990	847	2
323.18	15020	849	2
333.17	100	830.8	2
333.17	3010	833	2
333.07	6000	835.8	2
333.2	9040	838.1	2
333.17	12040	840.3	2
333.15	15040	842.5	2
342.95	100	823.2	2
343	3000	825.3	2
343.19	5980	828.3	2
343.28	9020	830.8	2
343.19	11980	832.8	2
343.19	15020	834.9	2
353.15	100	815.3	2
353.15	3050	818.4	2
353.2	6030	820.9	2
353.19	9020	823.2	2
353.18	12010	825.6	2
353.19	15020	827.9	2

System: ethyl dodecanoate; phases: Liquid
Property: Viscosity, Pa*s (Liquid); method: Capillary tube (Ostwald; Ubbelohde) method
Temperature, K	Pressure, kPa	Viscosity, Pa*s	uncertainty
302.82	100	0.002738	4.6e-05
302.78	3020	0.002854	4.7e-05
302.78	6040	0.002948	4.9e-05
302.77	9030	0.003039	5.1e-05
302.72	12010	0.003119	5.2e-05
302.73	15060	0.003225	5.4e-05
313.2	100	0.002203	3.7e-05
313.27	2980	0.00228	3.8e-05
313.26	5980	0.002335	3.9e-05
313.16	9030	0.002439	4.1e-05
313.04	12040	0.002507	4.2e-05
313.03	15050	0.0026	4.3e-05
323.38	100	0.001842	3.1e-05
323.51	3030	0.001897	3.2e-05
323.53	6050	0.001942	3.2e-05
323.53	9030	0.002052	3.4e-05
323.53	12060	0.002092	3.5e-05
323.51	15200	0.002156	3.6e-05
332.66	100	0.00158	2.6e-05
332.74	3010	0.001651	2.8e-05
332.77	6010	0.001711	2.9e-05
332.73	9010	0.001758	2.9e-05
332.68	12010	0.001819	3e-05
332.65	15180	0.001896	3.2e-05
343.31	100	0.001342	2.2e-05
342.94	3070	0.001394	2.3e-05
342.81	5980	0.00146	2.4e-05
342.7	8970	0.001513	2.5e-05
342.67	12000	0.001554	2.6e-05
342.7	15200	0.001606	2.7e-05
353.58	100	0.00116	1.9e-05
353.65	2950	0.001207	2e-05
353.59	5940	0.001252	2.1e-05
353.58	8990	0.001292	2.2e-05
353.62	11960	0.001331	2.2e-05
353.65	15150	0.001372	2.3e-05
