Measured thermophysical data. Excess molar enthalpies of ternary mixtures containing1-ethyl-3-methylimidazolium tetrafluoroborate and organic solvents
Source: Thermochim. Acta, 2013, 10.1016/j.tca.2013.07.006
Compound 1: 1-ethyl-3-methylimidazolium tetrafluoroborate, C6H11BF4N2, InChI=1S/C6H11N2.BF4/c1-3-8-5-4-7(2)6-8;2-1(3,4)5/h4-6H,3H2,1-2H3;/q+1;-1, purity 98%
Compound 2: 2-methylaniline, C7H9N, InChI=1S/C7H9N/c1-6-4-2-3-5-7(6)8/h2-5H,8H2,1H3, purity 99%
Compound 3: pyridine, C5H5N, InChI=1S/C5H5N/c1-2-4-6-5-3-1/h1-5H, purity 99%
Compound 4: 2-methylpyridine, C6H7N, InChI=1S/C6H7N/c1-6-4-2-3-5-7-6/h2-5H,1H3, purity 99%
Compound 5: 3-methylpyridine, C6H7N, InChI=1S/C6H7N/c1-6-3-2-4-7-5-6/h2-5H,1H3, purity 99%
Compound 6: 4-methylpyridine, C6H7N, InChI=1S/C6H7N/c1-6-2-4-7-5-3-6/h2-5H,1H3, purity 99%

System: 2-methylaniline + pyridine + 1-ethyl-3-methylimidazolium tetrafluoroborate; phases: Liquid
Fixed: Temperature, K = 298.15
Fixed: Pressure, kPa = 101
Property: Excess molar enthalpy (molar enthalpy of mixing), kJ/mol (Liquid); method: Calvet calorimetry
Mole fraction of 1-ethyl-3-methylimidazolium tetrafluoroborate	Mole fraction of 2-methylaniline	Excess molar enthalpy (molar enthalpy of mixing), kJ/mol	uncertainty
0.1512	0.7665	-0.5356	0.0116
0.1736	0.7321	-0.5295	0.0115
0.1941	0.7008	-0.5117	0.0111
0.2026	0.6871	-0.4997	0.0109
0.2131	0.6719	-0.4869	0.0106
0.2329	0.6423	-0.4556	0.0099
0.2542	0.6113	-0.4192	0.0092
0.2729	0.5845	-0.3859	0.0084
0.2937	0.5558	-0.3512	0.0077
0.3121	0.5301	-0.3199	0.0071
0.3334	0.5017	-0.2896	0.0064
0.3542	0.4729	-0.2599	0.0058
0.3723	0.4537	-0.2531	0.0056
0.3894	0.4312	-0.2374	0.0053
0.4032	0.4067	-0.2128	0.0048
0.4211	0.3816	-0.2019	0.0046
0.4518	0.3656	-0.2417	0.0054
0.4823	0.3416	-0.2695	0.006
0.5027	0.3201	-0.2784	0.0062
0.5216	0.3025	-0.2927	0.0065
0.5456	0.2831	-0.3166	0.007
0.5645	0.2678	-0.3352	0.0074
0.5817	0.2549	-0.3534	0.0078
0.5974	0.2432	-0.3692	0.0081
0.6194	0.2263	-0.3888	0.0085

System: 2-methylaniline + 2-methylpyridine + 1-ethyl-3-methylimidazolium tetrafluoroborate; phases: Liquid
Fixed: Temperature, K = 298.15
Fixed: Pressure, kPa = 101
Property: Excess molar enthalpy (molar enthalpy of mixing), kJ/mol (Liquid); method: Calvet calorimetry
Mole fraction of 1-ethyl-3-methylimidazolium tetrafluoroborate	Mole fraction of 2-methylaniline	Excess molar enthalpy (molar enthalpy of mixing), kJ/mol	uncertainty
0.1523	0.7698	-0.5191	0.0113
0.1742	0.7324	-0.5082	0.011
0.1911	0.7046	-0.489	0.0106
0.2044	0.6816	-0.4686	0.0102
0.2214	0.6543	-0.4403	0.0096
0.2435	0.6171	-0.4019	0.0088
0.2643	0.5816	-0.3711	0.0081
0.3056	0.5632	-0.3283	0.0072
0.3129	0.5533	-0.32	0.0071
0.3326	0.5163	-0.3037	0.0067
0.3514	0.4718	-0.3189	0.007
0.3734	0.4308	-0.3529	0.0078
0.3941	0.3956	-0.3932	0.0086
0.4104	0.3711	-0.4234	0.0092
0.4368	0.3543	-0.4333	0.0095
0.4612	0.3364	-0.4518	0.0098
0.4896	0.3145	-0.4794	0.0104
0.5038	0.3045	-0.4926	0.0107
0.5291	0.2849	-0.5196	0.0113
0.5504	0.2691	-0.5411	0.0117
0.5768	0.2502	-0.5653	0.0122
0.6004	0.2345	-0.5839	0.0126
0.6255	0.2171	-0.6008	0.013
0.6512	0.2006	-0.6135	0.0133
0.6704	0.1882	-0.6196	0.0134

System: 2-methylaniline + 3-methylpyridine + 1-ethyl-3-methylimidazolium tetrafluoroborate; phases: Liquid
Fixed: Temperature, K = 298.15
Fixed: Pressure, kPa = 101
Property: Excess molar enthalpy (molar enthalpy of mixing), kJ/mol (Liquid); method: Calvet calorimetry
Mole fraction of 1-ethyl-3-methylimidazolium tetrafluoroborate	Mole fraction of 2-methylaniline	Excess molar enthalpy (molar enthalpy of mixing), kJ/mol	uncertainty
0.1511	0.7756	-0.5819	0.0126
0.1716	0.7455	-0.5933	0.0128
0.1922	0.7153	-0.5924	0.0128
0.2136	0.6842	-0.5812	0.0126
0.2228	0.6705	-0.5735	0.0124
0.2341	0.6544	-0.5633	0.0122
0.2423	0.6426	-0.5549	0.012
0.2509	0.6307	-0.5461	0.0118
0.2611	0.6164	-0.5351	0.0116
0.2721	0.6011	-0.523	0.0114
0.2906	0.5759	-0.5037	0.0109
0.3082	0.5521	-0.4869	0.0106
0.3252	0.5297	-0.4734	0.0103
0.3418	0.5088	-0.4636	0.0101
0.3532	0.4946	-0.4585	0.01
0.3624	0.4833	-0.4555	0.0099
0.3829	0.4594	-0.4526	0.0099
0.4023	0.4356	-0.4525	0.0099
0.4243	0.4109	-0.4575	0.01
0.4421	0.3912	-0.4638	0.0101
0.4614	0.3704	-0.4725	0.0103
0.4804	0.3508	-0.4824	0.0105
0.5068	0.3233	-0.4958	0.0108
0.5306	0.2992	-0.5068	0.011
0.6122	0.2158	-0.5097	0.0111

System: 2-methylaniline + 4-methylpyridine + 1-ethyl-3-methylimidazolium tetrafluoroborate; phases: Liquid
Fixed: Temperature, K = 298.15
Fixed: Pressure, kPa = 101
Property: Excess molar enthalpy (molar enthalpy of mixing), kJ/mol (Liquid); method: Calvet calorimetry
Mole fraction of 1-ethyl-3-methylimidazolium tetrafluoroborate	Mole fraction of 2-methylaniline	Excess molar enthalpy (molar enthalpy of mixing), kJ/mol	uncertainty
0.1302	0.7851	-0.4778	0.0104
0.1512	0.755	-0.4698	0.0102
0.1732	0.7243	-0.488	0.0106
0.1941	0.6962	-0.4186	0.0091
0.2131	0.6712	-0.3868	0.0085
0.2334	0.6452	-0.3506	0.0077
0.252	0.6219	-0.3169	0.007
0.2708	0.5987	-0.2838	0.0063
0.2934	0.5716	-0.2478	0.0055
0.3104	0.5514	-0.2237	0.005
0.3325	0.5257	-0.1981	0.0045
0.3543	0.5008	-0.1795	0.0041
0.3737	0.4789	-0.1688	0.0039
0.4055	0.4434	-0.1634	0.0038
0.4249	0.4221	-0.1674	0.0038
0.4436	0.4016	-0.1758	0.004
0.4639	0.3794	-0.1896	0.0043
0.4811	0.3602	-0.2042	0.0046
0.4923	0.3479	-0.2153	0.0049
0.5094	0.3289	-0.2338	0.0052
0.528	0.3075	-0.2552	0.0057
0.5504	0.2809	-0.282	0.0063
0.5711	0.2531	-0.3056	0.0068
0.5891	0.2199	-0.3222	0.0071
0.5935	0.1923	-0.3209	0.0071
