Measured thermophysical data. Volume properties of liquid mixture of water + glycerol over the  temperature range from 278.15 to 348.15 K at atmospheric pressure
Source: Thermochim. Acta, 2013, 10.1016/j.tca.2013.07.012
Compound 1: glycerol, C3H8O3, InChI=1S/C3H8O3/c4-1-3(6)2-5/h3-6H,1-2H2
Compound 2: water, H2O, InChI=1S/H2O/h1H2

System: glycerol; phases: Liquid
Fixed: Pressure, kPa = 101
Property: Mass density, kg/m3 (Liquid); method: Vibrating tube method
Temperature, K	Mass density, kg/m3	uncertainty
278.15	1270.87	0.22
288.15	1264.4	0.22
293.15	1260.99	0.22
298.15	1257.91	0.22
308.15	1251.66	0.22
323.15	1242.11	0.21
333.15	1235.71	0.21
348.15	1225.79	0.21

System: water; phases: Liquid
Fixed: Pressure, kPa = 101
Property: Mass density, kg/m3 (Liquid); method: Vibrating tube method
Temperature, K	Mass density, kg/m3	uncertainty
274.15	999.9	0.1
275.15	999.94	0.1
276.15	999.96	0.1
277.15	999.97	0.12
278.15	999.96	0.1
279.15	999.94	0.1
280.15	999.9	0.1
281.15	999.85	0.1
282.15	999.78	0.1
283.15	999.7	0.1
288.15	999.09	0.1
293.15	998.2	0.1
298.15	997.04	0.11
308.15	994.03	0.11
323.15	988.03	0.11
333.15	983.19	0.11
348.15	974.84	0.11

System: glycerol + water; phases: Liquid
Fixed: Pressure, kPa = 101
Property: Mass density, kg/m3 (Liquid); method: Vibrating tube method
Temperature, K	Mole fraction of glycerol	Mass density, kg/m3	uncertainty
274.15	0	999.9	0.1
274.15	0.00209	1002.52	0.1
274.15	0.00439	1005.4	0.1
274.15	0.0051	1006.27	0.1
274.15	0.00657	1008.08	0.11
274.15	0.01072	1013.09	0.11
274.15	0.01633	1019.67	0.11
275.15	0	999.94	0.1
275.15	0.00209	1002.55	0.1
275.15	0.00439	1005.42	0.1
275.15	0.0051	1006.29	0.1
275.15	0.00657	1008.09	0.12
275.15	0.01072	1013.08	0.11
275.15	0.01633	1019.63	0.11
276.15	0	999.96	0.1
276.15	0.00209	1002.56	0.1
276.15	0.00439	1005.42	0.1
276.15	0.0051	1006.29	0.1
276.15	0.00657	1008.08	0.11
276.15	0.01072	1013.06	0.11
276.15	0.01633	1019.58	0.11
277.15	0	999.97	0.12
277.15	0.00209	1002.56	0.1
277.15	0.00439	1005.41	0.1
277.15	0.0051	1006.27	0.1
277.15	0.00657	1008.06	0.11
277.15	0.01072	1013.02	0.11
277.15	0.01633	1019.51	0.11
278.15	0	999.96	0.1
278.15	0.00209	1002.54	0.1
278.15	0.00439	1005.38	0.1
278.15	0.0051	1006.24	0.1
278.15	0.00657	1008.02	0.11
278.15	0.01072	1012.95	0.11
278.15	0.01633	1019.43	0.11
278.15	0.03504	1039.54	0.11
278.15	0.05086	1054.94	0.12
278.15	0.06775	1069.92	0.13
278.15	0.11265	1103.61	0.14
278.15	0.15591	1129.3	0.15
278.15	0.20601	1153.22	0.16
278.15	0.25599	1172.3	0.16
278.15	0.33112	1194.33	0.17
278.15	0.40118	1210	0.17
278.15	0.49071	1225.46	0.18
278.15	0.58282	1237.72	0.18
278.15	0.68566	1248.63	0.18
278.15	0.74936	1254.28	0.19
278.15	0.81008	1259.12	0.2
278.15	0.85278	1262.2	0.2
278.15	0.88196	1264.21	0.21
278.15	0.91435	1266.2	0.21
278.15	0.94078	1267.71	0.21
278.15	0.95781	1268.67	0.22
278.15	0.97917	1269.86	0.22
278.15	0.98945	1270.39	0.22
278.15	1	1270.87	0.22
279.15	0	999.94	0.1
279.15	0.00209	1002.51	0.1
279.15	0.00439	1005.34	0.1
279.15	0.0051	1006.19	0.1
279.15	0.00657	1007.97	0.11
279.15	0.01072	1012.88	0.11
279.15	0.01633	1019.34	0.11
280.15	0	999.9	0.1
280.15	0.00209	1002.46	0.1
280.15	0.00439	1005.28	0.1
280.15	0.0051	1006.13	0.1
280.15	0.00657	1007.91	0.11
280.15	0.01072	1012.8	0.11
280.15	0.01633	1019.23	0.11
281.15	0	999.85	0.1
281.15	0.00209	1002.4	0.1
281.15	0.00439	1005.21	0.1
281.15	0.0051	1006.06	0.1
281.15	0.00657	1007.82	0.11
281.15	0.01072	1012.7	0.11
281.15	0.01633	1019.12	0.11
282.15	0	999.78	0.1
282.15	0.00209	1002.33	0.1
282.15	0.00439	1005.13	0.1
282.15	0.0051	1005.97	0.1
282.15	0.00657	1007.73	0.11
282.15	0.01072	1012.6	0.11
282.15	0.01633	1018.99	0.11
283.15	0	999.7	0.1
283.15	0.00209	1002.24	0.1
283.15	0.00439	1005.03	0.1
283.15	0.0051	1005.87	0.11
283.15	0.00657	1007.62	0.11
283.15	0.01072	1012.47	0.11
283.15	0.01633	1018.85	0.11
288.15	0	999.09	0.1
288.15	0.00209	1001.6	0.1
288.15	0.00439	1004.35	0.1
288.15	0.0051	1005.18	0.11
288.15	0.00657	1006.91	0.11
288.15	0.01072	1011.69	0.11
288.15	0.01633	1017.97	0.11
288.15	0.03504	1037.45	0.11
288.15	0.05086	1052.38	0.12
288.15	0.06775	1066.9	0.12
288.15	0.11265	1099.65	0.14
288.15	0.15591	1124.77	0.15
288.15	0.20601	1148.15	0.16
288.15	0.25599	1166.85	0.16
288.15	0.33112	1188.67	0.17
288.15	0.40118	1204.31	0.17
288.15	0.49071	1219.67	0.18
288.15	0.58282	1231.79	0.18
288.15	0.68566	1242.54	0.18
288.15	0.74936	1248.04	0.19
288.15	0.81008	1252.82	0.2
288.15	0.85278	1255.81	0.2
288.15	0.88196	1257.79	0.2
288.15	0.91435	1259.78	0.21
288.15	0.94078	1261.27	0.21
288.15	0.95781	1262.21	0.21
288.15	0.97917	1263.39	0.22
288.15	0.98945	1263.91	0.22
288.15	1	1264.4	0.22
293.15	0	998.2	0.1
293.15	0.00209	1000.68	0.1
293.15	0.00439	1003.39	0.1
293.15	0.0051	1004.21	0.11
293.15	0.00657	1005.92	0.11
293.15	0.01072	1010.64	0.11
293.15	0.01633	1016.84	0.11
293.15	0.03504	1036.06	0.11
293.15	0.05086	1050.82	0.12
293.15	0.06775	1065.15	0.12
293.15	0.11265	1097.5	0.14
293.15	0.15591	1122.35	0.15
293.15	0.20601	1145.51	0.16
293.15	0.25599	1164.09	0.16
293.15	0.33112	1185.75	0.17
293.15	0.40118	1201.28	0.17
293.15	0.49071	1216.63	0.18
293.15	0.58282	1228.62	0.18
293.15	0.68566	1239.29	0.18
293.15	0.74936	1244.78	0.19
293.15	0.81008	1249.51	0.19
293.15	0.85278	1252.47	0.2
293.15	0.88196	1254.43	0.2
293.15	0.91435	1256.38	0.21
293.15	0.94078	1257.87	0.21
293.15	0.95781	1258.81	0.21
293.15	0.97917	1259.97	0.22
293.15	0.97917	1259.97	0.22
293.15	0.98945	1260.49	0.22
293.15	1	1260.99	0.22
298.15	0	997.04	0.11
298.15	0.00209	999.49	0.1
298.15	0.00439	1002.17	0.11
298.15	0.0051	1002.98	0.11
298.15	0.00657	1004.67	0.11
298.15	0.01072	1009.34	0.11
298.15	0.01633	1015.48	0.11
298.15	0.03504	1034.47	0.11
298.15	0.05086	1049.05	0.12
298.15	0.06775	1063.23	0.12
298.15	0.11265	1095.24	0.14
298.15	0.15591	1119.87	0.15
298.15	0.20601	1142.86	0.16
298.15	0.25599	1161.34	0.16
298.15	0.33112	1183	0.17
298.15	0.40118	1198.45	0.17
298.15	0.49071	1213.75	0.18
298.15	0.58282	1225.65	0.17
298.15	0.68566	1236.32	0.18
298.15	0.74936	1241.81	0.19
298.15	0.81008	1246.48	0.19
298.15	0.85278	1249.4	0.2
298.15	0.88196	1251.36	0.2
298.15	0.91435	1253.31	0.21
298.15	0.94078	1254.8	0.21
298.15	0.95781	1255.73	0.21
298.15	0.97917	1256.89	0.21
298.15	0.98945	1257.41	0.22
298.15	1	1257.91	0.22
308.15	0	994.03	0.11
308.15	0.00209	996.42	0.11
308.15	0.00439	999.06	0.11
308.15	0.0051	999.87	0.11
308.15	0.00657	1001.52	0.11
308.15	0.01072	1006.11	0.11
308.15	0.01633	1012.13	0.11
308.15	0.03504	1030.74	0.11
308.15	0.05086	1045.04	0.12
308.15	0.06775	1058.94	0.12
308.15	0.11265	1090.4	0.14
308.15	0.15591	1114.62	0.15
308.15	0.20601	1137.3	0.16
308.15	0.25599	1155.48	0.16
308.15	0.33112	1177.16	0.17
308.15	0.40118	1192.55	0.17
308.15	0.49071	1207.7	0.17
308.15	0.58282	1219.6	0.17
308.15	0.68566	1230.18	0.18
308.15	0.74936	1235.6	0.18
308.15	0.81008	1240.19	0.19
308.15	0.85278	1243.15	0.2
308.15	0.88196	1245.07	0.2
308.15	0.91435	1247.06	0.2
308.15	0.94078	1248.55	0.21
308.15	0.95781	1249.47	0.21
308.15	0.97917	1250.63	0.21
308.15	0.98945	1251.16	0.21
308.15	1	1251.66	0.22
323.15	0	988.03	0.11
323.15	0.00209	990.39	0.11
323.15	0.00439	992.99	0.11
323.15	0.0051	993.77	0.11
323.15	0.00657	995.4	0.11
323.15	0.01072	999.9	0.11
323.15	0.01633	1005.81	0.11
323.15	0.03504	1024.15	0.11
323.15	0.05086	1038.23	0.12
323.15	0.06775	1051.86	0.12
323.15	0.11265	1082.82	0.14
323.15	0.15591	1106.34	0.15
323.15	0.20601	1128.58	0.15
323.15	0.25599	1146.57	0.16
323.15	0.33112	1168.09	0.16
323.15	0.40118	1183.35	0.17
323.15	0.49071	1198.19	0.17
323.15	0.58282	1210.22	0.17
323.15	0.68566	1220.77	0.18
323.15	0.74936	1226.23	0.18
323.15	0.81008	1230.76	0.19
323.15	0.85278	1233.67	0.19
323.15	0.88196	1235.56	0.2
323.15	0.91435	1237.53	0.2
323.15	0.94078	1239.01	0.2
323.15	0.95781	1239.93	0.21
323.15	0.97917	1241.1	0.21
323.15	0.98945	1241.61	0.21
323.15	1	1242.11	0.21
333.15	0	983.19	0.11
333.15	0.00209	985.55	0.11
333.15	0.00439	988.13	0.11
333.15	0.0051	988.9	0.11
333.15	0.00657	990.52	0.11
333.15	0.01072	994.98	0.11
333.15	0.01633	1000.85	0.11
333.15	0.03504	1018.99	0.11
333.15	0.05086	1032.9	0.12
333.15	0.06775	1046.46	0.12
333.15	0.11265	1077.08	0.14
333.15	0.15591	1100.45	0.14
333.15	0.20601	1122.53	0.15
333.15	0.25599	1140.39	0.16
333.15	0.33112	1161.69	0.16
333.15	0.40118	1177	0.16
333.15	0.49071	1191.81	0.17
333.15	0.58282	1203.79	0.17
333.15	0.68566	1214.31	0.17
333.15	0.74936	1219.8	0.18
333.15	0.81008	1224.29	0.19
333.15	0.85278	1227.21	0.19
333.15	0.88196	1229.08	0.19
333.15	0.91435	1231.07	0.2
333.15	0.94078	1232.59	0.2
333.15	0.95781	1233.52	0.2
333.15	0.97917	1234.68	0.21
333.15	0.98945	1235.2	0.21
333.15	1	1235.71	0.21
348.15	0	974.84	0.11
348.15	0.00209	977.18	0.11
348.15	0.00439	979.74	0.11
348.15	0.0051	980.52	0.11
348.15	0.00657	982.12	0.11
348.15	0.01072	986.55	0.11
348.15	0.01633	992.29	0.11
348.15	0.03504	1010.23	0.11
348.15	0.05086	1024.05	0.12
348.15	0.06775	1037.5	0.12
348.15	0.11265	1067.8	0.14
348.15	0.15591	1090.81	0.14
348.15	0.20601	1112.88	0.15
348.15	0.25599	1130.45	0.15
348.15	0.33112	1151.47	0.16
348.15	0.40118	1166.73	0.16
348.15	0.49071	1181.85	0.17
348.15	0.58282	1193.86	0.17
348.15	0.68566	1204.27	0.17
348.15	0.74936	1209.73	0.18
348.15	0.81008	1214.26	0.18
348.15	0.85278	1217.21	0.19
348.15	0.88196	1219.1	0.19
348.15	0.91435	1221.08	0.19
348.15	0.94078	1222.63	0.2
348.15	0.95781	1223.59	0.2
348.15	0.97917	1224.76	0.2
348.15	0.98945	1225.28	0.2
348.15	1	1225.79	0.21
