Measured thermophysical data. Thermochemical behaviour of straight-chain ethers CH3O(CH2CH2O)nCH3 (n = 1 4) in aqueous and tetrachlormethane solutions
Source: Thermochim. Acta, 2008, 10.1016/j.tca.2008.01.004
Compound 1: 1,2-dimethoxyethane, C4H10O2, InChI=1S/C4H10O2/c1-5-3-4-6-2/h3-4H2,1-2H3
Compound 2: 2,5,8-trioxanonane, C6H14O3, InChI=1S/C6H14O3/c1-7-3-5-9-6-4-8-2/h3-6H2,1-2H3
Compound 3: 2,5,8,11-tetraoxadodecane, C8H18O4, InChI=1S/C8H18O4/c1-9-3-5-11-7-8-12-6-4-10-2/h3-8H2,1-2H3
Compound 4: 2,5,8,11,14-pentaoxapentadecane, C10H22O5, InChI=1S/C10H22O5/c1-11-3-5-13-7-9-15-10-8-14-6-4-12-2/h3-10H2,1-2H3
Compound 5: tetrachloromethane, CCl4, InChI=1S/CCl4/c2-1(3,4)5
Compound 6: water, H2O, InChI=1S/H2O/h1H2

System: tetrachloromethane + 1,2-dimethoxyethane; phases: Liquid
Fixed: Temperature, K = 298.15
Fixed: Pressure, kPa = 101
Property: Molar enthalpy of solution, kJ/mol (Liquid); method: ISOPERIBOL
Molality, mol/kg of 1,2-dimethoxyethane	Molar enthalpy of solution, kJ/mol	uncertainty
0.03596	-1.32	0.04
0.05015	-1.3	0.04
0.06177	-1.32	0.04
0.07126	-1.32	0.04
0.07876	-1.3	0.02

System: 1,2-dimethoxyethane + water; phases: Liquid
Fixed: Temperature, K = 298.15
Fixed: Pressure, kPa = 101
Property: Molar enthalpy of solution, kJ/mol (Liquid); method: ISOPERIBOL
Molality, mol/kg of 1,2-dimethoxyethane	Molar enthalpy of solution, kJ/mol	uncertainty
0.09712	-22.21	0.17
0.10528	-22.24	0.17
0.16725	-22.32	0.17
0.23632	-22.3	0.17
0.31158	-22.23	0.17

System: tetrachloromethane + 2,5,8-trioxanonane; phases: Liquid
Fixed: Temperature, K = 298.15
Fixed: Pressure, kPa = 101
Property: Molar enthalpy of solution, kJ/mol (Liquid); method: ISOPERIBOL
Molality, mol/kg of 2,5,8-trioxanonane	Molar enthalpy of solution, kJ/mol	uncertainty
0.01083	-2.13	0.04
0.01421	-2.14	0.04
0.01521	-2.14	0.04
0.01594	-2.14	0.04
0.02048	-2.15	0.04
0.02323	-2.15	0.03
0.0446	-2.17	0.03

System: 2,5,8-trioxanonane + water; phases: Liquid
Fixed: Temperature, K = 298.15
Fixed: Pressure, kPa = 101
Property: Molar enthalpy of solution, kJ/mol (Liquid); method: ISOPERIBOL
Molality, mol/kg of 2,5,8-trioxanonane	Molar enthalpy of solution, kJ/mol	uncertainty
0.00536	-30.04	0.23
0.01242	-30.01	0.23
0.01731	-30.01	0.23
0.02381	-29.98	0.23
0.02713	-29.94	0.23
0.03367	-29.92	0.23
0.03672	-29.95	0.23
0.03834	-29.93	0.23
0.04311	-29.92	0.23
0.07749	-29.89	0.23
0.2325	-29.54	0.23

System: tetrachloromethane + 2,5,8,11-tetraoxadodecane; phases: Liquid
Fixed: Temperature, K = 298.15
Fixed: Pressure, kPa = 101
Property: Molar enthalpy of solution, kJ/mol (Liquid); method: ISOPERIBOL
Molality, mol/kg of 2,5,8,11-tetraoxadodecane	Molar enthalpy of solution, kJ/mol	uncertainty
0.01475	-2.66	0.04
0.01772	-2.67	0.04
0.03037	-2.72	0.03
0.03203	-2.73	0.03
0.03688	-2.74	0.03
0.03748	-2.74	0.03
0.04661	-2.76	0.03
0.0485	-2.77	0.03
0.0554	-2.78	0.03

System: 2,5,8,11-tetraoxadodecane + water; phases: Liquid
Fixed: Temperature, K = 298.15
Fixed: Pressure, kPa = 101
Property: Molar enthalpy of solution, kJ/mol (Liquid); method: ISOPERIBOL
Molality, mol/kg of 2,5,8,11-tetraoxadodecane	Molar enthalpy of solution, kJ/mol	uncertainty
0.00104	-38.48	0.3
0.00289	-38.43	0.3
0.006	-38.4	0.3
0.01069	-38.4	0.3
0.02	-38.33	0.3
0.02508	-38.33	0.3
0.03482	-38.28	0.3
0.0962	-38.11	0.3

System: tetrachloromethane + 2,5,8,11,14-pentaoxapentadecane; phases: Liquid
Fixed: Temperature, K = 298.15
Fixed: Pressure, kPa = 101
Property: Molar enthalpy of solution, kJ/mol (Liquid); method: ISOPERIBOL
Molality, mol/kg of 2,5,8,11,14-pentaoxapentadecane	Molar enthalpy of solution, kJ/mol	uncertainty
0.00314	-3.02	0.05
0.01291	-3.06	0.05
0.01774	-3.1	0.05
0.02442	-3.12	0.05
0.03298	-3.16	0.03
0.04985	-3.22	0.03

System: 2,5,8,11,14-pentaoxapentadecane + water; phases: Liquid
Fixed: Temperature, K = 298.15
Fixed: Pressure, kPa = 101
Property: Molar enthalpy of solution, kJ/mol (Liquid); method: ISOPERIBOL
Molality, mol/kg of 2,5,8,11,14-pentaoxapentadecane	Molar enthalpy of solution, kJ/mol	uncertainty
0.00144	-46.21	0.36
0.00215	-46.2	0.36
0.0049	-46.19	0.36
0.01027	-46.14	0.36
0.01921	-46.08	0.36
0.02296	-46.07	0.36
0.0236	-46.06	0.36
