Measured thermophysical data. Gold nanoparticles in plastic columnar discotic liquid crystalline material
Source: Thermochim. Acta, 2016, 10.1016/j.tca.2016.03.009
Compound 1: 2,3,6,7,10,11-hexabutoxytriphenylene, C42H60O6, InChI=1S/C42H60O6/c1-7-13-19-43-37-25-31-32(26-38(37)44-20-14-8-2)34-28-40(46-22-16-10-4)42(48-24-18-12-6)30-36(34)35-29-41(47-23-17-11-5)39(27-33(31)35)45-21-15-9-3/h25-30H,7-24H2,1-6H3

System: 2,3,6,7,10,11-hexabutoxytriphenylene; phases: Crystal, Liquid crystal of unknown type, Air at 1 atmosphere
Property: Molar enthalpy of transition or fusion, kJ/mol (Crystal); method: DSC
Molar enthalpy of transition or fusion, kJ/mol	uncertainty
22.60353924	0.72701442

System: 2,3,6,7,10,11-hexabutoxytriphenylene; phases: Liquid crystal of unknown type, Liquid, Air at 1 atmosphere
Property: Molar enthalpy of transition or fusion, kJ/mol (Liquid crystal of unknown type); method: DSC
Molar enthalpy of transition or fusion, kJ/mol	uncertainty
18.70409826	0.59482998

System: 2,3,6,7,10,11-hexabutoxytriphenylene; phases: Crystal, Liquid crystal of unknown type, Air at 1 atmosphere
Property: Triple point temperature, K (Crystal); method: DSC
Triple point temperature, K	uncertainty
360.35	1

System: 2,3,6,7,10,11-hexabutoxytriphenylene; phases: Liquid crystal of unknown type, Liquid, Air at 1 atmosphere
Property: Triple point temperature, K (Liquid crystal of unknown type); method: DSC
Triple point temperature, K	uncertainty
417.95	1
