Measured thermophysical data. Oxidation and thermo physical studies of non-stoichiometric thorium uranium oxides prepared by gel combustion method
Source: Thermochim. Acta, 2017, 10.1016/j.tca.2017.04.014
Compound 1: thorium dioxide, O2Th, InChI=1S/2O.Th/q2*-2;+4, purity 99.7%
Compound 2: uranium dioxide, O2U, InChI=1S/2O.U/q2*-2;+4, purity 99.7%

System: thorium dioxide; phases: Crystal
Fixed: Pressure, kPa = 101.325
Property: Molar heat capacity at constant pressure, J/K/mol (Crystal); method: DSC
Temperature, K	Molar heat capacity at constant pressure, J/K/mol	uncertainty
300	62.1	7.7
310	61.8	6.4
320	62.8	7.3
330	63.5	6
340	64.2	5.5
350	65.1	6.8
360	65.6	6.8
370	65.9	6.8
380	66.8	7.2
390	67.3	7.2
400	67.7	6.8
410	68	6.8
420	68.4	6.8
430	68.6	7.2
440	68.9	7.4
450	69.6	7.4
460	69.8	7.2
470	70.1	8.2
480	70.2	7.4
490	70.5	6.1
500	70.7	7.1
510	70.9	6.3
520	71.2	6.5
530	71.4	6.5
540	71.7	6.5
550	71.9	7.1
560	72	5.4
570	72.1	6.5
580	72.3	5.1
590	72.5	5.3
600	72.5	7.1
610	72.5	5.3
620	73	5.3
630	73	5.8
640	73.3	3.8
650	73.6	5.5
660	73.5	4
670	73.6	3.8
680	73.6	7.1
690	73.4	4
700	73.8	4
710	74.5	4
720	74.5	4
730	74.6	3.8
739	74.7	3.7
750	74.6	3.2
760	75	3.3
770	75.3	3.9
780	75.3	3.7
790	75.3	3.7
800	75.7	3.2
810	75.7	3.3
820	75.7	3.3
830	75.9	3.5
840	76	3.7
850	76.1	4.3
860	76.4	4
870	76.1	4.2

System: thorium dioxide; phases: Crystal
Property: Mass density, kg/m3 (Crystal); method: From pellet mass and volume
Temperature, K	Pressure, kPa	Mass density, kg/m3	uncertainty
298.15	101.3	9390	1878

System: thorium dioxide; phases: Crystal
Property: Mass density, kg/m3 (Crystal); method: X-ray diffraction
Temperature, K	Pressure, kPa	Mass density, kg/m3	uncertainty
298.15	101.3	10000	30

System: thorium dioxide; phases: Crystal
Property: Mass density, kg/m3 (Crystal); method: ARCHIM
Temperature, K	Pressure, kPa	Mass density, kg/m3	uncertainty
298.15	101.3	9430	1886

System: uranium dioxide; phases: Crystal
Fixed: Pressure, kPa = 101.325
Property: Molar heat capacity at constant pressure, J/K/mol (Crystal); method: DSC
Temperature, K	Molar heat capacity at constant pressure, J/K/mol	uncertainty
300	64.6	7
310	66.2	7.6
320	66.8	7.4
330	67.7	7.6
340	68.7	7.6
350	69.1	6.9
360	69.5	7.8
370	70.5	8
380	71.2	7.8
390	71.2	7.1
400	72.5	8
410	72.8	8.4
420	73.4	7.3
430	73.5	7.5
440	74.4	6.4
450	74.6	6.6
460	74.9	6.9
470	75.5	8.8
480	76.2	7.3
490	76.4	5.5
500	76.5	7.5
510	76.6	5.5
520	76.7	7
530	77.1	5.5
540	77	5.7
550	77.1	5.9
560	77.3	7.1
570	77.9	7.7
580	78.2	7.5
590	79	6.3
600	79.1	9.2
610	79.7	3.7
620	79.4	3.3
630	79.6	7.9
640	80.3	4.1
650	79.8	4.3
660	80.5	6.5
670	80.5	4.3
680	80.7	5.9
690	81.1	3.3
700	80.4	3.4
710	80.8	4.4
720	81.2	3.5
730	81.7	4.5
740	82.2	4.6
750	82.9	3.4
760	82.4	4.6
770	82.7	4.6
780	83.4	4.5
790	83.9	4.5
800	83.7	4.2
810	84.1	4.2
820	83.8	4.8
830	84.2	4.8
840	84.1	4.8
850	83.7	3.5
860	84.1	4.4
870	84.5	4.4

System: uranium dioxide; phases: Crystal
Property: Mass density, kg/m3 (Crystal); method: From pellet mass and volume
Temperature, K	Pressure, kPa	Mass density, kg/m3	uncertainty
298.15	101.3	10570	2114

System: uranium dioxide; phases: Crystal
Property: Mass density, kg/m3 (Crystal); method: X-ray diffraction
Temperature, K	Pressure, kPa	Mass density, kg/m3	uncertainty
298.15	101.3	10970	40

System: uranium dioxide; phases: Crystal
Property: Mass density, kg/m3 (Crystal); method: ARCHIM
Temperature, K	Pressure, kPa	Mass density, kg/m3	uncertainty
298.15	101.3	10660	2132

System: thorium dioxide + uranium dioxide; phases: Crystal
Fixed: Pressure, kPa = 101.3
Property: Molar heat capacity at constant pressure, J/K/mol (Crystal); method: DSC
Mole fraction of thorium dioxide	Temperature, K	Molar heat capacity at constant pressure, J/K/mol	uncertainty
1	300	62.1	7.7
1	310	61.8	6.4
1	320	62.8	7.3
1	330	63.5	6
1	340	64.2	5.5
1	350	65.1	6.8
1	360	65.6	6.8
1	370	65.9	6.8
1	380	66.8	7.2
1	390	67.3	7.2
1	400	67.7	6.8
1	410	68	6.8
1	420	68.4	6.8
1	430	68.6	7.2
1	440	68.9	7.4
1	450	69.6	7.4
1	460	69.8	7.2
1	470	70.1	8.2
1	480	70.2	7.4
1	490	70.5	6.1
1	500	70.7	7.1
1	510	70.9	6.3
1	520	71.2	6.5
1	530	71.4	6.5
1	540	71.7	6.5
1	550	71.9	7.1
1	560	72	5.4
1	570	72.1	6.5
1	580	72.3	5.1
1	590	72.5	5.3
1	600	72.5	7.1
1	610	72.5	5.3
1	620	73	5.3
1	630	73	5.8
1	640	73.3	3.8
1	650	73.6	5.5
1	660	73.5	4
1	670	73.6	3.8
1	680	73.6	7.1
1	690	73.4	4
1	700	73.8	4
1	710	74.5	4
1	720	74.5	4
1	730	74.6	3.8
1	739	74.7	3.7
1	750	74.6	3.2
1	760	75	3.3
1	770	75.3	3.9
1	780	75.3	3.7
1	790	75.3	3.7
1	800	75.7	3.2
1	810	75.7	3.3
1	820	75.7	3.3
1	830	75.9	3.5
1	840	76	3.7
1	850	76.1	4.3
1	860	76.4	4
1	870	76.1	4.2
0	300	64.6	7
0	310	66.2	7.6
0	320	66.8	7.4
0	330	67.7	7.6
0	340	68.7	7.6
0	350	69.1	6.9
0	360	69.5	7.8
0	370	70.5	8
0	380	71.2	7.8
0	390	71.2	7.1
0	400	72.5	8
0	410	72.8	8.4
0	420	73.4	7.3
0	430	73.5	7.5
0	440	74.4	6.4
0	450	74.6	6.6
0	460	74.9	6.9
0	470	75.5	8.8
0	480	76.2	7.3
0	490	76.4	5.5
0	500	76.5	7.5
0	510	76.6	5.5
0	520	76.7	7
0	530	77.1	5.5
0	540	77	5.7
0	550	77.1	5.9
0	560	77.3	7.1
0	570	77.9	7.7
0	580	78.2	7.5
0	590	79	6.3
0	600	79.1	9.2
0	610	79.7	3.7
0	620	79.4	3.3
0	630	79.6	7.9
0	640	80.3	4.1
0	650	79.8	4.3
0	660	80.5	6.5
0	670	80.5	4.3
0	680	80.7	5.9
0	690	81.1	3.3
0	700	80.4	3.4
0	710	80.8	4.4
0	720	81.2	3.5
0	730	81.7	4.5
0	740	82.2	4.6
0	750	82.9	3.4
0	760	82.4	4.6
0	770	82.7	4.6
0	780	83.4	4.5
0	790	83.9	4.5
0	800	83.7	4.2
0	810	84.1	4.2
0	820	83.8	4.8
0	830	84.2	4.8
0	840	84.1	4.8
0	850	83.7	3.5
0	860	84.1	4.4
0	870	84.5	4.4
0.9	300	65.1	7.4
0.9	310	66.4	7.8
0.9	320	67.5	7.8
0.9	330	68	7.8
0.9	340	69	8
0.9	350	70.1	8.2
0.9	360	71.7	8.3
0.9	370	71.7	8.3
0.9	380	72	8.2
0.9	390	73	8.3
0.9	400	73.8	8.1
0.9	410	74.4	7.2
0.9	420	74.1	7.4
0.9	430	74.4	7.4
0.9	440	74.9	7.4
0.9	450	76	7.6
0.9	460	76.2	7.6
0.9	470	76.7	7.8
0.9	480	77	7.8
0.9	490	77	7.8
0.9	500	77	8
0.9	510	78.3	8
0.9	520	78.6	8.2
0.9	530	78.6	7.3
0.9	540	78.9	7.3
0.9	550	78.9	7.3
0.9	560	79.1	7.1
0.9	570	79.7	7.8
0.9	580	79.7	8
0.9	590	79.7	7.3
0.9	600	79.7	7.3
0.9	610	79.7	7.3
0.9	620	79.9	7.5
0.9	630	80.2	7.5
0.9	640	80.5	7.5
0.9	650	80.7	7.5
0.9	660	79.7	7.5
0.9	670	79.7	7.3
0.9	680	79.7	7.3
0.9	690	79.9	7.3
0.9	700	80.2	4.6
0.9	710	80.5	4.6
0.9	720	80.7	4.6
0.9	730	81.2	4.6
0.9	740	81.4	4.6
0.9	750	81.3	4.8
0.9	760	81.5	4.9
0.9	770	81.5	4.9
0.9	780	81	4.7
0.9	790	81.8	4.9
0.9	800	81.3	4.9
0.9	810	82.3	4.9
0.9	820	82.3	4.9
0.9	830	82.3	4.9
0.9	840	82.3	3.7
0.9	850	82.3	4.3
0.9	860	83.4	4.2
0.9	870	83.9	4.5
0.8	300	66.7	7.4
0.8	310	67.3	7.6
0.8	320	67.9	7.6
0.8	330	69.1	7.8
0.8	340	69.7	7.8
0.8	350	70.8	8
0.8	360	72.1	8
0.8	370	72.3	8
0.8	380	72.3	8.8
0.8	390	74.1	8.8
0.8	400	74.8	8.8
0.8	410	74.8	7.5
0.8	420	75.4	7.5
0.8	430	75.9	7.5
0.8	440	76.4	7.7
0.8	450	76.9	7.7
0.8	460	77.2	7.9
0.8	470	77.5	7.9
0.8	480	77.3	7.9
0.8	490	78	8.1
0.8	500	78.8	8.1
0.8	510	78.6	8.5
0.8	520	79	8.7
0.8	530	79.6	7.7
0.8	540	79.7	7.7
0.8	550	80	7.9
0.8	560	80.2	7.6
0.8	570	80.1	7.2
0.8	580	80.2	6.8
0.8	590	80.5	7.9
0.8	600	80.6	7.9
0.8	610	80.6	7.9
0.8	620	80.6	7.9
0.8	630	81.1	7.9
0.8	640	81.1	7.9
0.8	650	80.9	7.9
0.8	660	81.6	8
0.8	670	81.9	8.2
0.8	680	81.5	7.4
0.8	690	81.6	7.1
0.8	700	81.7	6.9
0.8	710	82.2	4.3
0.8	720	82.4	4.3
0.8	730	82.7	4.2
0.8	740	82.7	4.2
0.8	750	82.7	4.2
0.8	760	82.9	4.3
0.8	770	82.8	4.3
0.8	780	83.1	4.3
0.8	790	83	4.3
0.8	800	83.3	4.3
0.8	810	83.1	4.3
0.8	820	83.2	4.3
0.8	830	83.3	4.3
0.8	840	83.5	4.4
0.8	850	83.6	4.2
0.8	860	83.7	4.4
0.8	870	84	4.2
0.7	300	66.6	6.8
0.7	310	67.6	6.9
0.7	320	68.6	6.9
0.7	330	69.3	6.9
0.7	340	69.9	6.9
0.7	350	70.4	7.1
0.7	360	70.8	7.1
0.7	370	71.4	7.3
0.7	380	72	8.3
0.7	390	72.9	7.7
0.7	400	73.9	8.4
0.7	410	73.8	8.5
0.7	420	75.1	7.2
0.7	430	75.5	7.2
0.7	440	75.8	6.8
0.7	450	75.7	6.4
0.7	460	75.8	6.5
0.7	470	76.2	7.2
0.7	480	76.6	7.6
0.7	490	77.9	6
0.7	500	78.1	5.8
0.7	510	77.9	6.1
0.7	520	78.3	6.3
0.7	530	78.4	6.3
0.7	540	78.9	6.5
0.7	550	79.6	6.9
0.7	560	79.8	7.1
0.7	570	80.3	6.4
0.7	580	80.5	6.4
0.7	590	80.6	5.1
0.7	600	80.6	5.3
0.7	610	80.6	5
0.7	620	81.2	5.3
0.7	630	81.4	5.1
0.7	640	81.5	5.2
0.7	650	82	4.7
0.7	660	81.8	4.6
0.7	670	82.3	4.8
0.7	680	82.4	4.9
0.7	690	82.4	5.3
0.7	700	83.3	4.8
0.7	710	83.3	4.7
0.7	720	83.3	4.9
0.7	730	83.3	5
0.7	740	83.3	5
0.7	750	83.6	4.9
0.7	760	83.9	5.1
0.7	770	84.3	5.2
0.7	780	84.5	5.3
0.7	790	84.9	5.3
0.7	800	84.9	5.2
0.7	810	85.3	5.3
0.7	820	85.7	5.7
0.7	830	86	5.1
0.7	840	86	5.4
0.7	850	86	5.4
0.7	860	86	5.8
0.7	870	86.4	5.5
0.6	300	67.7	7
0.6	310	69.3	7.2
0.6	320	70.2	7
0.6	330	71	7.5
0.6	340	71.9	7.8
0.6	350	72.6	8.3
0.6	360	73.3	8.3
0.6	370	74.5	8.4
0.6	380	75.1	9.1
0.6	390	75.8	8.4
0.6	400	76.4	9.1
0.6	410	76.8	9.7
0.6	420	77.3	8.6
0.6	430	77.5	8.8
0.6	440	77.9	7.6
0.6	450	78.6	8
0.6	460	79.4	8.3
0.6	470	79.5	8.2
0.6	480	80.2	9
0.6	490	80	6.7
0.6	500	80.7	6.7
0.6	510	80.7	7.3
0.6	520	81	8.7
0.6	530	81	7.3
0.6	540	81.5	7.5
0.6	550	82.9	7.7
0.6	560	82.8	8.1
0.6	570	82.8	5
0.6	580	83.4	5.2
0.6	590	83.4	5.3
0.6	600	83.7	5.5
0.6	610	84.4	6
0.6	620	84.8	6
0.6	630	84.2	6.1
0.6	640	85.1	6
0.6	650	85.1	5.3
0.6	660	84.9	5.4
0.6	670	85.8	5.6
0.6	680	86.4	5.5
0.6	690	86.4	5.8
0.6	700	86.4	5.3
0.6	710	86.4	5.6
0.6	720	86.7	5.6
0.6	730	87.3	5.9
0.6	740	87.7	6
0.6	750	87.8	6
0.6	760	89.1	5.8
0.6	770	89.1	5.9
0.6	780	89.1	5.8
0.6	790	89.1	6.2
0.6	800	89.1	6.2
0.6	810	89.8	6.2
0.6	820	90.2	5.9
0.6	830	89.5	5.6
0.6	840	90.3	5.8
0.6	850	90.7	5.9
0.6	860	90.7	6
0.6	870	90.8	6
0.5	300	70.4	8
0.5	310	71.8	8
0.5	320	72.6	8
0.5	330	73.8	8.3
0.5	340	75.1	8.4
0.5	350	76.1	9.1
0.5	360	76.8	9.1
0.5	370	77	8.8
0.5	380	77.5	9.6
0.5	390	79	8.6
0.5	400	79.3	9.6
0.5	410	79.6	10.2
0.5	420	80.3	9
0.5	430	81.2	9.2
0.5	440	81.2	7.9
0.5	450	82.1	8.1
0.5	460	82.2	8.5
0.5	470	82.8	8.3
0.5	480	83.5	8.6
0.5	490	83	6.7
0.5	500	83.8	6.5
0.5	510	84.1	7.1
0.5	520	84.8	8.7
0.5	530	84.5	7.1
0.5	540	85	7.3
0.5	550	85.1	7.6
0.5	560	85.8	7.9
0.5	570	86.2	8.1
0.5	580	85.6	7.2
0.5	590	86.7	5.6
0.5	600	87	5.1
0.5	610	86.6	4.7
0.5	620	86.9	5.2
0.5	630	87.5	5.5
0.5	640	87.2	5.6
0.5	650	87.3	5
0.5	660	87.6	4.7
0.5	670	88.3	4.6
0.5	680	88.2	4.8
0.5	690	88.2	5.2
0.5	700	88.6	4.9
0.5	710	89.5	5.3
0.5	720	89.2	5.1
0.5	730	90.1	5.1
0.5	740	90.4	5.4
0.5	750	91	5.5
0.5	760	91	5.3
0.5	770	91.7	5
0.5	780	91.8	5.3
0.5	790	92.3	5.1
0.5	800	92.3	5
0.5	810	92.7	5.3
0.5	820	92	5.3
0.5	830	92.8	5.1
0.5	840	92.9	5.5
0.5	850	93.2	5.6
0.5	860	93.4	5.5
0.5	870	93.8	5.1
0.3	300	73.2	7.2
0.3	310	73.7	7.5
0.3	320	75.6	7.6
0.3	330	75.9	7.6
0.3	340	76.7	7.2
0.3	350	78	7.6
0.3	360	78.6	9
0.3	370	78.9	8.8
0.3	380	79.8	8.9
0.3	390	80.2	8.4
0.3	400	80.8	9.2
0.3	410	81.3	9.4
0.3	420	81.5	8.8
0.3	430	82.1	8.8
0.3	440	82.3	7.6
0.3	450	83.3	7.7
0.3	460	83.7	7.9
0.3	470	83.9	7.2
0.3	480	84	7.5
0.3	490	84.5	7.1
0.3	500	84.9	6.8
0.3	510	85.5	7.3
0.3	520	85.3	8.2
0.3	530	85.5	7.1
0.3	540	86.4	7.6
0.3	550	86.6	7.7
0.3	560	86.7	8.6
0.3	570	86.7	7.3
0.3	580	87.1	5.8
0.3	590	87.4	6
0.3	600	88	5.7
0.3	610	87.5	6
0.3	620	88	6.9
0.3	630	88.5	6.6
0.3	640	88.7	6.2
0.3	650	88.9	5.9
0.3	660	89	5.8
0.3	670	88.9	5.7
0.3	680	89.4	5.9
0.3	690	90.2	5.9
0.3	700	90.4	6
0.3	710	91.2	6.2
0.3	720	91.9	5.4
0.3	730	92.2	5.8
0.3	740	92.9	6
0.3	750	93.1	5.8
0.3	760	93.5	6.3
0.3	770	94	6.1
0.3	780	94.2	5.7
0.3	790	94.3	5.6
0.3	800	94.4	6.2
0.3	810	95	6.1
0.3	820	95.3	5.7
0.3	830	95.6	5.8
0.3	840	96	6.4
0.3	850	96.1	6.6
0.3	860	96.1	6.3
0.3	870	96.3	6.3

System: thorium dioxide + uranium dioxide; phases: Crystal
Fixed: Temperature, K = 298.15
Fixed: Pressure, kPa = 101.3
Property: Mass density, kg/m3 (Crystal); method: From pellet mass and volume
Mole fraction of thorium dioxide	Mass density, kg/m3	uncertainty
1	9390	1878
0.9	8800	1760
0.8	9240	1849
0.7	9020	1842
0.6	8410	1698
0.5	8600	1721
0.3	8570	1887
0	10570	2114

System: thorium dioxide + uranium dioxide; phases: Crystal
Fixed: Temperature, K = 298.15
Fixed: Pressure, kPa = 101.3
Property: Mass density, kg/m3 (Crystal); method: X-ray diffraction
Mole fraction of thorium dioxide	Mass density, kg/m3	uncertainty
1	10000	30
0.9	10170	50
0.8	10350	70
0.7	10480	100
0.6	10640	130
0.5	10810	140
0.3	10810	210
0	10970	40

System: thorium dioxide + uranium dioxide; phases: Crystal
Fixed: Temperature, K = 298.15
Fixed: Pressure, kPa = 101.3
Property: Mass density, kg/m3 (Crystal); method: ARCHIM
Mole fraction of thorium dioxide	Mass density, kg/m3	uncertainty
1	9430	1886
0.9	9210	1842
0.8	9590	1918
0.7	9290	1902
0.6	8690	1761
0.5	8780	1760
0.3	8960	1940
0	10660	2132
