Measured thermophysical data. Enthalpies of mixing of liquid Bi Cu and Bi Cu Sn alloys relevant for lead-free soldering
Source: Thermochim. Acta, 2008, 10.1016/j.tca.2008.02.023
Compound 1: bismuth, Bi, InChI=1S/Bi
Compound 2: copper, Cu, InChI=1S/Cu
Compound 3: tin, Sn, InChI=1S/Sn

System: copper + bismuth; phases: Liquid
Fixed: Pressure, kPa = 101
Property: Excess molar enthalpy (molar enthalpy of mixing), kJ/mol (Liquid); method: Calvet calorimetry
Temperature, K	Mole fraction of copper	Excess molar enthalpy (molar enthalpy of mixing), kJ/mol	uncertainty
1073.15	0.0427	0.813	0.009
1073.15	0.0749	1.409	0.015
1073.15	0.0819	1.496	0.016
1073.15	0.1184	2.061	0.022
1073.15	0.1417	2.445	0.025
1073.15	0.1524	2.522	0.026
1073.15	0.1852	2.917	0.03
1073.15	0.2051	3.194	0.033
1073.15	0.216	3.227	0.033
1073.15	0.2446	3.491	0.036
1073.15	0.2648	3.713	0.038
1073.15	0.2722	3.73	0.038
1073.15	0.2982	3.92	0.04
1073.15	0.3165	4.072	0.042
1073.15	0.3228	4.076	0.042
1073.15	0.3461	4.189	0.043
1073.15	0.3622	4.262	0.044
1073.15	0.3683	4.284	0.044
1073.15	0.3893	4.351	0.045
1073.15	0.4032	4.342	0.044
1273.15	0.1194	2.074	0.022
1273.15	0.2184	3.515	0.036
1273.15	0.2984	4.345	0.044
1273.15	0.3648	4.796	0.049
1273.15	0.4198	5.052	0.052
1273.15	0.47	5.151	0.053
1273.15	0.5122	5.174	0.053
1273.15	0.5486	5.123	0.052
1273.15	0.5801	5.036	0.051
1273.15	0.6078	4.949	0.05
1273.15	0.632	4.841	0.049
1273.15	0.6535	4.719	0.048
1273.15	0.673	4.594	0.047
1273.15	0.6904	4.463	0.046
1273.15	0.7077	4.337	0.044
1273.15	0.724	4.216	0.043
1273.15	0.7393	4.12	0.042
1273.15	0.7532	3.999	0.041
1273.15	0.7659	3.865	0.04
1273.15	0.7773	3.754	0.039
1273.15	0.7884	3.655	0.038
1273.15	0.7985	3.596	0.037
1273.15	0.8078	3.463	0.036
1273.15	0.8164	3.354	0.035
1273.15	0.8244	3.249	0.033

System: tin + copper + bismuth; phases: Liquid
Fixed: Pressure, kPa = 101
Fixed: Temperature, K = 1073.2
Property: Excess molar enthalpy (molar enthalpy of mixing), kJ/mol (Liquid); method: Calvet calorimetry
Mole fraction of bismuth	Mole fraction of copper	Excess molar enthalpy (molar enthalpy of mixing), kJ/mol	uncertainty
0.0313	0.6871	-4.467	0.046
0.0323	0.6767	-4.303	0.044
0.0334	0.6656	-4.137	0.042
0.0346	0.6537	-3.952	0.041
0.0359	0.6411	-3.764	0.039
0.0372	0.6277	-3.562	0.037
0.0386	0.6136	-3.371	0.035
0.0401	0.5986	-3.152	0.033
0.0417	0.5828	-2.93	0.03
0.0434	0.5658	-2.687	0.028
0.0452	0.5477	-2.44	0.025
0.0472	0.528	-2.186	0.023
0.0493	0.5066	-1.921	0.02
0.0517	0.4831	-1.651	0.018
0.0542	0.4577	-1.377	0.015
0.057	0.4297	-1.12	0.012
0.0601	0.399	-0.87	0.01
0.0635	0.365	-0.623	0.007
0.0673	0.3269	-0.39	0.005
0.0716	0.2842	-0.171	0.003
0.0763	0.2373	-0.001	0.001
0.0815	0.1851	0.125	0.002
0.0815	0.6737	-3.376	0.035
0.082	0.6717	-3.031	0.031
0.0841	0.6633	-3.178	0.033
0.0846	0.6611	-2.821	0.029
0.0867	0.6526	-2.974	0.031
0.0874	0.1256	0.19	0.003
0.0874	0.65	-2.601	0.027
0.0895	0.6415	-2.766	0.029
0.0903	0.6382	-2.402	0.025
0.0913	0.7231	-3.785	0.039
0.0924	0.6299	-2.605	0.027
0.0935	0.6256	-2.228	0.023
0.0936	0.0635	0.16	0.003
0.0944	0.7138	-3.732	0.038
0.0954	0.6177	-2.447	0.025
0.0969	0.6121	-2.039	0.021
0.0976	0.7039	-3.661	0.038
0.0987	0.6048	-2.274	0.024
0.1005	0.5976	-1.847	0.019
0.1011	0.6934	-3.546	0.036
0.1021	0.591	-2.088	0.022
0.1043	0.5824	-1.65	0.018
0.1048	0.6822	-3.404	0.035
0.1058	0.5763	-1.89	0.02
0.1083	0.5664	-1.451	0.016
0.1087	0.6703	-3.229	0.033
0.1097	0.5605	-1.69	0.018
0.1126	0.5492	-1.239	0.013
0.1129	0.6577	-3.015	0.031
0.114	0.5435	-1.48	0.016
0.1172	0.5307	-1.035	0.011
0.1173	0.6442	-2.765	0.029
0.1185	0.5251	-1.265	0.014
0.1221	0.5112	-0.833	0.009
0.1221	0.6298	-2.468	0.026
0.1235	0.5053	-1.058	0.012
0.1272	0.6142	-2.168	0.023
0.1273	0.4902	-0.625	0.007
0.1289	0.4837	-0.836	0.009
0.1328	0.5972	-1.804	0.019
0.1329	0.4678	-0.419	0.005
0.1347	0.4605	-0.627	0.007
0.1389	0.4437	-0.215	0.003
0.1389	0.5787	-1.449	0.015
0.141	0.4353	-0.415	0.005
0.1454	0.4179	-0.028	0.001
0.1455	0.7084	-2.651	0.028
0.1456	0.5585	-1.11	0.012
0.1458	0.7085	-2.556	0.027
0.1478	0.408	-0.219	0.003
0.1504	0.6985	-2.67	0.028
0.1505	0.699	-2.566	0.027
0.1524	0.3898	0.163	0.003
0.1528	0.5364	-0.824	0.009
0.1551	0.3786	-0.026	0.001
0.1554	0.6885	-2.68	0.028
0.1555	0.689	-2.574	0.027
0.1599	0.3599	0.334	0.004
0.1607	0.6778	-2.661	0.028
0.1609	0.5121	-0.554	0.007
0.1631	0.3465	0.162	0.003
0.1663	0.6667	-2.624	0.027
0.1664	0.6672	-2.517	0.026
0.1681	0.327	0.474	0.006
0.1696	0.4856	-0.277	0.004
0.1719	0.3113	0.314	0.004
0.1722	0.6547	-2.566	0.027
0.1724	0.6554	-2.458	0.026
0.1769	0.2915	0.586	0.007
0.1786	0.6419	-2.469	0.026
0.1787	0.6428	-2.352	0.025
0.1793	0.4561	-0.009	0.001
0.1816	0.2724	0.45	0.006
0.1854	0.6292	-2.217	0.023
0.1855	0.6282	-2.323	0.024
0.1865	0.2533	0.66	0.008
0.1902	0.4233	0.251	0.004
0.1924	0.2292	0.516	0.006
0.1926	0.6148	-2.06	0.022
0.1929	0.6133	-2.136	0.022
0.1969	0.2117	0.7	0.008
0.2004	0.5992	-1.84	0.019
0.2009	0.5972	-1.925	0.02
0.202	0.3873	0.494	0.006
0.2045	0.1809	0.547	0.006
0.2077	0.685	-0.799	0.009
0.208	0.1671	0.667	0.008
0.2088	0.5826	-1.588	0.017
0.2094	0.5802	-1.646	0.017
0.2146	0.6745	-0.895	0.01
0.2149	0.3482	0.696	0.008
0.2178	0.1276	0.498	0.006
0.2178	0.5645	-1.302	0.014
0.2185	0.5621	-1.337	0.014
0.2203	0.1178	0.584	0.007
0.222	0.6633	-0.975	0.011
0.2276	0.5449	-0.935	0.01
0.2283	0.5424	-0.955	0.011
0.229	0.3056	0.851	0.01
0.2298	0.6514	-1.034	0.011
0.2327	0.0679	0.36	0.005
0.2342	0.0623	0.396	0.005
0.2381	0.6388	-1.089	0.012
0.2383	0.5234	-0.535	0.006
0.239	0.5209	-0.541	0.006
0.2442	0.2595	0.946	0.01
0.2468	0.6687	0.182	0.003
0.247	0.6254	-1.111	0.012
0.2497	0.6668	0.709	0.008
0.25	0.5	-0.025	0.001
0.2506	0.4976	-0.055	0.002
0.2564	0.6559	0.218	0.003
0.2565	0.611	-1.097	0.012
0.2585	0.655	0.694	0.008
0.2614	0.2071	0.941	0.01
0.2629	0.4744	0.489	0.006
0.2633	0.4721	0.424	0.005
0.2664	0.5959	-1.066	0.012
0.2666	0.6422	0.25	0.004
0.2679	0.6424	0.593	0.007
0.272	0.6978	-0.151	0.003
0.2765	0.6289	0.286	0.004
0.277	0.4462	0.842	0.009
0.277	0.5798	-0.998	0.011
0.2774	0.4439	0.749	0.009
0.278	0.6289	0.523	0.006
0.2812	0.1472	0.833	0.009
0.2817	0.687	-0.133	0.002
0.2871	0.6147	0.324	0.004
0.2884	0.5625	-0.904	0.01
0.2888	0.6146	0.452	0.006
0.2917	0.6758	-0.118	0.002
0.2924	0.4154	1.12	0.012
0.293	0.4127	1.036	0.011
0.2984	0.5995	0.362	0.005
0.3002	0.5993	0.401	0.005
0.3004	0.5444	-0.767	0.009
0.3024	0.6639	-0.103	0.002
0.3041	0.0778	0.565	0.007
0.3092	0.3819	1.324	0.014
0.3101	0.3783	1.239	0.013
0.3104	0.5834	0.409	0.005
0.3121	0.5835	0.363	0.005
0.3134	0.5246	-0.582	0.007
0.3138	0.6513	-0.089	0.002
0.3229	0.5666	0.46	0.006
0.3249	0.5664	0.391	0.005
0.3259	0.6378	-0.077	0.002
0.3275	0.5032	-0.336	0.004
0.3277	0.3447	1.498	0.016
0.3293	0.3399	1.418	0.015
0.336	0.5491	0.502	0.006
0.3386	0.5481	0.419	0.005
0.3387	0.6236	-0.058	0.002
0.3429	0.4798	-0.013	0.001
0.3483	0.3035	1.604	0.017
0.3499	0.5304	0.553	0.007
0.3502	0.298	1.526	0.016
0.3522	0.6086	-0.027	0.001
0.3533	0.5284	0.487	0.006
0.3598	0.4543	0.379	0.005
0.3649	0.5103	0.612	0.007
0.3664	0.5928	0.007	0.001
0.369	0.5075	0.611	0.007
0.3715	0.2572	1.614	0.017
0.3737	0.2508	1.563	0.017
0.3783	0.4261	0.856	0.01
0.3811	0.4885	0.71	0.008
0.3819	0.5756	0.056	0.002
0.386	0.4848	0.776	0.009
0.3977	0.2048	1.515	0.016
0.3983	0.4655	0.797	0.009
0.3986	0.5571	0.088	0.002
0.3989	0.3949	1.426	0.015
0.3993	0.1995	1.47	0.016
0.4044	0.4602	1.001	0.011
0.4167	0.5369	0.127	0.002
0.417	0.4403	0.902	0.01
0.4198	0.5344	2.912	0.03
0.4216	0.3605	1.983	0.021
0.4247	0.4333	1.301	0.014
0.4277	0.1448	1.27	0.014
0.4285	0.1411	1.229	0.013
0.4361	0.4146	1.007	0.011
0.4363	0.5152	0.166	0.003
0.4394	0.5128	3.091	0.032
0.4407	0.512	3.721	0.038
0.445	0.4061	1.673	0.018
0.4468	0.3222	2.21	0.023
0.4567	0.387	1.103	0.012
0.4573	0.4918	0.217	0.003
0.4605	0.4893	3.173	0.033
0.4614	0.0775	0.812	0.009
0.4615	0.0747	0.785	0.009
0.464	0.4862	3.802	0.039
0.4673	0.3763	2.082	0.022
0.4751	0.2794	2.225	0.023
0.4789	0.3573	1.241	0.013
0.4796	0.467	0.281	0.004
0.4837	0.4636	3.247	0.033
0.4897	0.4578	3.858	0.04
0.4914	0.3441	2.565	0.027
0.5023	0.3259	1.387	0.015
0.5041	0.4398	0.346	0.004
0.506	0.2325	2.135	0.022
0.5089	0.4357	3.328	0.034
0.5179	0.3088	2.827	0.029
0.5179	0.4265	3.932	0.04
0.5269	0.2928	1.55	0.017
0.5311	0.4098	0.424	0.005
0.5365	0.4051	3.396	0.035
0.5385	0.1832	1.911	0.02
0.5473	0.2696	2.804	0.029
0.5489	0.3922	3.933	0.04
0.5513	0.26	1.739	0.018
0.5602	0.3774	0.52	0.006
0.5672	0.371	3.436	0.035
0.5747	0.1282	1.522	0.016
0.5802	0.2257	2.618	0.027
0.5831	0.3544	3.917	0.04
0.592	0.3421	0.617	0.007
0.6016	0.3329	3.411	0.035
0.6036	0.1899	2.155	0.023
0.6153	0.0667	0.93	0.01
0.6163	0.1775	2.304	0.024
0.6212	0.3121	3.801	0.039
0.6347	0.1482	2.429	0.025
0.6403	0.29	3.309	0.034
0.6561	0.1244	1.782	0.019
0.6591	0.2675	0.841	0.009
0.6646	0.2641	3.564	0.037
0.669	0.102	2.761	0.029
0.6833	0.2423	3.074	0.032
0.6991	0.2231	0.977	0.011
0.7004	0.0652	1.059	0.012
0.7056	0.053	3.181	0.033
0.7131	0.2103	3.13	0.032
0.7312	0.1892	2.643	0.027
0.7425	0.1749	1.127	0.012
0.7686	0.1489	2.467	0.026
0.7824	0.1325	2.061	0.022
0.7913	0.1207	1.333	0.014
0.8332	0.0773	1.445	0.015
0.8401	0.0684	1.18	0.013
0.8462	0.0596	1.586	0.017
