Measured thermophysical data. Thermodynamic properties of hydrated sodium l-threonate Na(C4H7O5)*H2O(s)
Source: Thermochim. Acta, 2006, 10.1016/j.tca.2006.05.016
Compound 1: sodium (2R,3S)-2,3,4-trihydroxybutanoate hydrate, C4H9NaO6, InChI=1S/C4H8O5.Na.H2O/c5-1-2(6)3(7)4(8)9;;/h2-3,5-7H,1H2,(H,8,9);;1H2/q;+1;/p-1/t2-,3+;;/m0../s1, purity 99%

System: sodium (2R,3S)-2,3,4-trihydroxybutanoate hydrate; phases: Crystal 2, Crystal 1, Gas
Property: Molar enthalpy of transition or fusion, kJ/mol (Crystal 2); method: Adiabatic calorimetry
Molar enthalpy of transition or fusion, kJ/mol	uncertainty
5.75	0.06

System: sodium (2R,3S)-2,3,4-trihydroxybutanoate hydrate; phases: Crystal 2, Crystal 1, Gas
Property: Triple point temperature, K (Crystal 2); method: Adiabatic calorimetry
Triple point temperature, K	uncertainty
311.4	0.4

System: sodium (2R,3S)-2,3,4-trihydroxybutanoate hydrate; phases: Crystal 2
Fixed: Pressure, kPa = 101.325
Property: Molar heat capacity at constant pressure, J/K/mol (Crystal 2); method: Vacuum adiabatic calorimetry
Temperature, K	Molar heat capacity at constant pressure, J/K/mol	uncertainty
77.955	75.004	0.263
79.369	76.718	0.269
81.363	79.564	0.279
83.908	84.793	0.296
86.365	87.681	0.305
88.756	90.451	0.314
91.086	93.274	0.349
93.363	96.085	0.357
95.592	98.203	0.363
97.777	100.57	0.37
99.925	102.71	0.38
102.036	105.14	0.38
104.116	107.69	0.39
106.164	109.95	0.4
108.182	111.9	0.4
110.169	113.31	0.41
112.129	114.95	0.41
114.067	116.19	0.41
115.974	117.54	0.42
117.857	118.71	0.42
119.773	120.32	0.43
121.623	121.99	0.43
123.506	123.24	0.43
125.325	124.71	0.44
127.143	125.29	0.44
128.864	126.35	0.44
130.682	127.87	0.45
132.501	128.63	0.45
134.242	131.67	0.46
135.974	132.68	0.46
137.727	133.19	0.46
139.481	134.44	0.47
141.234	136.19	0.47
142.857	137.59	0.48
144.61	138.32	0.48
146.299	140.73	0.49
147.987	140.29	0.48
149.611	141.98	0.49
151.299	143.95	0.5
152.955	145.69	0.5
154.611	147.47	0.51
156.299	148.86	0.51
157.857	150.83	0.52
159.545	152.22	0.52
161.169	153.62	0.52
162.727	154.86	0.53
164.351	156.25	0.53
165.909	156.39	0.53
167.532	158.29	0.54
169.091	159.91	0.54
172.121	160.63	0.55
176.288	162.82	0.55
180.303	165.02	0.56
184.221	166.35	0.56
188.182	168.27	0.57
191.969	170.46	0.57
195.833	171.25	0.58
199.611	172.21	0.58
203.333	173.89	0.58
207.045	175.99	0.59
210.682	177.22	0.59
214.318	179.68	0.6
217.955	181.35	0.61
221.515	183.72	0.61
225.001	185.96	0.62
228.506	187.72	0.63
231.948	189.41	0.63
235.389	192.26	0.64
238.788	194.53	0.65
242.045	198.57	0.66
245.389	201.48	0.67
248.701	203.61	0.67
252.078	206.16	0.68
255.455	208.87	0.69
258.701	210.99	0.7
262.013	212.53	0.7
265.325	215.68	0.71
268.571	217.65	0.72
271.774	220.53	0.73
275.001	224.17	0.74
278.117	228.04	0.75
281.299	231.99	0.76
284.416	237.12	0.78
287.532	241.14	0.79
290.519	246.12	0.8
293.506	256.15	256.15
296.364	269.06	269.06
299.167	287.71	287.71
301.894	317.39	317.39
304.457	360.73	360.73
306.872	401.98	401.98
309.165	438.39	438.39
311.364	491.36	491.36

System: sodium (2R,3S)-2,3,4-trihydroxybutanoate hydrate; phases: Crystal 1
Fixed: Pressure, kPa = 101.325
Property: Molar heat capacity at constant pressure, J/K/mol (Crystal 1); method: Vacuum adiabatic calorimetry
Temperature, K	Molar heat capacity at constant pressure, J/K/mol	uncertainty
318.506	314.18	1.04
320.909	318.35	1.02
323.312	325.56	1.05
325.779	328.61	1.06
328.182	335.06	1.08
330.584	339.72	1.09
332.987	345.04	1.11
335.325	351.32	1.13
337.662	358.41	1.15
340.011	364.19	1.16
342.273	369.83	1.18
344.545	376.43	1.2
346.818	381.43	1.22
349.026	386.89	1.23
351.169	394.15	1.26
353.247	400.12	1.27
355.327	406.54	1.29
357.273	412.66	1.31
359.156	419.26	1.33
360.909	423.77	1.35
362.532	426.99	1.36
364.091	434.07	1.38
365.325	439.39	1.4
366.558	441.96	1.4
367.662	446.63	1.42
368.506	453.39	1.47
