Measured thermophysical data. Heat capacity and transition behavior of sucrose by standard, fast scanning and temperature-modulated calorimetry
Source: Thermochim. Acta, 2014, 10.1016/j.tca.2014.05.029
Compound 1: D-sucrose, C12H22O11, InChI=1S/C12H22O11/c13-1-4-6(16)8(18)9(19)11(21-4)23-12(3-15)10(20)7(17)5(2-14)22-12/h4-11,13-20H,1-3H2/t4-,5-,6-,7-,8+,9-,10+,11-,12+/m1/s1

System: D-sucrose; phases: Crystal, Liquid, Air at 1 atmosphere
Property: Normal melting temperature, K (Crystal); method: DTA
Normal melting temperature, K	uncertainty
424.4	0.5

System: D-sucrose; phases: Crystal, Liquid, Air at 1 atmosphere
Property: Molar enthalpy of transition or fusion, kJ/mol (Crystal); method: DSC
Molar enthalpy of transition or fusion, kJ/mol	uncertainty
32	1

System: D-sucrose; phases: Liquid
Fixed: Pressure, kPa = 101.325
Property: Molar heat capacity at constant pressure, J/K/mol (Liquid); method: Small sample (50 mg) DSC
Temperature, K	Molar heat capacity at constant pressure, J/K/mol	uncertainty
331	746.98	14.94
340	756.97	15.14
350	768.07	15.36
360	779.17	15.58
370	790.27	15.81
380	801.37	16.03
390	812.47	16.25
400	823.57	16.47
410	834.67	16.69
420	845.77	16.92
424	850.21	17
430	856.87	17.14
440	867.97	17.36
450	879.07	17.58
460	890.17	17.8
470	901.27	18.03
480	912.37	18.25
490	923.47	18.47
500	934.57	18.69
510	945.67	18.91
520	956.77	19.14
530	967.87	19.36
540	978.97	19.58
550	990.07	19.8
560	1001.17	20.02
570	1012.27	20.25
580	1023.37	20.47
590	1034.47	20.69
600	1045.57	20.91
