Measured thermophysical data. Influence of temperature on thermophysical properties of ammonium ionic liquids with Nmethyl-  2-pyrrolidone
Source: Thermochim. Acta, 2012, 10.1016/j.tca.2012.07.004
Compound 1: trimethylammonium acetate, C5H13NO2, InChI=1S/C3H9N.C2H4O2/c1-4(2)3;1-2(3)4/h1-3H3;1H3,(H,3,4), purity 99%
Compound 2: trimethylammonium dihydrogen phosphate, C3H12NO4P, InChI=1S/C3H9N.H3O4P/c1-4(2)3;1-5(2,3)4/h1-3H3;(H3,1,2,3,4), purity 99%
Compound 3: trimethylammonium hydrogen sulfate, C3H11NO4S, InChI=1S/C3H9N.H2O4S/c1-4(2)3;1-5(2,3)4/h1-3H3;(H2,1,2,3,4), purity 99%
Compound 4: triethylammonium dihydrogen phosphate, C6H18NO4P, InChI=1S/C6H15N.H3O4P/c1-4-7(5-2)6-3;1-5(2,3)4/h4-6H2,1-3H3;(H3,1,2,3,4), purity 99%
Compound 5: N-methylpyrrolidone, C5H9NO, InChI=1S/C5H9NO/c1-6-4-2-3-5(6)7/h2-4H2,1H3, purity 99%

System: trimethylammonium acetate; phases: Liquid
Fixed: Pressure, kPa = 101
Property: Viscosity, Pa*s (Liquid); method: Vibrating wire viscometry
Temperature, K	Viscosity, Pa*s	uncertainty
298.15	0.00276	0.00017
303.15	0.00237	0.00014
308.15	0.00206	0.00012
313.15	0.00183	0.00011

System: trimethylammonium acetate; phases: Liquid
Fixed: Pressure, kPa = 101
Property: Speed of sound, m/s (Liquid); method: ultrasonic interferometer
Temperature, K	Speed of sound, m/s	uncertainty
298.15	1544	20
303.15	1514	20
308.15	1508	20
313.15	1490	20

System: trimethylammonium acetate; phases: Liquid
Fixed: Pressure, kPa = 101
Property: Mass density, kg/m3 (Liquid); method: Vibrating tube method
Temperature, K	Mass density, kg/m3	uncertainty
298.15	1053.85	0.35
303.15	1049.87	0.35
308.15	1045.81	0.35
313.15	1041.7	0.34

System: trimethylammonium dihydrogen phosphate; phases: Liquid
Fixed: Pressure, kPa = 101
Property: Viscosity, Pa*s (Liquid); method: Vibrating wire viscometry
Temperature, K	Viscosity, Pa*s	uncertainty
298.15	0.00764	0.00046
303.15	0.00646	0.00039
308.15	0.00561	0.00034
313.15	0.00507	0.00031

System: trimethylammonium dihydrogen phosphate; phases: Liquid
Fixed: Pressure, kPa = 101
Property: Speed of sound, m/s (Liquid); method: ultrasonic interferometer
Temperature, K	Speed of sound, m/s	uncertainty
298.15	1672	20
303.15	1660	20
308.15	1661	20
313.15	1664	20

System: trimethylammonium dihydrogen phosphate; phases: Liquid
Fixed: Pressure, kPa = 101
Property: Mass density, kg/m3 (Liquid); method: Vibrating tube method
Temperature, K	Mass density, kg/m3	uncertainty
298.15	1353.61	0.69
303.15	1350.62	0.68
308.15	1347.59	0.68
313.15	1344.53	0.68

System: trimethylammonium hydrogen sulfate; phases: Liquid
Fixed: Pressure, kPa = 101
Property: Viscosity, Pa*s (Liquid); method: Vibrating wire viscometry
Temperature, K	Viscosity, Pa*s	uncertainty
298.15	0.0051	0.00031
303.15	0.00448	0.00027
308.15	0.00394	0.00024
313.15	0.00316	0.00019

System: trimethylammonium hydrogen sulfate; phases: Liquid
Fixed: Pressure, kPa = 101
Property: Speed of sound, m/s (Liquid); method: ultrasonic interferometer
Temperature, K	Speed of sound, m/s	uncertainty
298.15	1564	20
303.15	1560	20
308.15	1556	20
313.15	1552	20

System: trimethylammonium hydrogen sulfate; phases: Liquid
Fixed: Pressure, kPa = 101
Property: Mass density, kg/m3 (Liquid); method: Vibrating tube method
Temperature, K	Mass density, kg/m3	uncertainty
298.15	1467.58	0.83
303.15	1463.56	0.82
308.15	1463.5	0.82
313.15	1455.63	0.82

System: triethylammonium dihydrogen phosphate; phases: Liquid
Fixed: Pressure, kPa = 101
Property: Viscosity, Pa*s (Liquid); method: Vibrating wire viscometry
Temperature, K	Viscosity, Pa*s	uncertainty
298.15	0.06431	0.00388
303.15	0.0571	0.00344
308.15	0.04953	0.00299
313.15	0.03831	0.00231

System: triethylammonium dihydrogen phosphate; phases: Liquid
Fixed: Pressure, kPa = 101
Property: Speed of sound, m/s (Liquid); method: ultrasonic interferometer
Temperature, K	Speed of sound, m/s	uncertainty
298.15	1794	20
303.15	1769	20
308.15	1757	20
313.15	1730	20

System: triethylammonium dihydrogen phosphate; phases: Liquid
Fixed: Pressure, kPa = 101
Property: Mass density, kg/m3 (Liquid); method: Vibrating tube method
Temperature, K	Mass density, kg/m3	uncertainty
298.15	1125.7	0.43
303.15	1124.68	0.43
308.15	1123.71	0.42
313.15	1122.37	0.42

System: N-methylpyrrolidone; phases: Liquid
Fixed: Pressure, kPa = 101
Property: Viscosity, Pa*s (Liquid); method: Vibrating wire viscometry
Temperature, K	Viscosity, Pa*s	uncertainty
298.15	0.00166	0.0001
303.15	0.00149	9e-05
308.15	0.00139	8e-05
313.15	0.00131	8e-05

System: N-methylpyrrolidone; phases: Liquid
Fixed: Pressure, kPa = 101
Property: Speed of sound, m/s (Liquid); method: ultrasonic interferometer
Temperature, K	Speed of sound, m/s	uncertainty
298.15	1572	20
303.15	1552	20
308.15	1528	20
313.15	1520	20

System: N-methylpyrrolidone; phases: Liquid
Fixed: Pressure, kPa = 101
Property: Mass density, kg/m3 (Liquid); method: Vibrating tube method
Temperature, K	Mass density, kg/m3	uncertainty
298.15	1025.9	0.32
303.15	1023.74	0.32
308.15	1019.25	0.32
313.15	1014.74	0.31

System: N-methylpyrrolidone + trimethylammonium acetate; phases: Liquid
Fixed: Pressure, kPa = 101
Property: Viscosity, Pa*s (Liquid); method: Vibrating wire viscometry
Temperature, K	Mole fraction of trimethylammonium acetate	Viscosity, Pa*s	uncertainty
298.15	0	0.00166	0.0001
298.15	0.0182	0.00204	0.00012
298.15	0.0369	0.00228	0.00014
298.15	0.0987	0.00304	0.00018
298.15	0.1401	0.00342	0.00021
298.15	0.2032	0.00389	0.00023
298.15	0.3166	0.0045	0.00027
298.15	0.3637	0.00456	0.00028
298.15	0.4353	0.00461	0.00028
298.15	0.5625	0.00452	0.00027
298.15	0.6999	0.00423	0.00026
298.15	0.8435	0.0037	0.00022
298.15	0.936	0.00327	0.0002
298.15	0.9675	0.00302	0.00018
298.15	1	0.00276	0.00017
303.15	0	0.00149	9e-05
303.15	0.0182	0.00164	0.0001
303.15	0.0369	0.00186	0.00011
303.15	0.0987	0.00256	0.00016
303.15	0.1401	0.003	0.00018
303.15	0.2032	0.00348	0.00021
303.15	0.3166	0.00405	0.00024
303.15	0.3637	0.00411	0.00025
303.15	0.4353	0.00416	0.00025
303.15	0.5625	0.00401	0.00024
303.15	0.6999	0.00364	0.00022
303.15	0.8435	0.00314	0.00019
303.15	0.936	0.00278	0.00017
303.15	0.9675	0.00252	0.00015
303.15	1	0.00237	0.00014
308.15	0	0.00139	8e-05
308.15	0.0182	0.00143	9e-05
308.15	0.0369	0.00157	0.0001
308.15	0.0987	0.00223	0.00014
308.15	0.1401	0.00264	0.00016
308.15	0.2032	0.00314	0.00019
308.15	0.3166	0.0037	0.00022
308.15	0.3637	0.00376	0.00023
308.15	0.4353	0.00377	0.00023
308.15	0.5625	0.00352	0.00021
308.15	0.6999	0.00312	0.00019
308.15	0.8435	0.00264	0.00016
308.15	0.936	0.00234	0.00014
308.15	0.9675	0.00216	0.00013
308.15	1	0.00206	0.00012
313.15	0	0.00131	8e-05
313.15	0.0182	0.00152	9e-05
313.15	0.0369	0.00138	8e-05
313.15	0.0987	0.00196	0.00012
313.15	0.1401	0.00239	0.00014
313.15	0.2032	0.00281	0.00017
313.15	0.3166	0.00337	0.0002
313.15	0.3637	0.00341	0.00021
313.15	0.4353	0.00342	0.00021
313.15	0.5625	0.00316	0.00019
313.15	0.6999	0.00274	0.00017
313.15	0.8435	0.00225	0.00014
313.15	0.936	0.00204	0.00012
313.15	0.9675	0.00192	0.00012
313.15	1	0.00183	0.00011

System: N-methylpyrrolidone + trimethylammonium acetate; phases: Liquid
Fixed: Pressure, kPa = 101
Property: Speed of sound, m/s (Liquid); method: ultrasonic interferometer
Temperature, K	Mole fraction of trimethylammonium acetate	Speed of sound, m/s	uncertainty
298.15	0	1572	20
298.15	0.0182	1571	20
298.15	0.0369	1575	20
298.15	0.0987	1578	20
298.15	0.1401	1581	20
298.15	0.2032	1586	20
298.15	0.3166	1584	20
298.15	0.3637	1582	20
298.15	0.4353	1580	20
298.15	0.5625	1571	20
298.15	0.6999	1559	20
298.15	0.8435	1550	20
298.15	0.936	1544	20
298.15	0.9675	1543	20
298.15	1	1544	20
303.15	0	1552	20
303.15	0.0182	1556	20
303.15	0.0369	1560	20
303.15	0.0987	1565	20
303.15	0.1401	1568	20
303.15	0.2032	1572	20
303.15	0.3166	1569	20
303.15	0.3637	1566	20
303.15	0.4353	1564	20
303.15	0.5625	1551	20
303.15	0.6999	1537	20
303.15	0.8435	1524	20
303.15	0.936	1517	20
303.15	0.9675	1515	20
303.15	1	1514	20
308.15	0	1528	20
308.15	0.0182	1534	20
308.15	0.0369	1540	20
308.15	0.0987	1546	20
308.15	0.1401	1550	20
308.15	0.2032	1555	20
308.15	0.3166	1554	20
308.15	0.3637	1553	20
308.15	0.4353	1551	20
308.15	0.5625	1540	20
308.15	0.6999	1530	20
308.15	0.8435	1519	20
308.15	0.936	1512	20
308.15	0.9675	1511	20
308.15	1	1508	20
313.15	0	1520	20
313.15	0.0182	1528	20
313.15	0.0369	1533	20
313.15	0.0987	1538	20
313.15	0.1401	1542	20
313.15	0.2032	1546	20
313.15	0.3166	1544	20
313.15	0.3637	1543	20
313.15	0.4353	1540	20
313.15	0.5625	1528	20
313.15	0.6999	1517	20
313.15	0.8435	1508	20
313.15	0.936	1502	20
313.15	0.9675	1496	20
313.15	1	1490	20

System: N-methylpyrrolidone + trimethylammonium acetate; phases: Liquid
Fixed: Pressure, kPa = 101
Property: Mass density, kg/m3 (Liquid); method: Vibrating tube method
Temperature, K	Mole fraction of trimethylammonium acetate	Mass density, kg/m3	uncertainty
298.15	0	1025.9	0.32
298.15	0.0182	1028.63	0.35
298.15	0.0369	1030.53	0.34
298.15	0.0987	1036.87	0.35
298.15	0.1401	1039.96	0.34
298.15	0.2032	1043.65	0.35
298.15	0.3166	1047.89	0.35
298.15	0.3637	1048.9	0.35
298.15	0.4353	1049.74	0.35
298.15	0.5625	1049.92	0.35
298.15	0.6999	1049.74	0.35
298.15	0.8435	1050.4	0.35
298.15	0.936	1051.83	0.35
298.15	0.9675	1052.54	0.35
298.15	1	1053.85	0.35
303.15	0	1023.74	0.32
303.15	0.0182	1026.1	0.34
303.15	0.0369	1027.79	0.34
303.15	0.0987	1033.52	0.34
303.15	0.1401	1036.31	0.34
303.15	0.2032	1039.76	0.34
303.15	0.3166	1043.59	0.35
303.15	0.3637	1044.52	0.35
303.15	0.4353	1045.32	0.35
303.15	0.5625	1045.54	0.35
303.15	0.6999	1045.69	0.35
303.15	0.8435	1046.54	0.35
303.15	0.936	1048.22	0.35
303.15	0.9675	1048.93	0.35
303.15	1	1049.87	0.35
308.15	0	1019.25	0.32
308.15	0.0182	1021.24	0.34
308.15	0.0369	1023.08	0.34
308.15	0.0987	1028.14	0.34
308.15	0.1401	1030.79	0.34
308.15	0.2032	1034.23	0.34
308.15	0.3166	1037.97	0.34
308.15	0.3637	1039.05	0.34
308.15	0.4353	1039.98	0.34
308.15	0.5625	1040.55	0.34
308.15	0.6999	1040.85	0.34
308.15	0.8435	1042	0.34
308.15	0.936	1043.81	0.34
308.15	0.9675	1044.69	0.35
308.15	1	1045.81	0.35
313.15	0	1014.74	0.31
313.15	0.0182	1016.53	0.33
313.15	0.0369	1017.98	0.33
313.15	0.0987	1023.07	0.33
313.15	0.1401	1025.67	0.33
313.15	0.2032	1029.09	0.33
313.15	0.3166	1032.81	0.34
313.15	0.3637	1033.73	0.34
313.15	0.4353	1034.71	0.34
313.15	0.5625	1035.21	0.34
313.15	0.6999	1035.7	0.34
313.15	0.8435	1037.36	0.34
313.15	0.936	1039.26	0.34
313.15	0.9675	1040.35	0.34
313.15	1	1041.7	0.34

System: N-methylpyrrolidone + trimethylammonium dihydrogen phosphate; phases: Liquid
Fixed: Pressure, kPa = 101
Property: Viscosity, Pa*s (Liquid); method: Vibrating wire viscometry
Temperature, K	Mole fraction of trimethylammonium dihydrogen phosphate	Viscosity, Pa*s	uncertainty
298.15	0	0.00166	0.0001
298.15	0.0201	0.00289	0.00021
298.15	0.0391	0.00608	0.00039
298.15	0.1028	0.01347	0.00082
298.15	0.1462	0.01844	0.00112
298.15	0.211	0.02504	0.00151
298.15	0.3267	0.03052	0.00184
298.15	0.3746	0.03103	0.00187
298.15	0.4469	0.03116	0.00188
298.15	0.5751	0.0277	0.00167
298.15	0.7093	0.02112	0.00128
298.15	0.852	0.01299	0.00079
298.15	0.9413	0.00868	0.00053
298.15	0.9719	0.00748	0.00045
298.15	1	0.00764	0.00046
303.15	0	0.00149	9e-05
303.15	0.0201	0.00213	0.00014
303.15	0.0391	0.00398	0.00027
303.15	0.1028	0.01155	0.00071
303.15	0.1462	0.01587	0.00096
303.15	0.211	0.02179	0.00132
303.15	0.3267	0.02664	0.00161
303.15	0.3746	0.0273	0.00165
303.15	0.4469	0.02698	0.00163
303.15	0.5751	0.0241	0.00145
303.15	0.7093	0.01807	0.00109
303.15	0.852	0.01086	0.00066
303.15	0.9413	0.00793	0.00048
303.15	0.9719	0.00679	0.00041
303.15	1	0.00646	0.00039
308.15	0	0.00139	8e-05
308.15	0.0201	0.00154	0.0001
308.15	0.0391	0.0023	0.00016
308.15	0.1028	0.00869	0.00053
308.15	0.1462	0.01198	0.00073
308.15	0.211	0.01624	0.00098
308.15	0.3267	0.02011	0.00121
308.15	0.3746	0.02071	0.00125
308.15	0.4469	0.02064	0.00125
308.15	0.5751	0.01868	0.00113
308.15	0.7093	0.01421	0.00086
308.15	0.852	0.00883	0.00053
308.15	0.9413	0.00725	0.00044
308.15	0.9719	0.0066	0.0004
308.15	1	0.00561	0.00034
313.15	0	0.00131	8e-05
313.15	0.0201	0.00147	0.0001
313.15	0.0391	0.00282	0.00018
313.15	0.1028	0.00692	0.00042
313.15	0.1462	0.00958	0.00058
313.15	0.211	0.01274	0.00077
313.15	0.3267	0.01643	0.00099
313.15	0.3746	0.01655	0.001
313.15	0.4469	0.01653	0.001
313.15	0.5751	0.0152	0.00092
313.15	0.7093	0.0119	0.00072
313.15	0.852	0.00717	0.00043
313.15	0.9413	0.00673	0.00041
313.15	0.9719	0.00576	0.00035
313.15	1	0.00507	0.00031

System: N-methylpyrrolidone + trimethylammonium dihydrogen phosphate; phases: Liquid
Fixed: Pressure, kPa = 101
Property: Speed of sound, m/s (Liquid); method: ultrasonic interferometer
Temperature, K	Mole fraction of trimethylammonium dihydrogen phosphate	Speed of sound, m/s	uncertainty
298.15	0	1572	20
298.15	0.0201	1573	20
298.15	0.0391	1586	20
298.15	0.1028	1610	20
298.15	0.1462	1626	20
298.15	0.211	1653	20
298.15	0.3267	1680	20
298.15	0.3746	1686	20
298.15	0.4469	1695	20
298.15	0.5751	1695	20
298.15	0.7093	1691	20
298.15	0.852	1673	20
298.15	0.9413	1665	20
298.15	0.9719	1665	20
298.15	1	1672	20
303.15	0	1552	20
303.15	0.0201	1570	20
303.15	0.0391	1582	20
303.15	0.1028	1604	20
303.15	0.1462	1624	20
303.15	0.211	1644	20
303.15	0.3267	1671	20
303.15	0.3746	1679	20
303.15	0.4469	1692	20
303.15	0.5751	1692	20
303.15	0.7093	1690	20
303.15	0.852	1675	20
303.15	0.9413	1663	20
303.15	0.9719	1662	20
303.15	1	1660	20
308.15	0	1528	20
308.15	0.0201	1550	20
308.15	0.0391	1564	20
308.15	0.1028	1587	20
308.15	0.1462	1606	20
308.15	0.211	1633	20
308.15	0.3267	1663	20
308.15	0.3746	1673	20
308.15	0.4469	1688	20
308.15	0.5751	1693	20
308.15	0.7093	1691	20
308.15	0.852	1685	20
308.15	0.9413	1675	20
308.15	0.9719	1673	20
308.15	1	1661	20
313.15	0	1520	20
313.15	0.0201	1544	20
313.15	0.0391	1560	20
313.15	0.1028	1588	20
313.15	0.1462	1608	20
313.15	0.211	1637	20
313.15	0.3267	1672	20
313.15	0.3746	1684	20
313.15	0.4469	1702	20
313.15	0.5751	1708	20
313.15	0.7093	1704	20
313.15	0.852	1697	20
313.15	0.9413	1684	20
313.15	0.9719	1682	20
313.15	1	1664	20

System: N-methylpyrrolidone + trimethylammonium dihydrogen phosphate; phases: Liquid
Fixed: Pressure, kPa = 101
Property: Mass density, kg/m3 (Liquid); method: Vibrating tube method
Temperature, K	Mole fraction of trimethylammonium dihydrogen phosphate	Mass density, kg/m3	uncertainty
298.15	0	1025.9	0.32
298.15	0.0201	1041.43	0.79
298.15	0.0391	1053.47	0.68
298.15	0.1028	1089.8	0.69
298.15	0.1462	1113.92	0.69
298.15	0.211	1148.18	0.65
298.15	0.3267	1196.88	0.66
298.15	0.3746	1213.72	0.64
298.15	0.4469	1236.58	0.63
298.15	0.5751	1270.11	0.64
298.15	0.7093	1297.11	0.66
298.15	0.852	1325.36	0.69
298.15	0.9413	1342.23	0.7
298.15	0.9719	1348.52	0.71
298.15	1	1353.61	0.69
303.15	0	1023.74	0.32
303.15	0.0201	1034.74	0.65
303.15	0.0391	1045.35	0.67
303.15	0.1028	1081.42	0.68
303.15	0.1462	1104.62	0.66
303.15	0.211	1136.57	0.63
303.15	0.3267	1183.7	0.65
303.15	0.3746	1200.24	0.62
303.15	0.4469	1223.4	0.62
303.15	0.5751	1257.32	0.64
303.15	0.7093	1286.38	0.65
303.15	0.852	1317.91	0.69
303.15	0.9413	1337.6	0.7
303.15	0.9719	1344.48	0.71
303.15	1	1350.62	0.68
308.15	0	1019.25	0.32
308.15	0.0201	1028.37	0.59
308.15	0.0391	1038.12	0.65
308.15	0.1028	1073.87	0.66
308.15	0.1462	1095.84	0.64
308.15	0.211	1126.55	0.61
308.15	0.3267	1173.1	0.63
308.15	0.3746	1189.72	0.61
308.15	0.4469	1213.08	0.61
308.15	0.5751	1248.1	0.63
308.15	0.7093	1279.47	0.65
308.15	0.852	1311.88	0.68
308.15	0.9413	1332.36	0.7
308.15	0.9719	1339.9	0.72
308.15	1	1347.59	0.68
313.15	0	1014.74	0.31
313.15	0.0201	1023.28	0.55
313.15	0.0391	1031.97	0.61
313.15	0.1028	1065.17	0.63
313.15	0.1462	1086.37	0.62
313.15	0.211	1116.83	0.61
313.15	0.3267	1161.79	0.62
313.15	0.3746	1178.19	0.6
313.15	0.4469	1201.94	0.61
313.15	0.5751	1237.68	0.63
313.15	0.7093	1270.77	0.65
313.15	0.852	1305.61	0.68
313.15	0.9413	1327.25	0.7
313.15	0.9719	1335.1	0.73
313.15	1	1344.53	0.68

System: N-methylpyrrolidone + trimethylammonium hydrogen sulfate; phases: Liquid
Fixed: Pressure, kPa = 101
Property: Viscosity, Pa*s (Liquid); method: Vibrating wire viscometry
Temperature, K	Mole fraction of trimethylammonium hydrogen sulfate	Viscosity, Pa*s	uncertainty
298.15	0	0.00166	0.0001
298.15	0.0183	0.00272	0.00018
298.15	0.0369	0.00399	0.00025
298.15	0.0964	0.00659	0.0004
298.15	0.138	0.00837	0.00051
298.15	0.2014	0.0105	0.0006
298.15	0.3115	0.0121	0.0007
298.15	0.3587	0.0122	0.0007
298.15	0.4311	0.0119	0.0007
298.15	0.5579	0.0103	0.0006
298.15	0.6955	0.00834	0.0005
298.15	0.775	0.00725	0.00044
298.15	0.843	0.00605	0.00037
298.15	0.9375	0.00539	0.00033
298.15	0.97	0.00524	0.00032
298.15	1	0.0051	0.00031
303.15	0	0.00149	9e-05
303.15	0.0183	0.00202	0.00013
303.15	0.0369	0.0029	0.00018
303.15	0.0964	0.00522	0.00032
303.15	0.138	0.00683	0.00041
303.15	0.2014	0.00856	0.00052
303.15	0.3115	0.00988	0.0006
303.15	0.3587	0.00993	0.0006
303.15	0.4311	0.00966	0.00058
303.15	0.5579	0.00828	0.0005
303.15	0.6955	0.0068	0.00041
303.15	0.775	0.00601	0.00036
303.15	0.843	0.00507	0.00031
303.15	0.9375	0.00466	0.00028
303.15	0.97	0.00459	0.00028
303.15	1	0.00448	0.00027
308.15	0	0.00139	8e-05
308.15	0.0183	0.00191	0.00012
308.15	0.0369	0.00248	0.00015
308.15	0.0964	0.00455	0.00028
308.15	0.138	0.00568	0.00034
308.15	0.2014	0.00718	0.00043
308.15	0.3115	0.00838	0.00051
308.15	0.3587	0.00848	0.00051
308.15	0.4311	0.00826	0.0005
308.15	0.5579	0.00719	0.00043
308.15	0.6955	0.00589	0.00036
308.15	0.775	0.00525	0.00032
308.15	0.843	0.0044	0.00027
308.15	0.9375	0.00428	0.00026
308.15	0.97	0.00401	0.00024
308.15	1	0.00394	0.00024
313.15	0	0.00131	8e-05
313.15	0.0183	0.00145	9e-05
313.15	0.0369	0.00176	0.00011
313.15	0.0964	0.00352	0.00021
313.15	0.138	0.00479	0.00029
313.15	0.2014	0.00619	0.00037
313.15	0.3115	0.00709	0.00043
313.15	0.3587	0.00714	0.00043
313.15	0.4311	0.00699	0.00042
313.15	0.5579	0.00615	0.00037
313.15	0.6955	0.0047	0.00028
313.15	0.775	0.00399	0.00024
313.15	0.843	0.00352	0.00021
313.15	0.9375	0.00335	0.0002
313.15	0.97	0.00323	0.0002
313.15	1	0.00316	0.00019

System: N-methylpyrrolidone + trimethylammonium hydrogen sulfate; phases: Liquid
Fixed: Pressure, kPa = 101
Property: Speed of sound, m/s (Liquid); method: ultrasonic interferometer
Temperature, K	Mole fraction of trimethylammonium hydrogen sulfate	Speed of sound, m/s	uncertainty
298.15	0	1572	20
298.15	0.0183	1572	20
298.15	0.0369	1573	20
298.15	0.0964	1576	20
298.15	0.138	1578	20
298.15	0.2014	1580	20
298.15	0.3115	1584	20
298.15	0.3587	1586	20
298.15	0.4311	1588	20
298.15	0.5579	1590	20
298.15	0.6955	1591	20
298.15	0.775	1584	20
298.15	0.843	1581	20
298.15	0.9375	1573	20
298.15	0.97	1566	20
298.15	1	1564	20
303.15	0	1552	20
303.15	0.0183	1552	20
303.15	0.0369	1553	20
303.15	0.0964	1556	20
303.15	0.138	1558	20
303.15	0.2014	1562	20
303.15	0.3115	1568	20
303.15	0.3587	1571	20
303.15	0.4311	1573	20
303.15	0.5579	1577	20
303.15	0.6955	1575	20
303.15	0.775	1572	20
303.15	0.843	1571	20
303.15	0.9375	1567	20
303.15	0.97	1563	20
303.15	1	1560	20
308.15	0	1528	20
308.15	0.0183	1529	20
308.15	0.0369	1530	20
308.15	0.0964	1534	20
308.15	0.138	1536	20
308.15	0.2014	1539	20
308.15	0.3115	1545	20
308.15	0.3587	1549	20
308.15	0.4311	1553	20
308.15	0.5579	1560	20
308.15	0.6955	1561	20
308.15	0.775	1560	20
308.15	0.843	1559	20
308.15	0.9375	1558	20
308.15	0.97	1557	20
308.15	1	1556	20
313.15	0	1520	20
313.15	0.0183	1521	20
313.15	0.0369	1523	20
313.15	0.0964	1526	20
313.15	0.138	1528	20
313.15	0.2014	1530	20
313.15	0.3115	1539	20
313.15	0.3587	1541	20
313.15	0.4311	1545	20
313.15	0.5579	1550	20
313.15	0.6955	1551	20
313.15	0.775	1550	20
313.15	0.843	1553	20
313.15	0.9375	1552	20
313.15	0.97	1552	20
313.15	1	1552	20

System: N-methylpyrrolidone + trimethylammonium hydrogen sulfate; phases: Liquid
Fixed: Pressure, kPa = 101
Property: Mass density, kg/m3 (Liquid); method: Vibrating tube method
Temperature, K	Mole fraction of trimethylammonium hydrogen sulfate	Mass density, kg/m3	uncertainty
298.15	0	1025.9	0.3
298.15	0.0183	1041.67	0.81
298.15	0.0369	1053.11	0.67
298.15	0.0964	1086.47	0.64
298.15	0.138	1103.99	0.57
298.15	0.2014	1128.96	0.54
298.15	0.3115	1160.07	0.54
298.15	0.3587	1170.49	0.54
298.15	0.4311	1187.05	0.55
298.15	0.5579	1214.39	0.61
298.15	0.6955	1257.13	0.71
298.15	0.775	1295.34	0.83
298.15	0.843	1334.58	0.96
298.15	0.9375	1403.82	1.12
298.15	0.97	1439.41	1.3
298.15	1	1467.58	0.83
303.15	0	1023.74	0.32
303.15	0.0183	1037.3	0.74
303.15	0.0369	1048.09	0.65
303.15	0.0964	1080.22	0.63
303.15	0.138	1098.35	0.57
303.15	0.2014	1122.72	0.54
303.15	0.3115	1154.59	0.53
303.15	0.3587	1161.24	0.51
303.15	0.4311	1177.45	0.54
303.15	0.5579	1204.95	0.59
303.15	0.6955	1247.15	0.67
303.15	0.775	1283.75	0.8
303.15	0.843	1321.99	0.93
303.15	0.9375	1389.78	1.08
303.15	0.97	1426.11	1.42
303.15	1	1463.56	0.82
308.15	0	1019.25	0.32
308.15	0.0183	1029.88	0.68
308.15	0.0369	1041.19	0.65
308.15	0.0964	1073.31	0.63
308.15	0.138	1091.47	0.56
308.15	0.2014	1115.24	0.53
308.15	0.3115	1146.54	0.53
308.15	0.3587	1155.39	0.51
308.15	0.4311	1170.29	0.53
308.15	0.5579	1196.63	0.58
308.15	0.6955	1239.34	0.66
308.15	0.775	1273.99	0.79
308.15	0.843	1315.25	0.95
308.15	0.9375	1383.15	1.06
308.15	0.97	1417.02	1.49
308.15	1	1463.5	0.82
313.15	0	1014.74	0.31
313.15	0.0183	1024.27	0.64
313.15	0.0369	1035.08	0.64
313.15	0.0964	1066.52	0.62
313.15	0.138	1083.97	0.56
313.15	0.2014	1107.81	0.52
313.15	0.3115	1135.87	0.52
313.15	0.3587	1145.43	0.5
313.15	0.4311	1157.43	0.52
313.15	0.5579	1185.37	0.56
313.15	0.6955	1225.55	0.65
313.15	0.775	1260.83	0.76
313.15	0.843	1295.67	0.93
313.15	0.9375	1369.46	1.1
313.15	0.97	1404.25	1.57
313.15	1	1455.63	0.82

System: N-methylpyrrolidone + triethylammonium dihydrogen phosphate; phases: Liquid
Fixed: Pressure, kPa = 101
Property: Viscosity, Pa*s (Liquid); method: Vibrating wire viscometry
Temperature, K	Mole fraction of triethylammonium dihydrogen phosphate	Viscosity, Pa*s	uncertainty
298.15	0	0.00166	0.0001
298.15	0.0115	0.00195	0.00012
298.15	0.0257	0.00223	0.00014
298.15	0.0702	0.0025	0.00015
298.15	0.0995	0.00322	0.0002
298.15	0.1498	0.00442	0.00027
298.15	0.2409	0.00612	0.00037
298.15	0.282	0.00652	0.00039
298.15	0.3482	0.00712	0.00043
298.15	0.4709	0.01071	0.00065
298.15	0.6161	0.01712	0.00103
298.15	0.6975	0.0229	0.00138
298.15	0.7906	0.0315	0.0019
298.15	0.9135	0.04702	0.00284
298.15	0.9579	0.05391	0.00325
298.15	1	0.06431	0.00388
303.15	0	0.00149	9e-05
303.15	0.0115	0.00097	6e-05
303.15	0.0257	0.00124	8e-05
303.15	0.0702	0.00249	0.00015
303.15	0.0995	0.00317	0.00019
303.15	0.1498	0.0038	0.00023
303.15	0.2409	0.00527	0.00032
303.15	0.282	0.00555	0.00034
303.15	0.3482	0.00653	0.00039
303.15	0.4709	0.00832	0.0005
303.15	0.6161	0.01352	0.00082
303.15	0.6975	0.0189	0.00114
303.15	0.7906	0.02691	0.00163
303.15	0.9135	0.04133	0.0025
303.15	0.9579	0.04931	0.00298
303.15	1	0.0571	0.00344
308.15	0	0.00139	8e-05
308.15	0.0115	0.00107	7e-05
308.15	0.0257	0.00105	7e-05
308.15	0.0702	0.00197	0.00012
308.15	0.0995	0.00257	0.00016
308.15	0.1498	0.00291	0.00018
308.15	0.2409	0.00413	0.00025
308.15	0.282	0.00419	0.00025
308.15	0.3482	0.00505	0.00031
308.15	0.4709	0.00642	0.00039
308.15	0.6161	0.011	0.00066
308.15	0.6975	0.01583	0.00096
308.15	0.7906	0.02302	0.00139
308.15	0.9135	0.03592	0.00217
308.15	0.9579	0.04241	0.00256
308.15	1	0.04953	0.00299
313.15	0	0.00131	8e-05
313.15	0.0115	0.00161	0.0001
313.15	0.0257	0.00137	8e-05
313.15	0.0702	0.00148	9e-05
313.15	0.0995	0.00181	0.00011
313.15	0.1498	0.00188	0.00011
313.15	0.2409	0.00195	0.00012
313.15	0.282	0.0025	0.00015
313.15	0.3482	0.00299	0.00018
313.15	0.4709	0.00442	0.00027
313.15	0.6161	0.00818	0.00049
313.15	0.6975	0.01152	0.0007
313.15	0.7906	0.0172	0.00104
313.15	0.9135	0.0283	0.00171
313.15	0.9579	0.03332	0.00201
313.15	1	0.03831	0.00231

System: N-methylpyrrolidone + triethylammonium dihydrogen phosphate; phases: Liquid
Fixed: Pressure, kPa = 101
Property: Speed of sound, m/s (Liquid); method: ultrasonic interferometer
Temperature, K	Mole fraction of triethylammonium dihydrogen phosphate	Speed of sound, m/s	uncertainty
298.15	0	1572	20
298.15	0.0115	1574	20
298.15	0.0257	1580	20
298.15	0.0702	1602	20
298.15	0.0995	1624	20
298.15	0.1498	1657	20
298.15	0.2409	1711	20
298.15	0.282	1735	20
298.15	0.3482	1763	20
298.15	0.4709	1806	20
298.15	0.6161	1831	20
298.15	0.6975	1836	20
298.15	0.7906	1829	20
298.15	0.9135	1817	20
298.15	0.9579	1809	20
298.15	1	1794	20
303.15	0	1552	20
303.15	0.0115	1558	20
303.15	0.0257	1570	20
303.15	0.0702	1595	20
303.15	0.0995	1620	20
303.15	0.1498	1656	20
303.15	0.2409	1706	20
303.15	0.282	1719	20
303.15	0.3482	1753	20
303.15	0.4709	1796	20
303.15	0.6161	1820	20
303.15	0.6975	1826	20
303.15	0.7906	1819	20
303.15	0.9135	1804	20
303.15	0.9579	1791	20
303.15	1	1769	20
308.15	0	1528	20
308.15	0.0115	1539	20
308.15	0.0257	1544	20
308.15	0.0702	1577	20
308.15	0.0995	1600	20
308.15	0.1498	1636	20
308.15	0.2409	1689	20
308.15	0.282	1711	20
308.15	0.3482	1744	20
308.15	0.4709	1789	20
308.15	0.6161	1816	20
308.15	0.6975	1819	20
308.15	0.7906	1813	20
308.15	0.9135	1788	20
308.15	0.9579	1769	20
308.15	1	1757	20
313.15	0	1520	20
313.15	0.0115	1540	20
313.15	0.0257	1552	20
313.15	0.0702	1576	20
313.15	0.0995	1594	20
313.15	0.1498	1630	20
313.15	0.2409	1685	20
313.15	0.282	1708	20
313.15	0.3482	1737	20
313.15	0.4709	1785	20
313.15	0.6161	1808	20
313.15	0.6975	1810	20
313.15	0.7906	1804	20
313.15	0.9135	1772	20
313.15	0.9579	1758	20
313.15	1	1730	20

System: N-methylpyrrolidone + triethylammonium dihydrogen phosphate; phases: Liquid
Fixed: Pressure, kPa = 101
Property: Mass density, kg/m3 (Liquid); method: Vibrating tube method
Temperature, K	Mole fraction of triethylammonium dihydrogen phosphate	Mass density, kg/m3	uncertainty
298.15	0	1025.9	0.32
298.15	0.0115	1032	0.53
298.15	0.0257	1036.63	0.43
298.15	0.0702	1047.93	0.43
298.15	0.0995	1054.84	0.42
298.15	0.1498	1065.79	0.41
298.15	0.2409	1081.01	0.41
298.15	0.282	1086.8	0.41
298.15	0.3482	1094.7	0.41
298.15	0.4709	1105.46	0.41
298.15	0.6161	1114.03	0.42
298.15	0.6975	1117.42	0.42
298.15	0.7906	1120.24	0.42
298.15	0.9135	1123.51	0.43
298.15	0.9579	1124.64	0.43
298.15	1	1125.7	0.43
303.15	0	1023.74	0.32
303.15	0.0115	1027.87	0.48
303.15	0.0257	1032.6	0.43
303.15	0.0702	1044.24	0.43
303.15	0.0995	1051.16	0.41
303.15	0.1498	1061.32	0.4
303.15	0.2409	1076.95	0.41
303.15	0.282	1083.03	0.41
303.15	0.3482	1090.71	0.4
303.15	0.4709	1101.42	0.41
303.15	0.6161	1110.51	0.42
303.15	0.6975	1114.2	0.42
303.15	0.7906	1117.34	0.42
303.15	0.9135	1121.34	0.42
303.15	0.9579	1123.03	0.43
303.15	1	1124.68	0.43
308.15	0	1019.25	0.32
308.15	0.0115	1023.39	0.47
308.15	0.0257	1028.04	0.43
308.15	0.0702	1039.93	0.42
308.15	0.0995	1046.49	0.41
308.15	0.1498	1057.16	0.4
308.15	0.2409	1072.56	0.41
308.15	0.282	1078.25	0.4
308.15	0.3482	1086.21	0.4
308.15	0.4709	1097.31	0.41
308.15	0.6161	1106.86	0.41
308.15	0.6975	1111.06	0.42
308.15	0.7906	1114.71	0.42
308.15	0.9135	1119.77	0.42
308.15	0.9579	1121.61	0.43
308.15	1	1123.71	0.42
313.15	0	1014.74	0.31
313.15	0.0115	1018.9	0.46
313.15	0.0257	1023.44	0.42
313.15	0.0702	1034.5	0.42
313.15	0.0995	1041.32	0.41
313.15	0.1498	1052.28	0.4
313.15	0.2409	1067.96	0.41
313.15	0.282	1074.06	0.4
313.15	0.3482	1081.89	0.4
313.15	0.4709	1093.3	0.4
313.15	0.6161	1103.08	0.41
313.15	0.6975	1107.89	0.41
313.15	0.7906	1111.88	0.42
313.15	0.9135	1117.73	0.42
313.15	0.9579	1119.92	0.42
313.15	1	1122.37	0.42
