Measured thermophysical data. Enthalpies of formation and lattice enthalpies of alkaline metal acetates
Source: Thermochim. Acta, 2005, 10.1016/j.tca.2004.11.004
Compound 1: acetic acid, C2H4O2, InChI=1S/C2H4O2/c1-2(3)4/h1H3,(H,3,4)
Compound 2: hydrogen chloride, ClH, InChI=1S/ClH/h1H
Compound 3: sodium chloride, ClNa, InChI=1S/ClH.Na/h1H;/q;+1/p-1
Compound 4: water, H2O, InChI=1S/H2O/h1H2
Compound 5: lithium chloride, ClLi, InChI=1S/ClH.Li/h1H;/q;+1/p-1
Compound 6: potassium chloride, ClK, InChI=1S/ClH.K/h1H;/q;+1/p-1
Compound 7: rubidium chloride, ClRb, InChI=1S/ClH.Rb/h1H;/q;+1/p-1
Compound 8: cesium chloride, ClCs, InChI=1S/ClH.Cs/h1H;/q;+1/p-1
Compound 9: lithium acetate, C2H3LiO2, InChI=1S/C2H4O2.Li/c1-2(3)4;/h1H3,(H,3,4);/q;+1/p-1
Compound 10: sodium ethanoate, C2H3NaO2, InChI=1S/C2H4O2.Na/c1-2(3)4;/h1H3,(H,3,4);/q;+1/p-1
Compound 11: potassium ethanoate, C2H3KO2, InChI=1S/C2H4O2.K/c1-2(3)4;/h1H3,(H,3,4);/q;+1/p-1
Compound 12: rubidium acetate, C2H3O2Rb, InChI=1S/C2H4O2.Rb/c1-2(3)4;/h1H3,(H,3,4);/q;+1/p-1
Compound 13: cesium acetate, C2H3CsO2, InChI=1S/C2H4O2.Cs/c1-2(3)4;/h1H3,(H,3,4);/q;+1/p-1

System: lithium acetate; phases: Crystal, Liquid, Air at 1 atmosphere
Property: Molar enthalpy of transition or fusion, kJ/mol (Crystal); method: DSC:FP
Molar enthalpy of transition or fusion, kJ/mol	uncertainty
12.6	0.4

System: lithium acetate; phases: Crystal, Liquid, Air at 1 atmosphere
Property: Normal melting temperature, K (Crystal); method: DTA:FP
Normal melting temperature, K	uncertainty
556.6	0.4

System: sodium ethanoate; phases: Crystal, Liquid, Air at 1 atmosphere
Property: Molar enthalpy of transition or fusion, kJ/mol (Crystal); method: DSC:FP
Molar enthalpy of transition or fusion, kJ/mol	uncertainty
17.4	0.4

System: sodium ethanoate; phases: Crystal, Liquid, Air at 1 atmosphere
Property: Normal melting temperature, K (Crystal); method: DTA:FP
Normal melting temperature, K	uncertainty
602.5	0.4

System: potassium ethanoate; phases: Crystal, Liquid, Air at 1 atmosphere
Property: Molar enthalpy of transition or fusion, kJ/mol (Crystal); method: DSC:FP
Molar enthalpy of transition or fusion, kJ/mol	uncertainty
12	0.4

System: potassium ethanoate; phases: Crystal, Liquid, Air at 1 atmosphere
Property: Normal melting temperature, K (Crystal); method: DTA:FP
Normal melting temperature, K	uncertainty
578.4	0.4

System: rubidium acetate; phases: Crystal, Liquid, Air at 1 atmosphere
Property: Molar enthalpy of transition or fusion, kJ/mol (Crystal); method: DSC:FP
Molar enthalpy of transition or fusion, kJ/mol	uncertainty
8.9	0.8

System: rubidium acetate; phases: Crystal, Liquid, Air at 1 atmosphere
Property: Normal melting temperature, K (Crystal); method: DTA:FP
Normal melting temperature, K	uncertainty
513.6	0.4

System: cesium acetate; phases: Crystal, Liquid, Air at 1 atmosphere
Property: Molar enthalpy of transition or fusion, kJ/mol (Crystal); method: DSC:FP
Molar enthalpy of transition or fusion, kJ/mol	uncertainty
11	0.4

System: cesium acetate; phases: Crystal, Liquid, Air at 1 atmosphere
Property: Normal melting temperature, K (Crystal); method: DTA:FP
Normal melting temperature, K	uncertainty
464.7	0.4

Reaction: 1 acetic acid + -1 sodium ethanoate + -1 hydrogen chloride + 1 sodium chloride
Property: Molar enthalpy of reaction, kJ/mol
-17.85

Reaction: 1 acetic acid + -1 lithium acetate + 1 lithium chloride + -1 hydrogen chloride
Property: Molar enthalpy of reaction, kJ/mol
15.09

Reaction: 1 acetic acid + -1 potassium ethanoate + 1 potassium chloride + -1 hydrogen chloride
Property: Molar enthalpy of reaction, kJ/mol
-32.09

Reaction: 1 acetic acid + -1 rubidium acetate + -1 hydrogen chloride + 1 rubidium chloride
Property: Molar enthalpy of reaction, kJ/mol
-30.74

Reaction: 1 acetic acid + -1 cesium acetate + -1 hydrogen chloride + 1 cesium chloride
Property: Molar enthalpy of reaction, kJ/mol
-34.64
