Measured thermophysical data. Thermodynamic properties of BaCeO3 and BaZrO3 at low temperatures
Source: Thermochim. Acta, 2006, 10.1016/j.tca.2006.01.020
Compound 1: barium zirconium(IV) oxide, BaO3Zr, InChI=1S/Ba.3O.Zr/q+2;3*-2;+4, purity 99%
Compound 2: barium cerium(IV) oxide, BaCeO3, InChI=1S/Ba.Ce.3O/q+2;+4;3*-2, purity 99%

System: barium zirconium(IV) oxide; phases: Crystal
Fixed: Pressure, kPa = 101.325
Property: Molar heat capacity at constant pressure, J/K/mol (Crystal); method: Small (less than 1 g) adiabatic calorimetry
Temperature, K	Molar heat capacity at constant pressure, J/K/mol	uncertainty
1.659	0.00346	0.01554
1.662	0.00357	0.01555
1.664	0.00348	0.01554
1.666	0.00351	0.01554
1.671	0.00353	0.01554
1.675	0.00351	0.01554
1.677	0.00363	0.01555
1.683	0.00349	0.01554
1.689	0.00342	0.01554
1.699	0.00335	0.01554
1.722	0.00326	0.01554
1.735	0.00341	0.01554
1.744	0.00345	0.01554
1.763	0.00333	0.01554
2.098	0.00292	0.01554
2.107	0.00345	0.01554
2.124	0.00373	0.01555
2.15	0.0036	0.0155
2.163	0.00346	0.01554
2.173	0.00343	0.01554
2.185	0.00389	0.01555
2.198	0.00355	0.01554
2.209	0.00288	0.01553
2.216	0.00344	0.01554
2.228	0.00346	0.01554
2.261	0.00391	0.01555
2.281	0.0035	0.0155
2.325	0.00371	0.01555
2.372	0.0038	0.0155
2.389	0.00365	0.01555
2.42	0.00384	0.01555
2.515	0.00414	0.01555
2.651	0.00484	0.01556
2.824	0.00516	0.01557
2.831	0.00564	0.01557
2.919	0.00559	0.01557
2.952	0.00633	0.01558
3.106	0.00618	0.01558
3.116	0.00718	0.0156
3.242	0.00714	0.0156
3.366	0.00794	0.01561
3.538	0.00865	0.01562
3.656	0.00903	0.01562
3.873	0.00964	0.01563
3.987	0.0104	0.0156
4.096	0.0108	0.0156
4.199	0.0112	0.0157
4.473	0.0129	0.0157
4.617	0.0156	0.0157
4.702	0.0156	0.0157
4.777	0.0158	0.0157
4.851	0.0176	0.0157
4.929	0.0183	0.0157
5.008	0.02	0.0158
5.086	0.019	0.0158
5.165	0.021	0.0158
5.246	0.0226	0.0158
5.329	0.0234	0.0158
5.41	0.0243	0.0158
5.489	0.0216	0.0158
5.545	0.0289	0.0159
5.64	0.0269	0.0159
5.717	0.0288	0.0159
5.79	0.0301	0.0159
5.87	0.0306	0.0159
5.93	0.0325	0.0159
6.02	0.0336	0.016
6.08	0.0338	0.016
6.19	0.0357	0.016
6.27	0.0366	0.016
6.36	0.0388	0.016
6.45	0.0407	0.016
6.54	0.0424	0.0161
6.62	0.044	0.0161
6.72	0.0458	0.0161
6.8	0.0494	0.0162
6.9	0.0501	0.0162
6.98	0.0511	0.0162
7.08	0.0539	0.0162
7.16	0.0547	0.0162
7.26	0.0547	0.0162
7.36	0.0593	0.0163
7.47	0.0629	0.0163
7.56	0.0638	0.0163
7.67	0.0662	0.0164
7.77	0.07	0.0164
7.89	0.0767	0.0165
7.98	0.076	0.0165
8.1	0.0841	0.0166
8.2	0.083	0.0166
8.32	0.091	0.0167
8.43	0.0913	0.0167
8.55	0.101	0.017
8.67	0.102	0.017
8.8	0.112	0.017
8.91	0.111	0.017
9.05	0.127	0.017
9.12	0.121	0.017
9.26	0.138	0.017
9.33	0.13	0.017
9.47	0.148	0.017
9.6	0.144	0.017
9.75	0.163	0.018
9.88	0.159	0.018
10.01	0.17	0.018
10.18	0.188	0.018
10.31	0.186	0.018
10.47	0.208	0.018
10.6	0.205	0.018
10.76	0.228	0.018
10.94	0.235	0.018
11.09	0.245	0.019
11.27	0.27	0.019
11.45	0.278	0.019
11.62	0.29	0.019
11.8	0.317	0.019
12	0.341	0.02
12.15	0.34	0.02
12.35	0.385	0.02
12.54	0.383	0.02
12.72	0.416	0.02
12.92	0.449	0.021
13.12	0.466	0.021
13.32	0.5	0.021
13.53	0.54	0.022
13.73	0.561	0.022
13.93	0.599	0.022
14.13	0.628	0.023
14.34	0.692	0.023
14.54	0.702	0.024
14.75	0.772	0.024
14.97	0.803	0.025
15.18	0.858	0.025
15.39	0.892	0.026
15.59	0.951	0.026
15.81	1.02	0.03
16.03	1.06	0.03
16.24	1.13	0.03
16.46	1.2	0.03
16.68	1.25	0.03
16.9	1.32	0.03
17.12	1.4	0.03
17.34	1.46	0.03
17.56	1.54	0.03
17.79	1.63	0.03
18.03	1.72	0.04
18.26	1.77	0.04
18.47	1.87	0.04
18.69	1.97	0.04
18.92	2.07	0.04
19.15	2.15	0.04
19.38	2.27	0.04
19.62	2.37	0.04
19.86	2.44	0.04
20.07	2.59	0.05
20.32	2.69	0.05
20.56	2.75	0.05
20.77	2.91	0.05
21	3.03	0.05
21.25	3.1	0.05
21.47	3.28	0.05
21.71	3.37	0.05
21.95	3.48	0.06
22.17	3.66	0.06
22.41	3.78	0.06
22.67	3.87	0.06
22.9	3.98	0.06
23.11	4.17	0.06
23.34	4.32	0.06
23.59	4.41	0.07
23.83	4.56	0.07
24.06	4.76	0.07
24.31	4.87	0.07
24.56	4.97	0.07
24.78	5.12	0.07
25	5.34	0.08
25.24	5.49	0.08
25.5	5.6	0.08
25.74	5.74	0.08
25.96	5.93	0.08
26.19	6.12	0.08
26.44	6.29	0.09
26.7	6.36	0.09
26.94	6.51	0.09
27.15	6.76	0.09
27.39	6.91	0.09
27.68	6.91	0.09
27.72	7.04	0.09
28.07	7.4	0.1
28.32	7.57	0.1
28.59	7.63	0.1
28.82	7.79	0.1
29.03	8.03	0.1
29.26	8.25	0.1
30.07	8.73	0.13
30.34	8.73	0.13
30.45	8.93	0.14
31.03	9.36	0.14
31.64	9.8	0.14
32.28	10.4	0.2
32.94	10.9	0.2
33.63	11.4	0.2
34.33	11.9	0.2
35.05	12.4	0.2
35.78	13	0.2
36.53	13.5	0.2
37.28	14.1	0.2
38.03	14.7	0.2
38.8	15.3	0.2
39.58	15.9	0.2
40.37	16.4	0.2
41.18	17.1	0.2
42	17.7	0.2
42.84	18.3	0.2
43.69	19	0.2
44.56	19.6	0.2
45.45	20.2	0.3
46.36	21	0.3
47.29	21.6	0.3
48.24	22.3	0.3
49.21	23	0.3
50.25	23.7	0.3
51.26	24.4	0.3
52.27	25.2	0.3
53.27	25.9	0.3
54.27	26.6	0.3
55.27	27.3	0.3
56.27	28.1	0.3
57.27	28.8	0.3
58.26	29.5	0.3
59.25	30.2	0.4
60.25	31	0.4
61.24	31.6	0.4
62.3	32.5	0.4
63.25	33.2	0.4
64.23	33.8	0.4
65.21	34.5	0.4
66.2	35.2	0.4
67.19	35.9	0.4
68.19	36.2	0.4
69.19	36.9	0.4
71.18	38.3	0.4
72.18	38.8	0.4
73.19	39.5	0.5
74.19	40	0.5
75.18	40.7	0.5
76.18	41.3	0.5
77.18	42	0.5
78.18	42.5	0.5
79.18	43.1	0.5
80.18	43.6	0.5
81.18	44.3	0.5
82.18	44.7	0.5
83.18	45.1	0.5
84.17	45.7	0.5
85.17	46.3	0.5
86.17	46.7	0.5
87.17	47.2	0.5
87.74	46.8	0.5
89.5	48.5	0.5
91.29	49.3	0.6
93.12	50.1	0.6
94.99	51.3	0.6
96.9	52.1	0.6
98.84	52.7	0.6
100.82	53.7	0.6
102.81	54.6	0.6
104.8	55.6	0.6
106.79	56.6	0.6
108.78	57.5	0.7
110.77	58.4	0.7
112.76	59.4	0.7
114.75	60.3	0.7
116.74	61.2	0.7
118.72	62	0.7
120.69	62.8	0.7
122.66	63.7	0.7
124.65	64.5	0.7
126.64	65.3	0.7
128.63	66.1	0.7
130.62	66.8	0.7
132.27	67.5	0.8
133.6	68	0.8
134.94	68.5	0.8
136.28	69	0.8
137.64	69.5	0.8
139.02	70	0.8
140.41	70.1	0.8
141.81	70.6	0.8
143.23	71.1	0.8
144.66	71.7	0.8
146.11	72.2	0.8
147.57	72.7	0.8
149.04	73.2	0.8
150.53	73.9	0.8
152.03	74.3	0.8
153.55	74.9	0.8
155.09	75.3	0.8
156.64	75.9	0.8
158.2	76.3	0.8
159.79	76.9	0.9
161.38	77.3	0.9
163	77.9	0.9
164.63	78.4	0.9
166.26	78.9	0.9
167.93	79.4	0.9
169.61	79.9	0.9
171.3	80.4	0.9
173.01	81	0.9
174.74	81.4	0.9
176.49	82	0.9
178.25	82.3	0.9
180.03	83	0.9
181.83	83.5	0.9
183.65	84.1	0.9
185.48	84.7	0.9
187.34	85.1	0.9
189.21	85.5	0.9
191.1	86.2	0.9
193	86.7	1
194.93	87	1
196.88	87.9	1
198.84	88	1
200.83	88.7	1
202.81	89	1
204.8	89.7	1
206.78	90.5	1
208.76	90.8	1
210.75	91.3	1
212.73	92.4	1
214.71	91.7	1
216.7	92.1	1
218.69	92.5	1
220.66	93	1
222.65	93.4	1
224.62	94	1
226.6	94.3	1
228.58	94.9	1
230.56	95.7	1
232.54	95.8	1
234.52	95.9	1
236.49	96.5	1.1
238.47	96.6	1.1
240.44	97.1	1.1
242.41	97.6	1.1
244.39	97.6	1.1
246.36	98.4	1.1
248.33	98.2	1.1
250.31	98.9	1.1
252.27	99.4	1.1
254.25	99.7	1.1
256.22	99.7	1.1
258.19	99.8	1.1
260.16	100.3	1.1
262.12	100.7	1.1
264.08	100.7	1.1
266.04	101.8	1.1
268.01	102.2	1.1
269.99	101.6	1.1
271.94	102.6	1.1
273.9	103	1.1
275.86	103.2	1.1
277.83	103.3	1.1
279.79	103.8	1.1
281.74	104.6	1.1
283.71	105.2	1.1
285.68	105	1.1
287.63	105	1.1
289.59	105.2	1.1
291.54	107	1.2
293.51	106.2	1.2
295.49	107.4	1.2
297.42	106.6	1.2
299.39	106.6	1.2
301.32	107.9	1.2

System: barium zirconium(IV) oxide; phases: Crystal
Fixed: Pressure, kPa = 101.325
Property: Molar heat capacity at constant pressure, J/K/mol (Crystal); method: Small (less than 1 g) adiabatic calorimetry
Temperature, K	Molar heat capacity at constant pressure, J/K/mol	uncertainty
10	0.168	0.018
20	2.564	0.045
30	8.651	0.134
40	16.19	0.21
50	23.59	0.28
60	30.79	0.36
70	37.33	0.42
80	43.22	0.49
90	48.58	0.56
100	53.49	0.61
120	62.3	0.7
140	70.04	0.78
160	76.91	0.85
180	82.99	0.91
200	88.29	0.97
220	92.87	1.01
240	96.81	1.05
260	100.3	1.1
280	103.7	1.1
298.15	107	1.2
300	107.4	1.2

System: barium zirconium(IV) oxide; phases: Crystal
Fixed: Pressure, kPa = 101.325
Property: Molar enthalpy, kJ/mol (Crystal); method: Small (less than 1 g) adiabatic calorimetry
Temperature, K	Molar enthalpy, kJ/mol	uncertainty
10	-19.393	0.293
20	-19.373	0.254
30	-19.319	0.204
40	-19.194	0.203
50	-18.995	0.2
60	-18.724	0.197
70	-18.383	0.193
80	-17.98	0.189
90	-17.521	0.179
100	-17.011	0.173
120	-15.852	0.161
140	-14.527	0.147
160	-13.057	0.131
180	-11.457	0.115
200	-9.744	0.097
220	-7.933	0.08
240	-6.036	0.063
260	-4.066	0.048
280	-2.029	0.04
298.15	0	0.0596
300	0.07897	0.04673

System: barium zirconium(IV) oxide; phases: Crystal
Fixed: Pressure, kPa = 101.325
Property: Molar entropy, J/K/mol (Crystal); method: Small (less than 1 g) adiabatic calorimetry
Temperature, K	Molar entropy, J/K/mol	uncertainty
10	0.053	0.024
20	0.666	0.033
30	2.753	0.132
40	6.284	0.168
50	10.7	0.23
60	15.67	0.3
70	20.91	0.38
80	26.27	0.46
90	31.67	0.59
100	37.05	0.67
120	47.64	0.83
140	57.88	0.98
160	67.72	1.13
180	77.16	1.28
200	86.23	1.42
220	94.92	1.55
240	103.2	1.7
260	111.2	1.8
280	118.8	1.9
298.15	125.5	2
300	126.2	2

System: barium cerium(IV) oxide; phases: Crystal
Fixed: Pressure, kPa = 101.325
Property: Molar heat capacity at constant pressure, J/K/mol (Crystal); method: Small (less than 1 g) adiabatic calorimetry
Temperature, K	Molar heat capacity at constant pressure, J/K/mol	uncertainty
1.721	0.00113	0.01551
1.726	0.00106	0.01551
1.733	0.00113	0.01551
1.761	0.00102	0.01551
1.781	0.00108	0.01551
1.833	0.00116	0.01551
1.87	0.00103	0.01551
1.904	0.00103	0.01551
1.995	0.00167	0.01552
2.042	0.00152	0.01551
2.096	0.00138	0.01551
2.134	0.00153	0.01551
2.178	0.0019	0.01552
2.817	0.00505	0.01557
2.844	0.00578	0.01558
2.877	0.0056	0.01557
3.154	0.00691	0.01559
3.175	0.00697	0.01559
3.25	0.00798	0.01561
3.258	0.00871	0.01562
3.318	0.00829	0.01561
3.349	0.00913	0.01562
3.382	0.00944	0.01563
3.471	0.0093	0.01563
3.57	0.01	0.0156
3.673	0.0107	0.0156
3.834	0.0118	0.0157
3.983	0.0132	0.0157
4.14	0.0143	0.0157
4.241	0.0157	0.0157
4.384	0.0171	0.0157
4.454	0.0187	0.0158
4.608	0.0193	0.0158
4.68	0.0211	0.0158
4.756	0.0223	0.0158
4.835	0.0232	0.0158
4.911	0.0245	0.0158
4.992	0.026	0.0159
5.071	0.0274	0.0159
5.152	0.0284	0.0159
5.227	0.0294	0.0159
5.296	0.0316	0.0159
5.375	0.0321	0.0159
5.441	0.0353	0.016
5.536	0.0361	0.016
5.614	0.0388	0.016
5.697	0.0405	0.0161
5.78	0.0425	0.0161
5.861	0.0448	0.0161
5.946	0.0466	0.0161
6.034	0.0491	0.0162
6.119	0.0516	0.0162
6.209	0.0536	0.0162
6.297	0.0571	0.0163
6.366	0.057	0.0163
6.457	0.0616	0.0163
6.548	0.0639	0.0164
6.647	0.0675	0.0164
6.739	0.0705	0.0165
6.841	0.0743	0.0165
6.93	0.0778	0.0165
7.04	0.0831	0.0166
7.13	0.0857	0.0167
7.24	0.0907	0.0167
7.34	0.0935	0.0168
7.45	0.0993	0.0168
7.55	0.103	0.017
7.66	0.11	0.017
7.76	0.115	0.017
7.89	0.123	0.017
8	0.129	0.017
8.13	0.138	0.017
8.25	0.145	0.017
8.38	0.156	0.018
8.5	0.164	0.018
8.64	0.176	0.018
8.77	0.185	0.018
8.91	0.201	0.018
9.04	0.209	0.018
9.17	0.221	0.018
9.32	0.241	0.019
9.46	0.251	0.019
9.59	0.266	0.019
9.75	0.289	0.019
9.92	0.309	0.02
10.08	0.328	0.02
10.23	0.348	0.02
10.4	0.377	0.02
10.58	0.4	0.021
10.76	0.433	0.021
10.94	0.461	0.021
11.1	0.489	0.022
11.3	0.534	0.022
11.48	0.561	0.023
11.68	0.61	0.023
11.89	0.651	0.024
12.09	0.7	0.024
12.29	0.744	0.025
12.5	0.806	0.025
12.72	0.859	0.026
12.93	0.919	0.027
13.15	0.983	0.027
13.37	1.05	0.03
13.59	1.12	0.03
13.82	1.2	0.03
14.05	1.28	0.03
14.28	1.36	0.03
14.51	1.45	0.03
14.74	1.54	0.03
14.97	1.63	0.04
15.21	1.73	0.04
15.44	1.83	0.04
15.68	1.93	0.04
15.91	2.05	0.04
16.15	2.16	0.04
16.38	2.26	0.04
16.6	2.38	0.05
16.84	2.51	0.05
17.09	2.62	0.05
17.32	2.75	0.05
17.55	2.89	0.05
17.79	3.02	0.05
18.03	3.16	0.05
18.27	3.3	0.06
18.52	3.44	0.06
18.76	3.58	0.06
19	3.73	0.06
19.23	3.89	0.06
19.47	4.05	0.07
19.73	4.19	0.07
19.98	4.35	0.07
20.2	4.52	0.07
20.44	4.68	0.07
20.69	4.84	0.07
20.94	5	0.08
21.17	5.2	0.08
21.41	5.36	0.08
21.66	5.54	0.08
21.91	5.7	0.08
22.16	5.88	0.09
22.39	6.07	0.09
22.63	6.26	0.09
22.88	6.44	0.09
23.14	6.62	0.09
23.38	6.81	0.1
23.62	7	0.1
23.86	7.2	0.1
24.1	7.39	0.1
24.36	7.58	0.1
24.61	7.76	0.11
24.86	7.96	0.11
25.1	8.19	0.11
25.34	8.4	0.11
25.6	8.57	0.11
25.86	8.77	0.12
26.1	8.98	0.12
26.34	9.19	0.12
26.57	9.41	0.12
26.83	9.6	0.12
27.09	9.8	0.13
27.35	9.96	0.13
27.6	10.2	0.1
27.83	10.4	0.1
28.07	10.7	0.1
28.33	10.8	0.1
28.59	10.7	0.1
28.92	11.3	0.2
29.29	11.6	0.2
29.83	12.1	0.2
30.39	12.6	0.2
30.99	13.1	0.2
31.6	13.6	0.2
32.23	14.1	0.2
32.89	14.7	0.2
33.56	15.3	0.2
34.26	15.9	0.2
34.97	16.5	0.2
35.7	17.1	0.2
36.44	17.8	0.2
37.19	18.4	0.2
37.95	19.1	0.2
38.72	19.8	0.2
39.5	20.4	0.3
40.3	21.1	0.3
41.1	21.8	0.3
41.92	22.5	0.3
42.76	23.2	0.3
43.61	24	0.3
44.48	24.7	0.3
45.36	25.5	0.3
46.27	26.2	0.3
47.24	26.9	0.3
48.19	27.7	0.3
49.16	28.5	0.3
50.15	29.4	0.3
51.15	30.2	0.4
52.16	31	0.4
53.16	31.8	0.4
54.16	32.6	0.4
55.16	33.5	0.4
56.16	34.3	0.4
57.16	35.1	0.4
58.15	35.9	0.4
59.14	36.7	0.4
60.13	37.4	0.4
61.12	38.2	0.4
62.11	39	0.4
63.1	39.7	0.5
64.09	40.5	0.5
65.08	41.3	0.5
66.07	42	0.5
67.07	42.8	0.5
68.06	43.6	0.5
69.05	44.3	0.5
70.05	45	0.5
71.04	45.8	0.5
72.03	46.6	0.5
73.03	47.3	0.5
74.02	47.8	0.5
75.02	48.6	0.5
76.02	49.2	0.6
77.02	49.9	0.6
78.02	50.6	0.6
79.01	50.7	0.6
80.01	51.5	0.6
80.29	51	0.6
81.69	51.5	0.6
82.49	52	0.6
83.31	52.5	0.6
84.14	53.1	0.6
84.98	53.7	0.6
85.82	54.2	0.6
86.68	54.7	0.6
87.55	55.3	0.6
88.43	55.8	0.6
89.31	56.3	0.6
90.21	56.9	0.6
91.11	57.4	0.7
92.02	58	0.7
92.94	58.5	0.7
93.87	59.1	0.7
94.81	59.7	0.7
95.75	60.2	0.7
96.71	60.8	0.7
97.68	61.3	0.7
98.65	61.9	0.7
99.64	62.4	0.7
100.64	63	0.7
101.64	63.6	0.7
102.66	64.1	0.7
103.69	64.7	0.7
104.72	65.2	0.7
105.77	65.8	0.7
106.83	66.4	0.7
107.9	66.9	0.7
108.97	67.4	0.8
110.06	67.7	0.8
111.16	68.5	0.8
112.27	69.1	0.8
113.4	69.7	0.8
114.53	70.2	0.8
115.68	70.8	0.8
116.83	71.4	0.8
118	71.9	0.8
119.18	72.4	0.8
120.37	73	0.8
121.58	73.5	0.8
122.79	74	0.8
124.02	74.6	0.8
125.26	75.1	0.8
126.51	75.7	0.8
127.77	76.2	0.8
129.05	76.8	0.8
130.34	77.3	0.9
131.64	77.9	0.9
132.96	78.4	0.9
134.29	78.9	0.9
135.63	79.4	0.9
136.99	79.9	0.9
138.36	80.4	0.9
139.74	80.9	0.9
141.54	81.6	0.9
142.95	82.2	0.9
144.38	82.8	0.9
145.83	83.2	0.9
147.28	83.8	0.9
148.76	84.5	0.9
150.25	85	0.9
151.75	85.6	0.9
153.27	86.1	0.9
154.8	86.6	0.9
156.34	87.3	1
157.91	87.8	1
159.49	88.2	1
161.08	88.9	1
162.69	89.3	1
164.32	89.9	1
165.96	90.3	1
167.62	90.8	1
169.3	91.2	1
170.99	91.8	1
172.7	92.4	1
174.43	92.9	1
176.17	93.5	1
177.93	94	1
179.71	94.3	1
181.5	95.2	1
183.31	95.3	1
185.15	95.9	1
187	96.4	1.1
188.86	97.1	1.1
190.75	97.8	1.1
192.65	98	1.1
194.58	98.2	1.1
196.52	98.2	1.1
198.48	98.6	1.1
200.46	99.2	1.1
202.45	99.5	1.1
204.43	100	1.1
206.42	101	1.1
208.4	101.1	1.1
210.39	101.6	1.1
212.37	101.7	1.1
214.35	102.5	1.1
216.33	102.8	1.1
218.31	103.5	1.1
220.3	103.8	1.1
222.28	103.6	1.1
224.26	104.2	1.1
226.23	105.1	1.1
228.22	105	1.1
230.2	105.5	1.1
232.17	106.2	1.2
234.15	106.2	1.2
236.14	106.1	1.2
238.1	106.8	1.2
240.08	106.6	1.2
242.05	107.3	1.2
244.02	107.1	1.2
245.99	107.7	1.2
249.95	108.3	1.2
251.89	108.9	1.2
253.89	109.5	1.2
255.86	109.5	1.2
257.84	109.2	1.2
259.8	110.2	1.2
261.77	109.7	1.2
263.74	110.1	1.2
267.67	111	1.2
269.63	110.4	1.2
271.61	110.6	1.2
273.57	111.4	1.2
275.53	111.7	1.2
277.5	111.9	1.2
279.46	112.8	1.2
281.42	112.8	1.2
283.39	112	1.2
285.35	114	1.2
287.3	114.2	1.2
289.27	113.1	1.2
291.22	113.8	1.2
293.17	114.3	1.2
294.05	113.5	1.2
297.48	114.1	1.2
299.16	114.5	1.2

System: barium cerium(IV) oxide; phases: Crystal
Fixed: Pressure, kPa = 101.325
Property: Molar heat capacity at constant pressure, J/K/mol (Crystal); method: Small (less than 1 g) adiabatic calorimetry
Temperature, K	Molar heat capacity at constant pressure, J/K/mol	uncertainty
10	0.318	0.021
20	4.411	0.069
30	12.33	0.17
40	21.08	0.26
50	29.66	0.35
60	37.42	0.43
70	44.66	0.5
80	51.2	0.57
90	57.18	0.65
100	62.7	0.7
120	72.61	0.8
140	81.2	0.89
160	88.53	0.97
180	94.63	1.03
200	99.59	1.08
220	103.6	1.1
240	106.9	1.2
260	109.9	1.2
280	112.6	1.2
298.15	114.8	1.2
300	114.9	1.2

System: barium cerium(IV) oxide; phases: Crystal
Fixed: Pressure, kPa = 101.325
Property: Molar enthalpy, kJ/mol (Crystal); method: Small (less than 1 g) adiabatic calorimetry
Temperature, K	Molar enthalpy, kJ/mol	uncertainty
10	-21.903	0.331
20	-21.883	0.287
30	-21.802	0.231
40	-21.636	0.229
50	-21.386	0.226
60	-21.051	0.222
70	-20.639	0.217
80	-20.16	0.212
90	-19.618	0.201
100	-19.019	0.194
120	-17.664	0.18
140	-16.124	0.163
160	-14.426	0.145
180	-12.596	0.126
200	-10.656	0.107
220	-8.626	0.087
240	-6.523	0.067
260	-4.36	0.05
280	-2.142	0.04
298.15	0	0.0596
300	0.1302	0.0469

System: barium cerium(IV) oxide; phases: Crystal
Fixed: Pressure, kPa = 101.325
Property: Molar entropy, J/K/mol (Crystal); method: Small (less than 1 g) adiabatic calorimetry
Temperature, K	Molar entropy, J/K/mol	uncertainty
10	0.084	0.025
20	1.242	0.042
30	4.425	0.146
40	9.136	0.207
50	14.71	0.29
60	20.8	0.38
70	27.13	0.48
80	33.51	0.58
90	39.88	0.71
100	46.2	0.8
120	58.56	0.99
140	70.43	1.17
160	81.77	1.35
180	92.55	1.51
200	102.8	1.7
220	112.5	1.8
240	121.7	2
260	130.4	2.1
280	138.6	2.2
298.15	145.8	2.3
300	146.6	2.4
