Measured thermophysical data. Standard Gibbs energy of formation of tellurium dioxidemeasurement by a solid-oxide electrolyte EMF technique
Source: Thermochim. Acta, 2013, 10.1016/j.tca.2013.08.006
Compound 1: tellurium dioxide, O2Te, InChI=1S/O2Te/c1-3-2
Compound 2: tellurium, Te, InChI=1S/Te
Compound 3: oxygen, O2, InChI=1S/O2/c1-2

Reaction: 1 tellurium dioxide + -1 tellurium + -1 oxygen
Property: Molar Gibbs energy of reaction, kJ/mol
-202.02
-198.21
-192.51
-190.22
-189.27

Reaction: 1 tellurium dioxide + -1 tellurium + -1 oxygen
Property: Molar Gibbs energy of reaction, kJ/mol
-183.13
-185.29
-182.07
-180.93
-180.67
-179.38
-177.95
-174.56
-176.35
-174.23
-172.37
-172.48
-168.31
-166.53
-161.94
-164.94
-161.46
-163.08
-161.49
-160.04
-158.12
-154.87
-156.53
-155.25
-155.08
-153.84
-147.73
-147.98
-143.44
-140.05

Reaction: 1 tellurium dioxide + -1 tellurium + -1 oxygen
Property: Molar Gibbs energy of reaction, kJ/mol
-135.88
-132.14
-128.05
