Measured thermophysical data. Molar heat capacities of diethylenetriamine and  3-(methylamino)propylamine, their aqueous binaries,  and aqueous ternaries with piperazine
Source: Thermochim. Acta, 2014, 10.1016/j.tca.2013.10.016
Compound 1: di(2-aminoethyl)amine, C4H13N3, InChI=1S/C4H13N3/c5-1-3-7-4-2-6/h7H,1-6H2, purity 98%
Compound 2: piperazine, C4H10N2, InChI=1S/C4H10N2/c1-2-6-4-3-5-1/h5-6H,1-4H2, purity 99%
Compound 3: N-methyl-1,3-diaminopropane, C4H12N2, InChI=1S/C4H12N2/c1-6-4-2-3-5/h6H,2-5H2,1H3, purity 99%
Compound 4: water, H2O, InChI=1S/H2O/h1H2, purity 99.9%

System: di(2-aminoethyl)amine; phases: Liquid
Fixed: Pressure, kPa = 101
Property: Molar heat capacity at constant pressure, J/K/mol (Liquid); method: Small sample (50 mg) DSC
Temperature, K	Molar heat capacity at constant pressure, J/K/mol	uncertainty
303.15	269.5	11.4
308.15	269.9	11.5
313.15	270.2	11.5
318.15	270.8	11.5
323.15	271.2	11.5
328.15	272	11.5
333.15	272.7	11.6
338.15	273.2	11.6
343.15	273.6	11.6
348.15	273.8	11.6
353.15	274	11.6

System: N-methyl-1,3-diaminopropane; phases: Liquid
Fixed: Pressure, kPa = 101
Property: Molar heat capacity at constant pressure, J/K/mol (Liquid); method: Small sample (50 mg) DSC
Temperature, K	Molar heat capacity at constant pressure, J/K/mol	uncertainty
303.15	243.5	10.3
308.15	244.3	10.4
313.15	244.4	10.4
318.15	244.6	10.4
323.15	245.1	10.4
328.15	245.4	10.4
333.15	246	10.4
338.15	246.6	10.5
343.15	247.7	10.5
348.15	248.5	10.5
353.15	250.2	10.6

System: di(2-aminoethyl)amine + water; phases: Liquid
Fixed: Pressure, kPa = 101
Property: Molar heat capacity at constant pressure, J/K/mol (Liquid); method: Small sample (50 mg) DSC
Temperature, K	Mole fraction of di(2-aminoethyl)amine	Molar heat capacity at constant pressure, J/K/mol	uncertainty
303.15	0.1043	99.5	4.22
308.15	0.1043	100.3	4.3
313.15	0.1043	101.8	4.3
318.15	0.1043	101.8	4.3
323.15	0.1043	102.3	4.3
328.15	0.1043	102.9	4.4
333.15	0.1043	103.3	4.4
338.15	0.1043	103.7	4.4
343.15	0.1043	104.2	4.4
348.15	0.1043	105	4.5
353.15	0.1043	105.4	4.5
303.15	0.1487	110.2	4.7
308.15	0.1487	111.3	4.7
313.15	0.1487	112.4	4.8
318.15	0.1487	113.4	4.8
323.15	0.1487	114.4	4.9
328.15	0.1487	115.1	4.9
333.15	0.1487	115.7	4.9
338.15	0.1487	116.1	4.9
343.15	0.1487	116.8	5
348.15	0.1487	117.9	5
353.15	0.1487	119	5
303.15	0.2076	124.7	5.3
308.15	0.2076	126.1	5.4
313.15	0.2076	127.4	5.4
318.15	0.2076	128.6	5.5
323.15	0.2076	129.9	5.5
328.15	0.2076	130.9	5.6
333.15	0.2076	132	5.6
338.15	0.2076	133	5.6
343.15	0.2076	133.9	5.7
348.15	0.2076	134.5	5.7
353.15	0.2076	135.2	5.7
303.15	0.2895	144.3	6.1
308.15	0.2895	145.7	6.2
313.15	0.2895	146.9	6.2
318.15	0.2895	148.1	6.3
323.15	0.2895	149.3	6.3
328.15	0.2895	150.4	6.4
333.15	0.2895	151.4	6.4
338.15	0.2895	152.5	6.5
343.15	0.2895	153.5	6.5
348.15	0.2895	154.3	6.5
353.15	0.2895	155.1	6.6
303.15	0.4112	170.3	7.2
308.15	0.4112	171.5	7.3
313.15	0.4112	172.7	7.3
318.15	0.4112	173.9	7.4
323.15	0.4112	175.2	7.4
328.15	0.4112	176.2	7.5
333.15	0.4112	177.3	7.5
338.15	0.4112	178.5	7.6
343.15	0.4112	179.5	7.6
348.15	0.4112	180.4	7.7
353.15	0.4112	181.3	7.7
303.15	0.6111	209.1	8.9
308.15	0.6111	210	8.9
313.15	0.6111	211.2	9
318.15	0.6111	212.2	9
323.15	0.6111	213.4	9.1
328.15	0.6111	214.2	9.1
333.15	0.6111	214.7	9.1
338.15	0.6111	215.4	9.1
343.15	0.6111	215.9	9.2
348.15	0.6111	216.3	9.2
353.15	0.6111	216.5	9.2
303.15	0.8	241.3	10.2
308.15	0.8	241.9	10.3
313.15	0.8	242.7	10.3
318.15	0.8	243.4	10.3
323.15	0.8	244	10.4
328.15	0.8	244.7	10.4
333.15	0.8	245.3	10.4
338.15	0.8	246	10.4
343.15	0.8	246.4	10.5
348.15	0.8	247.1	10.5
353.15	0.8	247.4	10.5
303.15	1	269.5	11.4
308.15	1	269.9	11.5
313.15	1	270.2	11.5
318.15	1	270.8	11.5
323.15	1	271.2	11.5
328.15	1	272	11.5
333.15	1	272.7	11.6
338.15	1	273.2	11.6
343.15	1	273.6	11.6
348.15	1	273.8	11.6
353.15	1	274	11.6

System: N-methyl-1,3-diaminopropane + water; phases: Liquid
Fixed: Pressure, kPa = 101
Property: Molar heat capacity at constant pressure, J/K/mol (Liquid); method: Small sample (50 mg) DSC
Temperature, K	Mole fraction of N-methyl-1,3-diaminopropane	Molar heat capacity at constant pressure, J/K/mol	uncertainty
303.15	0.1	99.5	4.2
308.15	0.1	99.9	4.2
313.15	0.1	100.3	4.3
318.15	0.1	100.5	4.3
323.15	0.1	100.9	4.3
328.15	0.1	101.1	4.3
333.15	0.1	101.5	4.3
338.15	0.1	101.7	4.3
343.15	0.1	101.9	4.3
348.15	0.1	102.1	4.3
353.15	0.1	102.5	4.3
303.15	0.3	138	5.9
308.15	0.3	139.4	5.9
313.15	0.3	140.6	6
318.15	0.3	141.7	6
323.15	0.3	143	6.1
328.15	0.3	144	6.1
333.15	0.3	145.3	6.2
338.15	0.3	146.2	6.2
343.15	0.3	147.3	6.2
348.15	0.3	148.2	6.3
353.15	0.3	149.4	6.3
303.15	0.5	176	7.5
308.15	0.5	177.4	7.5
313.15	0.5	178.3	7.6
318.15	0.5	179.2	7.6
323.15	0.5	180.4	7.7
328.15	0.5	181.3	7.7
333.15	0.5	182.4	7.7
338.15	0.5	183.2	7.8
343.15	0.5	184.7	7.8
348.15	0.5	185.7	7.9
353.15	0.5	187.3	7.9
303.15	0.7	207.5	8.8
308.15	0.7	208.5	8.8
313.15	0.7	209.1	8.9
318.15	0.7	209.6	8.9
323.15	0.7	210.5	8.9
328.15	0.7	211.1	9
333.15	0.7	212.3	9
338.15	0.7	212.9	9
343.15	0.7	214.2	9.1
348.15	0.7	215.5	9.1
353.15	0.7	217.6	9.2
303.15	0.9	232.8	9.9
308.15	0.9	233.6	9.9
313.15	0.9	234.3	9.9
318.15	0.9	234.6	10
323.15	0.9	235.5	10
328.15	0.9	236	10
333.15	0.9	237.2	10.1
338.15	0.9	237.7	10.1
343.15	0.9	239	10.1
348.15	0.9	240.4	10.2
353.15	0.9	242.4	10.3
303.15	1	243.5	10.3
308.15	1	244.3	10.4
313.15	1	244.4	10.4
318.15	1	244.6	10.4
323.15	1	245.1	10.4
328.15	1	245.4	10.4
333.15	1	246	10.4
338.15	1	246.6	10.5
343.15	1	247.7	10.5
348.15	1	248.5	10.5
353.15	1	250.2	10.6

System: piperazine + di(2-aminoethyl)amine + water; phases: Liquid
Fixed: Pressure, kPa = 101
Property: Molar heat capacity at constant pressure, J/K/mol (Liquid); method: Small sample (50 mg) DSC
Temperature, K	Mass fraction of di(2-aminoethyl)amine	Mass fraction of piperazine	Molar heat capacity at constant pressure, J/K/mol	uncertainty
303.15	0.26	0.04	94.6	4
308.15	0.26	0.04	95	4
313.15	0.26	0.04	95.6	4.1
318.15	0.26	0.04	96.1	4.1
323.15	0.26	0.04	96.7	4.1
328.15	0.26	0.04	97.3	4.1
333.15	0.26	0.04	97.8	4.1
338.15	0.26	0.04	98.4	4.2
343.15	0.26	0.04	98.9	4.2
348.15	0.26	0.04	99.5	4.2
353.15	0.26	0.04	100	4.2
303.15	0.22	0.08	93	3.9
308.15	0.22	0.08	93.6	4
313.15	0.22	0.08	94.2	4
318.15	0.22	0.08	94.8	4
323.15	0.22	0.08	95.4	4
328.15	0.22	0.08	95.9	4.1
333.15	0.22	0.08	96.5	4.1
338.15	0.22	0.08	97.1	4.1
343.15	0.22	0.08	97.7	4.1
348.15	0.22	0.08	98.2	4.2
353.15	0.22	0.08	98.7	4.2
303.15	0.18	0.12	91.6	3.9
308.15	0.18	0.12	92.1	3.9
313.15	0.18	0.12	92.6	3.9
318.15	0.18	0.12	93.1	4
323.15	0.18	0.12	93.7	4
328.15	0.18	0.12	94.2	4
333.15	0.18	0.12	94.7	4
338.15	0.18	0.12	95.3	4
343.15	0.18	0.12	95.9	4.1
348.15	0.18	0.12	96.5	4.1
353.15	0.18	0.12	97	4.1

System: piperazine + N-methyl-1,3-diaminopropane + water; phases: Liquid
Fixed: Mass fraction of water = 0.7
Fixed: Pressure, kPa = 101
Property: Molar heat capacity at constant pressure, J/K/mol (Liquid); method: Small sample (50 mg) DSC
Temperature, K	Mass fraction of N-methyl-1,3-diaminopropane	Molar heat capacity at constant pressure, J/K/mol	uncertainty
303.15	0.26	93.7	4
308.15	0.26	93.9	4
313.15	0.26	94.2	4
318.15	0.26	94.4	4
323.15	0.26	94.6	4
328.15	0.26	94.8	4
333.15	0.26	95	4
338.15	0.26	95.2	4
343.15	0.26	95.5	4.1
348.15	0.26	95.7	4.1
353.15	0.26	96	4.1
303.15	0.22	93.3	4
308.15	0.22	93.5	4
313.15	0.22	93.7	4
318.15	0.22	93.9	4
323.15	0.22	94.2	4
328.15	0.22	94.4	4
333.15	0.22	94.7	4
338.15	0.22	94.9	4
343.15	0.22	95.2	4
348.15	0.22	95.4	4
353.15	0.22	95.6	4.1
303.15	0.18	92.7	3.9
308.15	0.18	92.9	3.9
313.15	0.18	93.2	4
318.15	0.18	93.4	4
323.15	0.18	93.8	4
328.15	0.18	94	4
333.15	0.18	94.3	4
338.15	0.18	94.5	4
343.15	0.18	94.7	4
348.15	0.18	94.9	4
353.15	0.18	95.1	4
