Measured thermophysical data. Determination of the enthalpies of sublimation and evaporation from thermogravimetric data: Application to metalorganic complexes of Al and Cr
Source: Thermochim. Acta, 2009, 10.1016/j.tca.2008.12.032
Compound 1: aluminum triacetylacetonate, C15H21AlO6, InChI=1S/3C5H7O2.Al/c3*1-4(6)3-5(2)7;/h3*3H,1-2H3;/q3*-1;+3
Compound 2: tris(2,4-pentanedionato)chromium, C15H21CrO6, InChI=1S/3C5H7O2.Cr/c3*1-4(6)3-5(2)7;/h3*3H,1-2H3;/q3*-1;+3

System: aluminum triacetylacetonate; phases: Crystal, Gas
Property: Molar enthalpy of vaporization or sublimation, kJ/mol (Crystal); method: DSC
Temperature, K	Molar enthalpy of vaporization or sublimation, kJ/mol	uncertainty
466.1	107.1	3.2

System: tris(2,4-pentanedionato)chromium; phases: Crystal, Gas
Property: Molar enthalpy of vaporization or sublimation, kJ/mol (Crystal); method: DSC
Temperature, K	Molar enthalpy of vaporization or sublimation, kJ/mol	uncertainty
486.1	120.8	3.5
