Measured thermophysical data. Phase transitions and reorientational motions in [Al(OS(CH3)2)6](NO3)3 and its deuterated analog
Source: Thermochim. Acta, 2012, 10.1016/j.tca.2012.01.020
Compound 1: aluminum nitrate, hexa-dimethylsulfoxide, C12H36AlN3O15S6, InChI=1S/6C2H6OS.Al.3NO3/c6*1-4(2)3;;3*2-1(3)4/h6*1-2H3;;;;/q;;;;;;+3;3*-1, purity 98%
Compound 2: aluminum nitrate, hexa-dimethylsulfoxide-d6, C12D36AlN3O15S6, InChI=1S/6C2H6OS.Al.3NO3/c6*1-4(2)3;;3*2-1(3)4/h6*1-2H3;;;;/q;;;;;;+3;3*-1/i6*1D3,2D3;;;;, purity 98%

System: aluminum nitrate, hexa-dimethylsulfoxide; phases: Crystal 2, Crystal 1, Air at 1 atmosphere
Property: Triple point temperature, K (Crystal 2); method: Adiabatic calorimetry
Triple point temperature, K	uncertainty
34.3	0.1

System: aluminum nitrate, hexa-dimethylsulfoxide; phases: Crystal 2
Fixed: Pressure, kPa = 101.325
Property: Molar heat capacity at constant pressure, J/K/mol (Crystal 2); method: Vacuum adiabatic calorimetry
Temperature, K	Molar heat capacity at constant pressure, J/K/mol	uncertainty
5.34	2.31	0.04
5.752	2.85	0.05
6.183	3.54	0.05
6.634	4.38	0.06
7.101	5.3	0.07
7.578	6.32	0.08
8.061	7.44	0.09
8.547	8.74	0.1
9.037	10.11	0.11
9.56	11.63	0.12
10.14	13.42	0.13
10.765	15.39	0.14
11.424	17.6	0.16
12.108	20.04	0.17
12.813	22.59	0.19
13.531	25.45	0.21
14.26	28.48	0.22
14.997	31.66	0.24
15.759	35.09	0.26
16.515	38.6	0.27
17.236	42.08	0.29
17.926	45.56	0.3
18.622	49.19	0.32
19.456	53.83	0.34
20.388	59.11	0.35
21.239	63.95	0.37
22.051	68.72	0.38
22.963	74.21	0.4
23.944	79.97	0.41
24.968	86.09	0.42
26.036	92.38	0.42
27.129	99.99	0.44
28.268	108.07	0.44
28.694	110.65	0.44
29.439	116.23	0.44
29.85	119.03	0.44
30.682	125.48	0.33
31.234	129.74	0.34
31.972	135.82	0.35
32.624	141.32	0.37
33.15	146.32	0.38
33.498	149.46	0.38
33.895	153.1	0.38
34.201	155.2	0.39
34.3	156.57	0.45

System: aluminum nitrate, hexa-dimethylsulfoxide; phases: Crystal 1
Fixed: Pressure, kPa = 101.325
Property: Molar heat capacity at constant pressure, J/K/mol (Crystal 1); method: Vacuum adiabatic calorimetry
Temperature, K	Molar heat capacity at constant pressure, J/K/mol	uncertainty
34.696	157.17	0.36
35.083	158.24	0.36
35.267	158.09	0.36
35.463	158.24	0.36
36.025	159.09	0.36
36.349	159.14	0.36
36.857	160.67	0.37
37.444	162.58	0.37
37.816	164.81	0.38
38.548	168.36	0.39
38.9	170.18	0.39
39.663	174.27	0.4
40.1	176.44	0.41
40.755	180.04	0.41
41.371	183.47	0.42
41.839	185.91	0.43
42.963	191.79	0.44
44.093	197.76	0.45
45.242	203.98	0.46
46.458	210.19	0.47
47.73	216.91	0.49
49.051	223.85	0.5
50.413	230.93	0.51
51.795	237.79	0.53
53.204	244.84	0.54
54.663	252.35	0.55
56.166	259.37	0.57
57.708	266.47	0.58
59.285	273.79	0.59
60.894	281.12	0.61
62.531	288.18	0.62
64.194	295.65	0.64
65.881	303.11	0.65
67.591	310.27	0.67
69.322	317.59	0.68
71.073	324.85	0.69
72.842	332.38	0.71
74.631	339.56	0.72
76.438	346.38	0.74
78.262	353.25	0.75
80.103	360.27	0.76
81.962	367.25	0.78
83.838	373.41	0.79
85.729	380	0.8
87.638	386.74	0.82
89.562	393.35	0.83
91.503	400.11	0.6
93.461	406.75	0.61
95.434	413.16	0.62
97.424	419.41	0.62
99.431	425.61	0.63
101.454	432.39	0.64
103.494	438.19	0.64
105.55	444.25	0.65
107.623	450.61	0.65
109.713	456.91	0.66
111.82	462.95	0.67
113.943	468.87	0.67
116.084	475.4	0.68
118.242	481.36	0.68
120.417	486.93	0.69
122.608	493	0.7
124.817	498.82	0.7
127.044	505.15	0.71
129.287	511.34	0.71
131.548	516.51	0.72
133.826	522.72	0.72
136.12	529.1	0.73
138.431	533.78	0.74
140.758	539.75	0.74
143.102	545.14	0.75
145.465	550.83	0.75
147.845	556.34	0.76
150.17	562.39	0.76
152.645	568.13	0.77
155.137	573.76	0.78
157.645	579.47	0.78
160.172	585.63	0.79
162.714	591.83	0.79
165.273	597.26	0.8
167.852	603.41	0.8
170.449	609.06	0.81
173.065	615.31	0.82
175.7	620.8	0.82
178.354	627	0.83
181.021	633.02	0.83
183.692	638.41	0.84
186.373	644.08	0.85
189.071	650.27	0.85
191.788	655.96	0.86
194.522	661.5	0.86
197.274	667.63	0.87
200.043	674.92	0.88
202.83	680.52	0.88
205.634	686.81	0.89
208.455	693.24	0.89
211.294	699.08	0.9
214.15	705.24	0.91
217.023	711.12	0.91
219.913	717.76	0.92
222.822	724.16	0.93
225.747	730	0.93
228.689	737.52	0.94
231.648	744.05	0.95
234.625	750.55	0.95
237.619	757.13	0.96
240.628	765.7	0.97
243.655	770.72	0.97
246.699	776.93	0.98
249.76	784.31	0.99
252.837	791.54	0.99
255.93	798.71	1
259.04	806.83	1.01
262.165	814.33	1.02
265.306	821.67	1.02
268.462	829.77	1.03
271.632	838.83	1.04
274.818	845.75	1.05
278.018	854.01	1.06
281.233	862.18	1.06
284.461	872.73	1.07
287.704	881.86	1.08
290.96	889.39	1.09
294.23	897.16	1.1
297.514	907.16	1.11
300.814	918.17	1.12

System: aluminum nitrate, hexa-dimethylsulfoxide-d6; phases: Crystal 2, Crystal 1, Air at 1 atmosphere
Property: Triple point temperature, K (Crystal 2); method: Adiabatic calorimetry
Triple point temperature, K	uncertainty
32.2	0.1

System: aluminum nitrate, hexa-dimethylsulfoxide-d6; phases: Crystal 2
Fixed: Pressure, kPa = 101.325
Property: Molar heat capacity at constant pressure, J/K/mol (Crystal 2); method: Vacuum adiabatic calorimetry
Temperature, K	Molar heat capacity at constant pressure, J/K/mol	uncertainty
4.913	1.92	0.04
5.456	2.63	0.04
5.992	3.46	0.05
6.519	4.44	0.06
7.038	5.53	0.07
7.55	6.7	0.08
8.055	8.04	0.09
8.589	9.55	0.11
9.143	11.2	0.12
9.711	13.03	0.13
10.32	15.12	0.14
10.961	17.39	0.16
11.626	19.9	0.18
12.31	22.6	0.19
13.008	25.41	0.21
13.715	28.44	0.23
14.431	31.61	0.24
15.152	34.95	0.26
15.891	38.62	0.28
16.629	42.39	0.3
17.366	46.33	0.32
18.242	51.17	0.34
19.168	56.42	0.36
20.103	62.1	0.38
21.056	68	0.4
21.871	73.07	0.41
22.225	75.43	0.42
22.636	77.95	0.42
23.444	83.17	0.43
23.496	83.45	0.43
24.23	88.22	0.45
24.347	89.05	0.45
25.179	94.45	0.45
25.334	95.52	0.45
26.169	101.05	0.46
26.38	102.55	0.46
27.186	108.58	0.47
27.487	111	0.47
28.217	116.49	0.48
28.634	119.73	0.48
29.256	124.45	0.48
29.805	128.7	0.48
30.298	132.25	0.34
30.991	137.7	0.35
31.339	140.09	0.35
32.186	146.09	0.36

System: aluminum nitrate, hexa-dimethylsulfoxide-d6; phases: Crystal 1
Fixed: Pressure, kPa = 101.325
Property: Molar heat capacity at constant pressure, J/K/mol (Crystal 1); method: Vacuum adiabatic calorimetry
Temperature, K	Molar heat capacity at constant pressure, J/K/mol	uncertainty
32.38	147.21	0.36
33.387	153.65	0.37
33.419	153.69	0.37
34.455	159.72	0.38
34.591	160.48	0.38
35.49	164.99	0.39
35.797	166.93	0.39
36.522	170.79	0.4
37.003	173.64	0.4
37.55	176.81	0.41
38.205	181.06	0.42
38.573	183.18	0.43
39.403	188.34	0.43
39.59	189.37	0.44
40.595	195.75	0.45
41.782	203.02	0.46
42.964	210.32	0.48
44.141	217.31	0.49
45.312	224.72	0.5
46.479	231.71	0.52
47.642	238.61	0.53
48.8	245.62	0.54
49.955	252.66	0.56
51.107	258.88	0.57
52.256	265.68	0.58
53.403	272.26	0.6
54.547	278.49	0.61
55.69	284.87	0.62
56.833	291.08	0.63
57.974	297.03	0.64
59.114	303.29	0.66
60.254	308.99	0.67
61.395	314.65	0.68
62.536	320.59	0.69
63.677	325.75	0.7
64.819	331.32	0.71
65.963	337.06	0.72
67.108	342.25	0.73
68.254	347.55	0.74
69.401	353.02	0.75
70.551	358.09	0.76
71.702	363.07	0.77
72.856	367.98	0.78
74.011	373.42	0.79
75.17	378.33	0.8
76.331	383.25	0.81
77.495	387.85	0.82
78.662	392.31	0.83
79.832	397.02	0.84
81.005	401.54	0.85
82.181	405.99	0.86
83.361	410.28	0.86
84.544	414.78	0.87
85.731	418.91	0.88
86.922	423.6	0.89
88.116	427.66	0.9
89.315	431.89	0.91
90.517	436.22	0.64
91.724	440.3	0.64
92.934	444.63	0.65
94.149	448.56	0.65
95.368	452.64	0.66
96.59	456.73	0.66
97.817	460.38	0.66
99.049	464.38	0.67
100.284	468.45	0.67
101.521	472.22	0.68
102.764	476.25	0.68
104.013	480.3	0.68
105.266	483.94	0.69
106.525	488.03	0.69
107.789	491.81	0.69
109.058	495.22	0.7
110.45	499.46	0.7
112.041	503.59	0.71
113.713	508.45	0.71
115.396	513.23	0.72
117.09	517.83	0.72
118.793	522.48	0.72
120.507	527.46	0.73
122.23	532.18	0.73
123.964	536.67	0.74
125.709	541.49	0.74
127.464	545.48	0.75
129.23	550.74	0.75
130.996	555.06	0.76
132.766	559.61	0.76
134.553	564.19	0.77
136.358	569.26	0.77
138.18	573.87	0.78
140.019	578.39	0.78
141.875	583.02	0.78
143.76	587.52	0.79
145.678	592.36	0.79
147.619	597.5	0.8
149.583	601.81	0.8
151.57	607.16	0.81
153.58	611.94	0.81
155.613	617.05	0.82
157.667	622.43	0.82
159.744	627.39	0.83
161.842	632.82	0.83
163.962	638.03	0.84
166.103	643.25	0.84
168.266	648.78	0.85
170.45	654.16	0.86
172.654	659.19	0.86
174.88	665.08	0.87
177.126	670.81	0.87
179.393	676.35	0.88
181.68	682.34	0.88
183.987	687.65	0.89
186.315	693	0.89
188.663	699.14	0.9
191.03	704.97	0.91
193.418	710.56	0.91
195.825	716.52	0.92
198.25	723.07	0.92
200.695	729.43	0.93
203.159	735.44	0.94
205.641	741.92	0.94
208.142	748.46	0.95
210.661	754.31	0.96
213.199	761.69	0.96
215.755	767.65	0.97
218.329	774.33	0.98
220.638	780.39	0.98
223.656	787.54	0.99
226.694	796.15	1
229.75	803.73	1
232.824	811.09	1.01
235.416	818.05	1.02
237.165	821.9	1.02
238.909	827.73	1.03
240.649	831.34	1.03
242.383	836.3	1.04
244.112	841.02	1.04
245.302	845.48	1.05
245.836	846.05	1.05
247.556	850.82	1.05
248.467	854.8	1.06
249.271	855.91	1.06
250.981	860.84	1.06
251.583	863.24	1.06
252.687	864.96	1.07
254.388	869.74	1.07
256.084	875.4	1.08
257.776	880.03	1.08
259.464	884.93	1.09
261.147	889.64	1.09
262.826	895.12	1.1
263.701	898.97	1.1
264.501	900.11	1.1
266.171	904.65	1.11
267.837	910.93	1.11
269.499	915.72	1.12
271.156	921.2	1.12
272.644	927.16	1.13
272.809	926.83	1.13
274.459	931.23	1.13
275.599	936.27	1.14
276.105	936.97	1.14
277.746	941.56	1.14
278.542	945.71	1.15
279.383	947.79	1.15
281.017	952.66	1.15
281.471	955.13	1.16
282.646	957.8	1.16
284.271	963.54	1.17
285.892	970.19	1.17
287.509	976.24	1.18
289.122	981.86	1.18
290.731	987.41	1.19
292.337	993.84	1.2
293.938	999.88	1.2
295.535	1005.42	1.21
297.129	1012.08	1.21
298.721	1017.52	1.22
300.311	1023.23	1.23
