Measured thermophysical data. Calorimetric investigation of the concentration dependent enthalpy change around semicongruent melting CaCl2*6H2O
Source: Thermochim. Acta, 2016, 10.1016/j.tca.2016.04.023
Compound 1: calcium chloride hexahydrate, CaCl2H12O6, InChI=1S/Ca.2ClH.6H2O/h;2*1H;6*1H2/q+2;;;;;;;;/p-2

System: calcium chloride hexahydrate; phases: Crystal, Liquid, Air at 1 atmosphere
Property: Molar enthalpy of transition or fusion, kJ/mol (Crystal); method: DSC
Molar enthalpy of transition or fusion, kJ/mol	uncertainty
40.5288898	3.94335144

System: calcium chloride hexahydrate; phases: Crystal, Liquid, Air at 1 atmosphere
Property: Normal melting temperature, K (Crystal); method: DTA
Normal melting temperature, K	uncertainty
301.85	1.1

System: calcium chloride hexahydrate; phases: Crystal, Liquid, Air at 1 atmosphere
Property: Molar enthalpy of transition or fusion, kJ/mol (Crystal); method: DSC
Molar enthalpy of transition or fusion, kJ/mol	uncertainty
38.77628916	4.3815016

System: calcium chloride hexahydrate; phases: Crystal, Liquid, Air at 1 atmosphere
Property: Normal melting temperature, K (Crystal); method: DTA
Normal melting temperature, K	uncertainty
301.45	1.1
