Measured thermophysical data. Excess molar enthalpies of ternary mixtures containing o-toluidine + tetrahydropyran with  pyridine or isomeric picolines or benzene or toluene at 308.15K
Source: Thermochim. Acta, 2012, 10.1016/j.tca.2011.12.023
Compound 1: 2-methylaniline, C7H9N, InChI=1S/C7H9N/c1-6-4-2-3-5-7(6)8/h2-5H,8H2,1H3, purity 99%
Compound 2: tetrahydropyran, C5H10O, InChI=1S/C5H10O/c1-2-4-6-5-3-1/h1-5H2, purity 98%
Compound 3: pyridine, C5H5N, InChI=1S/C5H5N/c1-2-4-6-5-3-1/h1-5H, purity 99%
Compound 4: 2-methylpyridine, C6H7N, InChI=1S/C6H7N/c1-6-4-2-3-5-7-6/h2-5H,1H3, purity 98%
Compound 5: 3-methylpyridine, C6H7N, InChI=1S/C6H7N/c1-6-3-2-4-7-5-6/h2-5H,1H3, purity 99%
Compound 6: 4-methylpyridine, C6H7N, InChI=1S/C6H7N/c1-6-2-4-7-5-3-6/h2-5H,1H3, purity 99%
Compound 7: benzene, C6H6, InChI=1S/C6H6/c1-2-4-6-5-3-1/h1-6H, purity 99%
Compound 8: toluene, C7H8, InChI=1S/C7H8/c1-7-5-3-2-4-6-7/h2-6H,1H3, purity 99%

System: 2-methylaniline + pyridine + tetrahydropyran; phases: Liquid
Fixed: Temperature, K = 308.15
Fixed: Pressure, kPa = 101.3
Property: Excess molar enthalpy (molar enthalpy of mixing), kJ/mol (Liquid); method: Drop Calorimetry
Mole fraction of 2-methylaniline	Mole fraction of tetrahydropyran	Excess molar enthalpy (molar enthalpy of mixing), kJ/mol	uncertainty
0.1023	0.4812	-0.372	0.0079
0.1226	0.5438	-0.5356	0.0114
0.1582	0.6323	-0.8995	0.0191
0.1731	0.6008	-0.9685	0.0206
0.1924	0.5983	-1.1271	0.0239
0.2125	0.5831	-1.2929	0.0274
0.2635	0.5445	-1.6275	0.0345
0.2779	0.5316	-1.6689	0.0354
0.2981	0.5223	-1.7952	0.0381
0.3127	0.5016	-1.8513	0.0393
0.3487	0.4628	-1.8641	0.0395
0.3713	0.4343	-1.8587	0.0394
0.4199	0.3818	-1.7006	0.0361
0.4352	0.3772	-1.7856	0.0379
0.4657	0.3555	-1.7523	0.0372
0.4779	0.3421	-1.6521	0.0351
0.4914	0.3303	-1.6369	0.0347
0.5117	0.3115	-1.5161	0.0322
0.5335	0.2963	-1.4901	0.0316
0.5506	0.2811	-1.4101	0.0299
0.6225	0.2012	-0.9585	0.0203
0.6545	0.2125	-1.0885	0.0231
0.6742	0.1998	-1.0043	0.0213
0.6926	0.1894	-0.9704	0.0206
0.7245	0.1606	-0.8143	0.0173
0.7448	0.1382	-0.7427	0.0158
0.7701	0.1303	-0.6798	0.0144
0.8123	0.1021	-0.5627	0.0119
0.8326	0.1002	-0.5176	0.011
0.8515	0.0831	-0.4557	0.0097

System: 2-methylaniline + 2-methylpyridine + tetrahydropyran; phases: Liquid
Fixed: Temperature, K = 308.15
Fixed: Pressure, kPa = 101.3
Property: Excess molar enthalpy (molar enthalpy of mixing), kJ/mol (Liquid); method: Drop Calorimetry
Mole fraction of 2-methylaniline	Mole fraction of tetrahydropyran	Excess molar enthalpy (molar enthalpy of mixing), kJ/mol	uncertainty
0.0823	0.5063	-0.4657	0.0099
0.1023	0.4922	-0.5949	0.0126
0.1346	0.5244	-0.8604	0.0183
0.1629	0.6125	-1.1006	0.0234
0.1668	0.6112	-1.1299	0.024
0.1856	0.5776	-1.2625	0.0268
0.2235	0.5745	-1.5508	0.0329
0.2409	0.5541	-1.6226	0.0344
0.2644	0.5327	-1.7794	0.0378
0.2884	0.5424	-1.8683	0.0396
0.3226	0.5102	-2.0368	0.0432
0.3462	0.4767	-2.0468	0.0434
0.3627	0.4101	-1.9428	0.0412
0.4205	0.3778	-1.9587	0.0416
0.4408	0.3652	-1.9878	0.0422
0.4557	0.3431	-1.9061	0.0404
0.4935	0.3207	-1.8167	0.0385
0.5347	0.2869	-1.6744	0.0355
0.5533	0.2787	-1.6716	0.0355
0.5772	0.2673	-1.5802	0.0335
0.6188	0.2471	-1.4488	0.0307
0.6672	0.2081	-1.2426	0.0264
0.6844	0.1895	-1.1436	0.0243
0.7005	0.1783	-1.0739	0.0228
0.7182	0.1563	-0.9517	0.0202
0.7784	0.1367	-0.7594	0.0161
0.8105	0.1121	-0.6151	0.0131
0.8366	0.0897	-0.5185	0.011
0.8526	0.0674	-0.4764	0.0101
0.8678	0.0883	-0.3925	0.0083

System: 2-methylaniline + 3-methylpyridine + tetrahydropyran; phases: Liquid
Fixed: Temperature, K = 308.15
Fixed: Pressure, kPa = 101.3
Property: Excess molar enthalpy (molar enthalpy of mixing), kJ/mol (Liquid); method: Drop Calorimetry
Mole fraction of 2-methylaniline	Mole fraction of tetrahydropyran	Excess molar enthalpy (molar enthalpy of mixing), kJ/mol	uncertainty
0.0772	0.2345	-0.1993	0.0042
0.0772	0.2345	-0.1993	0.0042
0.1122	0.3564	-0.3205	0.0068
0.1326	0.4432	-0.4635	0.0098
0.1698	0.6013	-0.8222	0.0174
0.1725	0.6236	-0.8497	0.018
0.2125	0.5663	-1.0437	0.0221
0.2516	0.5212	-1.2194	0.0259
0.2737	0.5382	-1.3386	0.0284
0.3152	0.5201	-1.5269	0.0324
0.3343	0.5122	-1.5553	0.033
0.3727	0.4005	-1.4651	0.0311
0.3983	0.4121	-1.5435	0.0327
0.4278	0.3916	-1.5871	0.0337
0.4652	0.3462	-1.4661	0.0311
0.4811	0.3347	-1.4802	0.0314
0.5232	0.3017	-1.3816	0.0293
0.5446	0.2765	-1.3253	0.0281
0.5803	0.2767	-1.3263	0.0281
0.5911	0.2435	-1.2061	0.0256
0.6327	0.2014	-1.0923	0.0232
0.6567	0.2313	-1.1558	0.0245
0.6783	0.2004	-1.0389	0.022
0.6998	0.1662	-0.9641	0.0205
0.7133	0.1638	-0.922	0.0196
0.7296	0.1325	-0.88	0.0187
0.7554	0.1128	-0.8113	0.0172
0.7727	0.1329	-0.7791	0.0165
0.7891	0.1134	-0.7245	0.0154
0.8132	0.0985	-0.6723	0.0143
0.8346	0.0976	-0.5773	0.0123

System: 2-methylaniline + 4-methylpyridine + tetrahydropyran; phases: Liquid
Fixed: Temperature, K = 308.15
Fixed: Pressure, kPa = 101.3
Property: Excess molar enthalpy (molar enthalpy of mixing), kJ/mol (Liquid); method: Drop Calorimetry
Mole fraction of 2-methylaniline	Mole fraction of tetrahydropyran	Excess molar enthalpy (molar enthalpy of mixing), kJ/mol	uncertainty
0.0732	0.6734	-0.3372	0.0072
0.1156	0.6351	-0.5862	0.0124
0.1556	0.6161	-0.8107	0.0172
0.1822	0.6088	-0.9121	0.0194
0.2111	0.5873	-1.0345	0.022
0.2394	0.5777	-1.1452	0.0243
0.2642	0.5453	-1.2198	0.0259
0.2708	0.5431	-1.2591	0.0267
0.2903	0.5211	-1.2949	0.0275
0.3104	0.5006	-1.3725	0.0291
0.3324	0.4912	-1.3763	0.0292
0.3586	0.4782	-1.3978	0.0297
0.3703	0.4451	-1.4711	0.0312
0.3933	0.4237	-1.4893	0.0316
0.4265	0.3882	-1.472	0.0312
0.4683	0.3659	-1.4714	0.0312
0.4874	0.3471	-1.4271	0.0303
0.5016	0.3225	-1.4138	0.03
0.5364	0.3017	-1.3842	0.0294
0.5525	0.2983	-1.3235	0.0281
0.5782	0.2787	-1.2936	0.0274
0.6124	0.2015	-1.1685	0.0248
0.6337	0.1893	-1.1409	0.0242
0.6623	0.2014	-1.0586	0.0225
0.6864	0.1666	-1.0069	0.0214
0.7122	0.1033	-0.8954	0.019
0.7346	0.1115	-0.8647	0.0183
0.8161	0.0724	-0.6211	0.0132
0.8403	0.0782	-0.525	0.0111
0.8672	0.0675	-0.4404	0.0093

System: benzene + 2-methylaniline + tetrahydropyran; phases: Liquid
Fixed: Temperature, K = 308.15
Fixed: Pressure, kPa = 101.3
Property: Excess molar enthalpy (molar enthalpy of mixing), kJ/mol (Liquid); method: Drop Calorimetry
Mole fraction of 2-methylaniline	Mole fraction of tetrahydropyran	Excess molar enthalpy (molar enthalpy of mixing), kJ/mol	uncertainty
0.0931	0.6372	-0.2018	0.0043
0.1094	0.6248	-0.2046	0.0044
0.1394	0.6177	-0.2309	0.0049
0.1582	0.6108	-0.2414	0.0051
0.1889	0.6073	-0.2764	0.0059
0.2047	0.5961	-0.2797	0.0059
0.2285	0.5703	-0.2881	0.0061
0.2486	0.5615	-0.3008	0.0064
0.2771	0.5483	-0.3102	0.0066
0.3329	0.5147	-0.3337	0.0071
0.3586	0.4955	-0.3292	0.007
0.3699	0.4716	-0.3162	0.0067
0.3704	0.4317	-0.2537	0.0054
0.3871	0.4015	-0.2094	0.0045
0.3936	0.4567	-0.3131	0.0067
0.4157	0.3782	-0.2019	0.0043
0.4582	0.3482	-0.1901	0.004
0.4779	0.3286	-0.1716	0.0037
0.4917	0.3311	-0.1934	0.0041
0.5184	0.3026	-0.1602	0.0034
0.5378	0.2981	-0.1796	0.0038
0.5578	0.2716	-0.1281	0.0027
0.5773	0.2546	-0.1113	0.0024
0.5942	0.2395	-0.0898	0.0019
0.6247	0.2168	-0.0683	0.0015
0.6473	0.2006	-0.05445	0.00118
0.6672	0.1898	-0.0564	0.0012
0.7013	0.1657	-0.0367	0.0008
0.7352	0.1573	-0.0789	0.0017
0.7652	0.1453	-0.096	0.0021

System: 2-methylaniline + toluene + tetrahydropyran; phases: Liquid
Fixed: Temperature, K = 308.15
Fixed: Pressure, kPa = 101.3
Property: Excess molar enthalpy (molar enthalpy of mixing), kJ/mol (Liquid); method: Drop Calorimetry
Mole fraction of 2-methylaniline	Mole fraction of tetrahydropyran	Excess molar enthalpy (molar enthalpy of mixing), kJ/mol	uncertainty
0.0862	0.8271	-0.2345	0.005
0.1052	0.8065	-0.2606	0.0055
0.1237	0.7846	-0.2902	0.0062
0.1576	0.2176	0.1046	0.0022
0.1835	0.2314	0.1294	0.0028
0.2367	0.2088	0.2572	0.0055
0.2514	0.2778	0.1098	0.0023
0.2733	0.2898	0.0795	0.0017
0.2902	0.2668	0.145	0.0031
0.3324	0.2561	0.169	0.0036
0.3648	0.2246	0.2748	0.0058
0.3839	0.5219	-0.3473	0.0074
0.4016	0.4859	-0.3236	0.0069
0.4277	0.5013	-0.3598	0.0076
0.4455	0.4256	-0.3003	0.0064
0.4761	0.4024	-0.2933	0.0062
0.4882	0.3674	-0.2771	0.0059
0.5018	0.3591	-0.2684	0.0057
0.5279	0.3818	-0.3051	0.0065
0.5426	0.1982	0.1217	0.0026
0.5506	0.3511	-0.2832	0.006
0.5813	0.2819	-0.2175	0.0046
0.6017	0.1525	0.2225	0.0047
0.6243	0.1486	0.1853	0.0039
0.6417	0.1577	0.1021	0.0022
0.6517	0.1278	0.2269	0.0048
0.6748	0.2104	-0.1525	0.0032
0.6924	0.1917	-0.1255	0.0027
0.7012	0.1863	-0.1219	0.0026
0.7246	0.1763	-0.1255	0.0027
0.7486	0.1146	0.0595	0.0013
