Measured thermophysical data. Extension of the DSC method to measuring vapor pressures of narrow boiling range oil cuts
Source: Thermochim. Acta, 2015, 10.1016/j.tca.2015.04.011
Compound 1: benzene, C6H6, InChI=1S/C6H6/c1-2-4-6-5-3-1/h1-6H, purity 99.96%
Compound 2: 1,2-dimethylbenzene, C8H10, InChI=1S/C8H10/c1-7-5-3-4-6-8(7)2/h3-6H,1-2H3, purity 99%

System: benzene; phases: Liquid, Gas
Property: Vapor or sublimation pressure, kPa (Liquid); method: Differential Scanning Calorimetry with Pressure Regulation
Temperature, K	Vapor or sublimation pressure, kPa	uncertainty
325.6	39.52	3.97
331.7	49.45	4.96
341.7	69.2	6.94
353.6	101.6	10.3
385.3	247.52	24.88
415.8	499.1	50.07
435.4	750.14	75.19

System: benzene; phases: Liquid, Gas
Property: Vapor or sublimation pressure, kPa (Liquid); method: Closed cell (Static) method
Temperature, K	Vapor or sublimation pressure, kPa	uncertainty
313.2	25	1.8
323.2	36.9	1.8
333.2	53.2	1.8
343.2	74.7	1.8
353.2	102.8	1.8
363.2	137.8	1.8
373.2	181	1.8
383.2	234.2	1.8
393.2	300.2	1.9

System: 1,2-dimethylbenzene; phases: Liquid, Gas
Property: Vapor or sublimation pressure, kPa (Liquid); method: Differential Scanning Calorimetry with Pressure Regulation
Temperature, K	Vapor or sublimation pressure, kPa	uncertainty
357.3	14.75	1.48
376.7	29.61	2.97
392.7	49.44	4.95
401.5	64.27	6.44
418.6	102.78	10.32

System: 1,2-dimethylbenzene; phases: Liquid, Gas
Property: Vapor or sublimation pressure, kPa (Liquid); method: Closed cell (Static) method
Temperature, K	Vapor or sublimation pressure, kPa	uncertainty
353.2	14.3	1.8
363.2	20.4	1.8
373.2	28.5	1.8
383.2	38.8	1.8
393.2	52.8	1.8
