Measured thermophysical data. Thermodynamic properties of liquid germanium yttrium alloys
Source: Thermochim. Acta, 2005, 10.1016/j.tca.2005.02.007
Compound 1: germanium, Ge, InChI=1S/Ge
Compound 2: yttrium, Y, InChI=1S/Y

System: germanium + yttrium; phases: Liquid
Fixed: Temperature, K = 1770
Fixed: Pressure, kPa = 101
Property: Partial molar enthalpy, kJ/mol of yttrium (Liquid); method: Drop calorimetry
Mole fraction of yttrium	Partial molar enthalpy, kJ/mol of yttrium	uncertainty
0.0017	-240.68	10
0.0056	-251.37	10
0.0104	-222.69	10
0.0158	-244.62	10
0.0216	-245.74	10
0.0278	-237.89	10
0.0344	-245.55	10
0.0413	-237.52	10
0.0485	-228.55	10
0.0561	-226.31	10
0.0639	-228.88	10
0.072	-240.46	10
0.0807	-243.14	10
0.0899	-237.66	10
0.0993	-225.95	10
0.1086	-256.29	10
0.1179	-232.01	10
0.1272	-239.05	10
0.1367	-243.23	10
0.147	-240.54	10
0.1581	-240.44	10
0.1694	-254.77	10
0.1807	-259.66	10
0.1922	-241.93	10
0.2037	-245.29	10
0.2151	-241.67	10
0.226	-243.6	10
0.2375	-244.69	10
0.2496	-252.2	10
0.2622	-244.05	10
0.2756	-234.77	10
0.2899	-249.53	10
0.3048	-252.97	10
0.3229	-255.01	10
0.3459	-247.51	10
