Measured thermophysical data. Synthesis and the standard molar enthalpy of formation of SrB4O7*3H2O
Source: Thermochim. Acta, 2008, 10.1016/j.tca.2008.02.014
Compound 1: strontium tetraborate trihydrate, B4H6O10Sr, InChI=1S/B4O7.3H2O.Sr/c5-1-7-3-9-2(6)10-4(8-1)11-3;;;;/h;3*1H2;/q-2;;;;+2, purity 98%
Compound 2: boric acid, BH3O3, InChI=1S/BH3O3/c2-1(3)4/h2-4H, purity 99%
Compound 3: strontium hydroxide octahydrate Sr(OH)2*8H2O, H18O10Sr, InChI=1S/10H2O.Sr/h10*1H2;/q;;;;;;;;;;+2/p-2, purity 99%
Compound 4: water, H2O, InChI=1S/H2O/h1H2, purity 99.99%

Reaction: 1 strontium tetraborate trihydrate + -4 boric acid + -1 strontium hydroxide octahydrate Sr(OH)2*8H2O + 12 water
Property: Molar enthalpy of reaction, kJ/mol
14.72
