Measured thermophysical data. Heat capacity and thermodynamic functions of Na2MoO4 in the temperature range 0-300 K
Source: Thermochim. Acta, 2007, 10.1016/j.tca.2007.07.005
Compound 1: sodium molybdate, MoNa2O4, InChI=1S/Mo.2Na.4O/q;2*+1;;;2*-1, purity 99.5%

System: sodium molybdate; phases: Crystal
Fixed: Pressure, kPa = 101.325
Property: Molar heat capacity at constant pressure, J/K/mol (Crystal); method: Vacuum adiabatic calorimetry
Temperature, K	Molar heat capacity at constant pressure, J/K/mol	uncertainty
12.9	0.6169	0.0147
12.97	0.6103	0.0148
13.88	0.7665	0.0157
13.91	0.8041	0.0159
15	0.9392	0.0166
15.29	1.044	0.017
15.93	1.116	0.018
16.37	1.27	0.019
16.88	1.339	0.019
17.5	1.554	0.02
17.87	1.602	0.021
18.68	1.887	0.022
18.88	1.914	0.022
19.89	2.292	0.024
19.92	2.275	0.024
22.07	3.008	0.027
22.39	3.128	0.027
24.19	3.954	0.03
24.65	4.164	0.031
26.25	5.152	0.034
26.81	5.435	0.035
28.29	6.385	0.036
28.93	6.753	0.037
30.32	7.684	0.057
31.03	8.128	0.058
32.33	8.99	0.06
33.13	9.536	0.061
34.33	10.38	0.06
35.2	11	0.06
36.32	11.81	0.07
37.25	12.52	0.07
38.3	13.35	0.07
39.28	14.15	0.07
40.26	14.9	0.07
41.3	15.82	0.07
42.24	16.56	0.08
43.32	17.46	0.08
44.2	18.2	0.08
45.33	19.09	0.08
46.15	19.83	0.08
47.32	20.83	0.08
48.11	21.55	0.09
49.31	22.69	0.09
50.05	23.34	0.09
51.3	24.49	0.09
52	25.19	0.09
53.27	26.44	0.1
54.01	27.12	0.1
55.36	28.45	0.1
55.96	29.03	0.1
57.33	30.22	0.1
57.9	30.67	0.1
59.3	31.71	0.1
59.83	32.05	0.11
61.27	33.56	0.11
61.77	33.91	0.11
63.23	35.52	0.11
63.7	35.89	0.11
64.2	35.89	0.11
65.63	37.85	0.12
67.12	39.54	0.12
67.54	39.64	0.12
69.06	40.89	0.12
69.44	41.18	0.12
71.3	43.04	0.13
71.66	43.09	0.13
73.82	44.76	0.13
74.19	45.15	0.13
76.34	46.89	0.13
76.7	47.17	0.14
78.84	48.84	0.14
79.2	49.16	0.14
81.33	50.79	0.14
81.7	51.1	0.14
83.78	53.21	0.15
83.82	52.72	0.15
84.21	53.01	0.15
86.33	54.65	0.15
86.6	55.36	0.15
86.72	54.98	0.15
89.31	57.48	0.16
90.37	57.91	0.26
92.03	59.54	0.26
93.49	60.3	0.26
94.74	61.61	0.26
96.55	62.65	0.26
97.46	63.48	0.26
99.61	64.95	0.27
100.16	65.51	0.27
102.68	67.09	0.27
102.87	67.57	0.27
105.57	69.31	0.27
105.73	69.22	0.27
108.27	71.09	0.27
108.79	71.24	0.27
110.97	72.92	0.27
111.84	73.2	0.27
113.67	74.46	0.27
114.89	75.06	0.28
116.37	76.13	0.28
117.94	76.88	0.28
119.07	77.86	0.28
120.99	78.66	0.28
121.76	79.38	0.28
124.03	80.43	0.28
124.45	80.97	0.28
127.08	82.09	0.28
127.18	82.45	0.28
129.87	83.8	0.28
130.12	83.66	0.28
132.55	85.3	0.29
133.15	85.25	0.29
135.24	86.52	0.29
136.19	86.8	0.29
137.92	87.83	0.29
139.26	88.23	0.29
140.6	89.17	0.29
142.3	89.75	0.29
143.28	90.48	0.29
145.32	91.09	0.29
145.96	91.71	0.29
148.35	92.39	0.29
148.63	92.87	0.29
151.37	93.72	0.29
151.48	94.06	0.29
154.39	95.06	0.3
154.52	95.47	0.3
157.44	96.36	0.3
157.57	96.6	0.3
160.48	97.61	0.3
160.62	97.8	0.3
163.52	98.77	0.3
163.66	99.07	0.3
166.57	99.94	0.3
166.71	100.2	0.3
169.61	100.9	0.3
169.75	101.4	0.3
172.66	102.2	0.3
172.86	102.5	0.3
175.71	103.2	0.3
175.91	103.5	0.3
178.75	104.2	0.3
178.96	104.6	0.3
182.01	105.6	0.3
185.06	106.6	0.3
188.11	107.7	0.3
191.15	108.6	0.3
194.2	109.6	0.3
197.25	110.5	0.3
200.3	111.4	0.3
203.35	112.2	0.3
206.39	113	0.3
209.45	113.8	0.3
212.5	114.7	0.3
215.54	115.5	0.3
218.59	116.2	0.3
218.74	116.5	0.3
221.69	117	0.3
221.78	116.7	0.3
224.73	117.7	0.3
224.84	117.6	0.3
227.77	118.5	0.3
230.81	119.3	0.3
233.84	119.9	0.3
236.88	120.6	0.3
239.91	121.1	0.3
242.93	121.8	0.3
245.95	122.9	0.3
248.97	123.2	0.3
251.99	123.9	0.3
255.01	124.7	0.3
258.03	125.1	0.3
260.11	125.4	0.3
261.03	125.5	0.3
263.11	125.9	0.3
264.03	126.2	0.3
266.13	126.6	0.3
267.02	126.8	0.3
267.89	126.6	0.3
270.02	127.5	0.3
270.86	127.1	0.3
273.8	127.6	0.3
276.73	128.3	0.3
279.65	128.9	0.3
282.55	129.4	0.3
285.44	129.9	0.3
288.32	130.2	0.3
291.18	130.5	0.3
294.01	131.3	0.3
296.83	131.9	0.3
299.63	132.3	0.3

System: sodium molybdate; phases: Crystal
Fixed: Pressure, kPa = 101.325
Property: Molar heat capacity at constant pressure, J/K/mol (Crystal); method: Vacuum adiabatic calorimetry
Temperature, K	Molar heat capacity at constant pressure, J/K/mol	uncertainty
82.74	51.73	0.14
82.75	51.75	0.14
92.72	59.77	0.26
92.74	59.81	0.26
101.57	66.18	0.27
101.59	66.21	0.27
110.36	72.14	0.27
110.38	72.17	0.27
119.15	77.54	0.28
119.17	77.59	0.28
127.93	82.42	0.28
127.96	82.43	0.28
136.51	86.78	0.29
136.55	86.8	0.29
144.75	90.64	0.29
144.79	90.67	0.29
152.69	94.14	0.29
152.74	94.17	0.29
160.4	97.33	0.3
160.45	97.34	0.3
167.9	100.2	0.3
167.96	100.3	0.3
175.22	102.9	0.3
175.29	102.9	0.3
182.39	105.3	0.3
182.47	105.4	0.3
189.41	107.6	0.3
189.51	107.7	0.3
196.31	109.7	0.3
196.42	109.8	0.3
203.09	111.6	0.3
203.22	111.7	0.3
210.25	113.7	0.3
210.41	113.7	0.3
217.9	115.8	0.3
218.08	115.8	0.3
225.44	117.7	0.3
225.63	117.7	0.3
232.86	119.4	0.3
233.08	119.4	0.3
240.18	121.1	0.3
240.41	121.1	0.3
247.41	122.7	0.3
247.65	122.7	0.3
254.54	124.2	0.3
254.79	124.1	0.3
261.59	125.7	0.3
261.84	125.6	0.3
268.55	127.1	0.3
268.8	127	0.3
275.42	128.5	0.3
275.67	128.4	0.3
282.22	129.8	0.3
282.45	129.7	0.3
288.95	131.1	0.3
289.15	130.9	0.3
295.6	132.4	0.3
295.75	132.1	0.3
302.17	133.6	0.3
302.26	133.3	0.3

System: sodium molybdate; phases: Crystal
Fixed: Pressure, kPa = 101.325
Property: Molar heat capacity at constant pressure, J/K/mol (Crystal); method: Vacuum adiabatic calorimetry
Temperature, K	Molar heat capacity at constant pressure, J/K/mol	uncertainty
10	0.286	0.012
12	0.496	0.014
14	0.788	0.016
16	1.174	0.018
18	1.67	0.021
20	2.285	0.024
25	4.38	0.031
30	7.248	0.056
35	10.76	0.06
40	14.74	0.07
45	19.02	0.08
50	23.45	0.09
60	32.49	0.11
70	41.37	0.12
80	49.87	0.14
90	57.85	0.26
100	65.25	0.27
110	72.02	0.27
120	78.19	0.28
130	83.79	0.28
140	88.86	0.29
150	93.46	0.29
160	97.87	0.3
170	101.4	0.3
180	104.9	0.3
190	108.1	0.3
200	111.1	0.3
210	113.9	0.3
220	116.4	0.3
230	118.8	0.3
240	121.1	0.3
250	123.3	0.3
260	125.3	0.3
270	127.2	0.3
280	129.1	0.3
290	130.9	0.3
300	132.6	0.3

System: sodium molybdate; phases: Crystal
Fixed: Pressure, kPa = 101.325
Property: Molar enthalpy, kJ/mol (Crystal); method: Vacuum adiabatic calorimetry
Temperature, K	Molar enthalpy, kJ/mol	uncertainty
10	0.000724	0.000106
12	0.001498	0.000131
14	0.002771	0.00016
16	0.004723	0.000192
18	0.007552	0.000228
20	0.01149	0.00027
25	0.02783	0.00039
30	0.05661	0.00132
35	0.1014	0.0016
40	0.165	0.002
45	0.2493	0.0023
50	0.3555	0.0028
60	0.6351	0.0037
70	1.005	0.005
80	1.461	0.006
90	2	0.02
100	2.616	0.023
110	3.303	0.025
120	4.055	0.028
130	4.865	0.031
140	5.729	0.034
150	6.641	0.037
160	7.596	0.04
170	8.592	0.043
180	9.624	0.046
190	10.69	0.049
200	11.79	0.052
210	12.91	0.055
220	14.06	0.058
230	15.24	0.061
240	16.44	0.064
250	17.66	0.068
260	18.9	0.071
270	20.17	0.074
280	21.45	0.077
290	22.75	0.081
300	24.06	0.084

System: sodium molybdate; phases: Crystal
Fixed: Pressure, kPa = 101.325
Property: Molar entropy, J/K/mol (Crystal); method: Vacuum adiabatic calorimetry
Temperature, K	Molar entropy, J/K/mol	uncertainty
10	0.096	0.0161
12	0.166	0.017
14	0.263	0.018
16	0.393	0.019
18	0.559	0.02
20	0.765	0.022
25	1.485	0.025
30	2.526	0.068
35	3.901	0.072
40	5.593	0.077
45	7.574	0.083
50	9.806	0.09
60	14.88	0.11
70	20.56	0.12
80	26.64	0.14
90	32.98	0.35
100	39.47	0.36
110	46.01	0.37
120	52.54	0.38
130	59.02	0.39
140	65.42	0.4
150	71.71	0.41
160	77.88	0.42
170	83.91	0.43
180	89.81	0.43
190	95.57	0.44
200	101.2	0.5
210	106.7	0.5
220	112	0.5
230	117.3	0.5
240	122.4	0.5
250	127.4	0.5
260	132.2	0.5
270	137	0.5
280	141.6	0.5
290	146.2	0.5
300	150.7	0.5
