Measured thermophysical data. Diffusion coefficient of 10-methylphenothiazine and dimethyl carbonate mixture from 288.15 K to 313.15 K
Source: Thermochim. Acta, 2017, 10.1016/j.tca.2017.08.010
Compound 1: 10-methylphenothiazine, C13H11NS, InChI=1S/C13H11NS/c1-14-10-6-2-4-8-12(10)15-13-9-5-3-7-11(13)14/h2-9H,1H3, purity 98%
Compound 2: dimethyl carbonate, C3H6O3, InChI=1S/C3H6O3/c1-5-3(4)6-2/h1-2H3, purity 99%
Compound 3: potassium chloride, ClK, InChI=1S/ClH.K/h1H;/q;+1/p-1, purity 99.5%
Compound 4: water, H2O, InChI=1S/H2O/h1H2, purity 99.8%

System: potassium chloride + water; phases: Liquid
Property: Binary diffusion coefficient, m2/s (Liquid); method: Optical method
Temperature, K	Molality, mol/kg of potassium chloride	Pressure, kPa	Binary diffusion coefficient, m2/s	uncertainty
298.15	0.342	101	1.811e-09	0.083

System: 10-methylphenothiazine + dimethyl carbonate; phases: Liquid
Fixed: Pressure, kPa = 101
Property: Binary diffusion coefficient, m2/s (Liquid); method: Optical method
Temperature, K	Molality, mol/kg of 10-methylphenothiazine	Binary diffusion coefficient, m2/s	uncertainty
288.15	0.023	9.16e-10	0.057
288.15	0.071	6.72e-10	0.035
288.15	0.119	8.56e-10	0.05
293.15	0.023	1.112e-09	0.067
293.15	0.071	8.44e-10	0.044
293.15	0.119	1.044e-09	0.06
298.15	0.023	1.316e-09	0.076
298.15	0.071	1.065e-09	0.056
298.15	0.119	1.258e-09	0.07
303.15	0.023	1.543e-09	0.086
303.15	0.071	1.316e-09	0.069
303.15	0.119	1.475e-09	0.08
308.15	0.023	1.791e-09	0.097
308.15	0.071	1.594e-09	0.083
308.15	0.119	1.711e-09	0.091
313.15	0.023	2.073e-09	0.11
313.15	0.071	1.924e-09	0.1
313.15	0.119	1.993e-09	0.104
