Measured thermophysical data. Experimental Determination and Modeling of Densities and Refractive Indices of the Binary  Systems Alcohol + Dicyclohexylamine at T = (288.15 to 323.15) K
Source: Thermochim. Acta, 2011, 10.1016/j.tca.2011.08.002
Compound 1: propan-1-ol, C3H8O, InChI=1S/C3H8O/c1-2-3-4/h4H,2-3H2,1H3, purity 99.5%
Compound 2: butan-1-ol, C4H10O, InChI=1S/C4H10O/c1-2-3-4-5/h5H,2-4H2,1H3, purity 99.5%
Compound 3: butan-2-ol, C4H10O, InChI=1S/C4H10O/c1-3-4(2)5/h4-5H,3H2,1-2H3, purity 99%
Compound 4: 2-methylpropan-2-ol, C4H10O, InChI=1S/C4H10O/c1-4(2,3)5/h5H,1-3H3, purity 99.7%
Compound 5: pentan-1-ol, C5H12O, InChI=1S/C5H12O/c1-2-3-4-5-6/h6H,2-5H2,1H3, purity 99%
Compound 6: N-cyclohexylcyclohexanamine, C12H23N, InChI=1S/C12H23N/c1-3-7-11(8-4-1)13-12-9-5-2-6-10-12/h11-13H,1-10H2, purity 99%

System: propan-1-ol; phases: Liquid
Fixed: Pressure, kPa = 101.325
Property: Refractive index (Na D-line) (Liquid); method: Standard Abbe refractometry
Temperature, K	Refractive index (Na D-line)	uncertainty
288.15	1.38785	0.00036
293.15	1.38578	0.00036
298.15	1.38364	0.00036
303.15	1.38153	0.00036
308.15	1.37929	0.00036
313.15	1.37702	0.00036
318.15	1.37483	0.00036
323.15	1.37252	0.00036

System: propan-1-ol; phases: Liquid
Fixed: Pressure, kPa = 101
Property: Mass density, kg/m3 (Liquid); method: Vibrating tube method
Temperature, K	Mass density, kg/m3	uncertainty
288.15	807.69	0.146
293.15	803.703	0.147
298.15	799.692	0.149
303.15	795.65	0.15
308.15	791.576	0.151
313.15	787.466	0.153
318.15	783.309	0.154
323.15	779.095	0.156

System: butan-1-ol; phases: Liquid
Fixed: Pressure, kPa = 101.325
Property: Refractive index (Na D-line) (Liquid); method: Standard Abbe refractometry
Temperature, K	Refractive index (Na D-line)	uncertainty
288.15	1.40135	0.00036
293.15	1.39932	0.00036
298.15	1.3973	0.00036
303.15	1.39523	0.00036
308.15	1.39318	0.00036
313.15	1.3911	0.00036
318.15	1.38901	0.00036
323.15	1.38688	0.00036

System: butan-1-ol; phases: Liquid
Fixed: Pressure, kPa = 101
Property: Mass density, kg/m3 (Liquid); method: Vibrating tube method
Temperature, K	Mass density, kg/m3	uncertainty
288.15	813.373	0.144
293.15	809.573	0.145
298.15	805.762	0.146
303.15	801.923	0.147
308.15	798.053	0.149
313.15	794.147	0.15
318.15	790.231	0.151
323.15	786.238	0.153

System: butan-2-ol; phases: Liquid
Fixed: Pressure, kPa = 101.325
Property: Refractive index (Na D-line) (Liquid); method: Standard Abbe refractometry
Temperature, K	Refractive index (Na D-line)	uncertainty
288.15	1.39951	0.0004
293.15	1.39736	0.0004
298.15	1.39515	0.0004
303.15	1.39293	0.0004
308.15	1.39064	0.0004
313.15	1.38832	0.0004
318.15	1.38596	0.0004
323.15	1.38352	0.0004

System: butan-2-ol; phases: Liquid
Fixed: Pressure, kPa = 101
Property: Mass density, kg/m3 (Liquid); method: Vibrating tube method
Temperature, K	Mass density, kg/m3	uncertainty
288.15	810.689	0.24
293.15	806.646	0.24
298.15	802.528	0.241
303.15	798.326	0.241
308.15	794.03	0.24
313.15	789.632	0.242
318.15	785.117	0.243
323.15	780.515	0.244

System: 2-methylpropan-2-ol; phases: Liquid
Fixed: Pressure, kPa = 101.325
Property: Refractive index (Na D-line) (Liquid); method: Standard Abbe refractometry
Temperature, K	Refractive index (Na D-line)	uncertainty
303.15	1.38222	0.00035
308.15	1.37947	0.00035
313.15	1.37667	0.00035
318.15	1.37384	0.00035
323.15	1.37097	0.00035

System: 2-methylpropan-2-ol; phases: Liquid
Fixed: Pressure, kPa = 101
Property: Mass density, kg/m3 (Liquid); method: Vibrating tube method
Temperature, K	Mass density, kg/m3	uncertainty
303.15	775.412	0.144
308.15	770.193	0.146
313.15	764.884	0.148
318.15	759.488	0.15
323.15	754.015	0.152

System: pentan-1-ol; phases: Liquid
Fixed: Pressure, kPa = 101.325
Property: Refractive index (Na D-line) (Liquid); method: Standard Abbe refractometry
Temperature, K	Refractive index (Na D-line)	uncertainty
288.15	1.41192	0.0004
293.15	1.40994	0.0004
298.15	1.40796	0.0004
303.15	1.40595	0.0004
308.15	1.40388	0.0004
313.15	1.40189	0.0004
318.15	1.39987	0.0004
323.15	1.39776	0.0004

System: pentan-1-ol; phases: Liquid
Fixed: Pressure, kPa = 101
Property: Mass density, kg/m3 (Liquid); method: Vibrating tube method
Temperature, K	Mass density, kg/m3	uncertainty
288.15	818.282	0.238
293.15	814.635	0.239
298.15	810.968	0.239
303.15	807.278	0.239
308.15	803.558	0.24
313.15	799.817	0.24
318.15	796.001	0.24
323.15	792.166	0.241

System: N-cyclohexylcyclohexanamine; phases: Liquid
Fixed: Pressure, kPa = 101.325
Property: Refractive index (Na D-line) (Liquid); method: Standard Abbe refractometry
Temperature, K	Refractive index (Na D-line)	uncertainty
288.15	1.48636	0.0004
293.15	1.48416	0.0004
298.15	1.48198	0.0004
303.15	1.47978	0.0004
308.15	1.47761	0.0004
313.15	1.47562	0.0004
318.15	1.47347	0.0004
323.15	1.47134	0.0004

System: N-cyclohexylcyclohexanamine; phases: Liquid
Fixed: Pressure, kPa = 101
Property: Mass density, kg/m3 (Liquid); method: Vibrating tube method
Temperature, K	Mass density, kg/m3	uncertainty
288.15	915.498	0.234
293.15	911.705	0.234
298.15	907.923	0.234
303.15	904.144	0.234
308.15	900.372	0.235
313.15	896.608	0.235
318.15	892.847	0.235
323.15	889.089	0.235

System: propan-1-ol + N-cyclohexylcyclohexanamine; phases: Liquid
Fixed: Pressure, kPa = 101
Property: Refractive index (Na D-line) (Liquid); method: Standard Abbe refractometry
Temperature, K	Mole fraction of propan-1-ol	Refractive index (Na D-line)	uncertainty
288.15	0	1.48636	0.0004
288.15	0.0527	1.48522	0.0004
288.15	0.1009	1.48396	0.0004
288.15	0.2004	1.48074	0.00039
288.15	0.3002	1.47672	0.00039
288.15	0.4003	1.47182	0.00038
288.15	0.5005	1.46554	0.00038
288.15	0.6	1.45743	0.00037
288.15	0.6998	1.44689	0.00037
288.15	0.8	1.4327	0.00037
288.15	0.8999	1.41365	0.00037
288.15	0.9491	1.40206	0.00037
288.15	1	1.38785	0.00036
293.15	0	1.48416	0.0004
293.15	0.0527	1.48299	0.0004
293.15	0.1009	1.48175	0.0004
293.15	0.2004	1.47851	0.00039
293.15	0.3002	1.47445	0.00039
293.15	0.4003	1.4695	0.00038
293.15	0.5005	1.4632	0.00038
293.15	0.6	1.45509	0.00038
293.15	0.6998	1.44458	0.00037
293.15	0.8	1.43047	0.00037
293.15	0.8999	1.41145	0.00037
293.15	0.9491	1.39989	0.00037
293.15	1	1.38578	0.00036
298.15	0	1.48198	0.0004
298.15	0.0527	1.48079	0.0004
298.15	0.1009	1.47952	0.0004
298.15	0.2004	1.47626	0.00039
298.15	0.3002	1.47217	0.00039
298.15	0.4003	1.46722	0.00038
298.15	0.5005	1.46088	0.00038
298.15	0.6	1.45273	0.00038
298.15	0.6998	1.44226	0.00037
298.15	0.8	1.4282	0.00037
298.15	0.8999	1.40927	0.00037
298.15	0.9491	1.3977	0.00037
298.15	1	1.38364	0.00036
303.15	0	1.47978	0.0004
303.15	0.0527	1.47861	0.0004
303.15	0.1009	1.47729	0.0004
303.15	0.2004	1.47402	0.00039
303.15	0.3002	1.4699	0.00039
303.15	0.4003	1.46491	0.00038
303.15	0.5005	1.45856	0.00038
303.15	0.6	1.4504	0.00038
303.15	0.6998	1.43992	0.00037
303.15	0.8	1.42592	0.00037
303.15	0.8999	1.40709	0.00037
303.15	0.9491	1.39547	0.00037
303.15	1	1.38153	0.00036
308.15	0	1.47761	0.0004
308.15	0.0527	1.47642	0.0004
308.15	0.1009	1.47508	0.0004
308.15	0.2004	1.47179	0.00039
308.15	0.3002	1.46765	0.00039
308.15	0.4003	1.46262	0.00038
308.15	0.5005	1.45625	0.00038
308.15	0.6	1.44805	0.00038
308.15	0.6998	1.43759	0.00037
308.15	0.8	1.42358	0.00037
308.15	0.8999	1.40482	0.00037
308.15	0.9491	1.39323	0.00037
308.15	1	1.37929	0.00036
313.15	0	1.47562	0.0004
313.15	0.0527	1.4743	0.0004
313.15	0.1009	1.47287	0.0004
313.15	0.2004	1.4695	0.00039
313.15	0.3002	1.46533	0.00039
313.15	0.4003	1.46024	0.00038
313.15	0.5005	1.45383	0.00038
313.15	0.6	1.44565	0.00038
313.15	0.6998	1.43509	0.00037
313.15	0.8	1.42112	0.00037
313.15	0.8999	1.40242	0.00037
313.15	0.9491	1.39093	0.00037
313.15	1	1.37702	0.00036
318.15	0	1.47347	0.0004
318.15	0.0527	1.47211	0.0004
318.15	0.1009	1.47068	0.0004
318.15	0.2004	1.4673	0.00039
318.15	0.3002	1.46306	0.00039
318.15	0.4003	1.45795	0.00038
318.15	0.5005	1.45151	0.00038
318.15	0.6	1.44331	0.00038
318.15	0.6998	1.43279	0.00037
318.15	0.8	1.41883	0.00037
318.15	0.8999	1.40021	0.00037
318.15	0.9491	1.38876	0.00037
318.15	1	1.37483	0.00036
323.15	0	1.47134	0.0004
323.15	0.0527	1.46997	0.0004
323.15	0.1009	1.46853	0.0004
323.15	0.2004	1.4651	0.00039
323.15	0.3002	1.46087	0.00039
323.15	0.4003	1.4557	0.00038
323.15	0.5005	1.4492	0.00038
323.15	0.6	1.44112	0.00038
323.15	0.6998	1.43046	0.00037
323.15	0.8	1.41649	0.00037
323.15	0.8999	1.39788	0.00037
323.15	0.9491	1.38638	0.00037
323.15	1	1.37252	0.00036

System: propan-1-ol + N-cyclohexylcyclohexanamine; phases: Liquid
Fixed: Pressure, kPa = 101
Property: Mass density, kg/m3 (Liquid); method: Vibrating tube method
Temperature, K	Mole fraction of propan-1-ol	Mass density, kg/m3	uncertainty
288.15	0	915.498	0.234
288.15	0.0527	914.71	0.226
288.15	0.1009	913.805	0.218
288.15	0.2004	911.438	0.203
288.15	0.3002	908.197	0.19
288.15	0.4003	903.914	0.177
288.15	0.5005	898.063	0.166
288.15	0.6	889.96	0.156
288.15	0.6998	878.617	0.149
288.15	0.8	862.501	0.145
288.15	0.8999	839.78	0.148
288.15	0.9491	825.362	0.155
288.15	1	807.69	0.146
293.15	0	911.705	0.234
293.15	0.0527	910.893	0.226
293.15	0.1009	909.957	0.219
293.15	0.2004	907.522	0.204
293.15	0.3002	904.203	0.191
293.15	0.4003	899.835	0.179
293.15	0.5005	893.905	0.169
293.15	0.6	885.737	0.161
293.15	0.6998	874.377	0.155
293.15	0.8	858.315	0.152
293.15	0.8999	835.696	0.153
293.15	0.9491	821.334	0.159
293.15	1	803.703	0.147
298.15	0	907.923	0.234
298.15	0.0527	907.079	0.226
298.15	0.1009	906.116	0.219
298.15	0.2004	903.612	0.205
298.15	0.3002	900.208	0.192
298.15	0.4003	895.758	0.18
298.15	0.5005	889.747	0.17
298.15	0.6	881.518	0.162
298.15	0.6998	870.137	0.156
298.15	0.8	854.115	0.153
298.15	0.8999	831.592	0.154
298.15	0.9491	817.281	0.16
298.15	1	799.692	0.149
303.15	0	904.144	0.234
303.15	0.0527	903.271	0.226
303.15	0.1009	902.276	0.219
303.15	0.2004	899.7	0.205
303.15	0.3002	896.218	0.192
303.15	0.4003	891.683	0.181
303.15	0.5005	885.59	0.171
303.15	0.6	877.299	0.162
303.15	0.6998	865.887	0.157
303.15	0.8	849.899	0.154
303.15	0.8999	827.461	0.155
303.15	0.9491	813.202	0.161
303.15	1	795.65	0.15
308.15	0	900.372	0.235
308.15	0.0527	899.466	0.226
308.15	0.1009	898.437	0.219
308.15	0.2004	895.78	0.205
308.15	0.3002	892.225	0.193
308.15	0.4003	887.605	0.181
308.15	0.5005	881.429	0.171
308.15	0.6	873.074	0.163
308.15	0.6998	861.626	0.158
308.15	0.8	845.662	0.156
308.15	0.8999	823.3	0.156
308.15	0.9491	809.088	0.162
308.15	1	791.576	0.151
313.15	0	896.608	0.235
313.15	0.0527	895.664	0.227
313.15	0.1009	894.6	0.22
313.15	0.2004	891.876	0.206
313.15	0.3002	888.227	0.193
313.15	0.4003	883.521	0.182
313.15	0.5005	877.263	0.172
313.15	0.6	868.843	0.164
313.15	0.6998	857.35	0.159
313.15	0.8	841.4	0.157
313.15	0.8999	819.106	0.158
313.15	0.9491	804.934	0.164
313.15	1	787.466	0.153
318.15	0	892.847	0.235
318.15	0.0527	891.862	0.227
318.15	0.1009	890.759	0.22
318.15	0.2004	887.957	0.206
318.15	0.3002	884.225	0.194
318.15	0.4003	879.43	0.183
318.15	0.5005	873.086	0.173
318.15	0.6	864.613	0.165
318.15	0.6998	853.054	0.16
318.15	0.8	837.107	0.158
318.15	0.8999	814.869	0.159
318.15	0.9491	800.736	0.165
318.15	1	783.309	0.154
323.15	0	889.089	0.235
323.15	0.0527	888.061	0.227
323.15	0.1009	886.919	0.22
323.15	0.2004	884.032	0.208
323.15	0.3002	880.209	0.195
323.15	0.4003	875.326	0.185
323.15	0.5005	868.893	0.177
323.15	0.6	860.363	0.17
323.15	0.6998	848.736	0.167
323.15	0.8	832.782	0.169
323.15	0.8999	810.587	0.166
323.15	0.9491	796.489	0.17
323.15	1	779.095	0.156

System: butan-1-ol + N-cyclohexylcyclohexanamine; phases: Liquid
Fixed: Pressure, kPa = 101
Property: Refractive index (Na D-line) (Liquid); method: Standard Abbe refractometry
Temperature, K	Mole fraction of butan-1-ol	Refractive index (Na D-line)	uncertainty
288.15	0	1.48636	0.0004
288.15	0.0512	1.48502	0.0004
288.15	0.1	1.48368	0.0004
288.15	0.2005	1.48027	0.00039
288.15	0.3005	1.47614	0.00039
288.15	0.4005	1.47121	0.00038
288.15	0.5	1.46517	0.00038
288.15	0.6002	1.45768	0.00037
288.15	0.7002	1.44826	0.00037
288.15	0.7984	1.43656	0.00037
288.15	0.8999	1.42104	0.00037
288.15	0.9493	1.41197	0.00036
288.15	1	1.40135	0.00036
293.15	0	1.48416	0.0004
293.15	0.0512	1.4828	0.0004
293.15	0.1	1.48147	0.0004
293.15	0.2005	1.47804	0.00039
293.15	0.3005	1.4739	0.00039
293.15	0.4005	1.46892	0.00038
293.15	0.5	1.46289	0.00038
293.15	0.6002	1.45538	0.00038
293.15	0.7002	1.44587	0.00037
293.15	0.7984	1.43432	0.00037
293.15	0.8999	1.4189	0.00037
293.15	0.9493	1.40987	0.00037
293.15	1	1.39932	0.00036
298.15	0	1.48198	0.0004
298.15	0.0512	1.4806	0.0004
298.15	0.1	1.47926	0.0004
298.15	0.2005	1.47579	0.00039
298.15	0.3005	1.47165	0.00039
298.15	0.4005	1.46666	0.00038
298.15	0.5	1.46059	0.00038
298.15	0.6002	1.45309	0.00038
298.15	0.7002	1.44368	0.00037
298.15	0.7984	1.43208	0.00037
298.15	0.8999	1.41673	0.00037
298.15	0.9493	1.40779	0.00036
298.15	1	1.3973	0.00036
303.15	0	1.47978	0.0004
303.15	0.0512	1.47842	0.0004
303.15	0.1	1.47704	0.0004
303.15	0.2005	1.47358	0.00039
303.15	0.3005	1.46939	0.00039
303.15	0.4005	1.4644	0.00038
303.15	0.5	1.45831	0.00038
303.15	0.6002	1.4508	0.00038
303.15	0.7002	1.44139	0.00037
303.15	0.7984	1.42985	0.00037
303.15	0.8999	1.4146	0.00037
303.15	0.9493	1.40565	0.00037
303.15	1	1.39523	0.00036
308.15	0	1.47761	0.0004
308.15	0.0512	1.47623	0.0004
308.15	0.1	1.47485	0.0004
308.15	0.2005	1.47136	0.00039
308.15	0.3005	1.46716	0.00039
308.15	0.4005	1.46213	0.00038
308.15	0.5	1.45604	0.00038
308.15	0.6002	1.44852	0.00038
308.15	0.7002	1.43914	0.00037
308.15	0.7984	1.42763	0.00037
308.15	0.8999	1.41241	0.00037
308.15	0.9493	1.40352	0.00036
308.15	1	1.39318	0.00036
313.15	0	1.47562	0.0004
313.15	0.0512	1.47419	0.0004
313.15	0.1	1.47267	0.0004
313.15	0.2005	1.4691	0.00039
313.15	0.3005	1.46487	0.00039
313.15	0.4005	1.45979	0.00038
313.15	0.5	1.45368	0.00038
313.15	0.6002	1.44613	0.00038
313.15	0.7002	1.43676	0.00037
313.15	0.7984	1.42522	0.00037
313.15	0.8999	1.41016	0.00037
313.15	0.9493	1.40134	0.00036
313.15	1	1.3911	0.00036
318.15	0	1.47347	0.0004
318.15	0.0512	1.472	0.0004
318.15	0.1	1.47049	0.0004
318.15	0.2005	1.46689	0.00039
318.15	0.3005	1.46265	0.00039
318.15	0.4005	1.45753	0.00038
318.15	0.5	1.4514	0.00038
318.15	0.6002	1.44384	0.00038
318.15	0.7002	1.43447	0.00037
318.15	0.7984	1.42299	0.00037
318.15	0.8999	1.40798	0.00037
318.15	0.9493	1.39919	0.00036
318.15	1	1.38901	0.00036
323.15	0	1.47134	0.0004
323.15	0.0512	1.46985	0.0004
323.15	0.1	1.46835	0.0004
323.15	0.2005	1.46474	0.00039
323.15	0.3005	1.46049	0.00039
323.15	0.4005	1.45537	0.00038
323.15	0.5	1.4492	0.00038
323.15	0.6002	1.44162	0.00038
323.15	0.7002	1.43225	0.00037
323.15	0.7984	1.42074	0.00037
323.15	0.8999	1.40571	0.00037
323.15	0.9493	1.39701	0.00037
323.15	1	1.38688	0.00036

System: butan-1-ol + N-cyclohexylcyclohexanamine; phases: Liquid
Fixed: Pressure, kPa = 101
Property: Mass density, kg/m3 (Liquid); method: Vibrating tube method
Temperature, K	Mole fraction of butan-1-ol	Mass density, kg/m3	uncertainty
288.15	0	915.498	0.234
288.15	0.0512	914.315	0.226
288.15	0.1	912.993	0.218
288.15	0.2005	909.753	0.203
288.15	0.3005	905.695	0.19
288.15	0.4005	900.544	0.177
288.15	0.5	893.978	0.167
288.15	0.6002	885.407	0.157
288.15	0.7002	874.118	0.15
288.15	0.7984	859.411	0.146
288.15	0.8999	839.302	0.146
288.15	0.9493	827.33	0.15
288.15	1	813.373	0.144
293.15	0	911.705	0.234
293.15	0.0512	910.505	0.226
293.15	0.1	909.162	0.219
293.15	0.2005	905.869	0.204
293.15	0.3005	901.749	0.191
293.15	0.4005	896.535	0.18
293.15	0.5	889.912	0.17
293.15	0.6002	881.306	0.161
293.15	0.7002	870.025	0.155
293.15	0.7984	855.383	0.152
293.15	0.8999	835.393	0.15
293.15	0.9493	823.486	0.153
293.15	1	809.573	0.145
298.15	0	907.923	0.234
298.15	0.0512	906.698	0.226
298.15	0.1	905.333	0.219
298.15	0.2005	901.986	0.205
298.15	0.3005	897.806	0.192
298.15	0.4005	892.53	0.18
298.15	0.5	885.853	0.17
298.15	0.6002	877.207	0.162
298.15	0.7002	865.925	0.156
298.15	0.7984	851.344	0.153
298.15	0.8999	831.466	0.151
298.15	0.9493	819.618	0.154
298.15	1	805.762	0.146
303.15	0	904.144	0.234
303.15	0.0512	902.899	0.227
303.15	0.1	901.51	0.219
303.15	0.2005	898.104	0.205
303.15	0.3005	893.865	0.192
303.15	0.4005	888.526	0.181
303.15	0.5	881.79	0.17
303.15	0.6002	873.106	0.163
303.15	0.7002	861.822	0.157
303.15	0.7984	847.289	0.154
303.15	0.8999	827.516	0.153
303.15	0.9493	815.728	0.155
303.15	1	801.923	0.147
308.15	0	900.372	0.235
308.15	0.0512	899.101	0.227
308.15	0.1	897.686	0.22
308.15	0.2005	894.222	0.206
308.15	0.3005	889.919	0.193
308.15	0.4005	884.519	0.182
308.15	0.5	877.726	0.172
308.15	0.6002	868.997	0.164
308.15	0.7002	857.708	0.158
308.15	0.7984	843.219	0.155
308.15	0.8999	823.538	0.154
308.15	0.9493	811.807	0.156
308.15	1	798.053	0.149
313.15	0	896.608	0.235
313.15	0.0512	895.307	0.227
313.15	0.1	893.863	0.22
313.15	0.2005	890.338	0.206
313.15	0.3005	885.971	0.193
313.15	0.4005	880.507	0.182
313.15	0.5	873.654	0.173
313.15	0.6002	864.881	0.165
313.15	0.7002	853.579	0.159
313.15	0.7984	839.126	0.156
313.15	0.8999	819.533	0.155
313.15	0.9493	807.851	0.158
313.15	1	794.147	0.15
318.15	0	892.847	0.235
318.15	0.0512	891.512	0.227
318.15	0.1	890.04	0.22
318.15	0.2005	886.452	0.206
318.15	0.3005	882.018	0.194
318.15	0.4005	876.487	0.183
318.15	0.5	869.572	0.173
318.15	0.6002	860.75	0.166
318.15	0.7002	849.434	0.16
318.15	0.7984	835.005	0.157
318.15	0.8999	815.488	0.156
318.15	0.9493	803.854	0.159
318.15	1	790.231	0.151
323.15	0	889.089	0.235
323.15	0.0512	887.718	0.228
323.15	0.1	886.213	0.221
323.15	0.2005	882.559	0.208
323.15	0.3005	878.053	0.196
323.15	0.4005	872.455	0.185
323.15	0.5	865.476	0.176
323.15	0.6002	856.603	0.17
323.15	0.7002	845.267	0.166
323.15	0.7984	830.854	0.164
323.15	0.8999	811.404	0.161
323.15	0.9493	799.814	0.162
323.15	1	786.238	0.153

System: butan-2-ol + N-cyclohexylcyclohexanamine; phases: Liquid
Fixed: Pressure, kPa = 101
Property: Refractive index (Na D-line) (Liquid); method: Standard Abbe refractometry
Temperature, K	Mole fraction of butan-2-ol	Refractive index (Na D-line)	uncertainty
288.15	0	1.48636	0.0004
288.15	0.0996	1.48336	0.0004
288.15	0.1998	1.47951	0.0004
288.15	0.3	1.47497	0.0004
288.15	0.3998	1.46961	0.0004
288.15	0.5011	1.4629	0.0004
288.15	0.599	1.45516	0.0004
288.15	0.6999	1.44554	0.0004
288.15	0.7998	1.43365	0.0004
288.15	0.8996	1.41884	0.0004
288.15	0.9494	1.41002	0.0004
288.15	1	1.39951	0.0004
293.15	0	1.48416	0.0004
293.15	0.0996	1.48112	0.0004
293.15	0.1998	1.47724	0.0004
293.15	0.3	1.47268	0.0004
293.15	0.3998	1.46731	0.0004
293.15	0.5011	1.46057	0.0004
293.15	0.599	1.45283	0.0004
293.15	0.6999	1.44322	0.0004
293.15	0.7998	1.43136	0.0004
293.15	0.8996	1.41658	0.0004
293.15	0.9494	1.40783	0.0004
293.15	1	1.39736	0.0004
298.15	0	1.48198	0.0004
298.15	0.0996	1.47892	0.0004
298.15	0.1998	1.47499	0.0004
298.15	0.3	1.47041	0.0004
298.15	0.3998	1.465	0.0004
298.15	0.5011	1.45825	0.0004
298.15	0.599	1.4505	0.0004
298.15	0.6999	1.44088	0.0004
298.15	0.7998	1.42906	0.0004
298.15	0.8996	1.41432	0.0004
298.15	0.9494	1.40558	0.0004
298.15	1	1.39515	0.0004
303.15	0	1.47978	0.0004
303.15	0.0996	1.47667	0.0004
303.15	0.1998	1.47273	0.0004
303.15	0.3	1.46813	0.0004
303.15	0.3998	1.4627	0.0004
303.15	0.5011	1.45591	0.0004
303.15	0.599	1.44817	0.0004
303.15	0.6999	1.43852	0.0004
303.15	0.7998	1.42671	0.0004
303.15	0.8996	1.412	0.0004
303.15	0.9494	1.40329	0.0004
303.15	1	1.39293	0.0004
308.15	0	1.47761	0.0004
308.15	0.0996	1.47445	0.0004
308.15	0.1998	1.47046	0.0004
308.15	0.3	1.4658	0.0004
308.15	0.3998	1.46034	0.0004
308.15	0.5011	1.45358	0.0004
308.15	0.599	1.44577	0.0004
308.15	0.6999	1.43617	0.0004
308.15	0.7998	1.42437	0.0004
308.15	0.8996	1.40968	0.0004
308.15	0.9494	1.40094	0.0004
308.15	1	1.39064	0.0004
313.15	0	1.47562	0.0004
313.15	0.0996	1.4722	0.0004
313.15	0.1998	1.46818	0.0004
313.15	0.3	1.46347	0.0004
313.15	0.3998	1.45797	0.0004
313.15	0.5011	1.45115	0.0004
313.15	0.599	1.44326	0.0004
313.15	0.6999	1.43367	0.0004
313.15	0.7998	1.42179	0.0004
313.15	0.8996	1.40723	0.0004
313.15	0.9494	1.39851	0.0004
313.15	1	1.38832	0.0004
318.15	0	1.47347	0.0004
318.15	0.0996	1.46999	0.0004
318.15	0.1998	1.46593	0.0004
318.15	0.3	1.46119	0.0004
318.15	0.3998	1.45564	0.0004
318.15	0.5011	1.44879	0.0004
318.15	0.599	1.44089	0.0004
318.15	0.6999	1.43125	0.0004
318.15	0.7998	1.41937	0.0004
318.15	0.8996	1.40479	0.0004
318.15	0.9494	1.39613	0.0004
318.15	1	1.38596	0.0004
323.15	0	1.47134	0.0004
323.15	0.0996	1.46783	0.0004
323.15	0.1998	1.46374	0.0004
323.15	0.3	1.45889	0.0004
323.15	0.3998	1.45336	0.0004
323.15	0.5011	1.44656	0.0004
323.15	0.599	1.43856	0.0004
323.15	0.6999	1.42888	0.0004
323.15	0.7998	1.41694	0.0004
323.15	0.8996	1.40233	0.0004
323.15	0.9494	1.39357	0.0004
323.15	1	1.38352	0.0004

System: butan-2-ol + N-cyclohexylcyclohexanamine; phases: Liquid
Fixed: Pressure, kPa = 101
Property: Mass density, kg/m3 (Liquid); method: Vibrating tube method
Temperature, K	Mole fraction of butan-2-ol	Mass density, kg/m3	uncertainty
288.15	0	915.498	0.234
288.15	0.0996	912.349	0.234
288.15	0.1998	908.349	0.234
288.15	0.3	903.446	0.234
288.15	0.3998	897.469	0.235
288.15	0.5011	889.89	0.235
288.15	0.599	880.802	0.235
288.15	0.6999	869.241	0.236
288.15	0.7998	854.484	0.237
288.15	0.8996	835.606	0.24
288.15	0.9494	823.99	0.243
288.15	1	810.689	0.24
293.15	0	911.705	0.234
293.15	0.0996	908.493	0.235
293.15	0.1998	904.427	0.235
293.15	0.3	899.455	0.235
293.15	0.3998	893.416	0.236
293.15	0.5011	885.775	0.237
293.15	0.599	876.639	0.237
293.15	0.6999	865.057	0.239
293.15	0.7998	850.31	0.24
293.15	0.8996	831.493	0.242
293.15	0.9494	819.925	0.244
293.15	1	806.646	0.24
298.15	0	907.923	0.234
298.15	0.0996	904.633	0.235
298.15	0.1998	900.497	0.235
298.15	0.3	895.457	0.236
298.15	0.3998	889.353	0.236
298.15	0.5011	881.646	0.237
298.15	0.599	872.452	0.238
298.15	0.6999	860.838	0.239
298.15	0.7998	846.088	0.241
298.15	0.8996	827.317	0.242
298.15	0.9494	815.784	0.245
298.15	1	802.528	0.241
303.15	0	904.144	0.234
303.15	0.0996	900.775	0.235
303.15	0.1998	896.561	0.235
303.15	0.3	891.448	0.236
303.15	0.3998	885.272	0.236
303.15	0.5011	877.495	0.237
303.15	0.599	868.239	0.238
303.15	0.6999	856.586	0.239
303.15	0.7998	841.819	0.241
303.15	0.8996	823.072	0.243
303.15	0.9494	811.566	0.245
303.15	1	798.326	0.241
308.15	0	900.372	0.235
308.15	0.0996	896.914	0.235
308.15	0.1998	892.619	0.235
308.15	0.3	887.426	0.236
308.15	0.3998	881.174	0.237
308.15	0.5011	873.319	0.237
308.15	0.599	863.994	0.238
308.15	0.6999	852.289	0.239
308.15	0.7998	837.495	0.241
308.15	0.8996	818.755	0.243
308.15	0.9494	807.262	0.246
308.15	1	794.03	0.24
313.15	0	896.608	0.235
313.15	0.0996	893.053	0.235
313.15	0.1998	888.669	0.236
313.15	0.3	883.39	0.236
313.15	0.3998	877.057	0.237
313.15	0.5011	869.116	0.238
313.15	0.599	859.715	0.239
313.15	0.6999	847.947	0.24
313.15	0.7998	833.106	0.242
313.15	0.8996	814.354	0.244
313.15	0.9494	802.87	0.246
313.15	1	789.632	0.242
318.15	0	892.847	0.235
318.15	0.0996	889.189	0.235
318.15	0.1998	884.706	0.236
318.15	0.3	879.336	0.236
318.15	0.3998	872.915	0.237
318.15	0.5011	864.882	0.238
318.15	0.599	855.394	0.239
318.15	0.6999	843.552	0.24
318.15	0.7998	828.652	0.242
318.15	0.8996	809.861	0.244
318.15	0.9494	798.377	0.247
318.15	1	785.117	0.243
323.15	0	889.089	0.235
323.15	0.0996	885.321	0.236
323.15	0.1998	880.732	0.237
323.15	0.3	875.264	0.237
323.15	0.3998	868.746	0.239
323.15	0.5011	860.611	0.24
323.15	0.599	851.029	0.241
323.15	0.6999	839.101	0.244
323.15	0.7998	824.126	0.247
323.15	0.8996	805.292	0.248
323.15	0.9494	793.784	0.249
323.15	1	780.515	0.244

System: 2-methylpropan-2-ol + N-cyclohexylcyclohexanamine; phases: Liquid
Fixed: Pressure, kPa = 101
Property: Refractive index (Na D-line) (Liquid); method: Standard Abbe refractometry
Temperature, K	Mole fraction of 2-methylpropan-2-ol	Refractive index (Na D-line)	uncertainty
303.15	0	1.47978	0.0004
303.15	0.1	1.47584	0.00039
303.15	0.199	1.47107	0.00039
303.15	0.289	1.46609	0.00038
303.15	0.4	1.45896	0.00038
303.15	0.485	1.45238	0.00037
303.15	0.6	1.4423	0.00037
303.15	0.698	1.43185	0.00036
303.15	0.801	1.41877	0.00036
303.15	0.849	1.41128	0.00036
303.15	0.9	1.40275	0.00036
303.15	1	1.38222	0.00035
308.15	0	1.47761	0.0004
308.15	0.1	1.47362	0.00039
308.15	0.199	1.46875	0.00039
308.15	0.289	1.46373	0.00038
308.15	0.4	1.4565	0.00038
308.15	0.485	1.44994	0.00037
308.15	0.6	1.43973	0.00037
308.15	0.698	1.42927	0.00036
308.15	0.801	1.41609	0.00036
308.15	0.849	1.40862	0.00036
308.15	0.9	1.40004	0.00036
308.15	1	1.37947	0.00035
313.15	0	1.47562	0.0004
313.15	0.1	1.47142	0.00039
313.15	0.199	1.46639	0.00039
313.15	0.289	1.46133	0.00038
313.15	0.4	1.45403	0.00038
313.15	0.485	1.44742	0.00037
313.15	0.6	1.43717	0.00037
313.15	0.698	1.42663	0.00036
313.15	0.801	1.41336	0.00036
313.15	0.849	1.40587	0.00036
313.15	0.9	1.39727	0.00036
313.15	1	1.37667	0.00035
318.15	0	1.47347	0.0004
318.15	0.1	1.46916	0.00039
318.15	0.199	1.4641	0.00039
318.15	0.289	1.45899	0.00038
318.15	0.4	1.45163	0.00038
318.15	0.485	1.44498	0.00037
318.15	0.6	1.43461	0.00037
318.15	0.698	1.42401	0.00036
318.15	0.801	1.41073	0.00036
318.15	0.849	1.40316	0.00036
318.15	0.9	1.39449	0.00036
318.15	1	1.37384	0.00035
323.15	0	1.47134	0.0004
323.15	0.1	1.467	0.00039
323.15	0.199	1.46188	0.00039
323.15	0.289	1.45674	0.00038
323.15	0.4	1.44932	0.00038
323.15	0.485	1.44272	0.00037
323.15	0.6	1.43215	0.00037
323.15	0.698	1.42155	0.00036
323.15	0.801	1.4081	0.00036
323.15	0.849	1.40048	0.00036
323.15	0.9	1.39193	0.00036
323.15	1	1.37097	0.00035

System: 2-methylpropan-2-ol + N-cyclohexylcyclohexanamine; phases: Liquid
Fixed: Pressure, kPa = 101
Property: Mass density, kg/m3 (Liquid); method: Vibrating tube method
Temperature, K	Mole fraction of 2-methylpropan-2-ol	Mass density, kg/m3	uncertainty
303.15	0	904.144	0.234
303.15	0.1	899.362	0.213
303.15	0.199	893.462	0.195
303.15	0.289	887.197	0.18
303.15	0.4	878.023	0.165
303.15	0.485	869.715	0.155
303.15	0.6	856.549	0.145
303.15	0.698	843.066	0.139
303.15	0.801	825.644	0.139
303.15	0.849	815.948	0.142
303.15	0.9	804.266	0.143
303.15	1	775.412	0.144
308.15	0	900.372	0.235
308.15	0.1	895.452	0.214
308.15	0.199	889.433	0.196
308.15	0.289	883.071	0.182
308.15	0.4	873.772	0.167
308.15	0.485	865.366	0.158
308.15	0.6	852.061	0.149
308.15	0.698	838.44	0.145
308.15	0.801	820.845	0.144
308.15	0.849	811.061	0.146
308.15	0.9	799.276	0.151
308.15	1	770.193	0.146
313.15	0	896.608	0.235
313.15	0.1	891.533	0.215
313.15	0.199	885.384	0.197
313.15	0.289	878.917	0.183
313.15	0.4	869.49	0.168
313.15	0.485	860.973	0.16
313.15	0.6	847.522	0.151
313.15	0.698	833.751	0.147
313.15	0.801	815.974	0.145
313.15	0.849	806.1	0.148
313.15	0.9	794.206	0.153
313.15	1	764.884	0.148
318.15	0	892.847	0.235
318.15	0.1	887.611	0.215
318.15	0.199	881.326	0.197
318.15	0.289	874.742	0.184
318.15	0.4	865.171	0.169
318.15	0.485	856.539	0.161
318.15	0.6	842.928	0.152
318.15	0.698	829.003	0.148
318.15	0.801	811.036	0.147
318.15	0.849	801.065	0.15
318.15	0.9	789.061	0.155
318.15	1	759.488	0.15
323.15	0	889.089	0.235
323.15	0.1	883.684	0.216
323.15	0.199	877.25	0.199
323.15	0.289	870.544	0.186
323.15	0.4	860.821	0.172
323.15	0.485	852.063	0.164
323.15	0.6	838.281	0.157
323.15	0.698	824.196	0.155
323.15	0.801	806.029	0.153
323.15	0.849	795.955	0.154
323.15	0.9	783.837	0.163
323.15	1	754.015	0.152

System: pentan-1-ol + N-cyclohexylcyclohexanamine; phases: Liquid
Fixed: Pressure, kPa = 101
Property: Refractive index (Na D-line) (Liquid); method: Standard Abbe refractometry
Temperature, K	Mole fraction of pentan-1-ol	Refractive index (Na D-line)	uncertainty
288.15	0	1.48636	0.0004
288.15	0.0525	1.48486	0.0004
288.15	0.1	1.48356	0.0004
288.15	0.2006	1.47999	0.0004
288.15	0.2999	1.47587	0.0004
288.15	0.3985	1.47109	0.0004
288.15	0.5001	1.46523	0.0004
288.15	0.5999	1.45834	0.0004
288.15	0.6992	1.45002	0.0004
288.15	0.7993	1.43976	0.0004
288.15	0.8997	1.42718	0.0004
288.15	0.9495	1.41998	0.0004
288.15	1	1.41192	0.0004
293.15	0	1.48416	0.0004
293.15	0.0525	1.48266	0.0004
293.15	0.1	1.48135	0.0004
293.15	0.2006	1.47776	0.0004
293.15	0.2999	1.47364	0.0004
293.15	0.3985	1.46884	0.0004
293.15	0.5001	1.46298	0.0004
293.15	0.5999	1.4561	0.0004
293.15	0.6992	1.4478	0.0004
293.15	0.7993	1.4376	0.0004
293.15	0.8997	1.4251	0.0004
293.15	0.9495	1.41796	0.0004
293.15	1	1.40994	0.0004
298.15	0	1.48198	0.0004
298.15	0.0525	1.48047	0.0004
298.15	0.1	1.47916	0.0004
298.15	0.2006	1.47554	0.0004
298.15	0.2999	1.47141	0.0004
298.15	0.3985	1.4666	0.0004
298.15	0.5001	1.46073	0.0004
298.15	0.5999	1.45386	0.0004
298.15	0.6992	1.44555	0.0004
298.15	0.7993	1.43542	0.0004
298.15	0.8997	1.42299	0.0004
298.15	0.9495	1.41591	0.0004
298.15	1	1.40796	0.0004
303.15	0	1.47978	0.0004
303.15	0.0525	1.47828	0.0004
303.15	0.1	1.47694	0.0004
303.15	0.2006	1.47333	0.0004
303.15	0.2999	1.46918	0.0004
303.15	0.3985	1.46437	0.0004
303.15	0.5001	1.4585	0.0004
303.15	0.5999	1.45162	0.0004
303.15	0.6992	1.44334	0.0004
303.15	0.7993	1.43327	0.0004
303.15	0.8997	1.4209	0.0004
303.15	0.9495	1.41383	0.0004
303.15	1	1.40595	0.0004
308.15	0	1.47761	0.0004
308.15	0.0525	1.47608	0.0004
308.15	0.1	1.47475	0.0004
308.15	0.2006	1.47113	0.0004
308.15	0.2999	1.46696	0.0004
308.15	0.3985	1.46214	0.0004
308.15	0.5001	1.45627	0.0004
308.15	0.5999	1.44937	0.0004
308.15	0.6992	1.44113	0.0004
308.15	0.7993	1.43108	0.0004
308.15	0.8997	1.41881	0.0004
308.15	0.9495	1.41175	0.0004
308.15	1	1.40388	0.0004
313.15	0	1.47562	0.0004
313.15	0.0525	1.47406	0.0004
313.15	0.1	1.47258	0.0004
313.15	0.2006	1.4689	0.0004
313.15	0.2999	1.46472	0.0004
313.15	0.3985	1.45985	0.0004
313.15	0.5001	1.45396	0.0004
313.15	0.5999	1.44702	0.0004
313.15	0.6992	1.43878	0.0004
313.15	0.7993	1.42876	0.0004
313.15	0.8997	1.41655	0.0004
313.15	0.9495	1.40963	0.0004
313.15	1	1.40189	0.0004
318.15	0	1.47347	0.0004
318.15	0.0525	1.4719	0.0004
318.15	0.1	1.47041	0.0004
318.15	0.2006	1.46671	0.0004
318.15	0.2999	1.46251	0.0004
318.15	0.3985	1.45762	0.0004
318.15	0.5001	1.45172	0.0004
318.15	0.5999	1.4448	0.0004
318.15	0.6992	1.43659	0.0004
318.15	0.7993	1.42658	0.0004
318.15	0.8997	1.41445	0.0004
318.15	0.9495	1.40753	0.0004
318.15	1	1.39987	0.0004
323.15	0	1.47134	0.0004
323.15	0.0525	1.46975	0.0004
323.15	0.1	1.46826	0.0004
323.15	0.2006	1.46457	0.0004
323.15	0.2999	1.46034	0.0004
323.15	0.3985	1.45547	0.0004
323.15	0.5001	1.44954	0.0004
323.15	0.5999	1.44263	0.0004
323.15	0.6992	1.43439	0.0004
323.15	0.7993	1.42439	0.0004
323.15	0.8997	1.4123	0.0004
323.15	0.9495	1.40539	0.0004
323.15	1	1.39776	0.0004

System: pentan-1-ol + N-cyclohexylcyclohexanamine; phases: Liquid
Fixed: Pressure, kPa = 101
Property: Mass density, kg/m3 (Liquid); method: Vibrating tube method
Temperature, K	Mole fraction of pentan-1-ol	Mass density, kg/m3	uncertainty
288.15	0	915.498	0.234
288.15	0.0525	913.936	0.234
288.15	0.1	912.365	0.234
288.15	0.2006	908.415	0.234
288.15	0.2999	903.722	0.234
288.15	0.3985	898.063	0.234
288.15	0.5001	890.925	0.235
288.15	0.5999	882.166	0.235
288.15	0.6992	871.226	0.235
288.15	0.7993	857.281	0.236
288.15	0.8997	839.76	0.239
288.15	0.9495	829.611	0.241
288.15	1	818.282	0.238
293.15	0	911.705	0.234
293.15	0.0525	910.13	0.234
293.15	0.1	908.547	0.234
293.15	0.2006	904.561	0.235
293.15	0.2999	899.824	0.235
293.15	0.3985	894.123	0.236
293.15	0.5001	886.952	0.236
293.15	0.5999	878.178	0.237
293.15	0.6992	867.264	0.238
293.15	0.7993	853.399	0.239
293.15	0.8997	835.998	0.24
293.15	0.9495	825.915	0.242
293.15	1	814.635	0.239
298.15	0	907.923	0.234
298.15	0.0525	906.333	0.234
298.15	0.1	904.733	0.235
298.15	0.2006	900.708	0.235
298.15	0.2999	895.929	0.235
298.15	0.3985	890.185	0.236
298.15	0.5001	882.98	0.24
298.15	0.5999	874.191	0.237
298.15	0.6992	863.3	0.238
298.15	0.7993	849.507	0.239
298.15	0.8997	832.22	0.241
298.15	0.9495	822.199	0.242
298.15	1	810.968	0.239
303.15	0	904.144	0.234
303.15	0.0525	902.538	0.235
303.15	0.1	900.921	0.235
303.15	0.2006	896.855	0.235
303.15	0.2999	892.033	0.235
303.15	0.3985	886.249	0.236
303.15	0.5001	879.007	0.236
303.15	0.5999	870.203	0.237
303.15	0.6992	859.33	0.238
303.15	0.7993	845.602	0.239
303.15	0.8997	828.423	0.241
303.15	0.9495	818.461	0.242
303.15	1	807.278	0.239
308.15	0	900.372	0.235
308.15	0.0525	898.746	0.235
308.15	0.1	897.111	0.235
308.15	0.2006	893.001	0.235
308.15	0.2999	888.135	0.236
308.15	0.3985	882.309	0.236
308.15	0.5001	875.031	0.237
308.15	0.5999	866.208	0.237
308.15	0.6992	855.348	0.238
308.15	0.7993	841.678	0.24
308.15	0.8997	824.599	0.241
308.15	0.9495	814.694	0.243
308.15	1	803.558	0.24
313.15	0	896.608	0.235
313.15	0.0525	894.957	0.235
313.15	0.1	893.301	0.235
313.15	0.2006	889.146	0.235
313.15	0.2999	884.235	0.236
313.15	0.3985	878.364	0.236
313.15	0.5001	871.049	0.237
313.15	0.5999	862.207	0.238
313.15	0.6992	851.354	0.239
313.15	0.7993	837.734	0.24
313.15	0.8997	820.749	0.241
313.15	0.9495	810.896	0.243
313.15	1	799.817	0.24
318.15	0	892.847	0.235
318.15	0.0525	891.168	0.235
318.15	0.1	889.492	0.235
318.15	0.2006	885.287	0.236
318.15	0.2999	880.327	0.236
318.15	0.3985	874.411	0.236
318.15	0.5001	867.056	0.237
318.15	0.5999	858.189	0.238
318.15	0.6992	847.34	0.239
318.15	0.7993	833.766	0.24
318.15	0.8997	816.864	0.242
318.15	0.9495	807.06	0.24
318.15	1	796.001	0.24
323.15	0	889.089	0.235
323.15	0.0525	887.381	0.235
323.15	0.1	885.679	0.236
323.15	0.2006	881.423	0.236
323.15	0.2999	876.412	0.237
323.15	0.3985	870.446	0.238
323.15	0.5001	863.048	0.239
323.15	0.5999	854.154	0.24
323.15	0.6992	843.305	0.241
323.15	0.7993	829.767	0.243
323.15	0.8997	812.943	0.244
323.15	0.9495	803.186	0.244
323.15	1	792.166	0.241
