Measured thermophysical data. APPARENT MOLAR VOLUME, COMPRESSIBILITY AND VISCOMETRIC STUDIES OF SODIUM DODECYL BENZENE SULFONATE (SDBS) AND DODECYLTRIMETHYLAMMONIUM BROMIDE (DTAB) IN AQUEOUS AMINO ACID SOLUTIONS: A THERMO-ACOUSTIC APPROACH
Source: Thermochim. Acta, 2014, 10.1016/j.tca.2013.12.021
Compound 1: L-glutamine, C5H10N2O3, InChI=1S/C5H10N2O3/c6-3(5(9)10)1-2-4(7)8/h3H,1-2,6H2,(H2,7,8)(H,9,10)/t3-/m0/s1, purity 99%
Compound 2: sodium dodecylbenzenesulfonate (ILL DEFINED!), C18H29NaO3S, InChI=1S/C18H30O3S.Na/c1-2-3-4-5-6-7-8-9-10-11-14-17-15-12-13-16-18(17)22(19,20)21;/h12-13,15-16H,2-11,14H2,1H3,(H,19,20,21);/q;+1/p-1
Compound 3: dodecyltrimethylammonium bromide, C15H34BrN, InChI=1S/C15H34N.BrH/c1-5-6-7-8-9-10-11-12-13-14-15-16(2,3)4;/h5-15H2,1-4H3;1H/q+1;/p-1
Compound 4: L-histidine, C6H9N3O2, InChI=1S/C6H9N3O2/c7-5(6(10)11)1-4-2-8-3-9-4/h2-3,5H,1,7H2,(H,8,9)(H,10,11)/t5-/m0/s1, purity 99%
Compound 5: L-methionine, C5H11NO2S, InChI=1S/C5H11NO2S/c1-9-3-2-4(6)5(7)8/h4H,2-3,6H2,1H3,(H,7,8)/t4-/m0/s1, purity 98%
Compound 6: water, H2O, InChI=1S/H2O/h1H2, purity 99.8%

System: water; phases: Liquid
Fixed: Pressure, kPa = 101
Property: Mass density, kg/m3 (Liquid); method: Vibrating tube method
Temperature, K	Mass density, kg/m3	uncertainty
293.15	998.62	0.302
298.15	997.471	0.302
303.15	996.047	0.303
308.15	994.43	0.303
313.15	992.61	0.303
293.15	998.73	0.302
298.15	997.589	0.302
303.15	996.168	0.303
308.15	994.553	0.303
313.15	992.716	0.303

System: water; phases: Liquid
Fixed: Pressure, kPa = 101
Property: Speed of sound, m/s (Liquid); method: Sing-around technique in a fixed-path interferometer
Temperature, K	Speed of sound, m/s	uncertainty
293.15	1483.54	0.85
298.15	1497.48	0.85
303.15	1509.86	0.84
308.15	1520.47	0.84
313.15	1529.53	0.84
293.15	1483.58	0.85
298.15	1497.58	0.85
303.15	1510.03	0.84
308.15	1520.65	0.84
313.15	1529.69	0.84

System: L-glutamine + water + sodium dodecylbenzenesulfonate (ILL DEFINED!); phases: Liquid
Fixed: Pressure, kPa = 101
Property: Viscosity, Pa*s (Liquid); method: Capillary tube (Ostwald; Ubbelohde) method
Temperature, K	Molality, mol/kg of sodium dodecylbenzenesulfonate (ILL DEFINED!)	Solvent: Molality, mol/kg of L-glutamine	Viscosity, Pa*s	uncertainty
293.15	0.0003	0.01	0.0009813	5.977e-05
293.15	0.0006	0.01	0.00098229	5.983e-05
293.15	0.0009	0.01	0.00098392	5.993e-05
293.15	0.0012	0.01	0.00098605	6.005e-05
293.15	0.0015	0.01	0.00098825	6.019e-05
293.15	0.0018	0.01	0.00099045	6.033e-05
293.15	0.0021	0.01	0.00099202	6.042e-05
293.15	0.0024	0.01	0.00099451	6.058e-05
293.15	0.0027	0.01	0.0009975	6.076e-05
293.15	0.003	0.01	0.00100074	6.096e-05
298.15	0.0003	0.01	0.00084982	5.174e-05
298.15	0.0006	0.01	0.00085096	5.181e-05
298.15	0.0009	0.01	0.00085238	5.19e-05
298.15	0.0012	0.01	0.00085452	5.203e-05
298.15	0.0015	0.01	0.00085594	5.211e-05
298.15	0.0018	0.01	0.00085715	5.219e-05
298.15	0.0021	0.01	0.00085833	5.225e-05
298.15	0.0024	0.01	0.00086013	5.236e-05
298.15	0.0027	0.01	0.00086149	5.243e-05
298.15	0.003	0.01	0.00086407	5.259e-05
303.15	0.0003	0.01	0.00076843	4.674e-05
303.15	0.0006	0.01	0.00076882	4.677e-05
303.15	0.0009	0.01	0.00077016	4.685e-05
303.15	0.0012	0.01	0.00077199	4.696e-05
303.15	0.0015	0.01	0.0007745	4.711e-05
303.15	0.0018	0.01	0.00077645	4.722e-05
303.15	0.0021	0.01	0.00078136	4.752e-05
303.15	0.0024	0.01	0.00078653	4.783e-05
303.15	0.0027	0.01	0.00079618	4.841e-05
303.15	0.003	0.01	0.00079894	4.858e-05
308.15	0.0003	0.01	0.00069256	4.215e-05
308.15	0.0006	0.01	0.00069331	4.219e-05
308.15	0.0009	0.01	0.00069439	4.226e-05
308.15	0.0012	0.01	0.00069595	4.235e-05
308.15	0.0015	0.01	0.00069805	4.248e-05
308.15	0.0018	0.01	0.00070144	4.268e-05
308.15	0.0021	0.01	0.00070523	4.291e-05
308.15	0.0024	0.01	0.00070757	4.306e-05
308.15	0.0027	0.01	0.00071076	4.326e-05
308.15	0.003	0.01	0.00071242	4.336e-05
313.15	0.0003	0.01	0.00061736	3.76e-05
313.15	0.0006	0.01	0.00061898	3.77e-05
313.15	0.0009	0.01	0.00062017	3.777e-05
313.15	0.0012	0.01	0.00062206	3.788e-05
313.15	0.0015	0.01	0.00062375	3.798e-05
313.15	0.0018	0.01	0.00062673	3.817e-05
313.15	0.0021	0.01	0.00063037	3.839e-05
313.15	0.0024	0.01	0.00063312	3.855e-05
313.15	0.0027	0.01	0.00063438	3.863e-05
313.15	0.003	0.01	0.00063637	3.875e-05
293.15	0.0003	0.05	0.00098336	5.986e-05
293.15	0.0006	0.05	0.00098439	5.991e-05
293.15	0.0009	0.05	0.00098604	6.001e-05
293.15	0.0012	0.05	0.0009882	6.01e-05
293.15	0.0015	0.05	0.00099042	6.027e-05
293.15	0.0018	0.05	0.00099264	6.041e-05
293.15	0.0021	0.05	0.00099422	6.05e-05
293.15	0.0024	0.05	0.00099671	6.065e-05
293.15	0.0027	0.05	0.0009997	6.083e-05
293.15	0.003	0.05	0.00100296	6.104e-05
298.15	0.0003	0.05	0.00086241	5.249e-05
298.15	0.0006	0.05	0.00086542	5.267e-05
298.15	0.0009	0.05	0.0008684	5.285e-05
298.15	0.0012	0.05	0.00087049	5.297e-05
298.15	0.0015	0.05	0.00087295	5.312e-05
298.15	0.0018	0.05	0.00087511	5.324e-05
298.15	0.0021	0.05	0.00087788	5.341e-05
298.15	0.0024	0.05	0.00087972	5.352e-05
298.15	0.0027	0.05	0.00088176	5.364e-05
298.15	0.003	0.05	0.00088319	5.373e-05
303.15	0.0003	0.05	0.00077793	4.732e-05
303.15	0.0006	0.05	0.00078171	4.755e-05
303.15	0.0009	0.05	0.00078587	4.78e-05
303.15	0.0012	0.05	0.00078897	4.799e-05
303.15	0.0015	0.05	0.00079255	4.82e-05
303.15	0.0018	0.05	0.00079771	4.851e-05
303.15	0.0021	0.05	0.00080027	4.867e-05
303.15	0.0024	0.05	0.0008023	4.879e-05
303.15	0.0027	0.05	0.0008053	4.897e-05
303.15	0.003	0.05	0.00080878	4.918e-05
308.15	0.0003	0.05	0.00070442	4.286e-05
308.15	0.0006	0.05	0.00070606	4.296e-05
308.15	0.0009	0.05	0.00070776	4.307e-05
308.15	0.0012	0.05	0.00071014	4.321e-05
308.15	0.0015	0.05	0.00071334	4.341e-05
308.15	0.0018	0.05	0.00071603	4.358e-05
308.15	0.0021	0.05	0.00071874	4.374e-05
308.15	0.0024	0.05	0.00072156	4.391e-05
308.15	0.0027	0.05	0.0007253	4.414e-05
308.15	0.003	0.05	0.0007283	4.43e-05
313.15	0.0003	0.05	0.00062936	3.834e-05
313.15	0.0006	0.05	0.00063226	3.851e-05
313.15	0.0009	0.05	0.0006341	3.862e-05
313.15	0.0012	0.05	0.00063563	3.871e-05
313.15	0.0015	0.05	0.00063756	3.883e-05
313.15	0.0018	0.05	0.00063916	3.893e-05
313.15	0.0021	0.05	0.00064106	3.905e-05
313.15	0.0024	0.05	0.00064282	3.916e-05
313.15	0.0027	0.05	0.00064482	3.928e-05
313.15	0.003	0.05	0.00064672	3.941e-05
293.15	0.0003	0.1	0.000986	6.002e-05
293.15	0.0006	0.1	0.00098699	6.007e-05
293.15	0.0009	0.1	0.00098863	6.017e-05
293.15	0.0012	0.1	0.00099077	6.029e-05
293.15	0.0015	0.1	0.00099298	6.043e-05
293.15	0.0018	0.1	0.00099519	6.056e-05
293.15	0.0021	0.1	0.00099677	6.065e-05
293.15	0.0024	0.1	0.00099928	6.081e-05
293.15	0.0027	0.1	0.00100229	6.099e-05
293.15	0.003	0.1	0.00100554	6.119e-05
298.15	0.0003	0.1	0.0008647	5.263e-05
298.15	0.0006	0.1	0.00086771	5.281e-05
298.15	0.0009	0.1	0.00087067	5.298e-05
298.15	0.0012	0.1	0.00087276	5.311e-05
298.15	0.0015	0.1	0.00087522	5.325e-05
298.15	0.0018	0.1	0.00087737	5.338e-05
298.15	0.0021	0.1	0.00088014	5.355e-05
298.15	0.0024	0.1	0.00088199	5.366e-05
298.15	0.0027	0.1	0.00088403	5.378e-05
298.15	0.003	0.1	0.00088547	5.387e-05
303.15	0.0003	0.1	0.00077998	4.744e-05
303.15	0.0006	0.1	0.00078377	4.767e-05
303.15	0.0009	0.1	0.00078794	4.793e-05
303.15	0.0012	0.1	0.00079105	4.811e-05
303.15	0.0015	0.1	0.00079463	4.833e-05
303.15	0.0018	0.1	0.00079979	4.864e-05
303.15	0.0021	0.1	0.00080235	4.88e-05
303.15	0.0024	0.1	0.0008044	4.892e-05
303.15	0.0027	0.1	0.0008074	4.91e-05
303.15	0.003	0.1	0.00081088	4.931e-05
308.15	0.0003	0.1	0.00070628	4.297e-05
308.15	0.0006	0.1	0.00070792	4.307e-05
308.15	0.0009	0.1	0.00070962	4.318e-05
308.15	0.0012	0.1	0.00071201	4.333e-05
308.15	0.0015	0.1	0.0007152	4.352e-05
308.15	0.0018	0.1	0.0007179	4.369e-05
308.15	0.0021	0.1	0.00072063	4.386e-05
308.15	0.0024	0.1	0.00072346	4.403e-05
308.15	0.0027	0.1	0.0007272	4.425e-05
308.15	0.003	0.1	0.00073019	4.444e-05
313.15	0.0003	0.1	0.000631	3.843e-05
313.15	0.0006	0.1	0.00063391	3.86e-05
313.15	0.0009	0.1	0.00063574	3.871e-05
313.15	0.0012	0.1	0.00063729	3.88e-05
313.15	0.0015	0.1	0.00063922	3.892e-05
313.15	0.0018	0.1	0.00064083	3.902e-05
313.15	0.0021	0.1	0.00064273	3.914e-05
313.15	0.0024	0.1	0.0006445	3.925e-05
313.15	0.0027	0.1	0.0006465	3.938e-05
313.15	0.003	0.1	0.0006484	3.95e-05

System: L-glutamine + water + sodium dodecylbenzenesulfonate (ILL DEFINED!); phases: Liquid
Fixed: Pressure, kPa = 101
Property: Mass density, kg/m3 (Liquid); method: Vibrating tube method
Temperature, K	Molality, mol/kg of sodium dodecylbenzenesulfonate (ILL DEFINED!)	Solvent: Molality, mol/kg of L-glutamine	Mass density, kg/m3	uncertainty
293.15	0	0.01	998.763	0.525
293.15	0.0003	0.01	998.821	0.528
293.15	0.0006	0.01	998.885	0.532
293.15	0.0009	0.01	998.949	0.53
293.15	0.0012	0.01	999.009	0.529
293.15	0.0015	0.01	999.072	0.529
293.15	0.0018	0.01	999.132	0.531
293.15	0.0021	0.01	999.198	0.535
293.15	0.0024	0.01	999.264	0.535
293.15	0.0027	0.01	999.33	0.534
293.15	0.003	0.01	999.394	0.532
298.15	0	0.01	997.591	0.664
298.15	0.0003	0.01	997.648	0.525
298.15	0.0006	0.01	997.708	0.527
298.15	0.0009	0.01	997.769	0.527
298.15	0.0012	0.01	997.829	0.527
298.15	0.0015	0.01	997.89	0.531
298.15	0.0018	0.01	997.955	0.53
298.15	0.0021	0.01	998.015	0.529
298.15	0.0024	0.01	998.079	0.533
298.15	0.0027	0.01	998.145	0.535
298.15	0.003	0.01	998.212	0.489
303.15	0	0.01	996.184	0.647
303.15	0.0003	0.01	996.239	0.524
303.15	0.0006	0.01	996.3	0.526
303.15	0.0009	0.01	996.358	0.525
303.15	0.0012	0.01	996.418	0.528
303.15	0.0015	0.01	996.48	0.527
303.15	0.0018	0.01	996.539	0.527
303.15	0.0021	0.01	996.601	0.528
303.15	0.0024	0.01	996.662	0.528
303.15	0.0027	0.01	996.724	0.537
303.15	0.003	0.01	996.797	0.487
308.15	0	0.01	994.559	0.625
308.15	0.0003	0.01	994.612	0.522
308.15	0.0006	0.01	994.673	0.525
308.15	0.0009	0.01	994.731	0.524
308.15	0.0012	0.01	994.789	0.524
308.15	0.0015	0.01	994.848	0.524
308.15	0.0018	0.01	994.906	0.526
308.15	0.0021	0.01	994.967	0.53
308.15	0.0024	0.01	995.032	0.533
308.15	0.0027	0.01	995.097	0.53
308.15	0.003	0.01	995.158	0.487
313.15	0	0.01	992.74	0.51
313.15	0.0003	0.01	992.786	0.518
313.15	0.0006	0.01	992.847	0.525
313.15	0.0009	0.01	992.905	0.524
313.15	0.0012	0.01	992.965	0.524
313.15	0.0015	0.01	993.023	0.525
313.15	0.0018	0.01	993.084	0.526
313.15	0.0021	0.01	993.144	0.528
313.15	0.0024	0.01	993.207	0.532
313.15	0.0027	0.01	993.273	0.532
313.15	0.003	0.01	993.336	0.53
293.15	0	0.05	1000.926	0.489
293.15	0.0003	0.05	1000.922	0.514
293.15	0.0006	0.05	1001.021	0.576
293.15	0.0009	0.05	1001.105	0.568
293.15	0.0012	0.05	1001.194	0.56
293.15	0.0015	0.05	1001.269	0.547
293.15	0.0018	0.05	1001.341	0.548
293.15	0.0021	0.05	1001.417	0.544
293.15	0.0024	0.05	1001.484	0.531
293.15	0.0027	0.05	1001.541	0.532
293.15	0.003	0.05	1001.61	0.492
298.15	0	0.05	999.73	0.512
298.15	0.0003	0.05	999.726	0.502
298.15	0.0006	0.05	999.802	0.556
298.15	0.0009	0.05	999.886	0.558
298.15	0.0012	0.05	999.965	0.548
298.15	0.0015	0.05	1000.035	0.546
298.15	0.0018	0.05	1000.112	0.555
298.15	0.0021	0.05	1000.194	0.548
298.15	0.0024	0.05	1000.262	0.53
298.15	0.0027	0.05	1000.318	0.533
298.15	0.003	0.05	1000.39	0.489
303.15	0	0.05	998.294	0.5
303.15	0.0003	0.05	998.288	0.497
303.15	0.0006	0.05	998.352	0.533
303.15	0.0009	0.05	998.417	0.535
303.15	0.0012	0.05	998.484	0.542
303.15	0.0015	0.05	998.559	0.545
303.15	0.0018	0.05	998.63	0.542
303.15	0.0021	0.05	998.701	0.537
303.15	0.0024	0.05	998.765	0.532
303.15	0.0027	0.05	998.828	0.533
303.15	0.003	0.05	998.894	0.498
308.15	0	0.05	996.645	0.49
308.15	0.0003	0.05	996.635	0.496
308.15	0.0006	0.05	996.7	0.535
308.15	0.0009	0.05	996.768	0.537
308.15	0.0012	0.05	996.835	0.538
308.15	0.0015	0.05	996.905	0.537
308.15	0.0018	0.05	996.97	0.526
308.15	0.0021	0.05	997.024	0.528
308.15	0.0024	0.05	997.092	0.537
308.15	0.0027	0.05	997.16	0.542
308.15	0.003	0.05	997.235	0.497
313.15	0	0.05	994.826	0.49
313.15	0.0003	0.05	994.813	0.492
313.15	0.0006	0.05	994.871	0.527
313.15	0.0009	0.05	994.935	0.528
313.15	0.0012	0.05	994.994	0.524
313.15	0.0015	0.05	995.052	0.523
313.15	0.0018	0.05	995.108	0.524
313.15	0.0021	0.05	995.169	0.526
313.15	0.0024	0.05	995.227	0.53
313.15	0.0027	0.05	995.294	0.532
313.15	0.003	0.05	995.355	0.564
293.15	0	0.1	1003.61	0.491
293.15	0.0003	0.1	1003.609	0.501
293.15	0.0006	0.1	1003.669	0.531
293.15	0.0009	0.1	1003.73	0.535
293.15	0.0012	0.1	1003.796	0.537
293.15	0.0015	0.1	1003.86	0.53
293.15	0.0018	0.1	1003.921	0.54
293.15	0.0021	0.1	1003.994	0.547
293.15	0.0024	0.1	1004.065	0.548
293.15	0.0027	0.1	1004.139	0.538
293.15	0.003	0.1	1004.197	0.528
298.15	0	0.1	1002.392	0.546
298.15	0.0003	0.1	1002.389	0.499
298.15	0.0006	0.1	1002.448	0.527
298.15	0.0009	0.1	1002.505	0.534
298.15	0.0012	0.1	1002.575	0.537
298.15	0.0015	0.1	1002.636	0.531
298.15	0.0018	0.1	1002.698	0.538
298.15	0.0021	0.1	1002.769	0.542
298.15	0.0024	0.1	1002.837	0.538
298.15	0.0027	0.1	1002.902	0.539
298.15	0.003	0.1	1002.971	0.492
303.15	0	0.1	1000.949	0.524
303.15	0.0003	0.1	1000.936	0.495
303.15	0.0006	0.1	1000.995	0.528
303.15	0.0009	0.1	1001.055	0.533
303.15	0.0012	0.1	1001.122	0.532
303.15	0.0015	0.1	1001.18	0.53
303.15	0.0018	0.1	1001.245	0.536
303.15	0.0021	0.1	1001.312	0.538
303.15	0.0024	0.1	1001.379	0.535
303.15	0.0027	0.1	1001.442	0.528
303.15	0.003	0.1	1001.498	0.491
308.15	0	0.1	999.297	0.51
308.15	0.0003	0.1	999.274	0.491
308.15	0.0006	0.1	999.332	0.525
308.15	0.0009	0.1	999.391	0.531
308.15	0.0012	0.1	999.458	0.529
308.15	0.0015	0.1	999.514	0.528
308.15	0.0018	0.1	999.579	0.535
308.15	0.0021	0.1	999.646	0.537
308.15	0.0024	0.1	999.713	0.533
308.15	0.0027	0.1	999.775	0.521
308.15	0.003	0.1	999.823	0.49
313.15	0	0.1	997.443	0.496
313.15	0.0003	0.1	997.416	0.49
313.15	0.0006	0.1	997.474	0.526
313.15	0.0009	0.1	997.535	0.53
313.15	0.0012	0.1	997.599	0.528
313.15	0.0015	0.1	997.657	0.524
313.15	0.0018	0.1	997.715	0.527
313.15	0.0021	0.1	997.777	0.526
313.15	0.0024	0.1	997.833	0.53
313.15	0.0027	0.1	997.902	0.533
313.15	0.003	0.1	997.962	0.527

System: L-glutamine + water + sodium dodecylbenzenesulfonate (ILL DEFINED!); phases: Liquid
Fixed: Pressure, kPa = 101
Property: Speed of sound, m/s (Liquid); method: Sing-around technique in a fixed-path interferometer
Temperature, K	Molality, mol/kg of sodium dodecylbenzenesulfonate (ILL DEFINED!)	Solvent: Molality, mol/kg of L-glutamine	Speed of sound, m/s	uncertainty
293.15	0	0.01	1483.43	1.63
293.15	0.0003	0.01	1483.66	1.63
293.15	0.0006	0.01	1483.9	1.63
293.15	0.0009	0.01	1484	1.63
293.15	0.0012	0.01	1484.14	1.63
293.15	0.0015	0.01	1484.25	1.63
293.15	0.0018	0.01	1484.29	1.63
293.15	0.0021	0.01	1484.39	1.63
293.15	0.0024	0.01	1484.52	1.63
293.15	0.0027	0.01	1484.68	1.63
293.15	0.003	0.01	1484.82	1.63
298.15	0	0.01	1497.59	1.63
298.15	0.0003	0.01	1497.79	1.62
298.15	0.0006	0.01	1497.94	1.62
298.15	0.0009	0.01	1498.03	1.62
298.15	0.0012	0.01	1498.15	1.62
298.15	0.0015	0.01	1498.21	1.62
298.15	0.0018	0.01	1498.31	1.62
298.15	0.0021	0.01	1498.39	1.62
298.15	0.0024	0.01	1498.53	1.62
298.15	0.0027	0.01	1498.69	1.62
298.15	0.003	0.01	1498.81	1.62
303.15	0	0.01	1509.99	1.62
303.15	0.0003	0.01	1510.09	1.62
303.15	0.0006	0.01	1510.21	1.62
303.15	0.0009	0.01	1510.34	1.62
303.15	0.0012	0.01	1510.44	1.62
303.15	0.0015	0.01	1510.56	1.62
303.15	0.0018	0.01	1510.66	1.62
303.15	0.0021	0.01	1510.74	1.62
303.15	0.0024	0.01	1510.87	1.62
303.15	0.0027	0.01	1510.94	1.62
303.15	0.003	0.01	1511.08	1.62
308.15	0	0.01	1520.66	1.62
308.15	0.0003	0.01	1520.75	1.62
308.15	0.0006	0.01	1520.85	1.62
308.15	0.0009	0.01	1520.96	1.62
308.15	0.0012	0.01	1521.07	1.62
308.15	0.0015	0.01	1521.15	1.62
308.15	0.0018	0.01	1521.25	1.62
308.15	0.0021	0.01	1521.36	1.62
308.15	0.0024	0.01	1521.41	1.62
308.15	0.0027	0.01	1521.53	1.62
308.15	0.003	0.01	1521.64	1.62
313.15	0	0.01	1529.76	1.62
313.15	0.0003	0.01	1529.85	1.62
313.15	0.0006	0.01	1529.94	1.62
313.15	0.0009	0.01	1530.01	1.62
313.15	0.0012	0.01	1530.12	1.62
313.15	0.0015	0.01	1530.21	1.62
313.15	0.0018	0.01	1530.27	1.62
313.15	0.0021	0.01	1530.35	1.62
313.15	0.0024	0.01	1530.44	1.62
313.15	0.0027	0.01	1530.56	1.62
313.15	0.003	0.01	1530.67	1.62
293.15	0	0.05	1486.99	1.63
293.15	0.0003	0.05	1487.3	1.63
293.15	0.0006	0.05	1487.42	1.63
293.15	0.0009	0.05	1487.56	1.63
293.15	0.0012	0.05	1487.7	1.63
293.15	0.0015	0.05	1487.85	1.63
293.15	0.0018	0.05	1487.99	1.63
293.15	0.0021	0.05	1488.11	1.63
293.15	0.0024	0.05	1488.23	1.63
293.15	0.0027	0.05	1488.41	1.63
293.15	0.003	0.05	1488.54	1.63
298.15	0	0.05	1500.92	1.62
298.15	0.0003	0.05	1501.2	1.62
298.15	0.0006	0.05	1501.32	1.62
298.15	0.0009	0.05	1501.44	1.62
298.15	0.0012	0.05	1501.57	1.62
298.15	0.0015	0.05	1501.69	1.62
298.15	0.0018	0.05	1501.88	1.62
298.15	0.0021	0.05	1501.98	1.62
298.15	0.0024	0.05	1502.12	1.62
298.15	0.0027	0.05	1502.28	1.62
298.15	0.003	0.05	1502.41	1.62
303.15	0	0.05	1513.19	1.62
303.15	0.0003	0.05	1513.33	1.62
303.15	0.0006	0.05	1513.49	1.62
303.15	0.0009	0.05	1513.63	1.62
303.15	0.0012	0.05	1513.79	1.62
303.15	0.0015	0.05	1513.92	1.62
303.15	0.0018	0.05	1514.07	1.62
303.15	0.0021	0.05	1514.18	1.62
303.15	0.0024	0.05	1514.34	1.62
303.15	0.0027	0.05	1514.5	1.62
303.15	0.003	0.05	1514.62	1.62
308.15	0	0.05	1523.73	1.62
308.15	0.0003	0.05	1523.85	1.62
308.15	0.0006	0.05	1524.03	1.62
308.15	0.0009	0.05	1524.18	1.62
308.15	0.0012	0.05	1524.32	1.62
308.15	0.0015	0.05	1524.45	1.62
308.15	0.0018	0.05	1524.62	1.62
308.15	0.0021	0.05	1524.79	1.62
308.15	0.0024	0.05	1524.95	1.62
308.15	0.0027	0.05	1525.11	1.62
308.15	0.003	0.05	1525.22	1.62
313.15	0	0.05	1532.74	1.62
313.15	0.0003	0.05	1532.81	1.62
313.15	0.0006	0.05	1533	1.62
313.15	0.0009	0.05	1533.14	1.62
313.15	0.0012	0.05	1533.29	1.62
313.15	0.0015	0.05	1533.42	1.62
313.15	0.0018	0.05	1533.57	1.62
313.15	0.0021	0.05	1533.71	1.62
313.15	0.0024	0.05	1533.89	1.62
313.15	0.0027	0.05	1534.05	1.62
313.15	0.003	0.05	1534.16	1.62
293.15	0	0.1	1490.84	1.63
293.15	0.0003	0.1	1491.18	1.63
293.15	0.0006	0.1	1491.38	1.63
293.15	0.0009	0.1	1491.45	1.63
293.15	0.0012	0.1	1491.52	1.63
293.15	0.0015	0.1	1491.67	1.63
293.15	0.0018	0.1	1491.75	1.63
293.15	0.0021	0.1	1491.94	1.63
293.15	0.0024	0.1	1492.03	1.63
293.15	0.0027	0.1	1492.19	1.63
293.15	0.003	0.1	1492.25	1.63
298.15	0	0.1	1504.69	1.63
298.15	0.0003	0.1	1504.98	1.62
298.15	0.0006	0.1	1505.12	1.62
298.15	0.0009	0.1	1505.18	1.62
298.15	0.0012	0.1	1505.29	1.62
298.15	0.0015	0.1	1505.42	1.62
298.15	0.0018	0.1	1505.53	1.62
298.15	0.0021	0.1	1505.63	1.62
298.15	0.0024	0.1	1505.78	1.62
298.15	0.0027	0.1	1505.91	1.62
298.15	0.003	0.1	1505.96	1.62
303.15	0	0.1	1516.79	1.62
303.15	0.0003	0.1	1517.04	1.62
303.15	0.0006	0.1	1517.16	1.62
303.15	0.0009	0.1	1517.14	1.62
303.15	0.0012	0.1	1517.28	1.62
303.15	0.0015	0.1	1517.41	1.62
303.15	0.0018	0.1	1517.49	1.62
303.15	0.0021	0.1	1517.65	1.62
303.15	0.0024	0.1	1517.75	1.62
303.15	0.0027	0.1	1517.87	1.62
303.15	0.003	0.1	1517.91	1.62
308.15	0	0.1	1527.22	1.62
308.15	0.0003	0.1	1527.42	1.62
308.15	0.0006	0.1	1527.57	1.62
308.15	0.0009	0.1	1527.55	1.62
308.15	0.0012	0.1	1527.69	1.62
308.15	0.0015	0.1	1527.82	1.62
308.15	0.0018	0.1	1527.89	1.62
308.15	0.0021	0.1	1528.05	1.62
308.15	0.0024	0.1	1528.14	1.62
308.15	0.0027	0.1	1528.26	1.62
308.15	0.003	0.1	1528.29	1.62
313.15	0	0.1	1536.09	1.62
313.15	0.0003	0.1	1536.24	1.62
313.15	0.0006	0.1	1536.43	1.62
313.15	0.0009	0.1	1536.41	1.62
313.15	0.0012	0.1	1536.53	1.62
313.15	0.0015	0.1	1536.66	1.62
313.15	0.0018	0.1	1536.73	1.62
313.15	0.0021	0.1	1536.87	1.62
313.15	0.0024	0.1	1536.97	1.62
313.15	0.0027	0.1	1537.09	1.62
313.15	0.003	0.1	1537.11	1.62

System: L-glutamine + dodecyltrimethylammonium bromide + water; phases: Liquid
Fixed: Pressure, kPa = 101
Property: Viscosity, Pa*s (Liquid); method: Capillary tube (Ostwald; Ubbelohde) method
Temperature, K	Molality, mol/kg of dodecyltrimethylammonium bromide	Solvent: Molality, mol/kg of L-glutamine	Viscosity, Pa*s	uncertainty
293.15	0.003	0.01	0.00101825	6.177e-05
293.15	0.006	0.01	0.00101963	6.185e-05
293.15	0.009	0.01	0.00102438	6.214e-05
293.15	0.012	0.01	0.00102779	6.235e-05
293.15	0.015	0.01	0.00103624	6.288e-05
293.15	0.018	0.01	0.00104475	6.341e-05
293.15	0.021	0.01	0.00105148	6.382e-05
293.15	0.024	0.01	0.00105655	6.413e-05
293.15	0.027	0.01	0.00106218	6.447e-05
293.15	0.03	0.01	0.00106664	6.474e-05
298.15	0.003	0.01	0.0009055	5.493e-05
298.15	0.006	0.01	0.00090795	5.508e-05
298.15	0.009	0.01	0.00091063	5.524e-05
298.15	0.012	0.01	0.00091269	5.537e-05
298.15	0.015	0.01	0.00091424	5.547e-05
298.15	0.018	0.01	0.00091672	5.563e-05
298.15	0.021	0.01	0.00092149	5.593e-05
298.15	0.024	0.01	0.00092598	5.62e-05
298.15	0.027	0.01	0.00093171	5.655e-05
298.15	0.03	0.01	0.00093663	5.685e-05
303.15	0.003	0.01	0.00081863	4.966e-05
303.15	0.006	0.01	0.00082171	4.984e-05
303.15	0.009	0.01	0.00082358	4.995e-05
303.15	0.012	0.01	0.00082487	5.003e-05
303.15	0.015	0.01	0.00082677	5.015e-05
303.15	0.018	0.01	0.00082841	5.025e-05
303.15	0.021	0.01	0.00083229	5.049e-05
303.15	0.024	0.01	0.00083479	5.064e-05
303.15	0.027	0.01	0.0008372	5.079e-05
303.15	0.03	0.01	0.00084127	5.103e-05
308.15	0.003	0.01	0.00073495	4.459e-05
308.15	0.006	0.01	0.00073773	4.476e-05
308.15	0.009	0.01	0.00073978	4.488e-05
308.15	0.012	0.01	0.00074204	4.501e-05
308.15	0.015	0.01	0.00074366	4.511e-05
308.15	0.018	0.01	0.00074517	4.52e-05
308.15	0.021	0.01	0.00074679	4.53e-05
308.15	0.024	0.01	0.00074914	4.545e-05
308.15	0.027	0.01	0.00075378	4.572e-05
308.15	0.03	0.01	0.00075695	4.592e-05
313.15	0.003	0.01	0.00066623	4.042e-05
313.15	0.006	0.01	0.00066748	4.05e-05
313.15	0.009	0.01	0.00066974	4.064e-05
313.15	0.012	0.01	0.00067203	4.078e-05
313.15	0.015	0.01	0.00067408	4.09e-05
313.15	0.018	0.01	0.00067581	4.1e-05
313.15	0.021	0.01	0.00067723	4.109e-05
313.15	0.024	0.01	0.00067976	4.124e-05
313.15	0.027	0.01	0.00068278	4.143e-05
313.15	0.03	0.01	0.00068726	4.169e-05
293.15	0.003	0.05	0.00103349	6.275e-05
293.15	0.006	0.05	0.00103517	6.288e-05
293.15	0.009	0.05	0.00103649	6.296e-05
293.15	0.012	0.05	0.0010391	6.312e-05
293.15	0.015	0.05	0.00104062	6.322e-05
293.15	0.018	0.05	0.0010426	6.334e-05
293.15	0.021	0.05	0.00104539	6.352e-05
293.15	0.024	0.05	0.00105066	6.383e-05
293.15	0.027	0.05	0.00105339	6.4e-05
293.15	0.03	0.05	0.0010569	6.421e-05
298.15	0.003	0.05	0.00088434	5.372e-05
298.15	0.006	0.05	0.00088621	5.383e-05
298.15	0.009	0.05	0.0008888	5.399e-05
298.15	0.012	0.05	0.00089104	5.412e-05
298.15	0.015	0.05	0.00089329	5.426e-05
298.15	0.018	0.05	0.00089561	5.439e-05
298.15	0.021	0.05	0.00089811	5.455e-05
298.15	0.024	0.05	0.00090175	5.477e-05
298.15	0.027	0.05	0.00090569	5.5e-05
298.15	0.03	0.05	0.00090963	5.524e-05
303.15	0.003	0.05	0.00079703	4.834e-05
303.15	0.006	0.05	0.00079876	4.844e-05
303.15	0.009	0.05	0.00080062	4.856e-05
303.15	0.012	0.05	0.0008035	4.873e-05
303.15	0.015	0.05	0.00080519	4.883e-05
303.15	0.018	0.05	0.00080735	4.896e-05
303.15	0.021	0.05	0.00080984	4.911e-05
303.15	0.024	0.05	0.00081422	4.937e-05
303.15	0.027	0.05	0.00081843	4.963e-05
303.15	0.03	0.05	0.0008211	4.979e-05
308.15	0.003	0.05	0.00072539	4.4e-05
308.15	0.006	0.05	0.00072729	4.411e-05
308.15	0.009	0.05	0.00072949	4.424e-05
308.15	0.012	0.05	0.00073217	4.44e-05
308.15	0.015	0.05	0.00073421	4.453e-05
308.15	0.018	0.05	0.0007363	4.465e-05
308.15	0.021	0.05	0.00073914	4.483e-05
308.15	0.024	0.05	0.00074288	4.505e-05
308.15	0.027	0.05	0.0007469	4.53e-05
308.15	0.03	0.05	0.00075132	4.556e-05
313.15	0.003	0.05	0.0006551	3.976e-05
313.15	0.006	0.05	0.00065732	3.989e-05
313.15	0.009	0.05	0.00065996	4.005e-05
313.15	0.012	0.05	0.00066185	4.017e-05
313.15	0.015	0.05	0.00066391	4.029e-05
313.15	0.018	0.05	0.0006664	4.044e-05
313.15	0.021	0.05	0.00066808	4.054e-05
313.15	0.024	0.05	0.00067026	4.068e-05
313.15	0.027	0.05	0.00067406	4.091e-05
313.15	0.03	0.05	0.00067829	4.117e-05
293.15	0.003	0.1	0.00100392	6.098e-05
293.15	0.006	0.1	0.00100958	6.133e-05
293.15	0.009	0.1	0.0010146	6.164e-05
293.15	0.012	0.1	0.00102022	6.199e-05
293.15	0.015	0.1	0.00102497	6.229e-05
293.15	0.018	0.1	0.00103099	6.266e-05
293.15	0.021	0.1	0.0010342	6.285e-05
293.15	0.024	0.1	0.00103656	6.299e-05
293.15	0.027	0.1	0.00103919	6.314e-05
293.15	0.03	0.1	0.00104213	6.331e-05
298.15	0.003	0.1	0.00086665	5.262e-05
298.15	0.006	0.1	0.00086994	5.283e-05
298.15	0.009	0.1	0.00087267	5.3e-05
298.15	0.012	0.1	0.00087539	5.317e-05
298.15	0.015	0.1	0.00087761	5.331e-05
298.15	0.018	0.1	0.00088029	5.348e-05
298.15	0.021	0.1	0.00088463	5.374e-05
298.15	0.024	0.1	0.00088771	5.392e-05
298.15	0.027	0.1	0.00089197	5.417e-05
298.15	0.03	0.1	0.00089637	5.443e-05
303.15	0.003	0.1	0.00078409	4.754e-05
303.15	0.006	0.1	0.0007848	4.759e-05
303.15	0.009	0.1	0.00078807	4.778e-05
303.15	0.012	0.1	0.00079003	4.79e-05
303.15	0.015	0.1	0.00079159	4.8e-05
303.15	0.018	0.1	0.00079321	4.81e-05
303.15	0.021	0.1	0.00079687	4.832e-05
303.15	0.024	0.1	0.00080256	4.867e-05
303.15	0.027	0.1	0.00080723	4.895e-05
303.15	0.03	0.1	0.00081254	4.927e-05
308.15	0.003	0.1	0.00072105	4.375e-05
308.15	0.006	0.1	0.00072249	4.383e-05
308.15	0.009	0.1	0.00072459	4.395e-05
308.15	0.012	0.1	0.00072619	4.405e-05
308.15	0.015	0.1	0.00072806	4.416e-05
308.15	0.018	0.1	0.00072972	4.426e-05
308.15	0.021	0.1	0.00073188	4.44e-05
308.15	0.024	0.1	0.0007333	4.449e-05
308.15	0.027	0.1	0.00073577	4.464e-05
308.15	0.03	0.1	0.00073793	4.477e-05
313.15	0.003	0.1	0.00063411	3.855e-05
313.15	0.006	0.1	0.00063918	3.884e-05
313.15	0.009	0.1	0.00064163	3.899e-05
313.15	0.012	0.1	0.00064294	3.906e-05
313.15	0.015	0.1	0.0006448	3.918e-05
313.15	0.018	0.1	0.00064669	3.929e-05
313.15	0.021	0.1	0.00064831	3.939e-05
313.15	0.024	0.1	0.00065043	3.951e-05
313.15	0.027	0.1	0.00065263	3.965e-05
313.15	0.03	0.1	0.0006552	3.98e-05

System: L-glutamine + dodecyltrimethylammonium bromide + water; phases: Liquid
Fixed: Pressure, kPa = 101
Property: Mass density, kg/m3 (Liquid); method: Vibrating tube method
Temperature, K	Molality, mol/kg of dodecyltrimethylammonium bromide	Solvent: Molality, mol/kg of L-glutamine	Mass density, kg/m3	uncertainty
293.15	0	0.01	998.86	0.382
293.15	0.003	0.01	998.947	0.381
293.15	0.006	0.01	999.014	0.381
293.15	0.009	0.01	999.081	0.381
293.15	0.012	0.01	999.151	0.381
293.15	0.015	0.01	999.214	0.381
293.15	0.018	0.01	999.259	0.381
293.15	0.021	0.01	999.308	0.381
293.15	0.024	0.01	999.358	0.381
293.15	0.027	0.01	999.396	0.381
293.15	0.03	0.01	999.453	0.381
298.15	0	0.01	997.699	0.384
298.15	0.003	0.01	997.77	0.381
298.15	0.006	0.01	997.834	0.381
298.15	0.009	0.01	997.899	0.381
298.15	0.012	0.01	997.959	0.381
298.15	0.015	0.01	998.016	0.381
298.15	0.018	0.01	998.064	0.381
298.15	0.021	0.01	998.108	0.381
298.15	0.024	0.01	998.158	0.381
298.15	0.027	0.01	998.193	0.381
298.15	0.03	0.01	998.247	0.381
303.15	0	0.01	996.301	0.383
303.15	0.003	0.01	996.356	0.381
303.15	0.006	0.01	996.414	0.381
303.15	0.009	0.01	996.478	0.381
303.15	0.012	0.01	996.534	0.381
303.15	0.015	0.01	996.587	0.381
303.15	0.018	0.01	996.63	0.381
303.15	0.021	0.01	996.673	0.381
303.15	0.024	0.01	996.72	0.381
303.15	0.027	0.01	996.753	0.381
303.15	0.03	0.01	996.803	0.381
308.15	0	0.01	994.681	0.382
308.15	0.003	0.01	994.726	0.381
308.15	0.006	0.01	994.781	0.381
308.15	0.009	0.01	994.838	0.381
308.15	0.012	0.01	994.888	0.381
308.15	0.015	0.01	994.94	0.381
308.15	0.018	0.01	994.981	0.381
308.15	0.021	0.01	995.022	0.381
308.15	0.024	0.01	995.065	0.381
308.15	0.027	0.01	995.099	0.381
308.15	0.03	0.01	995.146	0.381
313.15	0	0.01	992.897	0.381
313.15	0.003	0.01	992.938	0.381
313.15	0.006	0.01	992.955	0.381
313.15	0.009	0.01	993.002	0.381
313.15	0.012	0.01	993.051	0.381
313.15	0.015	0.01	993.099	0.381
313.15	0.018	0.01	993.137	0.381
313.15	0.021	0.01	993.178	0.381
313.15	0.024	0.01	993.22	0.381
313.15	0.027	0.01	993.256	0.381
313.15	0.03	0.01	993.291	0.381
293.15	0	0.05	1001.059	0.385
293.15	0.003	0.05	1001.151	0.382
293.15	0.006	0.05	1001.213	0.382
293.15	0.009	0.05	1001.283	0.382
293.15	0.012	0.05	1001.35	0.382
293.15	0.015	0.05	1001.4	0.381
293.15	0.018	0.05	1001.447	0.381
293.15	0.021	0.05	1001.482	0.381
293.15	0.024	0.05	1001.534	0.382
293.15	0.027	0.05	1001.582	0.381
293.15	0.03	0.05	1001.62	0.381
298.15	0	0.05	999.877	0.385
298.15	0.003	0.05	999.949	0.381
298.15	0.006	0.05	1000.012	0.381
298.15	0.009	0.05	1000.077	0.381
298.15	0.012	0.05	1000.13	0.381
298.15	0.015	0.05	1000.2	0.381
298.15	0.018	0.05	1000.225	0.381
298.15	0.021	0.05	1000.261	0.381
298.15	0.024	0.05	1000.311	0.381
298.15	0.027	0.05	1000.353	0.381
298.15	0.03	0.05	1000.389	0.381
303.15	0	0.05	998.447	0.384
303.15	0.003	0.05	998.516	0.381
303.15	0.006	0.05	998.579	0.381
303.15	0.009	0.05	998.638	0.381
303.15	0.012	0.05	998.683	0.381
303.15	0.015	0.05	998.741	0.381
303.15	0.018	0.05	998.779	0.381
303.15	0.021	0.05	998.807	0.381
303.15	0.024	0.05	998.855	0.381
303.15	0.027	0.05	998.895	0.381
303.15	0.03	0.05	998.926	0.381
308.15	0	0.05	996.804	0.384
308.15	0.003	0.05	996.868	0.381
308.15	0.006	0.05	996.923	0.381
308.15	0.009	0.05	996.972	0.381
308.15	0.012	0.05	997.025	0.381
308.15	0.015	0.05	997.081	0.381
308.15	0.018	0.05	997.121	0.381
308.15	0.021	0.05	997.158	0.381
308.15	0.024	0.05	997.186	0.381
308.15	0.027	0.05	997.225	0.381
308.15	0.03	0.05	997.254	0.381
313.15	0	0.05	994.964	0.382
313.15	0.003	0.05	995.024	0.381
313.15	0.006	0.05	995.076	0.381
313.15	0.009	0.05	995.131	0.381
313.15	0.012	0.05	995.172	0.381
313.15	0.015	0.05	995.231	0.381
313.15	0.018	0.05	995.257	0.381
313.15	0.021	0.05	995.288	0.381
313.15	0.024	0.05	995.324	0.381
313.15	0.027	0.05	995.352	0.381
313.15	0.03	0.05	995.387	0.381
293.15	0	0.1	1003.545	0.384
293.15	0.003	0.1	1003.645	0.383
293.15	0.006	0.1	1003.721	0.383
293.15	0.009	0.1	1003.789	0.383
293.15	0.012	0.1	1003.851	0.383
293.15	0.015	0.1	1003.908	0.383
293.15	0.018	0.1	1003.98	0.383
293.15	0.021	0.1	1004.028	0.383
293.15	0.024	0.1	1004.06	0.383
293.15	0.027	0.1	1004.104	0.383
293.15	0.03	0.1	1004.144	0.383
298.15	0	0.1	1002.345	0.385
298.15	0.003	0.1	1002.422	0.382
298.15	0.006	0.1	1002.495	0.382
298.15	0.009	0.1	1002.55	0.382
298.15	0.012	0.1	1002.6	0.382
298.15	0.015	0.1	1002.669	0.382
298.15	0.018	0.1	1002.71	0.382
298.15	0.021	0.1	1002.758	0.382
298.15	0.024	0.1	1002.791	0.382
298.15	0.027	0.1	1002.829	0.382
298.15	0.03	0.1	1002.866	0.382
303.15	0	0.1	1000.895	0.384
303.15	0.003	0.1	1000.964	0.382
303.15	0.006	0.1	1001.031	0.382
303.15	0.009	0.1	1001.086	0.382
303.15	0.012	0.1	1001.136	0.382
303.15	0.015	0.1	1001.196	0.382
303.15	0.018	0.1	1001.247	0.381
303.15	0.021	0.1	1001.273	0.381
303.15	0.024	0.1	1001.31	0.381
303.15	0.027	0.1	1001.348	0.381
303.15	0.03	0.1	1001.381	0.381
308.15	0	0.1	999.234	0.383
308.15	0.003	0.1	999.295	0.381
308.15	0.006	0.1	999.361	0.381
308.15	0.009	0.1	999.412	0.381
308.15	0.012	0.1	999.461	0.381
308.15	0.015	0.1	999.515	0.381
308.15	0.018	0.1	999.556	0.381
308.15	0.021	0.1	999.585	0.381
308.15	0.024	0.1	999.625	0.381
308.15	0.027	0.1	999.659	0.381
308.15	0.03	0.1	999.693	0.381
313.15	0	0.1	997.382	0.381
313.15	0.003	0.1	997.422	0.381
313.15	0.006	0.1	997.489	0.381
313.15	0.009	0.1	997.546	0.381
313.15	0.012	0.1	997.589	0.381
313.15	0.015	0.1	997.641	0.381
313.15	0.018	0.1	997.684	0.381
313.15	0.021	0.1	997.721	0.381
313.15	0.024	0.1	997.755	0.381
313.15	0.027	0.1	997.779	0.381
313.15	0.03	0.1	997.804	0.381

System: L-glutamine + dodecyltrimethylammonium bromide + water; phases: Liquid
Fixed: Pressure, kPa = 101
Property: Speed of sound, m/s (Liquid); method: Sing-around technique in a fixed-path interferometer
Temperature, K	Molality, mol/kg of dodecyltrimethylammonium bromide	Solvent: Molality, mol/kg of L-glutamine	Speed of sound, m/s	uncertainty
293.15	0	0.01	1484.04	1.35
293.15	0.003	0.01	1484.44	1.35
293.15	0.006	0.01	1485.32	1.35
293.15	0.009	0.01	1486.2	1.35
293.15	0.012	0.01	1486.62	1.35
293.15	0.015	0.01	1487.11	1.35
293.15	0.018	0.01	1487.5	1.35
293.15	0.021	0.01	1487.63	1.35
293.15	0.024	0.01	1487.78	1.35
293.15	0.027	0.01	1487.7	1.35
293.15	0.03	0.01	1487.79	1.35
298.15	0	0.01	1498.11	1.35
298.15	0.003	0.01	1498.46	1.35
298.15	0.006	0.01	1499.22	1.35
298.15	0.009	0.01	1500.04	1.35
298.15	0.012	0.01	1500.47	1.35
298.15	0.015	0.01	1500.95	1.35
298.15	0.018	0.01	1501.21	1.35
298.15	0.021	0.01	1501.31	1.35
298.15	0.024	0.01	1501.4	1.35
298.15	0.027	0.01	1501.29	1.35
298.15	0.03	0.01	1501.41	1.35
303.15	0	0.01	1510.31	1.34
303.15	0.003	0.01	1510.77	1.34
303.15	0.006	0.01	1511.4	1.34
303.15	0.009	0.01	1512.11	1.34
303.15	0.012	0.01	1512.63	1.34
303.15	0.015	0.01	1513.04	1.34
303.15	0.018	0.01	1513.19	1.34
303.15	0.021	0.01	1513.28	1.34
303.15	0.024	0.01	1513.3	1.34
303.15	0.027	0.01	1513.29	1.34
303.15	0.03	0.01	1513.26	1.34
308.15	0	0.01	1521.01	1.34
308.15	0.003	0.01	1521.36	1.34
308.15	0.006	0.01	1521.97	1.34
308.15	0.009	0.01	1522.57	1.34
308.15	0.012	0.01	1523.04	1.34
308.15	0.015	0.01	1523.4	1.34
308.15	0.018	0.01	1523.56	1.34
308.15	0.021	0.01	1523.63	1.34
308.15	0.024	0.01	1523.6	1.34
308.15	0.027	0.01	1523.63	1.34
308.15	0.03	0.01	1523.55	1.34
313.15	0	0.01	1529.57	1.34
313.15	0.003	0.01	1529.85	1.34
313.15	0.006	0.01	1530.34	1.34
313.15	0.009	0.01	1530.94	1.34
313.15	0.012	0.01	1531.44	1.34
313.15	0.015	0.01	1531.74	1.34
313.15	0.018	0.01	1531.91	1.34
313.15	0.021	0.01	1531.95	1.34
313.15	0.024	0.01	1532.04	1.34
313.15	0.027	0.01	1532.1	1.34
313.15	0.03	0.01	1532.12	1.34
293.15	0	0.05	1487.17	1.35
293.15	0.003	0.05	1487.88	1.35
293.15	0.006	0.05	1488.68	1.35
293.15	0.009	0.05	1489.34	1.35
293.15	0.012	0.05	1490.06	1.35
293.15	0.015	0.05	1490.48	1.35
293.15	0.018	0.05	1490.85	1.35
293.15	0.021	0.05	1490.91	1.35
293.15	0.024	0.05	1491	1.35
293.15	0.027	0.05	1491.08	1.35
293.15	0.03	0.05	1491.1	1.35
298.15	0	0.05	1501.09	1.35
298.15	0.003	0.05	1501.8	1.35
298.15	0.006	0.05	1502.47	1.35
298.15	0.009	0.05	1503.11	1.35
298.15	0.012	0.05	1503.7	1.35
298.15	0.015	0.05	1504.15	1.35
298.15	0.018	0.05	1504.46	1.35
298.15	0.021	0.05	1504.5	1.35
298.15	0.024	0.05	1504.56	1.35
298.15	0.027	0.05	1504.59	1.35
298.15	0.03	0.05	1504.6	1.35
303.15	0	0.05	1513.33	1.34
303.15	0.003	0.05	1513.85	1.34
303.15	0.006	0.05	1514.5	1.34
303.15	0.009	0.05	1515.06	1.34
303.15	0.012	0.05	1515.61	1.34
303.15	0.015	0.05	1516.11	1.34
303.15	0.018	0.05	1516.32	1.34
303.15	0.021	0.05	1516.33	1.34
303.15	0.024	0.05	1516.36	1.34
303.15	0.027	0.05	1516.36	1.34
303.15	0.03	0.05	1516.35	1.34
308.15	0	0.05	1523.78	1.34
308.15	0.003	0.05	1524.35	1.34
308.15	0.006	0.05	1524.93	1.34
308.15	0.009	0.05	1525.45	1.34
308.15	0.012	0.05	1525.93	1.34
308.15	0.015	0.05	1526.39	1.34
308.15	0.018	0.05	1526.59	1.34
308.15	0.021	0.05	1526.58	1.34
308.15	0.024	0.05	1526.59	1.34
308.15	0.027	0.05	1526.56	1.34
308.15	0.03	0.05	1526.55	1.34
313.15	0	0.05	1532.42	1.34
313.15	0.003	0.05	1532.75	1.34
313.15	0.006	0.05	1533.27	1.34
313.15	0.009	0.05	1533.79	1.34
313.15	0.012	0.05	1534.39	1.34
313.15	0.015	0.05	1534.68	1.34
313.15	0.018	0.05	1535.09	1.34
313.15	0.021	0.05	1535.29	1.34
313.15	0.024	0.05	1535.26	1.34
313.15	0.027	0.05	1535.26	1.34
313.15	0.03	0.05	1535.26	1.34
293.15	0	0.1	1491.21	1.35
293.15	0.003	0.1	1491.74	1.35
293.15	0.006	0.1	1492.6	1.35
293.15	0.009	0.1	1493.31	1.35
293.15	0.012	0.1	1493.92	1.35
293.15	0.015	0.1	1494.62	1.35
293.15	0.018	0.1	1494.56	1.35
293.15	0.021	0.1	1494.67	1.35
293.15	0.024	0.1	1494.84	1.35
293.15	0.027	0.1	1494.85	1.35
293.15	0.03	0.1	1494.97	1.35
298.15	0	0.1	1505.01	1.35
298.15	0.003	0.1	1505.53	1.35
298.15	0.006	0.1	1506.26	1.35
298.15	0.009	0.1	1506.9	1.35
298.15	0.012	0.1	1507.4	1.35
298.15	0.015	0.1	1508.03	1.35
298.15	0.018	0.1	1508.07	1.35
298.15	0.021	0.1	1508.15	1.35
298.15	0.024	0.1	1508.2	1.35
298.15	0.027	0.1	1508.31	1.35
298.15	0.03	0.1	1508.36	1.35
303.15	0	0.1	1517.03	1.34
303.15	0.003	0.1	1517.48	1.34
303.15	0.006	0.1	1518.14	1.34
303.15	0.009	0.1	1518.74	1.34
303.15	0.012	0.1	1519.25	1.34
303.15	0.015	0.1	1519.83	1.34
303.15	0.018	0.1	1519.89	1.34
303.15	0.021	0.1	1519.94	1.34
303.15	0.024	0.1	1519.95	1.34
303.15	0.027	0.1	1519.94	1.34
303.15	0.03	0.1	1519.98	1.34
308.15	0	0.1	1527.44	1.34
308.15	0.003	0.1	1527.88	1.34
308.15	0.006	0.1	1528.46	1.34
308.15	0.009	0.1	1529.01	1.34
308.15	0.012	0.1	1529.45	1.34
308.15	0.015	0.1	1530	1.34
308.15	0.018	0.1	1530.06	1.34
308.15	0.021	0.1	1530.09	1.34
308.15	0.024	0.1	1530.07	1.34
308.15	0.027	0.1	1530.04	1.34
308.15	0.03	0.1	1530.06	1.34
313.15	0	0.1	1536.33	1.34
313.15	0.003	0.1	1536.72	1.34
313.15	0.006	0.1	1537.21	1.34
313.15	0.009	0.1	1537.71	1.34
313.15	0.012	0.1	1538.08	1.34
313.15	0.015	0.1	1538.53	1.34
313.15	0.018	0.1	1538.67	1.34
313.15	0.021	0.1	1538.67	1.34
313.15	0.024	0.1	1538.63	1.34
313.15	0.027	0.1	1538.59	1.34
313.15	0.03	0.1	1538.58	1.34

System: water + sodium dodecylbenzenesulfonate (ILL DEFINED!); phases: Liquid
Fixed: Pressure, kPa = 101
Property: Mass density, kg/m3 (Liquid); method: Vibrating tube method
Temperature, K	Molality, mol/kg of sodium dodecylbenzenesulfonate (ILL DEFINED!)	Mass density, kg/m3	uncertainty
293.15	0	998.62	0.348
293.15	0.0003	998.672	0.341
293.15	0.0006	998.715	0.344
293.15	0.0009	998.77	0.371
293.15	0.0012	998.844	0.379
293.15	0.0015	998.907	0.378
293.15	0.0018	998.98	0.401
293.15	0.0021	999.065	0.383
293.15	0.0024	999.121	0.379
293.15	0.0027	999.202	0.411
293.15	0.003	999.288	0.417
298.15	0	997.471	0.558
298.15	0.0003	997.52	0.337
298.15	0.0006	997.56	0.343
298.15	0.0009	997.617	0.362
298.15	0.0012	997.679	0.376
298.15	0.0015	997.751	0.372
298.15	0.0018	997.809	0.37
298.15	0.0021	997.879	0.377
298.15	0.0024	997.944	0.372
298.15	0.0027	998.009	0.379
298.15	0.003	998.081	0.304
303.15	0	996.047	0.456
303.15	0.0003	996.085	0.329
303.15	0.0006	996.125	0.337
303.15	0.0009	996.174	0.356
303.15	0.0012	996.238	0.373
303.15	0.0015	996.305	0.379
303.15	0.0018	996.375	0.377
303.15	0.0021	996.44	0.374
303.15	0.0024	996.507	0.37
303.15	0.0027	996.568	0.364
303.15	0.003	996.628	0.304
308.15	0	994.43	0.44
308.15	0.0003	994.458	0.319
308.15	0.0006	994.491	0.337
308.15	0.0009	994.547	0.355
308.15	0.0012	994.602	0.367
308.15	0.0015	994.671	0.375
308.15	0.0018	994.735	0.366
308.15	0.0021	994.794	0.357
308.15	0.0024	994.849	0.352
308.15	0.0027	994.902	0.366
308.15	0.003	994.972	0.304
313.15	0	992.61	0.306
313.15	0.0003	992.623	0.31
313.15	0.0006	992.65	0.334
313.15	0.0009	992.708	0.358
313.15	0.0012	992.765	0.352
313.15	0.0015	992.816	0.369
313.15	0.0018	992.891	0.366
313.15	0.0021	992.939	0.359
313.15	0.0024	993.007	0.366
313.15	0.0027	993.062	0.367
313.15	0.003	993.131	0.38

System: water + sodium dodecylbenzenesulfonate (ILL DEFINED!); phases: Liquid
Fixed: Pressure, kPa = 101
Property: Speed of sound, m/s (Liquid); method: Sing-around technique in a fixed-path interferometer
Temperature, K	Molality, mol/kg of sodium dodecylbenzenesulfonate (ILL DEFINED!)	Speed of sound, m/s	uncertainty
293.15	0	1483.54	0.85
293.15	0.0003	1483.66	0.85
293.15	0.0006	1483.79	0.85
293.15	0.0009	1483.92	0.85
293.15	0.0012	1484.05	0.85
293.15	0.0015	1484.18	0.85
293.15	0.0018	1484.29	0.85
293.15	0.0021	1484.4	0.85
293.15	0.0024	1484.53	0.85
293.15	0.0027	1484.68	0.85
293.15	0.003	1484.8	0.85
298.15	0	1497.48	0.85
298.15	0.0003	1497.59	0.85
298.15	0.0006	1497.7	0.85
298.15	0.0009	1497.82	0.85
298.15	0.0012	1497.95	0.85
298.15	0.0015	1498.1	0.85
298.15	0.0018	1498.22	0.85
298.15	0.0021	1498.34	0.85
298.15	0.0024	1498.46	0.85
298.15	0.0027	1498.58	0.85
298.15	0.003	1498.7	0.85
303.15	0	1509.86	0.84
303.15	0.0003	1509.95	0.84
303.15	0.0006	1510.04	0.84
303.15	0.0009	1510.17	0.84
303.15	0.0012	1510.3	0.84
303.15	0.0015	1510.43	0.84
303.15	0.0018	1510.58	0.84
303.15	0.0021	1510.67	0.84
303.15	0.0024	1510.82	0.84
303.15	0.0027	1510.95	0.84
303.15	0.003	1511.08	0.84
308.15	0	1520.47	0.84
308.15	0.0003	1520.56	0.84
308.15	0.0006	1520.66	0.84
308.15	0.0009	1520.78	0.84
308.15	0.0012	1520.9	0.84
308.15	0.0015	1521.03	0.84
308.15	0.0018	1521.13	0.84
308.15	0.0021	1521.27	0.84
308.15	0.0024	1521.37	0.84
308.15	0.0027	1521.46	0.84
308.15	0.003	1521.55	0.84
313.15	0	1529.53	0.84
313.15	0.0003	1529.59	0.84
313.15	0.0006	1529.68	0.84
313.15	0.0009	1529.8	0.84
313.15	0.0012	1529.92	0.84
313.15	0.0015	1530.05	0.84
313.15	0.0018	1530.18	0.84
313.15	0.0021	1530.32	0.84
313.15	0.0024	1530.45	0.84
313.15	0.0027	1530.58	0.84
313.15	0.003	1530.69	0.84

System: water + sodium dodecylbenzenesulfonate (ILL DEFINED!); phases: Liquid
Fixed: Pressure, kPa = 101
Property: Viscosity, Pa*s (Liquid); method: Capillary tube (Ostwald; Ubbelohde) method
Temperature, K	Molality, mol/kg of sodium dodecylbenzenesulfonate (ILL DEFINED!)	Viscosity, Pa*s	uncertainty
293.15	0.0003	0.0009811	5.94e-05
293.15	0.0006	0.0009821	5.94e-05
293.15	0.0009	0.0009837	5.95e-05
293.15	0.0012	0.0009859	5.97e-05
293.15	0.0015	0.0009881	5.98e-05
293.15	0.0018	0.0009903	5.99e-05
293.15	0.0021	0.0009919	6e-05
293.15	0.0024	0.0009944	6.02e-05
293.15	0.0027	0.0009974	6.04e-05
293.15	0.003	0.0010006	6.06e-05
298.15	0.0003	0.0008497	5.14e-05
298.15	0.0006	0.0008508	5.15e-05
298.15	0.0009	0.0008522	5.16e-05
298.15	0.0012	0.0008544	5.17e-05
298.15	0.0015	0.0008558	5.18e-05
298.15	0.0018	0.000857	5.18e-05
298.15	0.0021	0.0008582	5.19e-05
298.15	0.0024	0.00086	5.2e-05
298.15	0.0027	0.0008614	5.21e-05
298.15	0.003	0.000864	5.22e-05
303.15	0.0003	0.0007683	4.64e-05
303.15	0.0006	0.0007687	4.65e-05
303.15	0.0009	0.00077	4.65e-05
303.15	0.0012	0.0007718	4.66e-05
303.15	0.0015	0.0007744	4.68e-05
303.15	0.0018	0.0007763	4.69e-05
303.15	0.0021	0.0007812	4.72e-05
303.15	0.0024	0.0007864	4.75e-05
303.15	0.0027	0.000796	4.81e-05
303.15	0.003	0.0007988	4.83e-05
308.15	0.0003	0.0006924	4.19e-05
308.15	0.0006	0.0006932	4.19e-05
308.15	0.0009	0.0006943	4.2e-05
308.15	0.0012	0.0006958	4.21e-05
308.15	0.0015	0.0006979	4.22e-05
308.15	0.0018	0.0007013	4.24e-05
308.15	0.0021	0.0007051	4.26e-05
308.15	0.0024	0.0007074	4.28e-05
308.15	0.0027	0.0007106	4.3e-05
308.15	0.003	0.0007123	4.31e-05
313.15	0.0003	0.0006075	3.68e-05
313.15	0.0006	0.000609	3.69e-05
313.15	0.0009	0.0006102	3.7e-05
313.15	0.0012	0.0006121	3.71e-05
313.15	0.0015	0.0006138	3.72e-05
313.15	0.0018	0.0006167	3.73e-05
313.15	0.0021	0.0006203	3.76e-05
313.15	0.0024	0.000623	3.77e-05
313.15	0.0027	0.0006242	3.78e-05
313.15	0.003	0.0006262	3.79e-05

System: dodecyltrimethylammonium bromide + water; phases: Liquid
Fixed: Pressure, kPa = 101
Property: Mass density, kg/m3 (Liquid); method: Vibrating tube method
Temperature, K	Molality, mol/kg of dodecyltrimethylammonium bromide	Mass density, kg/m3	uncertainty
293.15	0	998.73	0.304
293.15	0.003	998.816	0.303
293.15	0.006	998.88	0.303
293.15	0.009	998.935	0.303
293.15	0.012	998.99	0.303
293.15	0.015	999.048	0.303
293.15	0.018	999.097	0.303
293.15	0.021	999.158	0.303
293.15	0.024	999.204	0.303
293.15	0.027	999.264	0.303
293.15	0.03	999.301	0.303
298.15	0	997.589	0.308
298.15	0.003	997.672	0.303
298.15	0.006	997.728	0.303
298.15	0.009	997.78	0.303
298.15	0.012	997.828	0.303
298.15	0.015	997.875	0.303
298.15	0.018	997.931	0.303
298.15	0.021	997.985	0.303
298.15	0.024	998.032	0.303
298.15	0.027	998.085	0.303
298.15	0.03	998.135	0.303
303.15	0	996.168	0.306
303.15	0.003	996.245	0.303
303.15	0.006	996.296	0.303
303.15	0.009	996.339	0.303
303.15	0.012	996.39	0.303
303.15	0.015	996.443	0.303
303.15	0.018	996.488	0.303
303.15	0.021	996.536	0.303
303.15	0.024	996.587	0.303
303.15	0.027	996.625	0.303
303.15	0.03	996.652	0.303
308.15	0	994.553	0.303
308.15	0.003	994.458	0.303
308.15	0.006	994.491	0.303
308.15	0.009	994.547	0.303
308.15	0.012	994.602	0.303
308.15	0.015	994.671	0.304
308.15	0.018	994.735	0.303
308.15	0.021	994.794	0.303
308.15	0.024	994.849	0.303
308.15	0.027	994.902	0.304
308.15	0.03	994.972	0.303
313.15	0	992.716	0.304
313.15	0.003	992.777	0.303
313.15	0.006	992.822	0.303
313.15	0.009	992.864	0.303
313.15	0.012	992.918	0.303
313.15	0.015	992.961	0.303
313.15	0.018	993.009	0.303
313.15	0.021	993.059	0.303
313.15	0.024	993.093	0.303
313.15	0.027	993.128	0.303
313.15	0.03	993.17	0.303

System: dodecyltrimethylammonium bromide + water; phases: Liquid
Fixed: Pressure, kPa = 101
Fixed: Frequency, MHz = 3
Property: Speed of sound, m/s (Liquid); method: Sing-around technique in a fixed-path interferometer
Temperature, K	Molality, mol/kg of dodecyltrimethylammonium bromide	Speed of sound, m/s	uncertainty
293.15	0	1483.58	0.85
293.15	0.003	1484.56	0.85
293.15	0.006	1485.24	0.85
293.15	0.009	1485.99	0.85
293.15	0.012	1486.72	0.85
293.15	0.015	1487.27	0.85
293.15	0.018	1487.48	0.85
293.15	0.021	1487.62	0.85
293.15	0.024	1487.78	0.85
293.15	0.027	1487.91	0.85
293.15	0.03	1488.04	0.85
298.15	0	1497.58	0.85
298.15	0.003	1498.43	0.85
298.15	0.006	1499.14	0.85
298.15	0.009	1499.8	0.85
298.15	0.012	1500.49	0.85
298.15	0.015	1501.02	0.85
298.15	0.018	1501.21	0.85
298.15	0.021	1501.35	0.85
298.15	0.024	1501.41	0.85
298.15	0.027	1501.34	0.85
298.15	0.03	1501.35	0.85
303.15	0	1510.03	0.84
303.15	0.003	1510.73	0.84
303.15	0.006	1511.28	0.84
303.15	0.009	1511.88	0.84
303.15	0.012	1512.52	0.84
303.15	0.015	1513.09	0.84
303.15	0.018	1513.27	0.84
303.15	0.021	1513.29	0.84
303.15	0.024	1513.33	0.84
303.15	0.027	1513.15	0.84
303.15	0.03	1513.2	0.84
308.15	0	1520.65	0.84
308.15	0.003	1521.29	0.84
308.15	0.006	1521.78	0.84
308.15	0.009	1522.34	0.84
308.15	0.012	1522.94	0.84
308.15	0.015	1523.43	0.84
308.15	0.018	1523.58	0.84
308.15	0.021	1523.63	0.84
308.15	0.024	1523.66	0.84
308.15	0.027	1523.44	0.84
308.15	0.03	1523.56	0.84
313.15	0	1529.69	0.84
313.15	0.003	1530.28	0.84
313.15	0.006	1530.72	0.84
313.15	0.009	1531.24	0.84
313.15	0.012	1531.84	0.84
313.15	0.015	1532.19	0.84
313.15	0.018	1532.39	0.84
313.15	0.021	1532.45	0.84
313.15	0.024	1532.52	0.84
313.15	0.027	1532.58	0.84
313.15	0.03	1532.6	0.84

System: dodecyltrimethylammonium bromide + water; phases: Liquid
Fixed: Pressure, kPa = 101
Property: Viscosity, Pa*s (Liquid); method: Capillary tube (Ostwald; Ubbelohde) method
Temperature, K	Molality, mol/kg of dodecyltrimethylammonium bromide	Viscosity, Pa*s	uncertainty
293.15	0.003	0.0009849	5.96e-05
293.15	0.006	0.0009858	5.97e-05
293.15	0.009	0.0009875	5.98e-05
293.15	0.012	0.0009896	5.99e-05
293.15	0.015	0.0009918	6e-05
293.15	0.018	0.000994	6.01e-05
293.15	0.021	0.0009955	6.02e-05
293.15	0.024	0.000998	6.04e-05
298.15	0.003	0.0008532	5.16e-05
298.15	0.006	0.0008544	5.17e-05
298.15	0.009	0.0008558	5.18e-05
298.15	0.012	0.0008579	5.19e-05
298.15	0.015	0.0008594	5.2e-05
298.15	0.018	0.0008605	5.21e-05
298.15	0.021	0.0008617	5.21e-05
298.15	0.024	0.0008635	5.22e-05
303.15	0.003	0.0007719	4.66e-05
303.15	0.006	0.0007722	4.67e-05
303.15	0.009	0.0007736	4.67e-05
303.15	0.012	0.0007754	4.69e-05
303.15	0.015	0.0007779	4.7e-05
303.15	0.018	0.0007798	4.71e-05
303.15	0.021	0.0007847	4.74e-05
303.15	0.024	0.0007865	4.75e-05
308.15	0.003	0.0006959	4.21e-05
308.15	0.006	0.0006967	4.21e-05
308.15	0.009	0.0006978	4.22e-05
308.15	0.012	0.0006993	4.23e-05
308.15	0.015	0.0007014	4.24e-05
308.15	0.018	0.0007048	4.26e-05
308.15	0.021	0.0007086	4.29e-05
308.15	0.024	0.0007109	4.3e-05
313.15	0.003	0.0006108	3.7e-05
313.15	0.006	0.0006124	3.71e-05
313.15	0.009	0.0006168	3.74e-05
313.15	0.012	0.0006154	3.73e-05
313.15	0.015	0.0006171	3.74e-05
313.15	0.018	0.00062	3.75e-05
313.15	0.021	0.0006236	3.78e-05
313.15	0.024	0.0006263	3.79e-05
293.15	0.027	0.001001	6.06e-05
293.15	0.03	0.0010042	6.08e-05
298.15	0.027	0.0008614	5.21e-05
298.15	0.03	0.0008674	5.24e-05
303.15	0.027	0.0007995	4.83e-05
303.15	0.03	0.0008022	4.85e-05
308.15	0.027	0.0007141	4.32e-05
308.15	0.03	0.0007157	4.33e-05
313.15	0.027	0.0006275	3.8e-05
313.15	0.03	0.0006295	3.81e-05

System: L-histidine + water + sodium dodecylbenzenesulfonate (ILL DEFINED!); phases: Liquid
Fixed: Pressure, kPa = 101
Property: Mass density, kg/m3 (Liquid); method: Vibrating tube method
Temperature, K	Molality, mol/kg of sodium dodecylbenzenesulfonate (ILL DEFINED!)	Solvent: Molality, mol/kg of L-histidine	Mass density, kg/m3	uncertainty
293.15	0	0.01	998.81	0.541
293.15	0.0003	0.01	998.88	0.534
293.15	0.0006	0.01	998.94	0.523
293.15	0.0009	0.01	998.993	0.523
293.15	0.0012	0.01	999.054	0.536
293.15	0.0015	0.01	999.126	0.53
293.15	0.0018	0.01	999.178	0.529
293.15	0.0021	0.01	999.249	0.543
293.15	0.0024	0.01	999.321	0.543
293.15	0.0027	0.01	999.392	0.527
293.15	0.003	0.01	999.441	0.514
298.15	0	0.01	997.64	0.695
298.15	0.0003	0.01	997.709	0.526
298.15	0.0006	0.01	997.759	0.524
298.15	0.0009	0.01	997.825	0.54
298.15	0.0012	0.01	997.898	0.528
298.15	0.0015	0.01	997.947	0.52
298.15	0.0018	0.01	998.006	0.532
298.15	0.0021	0.01	998.075	0.539
298.15	0.0024	0.01	998.144	0.531
298.15	0.0027	0.01	998.202	0.525
298.15	0.003	0.01	998.261	0.492
303.15	0	0.01	996.231	0.656
303.15	0.0003	0.01	996.291	0.524
303.15	0.0006	0.01	996.347	0.527
303.15	0.0009	0.01	996.412	0.518
303.15	0.0012	0.01	996.453	0.528
303.15	0.0015	0.01	996.535	0.542
303.15	0.0018	0.01	996.595	0.53
303.15	0.0021	0.01	996.66	0.534
303.15	0.0024	0.01	996.726	0.527
303.15	0.0027	0.01	996.781	0.524
303.15	0.003	0.01	996.842	0.488
308.15	0	0.01	994.607	0.637
308.15	0.0003	0.01	994.663	0.52
308.15	0.0006	0.01	994.717	0.527
308.15	0.0009	0.01	994.784	0.523
308.15	0.0012	0.01	994.832	0.528
308.15	0.0015	0.01	994.907	0.531
308.15	0.0018	0.01	994.959	0.527
308.15	0.0021	0.01	995.028	0.539
308.15	0.0024	0.01	995.098	0.528
308.15	0.0027	0.01	995.151	0.521
308.15	0.003	0.01	995.209	0.488
313.15	0	0.01	992.781	0.512
313.15	0.0003	0.01	992.829	0.516
313.15	0.0006	0.01	992.884	0.527
313.15	0.0009	0.01	992.951	0.523
313.15	0.0012	0.01	992.999	0.53
313.15	0.0015	0.01	993.077	0.535
313.15	0.0018	0.01	993.133	0.525
313.15	0.0021	0.01	993.196	0.53
313.15	0.0024	0.01	993.259	0.525
313.15	0.0027	0.01	993.315	0.522
313.15	0.003	0.01	993.373	0.523
293.15	0	0.05	1001.122	0.548
293.15	0.0003	0.05	1001.149	0.52
293.15	0.0006	0.05	1001.229	0.528
293.15	0.0009	0.05	1001.268	0.512
293.15	0.0012	0.05	1001.321	0.528
293.15	0.0015	0.05	1001.388	0.527
293.15	0.0018	0.05	1001.439	0.527
293.15	0.0021	0.05	1001.505	0.55
293.15	0.0024	0.05	1001.59	0.533
293.15	0.0027	0.05	1001.632	0.525
293.15	0.003	0.05	1001.704	0.528
298.15	0	0.05	999.931	0.573
298.15	0.0003	0.05	999.955	0.517
298.15	0.0006	0.05	1000.033	0.526
298.15	0.0009	0.05	1000.073	0.51
298.15	0.0012	0.05	1000.121	0.526
298.15	0.0015	0.05	1000.19	0.526
298.15	0.0018	0.05	1000.238	0.523
298.15	0.0021	0.05	1000.302	0.534
298.15	0.0024	0.05	1000.368	0.525
298.15	0.0027	0.05	1000.418	0.523
298.15	0.003	0.05	1000.481	0.499
303.15	0	0.05	998.505	0.568
303.15	0.0003	0.05	998.525	0.514
303.15	0.0006	0.05	998.602	0.525
303.15	0.0009	0.05	998.641	0.508
303.15	0.0012	0.05	998.688	0.525
303.15	0.0015	0.05	998.757	0.524
303.15	0.0018	0.05	998.803	0.522
303.15	0.0021	0.05	998.869	0.533
303.15	0.0024	0.05	998.932	0.53
303.15	0.0027	0.05	998.994	0.519
303.15	0.003	0.05	999.038	0.493
308.15	0	0.05	996.863	0.55
308.15	0.0003	0.05	996.88	0.513
308.15	0.0006	0.05	996.959	0.524
308.15	0.0009	0.05	996.995	0.507
308.15	0.0012	0.05	997.043	0.524
308.15	0.0015	0.05	997.11	0.524
308.15	0.0018	0.05	997.159	0.522
308.15	0.0021	0.05	997.222	0.53
308.15	0.0024	0.05	997.284	0.525
308.15	0.0027	0.05	997.339	0.527
308.15	0.003	0.05	997.404	0.496
313.15	0	0.05	995.025	0.512
313.15	0.0003	0.05	995.041	0.51
313.15	0.0006	0.05	995.117	0.522
313.15	0.0009	0.05	995.154	0.507
313.15	0.0012	0.05	995.202	0.523
313.15	0.0015	0.05	995.268	0.522
313.15	0.0018	0.05	995.315	0.52
313.15	0.0021	0.05	995.378	0.53
313.15	0.0024	0.05	995.44	0.535
313.15	0.0027	0.05	995.511	0.534
313.15	0.003	0.05	995.571	0.495
293.15	0	0.1	1003.851	0.561
293.15	0.0003	0.1	1003.77	0.491
293.15	0.0006	0.1	1003.85	0.551
293.15	0.0009	0.1	1003.92	0.554
293.15	0.0012	0.1	1004.004	0.569
293.15	0.0015	0.1	1004.092	0.566
293.15	0.0018	0.1	1004.172	0.556
293.15	0.0021	0.1	1004.248	0.554
293.15	0.0024	0.1	1004.325	0.558
293.15	0.0027	0.1	1004.406	0.564
293.15	0.003	0.1	1004.491	0.568
298.15	0	0.1	1002.688	0.491
298.15	0.0003	0.1	1002.59	0.496
298.15	0.0006	0.1	1002.642	0.547
298.15	0.0009	0.1	1002.736	0.577
298.15	0.0012	0.1	1002.825	0.57
298.15	0.0015	0.1	1002.91	0.561
298.15	0.0018	0.1	1002.989	0.568
298.15	0.0021	0.1	1003.082	0.569
298.15	0.0024	0.1	1003.162	0.561
298.15	0.0027	0.1	1003.245	0.559
298.15	0.003	0.1	1003.323	0.585
303.15	0	0.1	1001.213	0.506
303.15	0.0003	0.1	1001.118	0.494
303.15	0.0006	0.1	1001.172	0.524
303.15	0.0009	0.1	1001.231	0.539
303.15	0.0012	0.1	1001.308	0.543
303.15	0.0015	0.1	1001.373	0.528
303.15	0.0018	0.1	1001.428	0.521
303.15	0.0021	0.1	1001.481	0.52
303.15	0.0024	0.1	1001.533	0.518
303.15	0.0027	0.1	1001.583	0.518
303.15	0.003	0.1	1001.634	0.641
308.15	0	0.1	999.57	0.524
308.15	0.0003	0.1	999.444	0.495
308.15	0.0006	0.1	999.52	0.555
308.15	0.0009	0.1	999.603	0.558
308.15	0.0012	0.1	999.682	0.552
308.15	0.0015	0.1	999.758	0.547
308.15	0.0018	0.1	999.83	0.545
308.15	0.0021	0.1	999.903	0.554
308.15	0.0024	0.1	999.987	0.562
308.15	0.0027	0.1	1000.07	0.571
308.15	0.003	0.1	1000.165	0.54
313.15	0	0.1	997.722	0.661
313.15	0.0003	0.1	997.588	0.502
313.15	0.0006	0.1	997.65	0.537
313.15	0.0009	0.1	997.723	0.541
313.15	0.0012	0.1	997.791	0.539
313.15	0.0015	0.1	997.861	0.534
313.15	0.0018	0.1	997.922	0.532
313.15	0.0021	0.1	997.989	0.538
313.15	0.0024	0.1	998.059	0.548
313.15	0.0027	0.1	998.139	0.544
313.15	0.003	0.1	998.204	0.534

System: L-histidine + water + sodium dodecylbenzenesulfonate (ILL DEFINED!); phases: Liquid
Fixed: Pressure, kPa = 101
Property: Speed of sound, m/s (Liquid); method: Sing-around technique in a fixed-path interferometer
Temperature, K	Molality, mol/kg of sodium dodecylbenzenesulfonate (ILL DEFINED!)	Solvent: Molality, mol/kg of L-histidine	Speed of sound, m/s	uncertainty
293.15	0	0.01	1483.51	1.63
293.15	0.0003	0.01	1484.01	1.63
293.15	0.0006	0.01	1484.01	1.63
293.15	0.0009	0.01	1484.26	1.63
293.15	0.0012	0.01	1484.36	1.62
293.15	0.0015	0.01	1484.45	1.63
293.15	0.0018	0.01	1484.54	1.63
293.15	0.0021	0.01	1484.6	1.63
293.15	0.0024	0.01	1484.73	1.63
293.15	0.0027	0.01	1484.84	1.63
293.15	0.003	0.01	1484.93	1.63
298.15	0	0.01	1497.68	1.63
298.15	0.0003	0.01	1498.09	1.62
298.15	0.0006	0.01	1498.05	1.62
298.15	0.0009	0.01	1498.25	1.62
298.15	0.0012	0.01	1498.18	1.62
298.15	0.0015	0.01	1498.3	1.62
298.15	0.0018	0.01	1498.51	1.62
298.15	0.0021	0.01	1498.59	1.62
298.15	0.0024	0.01	1498.65	1.62
298.15	0.0027	0.01	1498.78	1.62
298.15	0.003	0.01	1498.94	1.62
303.15	0	0.01	1510.06	1.62
303.15	0.0003	0.01	1510.5	1.62
303.15	0.0006	0.01	1510.33	1.62
303.15	0.0009	0.01	1510.47	1.62
303.15	0.0012	0.01	1510.57	1.62
303.15	0.0015	0.01	1510.59	1.62
303.15	0.0018	0.01	1510.74	1.62
303.15	0.0021	0.01	1510.86	1.62
303.15	0.0024	0.01	1510.97	1.62
303.15	0.0027	0.01	1511.05	1.62
303.15	0.003	0.01	1511.17	1.62
308.15	0	0.01	1520.86	1.62
308.15	0.0003	0.01	1521.13	1.62
308.15	0.0006	0.01	1521.07	1.62
308.15	0.0009	0.01	1521.13	1.62
308.15	0.0012	0.01	1521.22	1.62
308.15	0.0015	0.01	1521.2	1.62
308.15	0.0018	0.01	1521.37	1.62
308.15	0.0021	0.01	1521.48	1.62
308.15	0.0024	0.01	1521.58	1.62
308.15	0.0027	0.01	1521.69	1.62
308.15	0.003	0.01	1521.77	1.62
313.15	0	0.01	1529.96	1.62
313.15	0.0003	0.01	1530.26	1.62
313.15	0.0006	0.01	1530.16	1.62
313.15	0.0009	0.01	1530.2	1.62
313.15	0.0012	0.01	1530.29	1.62
313.15	0.0015	0.01	1530.26	1.62
313.15	0.0018	0.01	1530.42	1.62
313.15	0.0021	0.01	1530.53	1.62
313.15	0.0024	0.01	1530.63	1.62
313.15	0.0027	0.01	1530.72	1.62
313.15	0.003	0.01	1530.8	1.62
293.15	0	0.05	1487.52	1.63
293.15	0.0003	0.05	1487.61	1.63
293.15	0.0006	0.05	1487.77	1.63
293.15	0.0009	0.05	1487.87	1.63
293.15	0.0012	0.05	1487.96	1.63
293.15	0.0015	0.05	1487.99	1.63
293.15	0.0018	0.05	1488.05	1.63
293.15	0.0021	0.05	1488.11	1.63
293.15	0.0024	0.05	1488.11	1.63
293.15	0.0027	0.05	1488.2	1.63
293.15	0.003	0.05	1488.27	1.63
298.15	0	0.05	1501.39	1.62
298.15	0.0003	0.05	1501.47	1.62
298.15	0.0006	0.05	1501.64	1.62
298.15	0.0009	0.05	1501.72	1.62
298.15	0.0012	0.05	1501.75	1.62
298.15	0.0015	0.05	1501.82	1.62
298.15	0.0018	0.05	1501.91	1.62
298.15	0.0021	0.05	1501.99	1.62
298.15	0.0024	0.05	1502.08	1.62
298.15	0.0027	0.05	1502.17	1.62
298.15	0.003	0.05	1502.24	1.62
303.15	0	0.05	1513.54	1.62
303.15	0.0003	0.05	1513.62	1.62
303.15	0.0006	0.05	1513.76	1.62
303.15	0.0009	0.05	1513.83	1.62
303.15	0.0012	0.05	1513.89	1.62
303.15	0.0015	0.05	1514.01	1.62
303.15	0.0018	0.05	1514.12	1.62
303.15	0.0021	0.05	1514.19	1.62
303.15	0.0024	0.05	1514.2	1.62
303.15	0.0027	0.05	1514.29	1.62
303.15	0.003	0.05	1514.35	1.62
308.15	0	0.05	1524.07	1.62
308.15	0.0003	0.05	1524.12	1.62
308.15	0.0006	0.05	1524.26	1.62
308.15	0.0009	0.05	1524.32	1.62
308.15	0.0012	0.05	1524.38	1.62
308.15	0.0015	0.05	1524.5	1.62
308.15	0.0018	0.05	1524.6	1.62
308.15	0.0021	0.05	1524.61	1.62
308.15	0.0024	0.05	1524.68	1.62
308.15	0.0027	0.05	1524.75	1.62
308.15	0.003	0.05	1524.82	1.62
313.15	0	0.05	1533.03	1.62
313.15	0.0003	0.05	1533.07	1.62
313.15	0.0006	0.05	1533.19	1.62
313.15	0.0009	0.05	1533.25	1.62
313.15	0.0012	0.05	1533.32	1.62
313.15	0.0015	0.05	1533.41	1.62
313.15	0.0018	0.05	1533.45	1.62
313.15	0.0021	0.05	1533.52	1.62
313.15	0.0024	0.05	1533.59	1.62
313.15	0.0027	0.05	1533.66	1.62
313.15	0.003	0.05	1533.7	1.62
293.15	0	0.1	1492.15	1.62
293.15	0.0003	0.1	1491.67	1.62
293.15	0.0006	0.1	1492.02	1.63
293.15	0.0009	0.1	1492.15	1.63
293.15	0.0012	0.1	1492.35	1.63
293.15	0.0015	0.1	1492.48	1.63
293.15	0.0018	0.1	1492.64	1.63
293.15	0.0021	0.1	1492.59	1.63
293.15	0.0024	0.1	1492.56	1.63
293.15	0.0027	0.1	1492.63	1.63
293.15	0.003	0.1	1492.73	1.63
298.15	0	0.1	1505.62	1.62
298.15	0.0003	0.1	1505.4	1.62
298.15	0.0006	0.1	1505.62	1.62
298.15	0.0009	0.1	1505.79	1.62
298.15	0.0012	0.1	1505.99	1.62
298.15	0.0015	0.1	1506.18	1.62
298.15	0.0018	0.1	1506.2	1.62
298.15	0.0021	0.1	1506.21	1.62
298.15	0.0024	0.1	1506.31	1.63
298.15	0.0027	0.1	1506.33	1.62
298.15	0.003	0.1	1506.4	1.62
303.15	0	0.1	1517.5	1.62
303.15	0.0003	0.1	1517.37	1.62
303.15	0.0006	0.1	1517.54	1.62
303.15	0.0009	0.1	1517.7	1.62
303.15	0.0012	0.1	1517.91	1.62
303.15	0.0015	0.1	1518.08	1.62
303.15	0.0018	0.1	1518.17	1.62
303.15	0.0021	0.1	1518.2	1.62
303.15	0.0024	0.1	1518.32	1.62
303.15	0.0027	0.1	1518.35	1.62
303.15	0.003	0.1	1518.42	1.62
308.15	0	0.1	1527.83	1.62
308.15	0.0003	0.1	1527.75	1.62
308.15	0.0006	0.1	1527.88	1.62
308.15	0.0009	0.1	1528.08	1.62
308.15	0.0012	0.1	1528.21	1.62
308.15	0.0015	0.1	1528.41	1.62
308.15	0.0018	0.1	1528.49	1.62
308.15	0.0021	0.1	1528.52	1.62
308.15	0.0024	0.1	1528.57	1.62
308.15	0.0027	0.1	1528.6	1.62
308.15	0.003	0.1	1528.68	1.62
313.15	0	0.1	1536.6	1.62
313.15	0.0003	0.1	1536.55	1.62
313.15	0.0006	0.1	1536.7	1.62
313.15	0.0009	0.1	1536.82	1.62
313.15	0.0012	0.1	1536.99	1.62
313.15	0.0015	0.1	1537.17	1.62
313.15	0.0018	0.1	1537.25	1.62
313.15	0.0021	0.1	1537.28	1.62
313.15	0.0024	0.1	1537.33	1.62
313.15	0.0027	0.1	1537.42	1.62
313.15	0.003	0.1	1537.48	1.62

System: L-histidine + water + sodium dodecylbenzenesulfonate (ILL DEFINED!); phases: Liquid
Fixed: Pressure, kPa = 101
Property: Viscosity, Pa*s (Liquid); method: Capillary tube (Ostwald; Ubbelohde) method
Temperature, K	Molality, mol/kg of sodium dodecylbenzenesulfonate (ILL DEFINED!)	Solvent: Molality, mol/kg of L-histidine	Viscosity, Pa*s	uncertainty
293.15	0.0003	0.01	0.00098796	6.017e-05
293.15	0.0006	0.01	0.00099158	6.039e-05
293.15	0.0009	0.01	0.00099331	6.05e-05
293.15	0.0012	0.01	0.00099487	6.06e-05
293.15	0.0015	0.01	0.00099551	6.064e-05
293.15	0.0018	0.01	0.00100099	6.098e-05
293.15	0.0021	0.01	0.00100927	6.149e-05
293.15	0.0024	0.01	0.00101077	6.159e-05
293.15	0.0027	0.01	0.00101526	6.188e-05
293.15	0.003	0.01	0.00102602	6.255e-05
298.15	0.0003	0.01	0.00085742	5.221e-05
298.15	0.0006	0.01	0.00085787	5.224e-05
298.15	0.0009	0.01	0.00085888	5.23e-05
298.15	0.0012	0.01	0.00086041	5.239e-05
298.15	0.0015	0.01	0.00086128	5.244e-05
298.15	0.0018	0.01	0.00086386	5.26e-05
298.15	0.0021	0.01	0.00086617	5.275e-05
298.15	0.0024	0.01	0.0008675	5.282e-05
298.15	0.0027	0.01	0.00086977	5.296e-05
298.15	0.003	0.01	0.0008716	5.308e-05
303.15	0.0003	0.01	0.00076923	4.68e-05
303.15	0.0006	0.01	0.00077009	4.685e-05
303.15	0.0009	0.01	0.00077376	4.707e-05
303.15	0.0012	0.01	0.00077496	4.714e-05
303.15	0.0015	0.01	0.00077755	4.73e-05
303.15	0.0018	0.01	0.00078054	4.747e-05
303.15	0.0021	0.01	0.00078752	4.79e-05
303.15	0.0024	0.01	0.00079407	4.829e-05
303.15	0.0027	0.01	0.00079716	4.847e-05
303.15	0.003	0.01	0.00079943	4.861e-05
308.15	0.0003	0.01	0.00069007	4.201e-05
308.15	0.0006	0.01	0.00069172	4.211e-05
308.15	0.0009	0.01	0.00069626	4.238e-05
308.15	0.0012	0.01	0.00070101	4.267e-05
308.15	0.0015	0.01	0.00070228	4.274e-05
308.15	0.0018	0.01	0.00070714	4.304e-05
308.15	0.0021	0.01	0.00070854	4.313e-05
308.15	0.0024	0.01	0.00071382	4.345e-05
308.15	0.0027	0.01	0.00071834	4.373e-05
308.15	0.003	0.01	0.00072034	4.385e-05
313.15	0.0003	0.01	0.0006086	3.71e-05
313.15	0.0006	0.01	0.00061178	3.728e-05
313.15	0.0009	0.01	0.00061576	3.753e-05
313.15	0.0012	0.01	0.00061751	3.764e-05
313.15	0.0015	0.01	0.00062143	3.787e-05
313.15	0.0018	0.01	0.00062355	3.8e-05
313.15	0.0021	0.01	0.00062606	3.815e-05
313.15	0.0024	0.01	0.00062743	3.825e-05
313.15	0.0027	0.01	0.0006301	3.842e-05
313.15	0.003	0.01	0.00063274	3.857e-05
293.15	0.0003	0.05	0.00100174	6.1e-05
293.15	0.0006	0.05	0.00100736	6.135e-05
293.15	0.0009	0.05	0.00100912	6.146e-05
293.15	0.0012	0.05	0.00101142	6.16e-05
293.15	0.0015	0.05	0.00101307	6.17e-05
293.15	0.0018	0.05	0.00101673	6.192e-05
293.15	0.0021	0.05	0.00102413	6.237e-05
293.15	0.0024	0.05	0.00103541	6.306e-05
293.15	0.0027	0.05	0.00104325	6.356e-05
293.15	0.003	0.05	0.00104751	6.381e-05
298.15	0.0003	0.05	0.00086576	5.27e-05
298.15	0.0006	0.05	0.00086925	5.291e-05
298.15	0.0009	0.05	0.00087199	5.307e-05
298.15	0.0012	0.05	0.00087347	5.316e-05
298.15	0.0015	0.05	0.0008749	5.324e-05
298.15	0.0018	0.05	0.00088011	5.356e-05
298.15	0.0021	0.05	0.00088603	5.392e-05
298.15	0.0024	0.05	0.00089054	5.421e-05
298.15	0.0027	0.05	0.00089178	5.428e-05
298.15	0.003	0.05	0.00089499	5.448e-05
303.15	0.0003	0.05	0.0007917	4.82e-05
303.15	0.0006	0.05	0.00079895	4.86e-05
303.15	0.0009	0.05	0.00080381	4.89e-05
303.15	0.0012	0.05	0.00080775	4.914e-05
303.15	0.0015	0.05	0.00081013	4.928e-05
303.15	0.0018	0.05	0.00081267	4.944e-05
303.15	0.0021	0.05	0.00081553	4.962e-05
303.15	0.0024	0.05	0.00081939	4.985e-05
303.15	0.0027	0.05	0.00082828	5.039e-05
303.15	0.003	0.05	0.00083095	5.056e-05
308.15	0.0003	0.05	0.00070141	4.271e-05
308.15	0.0006	0.05	0.00070224	4.277e-05
308.15	0.0009	0.05	0.00070257	4.28e-05
308.15	0.0012	0.05	0.00070348	4.286e-05
308.15	0.0015	0.05	0.00070516	4.296e-05
308.15	0.0018	0.05	0.00070688	4.306e-05
308.15	0.0021	0.05	0.00070855	4.317e-05
308.15	0.0024	0.05	0.00071049	4.329e-05
308.15	0.0027	0.05	0.00071114	4.334e-05
308.15	0.003	0.05	0.00071196	4.339e-05
313.15	0.0003	0.05	0.00061989	3.779e-05
313.15	0.0006	0.05	0.0006215	3.788e-05
313.15	0.0009	0.05	0.00062283	3.795e-05
313.15	0.0012	0.05	0.0006254	3.81e-05
313.15	0.0015	0.05	0.00062785	3.825e-05
313.15	0.0018	0.05	0.00062899	3.832e-05
313.15	0.0021	0.05	0.00062981	3.837e-05
313.15	0.0024	0.05	0.00063089	3.843e-05
313.15	0.0027	0.05	0.0006341	3.862e-05
313.15	0.003	0.05	0.00063815	3.886e-05
293.15	0.0003	0.1	0.00100437	6.118e-05
293.15	0.0006	0.1	0.00101	6.152e-05
293.15	0.0009	0.1	0.0010118	6.163e-05
293.15	0.0012	0.1	0.00101414	6.177e-05
293.15	0.0015	0.1	0.00101581	6.188e-05
293.15	0.0018	0.1	0.00101951	6.21e-05
293.15	0.0021	0.1	0.00102694	6.255e-05
293.15	0.0024	0.1	0.00103824	6.325e-05
293.15	0.0027	0.1	0.00104614	6.375e-05
293.15	0.003	0.1	0.00105043	6.402e-05
298.15	0.0003	0.1	0.00086804	5.284e-05
298.15	0.0006	0.1	0.00087152	5.305e-05
298.15	0.0009	0.1	0.00087431	5.321e-05
298.15	0.0012	0.1	0.00087583	5.33e-05
298.15	0.0015	0.1	0.00087728	5.339e-05
298.15	0.0018	0.1	0.00088253	5.371e-05
298.15	0.0021	0.1	0.00088849	5.407e-05
298.15	0.0024	0.1	0.00089302	5.436e-05
298.15	0.0027	0.1	0.0008943	5.443e-05
298.15	0.003	0.1	0.00089753	5.463e-05
303.15	0.0003	0.1	0.00079376	4.828e-05
303.15	0.0006	0.1	0.00080101	4.873e-05
303.15	0.0009	0.1	0.0008059	4.902e-05
303.15	0.0012	0.1	0.00080987	4.926e-05
303.15	0.0015	0.1	0.00081226	4.941e-05
303.15	0.0018	0.1	0.00081481	4.957e-05
303.15	0.0021	0.1	0.00081767	4.975e-05
303.15	0.0024	0.1	0.00082153	4.998e-05
303.15	0.0027	0.1	0.00083043	5.052e-05
303.15	0.003	0.1	0.00083311	5.069e-05
308.15	0.0003	0.1	0.00070321	4.282e-05
308.15	0.0006	0.1	0.00070405	4.288e-05
308.15	0.0009	0.1	0.00070441	4.291e-05
308.15	0.0012	0.1	0.00070535	4.297e-05
308.15	0.0015	0.1	0.00070703	4.307e-05
308.15	0.0018	0.1	0.00070878	4.318e-05
308.15	0.0021	0.1	0.00071046	4.328e-05
308.15	0.0024	0.1	0.00071242	4.341e-05
308.15	0.0027	0.1	0.00071309	4.346e-05
308.15	0.003	0.1	0.00071394	4.351e-05
313.15	0.0003	0.1	0.00062148	3.787e-05
313.15	0.0006	0.1	0.00062308	3.797e-05
313.15	0.0009	0.1	0.00062444	3.804e-05
313.15	0.0012	0.1	0.00062703	3.82e-05
313.15	0.0015	0.1	0.00062949	3.834e-05
313.15	0.0018	0.1	0.00063064	3.841e-05
313.15	0.0021	0.1	0.00063147	3.847e-05
313.15	0.0024	0.1	0.00063256	3.853e-05
313.15	0.0027	0.1	0.00063578	3.872e-05
313.15	0.003	0.1	0.00063984	3.896e-05

System: L-methionine + water + sodium dodecylbenzenesulfonate (ILL DEFINED!); phases: Liquid
Fixed: Pressure, kPa = 101
Property: Mass density, kg/m3 (Liquid); method: Vibrating tube method
Temperature, K	Molality, mol/kg of sodium dodecylbenzenesulfonate (ILL DEFINED!)	Solvent: Molality, mol/kg of L-methionine	Mass density, kg/m3	uncertainty
293.15	0	0.01	998.698	0.673
293.15	0.0003	0.01	998.75	0.68
293.15	0.0006	0.01	998.816	0.688
293.15	0.0009	0.01	998.884	0.688
293.15	0.0012	0.01	998.95	0.687
293.15	0.0015	0.01	999.015	0.688
293.15	0.0018	0.01	999.084	0.69
293.15	0.0021	0.01	999.152	0.69
293.15	0.0024	0.01	999.221	0.689
293.15	0.0027	0.01	999.287	0.69
293.15	0.003	0.01	999.358	0.693
298.15	0	0.01	997.539	0.793
298.15	0.0003	0.01	997.589	0.676
298.15	0.0006	0.01	997.65	0.681
298.15	0.0009	0.01	997.71	0.683
298.15	0.0012	0.01	997.775	0.686
298.15	0.0015	0.01	997.841	0.687
298.15	0.0018	0.01	997.908	0.687
298.15	0.0021	0.01	997.975	0.687
298.15	0.0024	0.01	998.041	0.688
298.15	0.0027	0.01	998.109	0.689
298.15	0.003	0.01	998.178	0.657
303.15	0	0.01	996.121	0.754
303.15	0.0003	0.01	996.167	0.673
303.15	0.0006	0.01	996.227	0.679
303.15	0.0009	0.01	996.286	0.678
303.15	0.0012	0.01	996.345	0.678
303.15	0.0015	0.01	996.404	0.678
303.15	0.0018	0.01	996.463	0.679
303.15	0.0021	0.01	996.523	0.68
303.15	0.0024	0.01	996.584	0.681
303.15	0.0027	0.01	996.647	0.682
303.15	0.003	0.01	996.708	0.65
308.15	0	0.01	994.495	0.748
308.15	0.0003	0.01	994.541	0.669
308.15	0.0006	0.01	994.595	0.674
308.15	0.0009	0.01	994.652	0.674
308.15	0.0012	0.01	994.706	0.674
308.15	0.0015	0.01	994.762	0.674
308.15	0.0018	0.01	994.816	0.673
308.15	0.0021	0.01	994.871	0.675
308.15	0.0024	0.01	994.928	0.675
308.15	0.0027	0.01	994.983	0.675
308.15	0.003	0.01	995.04	0.649
313.15	0	0.01	992.67	0.664
313.15	0.0003	0.01	992.715	0.667
313.15	0.0006	0.01	992.768	0.669
313.15	0.0009	0.01	992.817	0.667
313.15	0.0012	0.01	992.866	0.668
313.15	0.0015	0.01	992.917	0.669
313.15	0.0018	0.01	992.968	0.67
313.15	0.0021	0.01	993.021	0.672
313.15	0.0024	0.01	993.077	0.672
313.15	0.0027	0.01	993.13	0.673
313.15	0.003	0.01	993.187	0.675
293.15	0	0.05	1001.149	1.804
293.15	0.0003	0.05	1001.188	0.668
293.15	0.0006	0.05	1001.232	0.671
293.15	0.0009	0.05	1001.279	0.671
293.15	0.0012	0.05	1001.325	0.671
293.15	0.0015	0.05	1001.371	0.671
293.15	0.0018	0.05	1001.416	0.671
293.15	0.0021	0.05	1001.462	0.673
293.15	0.0024	0.05	1001.512	0.677
293.15	0.0027	0.05	1001.567	0.677
293.15	0.003	0.05	1001.618	1.246
298.15	0	0.05	999.944	1.35
298.15	0.0003	0.05	999.982	0.665
298.15	0.0006	0.05	1000.025	0.668
298.15	0.0009	0.05	1000.07	0.668
298.15	0.0012	0.05	1000.114	0.668
298.15	0.0015	0.05	1000.159	0.668
298.15	0.0018	0.05	1000.202	0.669
298.15	0.0021	0.05	1000.248	0.669
298.15	0.0024	0.05	1000.292	0.673
298.15	0.0027	0.05	1000.347	0.673
298.15	0.003	0.05	1000.393	0.95
303.15	0	0.05	998.512	1.338
303.15	0.0003	0.05	998.549	0.664
303.15	0.0006	0.05	998.591	0.666
303.15	0.0009	0.05	998.635	0.667
303.15	0.0012	0.05	998.679	0.666
303.15	0.0015	0.05	998.721	0.666
303.15	0.0018	0.05	998.765	0.666
303.15	0.0021	0.05	998.807	0.668
303.15	0.0024	0.05	998.855	0.672
303.15	0.0027	0.05	998.907	0.674
303.15	0.003	0.05	998.961	0.972
308.15	0	0.05	996.871	1.329
308.15	0.0003	0.05	996.906	0.662
308.15	0.0006	0.05	996.948	0.665
308.15	0.0009	0.05	996.99	0.665
308.15	0.0012	0.05	997.034	0.665
308.15	0.0015	0.05	997.074	0.664
308.15	0.0018	0.05	997.117	0.666
308.15	0.0021	0.05	997.162	0.669
308.15	0.0024	0.05	997.212	0.673
308.15	0.0027	0.05	997.268	0.674
308.15	0.003	0.05	997.319	1.009
313.15	0	0.05	995.031	1.76
313.15	0.0003	0.05	995.065	0.66
313.15	0.0006	0.05	995.106	0.663
313.15	0.0009	0.05	995.148	0.663
313.15	0.0012	0.05	995.189	0.664
313.15	0.0015	0.05	995.232	0.663
313.15	0.0018	0.05	995.272	0.664
313.15	0.0021	0.05	995.318	0.666
313.15	0.0024	0.05	995.362	0.669
313.15	0.0027	0.05	995.416	0.672
313.15	0.003	0.05	995.468	1.352
293.15	0	0.1	1002.635	0.692
293.15	0.0003	0.1	1002.702	0.687
293.15	0.0006	0.1	1002.759	0.679
293.15	0.0009	0.1	1002.809	0.678
293.15	0.0012	0.1	1002.863	0.677
293.15	0.0015	0.1	1002.912	0.677
293.15	0.0018	0.1	1002.966	0.678
293.15	0.0021	0.1	1003.017	0.678
293.15	0.0024	0.1	1003.071	0.683
293.15	0.0027	0.1	1003.131	0.686
293.15	0.003	0.1	1003.192	0.687
298.15	0	0.1	1001.415	0.811
298.15	0.0003	0.1	1001.481	0.685
298.15	0.0006	0.1	1001.538	0.677
298.15	0.0009	0.1	1001.586	0.673
298.15	0.0012	0.1	1001.634	0.675
298.15	0.0015	0.1	1001.686	0.675
298.15	0.0018	0.1	1001.735	0.675
298.15	0.0021	0.1	1001.787	0.678
298.15	0.0024	0.1	1001.842	0.681
298.15	0.0027	0.1	1001.902	0.684
298.15	0.003	0.1	1001.963	0.658
303.15	0	0.1	999.96	0.79
303.15	0.0003	0.1	1000.024	0.682
303.15	0.0006	0.1	1000.08	0.674
303.15	0.0009	0.1	1000.128	0.671
303.15	0.0012	0.1	1000.175	0.672
303.15	0.0015	0.1	1000.225	0.673
303.15	0.0018	0.1	1000.276	0.673
303.15	0.0021	0.1	1000.324	0.673
303.15	0.0024	0.1	1000.375	0.674
303.15	0.0027	0.1	1000.427	0.677
303.15	0.003	0.1	1000.484	0.653
308.15	0	0.1	998.295	0.779
308.15	0.0003	0.1	998.358	0.68
308.15	0.0006	0.1	998.414	0.673
308.15	0.0009	0.1	998.461	0.669
308.15	0.0012	0.1	998.508	0.669
308.15	0.0015	0.1	998.554	0.67
308.15	0.0018	0.1	998.603	0.671
308.15	0.0021	0.1	998.652	0.672
308.15	0.0024	0.1	998.703	0.672
308.15	0.0027	0.1	998.753	0.672
308.15	0.003	0.1	998.804	0.652
313.15	0	0.1	996.434	0.681
313.15	0.0003	0.1	996.496	0.679
313.15	0.0006	0.1	996.552	0.671
313.15	0.0009	0.1	996.598	0.668
313.15	0.0012	0.1	996.645	0.668
313.15	0.0015	0.1	996.691	0.669
313.15	0.0018	0.1	996.74	0.67
313.15	0.0021	0.1	996.789	0.671
313.15	0.0024	0.1	996.841	0.671
313.15	0.0027	0.1	996.889	0.669
313.15	0.003	0.1	996.937	0.669

System: L-methionine + water + sodium dodecylbenzenesulfonate (ILL DEFINED!); phases: Liquid
Fixed: Pressure, kPa = 101
Property: Speed of sound, m/s (Liquid); method: Sing-around technique in a fixed-path interferometer
Temperature, K	Molality, mol/kg of sodium dodecylbenzenesulfonate (ILL DEFINED!)	Solvent: Molality, mol/kg of L-methionine	Speed of sound, m/s	uncertainty
293.15	0	0.01	1483.78	1.92
293.15	0.0003	0.01	1483.95	1.92
293.15	0.0006	0.01	1484.06	1.92
293.15	0.0009	0.01	1484.17	1.92
293.15	0.0012	0.01	1484.31	1.92
293.15	0.0015	0.01	1484.42	1.92
293.15	0.0018	0.01	1484.51	1.92
293.15	0.0021	0.01	1484.63	1.92
293.15	0.0024	0.01	1484.74	1.92
293.15	0.0027	0.01	1484.83	1.92
293.15	0.003	0.01	1484.94	1.92
298.15	0	0.01	1497.81	1.92
298.15	0.0003	0.01	1497.98	1.92
298.15	0.0006	0.01	1498.09	1.92
298.15	0.0009	0.01	1498.22	1.92
298.15	0.0012	0.01	1498.32	1.92
298.15	0.0015	0.01	1498.45	1.92
298.15	0.0018	0.01	1498.56	1.92
298.15	0.0021	0.01	1498.62	1.92
298.15	0.0024	0.01	1498.74	1.92
298.15	0.0027	0.01	1498.85	1.92
298.15	0.003	0.01	1499	1.92
303.15	0	0.01	1510.15	1.92
303.15	0.0003	0.01	1510.3	1.92
303.15	0.0006	0.01	1510.42	1.92
303.15	0.0009	0.01	1510.54	1.92
303.15	0.0012	0.01	1510.63	1.92
303.15	0.0015	0.01	1510.78	1.92
303.15	0.0018	0.01	1510.85	1.92
303.15	0.0021	0.01	1510.92	1.92
303.15	0.0024	0.01	1510.99	1.92
303.15	0.0027	0.01	1511.07	1.92
303.15	0.003	0.01	1511.2	1.92
308.15	0	0.01	1520.73	1.91
308.15	0.0003	0.01	1520.84	1.91
308.15	0.0006	0.01	1520.99	1.91
308.15	0.0009	0.01	1521.08	1.91
308.15	0.0012	0.01	1521.19	1.91
308.15	0.0015	0.01	1521.32	1.91
308.15	0.0018	0.01	1521.42	1.91
308.15	0.0021	0.01	1521.51	1.91
308.15	0.0024	0.01	1521.59	1.91
308.15	0.0027	0.01	1521.66	1.91
308.15	0.003	0.01	1521.78	1.91
313.15	0	0.01	1529.79	1.91
313.15	0.0003	0.01	1529.88	1.91
313.15	0.0006	0.01	1530.02	1.91
313.15	0.0009	0.01	1530.11	1.91
313.15	0.0012	0.01	1530.21	1.91
313.15	0.0015	0.01	1530.35	1.91
313.15	0.0018	0.01	1530.44	1.91
313.15	0.0021	0.01	1530.54	1.91
313.15	0.0024	0.01	1530.59	1.91
313.15	0.0027	0.01	1530.67	1.91
313.15	0.003	0.01	1530.78	1.91
293.15	0	0.05	1487.39	1.92
293.15	0.0003	0.05	1487.36	1.92
293.15	0.0006	0.05	1487.44	1.92
293.15	0.0009	0.05	1487.59	1.92
293.15	0.0012	0.05	1487.71	1.92
293.15	0.0015	0.05	1487.84	1.92
293.15	0.0018	0.05	1487.92	1.92
293.15	0.0021	0.05	1487.98	1.92
293.15	0.0024	0.05	1488.09	1.92
293.15	0.0027	0.05	1488.19	1.92
293.15	0.003	0.05	1488.28	1.92
298.15	0	0.05	1501.35	1.92
298.15	0.0003	0.05	1501.32	1.92
298.15	0.0006	0.05	1501.41	1.92
298.15	0.0009	0.05	1501.52	1.92
298.15	0.0012	0.05	1501.61	1.92
298.15	0.0015	0.05	1501.71	1.92
298.15	0.0018	0.05	1501.78	1.92
298.15	0.0021	0.05	1501.84	1.92
298.15	0.0024	0.05	1501.89	1.92
298.15	0.0027	0.05	1501.98	1.92
298.15	0.003	0.05	1502.15	1.92
303.15	0	0.05	1513.62	1.92
303.15	0.0003	0.05	1513.6	1.92
303.15	0.0006	0.05	1513.69	1.92
303.15	0.0009	0.05	1513.75	1.92
303.15	0.0012	0.05	1513.81	1.92
303.15	0.0015	0.05	1513.86	1.92
303.15	0.0018	0.05	1513.96	1.92
303.15	0.0021	0.05	1514.05	1.92
303.15	0.0024	0.05	1514.13	1.92
303.15	0.0027	0.05	1514.22	1.92
303.15	0.003	0.05	1514.29	1.92
308.15	0	0.05	1524.13	1.91
308.15	0.0003	0.05	1524.1	1.91
308.15	0.0006	0.05	1524.16	1.91
308.15	0.0009	0.05	1524.23	1.91
308.15	0.0012	0.05	1524.31	1.91
308.15	0.0015	0.05	1524.38	1.91
308.15	0.0018	0.05	1524.46	1.91
308.15	0.0021	0.05	1524.53	1.91
308.15	0.0024	0.05	1524.58	1.91
308.15	0.0027	0.05	1524.65	1.91
308.15	0.003	0.05	1524.75	1.91
313.15	0	0.05	1533.12	1.91
313.15	0.0003	0.05	1533.07	1.91
313.15	0.0006	0.05	1533.13	1.91
313.15	0.0009	0.05	1533.19	1.91
313.15	0.0012	0.05	1533.25	1.91
313.15	0.0015	0.05	1533.32	1.91
313.15	0.0018	0.05	1533.4	1.91
313.15	0.0021	0.05	1533.47	1.91
313.15	0.0024	0.05	1533.52	1.91
313.15	0.0027	0.05	1533.6	1.91
313.15	0.003	0.05	1533.69	1.91
293.15	0	0.1	1493.29	1.92
293.15	0.0003	0.1	1493.16	1.92
293.15	0.0006	0.1	1493.21	1.92
293.15	0.0009	0.1	1493.29	1.92
293.15	0.0012	0.1	1493.36	1.92
293.15	0.0015	0.1	1493.41	1.92
293.15	0.0018	0.1	1493.58	1.92
293.15	0.0021	0.1	1493.74	1.92
293.15	0.0024	0.1	1493.84	1.92
293.15	0.0027	0.1	1493.9	1.92
293.15	0.003	0.1	1493.95	1.92
298.15	0	0.1	1506.91	1.92
298.15	0.0003	0.1	1506.72	1.92
298.15	0.0006	0.1	1506.75	1.92
298.15	0.0009	0.1	1506.85	1.92
298.15	0.0012	0.1	1506.92	1.92
298.15	0.0015	0.1	1507.02	1.92
298.15	0.0018	0.1	1507.12	1.92
298.15	0.0021	0.1	1507.07	1.92
298.15	0.0024	0.1	1507.25	1.92
298.15	0.0027	0.1	1507.4	1.92
298.15	0.003	0.1	1507.45	1.92
303.15	0	0.1	1518.76	1.92
303.15	0.0003	0.1	1518.51	1.92
303.15	0.0006	0.1	1518.57	1.92
303.15	0.0009	0.1	1518.63	1.92
303.15	0.0012	0.1	1518.74	1.92
303.15	0.0015	0.1	1518.81	1.92
303.15	0.0018	0.1	1518.88	1.92
303.15	0.0021	0.1	1518.91	1.92
303.15	0.0024	0.1	1519	1.92
303.15	0.0027	0.1	1519.13	1.92
303.15	0.003	0.1	1519.18	1.92
308.15	0	0.1	1529.03	1.91
308.15	0.0003	0.1	1528.77	1.91
308.15	0.0006	0.1	1528.82	1.91
308.15	0.0009	0.1	1528.91	1.91
308.15	0.0012	0.1	1528.99	1.91
308.15	0.0015	0.1	1529.08	1.91
308.15	0.0018	0.1	1529.15	1.91
308.15	0.0021	0.1	1529.24	1.91
308.15	0.0024	0.1	1529.32	1.91
308.15	0.0027	0.1	1529.41	1.91
308.15	0.003	0.1	1529.49	1.91
313.15	0	0.1	1537.74	1.91
313.15	0.0003	0.1	1537.39	1.91
313.15	0.0006	0.1	1537.48	1.91
313.15	0.0009	0.1	1537.55	1.91
313.15	0.0012	0.1	1537.64	1.91
313.15	0.0015	0.1	1537.72	1.91
313.15	0.0018	0.1	1537.79	1.91
313.15	0.0021	0.1	1537.84	1.91
313.15	0.0024	0.1	1537.89	1.91
313.15	0.0027	0.1	1537.93	1.91
313.15	0.003	0.1	1537.99	1.91

System: L-methionine + water + sodium dodecylbenzenesulfonate (ILL DEFINED!); phases: Liquid
Fixed: Pressure, kPa = 101
Property: Viscosity, Pa*s (Liquid); method: Capillary tube (Ostwald; Ubbelohde) method
Temperature, K	Molality, mol/kg of sodium dodecylbenzenesulfonate (ILL DEFINED!)	Solvent: Molality, mol/kg of L-methionine	Viscosity, Pa*s	uncertainty
293.15	0.0003	0.01	0.00101439	6.198e-05
293.15	0.0006	0.01	0.00101635	6.21e-05
293.15	0.0009	0.01	0.0010185	6.223e-05
293.15	0.0012	0.01	0.00102042	6.234e-05
293.15	0.0015	0.01	0.00102253	6.247e-05
293.15	0.0018	0.01	0.00102574	6.267e-05
293.15	0.0021	0.01	0.00102978	6.291e-05
293.15	0.0024	0.01	0.00103375	6.315e-05
293.15	0.0027	0.01	0.00103819	6.342e-05
293.15	0.003	0.01	0.00104234	6.367e-05
298.15	0.0003	0.01	0.00088345	5.4e-05
298.15	0.0006	0.01	0.00088586	5.415e-05
298.15	0.0009	0.01	0.00088831	5.43e-05
298.15	0.0012	0.01	0.00089079	5.445e-05
298.15	0.0015	0.01	0.00089318	5.459e-05
298.15	0.0018	0.01	0.00089529	5.473e-05
298.15	0.0021	0.01	0.00090013	5.502e-05
298.15	0.0024	0.01	0.00090402	5.526e-05
298.15	0.0027	0.01	0.00090845	5.554e-05
298.15	0.003	0.01	0.00091334	5.583e-05
303.15	0.0003	0.01	0.0007789	4.758e-05
303.15	0.0006	0.01	0.00078041	4.767e-05
303.15	0.0009	0.01	0.00078213	4.777e-05
303.15	0.0012	0.01	0.00078341	4.785e-05
303.15	0.0015	0.01	0.00078475	4.794e-05
303.15	0.0018	0.01	0.00078627	4.803e-05
303.15	0.0021	0.01	0.00078792	4.813e-05
303.15	0.0024	0.01	0.00078951	4.823e-05
303.15	0.0027	0.01	0.00079171	4.837e-05
303.15	0.003	0.01	0.00079429	4.853e-05
308.15	0.0003	0.01	0.00070243	4.287e-05
308.15	0.0006	0.01	0.00070402	4.297e-05
308.15	0.0009	0.01	0.00070538	4.305e-05
308.15	0.0012	0.01	0.00070734	4.317e-05
308.15	0.0015	0.01	0.00070883	4.326e-05
308.15	0.0018	0.01	0.00071106	4.339e-05
308.15	0.0021	0.01	0.0007131	4.352e-05
308.15	0.0024	0.01	0.00071503	4.363e-05
308.15	0.0027	0.01	0.00071696	4.375e-05
308.15	0.003	0.01	0.00071973	4.392e-05
313.15	0.0003	0.01	0.00064243	3.921e-05
313.15	0.0006	0.01	0.00064416	3.932e-05
313.15	0.0009	0.01	0.00064595	3.942e-05
313.15	0.0012	0.01	0.00064786	3.954e-05
313.15	0.0015	0.01	0.00064969	3.965e-05
313.15	0.0018	0.01	0.00065229	3.981e-05
313.15	0.0021	0.01	0.0006544	3.993e-05
313.15	0.0024	0.01	0.00065685	4.008e-05
313.15	0.0027	0.01	0.00065922	4.023e-05
313.15	0.003	0.01	0.00066186	4.039e-05
293.15	0.0003	0.05	0.00098363	6.015e-05
293.15	0.0006	0.05	0.0009846	6.018e-05
293.15	0.0009	0.05	0.00098622	6.027e-05
293.15	0.0012	0.05	0.00098834	6.04e-05
293.15	0.0015	0.05	0.00099053	6.053e-05
293.15	0.0018	0.05	0.00099272	6.066e-05
293.15	0.0021	0.05	0.00099427	6.076e-05
293.15	0.0024	0.05	0.00099675	6.091e-05
293.15	0.0027	0.05	0.00099973	6.11e-05
293.15	0.003	0.05	0.00100297	6.134e-05
298.15	0.0003	0.05	0.00086262	5.269e-05
298.15	0.0006	0.05	0.0008656	5.287e-05
298.15	0.0009	0.05	0.00086855	5.304e-05
298.15	0.0012	0.05	0.00087061	5.316e-05
298.15	0.0015	0.05	0.00087305	5.331e-05
298.15	0.0018	0.05	0.00087518	5.343e-05
298.15	0.0021	0.05	0.00087792	5.36e-05
298.15	0.0024	0.05	0.00087974	5.371e-05
298.15	0.0027	0.05	0.00088178	5.383e-05
298.15	0.003	0.05	0.00088319	5.392e-05
303.15	0.0003	0.05	0.00077813	4.75e-05
303.15	0.0006	0.05	0.00078189	4.773e-05
303.15	0.0009	0.05	0.00078604	4.798e-05
303.15	0.0012	0.05	0.00078912	4.817e-05
303.15	0.0015	0.05	0.00079268	4.838e-05
303.15	0.0018	0.05	0.00079782	4.869e-05
303.15	0.0021	0.05	0.00080035	4.885e-05
303.15	0.0024	0.05	0.00080238	4.897e-05
303.15	0.0027	0.05	0.00080536	4.915e-05
303.15	0.003	0.05	0.00080883	4.935e-05
308.15	0.0003	0.05	0.00070461	4.302e-05
308.15	0.0006	0.05	0.00070623	4.312e-05
308.15	0.0009	0.05	0.00070791	4.323e-05
308.15	0.0012	0.05	0.00071028	4.337e-05
308.15	0.0015	0.05	0.00071346	4.357e-05
308.15	0.0018	0.05	0.00071613	4.374e-05
308.15	0.0021	0.05	0.00071883	4.39e-05
308.15	0.0024	0.05	0.00072164	4.407e-05
308.15	0.0027	0.05	0.00072537	4.43e-05
308.15	0.003	0.05	0.00072835	4.448e-05
313.15	0.0003	0.05	0.00062952	3.843e-05
313.15	0.0006	0.05	0.00063241	3.862e-05
313.15	0.0009	0.05	0.00063423	3.873e-05
313.15	0.0012	0.05	0.00063575	3.882e-05
313.15	0.0015	0.05	0.00063767	3.894e-05
313.15	0.0018	0.05	0.00063926	3.904e-05
313.15	0.0021	0.05	0.00064115	3.916e-05
313.15	0.0024	0.05	0.00064291	3.926e-05
313.15	0.0027	0.05	0.0006449	3.939e-05
313.15	0.003	0.05	0.00064679	3.949e-05
293.15	0.0003	0.1	0.00101375	6.19e-05
293.15	0.0006	0.1	0.00101542	6.2e-05
293.15	0.0009	0.1	0.00101697	6.209e-05
293.15	0.0012	0.1	0.00101875	6.22e-05
293.15	0.0015	0.1	0.0010203	6.229e-05
293.15	0.0018	0.1	0.00102218	6.24e-05
293.15	0.0021	0.1	0.00102392	6.251e-05
293.15	0.0024	0.1	0.00102702	6.27e-05
293.15	0.0027	0.1	0.00103052	6.291e-05
293.15	0.003	0.1	0.00103563	6.322e-05
298.15	0.0003	0.1	0.00089547	5.47e-05
298.15	0.0006	0.1	0.00089764	5.483e-05
298.15	0.0009	0.1	0.00090029	5.499e-05
298.15	0.0012	0.1	0.00090202	5.51e-05
298.15	0.0015	0.1	0.00090419	5.523e-05
298.15	0.0018	0.1	0.00090643	5.536e-05
298.15	0.0021	0.1	0.00090919	5.553e-05
298.15	0.0024	0.1	0.00091215	5.571e-05
298.15	0.0027	0.1	0.00091512	5.589e-05
298.15	0.003	0.1	0.00092094	5.624e-05
303.15	0.0003	0.1	0.0007957	4.858e-05
303.15	0.0006	0.1	0.00079787	4.871e-05
303.15	0.0009	0.1	0.0008001	4.884e-05
303.15	0.0012	0.1	0.00080234	4.898e-05
303.15	0.0015	0.1	0.0008045	4.911e-05
303.15	0.0018	0.1	0.00080739	4.929e-05
303.15	0.0021	0.1	0.00080938	4.941e-05
303.15	0.0024	0.1	0.00081241	4.959e-05
303.15	0.0027	0.1	0.00081657	4.984e-05
303.15	0.003	0.1	0.00082193	5.017e-05
308.15	0.0003	0.1	0.00072678	4.434e-05
308.15	0.0006	0.1	0.00072919	4.449e-05
308.15	0.0009	0.1	0.00073096	4.46e-05
308.15	0.0012	0.1	0.00073356	4.475e-05
308.15	0.0015	0.1	0.00073529	4.486e-05
308.15	0.0018	0.1	0.00073763	4.5e-05
308.15	0.0021	0.1	0.00074055	4.518e-05
308.15	0.0024	0.1	0.00074357	4.536e-05
308.15	0.0027	0.1	0.00074649	4.554e-05
308.15	0.003	0.1	0.0007507	4.58e-05
313.15	0.0003	0.1	0.00066733	4.072e-05
313.15	0.0006	0.1	0.0006691	4.083e-05
313.15	0.0009	0.1	0.00067125	4.096e-05
313.15	0.0012	0.1	0.00067301	4.107e-05
313.15	0.0015	0.1	0.00067493	4.119e-05
313.15	0.0018	0.1	0.00067689	4.131e-05
313.15	0.0021	0.1	0.00067905	4.144e-05
313.15	0.0024	0.1	0.00068182	4.161e-05
313.15	0.0027	0.1	0.00068522	4.181e-05
313.15	0.003	0.1	0.00068884	4.203e-05

System: L-histidine + dodecyltrimethylammonium bromide + water; phases: Liquid
Fixed: Pressure, kPa = 101
Property: Mass density, kg/m3 (Liquid); method: Vibrating tube method
Temperature, K	Molality, mol/kg of dodecyltrimethylammonium bromide	Solvent: Molality, mol/kg of L-histidine	Mass density, kg/m3	uncertainty
293.15	0	0.01	998.838	0.381
293.15	0.003	0.01	998.919	0.381
293.15	0.006	0.01	998.98	0.381
293.15	0.009	0.01	999.038	0.381
293.15	0.012	0.01	999.11	0.381
293.15	0.015	0.01	999.169	0.381
293.15	0.018	0.01	999.223	0.381
293.15	0.021	0.01	999.265	0.381
293.15	0.024	0.01	999.316	0.381
293.15	0.027	0.01	999.368	0.381
293.15	0.03	0.01	999.406	0.381
298.15	0	0.01	997.667	0.384
298.15	0.003	0.01	997.745	0.381
298.15	0.006	0.01	997.797	0.381
298.15	0.009	0.01	997.858	0.381
298.15	0.012	0.01	997.915	0.381
298.15	0.015	0.01	997.973	0.381
298.15	0.018	0.01	998.03	0.381
298.15	0.021	0.01	998.066	0.381
298.15	0.024	0.01	998.115	0.381
298.15	0.027	0.01	998.165	0.381
298.15	0.03	0.01	998.202	0.381
303.15	0	0.01	996.259	0.384
303.15	0.003	0.01	996.331	0.381
303.15	0.006	0.01	996.38	0.381
303.15	0.009	0.01	996.436	0.381
303.15	0.012	0.01	996.485	0.381
303.15	0.015	0.01	996.543	0.381
303.15	0.018	0.01	996.598	0.381
303.15	0.021	0.01	996.632	0.381
303.15	0.024	0.01	996.678	0.381
303.15	0.027	0.01	996.726	0.381
303.15	0.03	0.01	996.758	0.381
308.15	0	0.01	994.631	0.383
308.15	0.003	0.01	994.698	0.381
308.15	0.006	0.01	994.747	0.381
308.15	0.009	0.01	994.797	0.381
308.15	0.012	0.01	994.851	0.381
308.15	0.015	0.01	994.897	0.381
308.15	0.018	0.01	994.953	0.381
308.15	0.021	0.01	994.983	0.381
308.15	0.024	0.01	995.029	0.381
308.15	0.027	0.01	995.071	0.381
308.15	0.03	0.01	995.101	0.381
313.15	0	0.01	992.808	0.381
313.15	0.003	0.01	992.87	0.381
313.15	0.006	0.01	992.914	0.381
313.15	0.009	0.01	992.95	0.381
313.15	0.012	0.01	993.004	0.381
313.15	0.015	0.01	993.045	0.381
313.15	0.018	0.01	993.103	0.381
313.15	0.021	0.01	993.145	0.381
313.15	0.024	0.01	993.181	0.381
313.15	0.027	0.01	993.219	0.381
313.15	0.03	0.01	993.246	0.381
293.15	0	0.05	1001.07	0.382
293.15	0.003	0.05	1001.2	0.383
293.15	0.006	0.05	1001.27	0.382
293.15	0.009	0.05	1001.345	0.382
293.15	0.012	0.05	1001.394	0.381
293.15	0.015	0.05	1001.443	0.382
293.15	0.018	0.05	1001.497	0.382
293.15	0.021	0.05	1001.546	0.382
293.15	0.024	0.05	1001.587	0.382
293.15	0.027	0.05	1001.634	0.381
293.15	0.03	0.05	1001.663	0.382
298.15	0	0.05	999.868	0.382
298.15	0.003	0.05	999.952	0.382
298.15	0.006	0.05	1000.067	0.382
298.15	0.009	0.05	1000.133	0.381
298.15	0.012	0.05	1000.182	0.381
298.15	0.015	0.05	1000.232	0.381
298.15	0.018	0.05	1000.285	0.381
298.15	0.021	0.05	1000.34	0.381
298.15	0.024	0.05	1000.375	0.381
298.15	0.027	0.05	1000.425	0.381
298.15	0.03	0.05	1000.46	0.381
303.15	0	0.05	998.435	0.382
303.15	0.003	0.05	998.517	0.382
303.15	0.006	0.05	998.629	0.382
303.15	0.009	0.05	998.693	0.381
303.15	0.012	0.05	998.736	0.381
303.15	0.015	0.05	998.78	0.381
303.15	0.018	0.05	998.829	0.381
303.15	0.021	0.05	998.874	0.381
303.15	0.024	0.05	998.926	0.381
303.15	0.027	0.05	998.948	0.381
303.15	0.03	0.05	998.972	0.381
308.15	0	0.05	996.793	0.382
308.15	0.003	0.05	996.87	0.382
308.15	0.006	0.05	996.979	0.382
308.15	0.009	0.05	997.037	0.381
308.15	0.012	0.05	997.076	0.381
308.15	0.015	0.05	997.119	0.381
308.15	0.018	0.05	997.135	0.381
308.15	0.021	0.05	997.189	0.381
308.15	0.024	0.05	997.229	0.381
308.15	0.027	0.05	997.274	0.381
308.15	0.03	0.05	997.3	0.381
313.15	0	0.05	994.954	0.381
313.15	0.003	0.05	995.027	0.382
313.15	0.006	0.05	995.131	0.381
313.15	0.009	0.05	995.186	0.381
313.15	0.012	0.05	995.222	0.381
313.15	0.015	0.05	995.259	0.381
313.15	0.018	0.05	995.278	0.381
313.15	0.021	0.05	995.327	0.381
313.15	0.024	0.05	995.36	0.381
313.15	0.027	0.05	995.393	0.381
313.15	0.03	0.05	995.427	0.381
293.15	0	0.1	1003.981	0.384
293.15	0.003	0.1	1004.089	0.384
293.15	0.006	0.1	1004.156	0.383
293.15	0.009	0.1	1004.217	0.383
293.15	0.012	0.1	1004.269	0.383
293.15	0.015	0.1	1004.307	0.383
293.15	0.018	0.1	1004.353	0.383
293.15	0.021	0.1	1004.395	0.383
293.15	0.024	0.1	1004.448	0.383
293.15	0.027	0.1	1004.479	0.383
293.15	0.03	0.1	1004.531	0.383
298.15	0	0.1	1002.762	0.386
298.15	0.003	0.1	1002.861	0.383
298.15	0.006	0.1	1002.935	0.382
298.15	0.009	0.1	1002.98	0.382
298.15	0.012	0.1	1003.027	0.382
298.15	0.015	0.1	1003.081	0.382
298.15	0.018	0.1	1003.123	0.382
298.15	0.021	0.1	1003.157	0.382
298.15	0.024	0.1	1003.192	0.382
298.15	0.027	0.1	1003.219	0.382
298.15	0.03	0.1	1003.28	0.382
303.15	0	0.1	1001.321	0.385
303.15	0.003	0.1	1001.402	0.382
303.15	0.006	0.1	1001.462	0.382
303.15	0.009	0.1	1001.509	0.382
303.15	0.012	0.1	1001.553	0.382
303.15	0.015	0.1	1001.595	0.382
303.15	0.018	0.1	1001.621	0.382
303.15	0.021	0.1	1001.657	0.382
303.15	0.024	0.1	1001.696	0.382
303.15	0.027	0.1	1001.742	0.382
303.15	0.03	0.1	1001.781	0.381
308.15	0	0.1	999.656	0.384
308.15	0.003	0.1	999.733	0.381
308.15	0.006	0.1	999.786	0.381
308.15	0.009	0.1	999.831	0.381
308.15	0.012	0.1	999.872	0.381
308.15	0.015	0.1	999.922	0.381
308.15	0.018	0.1	999.949	0.381
308.15	0.021	0.1	999.975	0.381
308.15	0.024	0.1	1000.025	0.381
308.15	0.027	0.1	1000.075	0.381
308.15	0.03	0.1	1000.124	0.381
313.15	0	0.1	997.795	0.381
313.15	0.003	0.1	997.871	0.381
313.15	0.006	0.1	997.92	0.381
313.15	0.009	0.1	997.96	0.381
313.15	0.012	0.1	998.01	0.381
313.15	0.015	0.1	998.05	0.381
313.15	0.018	0.1	998.085	0.381
313.15	0.021	0.1	998.111	0.381
313.15	0.024	0.1	998.153	0.381
313.15	0.027	0.1	998.189	0.381
313.15	0.03	0.1	998.226	0.381

System: L-histidine + dodecyltrimethylammonium bromide + water; phases: Liquid
Fixed: Pressure, kPa = 101
Property: Speed of sound, m/s (Liquid); method: Sing-around technique in a fixed-path interferometer
Temperature, K	Molality, mol/kg of dodecyltrimethylammonium bromide	Solvent: Molality, mol/kg of L-histidine	Speed of sound, m/s	uncertainty
293.15	0	0.01	1483.61	1.35
293.15	0.003	0.01	1484.5	1.35
293.15	0.006	0.01	1485.16	1.35
293.15	0.009	0.01	1485.89	1.35
293.15	0.012	0.01	1486.58	1.35
293.15	0.015	0.01	1487.03	1.35
293.15	0.018	0.01	1487.34	1.35
293.15	0.021	0.01	1487.54	1.35
293.15	0.024	0.01	1487.71	1.35
293.15	0.027	0.01	1487.82	1.35
293.15	0.03	0.01	1487.92	1.35
298.15	0	0.01	1497.55	1.35
298.15	0.003	0.01	1498.41	1.35
298.15	0.006	0.01	1499.09	1.35
298.15	0.009	0.01	1499.74	1.35
298.15	0.012	0.01	1500.39	1.35
298.15	0.015	0.01	1500.82	1.35
298.15	0.018	0.01	1501.07	1.35
298.15	0.021	0.01	1501.18	1.35
298.15	0.024	0.01	1501.3	1.35
298.15	0.027	0.01	1501.37	1.35
298.15	0.03	0.01	1501.41	1.35
303.15	0	0.01	1509.5	1.34
303.15	0.003	0.01	1510.33	1.34
303.15	0.006	0.01	1510.97	1.34
303.15	0.009	0.01	1511.62	1.34
303.15	0.012	0.01	1512.19	1.34
303.15	0.015	0.01	1512.67	1.34
303.15	0.018	0.01	1512.94	1.34
303.15	0.021	0.01	1513.15	1.34
303.15	0.024	0.01	1513.25	1.34
303.15	0.027	0.01	1513.37	1.34
303.15	0.03	0.01	1513.45	1.34
308.15	0	0.01	1520.48	1.34
308.15	0.003	0.01	1521.29	1.34
308.15	0.006	0.01	1521.96	1.34
308.15	0.009	0.01	1522.5	1.34
308.15	0.012	0.01	1523.03	1.34
308.15	0.015	0.01	1523.48	1.34
308.15	0.018	0.01	1523.65	1.34
308.15	0.021	0.01	1523.55	1.34
308.15	0.024	0.01	1523.57	1.34
308.15	0.027	0.01	1523.56	1.34
308.15	0.03	0.01	1523.55	1.34
313.15	0	0.01	1529.54	1.34
313.15	0.003	0.01	1530.33	1.34
313.15	0.006	0.01	1530.91	1.34
313.15	0.009	0.01	1531.41	1.34
313.15	0.012	0.01	1531.88	1.34
313.15	0.015	0.01	1532.31	1.34
313.15	0.018	0.01	1532.44	1.34
313.15	0.021	0.01	1532.37	1.34
313.15	0.024	0.01	1532.35	1.34
313.15	0.027	0.01	1532.32	1.34
313.15	0.03	0.01	1532.28	1.34
293.15	0	0.05	1487.37	1.35
293.15	0.003	0.05	1488.07	1.35
293.15	0.006	0.05	1488.8	1.35
293.15	0.009	0.05	1489.27	1.35
293.15	0.012	0.05	1490	1.35
293.15	0.015	0.05	1490.61	1.35
293.15	0.018	0.05	1490.97	1.35
293.15	0.021	0.05	1490.95	1.35
293.15	0.024	0.05	1491.1	1.35
293.15	0.027	0.05	1491.34	1.35
293.15	0.03	0.05	1491.43	1.35
298.15	0	0.05	1501.1	1.35
298.15	0.003	0.05	1501.82	1.35
298.15	0.006	0.05	1502.5	1.35
298.15	0.009	0.05	1503.05	1.35
298.15	0.012	0.05	1503.72	1.35
298.15	0.015	0.05	1504.25	1.35
298.15	0.018	0.05	1504.52	1.35
298.15	0.021	0.05	1504.53	1.35
298.15	0.024	0.05	1504.61	1.35
298.15	0.027	0.05	1504.8	1.35
298.15	0.03	0.05	1504.77	1.35
303.15	0	0.05	1513.32	1.34
303.15	0.003	0.05	1513.92	1.34
303.15	0.006	0.05	1514.5	1.34
303.15	0.009	0.05	1515.09	1.34
303.15	0.012	0.05	1515.59	1.34
303.15	0.015	0.05	1516.06	1.34
303.15	0.018	0.05	1516.32	1.34
303.15	0.021	0.05	1516.43	1.34
303.15	0.024	0.05	1516.39	1.34
303.15	0.027	0.05	1516.53	1.34
303.15	0.03	0.05	1516.49	1.34
308.15	0	0.05	1523.82	1.34
308.15	0.003	0.05	1524.38	1.34
308.15	0.006	0.05	1524.89	1.34
308.15	0.009	0.05	1525.43	1.34
308.15	0.012	0.05	1525.87	1.34
308.15	0.015	0.05	1526.3	1.34
308.15	0.018	0.05	1526.55	1.34
308.15	0.021	0.05	1526.65	1.34
308.15	0.024	0.05	1526.59	1.34
308.15	0.027	0.05	1526.66	1.34
308.15	0.03	0.05	1526.64	1.34
313.15	0	0.05	1532.75	1.34
313.15	0.003	0.05	1533.21	1.34
313.15	0.006	0.05	1533.72	1.34
313.15	0.009	0.05	1534.25	1.34
313.15	0.012	0.05	1534.59	1.34
313.15	0.015	0.05	1534.96	1.34
313.15	0.018	0.05	1535.22	1.34
313.15	0.021	0.05	1535.33	1.34
313.15	0.024	0.05	1535.32	1.34
313.15	0.027	0.05	1535.3	1.34
313.15	0.03	0.05	1535.24	1.34
293.15	0	0.1	1491.83	1.35
293.15	0.003	0.1	1492.67	1.35
293.15	0.006	0.1	1493.47	1.35
293.15	0.009	0.1	1494.15	1.35
293.15	0.012	0.1	1494.94	1.35
293.15	0.015	0.1	1495.48	1.35
293.15	0.018	0.1	1495.55	1.35
293.15	0.021	0.1	1495.68	1.35
293.15	0.024	0.1	1495.52	1.35
293.15	0.027	0.1	1495.66	1.35
293.15	0.03	0.1	1495.93	1.35
298.15	0	0.1	1505.52	1.35
298.15	0.003	0.1	1506.3	1.35
298.15	0.006	0.1	1507.02	1.35
298.15	0.009	0.1	1507.68	1.35
298.15	0.012	0.1	1508.38	1.35
298.15	0.015	0.1	1508.86	1.35
298.15	0.018	0.1	1508.95	1.35
298.15	0.021	0.1	1509.02	1.35
298.15	0.024	0.1	1508.87	1.35
298.15	0.027	0.1	1509	1.35
298.15	0.03	0.1	1509.19	1.35
303.15	0	0.1	1517.55	1.34
303.15	0.003	0.1	1518.26	1.34
303.15	0.006	0.1	1518.81	1.34
303.15	0.009	0.1	1519.5	1.34
303.15	0.012	0.1	1520.11	1.34
303.15	0.015	0.1	1520.57	1.34
303.15	0.018	0.1	1520.67	1.34
303.15	0.021	0.1	1520.6	1.34
303.15	0.024	0.1	1520.54	1.34
303.15	0.027	0.1	1520.65	1.34
303.15	0.03	0.1	1520.69	1.34
308.15	0	0.1	1527.86	1.34
308.15	0.003	0.1	1528.45	1.34
308.15	0.006	0.1	1528.99	1.34
308.15	0.009	0.1	1529.62	1.34
308.15	0.012	0.1	1530.13	1.34
308.15	0.015	0.1	1530.63	1.34
308.15	0.018	0.1	1530.65	1.34
308.15	0.021	0.1	1530.64	1.34
308.15	0.024	0.1	1530.56	1.34
308.15	0.027	0.1	1530.64	1.34
308.15	0.03	0.1	1530.64	1.34
313.15	0	0.1	1536.62	1.34
313.15	0.003	0.1	1537.16	1.34
313.15	0.006	0.1	1537.64	1.34
313.15	0.009	0.1	1538.2	1.34
313.15	0.012	0.1	1538.66	1.34
313.15	0.015	0.1	1539.14	1.34
313.15	0.018	0.1	1539.17	1.34
313.15	0.021	0.1	1539.14	1.34
313.15	0.024	0.1	1539.04	1.34
313.15	0.027	0.1	1539.1	1.34
313.15	0.03	0.1	1539.06	1.34

System: L-histidine + dodecyltrimethylammonium bromide + water; phases: Liquid
Fixed: Pressure, kPa = 101
Property: Viscosity, Pa*s (Liquid); method: Capillary tube (Ostwald; Ubbelohde) method
Temperature, K	Molality, mol/kg of dodecyltrimethylammonium bromide	Solvent: Molality, mol/kg of L-histidine	Viscosity, Pa*s	uncertainty
293.15	0.003	0.01	0.00102726	6.235e-05
293.15	0.006	0.01	0.00103008	6.252e-05
293.15	0.009	0.01	0.0010329	6.269e-05
293.15	0.012	0.01	0.00103541	6.284e-05
293.15	0.015	0.01	0.00103757	6.296e-05
293.15	0.018	0.01	0.00104311	6.328e-05
293.15	0.021	0.01	0.00104799	6.359e-05
293.15	0.024	0.01	0.00105556	6.405e-05
293.15	0.027	0.01	0.00105993	6.431e-05
293.15	0.03	0.01	0.00106237	6.447e-05
298.15	0.003	0.01	0.00090067	5.466e-05
298.15	0.006	0.01	0.00090394	5.486e-05
298.15	0.009	0.01	0.00090754	5.508e-05
298.15	0.012	0.01	0.00090884	5.516e-05
298.15	0.015	0.01	0.00091756	5.568e-05
298.15	0.018	0.01	0.00092496	5.613e-05
298.15	0.021	0.01	0.00092671	5.623e-05
298.15	0.024	0.01	0.00093148	5.652e-05
298.15	0.027	0.01	0.00093522	5.674e-05
298.15	0.03	0.01	0.00093543	5.675e-05
303.15	0.003	0.01	0.0008148	4.942e-05
303.15	0.006	0.01	0.00081584	4.948e-05
303.15	0.009	0.01	0.00081635	4.951e-05
303.15	0.012	0.01	0.00082091	4.978e-05
303.15	0.015	0.01	0.00082256	4.989e-05
303.15	0.018	0.01	0.00082703	5.017e-05
303.15	0.021	0.01	0.00083917	5.09e-05
303.15	0.024	0.01	0.00084309	5.114e-05
303.15	0.027	0.01	0.00084858	5.147e-05
303.15	0.03	0.01	0.00085096	5.161e-05
308.15	0.003	0.01	0.00073622	4.466e-05
308.15	0.006	0.01	0.00073837	4.479e-05
308.15	0.009	0.01	0.00074116	4.495e-05
308.15	0.012	0.01	0.00074525	4.52e-05
308.15	0.015	0.01	0.00074771	4.535e-05
308.15	0.018	0.01	0.00075145	4.558e-05
308.15	0.021	0.01	0.0007533	4.571e-05
308.15	0.024	0.01	0.00075559	4.585e-05
308.15	0.027	0.01	0.00075767	4.597e-05
308.15	0.03	0.01	0.00076008	4.611e-05
313.15	0.003	0.01	0.00066699	4.047e-05
313.15	0.006	0.01	0.00066803	4.054e-05
313.15	0.009	0.01	0.00066902	4.06e-05
313.15	0.012	0.01	0.00067028	4.068e-05
313.15	0.015	0.01	0.00067173	4.077e-05
313.15	0.018	0.01	0.00067435	4.094e-05
313.15	0.021	0.01	0.00067632	4.105e-05
313.15	0.024	0.01	0.00067976	4.126e-05
313.15	0.027	0.01	0.00068538	4.159e-05
313.15	0.03	0.01	0.00068878	4.179e-05
293.15	0.003	0.05	0.00102028	6.206e-05
293.15	0.006	0.05	0.00102228	6.216e-05
293.15	0.009	0.05	0.00102533	6.234e-05
293.15	0.012	0.05	0.00102674	6.242e-05
293.15	0.015	0.05	0.00102868	6.253e-05
293.15	0.018	0.05	0.00103006	6.261e-05
293.15	0.021	0.05	0.00103197	6.273e-05
293.15	0.024	0.05	0.00103466	6.289e-05
293.15	0.027	0.05	0.00103828	6.31e-05
293.15	0.03	0.05	0.00104143	6.331e-05
298.15	0.003	0.05	0.00087376	5.306e-05
298.15	0.006	0.05	0.00087564	5.317e-05
298.15	0.009	0.05	0.00087892	5.337e-05
298.15	0.012	0.05	0.00088078	5.348e-05
298.15	0.015	0.05	0.0008849	5.373e-05
298.15	0.018	0.05	0.00088761	5.389e-05
298.15	0.021	0.05	0.00089068	5.408e-05
298.15	0.024	0.05	0.00089448	5.431e-05
298.15	0.027	0.05	0.00090011	5.464e-05
298.15	0.03	0.05	0.00090634	5.501e-05
303.15	0.003	0.05	0.00079618	4.828e-05
303.15	0.006	0.05	0.00079857	4.843e-05
303.15	0.009	0.05	0.00080033	4.853e-05
303.15	0.012	0.05	0.0008016	4.861e-05
303.15	0.015	0.05	0.00080348	4.873e-05
303.15	0.018	0.05	0.00080602	4.888e-05
303.15	0.021	0.05	0.00080784	4.899e-05
303.15	0.024	0.05	0.00081158	4.922e-05
303.15	0.027	0.05	0.00081804	4.961e-05
303.15	0.03	0.05	0.00082285	4.991e-05
308.15	0.003	0.05	0.00072086	4.374e-05
308.15	0.006	0.05	0.00072124	4.377e-05
308.15	0.009	0.05	0.00072189	4.381e-05
308.15	0.012	0.05	0.00072236	4.384e-05
308.15	0.015	0.05	0.00072364	4.391e-05
308.15	0.018	0.05	0.00072653	4.409e-05
308.15	0.021	0.05	0.0007285	4.421e-05
308.15	0.024	0.05	0.00073205	4.443e-05
308.15	0.027	0.05	0.00073398	4.455e-05
308.15	0.03	0.05	0.00073687	4.473e-05
313.15	0.003	0.05	0.00063966	3.88e-05
313.15	0.006	0.05	0.00064022	3.885e-05
313.15	0.009	0.05	0.00064129	3.891e-05
313.15	0.012	0.05	0.00064262	3.899e-05
313.15	0.015	0.05	0.00064375	3.906e-05
313.15	0.018	0.05	0.00064526	3.915e-05
313.15	0.021	0.05	0.00064631	3.922e-05
313.15	0.024	0.05	0.00064737	3.928e-05
313.15	0.027	0.05	0.00064863	3.936e-05
313.15	0.03	0.05	0.00065077	3.946e-05
293.15	0.003	0.1	0.00106119	6.449e-05
293.15	0.006	0.1	0.00106359	6.463e-05
293.15	0.009	0.1	0.00106505	6.471e-05
293.15	0.012	0.1	0.00106651	6.48e-05
293.15	0.015	0.1	0.00106841	6.491e-05
293.15	0.018	0.1	0.00107015	6.502e-05
293.15	0.021	0.1	0.00107234	6.515e-05
293.15	0.024	0.1	0.0010785	6.552e-05
293.15	0.027	0.1	0.00108319	6.581e-05
293.15	0.03	0.1	0.00108863	6.613e-05
298.15	0.003	0.1	0.00090831	5.513e-05
298.15	0.006	0.1	0.00091179	5.534e-05
298.15	0.009	0.1	0.00091458	5.55e-05
298.15	0.012	0.1	0.00091641	5.561e-05
298.15	0.015	0.1	0.00091886	5.575e-05
298.15	0.018	0.1	0.00092048	5.585e-05
298.15	0.021	0.1	0.00092305	5.6e-05
298.15	0.024	0.1	0.00092714	5.625e-05
298.15	0.027	0.1	0.00093094	5.648e-05
298.15	0.03	0.1	0.00093863	5.694e-05
303.15	0.003	0.1	0.00084225	5.106e-05
303.15	0.006	0.1	0.00084616	5.13e-05
303.15	0.009	0.1	0.00084971	5.151e-05
303.15	0.012	0.1	0.00085395	5.177e-05
303.15	0.015	0.1	0.0008582	5.203e-05
303.15	0.018	0.1	0.00086243	5.228e-05
303.15	0.021	0.1	0.00086663	5.253e-05
303.15	0.024	0.1	0.00087035	5.275e-05
303.15	0.027	0.1	0.00087621	5.31e-05
303.15	0.03	0.1	0.00088088	5.339e-05
308.15	0.003	0.1	0.00075115	4.558e-05
308.15	0.006	0.1	0.00075492	4.58e-05
308.15	0.009	0.1	0.00075601	4.587e-05
308.15	0.012	0.1	0.00075893	4.605e-05
308.15	0.015	0.1	0.00075998	4.612e-05
308.15	0.018	0.1	0.00076435	4.638e-05
308.15	0.021	0.1	0.00077068	4.677e-05
308.15	0.024	0.1	0.0007756	4.706e-05
308.15	0.027	0.1	0.00078083	4.738e-05
308.15	0.03	0.1	0.0007862	4.77e-05
313.15	0.003	0.1	0.00068047	4.129e-05
313.15	0.006	0.1	0.00068321	4.146e-05
313.15	0.009	0.1	0.00068546	4.159e-05
313.15	0.012	0.1	0.00068808	4.175e-05
313.15	0.015	0.1	0.00069052	4.189e-05
313.15	0.018	0.1	0.00069261	4.202e-05
313.15	0.021	0.1	0.00069625	4.225e-05
313.15	0.024	0.1	0.00070141	4.256e-05
313.15	0.027	0.1	0.00070556	4.281e-05
313.15	0.03	0.1	0.00070934	4.304e-05

System: L-methionine + dodecyltrimethylammonium bromide + water; phases: Liquid
Fixed: Pressure, kPa = 101
Property: Mass density, kg/m3 (Liquid); method: Vibrating tube method
Temperature, K	Molality, mol/kg of dodecyltrimethylammonium bromide	Solvent: Molality, mol/kg of L-methionine	Mass density, kg/m3	uncertainty
293.15	0	0.01	998.78	0.488
293.15	0.003	0.01	998.867	0.488
293.15	0.006	0.01	998.923	0.488
293.15	0.009	0.01	998.985	0.488
293.15	0.012	0.01	999.039	0.488
293.15	0.015	0.01	999.098	0.488
293.15	0.018	0.01	999.167	0.488
293.15	0.021	0.01	999.208	0.488
293.15	0.024	0.01	999.254	0.488
293.15	0.027	0.01	999.314	0.488
293.15	0.03	0.01	999.341	0.488
298.15	0	0.01	997.639	0.49
298.15	0.003	0.01	997.692	0.488
298.15	0.006	0.01	997.744	0.488
298.15	0.009	0.01	997.801	0.488
298.15	0.012	0.01	997.858	0.488
298.15	0.015	0.01	997.915	0.488
298.15	0.018	0.01	997.971	0.488
298.15	0.021	0.01	998.015	0.488
298.15	0.024	0.01	998.052	0.488
298.15	0.027	0.01	998.105	0.488
298.15	0.03	0.01	998.135	0.488
303.15	0	0.01	996.208	0.489
303.15	0.003	0.01	996.275	0.487
303.15	0.006	0.01	996.326	0.487
303.15	0.009	0.01	996.369	0.487
303.15	0.012	0.01	996.43	0.487
303.15	0.015	0.01	996.483	0.487
303.15	0.018	0.01	996.528	0.487
303.15	0.021	0.01	996.576	0.487
303.15	0.024	0.01	996.617	0.487
303.15	0.027	0.01	996.665	0.487
303.15	0.03	0.01	996.692	0.487
308.15	0	0.01	994.583	0.489
308.15	0.003	0.01	994.647	0.487
308.15	0.006	0.01	994.695	0.487
308.15	0.009	0.01	994.741	0.487
308.15	0.012	0.01	994.798	0.487
308.15	0.015	0.01	994.848	0.487
308.15	0.018	0.01	994.89	0.487
308.15	0.021	0.01	994.926	0.487
308.15	0.024	0.01	994.973	0.487
308.15	0.027	0.01	995.013	0.487
308.15	0.03	0.01	995.053	0.487
313.15	0	0.01	992.756	0.487
313.15	0.003	0.01	992.817	0.486
313.15	0.006	0.01	992.857	0.486
313.15	0.009	0.01	992.904	0.486
313.15	0.012	0.01	992.948	0.486
313.15	0.015	0.01	993.001	0.486
313.15	0.018	0.01	993.049	0.486
313.15	0.021	0.01	993.089	0.486
313.15	0.024	0.01	993.123	0.486
313.15	0.027	0.01	993.158	0.486
313.15	0.03	0.01	993.18	0.486
293.15	0	0.05	1000.68	0.489
293.15	0.003	0.05	1000.663	0.489
293.15	0.006	0.05	1000.726	0.489
293.15	0.009	0.05	1000.772	0.489
293.15	0.012	0.05	1000.837	0.489
293.15	0.015	0.05	1000.892	0.489
293.15	0.018	0.05	1000.945	0.489
293.15	0.021	0.05	1001.009	0.489
293.15	0.024	0.05	1001.09	0.489
293.15	0.027	0.05	1001.135	0.489
293.15	0.03	0.05	1001.204	0.489
298.15	0	0.05	999.493	0.488
298.15	0.003	0.05	999.465	0.488
298.15	0.006	0.05	999.518	0.488
298.15	0.009	0.05	999.562	0.488
298.15	0.012	0.05	999.622	0.488
298.15	0.015	0.05	999.674	0.488
298.15	0.018	0.05	999.734	0.488
298.15	0.021	0.05	999.792	0.488
298.15	0.024	0.05	999.828	0.488
298.15	0.027	0.05	999.884	0.488
298.15	0.03	0.05	999.937	0.488
303.15	0	0.05	998.062	0.488
303.15	0.003	0.05	998.032	0.487
303.15	0.006	0.05	998.072	0.488
303.15	0.009	0.05	998.119	0.488
303.15	0.012	0.05	998.184	0.488
303.15	0.015	0.05	998.244	0.488
303.15	0.018	0.05	998.287	0.488
303.15	0.021	0.05	998.347	0.488
303.15	0.024	0.05	998.422	0.488
303.15	0.027	0.05	998.464	0.488
303.15	0.03	0.05	998.508	0.488
308.15	0	0.05	996.427	0.487
308.15	0.003	0.05	996.382	0.487
308.15	0.006	0.05	996.43	0.487
308.15	0.009	0.05	996.474	0.487
308.15	0.012	0.05	996.525	0.487
308.15	0.015	0.05	996.565	0.487
308.15	0.018	0.05	996.607	0.487
308.15	0.021	0.05	996.659	0.487
308.15	0.024	0.05	996.694	0.487
308.15	0.027	0.05	996.737	0.487
308.15	0.03	0.05	996.791	0.487
313.15	0	0.05	994.583	0.487
313.15	0.003	0.05	994.536	0.487
313.15	0.006	0.05	994.581	0.487
313.15	0.009	0.05	994.627	0.487
313.15	0.012	0.05	994.668	0.487
313.15	0.015	0.05	994.721	0.487
313.15	0.018	0.05	994.757	0.487
313.15	0.021	0.05	994.792	0.487
313.15	0.024	0.05	994.83	0.487
313.15	0.027	0.05	994.859	0.487
313.15	0.03	0.05	994.891	0.487
293.15	0	0.1	1002.759	0.491
293.15	0.003	0.1	1002.84	0.491
293.15	0.006	0.1	1002.886	0.491
293.15	0.009	0.1	1002.928	0.491
293.15	0.012	0.1	1002.981	0.491
293.15	0.015	0.1	1003.027	0.491
293.15	0.018	0.1	1003.077	0.491
293.15	0.021	0.1	1003.122	0.491
293.15	0.024	0.1	1003.169	0.491
293.15	0.027	0.1	1003.216	0.491
293.15	0.03	0.1	1003.269	0.491
298.15	0	0.1	1001.546	0.492
298.15	0.003	0.1	1001.608	0.49
298.15	0.006	0.1	1001.653	0.49
298.15	0.009	0.1	1001.701	0.49
298.15	0.012	0.1	1001.748	0.49
298.15	0.015	0.1	1001.783	0.49
298.15	0.018	0.1	1001.824	0.49
298.15	0.021	0.1	1001.869	0.49
298.15	0.024	0.1	1001.916	0.49
298.15	0.027	0.1	1001.961	0.49
298.15	0.03	0.1	1002.02	0.49
303.15	0	0.1	1000.095	0.49
303.15	0.003	0.1	1000.14	0.488
303.15	0.006	0.1	1000.192	0.488
303.15	0.009	0.1	1000.24	0.488
303.15	0.012	0.1	1000.288	0.488
303.15	0.015	0.1	1000.329	0.489
303.15	0.018	0.1	1000.384	0.489
303.15	0.021	0.1	1000.423	0.489
303.15	0.024	0.1	1000.465	0.489
303.15	0.027	0.1	1000.514	0.489
303.15	0.03	0.1	1000.555	0.489
308.15	0	0.1	998.445	0.489
308.15	0.003	0.1	998.486	0.488
308.15	0.006	0.1	998.534	0.488
308.15	0.009	0.1	998.577	0.488
308.15	0.012	0.1	998.625	0.488
308.15	0.015	0.1	998.663	0.488
308.15	0.018	0.1	998.701	0.488
308.15	0.021	0.1	998.754	0.488
308.15	0.024	0.1	998.797	0.488
308.15	0.027	0.1	998.833	0.488
308.15	0.03	0.1	998.878	0.488
313.15	0	0.1	996.597	0.487
313.15	0.003	0.1	996.621	0.487
313.15	0.006	0.1	996.674	0.488
313.15	0.009	0.1	996.727	0.487
313.15	0.012	0.1	996.771	0.487
313.15	0.015	0.1	996.815	0.487
313.15	0.018	0.1	996.859	0.487
313.15	0.021	0.1	996.904	0.487
313.15	0.024	0.1	996.944	0.487
313.15	0.027	0.1	996.979	0.487
313.15	0.03	0.1	997.015	0.487

System: L-methionine + dodecyltrimethylammonium bromide + water; phases: Liquid
Fixed: Pressure, kPa = 101
Property: Speed of sound, m/s (Liquid); method: Sing-around technique in a fixed-path interferometer
Temperature, K	Molality, mol/kg of dodecyltrimethylammonium bromide	Solvent: Molality, mol/kg of L-methionine	Speed of sound, m/s	uncertainty
293.15	0	0.01	1483.89	1.63
293.15	0.003	0.01	1484.76	1.63
293.15	0.006	0.01	1485.44	1.63
293.15	0.009	0.01	1486.09	1.63
293.15	0.012	0.01	1486.82	1.63
293.15	0.015	0.01	1487.47	1.63
293.15	0.018	0.01	1487.68	1.63
293.15	0.021	0.01	1487.82	1.63
293.15	0.024	0.01	1487.98	1.63
293.15	0.027	0.01	1487.71	1.62
293.15	0.03	0.01	1487.94	1.62
298.15	0	0.01	1497.85	1.62
298.15	0.003	0.01	1498.73	1.62
298.15	0.006	0.01	1499.34	1.62
298.15	0.009	0.01	1500	1.62
298.15	0.012	0.01	1500.69	1.62
298.15	0.015	0.01	1501.22	1.62
298.15	0.018	0.01	1501.41	1.62
298.15	0.021	0.01	1501.55	1.62
298.15	0.024	0.01	1501.61	1.62
298.15	0.027	0.01	1501.54	1.62
298.15	0.03	0.01	1501.55	1.62
303.15	0	0.01	1510.23	1.62
303.15	0.003	0.01	1510.93	1.62
303.15	0.006	0.01	1511.48	1.62
303.15	0.009	0.01	1512.08	1.62
303.15	0.012	0.01	1512.72	1.62
303.15	0.015	0.01	1513.29	1.62
303.15	0.018	0.01	1513.47	1.62
303.15	0.021	0.01	1513.49	1.62
303.15	0.024	0.01	1513.53	1.62
303.15	0.027	0.01	1513.35	1.62
303.15	0.03	0.01	1513.4	1.62
308.15	0	0.01	1520.85	1.62
308.15	0.003	0.01	1521.49	1.62
308.15	0.006	0.01	1521.98	1.62
308.15	0.009	0.01	1522.54	1.62
308.15	0.012	0.01	1523.14	1.62
308.15	0.015	0.01	1523.63	1.62
308.15	0.018	0.01	1523.78	1.62
308.15	0.021	0.01	1523.83	1.62
308.15	0.024	0.01	1523.86	1.62
308.15	0.027	0.01	1523.64	1.62
308.15	0.03	0.01	1523.66	1.62
313.15	0	0.01	1529.89	1.62
313.15	0.003	0.01	1530.48	1.62
313.15	0.006	0.01	1530.92	1.62
313.15	0.009	0.01	1531.44	1.62
313.15	0.012	0.01	1532.04	1.62
313.15	0.015	0.01	1532.39	1.62
313.15	0.018	0.01	1532.59	1.62
313.15	0.021	0.01	1532.65	1.62
313.15	0.024	0.01	1532.62	1.62
313.15	0.027	0.01	1532.38	1.62
313.15	0.03	0.01	1532.37	1.62
293.15	0	0.05	1488.24	1.63
293.15	0.003	0.05	1488.86	1.63
293.15	0.006	0.05	1489.55	1.63
293.15	0.009	0.05	1490.21	1.63
293.15	0.012	0.05	1490.78	1.63
293.15	0.015	0.05	1491.5	1.63
293.15	0.018	0.05	1491.79	1.63
293.15	0.021	0.05	1491.66	1.62
293.15	0.024	0.05	1491.78	1.62
293.15	0.027	0.05	1491.83	1.62
293.15	0.03	0.05	1491.7	1.62
298.15	0	0.05	1502.06	1.62
298.15	0.003	0.05	1502.61	1.62
298.15	0.006	0.05	1503.27	1.62
298.15	0.009	0.05	1503.93	1.62
298.15	0.012	0.05	1504.4	1.62
298.15	0.015	0.05	1505.11	1.62
298.15	0.018	0.05	1505.28	1.62
298.15	0.021	0.05	1505.15	1.62
298.15	0.024	0.05	1505.21	1.62
298.15	0.027	0.05	1505.22	1.62
298.15	0.03	0.05	1505.17	1.62
303.15	0	0.05	1513.4	1.62
303.15	0.003	0.05	1513.85	1.62
303.15	0.006	0.05	1514.5	1.62
303.15	0.009	0.05	1515.06	1.62
303.15	0.012	0.05	1515.61	1.62
303.15	0.015	0.05	1516.11	1.62
303.15	0.018	0.05	1516.32	1.62
303.15	0.021	0.05	1516.33	1.62
303.15	0.024	0.05	1516.36	1.62
303.15	0.027	0.05	1516.36	1.62
303.15	0.03	0.05	1516.35	1.62
308.15	0	0.05	1523.86	1.62
308.15	0.003	0.05	1524.35	1.62
308.15	0.006	0.05	1524.93	1.62
308.15	0.009	0.05	1525.45	1.62
308.15	0.012	0.05	1525.93	1.62
308.15	0.015	0.05	1526.39	1.62
308.15	0.018	0.05	1526.59	1.62
308.15	0.021	0.05	1526.58	1.62
308.15	0.024	0.05	1526.59	1.62
308.15	0.027	0.05	1526.56	1.62
308.15	0.03	0.05	1526.55	1.62
313.15	0	0.05	1533.42	1.62
313.15	0.003	0.05	1533.79	1.62
313.15	0.006	0.05	1534.39	1.62
313.15	0.009	0.05	1534.84	1.62
313.15	0.012	0.05	1535.22	1.62
313.15	0.015	0.05	1535.62	1.62
313.15	0.018	0.05	1535.82	1.62
313.15	0.021	0.05	1535.73	1.62
313.15	0.024	0.05	1535.62	1.62
313.15	0.027	0.05	1535.58	1.62
313.15	0.03	0.05	1535.51	1.62
293.15	0	0.1	1492.98	1.63
293.15	0.003	0.1	1493.82	1.63
293.15	0.006	0.1	1494.48	1.63
293.15	0.009	0.1	1495.04	1.62
293.15	0.012	0.1	1495.71	1.62
293.15	0.015	0.1	1496.62	1.63
293.15	0.018	0.1	1496.79	1.62
293.15	0.021	0.1	1496.7	1.62
293.15	0.024	0.1	1496.93	1.62
293.15	0.027	0.1	1496.81	1.62
293.15	0.03	0.1	1497.03	1.62
298.15	0	0.1	1506.65	1.62
298.15	0.003	0.1	1507.33	1.62
298.15	0.006	0.1	1507.99	1.62
298.15	0.009	0.1	1508.44	1.62
298.15	0.012	0.1	1509.08	1.62
298.15	0.015	0.1	1509.76	1.62
298.15	0.018	0.1	1509.95	1.62
298.15	0.021	0.1	1509.99	1.62
298.15	0.024	0.1	1510.03	1.62
298.15	0.027	0.1	1510.11	1.62
298.15	0.03	0.1	1510.05	1.62
303.15	0	0.1	1518.42	1.62
303.15	0.003	0.1	1519.06	1.62
303.15	0.006	0.1	1519.64	1.62
303.15	0.009	0.1	1520.15	1.62
303.15	0.012	0.1	1520.71	1.62
303.15	0.015	0.1	1521.33	1.62
303.15	0.018	0.1	1521.52	1.62
303.15	0.021	0.1	1521.54	1.62
303.15	0.024	0.1	1521.54	1.62
303.15	0.027	0.1	1521.5	1.62
303.15	0.03	0.1	1521.5	1.62
308.15	0	0.1	1528.62	1.62
308.15	0.003	0.1	1529.18	1.62
308.15	0.006	0.1	1529.74	1.62
308.15	0.009	0.1	1530.18	1.62
308.15	0.012	0.1	1530.69	1.62
308.15	0.015	0.1	1531.26	1.62
308.15	0.018	0.1	1531.48	1.62
308.15	0.021	0.1	1531.4	1.62
308.15	0.024	0.1	1531.46	1.62
308.15	0.027	0.1	1531.36	1.62
308.15	0.03	0.1	1531.33	1.62
313.15	0	0.1	1537.26	1.62
313.15	0.003	0.1	1537.76	1.62
313.15	0.006	0.1	1538.28	1.62
313.15	0.009	0.1	1538.65	1.62
313.15	0.012	0.1	1539.12	1.62
313.15	0.015	0.1	1539.61	1.62
313.15	0.018	0.1	1539.85	1.62
313.15	0.021	0.1	1539.78	1.62
313.15	0.024	0.1	1539.82	1.62
313.15	0.027	0.1	1539.71	1.62
313.15	0.03	0.1	1539.85	1.62

System: L-methionine + dodecyltrimethylammonium bromide + water; phases: Liquid
Fixed: Pressure, kPa = 101
Property: Viscosity, Pa*s (Liquid); method: Capillary tube (Ostwald; Ubbelohde) method
Temperature, K	Molality, mol/kg of dodecyltrimethylammonium bromide	Solvent: Molality, mol/kg of L-methionine	Viscosity, Pa*s	uncertainty
293.15	0.003	0.01	0.0010132	6.163e-05
293.15	0.006	0.01	0.0010189	6.198e-05
293.15	0.009	0.01	0.00102396	6.23e-05
293.15	0.012	0.01	0.00102962	6.265e-05
293.15	0.015	0.01	0.00103442	6.295e-05
293.15	0.018	0.01	0.0010405	6.332e-05
293.15	0.021	0.01	0.00104373	6.351e-05
293.15	0.024	0.01	0.00104613	6.366e-05
293.15	0.027	0.01	0.00104879	6.381e-05
293.15	0.03	0.01	0.00105175	6.399e-05
298.15	0.003	0.01	0.00090042	5.478e-05
298.15	0.006	0.01	0.00090382	5.5e-05
298.15	0.009	0.01	0.00090665	5.517e-05
298.15	0.012	0.01	0.00090948	5.535e-05
298.15	0.015	0.01	0.00091178	5.549e-05
298.15	0.018	0.01	0.00091458	5.567e-05
298.15	0.021	0.01	0.00091908	5.594e-05
298.15	0.024	0.01	0.00092229	5.613e-05
298.15	0.027	0.01	0.00092673	5.639e-05
298.15	0.03	0.01	0.00093129	5.666e-05
303.15	0.003	0.01	0.00081017	4.926e-05
303.15	0.006	0.01	0.00081088	4.931e-05
303.15	0.009	0.01	0.00081425	4.951e-05
303.15	0.012	0.01	0.00081629	4.964e-05
303.15	0.015	0.01	0.00081789	4.974e-05
303.15	0.018	0.01	0.00081956	4.984e-05
303.15	0.021	0.01	0.00082336	5.007e-05
303.15	0.024	0.01	0.00082925	5.043e-05
303.15	0.027	0.01	0.00083408	5.072e-05
303.15	0.03	0.01	0.00083956	5.106e-05
308.15	0.003	0.01	0.0007449	4.529e-05
308.15	0.006	0.01	0.00074637	4.538e-05
308.15	0.009	0.01	0.00074855	4.551e-05
308.15	0.012	0.01	0.0007502	4.56e-05
308.15	0.015	0.01	0.00075213	4.573e-05
308.15	0.018	0.01	0.00075385	4.583e-05
308.15	0.021	0.01	0.00075608	4.597e-05
308.15	0.024	0.01	0.00075755	4.606e-05
308.15	0.027	0.01	0.00076011	4.622e-05
308.15	0.03	0.01	0.00076235	4.636e-05
313.15	0.003	0.01	0.00067166	4.088e-05
313.15	0.006	0.01	0.00067701	4.119e-05
313.15	0.009	0.01	0.0006796	4.135e-05
313.15	0.012	0.01	0.00068098	4.143e-05
313.15	0.015	0.01	0.00068296	4.155e-05
313.15	0.018	0.01	0.00068496	4.167e-05
313.15	0.021	0.01	0.00068669	4.177e-05
313.15	0.024	0.01	0.00068893	4.191e-05
313.15	0.027	0.01	0.00069127	4.205e-05
313.15	0.03	0.01	0.00069398	4.221e-05
293.15	0.003	0.05	0.00104835	6.386e-05
293.15	0.006	0.05	0.00105077	6.403e-05
293.15	0.009	0.05	0.00105286	6.415e-05
293.15	0.012	0.05	0.00105407	6.423e-05
293.15	0.015	0.05	0.00105667	6.439e-05
293.15	0.018	0.05	0.00105919	6.455e-05
293.15	0.021	0.05	0.00106144	6.468e-05
293.15	0.024	0.05	0.00106263	6.476e-05
293.15	0.027	0.05	0.00106611	6.497e-05
293.15	0.03	0.05	0.00107037	6.523e-05
298.15	0.003	0.05	0.00089428	5.448e-05
298.15	0.006	0.05	0.00089573	5.457e-05
298.15	0.009	0.05	0.00089889	5.476e-05
298.15	0.012	0.05	0.00090089	5.488e-05
298.15	0.015	0.05	0.00090224	5.496e-05
298.15	0.018	0.05	0.00090387	5.506e-05
298.15	0.021	0.05	0.00090601	5.519e-05
298.15	0.024	0.05	0.00090782	5.529e-05
298.15	0.027	0.05	0.00090965	5.539e-05
298.15	0.03	0.05	0.00091189	5.553e-05
303.15	0.003	0.05	0.00080483	4.895e-05
303.15	0.006	0.05	0.00080705	4.908e-05
303.15	0.009	0.05	0.00080921	4.921e-05
303.15	0.012	0.05	0.00081019	4.927e-05
303.15	0.015	0.05	0.00081205	4.938e-05
303.15	0.018	0.05	0.00081524	4.957e-05
303.15	0.021	0.05	0.0008185	4.977e-05
303.15	0.024	0.05	0.00082165	4.996e-05
303.15	0.027	0.05	0.00083072	5.05e-05
303.15	0.03	0.05	0.00083569	5.08e-05
308.15	0.003	0.05	0.000732	4.452e-05
308.15	0.006	0.05	0.00073484	4.47e-05
308.15	0.009	0.05	0.00073985	4.5e-05
308.15	0.012	0.05	0.00074296	4.518e-05
308.15	0.015	0.05	0.0007458	4.536e-05
308.15	0.018	0.05	0.00074826	4.551e-05
308.15	0.021	0.05	0.0007506	4.565e-05
308.15	0.024	0.05	0.00075307	4.58e-05
308.15	0.027	0.05	0.00075601	4.598e-05
308.15	0.03	0.05	0.00076136	4.631e-05
313.15	0.003	0.05	0.00065807	4.003e-05
313.15	0.006	0.05	0.00066044	4.019e-05
313.15	0.009	0.05	0.00066331	4.037e-05
313.15	0.012	0.05	0.00066604	4.053e-05
313.15	0.015	0.05	0.00066803	4.066e-05
313.15	0.018	0.05	0.00067037	4.08e-05
313.15	0.021	0.05	0.00067199	4.09e-05
313.15	0.024	0.05	0.00067498	4.108e-05
313.15	0.027	0.05	0.00067933	4.134e-05
313.15	0.03	0.05	0.00068349	4.158e-05
293.15	0.003	0.1	0.00105855	6.45e-05
293.15	0.006	0.1	0.00105988	6.458e-05
293.15	0.009	0.1	0.00106197	6.471e-05
293.15	0.012	0.1	0.00106375	6.481e-05
293.15	0.015	0.1	0.0010658	6.494e-05
293.15	0.018	0.1	0.00106861	6.51e-05
293.15	0.021	0.1	0.00107263	6.535e-05
293.15	0.024	0.1	0.00107598	6.554e-05
293.15	0.027	0.1	0.00107861	6.57e-05
293.15	0.03	0.1	0.00108286	6.595e-05
298.15	0.003	0.1	0.00090649	5.521e-05
298.15	0.006	0.1	0.00090863	5.534e-05
298.15	0.009	0.1	0.00091104	5.549e-05
298.15	0.012	0.1	0.00091293	5.56e-05
298.15	0.015	0.1	0.00091564	5.576e-05
298.15	0.018	0.1	0.00091876	5.595e-05
298.15	0.021	0.1	0.00092138	5.611e-05
298.15	0.024	0.1	0.00092674	5.643e-05
298.15	0.027	0.1	0.00093182	5.674e-05
298.15	0.03	0.1	0.00093672	5.703e-05
303.15	0.003	0.1	0.00081791	4.974e-05
303.15	0.006	0.1	0.00082018	4.988e-05
303.15	0.009	0.1	0.00082169	4.997e-05
303.15	0.012	0.1	0.00082444	5.014e-05
303.15	0.015	0.1	0.00082688	5.029e-05
303.15	0.018	0.1	0.00082974	5.046e-05
303.15	0.021	0.1	0.00083183	5.059e-05
303.15	0.024	0.1	0.00083618	5.085e-05
303.15	0.027	0.1	0.00084017	5.109e-05
303.15	0.03	0.1	0.00084436	5.135e-05
308.15	0.003	0.1	0.00074113	4.508e-05
308.15	0.006	0.1	0.00074293	4.519e-05
308.15	0.009	0.1	0.00074503	4.531e-05
308.15	0.012	0.1	0.00074699	4.543e-05
308.15	0.015	0.1	0.00074872	4.554e-05
308.15	0.018	0.1	0.00075119	4.569e-05
308.15	0.021	0.1	0.00075621	4.599e-05
308.15	0.024	0.1	0.00076007	4.623e-05
308.15	0.027	0.1	0.00076437	4.648e-05
308.15	0.03	0.1	0.00076956	4.68e-05
313.15	0.003	0.1	0.000671	4.083e-05
313.15	0.006	0.1	0.0006728	4.094e-05
313.15	0.009	0.1	0.00067469	4.105e-05
313.15	0.012	0.1	0.00067616	4.114e-05
313.15	0.015	0.1	0.00067815	4.126e-05
313.15	0.018	0.1	0.00068076	4.142e-05
313.15	0.021	0.1	0.00068323	4.157e-05
313.15	0.024	0.1	0.00068613	4.175e-05
313.15	0.027	0.1	0.00069226	4.212e-05
313.15	0.03	0.1	0.00069807	4.247e-05

System: L-glutamine + water; phases: Liquid
Fixed: Pressure, kPa = 101
Property: Mass density, kg/m3 (Liquid); method: Vibrating tube method
Temperature, K	Molality, mol/kg of L-glutamine	Mass density, kg/m3	uncertainty
293.15	0.01	998.763	0.307
298.15	0.01	997.591	0.307
303.15	0.01	996.184	0.307
308.15	0.01	994.559	0.307
313.15	0.01	992.74	0.307
293.15	0.05	1000.926	0.307
298.15	0.05	999.73	0.307
303.15	0.05	998.294	0.307
308.15	0.05	996.645	0.307
313.15	0.05	994.826	0.307
293.15	0.1	1003.61	0.307
298.15	0.1	1002.392	0.307
303.15	0.1	1000.949	0.307
308.15	0.1	999.297	0.307
313.15	0.1	997.443	0.307
293.15	0.01	998.86	0.307
298.15	0.01	997.699	0.307
303.15	0.01	996.301	0.307
308.15	0.01	994.681	0.307
313.15	0.01	992.897	0.307
293.15	0.05	1001.059	0.307
298.15	0.05	999.877	0.307
303.15	0.05	998.447	0.307
308.15	0.05	996.804	0.307
313.15	0.05	994.964	0.307
293.15	0.1	1003.545	0.307
298.15	0.1	1002.345	0.307
303.15	0.1	1000.895	0.307
308.15	0.1	999.234	0.307
313.15	0.1	997.382	0.307

System: L-glutamine + water; phases: Liquid
Fixed: Pressure, kPa = 101
Property: Speed of sound, m/s (Liquid); method: Sing-around technique in a fixed-path interferometer
Temperature, K	Molality, mol/kg of L-glutamine	Speed of sound, m/s	uncertainty
293.15	0.01	1483.43	0.85
298.15	0.01	1497.59	0.85
303.15	0.01	1509.99	0.84
308.15	0.01	1520.66	0.84
313.15	0.01	1529.76	0.84
293.15	0.05	1486.99	0.85
298.15	0.05	1500.92	0.85
303.15	0.05	1513.19	0.84
308.15	0.05	1523.73	0.84
313.15	0.05	1532.74	0.84
293.15	0.1	1490.84	0.85
298.15	0.1	1504.69	0.85
303.15	0.1	1516.79	0.85
308.15	0.1	1527.22	0.84
313.15	0.1	1536.09	0.84
293.15	0.01	1484.04	0.85
298.15	0.01	1498.11	0.85
303.15	0.01	1510.31	0.84
308.15	0.01	1521.01	0.84
313.15	0.01	1529.57	0.84
293.15	0.05	1487.17	0.85
298.15	0.05	1501.09	0.85
303.15	0.05	1513.33	0.84
308.15	0.05	1523.78	0.84
313.15	0.05	1532.42	0.84
293.15	0.1	1491.21	0.85
298.15	0.1	1505.01	0.85
303.15	0.1	1517.03	0.85
308.15	0.1	1527.44	0.84
313.15	0.1	1536.33	0.84

System: L-histidine + water; phases: Liquid
Fixed: Pressure, kPa = 101
Property: Mass density, kg/m3 (Liquid); method: Vibrating tube method
Temperature, K	Molality, mol/kg of L-histidine	Mass density, kg/m3	uncertainty
293.15	0.01	998.81	0.308
298.15	0.01	997.64	0.308
303.15	0.01	996.231	0.308
308.15	0.01	994.607	0.308
313.15	0.01	992.781	0.308
293.15	0.05	1001.122	0.307
298.15	0.05	999.931	0.308
303.15	0.05	998.505	0.308
308.15	0.05	996.863	0.308
313.15	0.05	995.025	0.308
293.15	0.1	1003.851	0.307
298.15	0.1	1002.688	0.307
303.15	0.1	1001.213	0.307
308.15	0.1	999.57	0.307
313.15	0.1	997.722	0.308
293.15	0.01	998.838	0.308
298.15	0.01	997.667	0.308
303.15	0.01	996.259	0.308
308.15	0.01	994.631	0.308
313.15	0.01	992.808	0.308
293.15	0.05	1001.07	0.307
298.15	0.05	999.868	0.308
303.15	0.05	998.435	0.308
308.15	0.05	996.793	0.308
313.15	0.05	994.954	0.308
293.15	0.1	1003.981	0.308
298.15	0.1	1002.762	0.307
303.15	0.1	1001.321	0.307
308.15	0.1	999.656	0.307
313.15	0.1	997.795	0.308

System: L-histidine + water; phases: Liquid
Fixed: Pressure, kPa = 101
Property: Speed of sound, m/s (Liquid); method: Sing-around technique in a fixed-path interferometer
Temperature, K	Molality, mol/kg of L-histidine	Speed of sound, m/s	uncertainty
293.15	0.01	1483.51	0.85
298.15	0.01	1497.68	0.85
303.15	0.01	1510.06	0.84
308.15	0.01	1520.86	0.84
313.15	0.01	1529.96	0.84
293.15	0.05	1487.52	0.85
298.15	0.05	1501.39	0.85
303.15	0.05	1513.54	0.84
308.15	0.05	1524.07	0.84
313.15	0.05	1533.03	0.84
293.15	0.1	1492.15	0.85
298.15	0.1	1505.62	0.85
303.15	0.1	1517.5	0.85
308.15	0.1	1527.83	0.84
313.15	0.1	1536.6	0.84
293.15	0.01	1483.61	0.85
298.15	0.01	1497.55	0.85
303.15	0.01	1509.5	0.84
308.15	0.01	1520.48	0.84
313.15	0.01	1529.54	0.83
293.15	0.05	1487.37	0.85
298.15	0.05	1501.1	0.85
303.15	0.05	1513.32	0.84
308.15	0.05	1523.82	0.84
313.15	0.05	1532.75	0.84
293.15	0.1	1491.83	0.85
298.15	0.1	1505.52	0.85
303.15	0.1	1517.55	0.85
308.15	0.1	1527.86	0.84
313.15	0.1	1536.62	0.84

System: L-methionine + water; phases: Liquid
Fixed: Pressure, kPa = 101
Property: Mass density, kg/m3 (Liquid); method: Vibrating tube method
Temperature, K	Molality, mol/kg of L-methionine	Mass density, kg/m3	uncertainty
293.15	0.01	998.698	0.308
298.15	0.01	997.539	0.309
303.15	0.01	996.121	0.309
308.15	0.01	994.495	0.309
313.15	0.01	992.67	0.309
293.15	0.05	1001.149	0.305
298.15	0.05	999.944	0.305
303.15	0.05	998.512	0.305
308.15	0.05	996.871	0.306
313.15	0.05	995.031	0.306
293.15	0.1	1002.635	0.304
298.15	0.1	1001.415	0.304
303.15	0.1	999.96	0.304
308.15	0.1	998.295	0.304
313.15	0.1	996.434	0.304
293.15	0.01	998.78	0.308
298.15	0.01	997.639	0.309
303.15	0.01	996.208	0.309
308.15	0.01	994.583	0.309
313.15	0.01	992.756	0.308
293.15	0.05	1000.68	0.305
298.15	0.05	999.493	0.305
303.15	0.05	998.062	0.305
308.15	0.05	996.427	0.306
313.15	0.05	994.583	0.306
293.15	0.1	1002.759	0.304
298.15	0.1	1001.546	0.304
303.15	0.1	1000.095	0.304
308.15	0.1	998.445	0.304
313.15	0.1	996.597	0.304

System: L-methionine + water; phases: Liquid
Fixed: Pressure, kPa = 101
Property: Speed of sound, m/s (Liquid); method: Sing-around technique in a fixed-path interferometer
Temperature, K	Molality, mol/kg of L-methionine	Speed of sound, m/s	uncertainty
293.15	0.01	1483.78	0.85
298.15	0.01	1497.81	0.85
303.15	0.01	1510.15	0.84
308.15	0.01	1520.73	0.84
313.15	0.01	1529.79	0.84
293.15	0.05	1487.39	0.85
298.15	0.05	1501.35	0.85
303.15	0.05	1513.62	0.85
308.15	0.05	1524.13	0.84
313.15	0.05	1533.12	0.84
293.15	0.1	1493.29	0.86
298.15	0.1	1506.91	0.85
303.15	0.1	1518.76	0.85
308.15	0.1	1529.03	0.84
313.15	0.1	1537.74	0.84
293.15	0.01	1483.89	0.85
298.15	0.01	1497.85	0.85
303.15	0.01	1510.23	0.84
308.15	0.01	1520.85	0.84
313.15	0.01	1529.89	0.84
293.15	0.05	1488.24	0.85
298.15	0.05	1502.06	0.85
303.15	0.05	1513.4	0.85
308.15	0.05	1523.86	0.84
313.15	0.05	1533.42	0.84
293.15	0.1	1492.98	0.86
298.15	0.1	1506.65	0.85
303.15	0.1	1518.42	0.85
308.15	0.1	1528.62	0.84
313.15	0.1	1537.26	0.84
