Measured thermophysical data. Effect of small size of particles on thermal expansion and heat capacity of Ag2S silver sulfide
Source: Thermochim. Acta, 2018, 10.1016/j.tca.2017.12.013
Compound 1: silver sulfide, Ag2S, InChI=1S/2Ag.S/q2*+1;-2

System: silver sulfide; phases: Crystal 3, Crystal 2, Air at 1 atmosphere
Property: Triple point temperature, K (Crystal 3); method: DSC
Triple point temperature, K	uncertainty
451	1

System: silver sulfide; phases: Crystal 2, Crystal 1, Air at 1 atmosphere
Property: Triple point temperature, K (Crystal 2); method: DSC
Triple point temperature, K	uncertainty
858	1

System: silver sulfide; phases: Crystal 3, Crystal 2, Air at 1 atmosphere
Property: Molar enthalpy of transition or fusion, kJ/mol (Crystal 3); method: DSC
Molar enthalpy of transition or fusion, kJ/mol	uncertainty
4.2	0.8

System: silver sulfide; phases: Crystal 2, Crystal 1, Air at 1 atmosphere
Property: Molar enthalpy of transition or fusion, kJ/mol (Crystal 2); method: DSC
Molar enthalpy of transition or fusion, kJ/mol	uncertainty
1.2	0.6

System: silver sulfide; phases: Crystal 3, Crystal 2, Air at 1 atmosphere
Property: Triple point temperature, K (Crystal 3); method: Volume change
Triple point temperature, K	uncertainty
456	5

System: silver sulfide; phases: Crystal 2, Crystal 1, Air at 1 atmosphere
Property: Triple point temperature, K (Crystal 2); method: Volume change
Triple point temperature, K	uncertainty
865	10

System: silver sulfide; phases: Crystal 3
Fixed: Pressure, kPa = 101.325
Property: Molar heat capacity at constant pressure, J/K/mol (Crystal 3); method: DSC
Temperature, K	Molar heat capacity at constant pressure, J/K/mol	uncertainty
299.71	73.92	3.06
300.71	74.02	3.07
301.71	74.12	3.07
302.71	74.21	3.07
303.71	74.31	3.08
304.71	74.4	3.08
305.71	74.46	3.08
306.71	74.53	3.08
307.71	74.62	3.09
308.71	74.69	3.09
309.71	74.77	3.09
310.71	74.85	3.09
311.71	74.92	3.09
312.71	75.14	3.1
313.71	75.21	3.1
314.71	75.29	3.11
315.71	75.36	3.11
316.71	75.42	3.11
317.71	75.49	3.11
318.71	75.53	3.11
319.71	75.58	3.11
320.71	75.65	3.12
321.71	75.71	3.12
322.71	75.78	3.12
323.71	75.84	3.12
324.71	75.9	3.12
325.71	75.97	3.13
326.71	76.03	3.13
327.71	76.09	3.13
328.71	76.14	3.13
329.71	76.2	3.13
330.71	76.26	3.14
331.71	76.31	3.14
332.71	76.37	3.14
333.71	76.42	3.14
334.71	76.48	3.14
335.71	76.53	3.14
336.71	76.58	3.14
337.71	76.63	3.15
338.71	76.68	3.15
339.71	76.74	3.15
340.71	76.79	3.15
341.71	76.84	3.15
342.71	76.89	3.15
343.71	76.93	3.16
344.71	76.98	3.16
345.71	77.03	3.16
346.71	77.08	3.16
347.71	77.13	3.16
348.71	77.18	3.16
349.71	77.22	3.16
350.71	77.27	3.17
351.71	77.32	3.17
352.71	77.37	3.17
353.71	77.42	3.17
354.71	77.46	3.17
355.71	77.51	3.17
356.71	77.56	3.17
357.71	77.61	3.18
358.71	77.66	3.18
359.71	77.71	3.18
360.71	77.76	3.18
361.71	77.81	3.18
362.71	77.86	3.18
363.71	77.91	3.19
364.71	77.96	3.19
365.71	78.01	3.19
366.71	78.07	3.19
367.71	78.12	3.19
368.71	78.17	3.19
369.71	78.23	3.2
370.71	78.29	3.2
371.71	78.34	3.2
372.71	78.4	3.2
373.71	78.46	3.2
374.71	78.52	3.2
375.71	78.58	3.21
376.71	78.64	3.21
377.71	78.7	3.21
378.71	78.76	3.21
379.71	78.83	3.21
380.71	78.89	3.22
381.71	78.96	3.22
382.71	79.03	3.22
383.71	79.1	3.22
384.71	79.17	3.22
385.71	79.24	3.23
386.71	79.31	3.23
387.71	79.39	3.23
388.71	79.46	3.23
389.71	79.54	3.24
390.71	79.62	3.24
391.71	79.7	3.24
392.71	79.79	3.24
393.71	79.87	3.25
394.71	79.96	3.25
395.71	80.04	3.25
396.71	80.13	3.25
397.71	80.23	3.26
398.71	80.32	3.26
399.71	80.41	3.26
400.71	80.5	3.27
401.71	80.6	3.27
402.71	80.69	3.27
403.71	80.78	3.27
404.71	80.88	3.28
405.71	80.98	3.28
406.71	81.09	3.28
407.71	81.19	3.29
408.71	81.3	3.29
409.71	81.41	3.29
410.71	81.52	3.3
411.71	81.63	3.3
412.71	81.75	3.3
413.71	81.87	3.31
414.71	81.99	3.31
415.71	82.11	3.31
416.71	82.24	3.32
417.71	82.37	3.32
418.71	82.5	3.33
419.71	82.64	3.33
420.71	82.77	3.34
421.71	82.91	3.34
422.71	83.06	3.34
423.71	83.2	3.35
424.71	83.35	3.35
425.71	83.51	3.36
426.71	83.66	3.36
427.71	83.82	3.37
428.71	83.98	3.37
429.71	84.15	3.38
430.71	84.32	3.38
431.71	84.49	3.39
432.71	84.66	3.39
433.71	84.84	3.4
434.71	85.01	3.4
435.71	85.19	3.41
436.71	85.36	3.42
437.71	85.54	3.42
438.71	85.72	3.43
439.71	85.91	3.43
440.71	86.2	3.44
441.71	86.6	3.45
442.71	87.1	3.47
443.71	87.6	3.49
444.71	88.38	3.51
446.71	90.5	3.58
447.71	92.95	3.66
448.71	93.65	3.68
449.71	94.94	3.72

System: silver sulfide; phases: Crystal 2
Fixed: Pressure, kPa = 101.325
Property: Molar heat capacity at constant pressure, J/K/mol (Crystal 2); method: DSC
Temperature, K	Molar heat capacity at constant pressure, J/K/mol	uncertainty
461.57	90.56	3.58
462.57	90.49	3.58
463.57	90.42	3.57
464.57	90.35	3.57
465.57	90.28	3.57
466.57	90.21	3.57
467.57	90.13	3.57
468.57	90.06	3.56
469.57	89.98	3.56
470.57	89.9	3.56
471.57	89.82	3.56
472.57	89.75	3.55
473.57	89.67	3.55
474.57	89.59	3.55
475.57	89.51	3.55
476.57	89.43	3.54
477.57	89.35	3.54
478.57	89.28	3.54
479.57	89.2	3.54
480.57	89.12	3.53
481.57	89.05	3.53
482.57	88.97	3.53
483.57	88.9	3.53
484.57	88.83	3.52
485.57	88.76	3.52
486.57	88.69	3.52
487.57	88.62	3.52
488.57	88.55	3.52
489.57	88.48	3.51
490.57	88.42	3.51
491.57	88.35	3.51
492.57	88.29	3.51
493.57	88.23	3.51
494.57	88.17	3.5
495.57	88.11	3.5
496.57	88.06	3.5
497.57	88	3.5
498.57	87.95	3.5
499.57	87.9	3.5
500.57	87.85	3.49
501.57	87.8	3.49
502.57	87.76	3.49
503.57	87.71	3.49
504.57	87.67	3.49
505.57	87.62	3.49
506.57	87.58	3.49
507.57	87.54	3.48
508.57	87.54	3.48
509.57	87.54	3.48
510.57	87.54	3.48
511.57	87.57	3.49
512.57	87.59	3.49
513.57	87.61	3.49
514.57	87.61	3.49
515.57	87.61	3.49
516.57	87.62	3.49
517.57	87.62	3.49
518.57	87.62	3.49
519.57	87.64	3.49
520.57	87.64	3.49
521.82	87.58	3.49
522.82	87.56	3.48
523.82	87.54	3.48
524.82	87.52	3.48
525.82	87.5	3.48
526.82	87.48	3.48
527.82	87.46	3.48
528.82	87.45	3.48
529.82	87.43	3.48
530.82	87.42	3.48
531.82	87.4	3.48
532.82	87.39	3.48
533.82	87.38	3.48
534.82	87.37	3.48
535.82	87.36	3.48
536.82	87.35	3.48
537.82	87.34	3.48
538.82	87.33	3.48
539.82	87.32	3.48
540.82	87.31	3.48
541.82	87.3	3.48
542.82	87.29	3.48
543.82	87.28	3.48
544.82	87.27	3.48
545.82	87.26	3.48
546.82	87.26	3.48
547.82	87.25	3.48
548.82	87.24	3.47
549.82	87.23	3.47
550.82	87.22	3.47
551.82	87.22	3.47
552.82	87.21	3.47
553.82	87.2	3.47
554.82	87.19	3.47
555.82	87.18	3.47
556.82	87.17	3.47
557.82	87.17	3.47
558.82	87.16	3.47
559.82	87.15	3.47
560.82	87.14	3.47
561.82	87.13	3.47
562.82	87.12	3.47
563.82	87.11	3.47
564.82	87.1	3.47
565.82	87.09	3.47
566.82	87.07	3.47
567.82	87.06	3.47
568.82	87.05	3.47
569.82	87.04	3.47
570.82	87.02	3.47
571.82	87.01	3.47
572.82	87	3.47
573.82	86.98	3.47
574.82	86.97	3.47
575.82	86.95	3.47
576.82	86.94	3.47
577.82	86.92	3.46
578.82	86.91	3.46
579.82	86.89	3.46
580.82	86.87	3.46
581.82	86.85	3.46
582.82	86.83	3.46
583.82	86.82	3.46
584.82	86.8	3.46
585.82	86.78	3.46
586.82	86.76	3.46
587.82	86.74	3.46
588.82	86.72	3.46
589.82	86.7	3.46
590.82	86.67	3.46
591.82	86.65	3.46
592.82	86.63	3.46
593.82	86.61	3.45
594.82	86.61	3.45
595.82	86.63	3.46
596.82	86.62	3.46
597.82	86.62	3.46
598.82	86.6	3.45
599.82	86.6	3.45
600.82	86.58	3.45
601.82	86.55	3.45
602.82	86.53	3.45
603.82	86.5	3.45
604.82	86.48	3.45
605.82	86.45	3.45
606.82	86.43	3.45
607.82	86.4	3.45
608.82	86.38	3.45
609.82	86.35	3.45
610.82	86.33	3.45
611.82	86.3	3.45
612.82	86.28	3.44
613.82	86.25	3.44
614.82	86.23	3.44
615.82	86.2	3.44
616.82	86.18	3.44
617.82	86.15	3.44
618.82	86.13	3.44
619.82	86.1	3.44
620.82	86.08	3.44
621.82	86.05	3.44
622.82	86.03	3.44
623.82	86.01	3.44
624.82	85.99	3.44
625.82	85.96	3.43
626.82	85.94	3.43
627.82	85.92	3.43
628.82	85.9	3.43
629.82	85.88	3.43
630.82	85.86	3.43
631.82	85.84	3.43
632.82	85.82	3.43
633.82	85.8	3.43
634.82	85.78	3.43
635.82	85.76	3.43
636.82	85.74	3.43
637.82	85.73	3.43
638.82	85.71	3.43
639.82	85.7	3.43
640.82	85.7	3.43
641.82	85.69	3.43
642.82	85.67	3.43
643.82	85.66	3.43
644.82	85.65	3.42
645.82	85.64	3.42
646.82	85.62	3.42
647.82	85.62	3.42
648.82	85.61	3.42
649.82	85.6	3.42
650.82	85.59	3.42
651.82	85.57	3.42
652.82	85.57	3.42
653.82	85.57	3.42
654.82	85.57	3.42
655.82	85.56	3.42
656.82	85.56	3.42
657.82	85.56	3.42
658.82	85.56	3.42
659.82	85.57	3.42
660.82	85.56	3.42
661.82	85.56	3.42
662.82	85.57	3.42
663.82	85.57	3.42
664.82	85.57	3.42
665.82	85.57	3.42
666.82	85.57	3.42
667.82	85.57	3.42
668.82	85.57	3.42
669.82	85.58	3.42
670.82	85.59	3.42
671.82	85.6	3.42
672.82	85.61	3.42
673.82	85.62	3.42
674.82	85.63	3.42
675.82	85.64	3.42
676.82	85.66	3.43
677.82	85.67	3.43
678.82	85.69	3.43
679.82	85.7	3.43
680.82	85.72	3.43
681.82	85.74	3.43
682.82	85.75	3.43
683.82	85.77	3.43
684.82	85.79	3.43
685.82	85.81	3.43
686.82	85.83	3.43
687.82	85.85	3.43
688.82	85.87	3.43
689.82	85.89	3.43
690.82	85.92	3.43
691.82	85.94	3.43
692.82	85.96	3.43
693.82	85.99	3.44
694.82	86.01	3.44
695.82	86.04	3.44
696.82	86.06	3.44
697.82	86.09	3.44
698.82	86.12	3.44
699.82	86.14	3.44
700.82	86.04	3.44
701.82	86.05	3.44
702.82	86.06	3.44
703.82	86.07	3.44
704.82	86.08	3.44
705.82	86.09	3.44
706.82	86.1	3.44
707.82	86.11	3.44
708.82	86.12	3.44
709.82	86.13	3.44
710.82	86.14	3.44
711.82	86.15	3.44
712.82	86.16	3.44
713.82	86.17	3.44
714.82	86.18	3.44
715.82	86.19	3.44
716.82	86.2	3.44
717.82	86.21	3.44
718.82	86.22	3.44
719.82	86.23	3.44
720.82	86.24	3.44
721.82	86.25	3.44
722.82	86.26	3.44
723.82	86.26	3.44
724.82	86.27	3.44
725.82	86.28	3.44
726.82	86.29	3.44
727.82	86.3	3.45
728.82	86.3	3.45
729.82	86.31	3.45
730.82	86.32	3.45
731.82	86.32	3.45
732.82	86.33	3.45
733.82	86.33	3.45
734.82	86.34	3.45
735.82	86.34	3.45
736.82	86.35	3.45
737.82	86.35	3.45
738.82	86.35	3.45
739.82	86.35	3.45
740.82	86.36	3.45
741.82	86.36	3.45
742.82	86.36	3.45
743.82	86.36	3.45
744.82	86.36	3.45
745.82	86.36	3.45
746.82	86.35	3.45
747.82	86.35	3.45
748.82	86.35	3.45
749.82	86.35	3.45
750.82	86.34	3.45
751.82	86.34	3.45
752.82	86.33	3.45
753.82	86.33	3.45
754.82	86.32	3.45
755.82	86.31	3.45
756.82	86.31	3.45
757.82	86.3	3.45
758.82	86.29	3.44
759.82	86.28	3.44
760.82	86.27	3.44
761.82	86.27	3.44
762.82	86.26	3.44
763.82	86.25	3.44
764.82	86.24	3.44
765.82	86.23	3.44
766.82	86.21	3.44
767.82	86.2	3.44
768.82	86.19	3.44
769.82	86.18	3.44
770.82	86.17	3.44
771.82	86.16	3.44
772.82	86.14	3.44
773.82	86.13	3.44
774.82	86.12	3.44
775.82	86.11	3.44
776.82	86.1	3.44
777.82	86.08	3.44
778.82	86.07	3.44
779.82	86.06	3.44
780.82	86.05	3.44
781.82	86.04	3.44
782.82	86.02	3.44
783.82	86.01	3.44
784.82	86	3.44
785.82	85.99	3.44
786.82	85.98	3.44
787.82	85.97	3.43
788.82	85.96	3.43
789.82	85.95	3.43
790.82	85.95	3.43
791.82	85.94	3.43
792.82	85.93	3.43
793.82	85.93	3.43
794.82	85.92	3.43
795.82	85.92	3.43
796.82	85.91	3.43
797.82	85.91	3.43
798.82	85.91	3.43
799.82	85.9	3.43
800.82	85.91	3.43
801.82	85.92	3.43
802.82	85.93	3.43
803.82	85.94	3.43
804.82	85.95	3.43
805.82	85.96	3.43
806.82	85.97	3.43
807.82	85.98	3.44
808.82	85.99	3.44
809.82	86	3.44
810.82	86.01	3.44
811.82	86.02	3.44
812.82	86.03	3.44
813.82	86.04	3.44
814.82	86.05	3.44
815.82	86.06	3.44
816.82	86.07	3.44
817.82	86.08	3.44
818.82	86.09	3.44
819.82	86.1	3.44
820.82	86.11	3.44
821.82	86.12	3.44
822.82	86.13	3.44
823.82	86.14	3.44
824.82	86.15	3.44
825.82	86.16	3.44
826.82	86.17	3.44
827.82	86.18	3.44
828.82	86.19	3.44
829.82	86.2	3.44
830.82	86.21	3.44
831.82	86.23	3.44
832.82	86.24	3.44
833.82	86.25	3.44
834.82	86.26	3.44
835.82	86.27	3.44
836.82	86.28	3.44
837.82	86.29	3.44
838.82	86.3	3.45
839.82	86.31	3.45
840.82	86.32	3.45
841.82	86.33	3.45
842.82	86.34	3.45
843.82	86.35	3.45
844.82	86.36	3.45
845.82	86.37	3.45
846.82	86.38	3.45
847.82	86.39	3.45
848.82	86.4	3.45
849.82	86.41	3.45

System: silver sulfide; phases: Crystal 1
Fixed: Pressure, kPa = 101.325
Property: Molar heat capacity at constant pressure, J/K/mol (Crystal 1); method: DSC
Temperature, K	Molar heat capacity at constant pressure, J/K/mol	uncertainty
866.21	90.42	3.58
867.21	88.01	3.5
868.11	89.24	3.54
869.11	88.03	3.5
870.11	87.13	3.47
871.11	86.12	3.44
872.11	85.33	3.42
873.11	85.06	3.41
874.11	84.83	3.4
875.11	84.62	3.39
876.11	84.44	3.39
877.11	84.28	3.38
878.11	84.13	3.38
879.11	83.93	3.37
880.11	83.85	3.37
881.11	83.77	3.37
882.11	83.69	3.36
883.11	83.62	3.36
884.11	83.55	3.36
885.11	83.48	3.36
886.11	83.41	3.36
887.11	83.34	3.35
888.11	83.28	3.35
889.11	83.22	3.35
890.11	83.17	3.35
891.11	83.11	3.35
892.11	83.06	3.34
893.11	83.01	3.34
894.11	82.97	3.34
895.11	82.92	3.34
896.11	82.88	3.34
897.11	82.85	3.34
898.11	82.81	3.34
899.11	82.78	3.34
900.11	82.75	3.33
901.11	82.69	3.33
902.11	82.64	3.33
903.11	82.59	3.33
904.11	82.54	3.33
905.11	82.49	3.33
906.11	82.45	3.33
907.11	82.41	3.32
908.11	82.37	3.32
909.11	82.34	3.32
910.11	82.3	3.32
911.11	82.27	3.32
912.11	82.25	3.32
913.11	82.22	3.32
914.11	82.2	3.32
915.11	82.18	3.32
916.11	82.16	3.32
917.11	82.15	3.32
918.11	82.14	3.32
919.11	82.13	3.32
920.11	82.13	3.32
921.11	82.12	3.32
922.11	82.12	3.32
923.11	82.12	3.32
924.11	82.13	3.32
925.11	82.14	3.32
926.11	82.15	3.32
927.11	82.16	3.32
928.11	82.18	3.32
929.11	82.2	3.32
930.11	82.22	3.32
931.11	82.23	3.32
932.11	82.25	3.32
933.11	82.26	3.32
934.11	82.27	3.32
935.11	82.29	3.32
936.11	82.3	3.32
937.11	82.31	3.32
938.11	82.32	3.32
