Measured thermophysical data. Thermodynamic properties of liquid mixtures containing 1,3-dioxolane and anilines: Excess  molar volumes, excess molar enthalpies, excess Gibb's free energy and isentropic compressibilities  changes of mixing
Source: Thermochim. Acta, 2010, 10.1016/j.tca.2010.07.027
Compound 1: 1,3-dioxolane, C3H6O2, InChI=1S/C3H6O2/c1-2-5-3-4-1/h1-3H2, purity 99%
Compound 2: N-methylaniline, C7H9N, InChI=1S/C7H9N/c1-8-7-5-3-2-4-6-7/h2-6,8H,1H3, purity 98%
Compound 3: 2-methylaniline, C7H9N, InChI=1S/C7H9N/c1-6-4-2-3-5-7(6)8/h2-5H,8H2,1H3, purity 99%
Compound 4: aniline, C6H7N, InChI=1S/C6H7N/c7-6-4-2-1-3-5-6/h1-5H,7H2, purity 99%

System: 1,3-dioxolane; phases: Liquid
Property: Mass density, kg/m3 (Liquid); method: Pycnometric method
Temperature, K	Pressure, kPa	Mass density, kg/m3	uncertainty
298.15	101.325	1047.2	1.1

System: 1,3-dioxolane; phases: Liquid, Gas
Property: Vapor or sublimation pressure, kPa (Liquid); method: Closed cell (Static) method
Temperature, K	Vapor or sublimation pressure, kPa	uncertainty
308.15	21.5049	1.067

System: 1,3-dioxolane; phases: Liquid
Property: Speed of sound, m/s (Liquid); method: Linear variable-path acoustic interferometer
Temperature, K	Pressure, kPa	Speed of sound, m/s	uncertainty
298.15	101.325	1388	3

System: N-methylaniline; phases: Liquid
Property: Mass density, kg/m3 (Liquid); method: Pycnometric method
Temperature, K	Pressure, kPa	Mass density, kg/m3	uncertainty
298.15	101.325	982.4	1.6

System: N-methylaniline; phases: Liquid, Gas
Property: Vapor or sublimation pressure, kPa (Liquid); method: Closed cell (Static) method
Temperature, K	Vapor or sublimation pressure, kPa	uncertainty
308.15	0.0667	0.133

System: N-methylaniline; phases: Liquid
Property: Speed of sound, m/s (Liquid); method: Linear variable-path acoustic interferometer
Temperature, K	Pressure, kPa	Speed of sound, m/s	uncertainty
298.15	101.325	1572	3

System: 2-methylaniline; phases: Liquid
Property: Mass density, kg/m3 (Liquid); method: Pycnometric method
Temperature, K	Pressure, kPa	Mass density, kg/m3	uncertainty
298.15	101.325	994.2	1

System: 2-methylaniline; phases: Liquid, Gas
Property: Vapor or sublimation pressure, kPa (Liquid); method: Closed cell (Static) method
Temperature, K	Vapor or sublimation pressure, kPa	uncertainty
308.15	0.1067	0.133

System: 2-methylaniline; phases: Liquid
Property: Speed of sound, m/s (Liquid); method: Linear variable-path acoustic interferometer
Temperature, K	Pressure, kPa	Speed of sound, m/s	uncertainty
298.15	101.325	1602	3

System: aniline; phases: Liquid
Property: Mass density, kg/m3 (Liquid); method: Pycnometric method
Temperature, K	Pressure, kPa	Mass density, kg/m3	uncertainty
298.15	101.325	1017.2	1

System: aniline; phases: Liquid, Gas
Property: Vapor or sublimation pressure, kPa (Liquid); method: Closed cell (Static) method
Temperature, K	Vapor or sublimation pressure, kPa	uncertainty
298.15	0.0933	0.08

System: aniline; phases: Liquid
Property: Speed of sound, m/s (Liquid); method: Linear variable-path acoustic interferometer
Temperature, K	Pressure, kPa	Speed of sound, m/s	uncertainty
298.15	101.325	1635	3

System: aniline + 1,3-dioxolane; phases: Liquid, Gas
Fixed: Temperature, K = 308.15
Property: Excess molar enthalpy (molar enthalpy of mixing), kJ/mol (Liquid); method: 2-drop calorimeter
Mole fraction of 1,3-dioxolane	Excess molar enthalpy (molar enthalpy of mixing), kJ/mol	uncertainty
0.0613	-0.1616	0.0037
0.1622	-0.4135	0.009
0.2241	-0.5476	0.0119
0.2774	-0.6508	0.0141
0.3503	-0.7685	0.0166
0.4231	-0.8484	0.0182
0.5511	-0.9003	0.0193
0.5812	-0.8962	0.0193
0.6223	-0.8733	0.0188
0.6816	-0.8171	0.0176
0.7519	-0.7151	0.0154
0.8127	-0.5867	0.0127
0.8928	-0.3713	0.0082
0.9514	-0.1822	0.0042

System: aniline + 1,3-dioxolane; phases: Gas, Liquid
Fixed: Temperature, K = 308.15
Property: Vapor or sublimation pressure, kPa (Gas); method: MANOM:UFactor:8
Mole fraction of aniline	Vapor or sublimation pressure, kPa	uncertainty
0	21.5049	1.0266
0.1324	17.3719	0.9466
0.2421	14.5188	0.8933
0.3453	11.2657	0.8266
0.4443	8.7193	0.7866
0.5216	7.2261	0.7599
0.6211	5.3062	0.7199
0.7435	3.3597	0.6799
0.8435	1.6265	0.6533
0.9041	0.9333	0.6399
1	0.12	0.6266

System: aniline + 1,3-dioxolane; phases: Liquid, Gas
Fixed: Temperature, K = 308.15
Fixed: Frequency, MHz = 2
Property: Speed of sound, m/s (Liquid); method: Linear variable-path acoustic interferometer
Mole fraction of 1,3-dioxolane	Speed of sound, m/s	uncertainty
0.0812	1587	3
0.1413	1576	3
0.2212	1557	3
0.2916	1539	3
0.3488	1523	3
0.4621	1489	3
0.5219	1470	3
0.5928	1447	3
0.6414	1431	3
0.7131	1406	3
0.8001	1374	3
0.8715	1347	3
0.9213	1327	3
0.9711	1307	3

System: aniline + 1,3-dioxolane; phases: Liquid, Gas
Fixed: Temperature, K = 308.15
Property: Excess molar volume, m3/mol (Liquid); method: DIRDIL:UFactor:2
Mole fraction of 1,3-dioxolane	Excess molar volume, m3/mol	uncertainty
0.0789	-1.34e-07	6e-09
0.1132	-1.88e-07	6e-09
0.2204	-3.3e-07	7e-09
0.3111	-4.28e-07	7e-09
0.4281	-4.97e-07	7e-09
0.4916	-5.16e-07	7e-09
0.523	-5.17e-07	7e-09
0.5999	-4.93e-07	7e-09
0.6342	-4.77e-07	7e-09
0.7114	-4.18e-07	7e-09
0.8202	-2.94e-07	7e-09
0.8913	-1.9e-07	6e-09
0.9233	-1.38e-07	6e-09
0.9718	-5.25e-08	6.1e-09

System: N-methylaniline + 1,3-dioxolane; phases: Liquid, Gas
Fixed: Temperature, K = 308.15
Property: Excess molar enthalpy (molar enthalpy of mixing), kJ/mol (Liquid); method: 2-drop calorimeter
Mole fraction of 1,3-dioxolane	Excess molar enthalpy (molar enthalpy of mixing), kJ/mol	uncertainty
0.0853	-0.3823	0.0084
0.1423	-0.5433	0.0118
0.2533	-0.6782	0.0146
0.3765	-0.6524	0.0141
0.4531	-0.5904	0.0128
0.5123	-0.5316	0.0115
0.5976	-0.4402	0.0096
0.6432	-0.3877	0.0085
0.7123	-0.3134	0.0069
0.7943	-0.2348	0.0053
0.8543	-0.1713	0.0039
0.8912	-0.1345	0.0032
0.9321	-0.0932	0.0023
0.9721	-0.0374	0.0013

System: N-methylaniline + 1,3-dioxolane; phases: Gas, Liquid
Fixed: Temperature, K = 308.15
Property: Vapor or sublimation pressure, kPa (Gas); method: CCELL:UFactor:16
Mole fraction of N-methylaniline	Vapor or sublimation pressure, kPa	uncertainty
0	21.5049	1.3199
0.1123	17.4386	1.1199
0.2222	14.9054	0.9866
0.3343	12.1457	0.8533
0.4543	8.9459	0.6933
0.5256	7.2261	0.6
0.6543	4.5863	0.48
0.7543	2.5598	0.3733
0.8432	1.1466	0.32
0.9001	1.0532	0.8
1	0.0667	0.0933

System: N-methylaniline + 1,3-dioxolane; phases: Liquid, Gas
Fixed: Temperature, K = 308.15
Fixed: Frequency, MHz = 2
Property: Speed of sound, m/s (Liquid); method: Linear variable-path acoustic interferometer
Mole fraction of 1,3-dioxolane	Speed of sound, m/s	uncertainty
0.0415	1521	3
0.1211	1511	3
0.2001	1501	3
0.2754	1490	3
0.3512	1477	3
0.4222	1463	3
0.4943	1447	3
0.5421	1436	3
0.6213	1415	3
0.7003	1393	3
0.7832	1367	3
0.8632	1341	3
0.9011	1329	3
0.9632	1307	3

System: N-methylaniline + 1,3-dioxolane; phases: Liquid, Gas
Fixed: Temperature, K = 308.15
Property: Excess molar volume, m3/mol (Liquid); method: DIRDIL:UFactor:2
Mole fraction of 1,3-dioxolane	Excess molar volume, m3/mol	uncertainty
0.0709	-1.8e-08	6e-09
0.1771	-4.5e-08	6e-09
0.2387	-6.3e-08	6e-09
0.2958	-8e-08	6e-09
0.3349	-8.8e-08	6e-09
0.3916	-9.5e-08	6e-09
0.4361	-1.02e-07	6e-09
0.4912	-1.1e-07	6e-09
0.5531	-1.12e-07	6e-09
0.6272	-1.04e-07	6e-09
0.6992	-9.3e-08	6e-09
0.7417	-8.8e-08	6e-09
0.8545	-5.1e-08	6e-09
0.9213	-3e-08	6e-09

System: 2-methylaniline + 1,3-dioxolane; phases: Liquid, Gas
Fixed: Temperature, K = 308.15
Property: Excess molar enthalpy (molar enthalpy of mixing), kJ/mol (Liquid); method: 2-drop calorimeter
Mole fraction of 1,3-dioxolane	Excess molar enthalpy (molar enthalpy of mixing), kJ/mol	uncertainty
0.0754	-0.2205	0.005
0.1632	-0.464	0.0101
0.2424	-0.6468	0.014
0.3213	-0.7861	0.0169
0.4001	-0.8728	0.0188
0.4843	-0.9061	0.0195
0.5655	-0.8712	0.0187
0.6112	-0.8266	0.0178
0.6979	-0.6962	0.015
0.7432	-0.6087	0.0132
0.808	-0.4667	0.0102
0.8831	-0.2811	0.0063
0.9311	-0.1633	0.0038
0.9621	-0.0868	0.0022

System: 2-methylaniline + 1,3-dioxolane; phases: Gas, Liquid
Fixed: Temperature, K = 308.15
Property: Vapor or sublimation pressure, kPa (Gas); method: MANOM:UFactor:8
Mole fraction of 2-methylaniline	Vapor or sublimation pressure, kPa	uncertainty
0	21.5049	1.0266
0.1532	18.5051	0.9599
0.2432	15.0121	0.8933
0.3553	12.159	0.8399
0.4432	9.8925	0.7999
0.5556	8.026	0.7733
0.6671	6.1862	0.7333
0.7432	4.2663	0.6933
0.8654	2.2665	0.6666
0.901	1.0799	0.6399
1	0.1067	0.6266

System: 2-methylaniline + 1,3-dioxolane; phases: Liquid, Gas
Fixed: Temperature, K = 308.15
Fixed: Frequency, MHz = 2
Property: Speed of sound, m/s (Liquid); method: Linear variable-path acoustic interferometer
Mole fraction of 1,3-dioxolane	Speed of sound, m/s	uncertainty
0.1122	1539	3
0.1891	1526	3
0.2413	1516	3
0.2911	1506	3
0.3212	1500	3
0.4011	1484	3
0.4513	1473	3
0.5651	1444	3
0.6637	1415	3
0.6989	1404	3
0.7512	1386	3
0.8319	1358	3
0.9071	1330	3
0.9713	1306	3

System: 2-methylaniline + 1,3-dioxolane; phases: Liquid, Gas
Fixed: Temperature, K = 308.15
Property: Excess molar volume, m3/mol (Liquid); method: DIRDIL:UFactor:2
Mole fraction of 1,3-dioxolane	Excess molar volume, m3/mol	uncertainty
0.0549	-8.4e-08	6e-09
0.1721	-2.51e-07	7e-09
0.2239	-3.12e-07	7e-09
0.2769	-3.75e-07	7e-09
0.351	-4.43e-07	7e-09
0.4217	-4.86e-07	7e-09
0.5518	-5.12e-07	7e-09
0.5889	-5.12e-07	7e-09
0.6218	-4.97e-07	7e-09
0.6831	-4.66e-07	7e-09
0.7523	-4.07e-07	7e-09
0.8147	-3.28e-07	7e-09
0.8916	-2.16e-07	6e-09
0.9407	-1.23e-07	6e-09
