Measured thermophysical data. Measurement of the thermal conductivity of SiO2 nanofluids with an optimized transient hot wire method
Source: Thermochim. Acta, 2018, 10.1016/j.tca.2018.01.008
Compound 1: water, H2O, InChI=1S/H2O/h1H2, purity 99.8%
Compound 2: 1,2-ethanediol, C2H6O2, InChI=1S/C2H6O2/c3-1-2-4/h3-4H,1-2H2, purity 99%

System: water; phases: Liquid
Property: Thermal conductivity, W/m/K (Liquid); method: THOTW
Temperature, K	Pressure, kPa	Thermal conductivity, W/m/K	uncertainty
293.15	101.325	0.597	0.01

System: 1,2-ethanediol; phases: Liquid
Property: Thermal conductivity, W/m/K (Liquid); method: THOTW
Temperature, K	Pressure, kPa	Thermal conductivity, W/m/K	uncertainty
293.15	101.325	0.25	0.004
