Measured thermophysical data. The heat capacity of bismuth silicates
Source: Thermochim. Acta, 2015, 10.1016/j.tca.2014.12.021
Compound 1: bismuth oxide silicate (Bi12SiO20), Bi12O20Si, InChI=1S/12Bi.O4Si.16O/c;;;;;;;;;;;;1-5(2,3)4;;;;;;;;;;;;;;;;/q12*+3;-4;16*-2
Compound 2: bismuth silicate (Bi4Si3O12), Bi4O12Si3, InChI=1S/4Bi.3O4Si/c;;;;3*1-5(2,3)4/q4*+3;3*-4

System: bismuth oxide silicate (Bi12SiO20); phases: Crystal
Fixed: Pressure, kPa = 100
Property: Molar heat capacity at constant pressure, J/K/mol (Crystal); method: Small sample (50 mg) DSC
Temperature, K	Molar heat capacity at constant pressure, J/K/mol	uncertainty
343	694.3	42.8
353	698	43
363	703.5	43.4
373	708.6	43.7
383	714.3	44
393	720.1	44.4
403	726.7	44.8
413	732.2	45.1
423	737.8	45.5
433	743.5	45.8
443	748.4	46.1
453	752.7	46.4
463	756.3	46.6
473	761.5	46.9
483	765.2	47.2
493	769.4	47.4
503	773.2	47.7
513	776.9	47.9
523	779.7	48.1
533	783.8	48.3
543	786.7	48.5
553	789.7	48.7
563	792.1	48.8
573	794.8	49
583	796.8	49.1
593	799.4	49.3
603	801	49.4
613	804.2	49.6
623	806.2	49.7
633	808.1	49.8
643	809.6	49.9
653	811.6	50
663	815.1	50.2
673	817.1	50.4
683	820.6	50.6
693	821.9	50.7
703	823.8	50.8
713	826.5	50.9
723	828.5	51.1
733	829.3	51.1
743	831.5	51.3
753	834.3	51.4
763	836.7	51.6
773	838.6	51.7
783	842.5	51.9
793	844.3	52
803	846.7	52.2
813	848.4	52.3
823	849.4	52.4
833	850.4	52.4
843	852	52.5
853	851.5	52.5
863	853.9	52.6
873	855.8	52.8
883	859.3	53
893	862.1	53.1
903	865.6	53.4
913	867.3	53.5
923	868.3	53.5
933	870.8	53.7
943	871.9	53.7
953	872.8	53.8
963	874.5	53.9
973	875.6	54
983	876.9	54.1
993	879.6	54.2
1003	879.3	54.2
1013	880	54.2
1023	880.5	54.3
1033	881.2	54.3
1043	880.1	54.3
1053	885	54.6
1063	887.2	54.7
1073	889.3	54.8
1083	888	54.7
1093	889.8	54.9

System: bismuth silicate (Bi4Si3O12); phases: Crystal
Fixed: Pressure, kPa = 100
Property: Molar heat capacity at constant pressure, J/K/mol (Crystal); method: Small sample (50 mg) DSC
Temperature, K	Molar heat capacity at constant pressure, J/K/mol	uncertainty
362	389.7	24.1
372	393.7	24.3
382	396.9	24.5
392	399.8	24.7
402	402.8	24.8
412	406.5	25.1
422	410.5	25.4
432	415.2	25.7
442	418.6	25.9
452	424.1	26.4
462	427.2	26.5
472	431.6	26.9
482	434.1	27
492	436.2	27.1
502	437.5	27
512	438.4	27.1
522	439.5	27.1
532	440.2	27.2
542	441.4	27.2
552	442.5	27.3
562	443.3	27.4
572	447.1	27.7
582	450.5	27.9
592	451.1	27.9
602	450.8	27.8
612	452.6	27.9
622	453.6	28
632	454.2	28
642	455.9	28.1
652	456.2	28.1
662	458	28.3
672	458.4	28.3
682	459.3	28.3
692	460.9	28.4
702	462.1	28.5
712	463.3	28.6
722	465.1	28.7
732	465.5	28.7
742	466.2	28.8
752	467.6	28.9
762	469.3	29
772	469.7	29
782	470.6	29
792	471.5	29.1
802	473.1	29.2
812	475.3	29.3
822	477.1	29.4
832	478.4	29.5
842	480.2	29.7
852	480	29.6
862	482	29.8
872	482.9	29.8
882	484.3	30
892	484.2	29.9
902	483.4	29.8
912	485.8	30.1
922	487.5	30.2
932	489.3	30.3
942	489.5	30.3
952	489.8	30.3
962	490.1	30.3
972	491.5	30.4
982	492.8	30.5
992	493.9	30.5
1002	494.8	30.7
1012	495.2	30.7
1022	496.2	30.8
1032	496.8	30.8
1042	497.3	30.8
1052	497.8	30.8
1062	496.4	30.7
1072	497.1	30.8
1082	499	30.9
1092	501.8	31.2
1102	502	31.1
1112	502.8	31.2
1122	502.6	31.1
1132	503.3	31.1
361	384.1	23.8
371	390.2	24.1
381	393.9	24.3
391	396.5	24.5
401	401.8	24.8
411	405.1	25
421	406.1	25.1
431	409.1	25.3
441	412.8	25.6
451	415.4	25.8
461	419	26
471	422.2	26.3
481	425.1	26.5
491	428.7	26.6
501	432.6	26.7
511	434.5	26.8
521	435.2	26.9
531	436.2	26.9
541	438.3	27
551	439.5	27.1
561	440.3	27.2
571	441.3	27.3
581	443.8	27.5
591	445.2	27.5
601	446.7	27.6
611	448.5	27.7
621	450.2	27.8
631	451.5	27.9
641	452.8	27.9
651	454.5	28
661	455.1	28.1
671	455.9	28.1
681	456.7	28.2
691	458.9	28.3
701	460.3	28.4
711	461.1	28.4
721	462.4	28.5
731	463.1	28.6
741	463.2	28.6
751	464.4	28.7
761	465.7	28.7
771	466	28.8
781	468.4	28.9
791	470.1	29
801	471.1	29.1
811	472.9	29.2
821	474.5	29.3
831	474.1	29.3
841	475.1	29.4
851	476.2	29.4
861	475.9	29.4
871	477.5	29.5
881	477.1	29.6
891	478.1	29.6
901	479.6	29.6
911	479	29.7
921	479.8	29.7
931	482.3	29.9
941	482.8	29.9
951	483.1	29.9
961	484.3	29.9
971	485.8	30
981	486.5	30.1
991	487.8	30.2
1001	486.6	30.2
1011	486.6	30.2
1021	488.1	30.3
1031	488.5	30.3
1041	489.5	30.3
1051	490.1	30.4
1061	490.1	30.3
1071	489.2	30.3
1081	491.7	30.5
1091	492.2	30.6
1101	493.4	30.6
1111	494.7	30.7
1121	495.5	30.7
1131	496.4	30.7
