Measured thermophysical data. Fragility of ionic liquids measured by Flash differential scanning calorimetry
Source: Thermochim. Acta, 2017, 10.1016/j.tca.2017.05.008
Compound 1: 1-heptyl-3-methylimidazolium bis(trifluoromethylsulfonyl)amide, C13H21F6N3O4S2, InChI=1S/C11H21N2.C2F6NO4S2/c1-3-4-5-6-7-8-13-10-9-12(2)11-13;3-1(4,5)14(10,11)9-15(12,13)2(6,7)8/h9-11H,3-8H2,1-2H3;/q+1;-1, purity 98%
Compound 2: 1-(cyclohexylmethyl)-3-methyl-1H-imidazol-3-ium bis((trifluoromethyl)sulfonyl)amide, C13H19F6N3O4S2, InChI=1S/C11H19N2.C2F6NO4S2/c1-12-7-8-13(10-12)9-11-5-3-2-4-6-11;3-1(4,5)14(10,11)9-15(12,13)2(6,7)8/h7-8,10-11H,2-6,9H2,1H3;/q+1;-1, purity 97%
Compound 3: 1-benzyl-3-methyl-1H-imidazol-3-ium bis((trifluoromethyl)sulfonyl)amide, C13H13F6N3O4S2, InChI=1S/C11H13N2.C2F6NO4S2/c1-12-7-8-13(10-12)9-11-5-3-2-4-6-11;3-1(4,5)14(10,11)9-15(12,13)2(6,7)8/h2-8,10H,9H2,1H3;/q+1;-1, purity 97%
Compound 4: 1,3-dibenzyl-1H-imidazol-3-ium bis((trifluoromethyl)sulfonyl)amide, C19H17F6N3O4S2, InChI=1S/C17H17N2.C2F6NO4S2/c1-3-7-16(8-4-1)13-18-11-12-19(15-18)14-17-9-5-2-6-10-17;3-1(4,5)14(10,11)9-15(12,13)2(6,7)8/h1-12,15H,13-14H2;/q+1;-1, purity 98%
Compound 5: 1-methyl-3-(3-phenylpropyl)-1H-imidazolium 1,1,1-trifluoro-N-[(trifluoromethyl)sulfonyl]methanesulfonamide, C15H17F6N3O4S2, InChI=1S/C13H17N2.C2F6NO4S2/c1-14-10-11-15(12-14)9-5-8-13-6-3-2-4-7-13;3-1(4,5)14(10,11)9-15(12,13)2(6,7)8/h2-4,6-7,10-12H,5,8-9H2,1H3;/q+1;-1, purity 97%
Compound 6: 1,3-bis(3-phenylpropyl)imidazolium bis(trifluoromethylsulfonyl)imide, C23H25F6N3O4S2, InChI=1S/C21H25N2.C2F6NO4S2/c1-3-9-20(10-4-1)13-7-15-22-17-18-23(19-22)16-8-14-21-11-5-2-6-12-21;3-1(4,5)14(10,11)9-15(12,13)2(6,7)8/h1-6,9-12,17-19H,7-8,13-16H2;/q+1;-1, purity 99%
Compound 7: 3-methyl-1-(naphthalen-2-ylmethyl)-1H-imidazol-3-ium bis((trifluoromethyl)sulfonyl)amide, C17H15F6N3O4S2, InChI=1S/C15H15N2.C2F6NO4S2/c1-16-8-9-17(12-16)11-13-6-7-14-4-2-3-5-15(14)10-13;3-1(4,5)14(10,11)9-15(12,13)2(6,7)8/h2-10,12H,11H2,1H3;/q+1;-1, purity 97%

System: 1-heptyl-3-methylimidazolium bis(trifluoromethylsulfonyl)amide; phases: Glass, Liquid, Air at 1 atmosphere
Property: Triple point temperature, K (Glass); method: DSC
Triple point temperature, K	uncertainty
187.45	1.2

System: 1-(cyclohexylmethyl)-3-methyl-1H-imidazol-3-ium bis((trifluoromethyl)sulfonyl)amide; phases: Glass, Liquid, Air at 1 atmosphere
Property: Triple point temperature, K (Glass); method: DSC
Triple point temperature, K	uncertainty
210.55	1.4

System: 1-benzyl-3-methyl-1H-imidazol-3-ium bis((trifluoromethyl)sulfonyl)amide; phases: Glass, Liquid, Air at 1 atmosphere
Property: Triple point temperature, K (Glass); method: DSC
Triple point temperature, K	uncertainty
214.45	1.4

System: 1,3-dibenzyl-1H-imidazol-3-ium bis((trifluoromethyl)sulfonyl)amide; phases: Glass, Liquid, Air at 1 atmosphere
Property: Triple point temperature, K (Glass); method: DSC
Triple point temperature, K	uncertainty
228.35	1.2

System: 1-methyl-3-(3-phenylpropyl)-1H-imidazolium 1,1,1-trifluoro-N-[(trifluoromethyl)sulfonyl]methanesulfonamide; phases: Glass, Liquid, Air at 1 atmosphere
Property: Triple point temperature, K (Glass); method: DSC
Triple point temperature, K	uncertainty
210.4	1.1

System: 1-methyl-3-(3-phenylpropyl)-1H-imidazolium 1,1,1-trifluoro-N-[(trifluoromethyl)sulfonyl]methanesulfonamide; phases: Glass, Liquid, Air at 1 atmosphere
Property: Triple point temperature, K (Glass); method: DSC
Triple point temperature, K	uncertainty
209.85	1.2

System: 1,3-bis(3-phenylpropyl)imidazolium bis(trifluoromethylsulfonyl)imide; phases: Glass, Liquid, Air at 1 atmosphere
Property: Triple point temperature, K (Glass); method: DSC
Triple point temperature, K	uncertainty
222.9	1.2

System: 1,3-bis(3-phenylpropyl)imidazolium bis(trifluoromethylsulfonyl)imide; phases: Glass, Liquid, Air at 1 atmosphere
Property: Triple point temperature, K (Glass); method: DSC
Triple point temperature, K	uncertainty
222.35	1.4

System: 3-methyl-1-(naphthalen-2-ylmethyl)-1H-imidazol-3-ium bis((trifluoromethyl)sulfonyl)amide; phases: Glass, Liquid, Air at 1 atmosphere
Property: Triple point temperature, K (Glass); method: DSC
Triple point temperature, K	uncertainty
234.45	1.2
