Measured thermophysical data. Thermal and spectral characterization of a binary mixture (acyclovir and  fluocinolone acetonide): Eutectic reaction and inclusion complexes with beta-cyclodextrin
Source: Thermochim. Acta, 2013, 10.1016/j.tca.2013.03.013
Compound 1: 9-[(2-hydroxyethoxyl)methyl]guanine, C8H11N5O3, InChI=1S/C8H11N5O3/c9-8-11-6-5(7(15)12-8)10-3-13(6)4-16-2-1-14/h3,14H,1-2,4H2,(H3,9,11,12,15)
Compound 2: fluocinolone acetonide, C24H30F2O6, InChI=1S/C24H30F2O6/c1-20(2)31-19-9-13-14-8-16(25)15-7-12(28)5-6-21(15,3)23(14,26)17(29)10-22(13,4)24(19,32-20)18(30)11-27/h5-7,13-14,16-17,19,27,29H,8-11H2,1-4H3/t13-,14-,16-,17-,19+,21-,22-,23-,24+/m0/s1

System: fluocinolone acetonide; phases: Crystal, Liquid, Air at 1 atmosphere
Property: Normal melting temperature, K (Crystal); method: DTA
Normal melting temperature, K	uncertainty
534.5	0.7

System: fluocinolone acetonide; phases: Crystal, Liquid, Air at 1 atmosphere
Property: Normal melting temperature, K (Crystal); method: VISOBS
Normal melting temperature, K	uncertainty
535.15	0.5

System: fluocinolone acetonide + 9-[(2-hydroxyethoxyl)methyl]guanine; phases: Liquid, Crystal
Fixed: Pressure, kPa = 101
Property: Solid-liquid equilibrium temperature, K (Liquid); method: DTA:corrimp
Mole fraction of 9-[(2-hydroxyethoxyl)methyl]guanine	Solid-liquid equilibrium temperature, K	uncertainty
0	553.42	0.5
0.1	552.45	0.5
0.2	549.97	0.5
0.3	546.62	0.5
0.4	544.52	0.5
0.45	526.1	0.5

System: fluocinolone acetonide + 9-[(2-hydroxyethoxyl)methyl]guanine; phases: Liquid, Crystal
Fixed: Pressure, kPa = 101
Property: Solid-liquid equilibrium temperature, K (Liquid); method: DTA:corrimp
Mole fraction of 9-[(2-hydroxyethoxyl)methyl]guanine	Solid-liquid equilibrium temperature, K	uncertainty
0.5	532.62	10
0.55	531.22	10
0.6	532.26	10
0.65	531.43	10
0.7	531.67	10
0.75	530.64	10
0.8	530.14	10
0.85	531.39	10
0.9	530.31	10
0.95	531.6	0.5
1	534.39	0.5
