Measured thermophysical data. Thermodynamic properties of 5-(1-adamantyl)tetrazole
Source: Thermochim. Acta, 2014, 10.1016/j.tca.2014.07.018
Compound 1: carbon dioxide, CO2, InChI=1S/CO2/c2-1-3
Compound 2: nitrogen, N2, InChI=1S/N2/c1-2
Compound 3: water, H2O, InChI=1S/H2O/h1H2
Compound 4: oxygen, O2, InChI=1S/O2/c1-2
Compound 5: 5-(1-adamantyl)tetrazole, C11H16N4, InChI=1S/C11H16N4/c1-7-2-9-3-8(1)5-11(4-7,6-9)10-12-14-15-13-10/h7-9H,1-6H2,(H,12,13,14,15)

System: 5-(1-adamantyl)tetrazole; phases: Crystal, Liquid, Air at 1 atmosphere
Property: Normal melting temperature, K (Crystal); method: VISOBS
Normal melting temperature, K	uncertainty
524.15	2

System: 5-(1-adamantyl)tetrazole; phases: Crystal
Property: Mass density, kg/m3 (Crystal); method: Pycnometric method
Temperature, K	Pressure, kPa	Mass density, kg/m3	uncertainty
292.15	101.325	1470	180

System: 5-(1-adamantyl)tetrazole; phases: Crystal
Property: Mass density, kg/m3 (Crystal); method: X-ray diffraction
Temperature, K	Pressure, kPa	Mass density, kg/m3	uncertainty
100	101.325	1308	6

System: 5-(1-adamantyl)tetrazole; phases: Crystal
Fixed: Pressure, kPa = 101.325
Property: Molar heat capacity at constant pressure, J/K/mol (Crystal); method: Small (less than 1 g) adiabatic calorimetry
Temperature, K	Molar heat capacity at constant pressure, J/K/mol	uncertainty
5	0.4912	0.0265
10	3.942	0.085
15	9.695	0.144
20	16.01	0.17
25	22.15	0.19
30	27.84	0.2
35	32.99	0.23
40	37.67	0.25
45	42	0.28
50	46.01	0.3
60	53.34	0.33
70	60.13	0.37
80	66.67	0.41
90	73.18	0.45
100	79.7	0.49
120	92.76	0.55
140	106.3	0.6
160	120.6	0.7
180	136	0.7
200	152.5	0.8
220	170	0.9
240	188.4	1
260	207.4	1.1
280	225.3	1.2
298.15	240	1.3
300	241.6	1.3
320	256.9	1.3
340	272	1.4
360	287.6	1.5
370	295.6	1.5

System: 5-(1-adamantyl)tetrazole; phases: Crystal
Fixed: Pressure, kPa = 101.325
Property: Molar enthalpy function {Hm(T)-Hm(0)}/T, J/K/mol (Crystal); method: Small (less than 1 g) adiabatic calorimetry
Temperature, K	Molar enthalpy function {Hm(T)-Hm(0)}/T, J/K/mol	uncertainty
5	0.1221	0.0201
10	1.022	0.031
15	2.918	0.059
20	5.401	0.083
25	8.142	0.099
30	10.96	0.14
35	13.75	0.15
40	16.45	0.16
45	19.05	0.18
50	21.55	0.19
60	26.24	0.22
70	30.6	0.24
80	34.71	0.26
90	38.62	0.31
100	42.4	0.33
120	49.7	0.36
140	56.81	0.4
160	63.88	0.43
180	71.03	0.47
200	78.34	0.5
220	85.87	0.54
240	93.64	0.58
260	101.7	0.6
280	109.9	0.7
298.15	117.3	0.7
300	118.1	0.7
320	126.3	0.7
340	134.4	0.8
360	142.5	0.8
370	146.5	0.8

System: 5-(1-adamantyl)tetrazole; phases: Crystal
Fixed: Pressure, kPa = 101.325
Property: Molar entropy, J/K/mol (Crystal); method: Small (less than 1 g) adiabatic calorimetry
Temperature, K	Molar entropy, J/K/mol	uncertainty
5	0.1627	0.0271
10	1.359	0.056
15	4.002	0.115
20	7.655	0.167
25	11.89	0.21
30	16.44	0.25
35	21.13	0.29
40	25.84	0.33
45	30.53	0.37
50	35.17	0.41
60	44.22	0.47
70	52.95	0.55
80	61.41	0.61
90	69.64	0.71
100	77.69	0.77
120	93.37	0.88
140	108.7	1
160	123.8	1.1
180	138.9	1.2
200	154	1.4
220	169.4	1.4
240	185	1.6
260	200.8	1.7
280	216.8	1.8
298.15	231.5	1.9
300	232.9	1.9
320	249	2
340	265	2.1
360	281	2.3
370	289	2.3

System: 5-(1-adamantyl)tetrazole; phases: Crystal, Gas
Property: Vapor or sublimation pressure, kPa (Crystal); method: Calculated from knudsen effusion weight loss
Temperature, K	Vapor or sublimation pressure, kPa	uncertainty
418.8	0.000516	3.18e-05
403.74	0.0001377	8.5e-06
408.74	0.0002167	1.34e-05
413.74	0.0003204	1.98e-05
418.74	0.0005125	3.16e-05
398.71	8.43e-05	5.2e-06
413.75	0.0003212	1.99e-05
408.72	0.0002121	1.31e-05
398.71	8.47e-05	5.3e-06
403.72	0.0001377	8.5e-06
393.68	5.34e-05	3.3e-06
418.77	0.0005047	3.11e-05
413.76	0.0003363	2.08e-05
408.72	0.0002136	1.32e-05
403.71	0.0001344	8.3e-06

System: 5-(1-adamantyl)tetrazole; phases: Ideal gas
Fixed: Pressure, kPa = 101.325
Property: Molar heat capacity at constant pressure, J/K/mol (Ideal gas); method: Statistical thermodynamic calculations
Temperature, K	Molar heat capacity at constant pressure, J/K/mol	uncertainty
100	67.8	2.6
150	97.2	3.8
200	131.2	5.1
273.15	188.2	7.3
298.15	209	8.1
300	210.5	8.2
400	291.7	11.3
408.3	298.1	11.5
500	362.1	14
600	419.6	16.3
700	466.1	18.1
800	504.3	19.5
900	535.9	20.8
1000	562.4	21.8

System: 5-(1-adamantyl)tetrazole; phases: Ideal gas
Fixed: Pressure, kPa = 101.325
Property: Molar entropy, J/K/mol (Ideal gas); method: Statistical thermodynamic calculations
Temperature, K	Molar entropy, J/K/mol	uncertainty
100	303	17.6
150	335.8	19.5
200	368.3	21.4
273.15	417.5	24.3
298.15	434.5	25.2
300	436.2	25.3
400	508	29.5
408.3	514	29.9
500	580.9	33.7
600	652.2	37.9
700	720.5	41.9
800	785.3	45.6
900	846.6	49.2
1000	904.5	52.5

System: 5-(1-adamantyl)tetrazole; phases: Ideal gas
Fixed: Pressure, kPa = 101.325
Property: Molar enthalpy function {Hm(T)-Hm(0)}/T, J/K/mol (Ideal gas); method: Statistical thermodynamic calculations
Temperature, K	Molar enthalpy function {Hm(T)-Hm(0)}/T, J/K/mol	uncertainty
100	49.6	1.9
150	60.4	2.3
200	73.8	2.9
273.15	96.6	3.7
298.15	105.2	4.1
300	105.8	4.1
400	142.3	5.5
408.3	145.4	5.6
500	179.4	6.9
600	214.8	8.3
700	247.5	9.6
800	277.3	10.7
900	304.3	11.8
1000	328.9	12.7

System: 5-(1-adamantyl)tetrazole; phases: Crystal, Gas
Property: Molar heat capacity at saturation pressure, J/K/mol (Crystal); method: Small (less than 1 g) adiabatic calorimetry
Temperature, K	Molar heat capacity at saturation pressure, J/K/mol	uncertainty
78.7	65.87	0.4
80.66	67.14	0.41
82.56	68.36	0.42
84.46	69.59	0.42
86.37	70.82	0.43
88.29	72.06	0.43
90.2	73.3	0.46
92.12	74.53	0.46
94.04	75.78	0.47
95.96	77.1	0.47
97.9	78.34	0.48
99.83	79.61	0.49
101.75	80.79	0.49
103.69	82.06	0.5
105.62	83.32	0.5
107.56	84.62	0.51
109.51	85.87	0.52
111.45	87.18	0.52
113.4	88.45	0.53
115.36	89.75	0.53
117.32	91.05	0.54
119.27	92.33	0.55
121.23	93.59	0.55
123.19	94.91	0.56
125.16	96.2	0.56
127.12	97.48	0.57
129.09	98.86	0.58
131.06	100.1	0.6
133.04	101.5	0.6
135.02	102.8	0.6
137	104.2	0.6
138.98	105.5	0.6
140.97	106.9	0.6
142.95	108.3	0.6
144.93	109.7	0.6
146.93	111.1	0.6
148.92	112.6	0.6
150.91	114	0.7
152.9	115.4	0.7
154.89	116.8	0.7
156.89	118.3	0.7
158.89	119.8	0.7
160.89	121.3	0.7
162.89	122.7	0.7
164.89	124.3	0.7
166.9	125.8	0.7
168.9	127.4	0.7
170.91	128.9	0.7
172.92	130.5	0.7
174.93	132	0.7
176.93	133.7	0.7
178.93	135.1	0.8
180.94	136.8	0.8
182.95	138.3	0.8
184.97	140.1	0.8
186.99	141.6	0.8
189	143.3	0.8
191.02	144.9	0.8
193.03	146.6	0.8
195.05	148.4	0.8
197.07	150.1	0.8
199.09	151.7	0.8
201.1	153.4	0.8
203.13	155.1	0.9
205.16	156.8	0.9
207.18	158.6	0.9
209.21	160.4	0.9
211.24	162.1	0.9
213.27	163.9	0.9
215.3	165.7	0.9
217.33	167.6	0.9
219.37	169.4	0.9
221.4	171.2	0.9
223.43	173	0.9
225.46	174.9	0.9
227.5	176.8	1
224.08	173.6	0.9
226.05	175.4	0.9
228.08	177.3	1
230.12	179.2	1
232.16	181.1	1
234.19	183.1	1
236.23	184.9	1
238.27	186.8	1
240.31	188.8	1
242.35	190.8	1
244.39	192.5	1
246.43	194.5	1
248.47	196.4	1.1
250.51	198.4	1.1
252.55	200.3	1.1
254.59	202.2	1.1
256.64	204.1	1.1
258.68	206.2	1.1
260.73	208	1.1
262.77	209.9	1.1
264.81	211.9	1.1
266.86	213.7	1.1
268.9	215.5	1.1
270.94	217.3	1.2
272.99	219.2	1.2
275.03	221	1.2
277.08	222.9	1.2
279.13	224.5	1.2
281.18	226.3	1.2
283.22	227.9	1.2
285.27	229.8	1.2
287.32	231.5	1.2
289.37	233.1	1.2
291.42	234.7	1.2
293.46	236.3	1.2
295.51	237.9	1.3
297.56	239.7	1.3
299.61	241.3	1.3
301.65	242.8	1.3
303.7	244.6	1.3
305.75	246	1.3
307.8	247.6	1.3
309.86	249.2	1.3
311.91	250.7	1.3
313.96	252.3	1.3
316.02	253.9	1.3
318.07	255.5	1.3
320.14	256.9	1.3
322.2	258.6	1.4
324.26	260.2	1.4
326.32	261.8	1.4
328.38	263.2	1.4
330.44	264.8	1.4
332.5	266.3	1.4
334.57	267.8	1.4
336.63	269.4	1.4
338.69	270.9	1.4
340.76	272.4	1.4
342.83	274.2	1.4
344.9	275.7	1.4
346.97	277.1	1.4
349.04	278.9	1.5
351.11	280.5	1.5
353.2	282.1	1.5
355.27	283.8	1.5
357.34	285.5	1.5
359.41	287.2	1.5
361.48	288.9	1.5
363.56	290.4	1.5
365.63	292	1.5
367.7	293.7	1.5
5.162	0.5343	0.0239
5.486	0.6514	0.0263
5.811	0.7886	0.0291
6.141	0.9446	0.0325
6.535	1.157	0.037
6.999	1.433	0.043
7.466	1.748	0.05
7.944	2.099	0.058
8.427	2.496	0.067
8.915	2.914	0.076
9.407	3.374	0.086
9.905	3.847	0.097
10.47	4.424	0.078
11.12	5.106	0.088
11.77	5.817	0.097
12.42	6.568	0.107
13.1	7.361	0.118
13.77	8.166	0.128
14.45	9.013	0.139
15.14	9.87	0.149
15.93	10.87	0.16
16.83	12.03	0.18
17.74	13.17	0.19
18.65	14.31	0.2
19.56	15.45	0.21
20.76	16.96	0.17
22.25	18.79	0.18
23.76	20.65	0.19
25.27	22.46	0.19
26.78	24.22	0.2
28.31	25.96	0.2
29.59	27.43	0.2
31.31	29.26	0.21
33.16	31.15	0.22
35.01	33.01	0.23
36.86	34.76	0.24
38.72	36.52	0.25
40.58	38.18	0.26
42.54	39.91	0.27
44.6	41.62	0.27
46.67	43.41	0.28
48.74	45.04	0.29
50.82	46.64	0.3
52.9	48.22	0.31
54.99	49.8	0.32
57.07	51.31	0.33
59.17	52.73	0.33
61.28	54.19	0.34
63.38	55.67	0.35
65.49	57.06	0.36
67.6	58.52	0.36
69.71	59.93	0.37
71.92	61.4	0.38
74.24	62.88	0.39
76.57	64.45	0.39
78.9	65.93	0.4
81.23	67.48	0.41
83.56	68.98	0.42

Reaction: -1 5-(1-adamantyl)tetrazole + 11 carbon dioxide + 2 nitrogen + 8 water + -15 oxygen
Property: Specific internal energy of reaction at constant volume, J/g
-32694.5
