Measured thermophysical data. Heat capacities and molar enthalpies and entropies of fusion for anhydrous 1,10-phenanthroline and 2,9-dimethyl-1,10-phenanthroline
Source: Thermochim. Acta, 2007, 10.1016/j.tca.2007.10.001
Compound 1: 1,10-phenanthroline, C12H8N2, InChI=1S/C12H8N2/c1-3-9-5-6-10-4-2-8-14-12(10)11(9)13-7-1/h1-8H, purity 99.61%
Compound 2: 2,9-dimethyl-1,10-phenanthroline, C14H12N2, InChI=1S/C14H12N2/c1-9-3-5-11-7-8-12-6-4-10(2)16-14(12)13(11)15-9/h3-8H,1-2H3, purity 99.3%

System: 1,10-phenanthroline; phases: Crystal, Liquid, Air at 1 atmosphere
Property: Molar enthalpy of transition or fusion, kJ/mol (Crystal); method: DSC:UFactor:12
Molar enthalpy of transition or fusion, kJ/mol	uncertainty
11.8	3.7

System: 1,10-phenanthroline; phases: Crystal, Liquid, Air at 1 atmosphere
Property: Triple point temperature, K (Crystal); method: DTA:corrimp
Triple point temperature, K	uncertainty
391.1	0.6

System: 1,10-phenanthroline; phases: Crystal
Fixed: Pressure, kPa = 101.325
Property: Molar heat capacity at constant pressure, J/K/mol (Crystal); method: SDSC:UFactor:16
Temperature, K	Molar heat capacity at constant pressure, J/K/mol	uncertainty
298.2	115	37
300.2	116	37
302.2	117	37
304.2	125	40
306.2	127	41
308.2	133	43
310.2	140	45
312.2	150	48
314.2	156	50
316.2	165	53
318.2	175	56
320.2	184	59
322.2	192	61
324.2	199	64
326.2	206	66
328.2	213	68
330.2	221	71
332.2	226	72
334.2	235	75
336.2	237	76
338.2	245	78
340.2	247	79
342.2	253	81
344.2	253	81
346.2	256	82
348.2	260	83
350.2	263	84
352.2	265	85
354.2	270	86
356.2	271	87
358.2	276	88
360.2	279	89

System: 2,9-dimethyl-1,10-phenanthroline; phases: Crystal, Liquid, Air at 1 atmosphere
Property: Molar enthalpy of transition or fusion, kJ/mol (Crystal); method: DSC:UFactor:12
Molar enthalpy of transition or fusion, kJ/mol	uncertainty
17.6	5

System: 2,9-dimethyl-1,10-phenanthroline; phases: Crystal, Liquid, Air at 1 atmosphere
Property: Triple point temperature, K (Crystal); method: DTA:corrimp
Triple point temperature, K	uncertainty
435.9	1

System: 2,9-dimethyl-1,10-phenanthroline; phases: Crystal
Fixed: Pressure, kPa = 101.325
Property: Molar heat capacity at constant pressure, J/K/mol (Crystal); method: SDSC:UFactor:16
Temperature, K	Molar heat capacity at constant pressure, J/K/mol	uncertainty
298.2	253	81
303.2	274	88
308.2	292	93
313.2	306	98
318.2	321	103
323.2	331	106
328.2	345	110
333.2	354	113
338.2	361	116
343.2	370	118
348.2	373	119
353.2	374	120
358.2	383	123
363.2	383	123
368.2	387	124
373.2	384	123
378.2	386	124
383.2	390	125
388.2	386	124
393.2	383	123
