Measured thermophysical data. Thermophysical Study of the n-Hexane or n-Heptane with 1-  Chloropropane Systems
Source: Thermochim. Acta, 2011, 10.1016/j.tca.2011.07.023
Compound 1: hexane, C6H14, InChI=1S/C6H14/c1-3-5-6-4-2/h3-6H2,1-2H3
Compound 2: 1-chloropropane, C3H7Cl, InChI=1S/C3H7Cl/c1-2-3-4/h2-3H2,1H3
Compound 3: heptane, C7H16, InChI=1S/C7H16/c1-3-5-7-6-4-2/h3-7H2,1-2H3

System: hexane; phases: Liquid, Gas
Property: Vapor or sublimation pressure, kPa (Liquid); method: Ebulliometric method (Recirculating still)
Temperature, K	Vapor or sublimation pressure, kPa	uncertainty
298.15	20.22	0.03

System: hexane; phases: Liquid
Fixed: Pressure, kPa = 101.325
Property: Refractive index (Na D-line) (Liquid); method: Standard Abbe refractometry
Temperature, K	Refractive index (Na D-line)	uncertainty
283.15	1.380496	0.000369
288.15	1.377799	0.000369
293.15	1.375062	0.000369
298.15	1.372327	0.000369
303.15	1.369542	0.000369
308.15	1.366747	0.000369
313.15	1.363914	0.000369

System: hexane; phases: Liquid
Fixed: Pressure, kPa = 101.325
Property: Speed of sound, m/s (Liquid); method: Linear variable-path acoustic interferometer
Temperature, K	Speed of sound, m/s	uncertainty
283.15	1144.1	2.5
288.15	1121.8	2.5
293.15	1099.3	2.5
298.15	1076.5	2.5
303.15	1054.1	2.5
308.15	1031.8	2.5
313.15	1009.7	2.5

System: hexane; phases: Liquid
Fixed: Pressure, kPa = 101.325
Property: Mass density, kg/m3 (Liquid); method: Vibrating tube method
Temperature, K	Mass density, kg/m3	uncertainty
283.15	668.55	0.25
288.15	664.04	0.25
293.15	659.55	0.25
298.15	654.96	0.25
303.15	650.42	0.25
308.15	645.76	0.26
313.15	641.41	0.26

System: 1-chloropropane; phases: Liquid, Gas
Property: Vapor or sublimation pressure, kPa (Liquid); method: Ebulliometric method (Recirculating still)
Temperature, K	Vapor or sublimation pressure, kPa	uncertainty
298.15	45.85	0.066

System: 1-chloropropane; phases: Liquid
Fixed: Pressure, kPa = 101.325
Property: Refractive index (Na D-line) (Liquid); method: Standard Abbe refractometry
Temperature, K	Refractive index (Na D-line)	uncertainty
283.15	1.394311	0.000369
288.15	1.391394	0.000369
293.15	1.388441	0.000369
298.15	1.385475	0.000369
303.15	1.382486	0.000369
308.15	1.379484	0.000369
313.15	1.376447	0.000369

System: 1-chloropropane; phases: Liquid
Fixed: Pressure, kPa = 101.325
Property: Speed of sound, m/s (Liquid); method: Linear variable-path acoustic interferometer
Temperature, K	Speed of sound, m/s	uncertainty
283.15	1130.3	2.5
288.15	1109.2	2.5
293.15	1087.6	2.5
298.15	1065.5	2.5
303.15	1044	2.5
308.15	1022.2	2.5
313.15	1000.2	2.5

System: 1-chloropropane; phases: Liquid
Fixed: Pressure, kPa = 101.325
Property: Mass density, kg/m3 (Liquid); method: Vibrating tube method
Temperature, K	Mass density, kg/m3	uncertainty
283.15	902.42	0.23
288.15	895.87	0.23
293.15	889.65	0.23
298.15	883.29	0.23
303.15	876.98	0.23
308.15	870.52	0.23
313.15	864.69	0.23

System: heptane; phases: Liquid, Gas
Property: Vapor or sublimation pressure, kPa (Liquid); method: Ebulliometric method (Recirculating still)
Temperature, K	Vapor or sublimation pressure, kPa	uncertainty
298.15	6.1	0.012

System: heptane; phases: Liquid
Fixed: Pressure, kPa = 101.325
Property: Refractive index (Na D-line) (Liquid); method: Standard Abbe refractometry
Temperature, K	Refractive index (Na D-line)	uncertainty
283.15	1.392903	0.000369
288.15	1.390333	0.000369
293.15	1.387783	0.000369
298.15	1.385204	0.000369
303.15	1.382613	0.000369
308.15	1.380006	0.000369
313.15	1.37735	0.000369

System: heptane; phases: Liquid
Fixed: Pressure, kPa = 101.325
Property: Speed of sound, m/s (Liquid); method: Linear variable-path acoustic interferometer
Temperature, K	Speed of sound, m/s	uncertainty
283.15	1195.8	2.5
288.15	1174.2	2.5
293.15	1152.7	2.5
298.15	1131.1	2.5
303.15	1109.7	2.5
308.15	1088.4	2.5
313.15	1067.2	2.5

System: heptane; phases: Liquid
Fixed: Pressure, kPa = 101.325
Property: Mass density, kg/m3 (Liquid); method: Vibrating tube method
Temperature, K	Mass density, kg/m3	uncertainty
283.15	692.42	0.25
288.15	688.28	0.25
293.15	684.06	0.25
298.15	679.78	0.25
303.15	675.56	0.25
308.15	671.27	0.25
313.15	666.91	0.25

System: hexane + 1-chloropropane; phases: Liquid, Gas
Fixed: Temperature, K = 298.15
Property: Vapor or sublimation pressure, kPa (Liquid); method: Ebulliometric method (Recirculating still)
Mole fraction of hexane	Vapor or sublimation pressure, kPa	uncertainty
0.0705	44.555	0.234
0.1205	44	0.231
0.1791	42.985	0.227
0.2658	41.455	0.22
0.3496	40.075	0.214
0.4421	38.24	0.206
0.497	37.015	0.2
0.5492	35.375	0.193
0.6456	33.39	0.184
0.7223	31	0.174
0.7902	29.07	0.165
0.8481	27.065	0.157
0.9353	23.49	0.141

System: hexane + 1-chloropropane; phases: Liquid
Fixed: Pressure, kPa = 101
Property: Refractive index (Na D-line) (Liquid); method: Standard Abbe refractometry
Temperature, K	Mole fraction of hexane	Refractive index (Na D-line)	uncertainty
283.15	0.0516	1.393044	0.000369
283.15	0.1008	1.39187	0.000369
283.15	0.1992	1.389721	0.000369
283.15	0.2976	1.387829	0.000369
283.15	0.3852	1.386371	0.000369
283.15	0.4999	1.384737	0.000369
283.15	0.5996	1.383537	0.000369
283.15	0.7017	1.382511	0.000369
283.15	0.7929	1.381739	0.000369
283.15	0.9005	1.381003	0.000369
283.15	0.9504	1.380742	0.000369
288.15	0.0516	1.390143	0.000369
288.15	0.1008	1.388979	0.000369
288.15	0.1992	1.386846	0.000369
288.15	0.2976	1.384991	0.000369
288.15	0.3852	1.383542	0.000369
288.15	0.4999	1.381908	0.000369
288.15	0.5996	1.38073	0.000369
288.15	0.7017	1.379732	0.000369
288.15	0.7929	1.378982	0.000369
288.15	0.9005	1.378281	0.000369
288.15	0.9504	1.378025	0.000369
293.15	0.0516	1.387205	0.000369
293.15	0.1008	1.386055	0.000369
293.15	0.1992	1.383945	0.000369
293.15	0.2976	1.382095	0.000369
293.15	0.3852	1.380664	0.000369
293.15	0.4999	1.379063	0.000369
293.15	0.5996	1.377893	0.000369
293.15	0.7017	1.376904	0.000369
293.15	0.7929	1.376178	0.000369
293.15	0.9005	1.375502	0.000369
293.15	0.9504	1.375271	0.000369
298.15	0.0516	1.384254	0.000369
298.15	0.1008	1.383111	0.000369
298.15	0.1992	1.381025	0.000369
298.15	0.2976	1.379197	0.000369
298.15	0.3852	1.377769	0.000369
298.15	0.4999	1.376196	0.000369
298.15	0.5996	1.375034	0.000369
298.15	0.7017	1.37409	0.000369
298.15	0.7929	1.373369	0.000369
298.15	0.9005	1.372739	0.000369
298.15	0.9504	1.372523	0.000369
303.15	0.0516	1.381274	0.000369
303.15	0.1008	1.380138	0.000369
303.15	0.1992	1.378067	0.000369
303.15	0.2976	1.376233	0.000369
303.15	0.3852	1.374825	0.000369
303.15	0.4999	1.373253	0.000369
303.15	0.5996	1.372144	0.000369
303.15	0.7017	1.37121	0.000369
303.15	0.7929	1.370515	0.000369
303.15	0.9005	1.369931	0.000369
303.15	0.9504	1.369716	0.000369
308.15	0.0516	1.378277	0.000369
308.15	0.1008	1.377152	0.000369
308.15	0.1992	1.375094	0.000369
308.15	0.2976	1.373265	0.000369
308.15	0.3852	1.371858	0.000369
308.15	0.4999	1.370306	0.000369
308.15	0.5996	1.369208	0.000369
308.15	0.7017	1.36829	0.000369
308.15	0.7929	1.367653	0.000369
308.15	0.9005	1.367105	0.000369
308.15	0.9504	1.366903	0.000369
313.15	0.0516	1.375241	0.000369
313.15	0.1008	1.374118	0.000369
313.15	0.1992	1.372101	0.000369
313.15	0.2976	1.370455	0.000369
313.15	0.3852	1.36875	0.000369
313.15	0.4999	1.367276	0.000369
313.15	0.5996	1.366219	0.000369
313.15	0.7017	1.365339	0.000369
313.15	0.7929	1.36475	0.000369
313.15	0.9005	1.364242	0.000369
313.15	0.9504	1.364063	0.000369

System: hexane + 1-chloropropane; phases: Liquid
Fixed: Pressure, kPa = 101
Property: Speed of sound, m/s (Liquid); method: Linear variable-path acoustic interferometer
Temperature, K	Mole fraction of hexane	Speed of sound, m/s	uncertainty
283.15	0.0516	1127.7	2.5
283.15	0.1008	1125.9	2.5
283.15	0.1992	1122.9	2.5
283.15	0.2976	1121.7	2.5
283.15	0.3852	1121.6	2.5
283.15	0.4999	1122.8	2.5
283.15	0.5996	1125.1	2.5
283.15	0.7017	1128.3	2.5
283.15	0.7929	1132	2.5
283.15	0.9005	1137.6	2.5
283.15	0.9504	1140.6	2.5
288.15	0.0516	1106.4	2.5
288.15	0.1008	1104.4	2.5
288.15	0.1992	1101.2	2.5
288.15	0.2976	1099.9	2.5
288.15	0.3852	1099.6	2.5
288.15	0.4999	1100.9	2.5
288.15	0.5996	1103	3
288.15	0.7017	1106.2	2.5
288.15	0.7929	1109.8	2.5
288.15	0.9005	1115.3	2.5
288.15	0.9504	1118.3	2.5
293.15	0.0516	1084.5	2.5
293.15	0.1008	1082.5	2.5
293.15	0.1992	1079.2	2.5
293.15	0.2976	1077.8	2.5
293.15	0.3852	1077.5	2.5
293.15	0.4999	1078.7	2.5
293.15	0.5996	1080.7	2.5
293.15	0.7017	1083.8	2.5
293.15	0.7929	1087.6	2.5
293.15	0.9005	1093	2.5
293.15	0.9504	1095.9	2.5
298.15	0.0516	1062.4	2.5
298.15	0.1008	1060.3	2.5
298.15	0.1992	1057	2.5
298.15	0.2976	1055.5	2.5
298.15	0.3852	1055.1	2.5
298.15	0.4999	1056.3	2.5
298.15	0.5996	1058.2	2.5
298.15	0.7017	1061.2	2.5
298.15	0.7929	1064.8	2.5
298.15	0.9005	1070.2	2.5
298.15	0.9504	1073.1	2.5
303.15	0.0516	1040.9	2.5
303.15	0.1008	1038.6	2.5
303.15	0.1992	1035.2	2.5
303.15	0.2976	1033.5	2.5
303.15	0.3852	1033	2.5
303.15	0.4999	1034.1	2.5
303.15	0.5996	1036	2.5
303.15	0.7017	1039.1	2.5
303.15	0.7929	1042.6	2.5
303.15	0.9005	1047.9	2.5
303.15	0.9504	1050.7	2.5
308.15	0.0516	1019.2	2.5
308.15	0.1008	1016.7	2.5
308.15	0.1992	1013.3	2.5
308.15	0.2976	1011.7	2.5
308.15	0.3852	1011.2	2.5
308.15	0.4999	1012.1	2.5
308.15	0.5996	1014	2.5
308.15	0.7017	1016.9	2.5
308.15	0.7929	1020.5	2.5
308.15	0.9005	1025.5	2.5
308.15	0.9504	1028.4	2.5
313.15	0.0516	997.2	2.5
313.15	0.1008	994.8	2.5
313.15	0.1992	991.5	2.5
313.15	0.2976	989.7	2.5
313.15	0.3852	989.3	2.5
313.15	0.4999	990.1	2.5
313.15	0.5996	992	2.5
313.15	0.7017	994.9	2.5
313.15	0.7929	998.4	2.5
313.15	0.9005	1003.7	2.5
313.15	0.9504	1006.4	2.5

System: hexane + 1-chloropropane; phases: Liquid
Fixed: Pressure, kPa = 101
Property: Mass density, kg/m3 (Liquid); method: Vibrating tube method
Temperature, K	Mole fraction of hexane	Mass density, kg/m3	uncertainty
283.15	0.0516	884.79	0.24
283.15	0.1008	868.63	0.24
283.15	0.1992	838.29	0.24
283.15	0.2976	810.48	0.24
283.15	0.3852	787.75	0.24
283.15	0.4999	760.62	0.24
283.15	0.5996	739.12	0.25
283.15	0.7017	718.9	0.25
283.15	0.7929	702.22	0.25
283.15	0.9005	684.04	0.25
283.15	0.9504	676.12	0.25
288.15	0.0516	878.37	0.24
288.15	0.1008	862.33	0.24
288.15	0.1992	832.23	0.24
288.15	0.2976	804.73	0.24
288.15	0.3852	782.15	0.24
288.15	0.4999	755.29	0.24
288.15	0.5996	734	0.25
288.15	0.7017	713.96	0.25
288.15	0.7929	697.43	0.25
288.15	0.9005	679.39	0.25
288.15	0.9504	671.54	0.25
293.15	0.0516	872.24	0.24
293.15	0.1008	856.3	0.24
293.15	0.1992	826.43	0.24
293.15	0.2976	799.11	0.24
293.15	0.3852	776.76	0.24
293.15	0.4999	750.09	0.25
293.15	0.5996	728.96	0.25
293.15	0.7017	709.06	0.25
293.15	0.7929	692.68	0.25
293.15	0.9005	674.8	0.25
293.15	0.9504	667	0.25
298.15	0.0516	865.98	0.24
298.15	0.1008	850.13	0.24
298.15	0.1992	820.47	0.24
298.15	0.2976	793.42	0.24
298.15	0.3852	771.26	0.24
298.15	0.4999	744.73	0.25
298.15	0.5996	723.8	0.3
298.15	0.7017	704.08	0.25
298.15	0.7929	687.82	0.25
298.15	0.9005	670.08	0.25
298.15	0.9504	662.34	0.25
303.15	0.0516	859.75	0.24
303.15	0.1008	844.01	0.24
303.15	0.1992	814.62	0.24
303.15	0.2976	787.75	0.24
303.15	0.3852	765.76	0.24
303.15	0.4999	739.45	0.25
303.15	0.5996	718.66	0.25
303.15	0.7017	699.15	0.25
303.15	0.7929	683.04	0.25
303.15	0.9005	665.45	0.25
303.15	0.9504	657.78	0.25
308.15	0.0516	853.37	0.24
308.15	0.1008	837.77	0.24
308.15	0.1992	808.59	0.24
308.15	0.2976	781.96	0.24
308.15	0.3852	760.14	0.24
308.15	0.4999	734.06	0.25
308.15	0.5996	713.46	0.25
308.15	0.7017	694.09	0.25
308.15	0.7929	678.11	0.25
308.15	0.9005	660.68	0.25
308.15	0.9504	653.06	0.25
313.15	0.0516	847.65	0.24
313.15	0.1008	832.1	0.24
313.15	0.1992	803.1	0.24
313.15	0.2976	776.65	0.24
313.15	0.3852	754.99	0.24
313.15	0.4999	729.12	0.25
313.15	0.5996	708.62	0.25
313.15	0.7017	689.41	0.25
313.15	0.7929	673.58	0.25
313.15	0.9005	656.23	0.25
313.15	0.9504	648.68	0.25

System: hexane + 1-chloropropane; phases: Gas, Liquid
Fixed: Temperature, K = 298.15
Property: Mole fraction of hexane (Gas); method: Density calibration data
Mole fraction of hexane	Mole fraction of hexane	uncertainty
0.0705	0.0422	0.0003
0.1205	0.0783	0.0003
0.1791	0.1104	0.0003
0.2658	0.1657	0.0005
0.3496	0.2108	0.0007
0.4421	0.2695	0.0012
0.497	0.307	0.0015
0.5492	0.352	0.0019
0.6456	0.4233	0.0028
0.7223	0.4932	0.0038
0.7902	0.5593	0.0039
0.8481	0.6536	0.0036
0.9353	0.7943	0.0026

System: heptane + 1-chloropropane; phases: Liquid, Gas
Fixed: Temperature, K = 298.15
Property: Vapor or sublimation pressure, kPa (Liquid); method: Ebulliometric method (Recirculating still)
Mole fraction of heptane	Vapor or sublimation pressure, kPa	uncertainty
0.0551	43.7	0.23
0.0939	42.56	0.225
0.156	40.3	0.215
0.2305	37.825	0.204
0.3323	34.47	0.189
0.3804	33.01	0.183
0.4884	29.39	0.167
0.6183	25.155	0.148
0.7032	21.61	0.133
0.7905	17.4	0.114
0.8658	14.46	0.102
0.9087	11.845	0.093
0.919	11.13	0.09

System: heptane + 1-chloropropane; phases: Liquid
Fixed: Pressure, kPa = 101
Property: Refractive index (Na D-line) (Liquid); method: Standard Abbe refractometry
Temperature, K	Mole fraction of heptane	Refractive index (Na D-line)	uncertainty
283.15	0.0503	1.393669	0.000369
283.15	0.0996	1.39319	0.000369
283.15	0.2059	1.392527	0.000369
283.15	0.3001	1.392237	0.000369
283.15	0.3981	1.392088	0.000369
283.15	0.4981	1.392133	0.000369
283.15	0.5991	1.392208	0.000369
283.15	0.7001	1.392322	0.000369
283.15	0.797	1.392489	0.000369
283.15	0.9016	1.392701	0.000369
283.15	0.9507	1.392798	0.000369
288.15	0.0503	1.390758	0.000369
288.15	0.0996	1.390289	0.000369
288.15	0.2059	1.38965	0.000369
288.15	0.3001	1.389405	0.000369
288.15	0.3981	1.389293	0.000369
288.15	0.4981	1.389364	0.000369
288.15	0.5991	1.389475	0.000369
288.15	0.7001	1.389632	0.000369
288.15	0.797	1.389841	0.000369
288.15	0.9016	1.390096	0.000369
288.15	0.9507	1.390205	0.000369
293.15	0.0503	1.387833	0.000369
293.15	0.0996	1.387371	0.000369
293.15	0.2059	1.386791	0.000369
293.15	0.3001	1.386562	0.000369
293.15	0.3981	1.386511	0.000369
293.15	0.4981	1.386606	0.000369
293.15	0.5991	1.386766	0.000369
293.15	0.7001	1.386972	0.000369
293.15	0.797	1.387211	0.000369
293.15	0.9016	1.387495	0.000369
293.15	0.9507	1.387638	0.000369
298.15	0.0503	1.384877	0.000369
298.15	0.0996	1.384425	0.000369
298.15	0.2059	1.383883	0.000369
298.15	0.3001	1.383694	0.000369
298.15	0.3981	1.383678	0.000369
298.15	0.4981	1.383816	0.000369
298.15	0.5991	1.384025	0.000369
298.15	0.7001	1.384265	0.000369
298.15	0.797	1.384544	0.000369
298.15	0.9016	1.384881	0.000369
298.15	0.9507	1.385041	0.000369
303.15	0.0503	1.3819	0.000369
303.15	0.0996	1.381461	0.000369
303.15	0.2059	1.380953	0.000369
303.15	0.3001	1.380792	0.000369
303.15	0.3981	1.380825	0.000369
303.15	0.4981	1.381002	0.000369
303.15	0.5991	1.381255	0.000369
303.15	0.7001	1.381552	0.000369
303.15	0.797	1.381868	0.000369
303.15	0.9016	1.382254	0.000369
303.15	0.9507	1.382428	0.000369
308.15	0.0503	1.378904	0.000369
308.15	0.0996	1.378483	0.000369
308.15	0.2059	1.378016	0.000369
308.15	0.3001	1.377896	0.000369
308.15	0.3981	1.377952	0.000369
308.15	0.4981	1.378175	0.000369
308.15	0.5991	1.378476	0.000369
308.15	0.7001	1.378811	0.000369
308.15	0.797	1.379179	0.000369
308.15	0.9016	1.37961	0.000369
308.15	0.9507	1.379798	0.000369
313.15	0.0503	1.375872	0.000369
313.15	0.0996	1.375465	0.000369
313.15	0.2059	1.375042	0.000369
313.15	0.3001	1.374956	0.000369
313.15	0.3981	1.375037	0.000369
313.15	0.4981	1.375292	0.000369
313.15	0.5991	1.375647	0.000369
313.15	0.7001	1.376022	0.000369
313.15	0.797	1.376446	0.000369
313.15	0.9016	1.376916	0.000369
313.15	0.9507	1.377126	0.000369

System: heptane + 1-chloropropane; phases: Liquid
Fixed: Pressure, kPa = 101
Property: Speed of sound, m/s (Liquid); method: Linear variable-path acoustic interferometer
Temperature, K	Mole fraction of heptane	Speed of sound, m/s	uncertainty
283.15	0.0503	1132.4	2.5
283.15	0.0996	1133.8	2.5
283.15	0.2059	1137.6	2.5
283.15	0.3001	1141.7	2.5
283.15	0.3981	1147.3	2.5
283.15	0.4981	1154	2.5
283.15	0.5991	1161.5	2.5
283.15	0.7001	1169.4	2.5
283.15	0.797	1177.5	2.5
283.15	0.9016	1186.6	2.5
283.15	0.9507	1191.1	2.5
288.15	0.0503	1111.1	2.5
288.15	0.0996	1112.3	2.5
288.15	0.2059	1116	2.5
288.15	0.3001	1120.3	2.5
288.15	0.3981	1125.8	2.5
288.15	0.4981	1132.5	2.5
288.15	0.5991	1140	2.5
288.15	0.7001	1147.8	2.5
288.15	0.797	1155.9	2.5
288.15	0.9016	1164.9	2.5
288.15	0.9507	1169.4	2.5
293.15	0.0503	1089.3	2.5
293.15	0.0996	1090.6	2.5
293.15	0.2059	1094.3	2.5
293.15	0.3001	1098.6	2.5
293.15	0.3981	1104.1	2.5
293.15	0.4981	1110.9	2.5
293.15	0.5991	1118.4	2.5
293.15	0.7001	1126.1	2.5
293.15	0.797	1134.3	2.5
293.15	0.9016	1143.3	2.5
293.15	0.9507	1147.9	2.5
298.15	0.0503	1067.2	2.5
298.15	0.0996	1068.6	2.5
298.15	0.2059	1072.3	2.5
298.15	0.3001	1076.7	2.5
298.15	0.3981	1082.2	2.5
298.15	0.4981	1089.1	2.5
298.15	0.5991	1096.7	2.5
298.15	0.7001	1104.4	2.5
298.15	0.797	1112.6	2.5
298.15	0.9016	1121.7	2.5
298.15	0.9507	1126.3	2.5
303.15	0.0503	1045.6	2.5
303.15	0.0996	1046.8	2.5
303.15	0.2059	1050.6	2.5
303.15	0.3001	1055.1	2.5
303.15	0.3981	1060.6	2.5
303.15	0.4981	1067.3	2.5
303.15	0.5991	1075.1	2.5
303.15	0.7001	1082.9	2.5
303.15	0.797	1091.2	2.5
303.15	0.9016	1100.3	2.5
303.15	0.9507	1104.9	2.5
308.15	0.0503	1023.8	2.5
308.15	0.0996	1025.1	2.5
308.15	0.2059	1028.9	2.5
308.15	0.3001	1033.5	2.5
308.15	0.3981	1039	2.5
308.15	0.4981	1045.8	2.5
308.15	0.5991	1053.7	2.5
308.15	0.7001	1061.5	2.5
308.15	0.797	1069.8	2.5
308.15	0.9016	1078.9	2.5
308.15	0.9507	1083.5	2.5
313.15	0.0503	1001.8	2.5
313.15	0.0996	1003.1	2.5
313.15	0.2059	1006.9	2.5
313.15	0.3001	1011.7	2.5
313.15	0.3981	1017.3	2.5
313.15	0.4981	1024.2	2.5
313.15	0.5991	1032	2.5
313.15	0.7001	1040	2.5
313.15	0.797	1048.5	2.5
313.15	0.9016	1057.7	2.5
313.15	0.9507	1062.3	2.5

System: heptane + 1-chloropropane; phases: Liquid
Fixed: Pressure, kPa = 101
Property: Mass density, kg/m3 (Liquid); method: Vibrating tube method
Temperature, K	Mole fraction of heptane	Mass density, kg/m3	uncertainty
283.15	0.0503	883.9	0.24
283.15	0.0996	867.37	0.24
283.15	0.2059	835.81	0.24
283.15	0.3001	811.43	0.24
283.15	0.3981	788.91	0.24
283.15	0.4981	768.34	0.24
283.15	0.5991	749.74	0.24
283.15	0.7001	732.94	0.24
283.15	0.797	718.43	0.25
283.15	0.9016	704.31	0.25
283.15	0.9507	698.23	0.25
288.15	0.0503	877.55	0.24
288.15	0.0996	861.19	0.24
288.15	0.2059	830.01	0.24
288.15	0.3001	805.91	0.24
288.15	0.3981	783.6	0.24
288.15	0.4981	763.28	0.24
288.15	0.5991	744.85	0.24
288.15	0.7001	728.27	0.24
288.15	0.797	713.99	0.25
288.15	0.9016	700.02	0.25
288.15	0.9507	694.03	0.25
293.15	0.0503	871.55	0.24
293.15	0.0996	855.26	0.24
293.15	0.2059	824.34	0.24
293.15	0.3001	800.5	0.24
293.15	0.3981	778.41	0.24
293.15	0.4981	758.27	0.24
293.15	0.5991	740.04	0.24
293.15	0.7001	723.68	0.25
293.15	0.797	709.53	0.25
293.15	0.9016	695.71	0.25
293.15	0.9507	689.74	0.25
298.15	0.0503	865.33	0.24
298.15	0.0996	849.2	0.24
298.15	0.2059	818.58	0.24
298.15	0.3001	794.99	0.24
298.15	0.3981	773.11	0.24
298.15	0.4981	753.18	0.24
298.15	0.5991	735.16	0.24
298.15	0.7001	718.97	0.25
298.15	0.797	704.98	0.25
298.15	0.9016	691.32	0.25
298.15	0.9507	685.41	0.25
303.15	0.0503	859.16	0.24
303.15	0.0996	843.2	0.24
303.15	0.2059	812.9	0.24
303.15	0.3001	789.52	0.24
303.15	0.3981	767.84	0.24
303.15	0.4981	748.14	0.24
303.15	0.5991	730.29	0.25
303.15	0.7001	714.27	0.25
303.15	0.797	700.48	0.25
303.15	0.9016	686.98	0.25
303.15	0.9507	681.14	0.25
308.15	0.0503	852.81	0.24
308.15	0.0996	837.09	0.24
308.15	0.2059	807.04	0.24
308.15	0.3001	783.95	0.24
308.15	0.3981	762.49	0.24
308.15	0.4981	743	0.24
308.15	0.5991	725.35	0.25
308.15	0.7001	709.52	0.25
308.15	0.797	695.85	0.25
308.15	0.9016	682.56	0.25
308.15	0.9507	676.78	0.25
313.15	0.0503	847.07	0.24
313.15	0.0996	831.49	0.24
313.15	0.2059	801.57	0.24
313.15	0.3001	778.62	0.24
313.15	0.3981	757.4	0.24
313.15	0.4981	738.04	0.24
313.15	0.5991	720.52	0.25
313.15	0.7001	704.85	0.25
313.15	0.797	691.25	0.25
313.15	0.9016	678.05	0.25
313.15	0.9507	672.37	0.25

System: heptane + 1-chloropropane; phases: Gas, Liquid
Fixed: Temperature, K = 298.15
Property: Mole fraction of heptane (Gas); method: Density calibration data
Mole fraction of heptane	Mole fraction of heptane	uncertainty
0.0551	0.0096	0.0001
0.0939	0.0187	0.0001
0.156	0.0319	0.0001
0.2305	0.05	0.0001
0.3323	0.0732	0.0002
0.3804	0.0936	0.0002
0.4884	0.12	0.0003
0.6183	0.1737	0.0005
0.7032	0.2089	0.0007
0.7905	0.2687	0.0012
0.8658	0.3955	0.0025
0.9087	0.4641	0.0041
0.919	0.5235	0.0045
