Measured thermophysical data. Experimental study of relaxation dynamics in solid solutions of benzene, hexa-substituted benzenes. I
Source: Thermochim. Acta, 2017, 10.1016/j.tca.2017.09.024
Compound 1: benzene, C6H6, InChI=1S/C6H6/c1-2-4-6-5-3-1/h1-6H
Compound 2: fluorobenzene, C6H5F, InChI=1S/C6H5F/c7-6-4-2-1-3-5-6/h1-5H

System: benzene; phases: Crystal, Liquid, Air at 1 atmosphere
Property: Normal melting temperature, K (Crystal); method: DTA
Normal melting temperature, K	uncertainty
278.7	2

System: fluorobenzene; phases: Crystal, Liquid, Air at 1 atmosphere
Property: Normal melting temperature, K (Crystal); method: DTA
Normal melting temperature, K	uncertainty
231.2	2

System: benzene + fluorobenzene; phases: Crystal, Crystal, Liquid, Air at 1 atmosphere
Property: Eutectic temperature, K (Crystal); method: DTA
Eutectic temperature, K	uncertainty
221.4	2

System: benzene + fluorobenzene; phases: Liquid, Crystal
Fixed: Pressure, kPa = 100
Property: Solid-liquid equilibrium temperature, K (Liquid); method: DTA
Mole fraction of fluorobenzene	Solid-liquid equilibrium temperature, K	uncertainty
0	278.7	2
0.016	279	2
0.025	277.5	2
0.041	278.7	2
0.2	264.9	2
0.4	247.2	2
0.5	239.3	2
0.6	228.9	2
0.66	221.2	2

System: benzene + fluorobenzene; phases: Liquid, Crystal
Fixed: Pressure, kPa = 100
Property: Solid-liquid equilibrium temperature, K (Liquid); method: DTA
Mole fraction of fluorobenzene	Solid-liquid equilibrium temperature, K	uncertainty
0.7	222.8	2
0.75	223.9	2
0.822	226.4	2
0.88	226.3	2
0.939	227.8	2
1	231.2	2

System: benzene + fluorobenzene; phases: Crystal, Liquid
Fixed: Pressure, kPa = 100
Property: Solid-liquid equilibrium temperature, K (Crystal); method: DTA
Mole fraction of fluorobenzene	Solid-liquid equilibrium temperature, K	uncertainty
0.7	221	2
0.75	221.6	2
0.822	222.7	2
0.88	223.9	2
0.939	225.5	2
1	231.2	2
