Measured thermophysical data. Low temperature heat capacities and standard molar enthalpy of formation of sodium benzoate C6H5COONa (s)
Source: Thermochim. Acta, 2009, 10.1016/j.tca.2008.12.029
Compound 1: sodium, Na, InChI=1S/Na
Compound 2: graphite, C
Compound 3: hydrogen, H2, InChI=1S/H2/h1H
Compound 4: oxygen, O2, InChI=1S/O2/c1-2
Compound 5: acetic acid, C2H4O2, InChI=1S/C2H4O2/c1-2(3)4/h1H3,(H,3,4)
Compound 6: benzoic acid, C7H6O2, InChI=1S/C7H6O2/c8-7(9)6-4-2-1-3-5-6/h1-5H,(H,8,9)
Compound 7: sodium ethanoate, C2H3NaO2, InChI=1S/C2H4O2.Na/c1-2(3)4;/h1H3,(H,3,4);/q;+1/p-1
Compound 8: sodium benzoate, C7H5NaO2, InChI=1S/C7H6O2.Na/c8-7(9)6-4-2-1-3-5-6;/h1-5H,(H,8,9);/q;+1/p-1, purity 99.1%

System: sodium benzoate; phases: Crystal
Fixed: Pressure, kPa = 101.325
Property: Molar heat capacity at constant pressure, J/K/mol (Crystal); method: Vacuum adiabatic calorimetry
Temperature, K	Molar heat capacity at constant pressure, J/K/mol	uncertainty
78.858	74.655	0.468
80.427	75.059	0.47
82.622	76.575	0.48
84.789	77.939	0.488
87.064	79.001	0.494
89.076	80.343	0.503
91.156	81.603	0.529
93.237	82.942	0.536
95.317	83.729	0.541
97.259	84.832	0.548
99.201	86.092	0.555
101.14	87.273	0.562
103.01	88.198	0.567
104.89	89.107	0.572
106.3	89.815	0.577
107.72	90.522	0.581
109.44	91.634	0.587
111.32	92.544	0.593
113.05	93.554	0.599
114.93	94.666	0.605
116.5	95.373	0.609
118.38	95.98	0.613
120.05	97.426	0.621
122.61	98.899	0.63
126.31	100.57	0.64
129.87	102.54	0.65
133.42	104.11	0.66
137.05	105.58	0.67
140.25	107.64	0.68
143.52	109.31	0.69
146.93	111.38	0.7
150.2	112.85	0.71
153.61	114.42	0.72
156.74	115.8	0.73
159.94	117.1	0.74
163.08	118.62	0.75
166.41	120.71	0.76
169.54	122.29	0.77
172.67	124.15	0.78
175.8	125.53	0.79
178.78	127.2	0.8
182.05	128.48	0.81
186.18	130.74	0.82
190.73	133.09	0.83
194.71	134.96	0.84
198.69	136.73	0.85
202.67	138.89	0.87
206.65	140.95	0.88
210.78	143.02	0.89
214.62	144.69	0.9
218.6	147.24	0.92
222.72	148.91	0.93
226.56	150.78	0.94
230.54	152.55	0.95
234.67	154.3	0.96
238.65	156.48	0.97
242.63	158.35	0.98
247.75	160.9	1
252.79	162.99	1.01
256.71	164.6	1.02
260.69	166.7	1.03
264.71	168.34	1.04
268.8	170.63	1.06
272.92	172.89	1.07
276.9	174.76	1.08
280.74	176.43	1.09
284.72	178.39	1.1
288.7	179.87	1.11
292.69	181.54	1.12
295.1	182.91	1.13
298.37	184.58	1.14
301.36	185.56	1.15
304.35	186.94	1.15
307.33	188.32	1.16
310.32	189.49	1.17
313.3	190.87	1.18
316.29	191.75	1.18
319.28	192.93	1.19
322.12	194.21	1.2
325.11	195.49	1.21
327.81	196.77	1.21
329.51	197.36	1.22
332.93	198.63	1.22
335.35	199.91	1.23
338.05	200.79	1.24
340.89	202.17	1.25
343.88	202.96	1.25
346.72	204.33	1.26
349.42	205.02	1.26
352.27	206.2	1.27
355.25	207.28	1.28
358.1	208.56	1.28
360.85	209.38	1.29
363.79	210.82	1.3
366.63	212.19	1.31
369.62	213.57	1.31
372.46	214.53	1.32
375.3	215.93	1.33
378.15	217.2	1.34
380.99	218.09	1.34
383.98	219.66	1.35
386.68	220.45	1.36
389.52	221.82	1.36
392.37	223.2	1.37
395.21	224.18	1.38
397.91	225.75	1.39

Reaction: 1 sodium benzoate + -1 sodium + -7 graphite + -2.5 hydrogen + -1 oxygen
Property: Molar enthalpy of reaction, kJ/mol
-642.56

Reaction: 1 acetic acid + -1 benzoic acid + -1 sodium ethanoate + 1 sodium benzoate
Property: Molar enthalpy of reaction, kJ/mol
-30.39
