Measured thermophysical data. Di-Hydroxybenzenes: Catechol, Resorcinol, and Hydroquinone. Enthalpies of Phase Transitions Revisited
Source: Thermochim. Acta, 2008, 10.1016/j.tca.2008.02.016
Compound 1: 1,2-benzenediol, C6H6O2, InChI=1S/C6H6O2/c7-5-3-1-2-4-6(5)8/h1-4,7-8H, purity 99%
Compound 2: 1,3-benzenediol, C6H6O2, InChI=1S/C6H6O2/c7-5-2-1-3-6(8)4-5/h1-4,7-8H, purity 99%
Compound 3: 1,4-benzenediol, C6H6O2, InChI=1S/C6H6O2/c7-5-1-2-6(8)4-3-5/h1-4,7-8H, purity 99%

System: 1,2-benzenediol; phases: Crystal, Liquid, Gas
Property: Molar enthalpy of transition or fusion, kJ/mol (Crystal); method: DSC
Molar enthalpy of transition or fusion, kJ/mol	uncertainty
22.87	0.52

System: 1,2-benzenediol; phases: Crystal, Liquid, Gas
Property: Triple point temperature, K (Crystal); method: DTA
Triple point temperature, K	uncertainty
377.6	0.6

System: 1,2-benzenediol; phases: Crystal, Gas
Property: Vapor or sublimation pressure, kPa (Crystal); method: Transpiration method
Temperature, K	Vapor or sublimation pressure, kPa	uncertainty
303.2	0.00053	3e-05
305.3	0.00065	4e-05
308	0.00095	5e-05
310	0.00109	6e-05
313.2	0.00172	0.0001
316.2	0.00241	0.00013
318.2	0.0029	0.00016
318.3	0.00293	0.00016
320.1	0.00365	0.0002
322.9	0.00472	0.00027
323.5	0.0051	0.00027
324.6	0.00545	0.0003
326	0.00652	0.00036
326.6	0.00697	0.00038
328.1	0.008	0.00041
328.1	0.00778	0.0004
328.6	0.00776	0.0004
331.3	0.01063	0.00057
332.3	0.01161	0.0006
332.8	0.01183	0.00065
334	0.01387	0.00078
334.1	0.01394	0.00078
335.3	0.01619	0.00085
336.8	0.01742	0.00093
337.2	0.01974	0.00152
337.3	0.0194	0.00125
340.2	0.02547	0.00127
340.3	0.02606	0.00133
340.8	0.02538	0.0013
343.2	0.03304	0.00173
343.3	0.03288	0.00172
344.7	0.03497	0.00193
346.2	0.04471	0.00238
346.3	0.04327	0.00232
348.7	0.05205	0.00302
349.2	0.0559	0.00332
349.5	0.05937	0.00376
352.6	0.07687	0.00409
352.7	0.07278	0.00389
355.6	0.102	0.0054
356.8	0.107	0.0057
358.6	0.1302	0.0067
360.7	0.1376	0.0072
361.6	0.1662	0.0088
364.5	0.1998	0.0106
368.5	0.2882	0.0152
372.3	0.3835	0.0199
377	0.5075	0.0259

System: 1,2-benzenediol; phases: Liquid, Gas
Property: Vapor or sublimation pressure, kPa (Liquid); method: Transpiration method
Temperature, K	Vapor or sublimation pressure, kPa	uncertainty
378.2	0.6046	0.031
378.7	0.6212	0.0318
379.3	0.6415	0.0327
380.3	0.6737	0.0344
381.3	0.7109	0.0366
382.2	0.7562	0.039
383.3	0.8074	0.041
384.3	0.8314	0.0425
385.3	0.897	0.0462
386.3	0.9427	0.0481
387.3	0.9905	0.0505
389.2	1.0856	0.0552

System: 1,3-benzenediol; phases: Crystal 2, Gas
Property: Vapor or sublimation pressure, kPa (Crystal 2); method: Transpiration method
Temperature, K	Vapor or sublimation pressure, kPa	uncertainty
323.1	0.0004	2.2e-05
326.1	0.000548	3.6e-05
326.7	0.000617	3.9e-05
329.1	0.000774	4.2e-05
330.1	0.000881	4.8e-05
331.2	0.000966	5.2e-05
332.1	0.00106	6e-05
333.3	0.00124	7e-05
334.2	0.00134	7e-05
335.2	0.00147	8e-05
337.1	0.00186	0.0001
339.3	0.00223	0.00012
340.3	0.00254	0.00014
341.2	0.00272	0.00015
341.3	0.00271	0.00015
343.3	0.0034	0.00018
343.5	0.00341	0.00018
344.3	0.00354	0.0002
344.4	0.00367	0.0002
346.2	0.00458	0.00025
346.4	0.00468	0.00025
348.3	0.00553	0.00029
348.4	0.00556	0.00029
349.3	0.00569	0.0003
350.2	0.00649	0.00036
350.3	0.00643	0.00036
351.3	0.00732	0.00039
352.2	0.007731	0.000411
353.3	0.00871	0.00048
354.3	0.00984	0.00052
355.2	0.01038	0.00054
356.3	0.01141	0.0006
357.4	0.01258	0.00067
358.2	0.01362	0.00072
358.6	0.01404	0.00075
360.2	0.0161	0.00084
360.4	0.01607	0.00084
361.3	0.01741	0.00095
364.3	0.0233	0.00123

System: 1,4-benzenediol; phases: Crystal, Liquid, Gas
Property: Molar enthalpy of transition or fusion, kJ/mol (Crystal); method: DSC
Molar enthalpy of transition or fusion, kJ/mol	uncertainty
27.23	0.6

System: 1,4-benzenediol; phases: Crystal, Liquid, Gas
Property: Triple point temperature, K (Crystal); method: DTA
Triple point temperature, K	uncertainty
445.1	0.6

System: 1,4-benzenediol; phases: Crystal, Gas
Property: Vapor or sublimation pressure, kPa (Crystal); method: Transpiration method
Temperature, K	Vapor or sublimation pressure, kPa	uncertainty
318.4	3.5e-05	2e-06
323.2	6.2e-05	4e-06
327.3	0.000103	6e-06
328.2	0.000116	6e-06
331.1	0.000153	8e-06
333.2	0.000191	1.1e-05
333.3	0.000202	1.2e-05
336.2	0.000293	1.6e-05
338.2	0.000326	1.8e-05
338.2	0.000344	1.8e-05
340.4	0.000425	2.3e-05
343.2	0.000569	4.2e-05
343.3	0.000575	5.1e-05
343.5	0.000616	4.8e-05
343.8	0.00068	5.5e-05
346.3	0.000774	4e-05
347.2	0.000856	5.1e-05
347.7	0.000971	5.2e-05
348.5	0.000989	5.1e-05
349.5	0.00107	5.9e-05
350.2	0.00121	8e-05
351.1	0.00142	8e-05
351.6	0.00145	7e-05
352.5	0.001518	7.9e-05
353.3	0.00163	9e-05
353.3	0.001702	9.5e-05
353.7	0.00176	0.00011
354.6	0.00206	0.00011
355.5	0.002119	0.000106
356.2	0.00212	0.00011
357.6	0.00252	0.00014
358.5	0.002848	0.000153
358.6	0.00305	0.000164
359.3	0.00299	0.00015
359.5	0.00318	0.00017
362.2	0.00415	0.00023
362.7	0.004414	0.00023
363.3	0.004504	0.00023
363.5	0.00466	0.00024
364.7	0.004846	0.000254
365.2	0.00538	0.0003
366.5	0.00604	0.00032
367.7	0.006734	0.000356
368.2	0.00701	0.00038
368.3	0.007308	0.000391
369.2	0.0078	0.00041
370.8	0.008768	0.000466
371.2	0.00845	0.00052
372.1	0.01053	0.00056
373.3	0.010501	0.000527
373.3	0.01147	0.00058
374.2	0.01099	0.00064
375.1	0.01346	0.00074
376.3	0.014263	0.00072
376.3	0.01449	0.00073
377.2	0.01448	0.00082
378	0.01751	0.00104
378.4	0.017624	0.000915
379.2	0.01892	0.00102
379.4	0.018591	0.001012
381.1	0.02287	0.0012
381.2	0.02306	0.00121
382.4	0.023837	0.001199
