Measured thermophysical data. Determination of the enthalpy of fusion of K3TaF8 and K3TaOF6
Source: Thermochim. Acta, 2006, 10.1016/j.tca.2006.04.006
Compound 1: tripotasium octafluorotantalate, F8K3Ta, InChI=1S/8FH.3K.Ta/h8*1H;;;;/q;;;;;;;;3*+1;+5/p-8
Compound 2: potassium hexafluorooxotantalate(3-), F6K3OTa, InChI=1S/6FH.3K.O.Ta/h6*1H;;;;;/q;;;;;;3*+1;;+3/p-6

System: tripotasium octafluorotantalate; phases: Crystal, Liquid, Air at 1 atmosphere
Property: Molar enthalpy of transition or fusion, kJ/mol (Crystal); method: DSC
Molar enthalpy of transition or fusion, kJ/mol	uncertainty
52	4

System: tripotasium octafluorotantalate; phases: Crystal, Liquid, Air at 1 atmosphere
Property: Normal melting temperature, K (Crystal); method: DTA:corrimp
Normal melting temperature, K	uncertainty
1039	2

System: potassium hexafluorooxotantalate(3-); phases: Crystal, Liquid, Air at 1 atmosphere
Property: Molar enthalpy of transition or fusion, kJ/mol (Crystal); method: DSC
Molar enthalpy of transition or fusion, kJ/mol	uncertainty
63	6

System: potassium hexafluorooxotantalate(3-); phases: Crystal, Liquid, Air at 1 atmosphere
Property: Normal melting temperature, K (Crystal); method: DTA:corrimp
Normal melting temperature, K	uncertainty
1055	3
