Measured thermophysical data. Thermochemistry of 1-bromoadamantane in binary mixtures of water aprotic solvent
Source: Thermochim. Acta, 2006, 10.1016/j.tca.2005.11.035
Compound 1: 1-bromotricyclo[3.3.1.1(3,7)]decane, C10H15Br, InChI=1S/C10H15Br/c11-10-4-7-1-8(5-10)3-9(2-7)6-10/h7-9H,1-6H2
Compound 2: water, H2O, InChI=1S/H2O/h1H2, purity 99.99%
Compound 3: dimethylformamide, C3H7NO, InChI=1S/C3H7NO/c1-4(2)3-5/h3H,1-2H3
Compound 4: N,N-dimethylethanamide, C4H9NO, InChI=1S/C4H9NO/c1-4(6)5(2)3/h1-3H3
Compound 5: acetone, C3H6O, InChI=1S/C3H6O/c1-3(2)4/h1-2H3
Compound 6: sodium hydroxide, HNaO, InChI=1S/Na.H2O/h;1H2/q+1;/p-1

System: sodium hydroxide + water; phases: Liquid
Property: Molar enthalpy of solution, kJ/mol (Liquid); method: Isothermal displacement
Molality, mol/kg of sodium hydroxide	Temperature, K	Pressure, kPa	Molar enthalpy of solution, kJ/mol	uncertainty
0.05	298.15	101	17.16	0.13

System: N,N-dimethylethanamide + 1-bromotricyclo[3.3.1.1(3,7)]decane + water; phases: Liquid
Fixed: Temperature, K = 298.15
Fixed: Pressure, kPa = 101
Fixed: Mole fraction of 1-bromotricyclo[3.3.1.1(3,7)]decane = 0
Property: Molar enthalpy of solution, kJ/mol (Liquid); method: Isothermal displacement
Mole fraction of N,N-dimethylethanamide	Molar enthalpy of solution, kJ/mol	uncertainty
0.54	23.66	0.21
0.65	22.23	0.18
0.75	20.43	0.21
0.8	19.82	0.41

System: dimethylformamide + 1-bromotricyclo[3.3.1.1(3,7)]decane + water; phases: Liquid
Fixed: Temperature, K = 298.15
Fixed: Pressure, kPa = 101
Fixed: Mole fraction of 1-bromotricyclo[3.3.1.1(3,7)]decane = 0
Property: Molar enthalpy of solution, kJ/mol (Liquid); method: Isothermal displacement
Mole fraction of dimethylformamide	Molar enthalpy of solution, kJ/mol	uncertainty
0.55	24.11	0.19
0.6	23.37	0.18
0.65	22.62	0.3
0.7	21.98	0.29

System: acetone + 1-bromotricyclo[3.3.1.1(3,7)]decane + water; phases: Liquid
Fixed: Temperature, K = 298.15
Fixed: Pressure, kPa = 101
Fixed: Mole fraction of 1-bromotricyclo[3.3.1.1(3,7)]decane = 0
Property: Molar enthalpy of solution, kJ/mol (Liquid); method: Isothermal displacement
Mole fraction of acetone	Molar enthalpy of solution, kJ/mol	uncertainty
0.46	24.26	0.23
0.55	22.53	0.17
0.65	21.52	0.19
0.7	20.91	0.17
