Measured thermophysical data. Enthalpy of formation of Li1+xMn2-xO4 (0 less than x less than 0.1) spinel phases
Source: Thermochim. Acta, 2015, 10.1016/j.tca.2014.11.003
Compound 1: lithium, Li, InChI=1S/Li
Compound 2: manganese, Mn, InChI=1S/Mn
Compound 3: oxygen, O2, InChI=1S/O2/c1-2
Compound 4: lithium manganese oxide (LiMn2O4), LiMn2O4, InChI=1S/Li.2Mn.4O/q+1;+3;+4;4*-2, purity 99.5%

Reaction: -1 lithium + -2 manganese + 1 lithium manganese oxide (LiMn2O4) + -2 oxygen
Property: Molar enthalpy of reaction, kJ/mol
-1381.65
