Measured thermophysical data. Six-membered ring aliphatic compounds: A search for regularities in phase transitions
Source: Thermochim. Acta, 2016, 10.1016/j.tca.2016.06.014
Compound 1: adamantane, C10H16, InChI=1S/C10H16/c1-7-2-9-4-8(1)5-10(3-7)6-9/h7-10H,1-6H2, purity 99%
Compound 2: 1-chlorotricyclo[3.3.1.1(3,7)]decane, C10H15Cl, InChI=1S/C10H15Cl/c11-10-4-7-1-8(5-10)3-9(2-7)6-10/h7-9H,1-6H2, purity 98%
Compound 3: 2-chlorotricyclo[3.3.1.1(3,7)]decane, C10H15Cl, InChI=1S/C10H15Cl/c11-10-8-2-6-1-7(4-8)5-9(10)3-6/h6-10H,1-5H2, purity 98%
Compound 4: 1-bromotricyclo[3.3.1.1(3,7)]decane, C10H15Br, InChI=1S/C10H15Br/c11-10-4-7-1-8(5-10)3-9(2-7)6-10/h7-9H,1-6H2, purity 99%
Compound 5: 2-bromoadamantane, C10H15Br, InChI=1S/C10H15Br/c11-10-8-2-6-1-7(4-8)5-9(10)3-6/h6-10H,1-5H2, purity 98%
Compound 6: cyclohexane, C6H12, InChI=1S/C6H12/c1-2-4-6-5-3-1/h1-6H2, purity 99%
Compound 7: bromocyclohexane, C6H11Br, InChI=1S/C6H11Br/c7-6-4-2-1-3-5-6/h6H,1-5H2, purity 99%

System: 1-chlorotricyclo[3.3.1.1(3,7)]decane; phases: Crystal, Liquid, Air at 1 atmosphere
Property: Molar enthalpy of transition or fusion, kJ/mol (Crystal); method: DSC
Molar enthalpy of transition or fusion, kJ/mol	uncertainty
5.2	1

System: 1-chlorotricyclo[3.3.1.1(3,7)]decane; phases: Crystal, Liquid, Air at 1 atmosphere
Property: Normal melting temperature, K (Crystal); method: DTA
Normal melting temperature, K	uncertainty
438.9	1.1

System: 1-chlorotricyclo[3.3.1.1(3,7)]decane; phases: Crystal, Gas
Property: Vapor or sublimation pressure, kPa (Crystal); method: Transpiration method
Temperature, K	Vapor or sublimation pressure, kPa	uncertainty
303.2	0.01766	0.00106
306.3	0.02255	0.00148
308.4	0.02653	0.00174
311.4	0.03389	0.0022
316.2	0.04719	0.00303
318.2	0.05598	0.00355
323.2	0.07923	0.00498
326.2	0.09623	0.00604
328.2	0.11	0.0069
333.2	0.1492	0.0094
298.5	0.01172	0.00075
301	0.01402	0.00097
303.4	0.01712	0.00105
308.3	0.02567	0.00157
313.3	0.0365	0.00229
318.2	0.05137	0.00331
323.3	0.0762	0.00476
328.2	0.1033	0.0064
330.7	0.1198	0.0075
333.4	0.1437	0.009

System: 2-chlorotricyclo[3.3.1.1(3,7)]decane; phases: Crystal, Liquid, Air at 1 atmosphere
Property: Molar enthalpy of transition or fusion, kJ/mol (Crystal); method: DSC
Molar enthalpy of transition or fusion, kJ/mol	uncertainty
6.3	1

System: 2-chlorotricyclo[3.3.1.1(3,7)]decane; phases: Crystal, Liquid, Air at 1 atmosphere
Property: Normal melting temperature, K (Crystal); method: DTA
Normal melting temperature, K	uncertainty
468.1	1.1

System: 2-chlorotricyclo[3.3.1.1(3,7)]decane; phases: Crystal, Gas
Property: Vapor or sublimation pressure, kPa (Crystal); method: Transpiration method
Temperature, K	Vapor or sublimation pressure, kPa	uncertainty
298.6	0.00623	0.00047
301.6	0.0076	0.00049
303.5	0.00901	0.00054
308.4	0.01307	0.00078
310.3	0.01568	0.001
313.3	0.0191	0.00123
313.5	0.01927	0.00124
313.5	0.01999	0.00125
313.5	0.01925	0.00124
315.3	0.0223	0.00147
318.2	0.02668	0.00174
323.5	0.03885	0.00249
328.2	0.05574	0.00352
333.2	0.07877	0.00496
335.7	0.08972	0.00553
338.2	0.10602	0.0067

System: 1-bromotricyclo[3.3.1.1(3,7)]decane; phases: Crystal 1, Liquid, Air at 1 atmosphere
Property: Molar enthalpy of transition or fusion, kJ/mol (Crystal 1); method: DSC
Molar enthalpy of transition or fusion, kJ/mol	uncertainty
4.8	1

System: 1-bromotricyclo[3.3.1.1(3,7)]decane; phases: Crystal 1, Liquid, Air at 1 atmosphere
Property: Triple point temperature, K (Crystal 1); method: DSC
Triple point temperature, K	uncertainty
390.9	1.2

System: 1-bromotricyclo[3.3.1.1(3,7)]decane; phases: Crystal 2, Crystal 1, Air at 1 atmosphere
Property: Molar enthalpy of transition or fusion, kJ/mol (Crystal 2); method: DSC
Molar enthalpy of transition or fusion, kJ/mol	uncertainty
7.4	1

System: 1-bromotricyclo[3.3.1.1(3,7)]decane; phases: Crystal 2, Crystal 1, Air at 1 atmosphere
Property: Triple point temperature, K (Crystal 2); method: DSC
Triple point temperature, K	uncertainty
311.6	1.2

System: 1-bromotricyclo[3.3.1.1(3,7)]decane; phases: Crystal 2, Gas
Property: Vapor or sublimation pressure, kPa (Crystal 2); method: Transpiration method
Temperature, K	Vapor or sublimation pressure, kPa	uncertainty
298.2	0.00419	0.00028
303.2	0.00677	0.00043

System: 1-bromotricyclo[3.3.1.1(3,7)]decane; phases: Crystal 1, Gas
Property: Vapor or sublimation pressure, kPa (Crystal 1); method: Transpiration method
Temperature, K	Vapor or sublimation pressure, kPa	uncertainty
313.2	0.0166	0.00107
323.2	0.03504	0.0022
317.3	0.02262	0.00144
320.2	0.02932	0.00186
325.7	0.04244	0.00268
328.2	0.04954	0.00312
333.1	0.06913	0.00433
337.1	0.08922	0.00557

System: 2-bromoadamantane; phases: Crystal, Liquid, Air at 1 atmosphere
Property: Molar enthalpy of transition or fusion, kJ/mol (Crystal); method: DSC
Molar enthalpy of transition or fusion, kJ/mol	uncertainty
4.2	1

System: 2-bromoadamantane; phases: Crystal, Liquid, Air at 1 atmosphere
Property: Normal melting temperature, K (Crystal); method: DTA
Normal melting temperature, K	uncertainty
414.7	1.1

System: 2-bromoadamantane; phases: Crystal, Gas
Property: Vapor or sublimation pressure, kPa (Crystal); method: Transpiration method
Temperature, K	Vapor or sublimation pressure, kPa	uncertainty
298.5	0.00329	0.00025
300.9	0.0039	0.00028
303.4	0.00475	0.00034
308.4	0.00703	0.00045
313.3	0.01089	0.0007
318.2	0.01506	0.00096
323.2	0.02279	0.00143
328.2	0.03107	0.00196
333.2	0.04422	0.0028
338.2	0.06437	0.00403
340.1	0.07403	0.00463
343.1	0.08635	0.00535

System: bromocyclohexane; phases: Liquid, Gas
Property: Vapor or sublimation pressure, kPa (Liquid); method: Transpiration method
Temperature, K	Vapor or sublimation pressure, kPa	uncertainty
277.5	0.105	0.0066
280	0.1251	0.0078
281.7	0.1422	0.009
283.6	0.1639	0.0103
285.5	0.1872	0.0117
287.4	0.21	0.0132
288.8	0.2298	0.0146
289.3	0.2446	0.0153
291.3	0.2704	0.017
293.2	0.3182	0.0201
295.3	0.3668	0.023
297.3	0.4161	0.0259

System: cyclohexane + adamantane; phases: Liquid
Property: Molar enthalpy of solution, kJ/mol (Liquid); method: Power-compensation calorimetry
Mole fraction of adamantane	Pressure, kPa	Temperature, K	Molar enthalpy of solution, kJ/mol	uncertainty
0	100	298.15	9.99	0.13

System: cyclohexane + 1-chlorotricyclo[3.3.1.1(3,7)]decane; phases: Liquid
Property: Molar enthalpy of solution, kJ/mol (Liquid); method: Power-compensation calorimetry
Mole fraction of 1-chlorotricyclo[3.3.1.1(3,7)]decane	Pressure, kPa	Temperature, K	Molar enthalpy of solution, kJ/mol	uncertainty
0	100	298.15	6.38	0.26

System: cyclohexane + 2-chlorotricyclo[3.3.1.1(3,7)]decane; phases: Liquid
Property: Molar enthalpy of solution, kJ/mol (Liquid); method: Power-compensation calorimetry
Mole fraction of 2-chlorotricyclo[3.3.1.1(3,7)]decane	Pressure, kPa	Temperature, K	Molar enthalpy of solution, kJ/mol	uncertainty
0	100	298.15	4.34	0.18

System: cyclohexane + 1-bromotricyclo[3.3.1.1(3,7)]decane; phases: Liquid
Property: Molar enthalpy of solution, kJ/mol (Liquid); method: Power-compensation calorimetry
Mole fraction of 1-bromotricyclo[3.3.1.1(3,7)]decane	Pressure, kPa	Temperature, K	Molar enthalpy of solution, kJ/mol	uncertainty
0	100	298.15	14.34	0.13

System: cyclohexane + 2-bromoadamantane; phases: Liquid
Property: Molar enthalpy of solution, kJ/mol (Liquid); method: Power-compensation calorimetry
Mole fraction of 2-bromoadamantane	Pressure, kPa	Temperature, K	Molar enthalpy of solution, kJ/mol	uncertainty
0	100	298.15	3.41	0.18
