Measured thermophysical data. Application of correlation-gas chromatography to evaluate the vaporization enthalpy of a component in an equilibrium mixture
Source: Thermochim. Acta, 2005, 10.1016/j.tca.2005.03.021
Compound 1: 2,3-butanolone, C4H8O2, InChI=1S/C4H8O2/c1-3(5)4(2)6/h3,5H,1-2H3
Compound 2: ethyl 3-hydroxybutanoate, C6H12O3, InChI=1S/C6H12O3/c1-3-9-6(8)4-5(2)7/h5,7H,3-4H2,1-2H3
Compound 3: ethyl 3-hydroxyhexanoate, C8H16O3, InChI=1S/C8H16O3/c1-3-5-7(9)6-8(10)11-4-2/h7,9H,3-6H2,1-2H3

System: 2,3-butanolone; phases: Liquid, Gas
Property: Molar enthalpy of vaporization or sublimation, kJ/mol (Liquid); method: GC correlation
Temperature, K	Molar enthalpy of vaporization or sublimation, kJ/mol	uncertainty
298.15	48.7	1.2

System: 2,3-butanolone; phases: Liquid, Gas
Property: Vapor or sublimation pressure, kPa (Liquid); method: GC correlation
Temperature, K	Vapor or sublimation pressure, kPa	uncertainty
363.15	12.7	1.27
368.15	15.48	1.55
373.15	18.77	1.88
378.15	22.65	2.27
383.15	27.18	2.72
388.15	32.47	3.25
393.15	38.61	3.86

System: ethyl 3-hydroxybutanoate; phases: Liquid, Gas
Property: Molar enthalpy of vaporization or sublimation, kJ/mol (Liquid); method: GC correlation
Temperature, K	Molar enthalpy of vaporization or sublimation, kJ/mol	uncertainty
298.15	55.9	1.2

System: ethyl 3-hydroxybutanoate; phases: Liquid, Gas
Property: Vapor or sublimation pressure, kPa (Liquid); method: GC correlation
Temperature, K	Vapor or sublimation pressure, kPa	uncertainty
363.15	3.85	0.39
368.15	4.84	0.48
373.15	6.04	0.6
378.15	7.48	0.75
383.15	9.2	0.92
388.15	11.25	1.13
393.15	13.67	1.37

System: ethyl 3-hydroxyhexanoate; phases: Liquid, Gas
Property: Molar enthalpy of vaporization or sublimation, kJ/mol (Liquid); method: GC correlation
Temperature, K	Molar enthalpy of vaporization or sublimation, kJ/mol	uncertainty
298.15	61.8	1.2

System: ethyl 3-hydroxyhexanoate; phases: Liquid, Gas
Property: Vapor or sublimation pressure, kPa (Liquid); method: GC correlation
Temperature, K	Vapor or sublimation pressure, kPa	uncertainty
363.15	1.47	0.15
368.15	1.89	0.19
373.15	2.41	0.24
378.15	3.05	0.31
383.15	3.83	0.38
388.15	4.76	0.48
393.15	5.88	0.59
