Measured thermophysical data. Thermal decomposition and kinetics of 2,4-dinitroimidazole: An insensitive high explosive
Source: Thermochim. Acta, 2015, 10.1016/j.tca.2015.05.027
Compound 1: 2,5-dinitro-1H-imidazole, C3H2N4O4, InChI=1S/C3H2N4O4/c8-6(9)2-1-4-3(5-2)7(10)11/h1H,(H,4,5)

System: 2,5-dinitro-1H-imidazole; phases: Crystal 2, Crystal 1, Air at 1 atmosphere
Property: Triple point temperature, K (Crystal 2); method: DTA
Triple point temperature, K	uncertainty
501.15	1

System: 2,5-dinitro-1H-imidazole; phases: Crystal 2, Crystal 1, Air at 1 atmosphere
Property: Molar enthalpy of transition or fusion, kJ/mol (Crystal 2); method: DSC
Molar enthalpy of transition or fusion, kJ/mol	uncertainty
6.63904668	0.31614508
