Measured thermophysical data. Thermal stability and related thermodynamic properties of N-ethylthiourea
Source: Thermochim. Acta, 2007, 10.1016/j.tca.2007.05.009
Compound 1: ethylthiourea, C3H8N2S, InChI=1S/C3H8N2S/c1-2-5-3(4)6/h2H2,1H3,(H3,4,5,6)

System: ethylthiourea; phases: Crystal, Gas
Property: Vapor or sublimation pressure, kPa (Crystal); method: Calculated from knudsen effusion weight loss
Temperature, K	Vapor or sublimation pressure, kPa	uncertainty
356.5	0.000282	1.4e-05
357	0.000309	1.6e-05
360.5	0.000417	2.1e-05
362	0.00049	2.5e-05
367.5	0.000912	4.6e-05

System: ethylthiourea; phases: Crystal, Gas
Property: Vapor or sublimation pressure, kPa (Crystal); method: Torsion effusion method
Temperature, K	Vapor or sublimation pressure, kPa	uncertainty
360	0.000331	1.7e-05
361	0.000437	2.2e-05
363	0.000447	2.2e-05
364	0.00055	2.8e-05
365	0.000661	3.3e-05
366	0.000631	3.2e-05
366.5	0.000813	4.1e-05
367	0.000741	3.7e-05
368	0.000912	4.6e-05
368	0.000646	3.2e-05
368.5	0.000794	4e-05
369	0.000891	4.5e-05
369.5	0.001175	5.9e-05
370	0.001047	5.2e-05
370	0.000871	4.4e-05
370.5	0.001175	5.9e-05
371	0.001047	5.2e-05
371	0.001288	6.5e-05
371	0.001096	5.5e-05
372	0.000977	4.9e-05
373	0.001288	6.5e-05
374	0.00138	6.9e-05
374	0.001738	8.7e-05
374.5	0.001349	6.8e-05
375	0.001514	7.6e-05
375	0.001862	9.3e-05
375	0.001995	0.0001
375	0.00166	8.3e-05
376	0.001738	8.7e-05
376	0.002291	0.000115
376	0.001778	8.9e-05
376	0.001479	7.4e-05
377	0.001905	9.5e-05
377	0.001698	8.5e-05
378	0.002239	0.000112
378	0.002455	0.000123
378	0.002138	0.000107
378	0.002239	0.000112
378	0.001778	8.9e-05
379	0.002692	0.000135
379	0.002884	0.000144
379.5	0.00263	0.000132
380	0.002951	0.000148
380	0.002188	0.00011
380.5	0.002291	0.000118
