Measured thermophysical data. Thermal Stability and Crystallization Behavior of Imidazolium Halide Ionic Liquids
Source: Thermochim. Acta, 2013, 10.1016/j.tca.2013.09.023
Compound 1: 1-butyl-3-methylimidazolium chloride, C8H15ClN2, InChI=1S/C8H15N2.ClH/c1-3-4-5-10-7-6-9(2)8-10;/h6-8H,3-5H2,1-2H3;1H/q+1;/p-1, purity 99%
Compound 2: 1-butyl-3-methylimidazolium bromide, C8H15BrN2, InChI=1S/C8H15N2.BrH/c1-3-4-5-10-7-6-9(2)8-10;/h6-8H,3-5H2,1-2H3;1H/q+1;/p-1, purity 99%
Compound 3: 1-butyl-3-methylimidazolium iodide, C8H15IN2, InChI=1S/C8H15N2.HI/c1-3-4-5-10-7-6-9(2)8-10;/h6-8H,3-5H2,1-2H3;1H/q+1;/p-1, purity 99%

System: 1-butyl-3-methylimidazolium chloride; phases: Crystal 2, Crystal 1, Air at 1 atmosphere
Property: Triple point temperature, K (Crystal 2); method: DTA
Triple point temperature, K	uncertainty
303.15	2

System: 1-butyl-3-methylimidazolium chloride; phases: Crystal 2, Crystal 1, Air at 1 atmosphere
Property: Molar enthalpy of transition or fusion, kJ/mol (Crystal 2); method: DSC
Molar enthalpy of transition or fusion, kJ/mol	uncertainty
2.7	0.6

System: 1-butyl-3-methylimidazolium chloride; phases: Crystal, Liquid, Air at 1 atmosphere
Property: Normal melting temperature, K (Crystal); method: DTA
Normal melting temperature, K	uncertainty
347.15	2

System: 1-butyl-3-methylimidazolium chloride; phases: Crystal, Liquid, Air at 1 atmosphere
Property: Molar enthalpy of transition or fusion, kJ/mol (Crystal); method: DSC
Molar enthalpy of transition or fusion, kJ/mol	uncertainty
18	1

System: 1-butyl-3-methylimidazolium bromide; phases: Crystal, Liquid, Air at 1 atmosphere
Property: Normal melting temperature, K (Crystal); method: DTA
Normal melting temperature, K	uncertainty
351.15	2

System: 1-butyl-3-methylimidazolium bromide; phases: Crystal, Liquid, Air at 1 atmosphere
Property: Molar enthalpy of transition or fusion, kJ/mol (Crystal); method: DSC
Molar enthalpy of transition or fusion, kJ/mol	uncertainty
29	1

System: 1-butyl-3-methylimidazolium iodide; phases: Glass, Liquid, Air at 1 atmosphere
Property: Triple point temperature, K (Glass); method: DTA
Triple point temperature, K	uncertainty
203.15	5
