Measured thermophysical data. Enthalpy and heat capacity of Na2MoO4 and CaMoO4
Source: Thermochim. Acta, 2018, 10.1016/j.tca.2018.09.011
Compound 1: sodium molybdate, MoNa2O4, InChI=1S/Mo.2Na.4O/q;2*+1;;;2*-1
Compound 2: calcium molybdate(VI), CaMoO4, InChI=1S/Ca.Mo.4O/q+2;;;;2*-1
Compound 3: silicon dioxide, O2Si, InChI=1S/O2Si/c1-3-2, purity 99.9%

System: sodium molybdate; phases: Crystal 2, Crystal 1, Air at 1 atmosphere
Property: Molar enthalpy of transition or fusion, kJ/mol (Crystal 2); method: Drop ice or diphenyl ether calorimetry
Molar enthalpy of transition or fusion, kJ/mol	uncertainty
9.88	1.39

System: sodium molybdate; phases: Crystal 1, Liquid, Air at 1 atmosphere
Property: Molar enthalpy of transition or fusion, kJ/mol (Crystal 1); method: Drop ice or diphenyl ether calorimetry
Molar enthalpy of transition or fusion, kJ/mol	uncertainty
20.17	1.64

System: sodium molybdate; phases: Crystal 2, Crystal 1, Air at 1 atmosphere
Property: Triple point temperature, K (Crystal 2); method: Drop calorimetry
Triple point temperature, K	uncertainty
920	10

System: sodium molybdate; phases: Crystal 1, Liquid, Air at 1 atmosphere
Property: Triple point temperature, K (Crystal 1); method: Drop calorimetry
Triple point temperature, K	uncertainty
963	9

System: sodium molybdate; phases: Crystal 3, Crystal 2, Air at 1 atmosphere
Property: Triple point temperature, K (Crystal 3); method: DSC
Triple point temperature, K	uncertainty
863	13

System: sodium molybdate; phases: Crystal 4, Crystal 3, Air at 1 atmosphere
Property: Triple point temperature, K (Crystal 4); method: DSC
Triple point temperature, K	uncertainty
736	10

System: sodium molybdate; phases: Crystal 4
Fixed: Pressure, kPa = 101.325
Property: Molar heat capacity at constant pressure, J/K/mol (Crystal 4); method: DSC
Temperature, K	Molar heat capacity at constant pressure, J/K/mol	uncertainty
290.7	135.1	5.2
295.7	136.6	5.3
300.7	137.6	5.3
305.7	138.5	5.4
310.7	139.7	5.4
315.7	140.6	5.4
320.7	141.5	5.5
325.7	142.4	5.5
330.7	143.2	5.5
335.7	144.1	5.6
340.7	144.7	5.6
345.7	145.6	5.6
350.7	146.3	5.7
355.7	147.1	5.7
360.7	147.7	5.7
365.7	148.5	5.8
370.7	149.2	5.8
375.7	149.6	5.8
380.7	150.4	5.8
385.7	151.1	5.9
390.7	152	5.9
395.7	152.5	5.9
400.7	153.1	5.9
405.7	153.7	6
410.7	154.2	6
415.7	154.9	6
420.7	155.4	6
425.7	155.8	6
430.7	156.2	6.1
435.7	156.8	6.1
440.7	157.4	6.1
445.7	157.8	6.1
450.7	158.2	6.1
455.7	158.7	6.1
460.7	159.2	6.2
465.7	159.8	6.2
470.7	160.2	6.2
475.7	160.5	6.2
480.7	160.9	6.2
485.7	161.3	6.2
490.7	161.7	6.3
495.7	162.1	6.3
500.7	162.6	6.3
505.7	162.9	6.3
510.7	163.2	6.3
515.7	163.8	6.3
520.7	164.1	6.4
525.7	164.5	6.4
530.7	164.9	6.4
535.7	165.3	6.4
540.7	165.7	6.4
545.7	166	6.4
550.7	165.7	6.4
555.7	166.2	6.4
560.7	167.1	6.5
565.7	167.4	6.5
570.7	167.7	6.5
575.7	168.2	6.5
580.7	168.4	6.5
585.7	168.6	6.5
590.7	169.1	6.5
595.7	169	6.5
600.7	169.6	6.6
605.7	169.9	6.6
610.7	170.2	6.6
615.7	170.7	6.6
620.7	171.1	6.6
625.7	171.3	6.6
630.7	171.4	6.6
635.7	171.8	6.7
640.7	172.1	6.7
645.7	172.5	6.7
650.7	173.1	6.7
655.7	173	6.7
660.7	173.4	6.7
665.7	173.4	6.7
670.7	174.2	6.7
675.7	174.5	6.8
680.7	174.6	6.8
685.7	175	6.8
690.7	175.5	6.8
695.7	175.8	6.8
700.7	176	6.8
705.7	176.5	6.8
710.7	176.8	6.8
715.7	177	6.9
720.7	177.4	6.9
725.7	177.8	6.9
290.7	131.72	5.19
295.7	133.22	5.17
300.7	134.57	5.22
305.7	136.2	5.28
310.7	137.5	5.33
315.7	138.77	5.38
320.7	139.88	5.42
325.7	140.89	5.46
330.7	141.83	5.5
335.7	142.85	5.53
340.7	143.74	5.57
345.7	144.66	5.6
350.7	145.4	5.63
355.7	146.18	5.66
360.7	146.94	5.69
365.7	147.83	5.73
370.7	148.26	5.74
375.7	149.11	5.78
380.7	149.84	5.81
385.7	150.66	5.84
390.7	151.41	5.87
395.7	151.88	5.88
400.7	152.66	5.91
405.7	153.27	5.94
410.7	153.95	5.96
415.7	154.48	5.98
420.7	154.94	6
425.7	155.5	6.02
430.7	155.99	6.04
435.7	156.63	6.07
440.7	157.21	6.09
445.7	157.66	6.11
450.7	158.11	6.12
455.7	158.52	6.14
460.7	159.18	6.17
465.7	159.6	6.18
470.7	160.21	6.21
475.7	160.53	6.22
480.7	161.08	6.24
485.7	161.49	6.25
490.7	161.99	6.27
495.7	162.3	6.29
500.7	162.88	6.31
505.7	163.3	6.32
510.7	163.65	6.34
515.7	164.15	6.36
520.7	164.53	6.37
525.7	164.9	6.39
530.7	165.32	6.4
535.7	165.75	6.42
540.7	165.37	6.41
545.7	166.53	6.45
550.7	166.81	6.46
555.7	167.03	6.47
560.7	167.64	6.49
565.7	167.9	6.5
570.7	168.33	6.52
575.7	168.6	6.53
580.7	169.14	6.55
585.7	169.29	6.56
590.7	169.88	6.58
595.7	170.11	6.59
600.7	170.38	6.6
605.7	170.82	6.62
610.7	171.15	6.63
615.7	171.72	6.65
620.7	171.79	6.65
625.7	172.21	6.67
630.7	172.2	6.67
635.7	172.78	6.69
640.7	172.85	6.69
645.7	173.37	6.72
650.7	173.98	6.74
655.7	174.02	6.74
660.7	174.31	6.75
665.7	174.73	6.77
670.7	175.04	6.78
675.7	175.38	6.79
680.7	175.39	6.79
685.7	175.81	6.81
690.7	176.37	6.83
695.7	176.41	6.83
700.7	176.95	6.85
705.7	176.9	6.85
710.7	177.64	6.88
715.7	177.77	6.89
720.7	178.25	6.9
725.7	178.39	6.91

System: sodium molybdate; phases: Crystal 3
Fixed: Pressure, kPa = 101.325
Property: Molar heat capacity at constant pressure, J/K/mol (Crystal 3); method: DSC
Temperature, K	Molar heat capacity at constant pressure, J/K/mol	uncertainty
745.7	185	7.2
750.7	185.6	7.2
755.7	186.5	7.2
760.7	187.1	7.2
765.7	188.4	7.3
770.7	185.1	7.2
775.7	186.8	7.2
780.7	186.7	7.2
785.7	187.4	7.3
790.7	187.4	7.3
795.7	187.6	7.3
800.7	187.8	7.3
805.7	188.4	7.3
810.7	188.7	7.3
815.7	188.7	7.3
820.7	189.3	7.3
825.7	190.5	7.4
830.7	190.7	7.4
835.7	191.8	7.4
840.7	194.7	7.5
740.7	183.99	7.13
745.7	185.38	7.18
750.7	188.55	7.3
755.7	194.59	7.54
760.7	188.83	7.32
765.7	185.51	7.19
770.7	185.82	7.2
775.7	186.61	7.23
780.7	186.39	7.22
785.7	186.73	7.23
790.7	187.45	7.26
795.7	187.5	7.26
800.7	188.38	7.3
810.7	188.48	7.3
815.7	188.25	7.29
820.7	189.31	7.33
825.7	189.81	7.35
830.7	190.41	7.38
835.7	190.33	7.38
840.7	190.84	7.39
845.7	191.73	7.44
850.7	199.2	7.86

System: sodium molybdate; phases: Crystal 2
Fixed: Pressure, kPa = 101.325
Property: Molar heat capacity at constant pressure, J/K/mol (Crystal 2); method: DSC
Temperature, K	Molar heat capacity at constant pressure, J/K/mol	uncertainty
865.7	202.6	7.8
870.7	203.5	7.9
875.7	193.2	7.6
880.7	193.1	7.5
885.7	193.9	7.5
890.7	193.3	7.5
895.7	195.7	7.6
900.7	194.9	7.5
905.7	196	7.6
870.7	193.59	7.56
875.7	192.1	7.51
880.7	193.29	7.49
885.7	192.84	7.47
890.7	194.9	7.55
895.7	194.25	7.52
900.7	196.11	7.6
905.7	198.79	7.74

System: sodium molybdate; phases: Crystal 2
Fixed: Pressure, kPa = 101.325
Property: Molar enthalpy, kJ/mol (Crystal 2); method: Drop ice or diphenyl ether calorimetry
Temperature, K	Molar enthalpy, kJ/mol	uncertainty
892.1	128.21	1.01
898.2	130.16	0.93
910	132.57	1.01
917.2	136.05	1.28

System: sodium molybdate; phases: Crystal 1
Fixed: Pressure, kPa = 101.325
Property: Molar enthalpy, kJ/mol (Crystal 1); method: Drop ice or diphenyl ether calorimetry
Temperature, K	Molar enthalpy, kJ/mol	uncertainty
921.2	140.82	1.32
927.3	143.87	1.31
930.4	145.29	1.26
936.7	148.1	1.06
944.2	149.08	0.98
950.2	150.56	1.04
953.7	151.36	1.03

System: sodium molybdate; phases: Liquid
Fixed: Pressure, kPa = 101.325
Property: Molar enthalpy, kJ/mol (Liquid); method: Drop ice or diphenyl ether calorimetry
Temperature, K	Molar enthalpy, kJ/mol	uncertainty
971.8	174.8	1.16
1022	186.33	1.22
1071.6	196.25	1.28
1123.3	208.11	1.36
1173.1	219.72	1.42
1224	231.12	1.48
1275	242.05	1.55
1375.6	264.34	1.67
1426.3	273.92	1.73
1476.2	284.65	1.8

System: calcium molybdate(VI); phases: Crystal, Liquid, Air at 1 atmosphere
Property: Normal melting temperature, K (Crystal); method: DTA
Normal melting temperature, K	uncertainty
1744	5

System: calcium molybdate(VI); phases: Crystal, Liquid, Air at 1 atmosphere
Property: Molar enthalpy of transition or fusion, kJ/mol (Crystal); method: Drop calorimetry
Molar enthalpy of transition or fusion, kJ/mol	uncertainty
95.8	1.8

System: calcium molybdate(VI); phases: Crystal
Fixed: Pressure, kPa = 101.325
Property: Molar heat capacity at constant pressure, J/K/mol (Crystal); method: DSC
Temperature, K	Molar heat capacity at constant pressure, J/K/mol	uncertainty
290.7	113.76	4.41
295.7	114.78	4.45
300.7	115.72	4.48
305.7	116.36	4.51
310.7	117.1	4.54
315.7	117.84	4.57
320.7	118.59	4.59
325.7	119.14	4.62
330.7	119.82	4.64
335.7	120.5	4.67
340.7	121.07	4.69
345.7	121.6	4.71
350.7	122.52	4.75
355.7	123.03	4.77
360.7	123.75	4.79
365.7	124.34	4.82
370.7	124.77	4.83
375.7	125.24	4.85
380.7	125.81	4.87
385.7	126.34	4.89
390.7	126.87	4.91
395.7	127.3	4.93
400.7	127.9	4.95
405.7	128.38	4.97
410.7	128.85	4.99
415.7	129.37	5.01
420.7	129.94	5.03
425.7	130.35	5.05
430.7	130.69	5.06
435.7	131.23	5.08
440.7	131.58	5.1
445.7	131.94	5.11
450.7	132.32	5.13
455.7	132.74	5.14
460.7	133.07	5.15
465.7	132.99	5.15
470.7	133.79	5.18
475.7	134.15	5.2
480.7	134.58	5.21
485.7	134.98	5.23
490.7	135.22	5.24
495.7	135.56	5.25
500.7	135.88	5.26
505.7	136.16	5.27
510.7	136.48	5.29
515.7	136.85	5.3
520.7	137.14	5.31
525.7	137.47	5.32
530.7	137.7	5.33
535.7	138.13	5.35
540.7	138.22	5.35
545.7	138.49	5.36
550.7	138.85	5.38
555.7	139.19	5.39
560.7	139.67	5.41
565.7	139.89	5.42
570.7	140.11	5.43
575.7	140.38	5.44
580.7	140.66	5.45
585.7	140.82	5.45
590.7	141.21	5.47
595.7	141.34	5.47
600.7	141.78	5.49
605.7	141.86	5.49
610.7	142.25	5.51
615.7	142.39	5.51
620.7	142.61	5.52
625.7	142.97	5.54
630.7	143.02	5.54
635.7	143.26	5.55
640.7	143.63	5.56
645.7	143.59	5.56
650.7	143.96	5.58
655.7	144.28	5.59
660.7	144.51	5.6
665.7	144.59	5.6
670.7	144.9	5.61
675.7	145.02	5.62
680.7	145.21	5.62
685.7	145.42	5.63
690.7	145.88	5.65
695.7	145.85	5.65
700.7	146	5.65
705.7	146.27	5.67
710.7	146.57	5.68
715.7	147	5.69
720.7	147.23	5.7
725.7	146.95	5.69
730.7	147.42	5.71
735.7	147.94	5.73
740.7	147.76	5.72
745.7	147.98	5.73
750.7	147.94	5.73
755.7	148.47	5.75
760.7	148.44	5.75
765.7	148.92	5.77
770.7	148.94	5.77
775.7	149.05	5.77
780.7	149.45	5.79
785.7	149.11	5.78
790.7	149.37	5.79
795.7	149.57	5.79
800.7	149.76	5.8
805.7	149.72	5.8
810.7	150.32	5.82
815.7	149.98	5.81
820.7	150.71	5.84
825.7	151.04	5.85
830.7	150.95	5.85
835.7	150.76	5.84
840.7	151.18	5.86
845.7	151.37	5.86
850.7	151.36	5.86
855.7	150.88	5.84
860.7	151.38	5.87
865.7	152.59	5.91
870.7	151.95	5.89
875.7	152.15	5.89
880.7	152.15	5.89
885.7	151.82	5.88
890.7	152.29	5.9
895.7	152.78	5.92
900.7	152.85	5.92
905.7	153.39	5.94

System: calcium molybdate(VI); phases: Crystal
Fixed: Pressure, kPa = 101.325
Property: Molar enthalpy, kJ/mol (Crystal); method: Drop ice or diphenyl ether calorimetry
Temperature, K	Molar enthalpy, kJ/mol	uncertainty
1071.4	113.27	0.76
1271.3	144.91	0.94
1371.8	161.37	1.04
1470.4	178.06	1.14
1572.2	193.25	1.23
1674.6	210.98	1.36
1735.1	228.11	3.61
1738.8	234.27	3.63

System: calcium molybdate(VI); phases: Liquid
Fixed: Pressure, kPa = 101.325
Property: Molar enthalpy, kJ/mol (Liquid); method: Drop ice or diphenyl ether calorimetry
Temperature, K	Molar enthalpy, kJ/mol	uncertainty
1749.2	319.63	1.98
1772.2	323.31	2.01
1800.1	328.89	2.05
1822.8	333.1	2.07
1851.2	338.4	2.1
1875	341.81	2.11

System: silicon dioxide; phases: Glass
Fixed: Pressure, kPa = 101.325
Property: Molar enthalpy, kJ/mol (Glass); method: Drop calorimetry
Temperature, K	Molar enthalpy, kJ/mol	uncertainty
1471.4	78.86	1.84
1372.1	71.3	1.66
1274.3	63.7	1.49
1172.3	56.85	1.33
1123.4	53.26	1.25
1071.3	49.66	1.16
1021.7	45.87	1.08
971.7	42.09	0.99
912.3	37.99	0.89

System: silicon dioxide; phases: Glass
Fixed: Pressure, kPa = 101.325
Property: Molar heat capacity at constant pressure, J/K/mol (Glass); method: DSC
Temperature, K	Molar heat capacity at constant pressure, J/K/mol	uncertainty
290.7	43.7	1.69
295.7	44.06	1.71
300.7	44.43	1.72
305.7	44.87	1.74
310.7	45.35	1.76
315.7	45.81	1.78
320.7	46.27	1.8
325.7	46.86	1.82
330.7	47.17	1.83
335.7	47.61	1.85
340.7	48.03	1.86
345.7	48.42	1.88
350.7	48.85	1.89
355.7	49.25	1.91
360.7	49.65	1.92
365.7	50.07	1.94
370.7	50.44	1.95
375.7	50.78	1.97
380.7	51.18	1.98
385.7	51.56	2
390.7	51.91	2.01
395.7	52.18	2.02
400.7	52.67	2.04
405.7	53.01	2.05
410.7	53.31	2.07
415.7	53.67	2.08
420.7	53.98	2.09
425.7	54.28	2.1
430.7	54.64	2.12
435.7	54.95	2.13
440.7	55.22	2.14
445.7	55.51	2.15
450.7	55.77	2.16
455.7	56.08	2.17
460.7	56.39	2.18
465.7	56.69	2.2
470.7	56.93	2.21
475.7	57.21	2.22
480.7	57.47	2.23
485.7	57.71	2.24
490.7	57.99	2.25
495.7	58.22	2.26
500.7	58.36	2.26
505.7	58.71	2.27
510.7	58.93	2.28
515.7	59.21	2.29
520.7	59.42	2.3
525.7	59.65	2.31
530.7	59.89	2.32
535.7	60.11	2.33
540.7	60.33	2.34
545.7	60.57	2.35
550.7	60.72	2.35
555.7	60.89	2.36
560.7	61.14	2.37
565.7	61.33	2.38
570.7	61.55	2.38
575.7	61.76	2.39
580.7	61.92	2.4
585.7	62.04	2.4
590.7	62.29	2.41
595.7	62.48	2.42
600.7	62.62	2.43
605.7	62.84	2.43
610.7	63.04	2.44
615.7	63.22	2.45
620.7	63.51	2.46
625.7	63.52	2.46
630.7	63.55	2.46
635.7	63.89	2.47
640.7	64.04	2.48
645.7	64.15	2.48
650.7	64.44	2.5
655.7	64.52	2.5
660.7	64.68	2.51
665.7	64.78	2.51
670.7	65.01	2.52
675.7	65.07	2.52
680.7	65.18	2.52
685.7	65.39	2.53
690.7	65.49	2.54
695.7	65.59	2.54
700.7	65.73	2.55
705.7	65.87	2.55
710.7	65.93	2.55
715.7	66.12	2.56
720.7	66.27	2.57
725.7	66.32	2.57
730.7	66.52	2.58
735.7	66.7	2.58
740.7	66.83	2.59
745.7	66.97	2.59
750.7	66.9	2.59
755.7	67.23	2.6
760.7	67.3	2.61
765.7	67.29	2.61
770.7	67.59	2.62
775.7	67.66	2.62
780.7	67.75	2.62
785.7	67.8	2.63
790.7	67.85	2.63
795.7	67.77	2.62
800.7	68.09	2.64
805.7	68.09	2.64
810.7	68.41	2.65
815.7	68.35	2.65
820.7	68.43	2.65
825.7	68.82	2.67
830.7	68.61	2.66
835.7	68.69	2.66
840.7	68.96	2.67
845.7	69.02	2.67
850.7	69.1	2.68
855.7	69.08	2.68
860.7	69.78	2.7
865.7	69.62	2.7
870.7	69.54	2.69
875.7	69.52	2.69
880.7	69.9	2.71
885.7	69.49	2.69
890.7	69.99	2.71
895.7	70.07	2.71
900.7	69.83	2.7
905.7	70.36	2.73
