Measured thermophysical data. Solid-state interaction of ibuprofen and Neusilin US2
Source: Thermochim. Acta, 2010, 10.1016/j.tca.2010.05.009
Compound 1: ibuprofen, C13H18O2, InChI=1S/C13H18O2/c1-9(2)8-11-4-6-12(7-5-11)10(3)13(14)15/h4-7,9-10H,8H2,1-3H3,(H,14,15)

System: ibuprofen; phases: Crystal, Liquid, Air at 1 atmosphere
Property: Normal melting temperature, K (Crystal); method: Differential scanning calorimeter
Normal melting temperature, K	uncertainty
348.2	1

System: ibuprofen; phases: Crystal, Liquid, Gas
Property: Molar enthalpy of transition or fusion, kJ/mol (Crystal); method: Differential scanning calorimeter
Molar enthalpy of transition or fusion, kJ/mol	uncertainty
25.99	3.11
