Measured thermophysical data. Thermodynamic investigation of thorium and strontium substituted monazite solid-solution
Source: Thermochim. Acta, 2019, 10.1016/j.tca.2019.01.031
Compound 1: lanthanum, La, InChI=1S/La
Compound 2: phosphorus, P, InChI=1S/P
Compound 3: oxygen, O2, InChI=1S/O2/c1-2
Compound 4: strontium, Sr, InChI=1S/Sr
Compound 5: thorium, Th, InChI=1S/Th
Compound 6: lanthanum orthophosphate, LaO4P, InChI=1S/La.H3O4P/c;1-5(2,3)4/h;(H3,1,2,3,4)/q+3;/p-3
Compound 7: zirconium oxide, O2Zr, InChI=1S/2O.Zr/q2*-2;+4, purity 99.95%
Compound 8: strontium thorium(IV) phosphate, O8P2SrTh, InChI=1S/2H3O4P.Sr.Th/c2*1-5(2,3)4;;/h2*(H3,1,2,3,4);;/q;;+2;+4/p-6

System: lanthanum orthophosphate; phases: Crystal
Property: Mass density, kg/m3 (Crystal); method: X-ray diffraction
Temperature, K	Pressure, kPa	Mass density, kg/m3	uncertainty
298	101.325	5063	10

System: lanthanum orthophosphate; phases: Crystal
Fixed: Pressure, kPa = 101.325
Property: Molar heat capacity at constant pressure, J/K/mol (Crystal); method: DSC
Temperature, K	Molar heat capacity at constant pressure, J/K/mol	uncertainty
298	97.5	10.6
300	98	8.7
350	107.3	10.7
400	114.3	10.8
450	120	10.9
500	124.9	9.1
550	129.3	11
600	133.2	9.3
650	136.9	11.1
700	140.4	11.2
750	143.8	9.5
800	147.1	11.3

System: zirconium oxide; phases: Crystal
Fixed: Pressure, kPa = 101.325
Property: Molar heat capacity at constant pressure, J/K/mol (Crystal); method: DSC
Temperature, K	Molar heat capacity at constant pressure, J/K/mol	uncertainty
313	56.9	6.3
323	57.7	4.5
333	58.6	6.3
343	59.3	4.5
353	60	2.9
363	60.7	4.5
373	61.4	4.6
383	61.9	3
393	62.5	4.6
403	63	4.6
413	63.6	4.6
423	64	3
433	64.5	3
443	64.9	3
453	65.4	4.6
463	65.8	4.6
473	66.2	4.6
483	66.6	4.6
493	66.9	3.1
503	67.3	4.7
513	67.6	4.7
523	68	4.7
533	68.3	4.7
543	68.6	3.1
553	68.9	3.2
563	69.2	4.7
573	69.5	4.7
583	69.8	3.2
593	70.1	4.7
603	70.4	4.7
613	70.6	4.7
623	70.9	3.2
633	71.2	4.7
643	71.4	4.7
653	71.7	4.7
663	71.9	3.2
673	72.2	3.2
683	72.4	3.2
693	72.7	4.8
703	72.9	4.8
713	73.1	4.8
723	73.4	4.8
733	73.6	4.8
743	73.8	6.5
753	74.1	6.5
763	74.3	4.8
773	74.5	6.6
783	74.7	4.8
793	74.9	6.6
800	75.1	4.8

System: strontium thorium(IV) phosphate; phases: Crystal
Property: Mass density, kg/m3 (Crystal); method: X-ray diffraction
Temperature, K	Pressure, kPa	Mass density, kg/m3	uncertainty
298	101.325	5619	10

System: strontium thorium(IV) phosphate; phases: Crystal
Fixed: Pressure, kPa = 101.325
Property: Molar heat capacity at constant pressure, J/K/mol (Crystal); method: DSC
Temperature, K	Molar heat capacity at constant pressure, J/K/mol	uncertainty
298	177.6	21
300	178.6	17.2
350	197.2	17.4
400	210.2	21.4
450	220	21.4
500	227.8	18
550	234.2	18
600	239.6	14.6
650	244.4	18.2
700	248.8	18.2
750	252.8	22
800	256.6	22

System: lanthanum orthophosphate + strontium thorium(IV) phosphate; phases: Crystal
Fixed: Pressure, kPa = 101.325
Fixed: Temperature, K = 298
Property: Mass density, kg/m3 (Crystal); method: X-ray diffraction
Mole fraction of lanthanum orthophosphate	Mass density, kg/m3	uncertainty
1	5063	10
0.889	5203	20
0.75	5295	15
0.571	5395	13
0.333	5505	12
0	5619	9

System: lanthanum orthophosphate + strontium thorium(IV) phosphate; phases: Crystal
Fixed: Pressure, kPa = 101.325
Property: Molar heat capacity at constant pressure, J/K/mol (Crystal); method: DSC
Temperature, K	Mole fraction of lanthanum orthophosphate	Molar heat capacity at constant pressure, J/K/mol	uncertainty
298	1	97.5	10.6
300	1	98	8.7
350	1	107.3	10.7
400	1	114.3	10.8
450	1	120	10.9
500	1	124.9	9.1
550	1	129.3	11
600	1	133.2	9.3
650	1	136.9	11.1
700	1	140.4	11.2
750	1	143.8	9.5
800	1	147.1	11.3
298	0.889	117	12.4
300	0.889	117.4	10.2
350	0.889	127.5	10.2
400	0.889	135.2	8.5
450	0.889	141.5	12.5
500	0.889	147.1	12.6
550	0.889	152.1	14.7
600	0.889	156.8	10.8
650	0.889	161.1	10.9
700	0.889	165.3	13
750	0.889	169.3	11.1
800	0.889	173.2	13.2
298	0.75	130.3	13.6
300	0.75	130.6	11.2
350	0.75	139.5	13.7
400	0.75	146.8	13.8
450	0.75	153.1	11.5
500	0.75	158.8	13.9
550	0.75	164	11.7
600	0.75	169.1	14.1
650	0.75	173.9	11.9
700	0.75	178.6	14.3
750	0.75	183.3	12.1
800	0.75	187.8	14.4
298	0.571	148.6	18.1
300	0.571	149.2	12.7
350	0.571	158.5	18.2
400	0.571	166.3	15.6
450	0.571	173.1	15.7
500	0.571	179.1	13.3
550	0.571	184.8	15.9
600	0.571	190.3	18.7
650	0.571	195.5	16.1
700	0.571	200.6	13.8
750	0.571	205.6	13.9
800	0.571	210.6	16.4
298	0.333	172.2	18.2
300	0.333	172.9	15.2
350	0.333	186.9	17.9
400	0.333	197.9	18.1
450	0.333	207.2	18.2
500	0.333	215.5	15.5
550	0.333	223.2	15.6
600	0.333	230.4	18.6
650	0.333	237.2	15.9
700	0.333	243.9	18.8
750	0.333	250.2	18.9
800	0.333	256.6	22
298	0	177.6	21
300	0	178.6	17.2
350	0	197.2	17.5
400	0	210.2	21.3
450	0	220	21.5
500	0	227.8	17.9
550	0	234.2	18
600	0	239.6	14.7
650	0	244.4	18.2
700	0	248.8	18.3
750	0	252.8	21.9
800	0	256.6	22

Reaction: -1 lanthanum + -1 phosphorus + 1 lanthanum orthophosphate + -2 oxygen
Property: Molar enthalpy of reaction, kJ/mol
-1966.7

Reaction: -1 strontium + -1 thorium + -2 phosphorus + 1 strontium thorium(IV) phosphate + -4 oxygen
Property: Molar enthalpy of reaction, kJ/mol
-3900.2
