Measured thermophysical data. Thermodynamic Properties of 1-Ethyl-4-nitro-1,2,3-triazole
Source: Thermochim. Acta, 2013, 10.1016/j.tca.2013.05.011
Compound 1: carbon dioxide, CO2, InChI=1S/CO2/c2-1-3
Compound 2: nitrogen, N2, InChI=1S/N2/c1-2
Compound 3: water, H2O, InChI=1S/H2O/h1H2
Compound 4: oxygen, O2, InChI=1S/O2/c1-2
Compound 5: 1-ethyl-4-nitro-1,2,3-triazole, C4H6N4O2, InChI=1S/C4H6N4O2/c1-2-7-3-4(5-6-7)8(9)10/h3H,2H2,1H3, purity 99.95%

System: 1-ethyl-4-nitro-1,2,3-triazole; phases: Crystal 1, Liquid, Gas
Property: Triple point temperature, K (Crystal 1); method: VISOBS
Triple point temperature, K	uncertainty
349.04	0.39

System: 1-ethyl-4-nitro-1,2,3-triazole; phases: Crystal 2, Crystal 1, Gas
Property: Triple point temperature, K (Crystal 2); method: VISOBS
Triple point temperature, K	uncertainty
259.7	1.1

System: 1-ethyl-4-nitro-1,2,3-triazole; phases: Crystal 3, Crystal 2, Gas
Property: Triple point temperature, K (Crystal 3); method: VISOBS
Triple point temperature, K	uncertainty
223.6	0.4

System: 1-ethyl-4-nitro-1,2,3-triazole; phases: Crystal 2, Crystal 1, Gas
Property: Molar enthalpy of transition or fusion, kJ/mol (Crystal 2); method: Calculated as the difference between measured values of enthalpy of C1,L,air and C3,C2, air
Molar enthalpy of transition or fusion, kJ/mol	uncertainty
0.783	0.052

System: 1-ethyl-4-nitro-1,2,3-triazole; phases: Crystal 1, Liquid, Gas
Property: Molar enthalpy of transition or fusion, kJ/mol (Crystal 1); method: Adiabatic calorimetry
Molar enthalpy of transition or fusion, kJ/mol	uncertainty
16.395	0.121

System: 1-ethyl-4-nitro-1,2,3-triazole; phases: Crystal 3, Crystal 2, Gas
Property: Molar enthalpy of transition or fusion, kJ/mol (Crystal 3); method: Adiabatic calorimetry
Molar enthalpy of transition or fusion, kJ/mol	uncertainty
1.343	0.014

System: 1-ethyl-4-nitro-1,2,3-triazole; phases: Crystal 3, Gas
Property: Molar heat capacity at saturation pressure, J/K/mol (Crystal 3); method: Vacuum adiabatic calorimetry
Temperature, K	Molar heat capacity at saturation pressure, J/K/mol	uncertainty
5.29	0.3979	0.0416
5.6	0.4814	0.0418
5.91	0.5821	0.042
6.3	0.7245	0.0424
6.75	0.9159	0.043
7.21	1.145	0.044
7.69	1.411	0.045
8.17	1.715	0.045
8.65	2.057	0.046
9.14	2.43	0.048
9.64	2.835	0.049
10.15	3.283	0.051
10.72	3.81	0.052
11.37	4.454	0.054
12.03	5.13	0.056
12.7	5.851	0.059
13.37	6.611	0.061
14.05	7.385	0.063
14.73	8.198	0.066
15.53	9.162	0.068
16.43	10.28	0.07
17.35	11.43	0.07
18.26	12.55	0.08
19.18	13.67	0.08
20.1	14.82	0.08
21.32	16.32	0.08
22.85	18.22	0.09
24.38	20.1	0.09
25.91	21.95	0.09
27.48	23.82	0.09
28.94	25.56	0.09
30.49	27.37	0.08
32.2	29.32	0.08
34.08	31.41	0.09
35.95	33.45	0.09
37.84	35.46	0.09
39.72	37.43	0.09
41.7	39.45	0.1
43.79	41.57	0.1
45.88	43.57	0.1
47.97	45.59	0.1
50.06	47.56	0.11
52.16	49.44	0.11
54.26	51.29	0.11
56.37	53.05	0.11
58.49	54.81	0.12
60.6	56.53	0.12
62.72	58.18	0.12
64.84	59.79	0.12
66.96	61.37	0.13
69.08	62.92	0.13
71.31	64.53	0.13
73.64	66.14	0.13
75.98	67.71	0.14
78.32	69.26	0.14
80.67	70.78	0.14
80.93	71.06	0.14
82.08	71.79	0.14
82.67	72.13	0.14
83.02	72.3	0.14
83.82	72.84	0.14
84.41	73.23	0.14
85.57	73.86	0.15
86.17	74.28	0.15
87.34	74.94	0.15
87.93	75.41	0.15
89.1	75.99	0.15
89.7	76.42	0.15
90.88	77.03	0.21
91.47	77.43	0.22
92.66	78.04	0.22
93.25	78.42	0.22
94.45	79.04	0.22
95.04	79.39	0.22
96.24	80.06	0.22
96.84	80.41	0.22
98.05	81.1	0.22
98.63	81.42	0.22
99.85	82.03	0.22
100.44	82.39	0.22
101.66	83	0.22
102.25	83.36	0.22
103.48	83.99	0.22
104.06	84.34	0.22
105.3	84.91	0.22
105.88	85.3	0.22
107.13	85.89	0.22
107.71	86.25	0.22
108.96	86.84	0.22
109.55	87.16	0.22
110.8	87.8	0.22
111.39	88.1	0.22
112.64	88.72	0.22
113.23	89.03	0.22
114.48	89.62	0.22
115.07	89.93	0.22
116.33	90.48	0.23
116.92	90.8	0.23
118.18	91.41	0.23
118.76	91.7	0.23
120.04	92.34	0.23
120.62	92.62	0.23
121.89	93.25	0.23
122.47	93.52	0.23
123.75	94.15	0.23
124.33	94.4	0.23
125.61	95	0.23
126.19	95.27	0.23
127.48	95.88	0.23
128.06	96.16	0.23
129.35	96.78	0.23
129.92	97.04	0.23
131.17	97.6	0.23
131.22	97.64	0.23
131.79	97.88	0.23
133.09	98.5	0.23
133.16	98.55	0.23
133.66	98.76	0.23
134.97	99.38	0.23
135.14	99.49	0.23
135.53	99.64	0.23
136.85	100.2	0.2
137.13	100.4	0.2
137.41	100.5	0.2
138.72	101.1	0.2
139.12	101.3	0.2
139.29	101.4	0.2
140.6	102	0.2
141.12	102.2	0.2
141.17	102.2	0.2
142.48	102.9	0.2
143.05	103.1	0.2
143.12	103.2	0.2
144.36	103.7	0.2
144.93	104	0.2
145.11	104.1	0.2
146.25	104.6	0.2
146.81	104.9	0.2
147.11	105	0.2
148.13	105.5	0.2
148.69	105.8	0.2
149.11	105.9	0.2
150.01	106.3	0.2
150.57	106.6	0.2
151.1	106.9	0.2
151.89	107.2	0.2
152.45	107.5	0.2
153.1	107.8	0.2
153.78	108.1	0.2
154.33	108.3	0.2
155.1	108.7	0.2
155.66	108.9	0.2
156.21	109.2	0.2
157.1	109.6	0.2
157.55	109.8	0.2
158.09	110.1	0.2
159.1	110.5	0.2
159.43	110.6	0.2
159.97	110.9	0.2
161.1	111.4	0.2
161.32	111.5	0.2
161.85	111.7	0.2
163.1	112.3	0.2
163.2	112.4	0.2
163.74	112.6	0.2
165.08	113.2	0.2
165.09	113.2	0.2
165.62	113.5	0.2
166.97	114.1	0.2
167.09	114.2	0.2
167.5	114.3	0.2
168.85	115	0.3
169.09	115.1	0.3
169.38	115.2	0.3
170.74	115.8	0.3
171.1	116	0.3
171.26	116.1	0.3
172.62	116.7	0.3
173.1	116.9	0.3
173.14	116.9	0.3
174.5	117.6	0.3
175.02	117.8	0.3
175.09	117.9	0.3
176.38	118.4	0.3
176.89	118.7	0.3
177.09	118.8	0.3
178.26	119.3	0.3
178.77	119.7	0.3
179.09	119.7	0.3
180.14	120.2	0.3
180.65	120.5	0.3
181.09	120.7	0.3
182.02	121.1	0.3
182.53	121.4	0.3
183.08	121.6	0.3
183.89	122	0.3
184.4	122.3	0.3
185.07	122.6	0.3
185.77	122.9	0.3
186.27	123.1	0.3
186.84	123.4	0.3
187.06	123.5	0.3
187.64	123.8	0.3
188.81	124.4	0.3
189.05	124.5	0.3
189.52	124.7	0.3
190.68	125.3	0.3
191.04	125.4	0.3
191.39	125.6	0.3
192.55	126.2	0.3
193.02	126.4	0.3
193.26	126.5	0.3
194.42	127.1	0.3
195.01	127.4	0.3
195.13	127.4	0.3
196.28	128.1	0.3
196.99	128.3	0.3
197	128.3	0.3
198.14	128.9	0.3
198.86	129.3	0.3
198.97	129.4	0.3
200	129.9	0.3
200.73	130.2	0.3
201.01	130.3	0.3
201.5	130.6	0.3
202.59	131.1	0.3
202.66	131.3	0.3
203.11	131.4	0.3
203.81	131.8	0.3
204.45	132	0.3
204.95	132.4	0.3
205.21	132.5	0.3
206.1	132.9	0.3
206.31	133	0.3
207.25	133.5	0.3
207.29	133.5	0.3
208.17	134	0.3
208.4	134.2	0.3
209.38	134.6	0.3
209.54	134.8	0.3
210.02	135	0.3
210.69	135.3	0.3
211.47	135.7	0.3
211.83	135.9	0.3
211.87	135.9	0.3
212.97	136.5	0.3
213.55	136.8	0.3
213.72	136.9	0.3
214.12	137.2	0.3
215.26	137.7	0.3
215.57	137.9	0.3
215.64	138	0.3
216.4	138.4	0.3
217.41	138.9	0.3
217.54	139	0.3
217.72	139.1	0.3
218.68	139.6	0.3
219.26	139.9	0.3
219.79	140.2	0.3
219.82	140.3	0.3
220.96	141.1	0.3
221.1	141.1	0.3
221.87	141.5	1.3
222.09	142.2	1.2

System: 1-ethyl-4-nitro-1,2,3-triazole; phases: Crystal 2, Gas
Property: Molar heat capacity at saturation pressure, J/K/mol (Crystal 2); method: Vacuum adiabatic calorimetry
Temperature, K	Molar heat capacity at saturation pressure, J/K/mol	uncertainty
225.48	151.6	1.4
226.59	151.7	0.3
226.72	154.6	0.3
226.83	152.7	0.3
226.83	152.7	0.3
227.7	152.5	0.3
228.62	153.4	0.3
228.62	153.4	0.3
228.73	153.5	0.3
228.81	153.4	0.3
229.91	154.3	0.3
230.41	154.8	0.3
230.41	154.8	0.3
230.75	155.1	0.3
231.02	155.5	0.3
232.12	156.4	0.3
232.19	156.4	0.3
232.19	156.4	0.3
232.76	156.9	0.3
233.22	157.5	0.3
233.97	157.9	0.3
233.97	157.9	0.3
234.32	158.4	0.3
234.77	158.8	0.3
235.41	159.5	0.3
235.74	159.6	0.3
235.74	159.6	0.3
236.51	160.4	0.3
236.76	160.7	0.3
237.51	161.5	0.3
237.51	161.5	0.3
237.6	161.6	0.3
238.69	162.8	0.3
238.75	162.9	0.3
239.27	163.3	0.3
239.27	163.3	0.3
239.78	164	0.3
240.73	165.2	0.3
240.86	165.3	0.3
241.02	165.5	0.3
241.02	165.5	0.3
241.94	166.6	0.3
242.71	167.7	0.3
242.76	167.6	0.3
242.76	167.6	0.3
243.02	168.2	0.3
244.1	169.6	0.3
244.5	170	0.3
244.5	170	0.3
244.67	170.3	0.3
245.18	171.1	0.3
246.24	172.7	0.3
246.24	172.7	0.3
246.25	172.8	0.3
246.62	173.2	0.3
247.31	174.4	0.3
247.96	175.5	0.3
247.96	175.5	0.3
248.37	176.3	0.3
248.56	176.9	0.3
249.43	178.4	0.3
249.67	178.9	0.3
249.67	178.9	0.3
250.49	181	0.3
250.49	180.6	0.3
251.37	182.7	0.3
251.37	182.7	0.3
251.54	183.1	0.3
252.39	185.9	0.3
252.58	186	0.3
253.05	187.4	0.3
253.05	187.4	0.3
253.62	189.2	0.3
254.28	192.2	0.3
254.65	193	0.3
254.72	193.3	0.3
254.72	193.3	0.3
255.67	197.6	0.3
256.13	201	0.3
256.36	201.7	0.3
256.36	201.7	0.3
256.68	203.4	0.3
257.68	211	0.4
257.94	215.8	0.4
257.96	214.8	0.4
257.96	214.8	0.4
258.65	222.2	0.5
259.5	240.1	0.5
259.5	240.1	0.5
259.59	240.2	0.5
259.68	242.8	0.5

System: 1-ethyl-4-nitro-1,2,3-triazole; phases: Crystal 1, Gas
Property: Molar heat capacity at saturation pressure, J/K/mol (Crystal 1); method: Vacuum adiabatic calorimetry
Temperature, K	Molar heat capacity at saturation pressure, J/K/mol	uncertainty
260.53	230.3	0.7
261.06	201.8	1
261.06	201.8	1
261.47	186.9	1.2
261.53	183.5	1.2
262.59	176	0.3
262.74	175.6	0.3
262.74	175.6	0.3
263.4	174.2	0.3
263.66	173.9	0.3
264.47	173.2	0.3
264.47	173.2	0.3
264.74	173	0.3
265.36	173	0.3
265.82	172.7	0.3
266.22	172.6	0.3
266.22	172.6	0.3
266.9	172.7	0.3
267.33	173	0.3
267.96	172.6	0.3
267.96	172.6	0.3
267.98	172.8	0.3
269.06	173	0.3
269.3	173	0.3
269.71	172.9	0.3
269.71	172.9	0.3
270.14	173.2	0.3
271.22	173.5	0.3
271.27	173.5	0.3
271.46	173.4	0.3
271.46	173.4	0.3
272.3	173.8	0.3
273.2	174	0.3
273.24	173.9	0.3
273.39	174.1	0.3
274.47	174.4	0.3
274.95	174.4	0.3
275.2	174.6	0.3
275.55	174.5	0.3
276.62	175	0.3
276.69	174.9	0.3
277.17	175.1	0.3
277.7	175.3	0.3
278.44	175.4	0.3
278.78	175.3	0.3
278.99	175.7	0.3
279.13	175.7	0.3
279.86	175.9	0.3
280.18	175.9	0.3
280.84	176.2	0.3
281.1	176.4	0.3
281.33	176.3	0.3
282.69	176.8	0.3
283.07	177.1	0.3
283.18	177	0.3
284.54	177.4	0.3
285.04	177.6	0.3
285.16	177.6	0.3
286.38	178	0.3
286.89	178.2	0.3
286.89	178.3	0.3
288.23	178.8	0.3
288.63	178.8	0.3
288.74	178.9	0.3
290.08	179.4	0.3
290.37	179.4	0.3
290.59	179.5	0.3
291.92	180	0.3
292.1	180.1	0.3
292.44	180	0.3
293.76	180.6	0.3
293.83	180.7	0.3
294.29	180.8	0.3
295.57	181.4	0.3
295.6	181.3	0.3
296.14	181.5	0.3
297.3	182.1	0.3
297.43	182.1	0.3
297.99	182.3	0.3
299.02	182.5	0.3
299.27	182.7	0.3
299.83	182.8	0.3
300.8	183.3	0.3
301.16	183.4	0.3
301.68	183.6	0.3
302.63	183.9	0.3
303.11	184.1	0.3
303.52	184.3	0.3
304.46	184.6	0.3
305.05	184.9	0.3
305.36	185.1	0.3
306.29	185.3	0.3
307	185.7	0.3
307.21	185.6	0.3
308.13	186.1	0.3
308.94	186.4	0.3
309.05	186.4	0.3
309.96	186.7	0.3
310.88	187.1	0.3
310.88	187.1	0.3
311.78	187.4	0.3
312.72	187.7	0.3
312.82	187.9	0.3
313.61	188	0.3
314.56	188.6	0.3
314.76	188.5	0.3
315.44	188.7	0.3
316.39	189.2	0.3
316.69	189.3	0.3
317.27	189.4	0.3
318.23	189.8	0.3
318.63	190	0.3
319.09	190.1	0.3
320.06	190.8	0.3
320.56	190.7	0.3
320.91	190.8	0.3
321.89	191.3	0.3
322.49	191.5	0.3
322.74	191.6	0.3
323.72	191.9	0.3
324.42	192.2	0.3
324.56	192.3	0.3
325.54	192.6	0.3
326.35	193	0.3
326.38	193	0.3
327.36	193.3	0.3
328.2	193.5	0.3
328.27	193.5	0.3
329.18	194	0.3
330.02	194.3	0.3
330.2	194.4	0.3
331.01	194.6	0.3
332.12	195	0.3
332.82	195.3	0.3
334.05	195.6	0.3
334.64	196	0.3
335.97	196.6	0.3
336.5	196.8	0.3
336.5	196.8	0.3
337.89	197.5	0.3
337.89	197.5	0.3
338.43	197.9	0.3
338.43	197.9	0.3
339.8	198.3	0.3
339.8	198.3	0.3
340.36	199.2	0.3
340.36	199.2	0.3
341.71	199.6	0.3
341.71	199.6	0.3
342.28	201.2	0.3
342.28	201.2	0.3
343.62	202.6	0.3
343.62	202.6	0.3
344.2	205.5	0.3
344.2	205.5	0.3
345.49	214	0.4
345.49	214	0.4
346.06	236	1.6
346.06	236	1.6
347.16	336.2	2.8
347.16	336.2	2.8
347.58	463.4	12.9
347.58	463.4	12.9

System: 1-ethyl-4-nitro-1,2,3-triazole; phases: Liquid, Gas
Property: Molar heat capacity at saturation pressure, J/K/mol (Liquid); method: Vacuum adiabatic calorimetry
Temperature, K	Molar heat capacity at saturation pressure, J/K/mol	uncertainty
349.84	274.6	31.1
349.84	274.6	31.1
350.63	234.5	0.3
351.56	234.6	0.3
352.44	234.8	0.3
353.36	235.1	0.3
354.24	235.5	0.3
355.44	235.8	0.3
356.04	236	0.3
357.23	236.5	0.3
357.83	236.6	0.3
359.03	236.9	0.3
359.63	237	0.3
360.82	237.4	0.3
361.43	237.7	0.3
362.61	238	0.3
363.23	238.2	0.3
364.4	238.4	0.3
365.02	238.7	0.3
366.2	238.9	0.3
366.82	239.2	0.3
367.98	239.4	0.3
368.62	239.8	0.3

System: 1-ethyl-4-nitro-1,2,3-triazole; phases: Crystal 3, Gas
Property: Molar entropy, J/K/mol (Crystal 3); method: Vacuum adiabatic calorimetry
Temperature, K	Molar entropy, J/K/mol	uncertainty
5	0.112	0.0133
10	1.009	0.055
15	3.248	0.137
20	6.542	0.202
25	10.49	0.25
30	14.82	0.31
35	19.37	0.37
40	24.05	0.43
45	28.79	0.46
50	33.54	0.52
60	42.97	0.64
70	52.19	0.77
80	61.13	0.86
90	69.79	1
100	78.14	1.09
110	86.22	1.18
120	94.04	1.3
130	101.6	1.5
140	109	1.5
150	116.2	1.5
160	123.2	1.5
170	130	1.8
180	136.8	1.8
190	143.4	1.8
200	149.9	1.8
210	156.4	2
220	162.8	2.1
223.6	165.1	2.1

System: 1-ethyl-4-nitro-1,2,3-triazole; phases: Crystal 2, Gas
Property: Molar entropy, J/K/mol (Crystal 2); method: Vacuum adiabatic calorimetry
Temperature, K	Molar entropy, J/K/mol	uncertainty
223.6	171.1	2.1
230	175.2	2.1
240	181.5	2.4
250	187.8	2.4
259.7	193.9	2.4

System: 1-ethyl-4-nitro-1,2,3-triazole; phases: Crystal 1, Gas
Property: Molar entropy, J/K/mol (Crystal 1); method: Vacuum adiabatic calorimetry
Temperature, K	Molar entropy, J/K/mol	uncertainty
259.7	196.9	2.4
260	197.1	2.4
270	203.5	2.7
280	209.8	2.7
290	216	2.7
298.15	221.1	2.7
300	222.2	2.7
305	225.2	2.7
310	228.2	3
315	231.2	3
320	234.2	3
330	240.2	3
340	246	3
349.04	251.2	3

System: 1-ethyl-4-nitro-1,2,3-triazole; phases: Liquid, Gas
Property: Molar entropy, J/K/mol (Liquid); method: Vacuum adiabatic calorimetry
Temperature, K	Molar entropy, J/K/mol	uncertainty
349.04	298.2	3.6
350	298.9	3.9
360	305.5	3.9
370	312	3.9

System: 1-ethyl-4-nitro-1,2,3-triazole; phases: Crystal 3, Crystal 2
Property: Molar heat capacity at constant pressure, J/K/mol (Crystal 3); method: Vacuum adiabatic calorimetry
Temperature, K	Molar heat capacity at constant pressure, J/K/mol	uncertainty
10	3.148	0.098
15	8.518	0.168
20	14.7	0.14
25	20.86	0.18
30	26.79	0.23
35	32.41	0.27
40	37.73	0.31
45	42.75	0.35
50	47.47	0.39
60	56.05	0.45
70	63.61	0.51
80	70.4	0.57
90	76.54	0.65
100	82.15	0.69
110	87.38	0.73
120	92.32	0.77
130	97.07	0.81
140	101.7	0.8
150	106.3	0.9
160	110.9	0.9
170	115.5	1
180	120.2	1
190	124.9	1
200	129.9	1
210	135	1
220	140.3	1.2
223.6	142.3	1.2

System: 1-ethyl-4-nitro-1,2,3-triazole; phases: Crystal 2, Crystal 1
Property: Molar heat capacity at constant pressure, J/K/mol (Crystal 2); method: Vacuum adiabatic calorimetry
Temperature, K	Molar heat capacity at constant pressure, J/K/mol	uncertainty
223.6	142.3	1.2
230	145.8	1.2
240	151.5	1.2
250	157.5	1.2
259.7	163.4	1.4

System: 1-ethyl-4-nitro-1,2,3-triazole; phases: Crystal 1, Liquid
Property: Molar heat capacity at constant pressure, J/K/mol (Crystal 1); method: Vacuum adiabatic calorimetry
Temperature, K	Molar heat capacity at constant pressure, J/K/mol	uncertainty
259.7	167.9	1.4
260	168	1.4
270	171.8	1.4
280	175.5	1.4
290	179.2	1.4
298.15	182.3	1.4
300	183	1.4
305	184.9	1.4
310	186.7	1.4
315	188.6	1.6
320	190.5	1.6
330	194.3	1.6
340	198	1.6
349.04	201.5	1.6

System: 1-ethyl-4-nitro-1,2,3-triazole; phases: Liquid, Gas
Property: Molar heat capacity at constant pressure, J/K/mol (Liquid); method: Vacuum adiabatic calorimetry
Temperature, K	Molar heat capacity at constant pressure, J/K/mol	uncertainty
349.04	233.9	1.8
350	234.2	1.8
360	237.2	1.8
370	240.1	2

System: 1-ethyl-4-nitro-1,2,3-triazole; phases: Crystal, Gas
Property: Vapor or sublimation pressure, kPa (Crystal); method: Calculated from knudsen effusion weight loss
Temperature, K	Vapor or sublimation pressure, kPa	uncertainty
323.43	0.0001558	7.8e-06
328.49	0.0002684	1.35e-05
333.48	0.000444	2.22e-05
338.51	0.00073	3.65e-05
318.43	9.31e-05	4.7e-06
313.42	5.05e-05	2.5e-06
333.47	0.0004378	2.19e-05
338.48	0.000752	3.76e-05
323.43	0.0001597	8e-06
318.41	9.23e-05	4.6e-06
328.43	0.0002714	1.36e-05
333.45	0.0004508	2.26e-05
323.44	0.0001591	8e-06
328.46	0.0002698	1.35e-05
338.5	0.0007514	3.76e-05
343.53	0.0012081	0.0001258

Reaction: -1 1-ethyl-4-nitro-1,2,3-triazole + 4 carbon dioxide + 2 nitrogen + 3 water + -4.5 oxygen
Property: Specific internal energy of reaction at constant volume, J/g
-18032.9
