Measured thermophysical data. Liquid-Liquid Equilibrium of Aqueous Two-Phase Systems Composed of Hydrophilic Alcohols  (Ethanol/2-Propanol/1-Propanol) and MgSO4 /ZnSO4 at (303.15 and 313.15) K and Correlation
Source: Thermochim. Acta, 2012, 10.1016/j.tca.2012.07.022
Compound 1: ethanol, C2H6O, InChI=1S/C2H6O/c1-2-3/h3H,2H2,1H3, purity 99.7%
Compound 2: water, H2O, InChI=1S/H2O/h1H2
Compound 3: zinc sulfate, O4SZn, InChI=1S/H2O4S.Zn/c1-5(2,3)4;/h(H2,1,2,3,4);/q;+2/p-2, purity 99.5%
Compound 4: propan-2-ol, C3H8O, InChI=1S/C3H8O/c1-3(2)4/h3-4H,1-2H3, purity 99.7%
Compound 5: propan-1-ol, C3H8O, InChI=1S/C3H8O/c1-2-3-4/h4H,2-3H2,1H3, purity 99%
Compound 6: magnesium sulfate, MgO4S, InChI=1S/Mg.H2O4S/c;1-5(2,3)4/h;(H2,1,2,3,4)/q+2;/p-2, purity 99%

System: ethanol + water + zinc sulfate; phases: Liquid mixture 1, Liquid mixture 2
Fixed: Pressure, kPa = 101
Property: Mass fraction of zinc sulfate (Liquid mixture 1); method: Titration method
Temperature, K	Mass fraction of ethanol	Mass fraction of zinc sulfate	uncertainty
303.15	0.0529	0.349	0.0043
303.15	0.0768	0.3056	0.0041
303.15	0.1002	0.2674	0.0035
303.15	0.1361	0.2218	0.0032
303.15	0.1472	0.2096	0.0029
303.15	0.155	0.2025	0.0027
303.15	0.1694	0.1896	0.0028
303.15	0.1857	0.1741	0.0028
303.15	0.2007	0.1602	0.0027
303.15	0.2142	0.1486	0.0026
303.15	0.2277	0.1385	0.0026
303.15	0.238	0.1296	0.0026
303.15	0.2475	0.122	0.0026
303.15	0.2559	0.1145	0.0027
303.15	0.2565	0.1149	0.0027
303.15	0.2734	0.0996	0.0025
303.15	0.3038	0.0787	0.0024
303.15	0.3165	0.0713	0.0024
303.15	0.3251	0.0651	0.0024
303.15	0.3369	0.0583	0.0022
303.15	0.3444	0.0559	0.0023
303.15	0.3503	0.0503	0.0024
303.15	0.3584	0.0471	0.0022
303.15	0.3652	0.0441	0.0022
303.15	0.3704	0.0417	0.0022
303.15	0.3974	0.033	0.0021
303.15	0.4116	0.0285	0.0021
303.15	0.4258	0.0249	0.0021
303.15	0.4403	0.022	0.0021
303.15	0.4488	0.0197	0.002
303.15	0.4613	0.0178	0.002
303.15	0.4713	0.0162	0.002
303.15	0.4801	0.0148	0.002
303.15	0.488	0.0136	0.002
303.15	0.4907	0.0128	0.002
303.15	0.4995	0.012	0.002
303.15	0.5101	0.0112	0.002
303.15	0.5189	0.0106	0.002
303.15	0.5295	0.01	0.002
303.15	0.5312	0.0092	0.0021
303.15	0.5342	0.0085	0.002
303.15	0.5419	0.0079	0.002
303.15	0.5485	0.0073	0.002
303.15	0.5556	0.0068	0.002
303.15	0.5622	0.0064	0.002
303.15	0.5669	0.006	0.002
303.15	0.5743	0.0056	0.002
303.15	0.5802	0.0053	0.002
313.15	0.0556	0.3343	0.0039
313.15	0.0675	0.3151	0.004
313.15	0.078	0.2976	0.0038
313.15	0.0883	0.2824	0.0033
313.15	0.0921	0.2806	0.0037
313.15	0.0991	0.2672	0.0044
313.15	0.1429	0.2161	0.003
313.15	0.1849	0.1746	0.0028
313.15	0.2085	0.1559	0.0027
313.15	0.23	0.1344	0.0027
313.15	0.2536	0.1154	0.0025
313.15	0.2624	0.11	0.0025
313.15	0.2765	0.0987	0.0025
313.15	0.2909	0.0878	0.0024
313.15	0.299	0.0835	0.0025
313.15	0.3028	0.079	0.0027
313.15	0.3115	0.0718	0.0023
313.15	0.3247	0.0659	0.0022
313.15	0.3261	0.0667	0.0022
313.15	0.3344	0.0605	0.0023
313.15	0.3472	0.0556	0.0022
313.15	0.3512	0.052	0.0025
313.15	0.3592	0.0468	0.0022
313.15	0.3663	0.0456	0.0021
313.15	0.3763	0.0413	0.0022
313.15	0.3881	0.0365	0.0021
313.15	0.4008	0.0325	0.0021
313.15	0.4112	0.0293	0.0021
313.15	0.4202	0.0266	0.0021
313.15	0.4293	0.0245	0.0021
313.15	0.438	0.0225	0.002
313.15	0.4461	0.0208	0.002
313.15	0.4533	0.0194	0.002
313.15	0.4603	0.0181	0.002
313.15	0.4672	0.0169	0.002
313.15	0.4744	0.0159	0.002
313.15	0.4824	0.0147	0.002
313.15	0.4899	0.0137	0.002
313.15	0.4964	0.0128	0.002
313.15	0.5018	0.012	0.002
313.15	0.5081	0.0113	0.002
313.15	0.5155	0.0106	0.002
313.15	0.5192	0.01	0.002
313.15	0.5247	0.0095	0.002
313.15	0.5291	0.009	0.002
313.15	0.5343	0.0086	0.002
313.15	0.5685	0.0082	0.002

System: ethanol + water + zinc sulfate; phases: Liquid mixture 2, Liquid mixture 1
Fixed: Temperature, K = 303.15
Fixed: Pressure, kPa = 101
Property: Mass fraction of zinc sulfate (Liquid mixture 2); method: Phase equilibration
Property: Mass fraction of zinc sulfate (Liquid mixture 1); method: Phase equilibration
Property: Mass fraction of ethanol (Liquid mixture 1); method: Phase equilibration
Mass fraction of ethanol	Mass fraction of zinc sulfate	uncertainty	Mass fraction of zinc sulfate	uncertainty	Mass fraction of ethanol	uncertainty
0.1056	0.2605	0.002	0.0497	0.002	0.3534	
0.0708	0.3076	0.002	0.0141	0.002	0.4862	
0.0808	0.2929	0.0034	0.0212	0.0021	0.4441	

System: propan-2-ol + water + zinc sulfate; phases: Liquid mixture 1, Liquid mixture 2
Fixed: Pressure, kPa = 101
Property: Mass fraction of zinc sulfate (Liquid mixture 1); method: Titration method
Temperature, K	Mass fraction of propan-2-ol	Mass fraction of zinc sulfate	uncertainty
303.15	0.0245	0.3178	0.0055
303.15	0.0414	0.2758	0.0048
303.15	0.0576	0.2461	0.0041
303.15	0.0755	0.2165	0.0047
303.15	0.079	0.2092	0.0034
303.15	0.0928	0.1921	0.0021
303.15	0.0955	0.1919	0.0031
303.15	0.1054	0.1784	0.0032
303.15	0.1125	0.1717	0.0029
303.15	0.1192	0.1645	0.0028
303.15	0.1317	0.1533	0.0026
303.15	0.1349	0.153	0.0027
303.15	0.144	0.1432	0.0028
303.15	0.1493	0.1397	0.0026
303.15	0.1554	0.1338	0.0026
303.15	0.1635	0.1283	0.0026
303.15	0.1647	0.1265	0.0026
303.15	0.1738	0.1193	0.0026
303.15	0.1817	0.1131	0.0025
303.15	0.1892	0.1076	0.0025
303.15	0.1963	0.1024	0.0025
303.15	0.2029	0.0976	0.0027
303.15	0.206	0.0934	0.0027
303.15	0.2119	0.0893	0.0023
303.15	0.2175	0.0869	0.0023
303.15	0.2292	0.0795	0.0024
303.15	0.2393	0.0732	0.0023
303.15	0.2487	0.0676	0.0023
303.15	0.2573	0.0631	0.0023
303.15	0.2651	0.0589	0.0023
303.15	0.2721	0.0554	0.0022
303.15	0.2789	0.052	0.0021
303.15	0.2856	0.0506	0.002
303.15	0.3134	0.039	0.0021
303.15	0.336	0.0314	0.0021
303.15	0.3533	0.0262	0.0021
303.15	0.3689	0.0224	0.0021
303.15	0.3817	0.0197	0.0021
303.15	0.3891	0.0175	0.002
303.15	0.4032	0.0155	0.0024
303.15	0.4053	0.0142	0.0024
303.15	0.4219	0.0127	0.002
303.15	0.427	0.0117	0.002
303.15	0.4431	0.0106	0.002
303.15	0.4506	0.0098	0.002
303.15	0.4539	0.0092	0.002
303.15	0.4569	0.0087	0.002
303.15	0.4661	0.008	0.002
303.15	0.4696	0.0075	0.002
303.15	0.4798	0.007	0.002
303.15	0.4816	0.0067	0.002
303.15	0.4832	0.0064	0.002
303.15	0.4924	0.006	0.002
303.15	0.4964	0.0058	0.002
313.15	0.0321	0.3218	0.0078
313.15	0.0426	0.2824	0.0074
313.15	0.0516	0.253	0.0051
313.15	0.0659	0.227	0.0037
313.15	0.0896	0.1951	0.0033
313.15	0.1055	0.1767	0.003
313.15	0.1223	0.1603	0.0027
313.15	0.1388	0.1465	0.0026
313.15	0.1526	0.1347	0.0026
313.15	0.1648	0.1251	0.0025
313.15	0.1776	0.1161	0.0025
313.15	0.1877	0.1086	0.0025
313.15	0.1979	0.1018	0.0024
313.15	0.2058	0.0964	0.0024
313.15	0.2142	0.0907	0.0024
313.15	0.2215	0.0859	0.0024
313.15	0.2284	0.0818	0.0023
313.15	0.2358	0.0775	0.0023
313.15	0.2419	0.074	0.0023
313.15	0.2474	0.0708	0.0023
313.15	0.2523	0.0679	0.0023
313.15	0.2576	0.0649	0.0023
313.15	0.2623	0.0624	0.0023
313.15	0.2667	0.06	0.0023
313.15	0.2711	0.0579	0.0022
313.15	0.2758	0.0557	0.0024
313.15	0.2816	0.0514	0.0025
313.15	0.312	0.04	0.0021
313.15	0.3303	0.0328	0.0021
313.15	0.3486	0.0277	0.0021
313.15	0.362	0.024	0.0021
313.15	0.3747	0.021	0.0021
313.15	0.3842	0.0187	0.002
313.15	0.3968	0.0166	0.002
313.15	0.4046	0.0145	0.002
313.15	0.4146	0.0137	0.002
313.15	0.421	0.0126	0.002
313.15	0.4302	0.0117	0.002
313.15	0.4382	0.0108	0.002
313.15	0.4398	0.0102	0.002
313.15	0.4487	0.0095	0.002
313.15	0.4506	0.009	0.002
313.15	0.4573	0.0084	0.002
313.15	0.4652	0.008	0.002
313.15	0.47	0.0076	0.002
313.15	0.4804	0.0071	0.0021
313.15	0.481	0.0068	0.002
313.15	0.4827	0.0065	0.002
313.15	0.4893	0.0062	0.002

System: propan-2-ol + water + zinc sulfate; phases: Liquid mixture 2, Liquid mixture 1
Fixed: Temperature, K = 303.15
Fixed: Pressure, kPa = 101
Property: Mass fraction of zinc sulfate (Liquid mixture 2); method: Phase equilibration
Property: Mass fraction of zinc sulfate (Liquid mixture 1); method: Phase equilibration
Property: Mass fraction of propan-2-ol (Liquid mixture 1); method: Phase equilibration
Mass fraction of propan-2-ol	Mass fraction of zinc sulfate	uncertainty	Mass fraction of zinc sulfate	uncertainty	Mass fraction of propan-2-ol	uncertainty
0.0679	0.226	0.002	0.0217	0.002	0.3714	
0.0814	0.2083	0.002	0.0306	0.002	0.3362	
0.0717	0.2208	0.0033	0.0233	0.0021	0.3642	

System: propan-1-ol + water + zinc sulfate; phases: Liquid mixture 1, Liquid mixture 2
Fixed: Pressure, kPa = 101
Property: Mass fraction of zinc sulfate (Liquid mixture 1); method: Titration method
Temperature, K	Mass fraction of propan-1-ol	Mass fraction of zinc sulfate	uncertainty
303.15	0.0306	0.3066	0.0022
303.15	0.0374	0.2434	0.0021
303.15	0.0488	0.2184	0.0021
303.15	0.0581	0.1988	0.0021
303.15	0.0679	0.1819	0.0021
303.15	0.0766	0.1671	0.002
303.15	0.0848	0.1543	0.002
303.15	0.092	0.1435	0.002
303.15	0.0976	0.1351	0.002
303.15	0.11	0.1265	0.002
303.15	0.1245	0.1185	0.002
303.15	0.1365	0.1093	0.002
303.15	0.1537	0.1022	0.002
303.15	0.1621	0.0962	0.002
303.15	0.1717	0.091	0.002
303.15	0.1817	0.0859	0.002
303.15	0.1912	0.0813	0.002
303.15	0.2014	0.0772	0.002
303.15	0.2103	0.0736	0.002
303.15	0.219	0.0703	0.002
303.15	0.2282	0.0671	0.002
303.15	0.2349	0.0642	0.002
303.15	0.25	0.06	0.002
303.15	0.2845	0.0502	0.002
303.15	0.3105	0.0457	0.002
303.15	0.34	0.0387	0.002
303.15	0.3712	0.0324	0.002
303.15	0.4	0.0267	0.002
303.15	0.42	0.0239	0.002
303.15	0.4365	0.0216	0.002
303.15	0.45	0.0193	0.002
303.15	0.4718	0.0158	0.002
303.15	0.4756	0.0152	0.002
303.15	0.48	0.0144	0.002
303.15	0.4857	0.0129	0.002
303.15	0.4921	0.0123	0.002
303.15	0.5012	0.011	0.002
303.15	0.5033	0.0094	0.002
303.15	0.504	0.0101	0.002
303.15	0.5123	0.0086	0.002
303.15	0.5143	0.008	0.002
303.15	0.5246	0.0074	0.002
313.15	0.0163	0.3463	0.0023
313.15	0.0287	0.2604	0.0021
313.15	0.0329	0.2476	0.0021
313.15	0.0363	0.2362	0.0021
313.15	0.0415	0.2249	0.0021
313.15	0.0456	0.2145	0.0021
313.15	0.0494	0.2058	0.0021
313.15	0.0525	0.1978	0.0021
313.15	0.0603	0.1888	0.0021
313.15	0.0635	0.1817	0.0021
313.15	0.0704	0.1739	0.002
313.15	0.0777	0.1666	0.002
313.15	0.0825	0.1605	0.002
313.15	0.0874	0.1546	0.002
313.15	0.0937	0.1492	0.002
313.15	0.0984	0.1441	0.002
313.15	0.1071	0.1389	0.002
313.15	0.1156	0.1339	0.002
313.15	0.1227	0.1293	0.002
313.15	0.1306	0.1251	0.002
313.15	0.1399	0.1206	0.002
313.15	0.1454	0.1166	0.002
313.15	0.1576	0.1107	0.002
313.15	0.17	0.1002	0.002
313.15	0.1832	0.0923	0.002
313.15	0.2001	0.0861	0.002
313.15	0.2312	0.0712	0.002
313.15	0.2567	0.0642	0.002
313.15	0.27	0.061	0.002
313.15	0.3001	0.0512	0.002
313.15	0.32	0.0468	0.002
313.15	0.3511	0.0385	0.002
313.15	0.3826	0.0325	0.002
313.15	0.4	0.0276	0.002
313.15	0.4332	0.0216	0.002
313.15	0.4405	0.0194	0.002
313.15	0.4506	0.017	0.002
313.15	0.4544	0.0153	0.002
313.15	0.4623	0.014	0.002
313.15	0.4668	0.0129	0.002
313.15	0.4688	0.012	0.002
313.15	0.4856	0.0109	0.002
313.15	0.5	0.0101	0.002
313.15	0.5088	0.0098	0.002
313.15	0.5102	0.0092	0.002
313.15	0.5189	0.0085	0.002
313.15	0.5261	0.008	0.002
313.15	0.5376	0.0074	0.002
313.15	0.5386	0.007	0.002
313.15	0.5433	0.0066	0.002

System: propan-1-ol + water + zinc sulfate; phases: Liquid mixture 2, Liquid mixture 1
Fixed: Temperature, K = 303.15
Fixed: Pressure, kPa = 101
Property: Mass fraction of zinc sulfate (Liquid mixture 2); method: Phase equilibration
Property: Mass fraction of zinc sulfate (Liquid mixture 1); method: Phase equilibration
Property: Mass fraction of propan-1-ol (Liquid mixture 1); method: Phase equilibration
Mass fraction of propan-1-ol	Mass fraction of zinc sulfate	uncertainty	Mass fraction of zinc sulfate	uncertainty	Mass fraction of propan-1-ol	uncertainty
0.1006	0.136	0.0028	0.011	0.002	0.4992	
0.1137	0.1247	0.002	0.014	0.002	0.48	
0.084	0.1537	0.002	0.007	0.002	0.5243	

System: ethanol + magnesium sulfate + water; phases: Liquid, Crystal
Fixed: Pressure, kPa = 101
Property: Mass fraction of magnesium sulfate (Liquid); method: Titration method
Temperature, K	Mass fraction of ethanol	Mass fraction of magnesium sulfate	uncertainty
303.15	0.0592	0.2598	0.0021
303.15	0.086	0.2343	0.0021
303.15	0.1061	0.2107	0.0021
303.15	0.1123	0.2045	0.0021
303.15	0.1312	0.1861	0.0021
303.15	0.1375	0.1813	0.0021
303.15	0.1554	0.166	0.002
303.15	0.1746	0.1505	0.002
303.15	0.193	0.1368	0.002
303.15	0.2097	0.1249	0.002
303.15	0.2249	0.1144	0.002
303.15	0.2377	0.1062	0.002
303.15	0.2483	0.0991	0.002
303.15	0.2578	0.0928	0.002
303.15	0.2672	0.087	0.002
303.15	0.2749	0.0823	0.002
303.15	0.2815	0.0782	0.002
303.15	0.2885	0.0742	0.002
303.15	0.295	0.0706	0.002
303.15	0.3006	0.0671	0.002
303.15	0.3052	0.0642	0.002
303.15	0.3115	0.0612	0.002
303.15	0.3154	0.0588	0.002
303.15	0.3199	0.0565	0.002
303.15	0.3247	0.0542	0.002
303.15	0.3507	0.0427	0.002
303.15	0.3662	0.0363	0.002
303.15	0.3817	0.0317	0.002
303.15	0.3944	0.0279	0.002
303.15	0.4053	0.0251	0.002
303.15	0.4165	0.0225	0.002
303.15	0.4256	0.0204	0.002
303.15	0.434	0.0186	0.002
303.15	0.442	0.0171	0.002
303.15	0.4637	0.0134	0.002
303.15	0.4684	0.0126	0.002
303.15	0.4727	0.0112	0.002
303.15	0.4827	0.0095	0.002
303.15	0.4989	0.0072	0.002
303.15	0.5195	0.0056	0.002
313.15	0.0635	0.2604	0.0021
313.15	0.0956	0.2211	0.0021
313.15	0.1228	0.1929	0.0021
313.15	0.1497	0.1695	0.002
313.15	0.17	0.1518	0.002
313.15	0.1939	0.1353	0.002
313.15	0.2099	0.1234	0.002
313.15	0.2243	0.1131	0.002
313.15	0.2399	0.1031	0.002
313.15	0.2526	0.0956	0.002
313.15	0.2636	0.0883	0.002
313.15	0.2734	0.0822	0.002
313.15	0.2815	0.077	0.002
313.15	0.289	0.0724	0.002
313.15	0.2971	0.0683	0.002
313.15	0.3037	0.0645	0.002
313.15	0.31	0.0612	0.002
313.15	0.3157	0.0584	0.002
313.15	0.3215	0.0555	0.002
313.15	0.327	0.053	0.002
313.15	0.3316	0.0508	0.002
313.15	0.3444	0.0457	0.002
313.15	0.3629	0.038	0.002
313.15	0.3799	0.0323	0.002
313.15	0.394	0.0282	0.002
313.15	0.4069	0.0248	0.002
313.15	0.4211	0.0217	0.002
313.15	0.4283	0.0195	0.002
313.15	0.4383	0.0177	0.002
313.15	0.4433	0.0161	0.002
313.15	0.4513	0.0148	0.002
313.15	0.4608	0.0134	0.002
313.15	0.4675	0.0125	0.002
313.15	0.473	0.0117	0.002
313.15	0.4798	0.0109	0.002
313.15	0.4862	0.0103	0.002
313.15	0.4915	0.0097	0.002
313.15	0.4964	0.0091	0.002
313.15	0.5018	0.0086	0.002
313.15	0.5062	0.0082	0.002
313.15	0.5117	0.0078	0.002

System: propan-2-ol + magnesium sulfate + water; phases: Liquid mixture 1, Liquid mixture 2
Fixed: Pressure, kPa = 101
Property: Mass fraction of magnesium sulfate (Liquid mixture 1); method: Titration method
Temperature, K	Mass fraction of propan-2-ol	Mass fraction of magnesium sulfate	uncertainty
303.15	0.0324	0.2344	0.0021
303.15	0.0464	0.2111	0.0021
303.15	0.0692	0.1768	0.0021
303.15	0.0817	0.1628	0.002
303.15	0.0947	0.1504	0.002
303.15	0.1069	0.1399	0.002
303.15	0.1188	0.1305	0.002
303.15	0.1303	0.1223	0.002
303.15	0.1628	0.1018	0.002
303.15	0.1728	0.096	0.002
303.15	0.1826	0.0907	0.002
303.15	0.1905	0.0864	0.002
303.15	0.1984	0.0821	0.002
303.15	0.2049	0.0786	0.002
303.15	0.2122	0.0749	0.002
303.15	0.2191	0.0713	0.002
303.15	0.2593	0.0555	0.002
303.15	0.2906	0.0428	0.002
303.15	0.3059	0.0366	0.002
303.15	0.3277	0.03	0.002
303.15	0.3435	0.0255	0.002
303.15	0.3539	0.0222	0.002
303.15	0.3668	0.0195	0.002
303.15	0.3799	0.0172	0.002
303.15	0.388	0.0156	0.002
303.15	0.3994	0.0141	0.002
303.15	0.4054	0.0129	0.002
303.15	0.4127	0.0119	0.002
303.15	0.421	0.011	0.002
303.15	0.4258	0.0103	0.002
303.15	0.4382	0.0095	0.002
303.15	0.4411	0.009	0.002
303.15	0.446	0.0085	0.002
303.15	0.4534	0.0079	0.002
303.15	0.459	0.0075	0.002
303.15	0.4641	0.0071	0.002
303.15	0.4695	0.0067	0.002
303.15	0.4752	0.0064	0.002
303.15	0.4773	0.0061	0.002
303.15	0.4822	0.0058	0.002
313.15	0.0359	0.2334	0.0021
313.15	0.0411	0.2148	0.0021
313.15	0.0499	0.1993	0.0021
313.15	0.0605	0.1851	0.0021
313.15	0.0707	0.1722	0.002
313.15	0.0818	0.1611	0.002
313.15	0.0981	0.1452	0.002
313.15	0.111	0.1359	0.002
313.15	0.117	0.1286	0.002
313.15	0.1305	0.1176	0.002
313.15	0.1404	0.1114	0.002
313.15	0.1518	0.1058	0.002
313.15	0.1618	0.1007	0.002
313.15	0.1694	0.0961	0.002
313.15	0.1765	0.0921	0.002
313.15	0.1848	0.0876	0.002
313.15	0.1902	0.0839	0.002
313.15	0.195	0.081	0.002
313.15	0.2015	0.078	0.002
313.15	0.2067	0.0753	0.002
313.15	0.2119	0.0728	0.002
313.15	0.2174	0.0703	0.002
313.15	0.2219	0.068	0.002
313.15	0.2273	0.0657	0.002
313.15	0.2713	0.0504	0.002
313.15	0.2934	0.04	0.002
313.15	0.3176	0.0338	0.002
313.15	0.3353	0.0284	0.002
313.15	0.3516	0.0243	0.002
313.15	0.3674	0.0211	0.002
313.15	0.3761	0.0188	0.002
313.15	0.3862	0.0168	0.002
313.15	0.3953	0.0152	0.002
313.15	0.4035	0.0139	0.002
313.15	0.4113	0.0127	0.002
313.15	0.4242	0.0116	0.002
313.15	0.4295	0.0108	0.002
313.15	0.4344	0.0101	0.002
313.15	0.4386	0.0095	0.002
313.15	0.4456	0.0089	0.002
313.15	0.4485	0.0083	0.002
313.15	0.4605	0.0077	0.002
313.15	0.463	0.0074	0.002
313.15	0.4659	0.007	0.002

System: propan-2-ol + magnesium sulfate + water; phases: Liquid mixture 2, Liquid mixture 1
Fixed: Temperature, K = 303.15
Fixed: Pressure, kPa = 101
Property: Mass fraction of magnesium sulfate (Liquid mixture 2); method: Phase equilibration
Property: Mass fraction of magnesium sulfate (Liquid mixture 1); method: Phase equilibration
Property: Mass fraction of propan-2-ol (Liquid mixture 1); method: Phase equilibration
Mass fraction of propan-2-ol	Mass fraction of magnesium sulfate	uncertainty	Mass fraction of magnesium sulfate	uncertainty	Mass fraction of propan-2-ol	uncertainty
0.0683	0.1766	0.002	0.0194	0.002	0.3695	
0.1115	0.1382	0.002	0.0379	0.002	0.2983	
0.0621	0.1833	0.002	0.0189	0.002	0.3722	

System: propan-1-ol + magnesium sulfate + water; phases: Liquid mixture 1, Liquid mixture 2
Fixed: Pressure, kPa = 101
Property: Mass fraction of magnesium sulfate (Liquid mixture 1); method: Titration method
Temperature, K	Mass fraction of propan-1-ol	Mass fraction of magnesium sulfate	uncertainty
303.15	0.0367	0.2262	0.005
303.15	0.052	0.1911	0.0044
303.15	0.0611	0.18	0.0046
303.15	0.0718	0.1509	0.005
303.15	0.085	0.1254	0.0044
303.15	0.0868	0.1178	0.0025
303.15	0.0902	0.1154	0.0028
303.15	0.0956	0.1095	0.0028
303.15	0.1022	0.104	0.0026
303.15	0.1087	0.0987	0.0026
303.15	0.1138	0.0941	0.0024
303.15	0.1224	0.0895	0.0023
303.15	0.1291	0.0857	0.0022
303.15	0.1387	0.0817	0.0022
303.15	0.144	0.0784	0.0023
303.15	0.1495	0.0752	0.0023
303.15	0.1559	0.0722	0.0021
303.15	0.171	0.0692	0.0021
303.15	0.1873	0.0628	0.0022
303.15	0.2007	0.0572	0.0021
303.15	0.222	0.0517	0.0021
303.15	0.2433	0.047	0.0021
303.15	0.2559	0.0433	0.0021
303.15	0.2685	0.0402	0.0021
303.15	0.28	0.0377	0.002
303.15	0.2926	0.0352	0.0021
303.15	0.3011	0.033	0.0021
303.15	0.3104	0.0311	0.002
303.15	0.3194	0.0292	0.002
303.15	0.3299	0.0273	0.002
303.15	0.3352	0.026	0.002
303.15	0.3422	0.0247	0.002
303.15	0.3483	0.0235	0.002
303.15	0.3542	0.0225	0.002
303.15	0.3609	0.0214	0.002
303.15	0.3662	0.0204	0.002
303.15	0.3713	0.0196	0.002
303.15	0.3756	0.0189	0.002
303.15	0.4018	0.015	0.002
303.15	0.4216	0.0127	0.002
303.15	0.4408	0.0108	0.002
303.15	0.4516	0.0095	0.002
303.15	0.4655	0.0084	0.002
303.15	0.4777	0.0074	0.002
303.15	0.4922	0.0066	0.002
303.15	0.5048	0.0059	0.002
303.15	0.5093	0.0055	0.002
313.15	0.0346	0.22	0.0041
313.15	0.0469	0.1985	0.0047
313.15	0.052	0.1823	0.0045
313.15	0.0617	0.1678	0.0041
313.15	0.0868	0.1217	0.0042
313.15	0.088	0.1286	0.0122
313.15	0.0902	0.1154	0.0049
313.15	0.0956	0.1095	0.0028
313.15	0.1022	0.104	0.0026
313.15	0.1087	0.0987	0.0026
313.15	0.1138	0.0941	0.0024
313.15	0.1224	0.0895	0.0023
313.15	0.1291	0.0857	0.0022
313.15	0.1387	0.0817	0.0022
313.15	0.144	0.0784	0.0023
313.15	0.1495	0.0752	0.0023
313.15	0.1559	0.0722	0.0022
313.15	0.1615	0.0696	0.0022
313.15	0.1688	0.0668	0.0022
313.15	0.1751	0.0643	0.0021
313.15	0.182	0.0618	0.0021
313.15	0.1883	0.0597	0.0021
313.15	0.1952	0.0575	0.0021
313.15	0.2015	0.0553	0.0021
313.15	0.2075	0.0537	0.002
313.15	0.2119	0.0548	0.0021
313.15	0.2587	0.0423	0.0021
313.15	0.2888	0.0343	0.002
313.15	0.3266	0.0282	0.002
313.15	0.3415	0.0242	0.002
313.15	0.3636	0.0209	0.002
313.15	0.3773	0.0185	0.002
313.15	0.3905	0.0166	0.002
313.15	0.4013	0.015	0.002
313.15	0.4125	0.0136	0.002
313.15	0.4246	0.0123	0.002
313.15	0.4416	0.0112	0.0021
313.15	0.444	0.0105	0.002
313.15	0.451	0.0097	0.002
313.15	0.4572	0.0091	0.002
313.15	0.4674	0.0085	0.002
313.15	0.4723	0.008	0.002
313.15	0.4779	0.0075	0.002
313.15	0.4881	0.007	0.002
313.15	0.4969	0.0066	0.002
313.15	0.502	0.0062	0.002
313.15	0.5088	0.0059	0.002
