Measured thermophysical data. The thermal physical properties and stability of the eutectic composition in a Na2CO3-NaCl binary system
Source: Thermochim. Acta, 2014, 10.1016/j.tca.2014.07.002
Compound 1: sodium carbonate, CNa2O3, InChI=1S/CH2O3.2Na/c2-1(3)4;;/h(H2,2,3,4);;/q;2*+1/p-2
Compound 2: sodium chloride, ClNa, InChI=1S/ClH.Na/h1H;/q;+1/p-1

System: sodium carbonate + sodium chloride; phases: Crystal, Crystal, Liquid, Air at 1 atmosphere
Property: Eutectic temperature, K (Crystal); method: DTA
Eutectic temperature, K	uncertainty
909	1

System: sodium carbonate + sodium chloride; phases: Liquid
Fixed: Pressure, kPa = 101
Fixed: Mole fraction of sodium carbonate = 0.423
Property: Viscosity, Pa*s (Liquid); method: CONCYL:UFactor:5
Temperature, K	Viscosity, Pa*s	uncertainty
973	0.0170213	0.0004043
1023	0.0092851	0.0002314
1073	0.0053103	0.0001422
1123	0.0024681	7.88e-05
1173	0.0012194	5.11e-05

System: sodium carbonate + sodium chloride; phases: Liquid
Fixed: Pressure, kPa = 101
Fixed: Mole fraction of sodium carbonate = 0.423
Property: Mass density, kg/m3 (Liquid); method: Buoyancy - hydrostatic balance
Temperature, K	Mass density, kg/m3	uncertainty
973	1830	40
1023	1810	40
1073	1800	40
1123	1760	40
1173	1730	40
1223	1720	30
1273	1680	30
