Measured thermophysical data. Determining influences of silver nanoparticles on morphology and thermal properties of electrospun polyacrylonitrile-based form-stable phase change composite fibrous membranes loading fatty acid ester/eutectics
Source: Thermochim. Acta, 2019, 10.1016/j.tca.2018.11.002
Compound 1: butyl octadecanoate, C22H44O2, InChI=1S/C22H44O2/c1-3-5-7-8-9-10-11-12-13-14-15-16-17-18-19-20-22(23)24-21-6-4-2/h3-21H2,1-2H3, purity 98%
Compound 2: decanoic acid, C10H20O2, InChI=1S/C10H20O2/c1-2-3-4-5-6-7-8-9-10(11)12/h2-9H2,1H3,(H,11,12), purity 98%
Compound 3: tetradecanoic acid, C14H28O2, InChI=1S/C14H28O2/c1-2-3-4-5-6-7-8-9-10-11-12-13-14(15)16/h2-13H2,1H3,(H,15,16), purity 98%
Compound 4: hexadecanoic acid, C16H32O2, InChI=1S/C16H32O2/c1-2-3-4-5-6-7-8-9-10-11-12-13-14-15-16(17)18/h2-15H2,1H3,(H,17,18), purity 98%
Compound 5: octadecanoic acid, C18H36O2, InChI=1S/C18H36O2/c1-2-3-4-5-6-7-8-9-10-11-12-13-14-15-16-17-18(19)20/h2-17H2,1H3,(H,19,20), purity 98%

System: butyl octadecanoate; phases: Crystal 1, Liquid, Air at 1 atmosphere
Property: Normal melting temperature, K (Crystal 1); method: DTA:corrimp
Normal melting temperature, K	uncertainty
300.06	2.85

System: butyl octadecanoate; phases: Crystal 1, Liquid, Air at 1 atmosphere
Property: Molar enthalpy of transition or fusion, kJ/mol (Crystal 1); method: DSC
Molar enthalpy of transition or fusion, kJ/mol	uncertainty
58.478197252	1.771034512

System: decanoic acid + tetradecanoic acid; phases: Crystal, Crystal, Liquid, Air at 1 atmosphere
Property: Eutectic temperature, K (Crystal); method: DTA
Eutectic temperature, K	uncertainty
299.17	2.85

System: decanoic acid + tetradecanoic acid; phases: Crystal, Crystal, Liquid, Air at 1 atmosphere
Property: Eutectic composition: mass fraction of decanoic acid (Crystal); method: Derived from phase diagram analysis
Eutectic composition: mass fraction of decanoic acid	uncertainty
0.7839	0.0022

System: decanoic acid + hexadecanoic acid + octadecanoic acid; phases: Crystal, Crystal, Crystal, Liquid, Air at 1 atmosphere
Property: Eutectic temperature, K (Crystal); method: DTA
Eutectic temperature, K	uncertainty
298.27	2.03

System: decanoic acid + hexadecanoic acid + octadecanoic acid; phases: Crystal, Crystal, Crystal, Liquid, Air at 1 atmosphere
Property: Eutectic composition: mass fraction of decanoic acid (Crystal); method: Derived from phase diagram analysis
Eutectic composition: mass fraction of decanoic acid	uncertainty
0.8382	0.0016

System: decanoic acid + hexadecanoic acid + octadecanoic acid; phases: Crystal, Crystal, Crystal, Liquid, Air at 1 atmosphere
Property: Eutectic composition: mass fraction of hexadecanoic acid (Crystal); method: Derived from phase diagram analysis
Eutectic composition: mass fraction of hexadecanoic acid	uncertainty
0.1019	0.001
