Measured thermophysical data. Volumetric, acoustic, and UV absorption studies on solute solvent interactions of dipeptides of glycine with aqueous amoxicillin solutions
Source: Thermochim. Acta, 2014, 10.1016/j.tca.2014.07.025
Compound 1: glycylglycine, C4H8N2O3, InChI=1S/C4H8N2O3/c5-1-3(7)6-2-4(8)9/h1-2,5H2,(H,6,7)(H,8,9), purity 99.9%
Compound 2: glycyl-L-leucine, C8H16N2O3, InChI=1S/C8H16N2O3/c1-5(2)3-6(8(12)13)10-7(11)4-9/h5-6H,3-4,9H2,1-2H3,(H,10,11)(H,12,13)/t6-/m0/s1, purity 98.5%
Compound 3: amoxicillin, C16H19N3O5S, InChI=1S/C16H19N3O5S/c1-16(2)11(15(23)24)19-13(22)10(14(19)25-16)18-12(21)9(17)7-3-5-8(20)6-4-7/h3-6,9-11,14,20H,17H2,1-2H3,(H,18,21)(H,23,24)/t9-,10-,11+,14-/m1/s1, purity 99%
Compound 4: water, H2O, InChI=1S/H2O/h1H2

System: water; phases: Liquid
Fixed: Pressure, kPa = 100
Property: Mass density, kg/m3 (Liquid); method: Vibrating tube method
Temperature, K	Mass density, kg/m3	uncertainty
305.15	995.09	0.107
310.15	993.403	0.107
315.15	991.51	0.107

System: water; phases: Liquid
Fixed: Pressure, kPa = 100
Fixed: Frequency, MHz = 3
Property: Speed of sound, m/s (Liquid); method: Sing-around technique in a fixed-path interferometer
Temperature, K	Speed of sound, m/s	uncertainty
305.15	1513.49	1.29
310.15	1523.5	1.29
315.15	1532.17	1.29

System: glycylglycine + water + amoxicillin; phases: Liquid
Fixed: Pressure, kPa = 100
Property: Mass density, kg/m3 (Liquid); method: Vibrating tube method
Temperature, K	Solvent: Molality, mol/kg of amoxicillin	Molality, mol/kg of glycylglycine	Mass density, kg/m3	uncertainty
305.15	0	0	995.09	0.606
305.15	0	0.00206	995.2	0.606
305.15	0	0.00597	995.41	0.606
305.15	0	0.00797	995.517	0.606
305.15	0	0.01021	995.637	0.606
305.15	0	0.02015	996.168	0.606
305.15	0	0.05037	997.778	0.605
305.15	0	0.10077	1000.446	0.605
305.15	0	0.20215	1005.75	0.61
305.15	0	0.29595	1010.581	0.605
305.15	0	0.40001	1015.858	0.605
310.15	0	0	993.403	0.606
310.15	0	0.00206	993.513	0.606
310.15	0	0.00597	993.721	0.606
310.15	0	0.00797	993.827	0.606
310.15	0	0.01021	993.946	0.606
310.15	0	0.02015	994.474	0.606
310.15	0	0.05037	996.073	0.606
310.15	0	0.10077	998.723	0.605
310.15	0	0.20215	1003.99	0.605
310.15	0	0.29595	1008.788	0.605
310.15	0	0.40001	1014.031	0.605
315.15	0	0	991.51	0.606
315.15	0	0.00206	991.618	0.606
315.15	0	0.00597	991.824	0.606
315.15	0	0.00797	991.929	0.606
315.15	0	0.01021	992.047	0.606
315.15	0	0.02015	992.568	0.606
315.15	0	0.05037	994.147	0.606
315.15	0	0.10077	996.764	0.605
315.15	0	0.20215	1001.967	0.605
315.15	0	0.29595	1006.705	0.605
315.15	0	0.40001	1011.879	0.605
305.15	0.0005	0	995.743	0.604
305.15	0.0005	0.00223	995.861	0.603
305.15	0.0005	0.00593	996.057	0.603
305.15	0.0005	0.00809	996.172	0.603
305.15	0.0005	0.00993	996.269	0.603
305.15	0.0005	0.02032	996.819	0.603
305.15	0.0005	0.05179	998.479	0.603
305.15	0.0005	0.10014	1001.012	0.603
305.15	0.0005	0.20062	1006.214	0.604
305.15	0.0005	0.29618	1011.083	0.604
305.15	0.0005	0.40029	1016.307	0.604
310.15	0.0005	0	994.045	0.604
310.15	0.0005	0.00223	994.162	0.604
310.15	0.0005	0.00593	994.357	0.604
310.15	0.0005	0.00809	994.471	0.603
310.15	0.0005	0.00993	994.568	0.604
310.15	0.0005	0.02032	995.114	0.603
310.15	0.0005	0.05179	996.763	0.603
310.15	0.0005	0.10014	999.279	0.603
310.15	0.0005	0.20062	1004.447	0.603
310.15	0.0005	0.29618	1009.287	0.604
310.15	0.0005	0.40029	1014.477	0.604
315.15	0.0005	0	992.153	0.604
315.15	0.0005	0.00223	992.27	0.604
315.15	0.0005	0.00593	992.463	0.604
315.15	0.0005	0.00809	992.576	0.604
315.15	0.0005	0.00993	992.672	0.604
315.15	0.0005	0.02032	993.214	0.604
315.15	0.0005	0.05179	994.851	0.603
315.15	0.0005	0.10014	997.349	0.603
315.15	0.0005	0.20062	1002.479	0.603
315.15	0.0005	0.29618	1007.282	0.604
315.15	0.0005	0.40029	1012.433	0.604
305.15	0.002	0	995.924	0.603
305.15	0.002	0.00199	996.029	0.603
305.15	0.002	0.00601	996.241	0.637
305.15	0.002	0.00793	996.342	0.603
305.15	0.002	0.00988	996.444	0.603
305.15	0.002	0.0131	996.613	0.603
305.15	0.002	0.04988	998.541	0.603
305.15	0.002	0.09955	1001.126	0.603
305.15	0.002	0.19894	1006.238	0.603
305.15	0.002	0.3052	1011.614	0.604
305.15	0.002	0.40239	1016.453	0.604
310.15	0.002	0	994.23	0.603
310.15	0.002	0.00199	994.334	0.603
310.15	0.002	0.00601	994.545	0.904
310.15	0.002	0.00793	994.645	0.603
310.15	0.002	0.00988	994.747	0.603
310.15	0.002	0.0131	994.915	0.603
310.15	0.002	0.04988	996.831	0.603
310.15	0.002	0.09955	999.399	0.603
310.15	0.002	0.19894	1004.478	0.603
310.15	0.002	0.3052	1009.82	0.604
310.15	0.002	0.40239	1014.627	0.604
315.15	0.002	0	992.334	0.603
315.15	0.002	0.00199	992.437	0.603
315.15	0.002	0.00601	992.646	0.642
315.15	0.002	0.00793	992.746	0.603
315.15	0.002	0.00988	992.847	0.603
315.15	0.002	0.0131	993.014	0.603
315.15	0.002	0.04988	994.916	0.603
315.15	0.002	0.09955	997.466	0.603
315.15	0.002	0.19894	1002.508	0.603
315.15	0.002	0.3052	1007.812	0.604
315.15	0.002	0.40239	1012.585	0.604
305.15	0.0035	0	996.115	0.603
305.15	0.0035	0.00202	996.22	0.603
305.15	0.0035	0.00593	996.424	0.603
305.15	0.0035	0.00799	996.532	0.603
305.15	0.0035	0.00989	996.631	0.603
305.15	0.0035	0.02004	997.159	0.603
305.15	0.0035	0.05043	998.736	0.603
305.15	0.0035	0.10056	1001.32	0.603
305.15	0.0035	0.20013	1006.393	0.604
305.15	0.0035	0.29869	1011.335	0.604
305.15	0.0035	0.39858	1016.265	0.604
310.15	0.0035	0	994.412	0.603
310.15	0.0035	0.00202	994.517	0.603
310.15	0.0035	0.00593	994.719	0.603
310.15	0.0035	0.00799	994.825	0.603
310.15	0.0035	0.00989	994.924	0.603
310.15	0.0035	0.02004	995.448	0.603
310.15	0.0035	0.05043	997.011	0.603
310.15	0.0035	0.10056	999.574	0.603
310.15	0.0035	0.20013	1004.603	0.603
310.15	0.0035	0.29869	1009.503	0.604
310.15	0.0035	0.39858	1014.391	0.604
315.15	0.0035	0	992.522	0.603
315.15	0.0035	0.00202	992.626	0.603
315.15	0.0035	0.00593	992.827	0.603
315.15	0.0035	0.00799	992.933	0.603
315.15	0.0035	0.00989	993.03	0.603
315.15	0.0035	0.02004	993.551	0.603
315.15	0.0035	0.05043	995.105	0.603
315.15	0.0035	0.10056	997.652	0.603
315.15	0.0035	0.20013	1002.65	0.603
315.15	0.0035	0.29869	1007.52	0.604
315.15	0.0035	0.39858	1012.377	0.604

System: glycylglycine + water + amoxicillin; phases: Liquid
Fixed: Pressure, kPa = 100
Fixed: Frequency, MHz = 3
Property: Speed of sound, m/s (Liquid); method: Sing-around technique in a fixed-path interferometer
Temperature, K	Solvent: Molality, mol/kg of amoxicillin	Molality, mol/kg of glycylglycine	Speed of sound, m/s	uncertainty
305.15	0	0	1513.49	1.29
305.15	0	0.00206	1514.12	1.29
305.15	0	0.00597	1514.76	1.28
305.15	0	0.00797	1515.2	1.28
305.15	0	0.01021	1515.42	1.28
305.15	0	0.02015	1515.76	1.28
305.15	0	0.05037	1517.78	1.28
305.15	0	0.10077	1521.64	1.28
305.15	0	0.20215	1529.46	1.29
305.15	0	0.29595	1535.99	1.29
305.15	0	0.40001	1542.53	1.3
310.15	0	0	1523.5	1.29
310.15	0	0.00206	1524.08	1.29
310.15	0	0.00597	1524.71	1.29
310.15	0	0.00797	1525.07	1.29
310.15	0	0.01021	1525.24	1.29
310.15	0	0.02015	1525.56	1.29
310.15	0	0.05037	1527.45	1.29
310.15	0	0.10077	1531.22	1.29
310.15	0	0.20215	1538.82	1.29
310.15	0	0.29595	1545.36	1.29
310.15	0	0.40001	1551.62	1.3
315.15	0	0	1532.17	1.29
315.15	0	0.00206	1532.36	1.29
315.15	0	0.00597	1532.92	1.29
315.15	0	0.00797	1533.52	1.29
315.15	0	0.01021	1533.63	1.29
315.15	0	0.02015	1533.95	1.29
315.15	0	0.05037	1535.76	1.29
315.15	0	0.10077	1539.44	1.29
315.15	0	0.20215	1546.87	1.29
315.15	0	0.29595	1553.02	1.29
315.15	0	0.40001	1559.32	1.3
305.15	0.0005	0	1514.69	1.28
305.15	0.0005	0.00223	1514.81	1.28
305.15	0.0005	0.00593	1514.97	1.28
305.15	0.0005	0.00809	1515.18	1.28
305.15	0.0005	0.00993	1515.48	1.28
305.15	0.0005	0.02032	1515.8	1.28
305.15	0.0005	0.05179	1517.84	1.28
305.15	0.0005	0.10014	1521.51	1.28
305.15	0.0005	0.20062	1529.45	1.29
305.15	0.0005	0.29618	1536.55	1.29
305.15	0.0005	0.40029	1544.4	1.29
310.15	0.0005	0	1524.61	1.29
310.15	0.0005	0.00223	1524.79	1.29
310.15	0.0005	0.00593	1524.99	1.29
310.15	0.0005	0.00809	1525.11	1.29
310.15	0.0005	0.00993	1525.37	1.29
310.15	0.0005	0.02032	1525.73	1.29
310.15	0.0005	0.05179	1527.58	1.29
310.15	0.0005	0.10014	1531.15	1.29
310.15	0.0005	0.20062	1539.03	1.29
310.15	0.0005	0.29618	1545.8	1.29
310.15	0.0005	0.40029	1553.52	1.29
315.15	0.0005	0	1532.91	1.29
315.15	0.0005	0.00223	1532.96	1.29
315.15	0.0005	0.00593	1533.01	1.29
315.15	0.0005	0.00809	1533.25	1.29
315.15	0.0005	0.00993	1533.58	1.29
315.15	0.0005	0.02032	1534.02	1.29
315.15	0.0005	0.05179	1535.91	1.29
315.15	0.0005	0.10014	1539.39	1.29
315.15	0.0005	0.20062	1547.09	1.29
315.15	0.0005	0.29618	1553.66	1.29
315.15	0.0005	0.40029	1560.96	1.29
305.15	0.002	0	1515.03	1.28
305.15	0.002	0.00199	1515.25	1.28
305.15	0.002	0.00601	1515.39	1.32
305.15	0.002	0.00793	1515.98	1.28
305.15	0.002	0.00988	1516.12	1.28
305.15	0.002	0.0131	1516.45	1.28
305.15	0.002	0.04988	1518.81	1.28
305.15	0.002	0.09955	1522.01	1.29
305.15	0.002	0.19894	1528.94	1.29
305.15	0.002	0.3052	1537.64	1.29
305.15	0.002	0.40239	1544.6	1.29
310.15	0.002	0	1524.84	1.29
310.15	0.002	0.00199	1525.01	1.29
310.15	0.002	0.00601	1525.45	1.42
310.15	0.002	0.00793	1525.54	1.29
310.15	0.002	0.00988	1525.86	1.29
310.15	0.002	0.0131	1525.98	1.29
310.15	0.002	0.04988	1528.78	1.29
310.15	0.002	0.09955	1531.75	1.29
310.15	0.002	0.19894	1538.36	1.29
310.15	0.002	0.3052	1546.96	1.29
310.15	0.002	0.40239	1553.64	1.29
315.15	0.002	0	1533.22	1.29
315.15	0.002	0.00199	1533.45	1.29
315.15	0.002	0.00601	1533.65	1.3
315.15	0.002	0.00793	1533.78	1.29
315.15	0.002	0.00988	1533.98	1.29
315.15	0.002	0.0131	1534.56	1.29
315.15	0.002	0.04988	1537.01	1.29
315.15	0.002	0.09955	1540.01	1.29
315.15	0.002	0.19894	1546.42	1.29
315.15	0.002	0.3052	1554.63	1.29
315.15	0.002	0.40239	1561.28	1.29
305.15	0.0035	0	1514.36	1.28
305.15	0.0035	0.00202	1514.8	1.28
305.15	0.0035	0.00593	1514.96	1.28
305.15	0.0035	0.00799	1515.01	1.28
305.15	0.0035	0.00989	1515.41	1.28
305.15	0.0035	0.02004	1516.77	1.28
305.15	0.0035	0.05043	1519.25	1.28
305.15	0.0035	0.10056	1523.39	1.29
305.15	0.0035	0.20013	1529.99	1.29
305.15	0.0035	0.29869	1537.08	1.29
305.15	0.0035	0.39858	1544.26	1.29
310.15	0.0035	0	1524.3	1.29
310.15	0.0035	0.00202	1524.54	1.29
310.15	0.0035	0.00593	1524.73	1.29
310.15	0.0035	0.00799	1524.85	1.29
310.15	0.0035	0.00989	1525.14	1.29
310.15	0.0035	0.02004	1526.48	1.29
310.15	0.0035	0.05043	1529.45	1.29
310.15	0.0035	0.10056	1532.89	1.29
310.15	0.0035	0.20013	1539.35	1.29
310.15	0.0035	0.29869	1546.37	1.29
310.15	0.0035	0.39858	1553.33	1.29
315.15	0.0035	0	1532.53	1.29
315.15	0.0035	0.00202	1532.92	1.29
315.15	0.0035	0.00593	1533.11	1.29
315.15	0.0035	0.00799	1533.27	1.29
315.15	0.0035	0.00989	1533.52	1.29
315.15	0.0035	0.02004	1534.81	1.29
315.15	0.0035	0.05043	1537.06	1.29
315.15	0.0035	0.10056	1540.45	1.29
315.15	0.0035	0.20013	1547.39	1.29
315.15	0.0035	0.29869	1554.09	1.29
315.15	0.0035	0.39858	1560.84	1.29

System: glycyl-L-leucine + water + amoxicillin; phases: Liquid
Fixed: Pressure, kPa = 100
Property: Mass density, kg/m3 (Liquid); method: Vibrating tube method
Temperature, K	Solvent: Molality, mol/kg of amoxicillin	Molality, mol/kg of glycyl-L-leucine	Mass density, kg/m3	uncertainty
305.15	0	0	995.09	0.627
305.15	0	0.00196	995.189	0.627
305.15	0	0.00595	995.39	0.627
305.15	0	0.00811	995.498	0.627
305.15	0	0.01008	995.597	0.627
305.15	0	0.02014	996.102	0.627
305.15	0	0.05085	997.635	0.626
305.15	0	0.10018	1000.07	0.63
305.15	0	0.19911	1004.855	0.626
305.15	0	0.29898	1009.555	0.627
310.15	0	0	993.403	0.627
310.15	0	0.00196	993.501	0.627
310.15	0	0.00595	993.701	0.627
310.15	0	0.00811	993.809	0.627
310.15	0	0.01008	993.908	0.627
310.15	0	0.02014	994.41	0.63
310.15	0	0.05085	995.935	0.626
310.15	0	0.10018	998.358	0.626
310.15	0	0.19911	1003.118	0.626
310.15	0	0.29898	1007.795	0.626
315.15	0	0	991.51	0.627
315.15	0	0.00196	991.607	0.627
315.15	0	0.00595	991.806	0.627
315.15	0	0.00811	991.913	0.627
315.15	0	0.01008	992.01	0.627
315.15	0	0.02014	992.508	0.627
315.15	0	0.05085	994.019	0.626
315.15	0	0.10018	996.42	0.626
315.15	0	0.19911	1001.137	0.625
315.15	0	0.29898	1005.77	0.626
305.15	0.0005	0	995.743	0.625
305.15	0.0005	0.00197	995.837	0.625
305.15	0.0005	0.00574	996.017	0.625
305.15	0.0005	0.00819	996.134	0.625
305.15	0.0005	0.01001	996.221	0.625
305.15	0.0005	0.01998	996.696	0.625
305.15	0.0005	0.05015	998.124	0.625
305.15	0.0005	0.10121	1000.515	0.625
305.15	0.0005	0.19898	1004.997	0.626
305.15	0.0005	0.30656	1009.791	0.627
310.15	0.0005	0	994.045	0.625
310.15	0.0005	0.00197	994.139	0.625
310.15	0.0005	0.00574	994.318	0.625
310.15	0.0005	0.00819	994.434	0.625
310.15	0.0005	0.01001	994.521	0.625
310.15	0.0005	0.01998	994.993	0.625
310.15	0.0005	0.05015	996.414	0.625
310.15	0.0005	0.10121	998.792	0.625
310.15	0.0005	0.19898	1003.251	0.625
310.15	0.0005	0.30656	1008.019	0.626
315.15	0.0005	0	992.153	0.625
315.15	0.0005	0.00197	992.246	0.625
315.15	0.0005	0.00574	992.424	0.625
315.15	0.0005	0.00819	992.54	0.63
315.15	0.0005	0.01001	992.626	0.625
315.15	0.0005	0.01998	993.096	0.625
315.15	0.0005	0.05015	994.509	0.625
315.15	0.0005	0.10121	996.873	0.625
315.15	0.0005	0.19898	1001.309	0.625
315.15	0.0005	0.30656	1006.052	0.626
305.15	0.002	0	995.924	0.625
305.15	0.002	0.00207	996.019	0.625
305.15	0.002	0.00639	996.217	0.625
305.15	0.002	0.00758	996.272	0.625
305.15	0.002	0.01121	996.438	0.625
305.15	0.002	0.02056	996.866	0.625
305.15	0.002	0.05045	998.224	0.625
305.15	0.002	0.10145	1000.516	0.625
305.15	0.002	0.19947	1004.829	0.626
305.15	0.002	0.30054	1009.152	0.627
310.15	0.002	0	994.23	0.62
310.15	0.002	0.00207	994.325	0.625
310.15	0.002	0.00639	994.522	0.625
310.15	0.002	0.00758	994.576	0.625
310.15	0.002	0.01121	994.741	0.625
310.15	0.002	0.02056	995.167	0.625
310.15	0.002	0.05045	996.518	0.625
310.15	0.002	0.10145	998.798	0.625
310.15	0.002	0.19947	1003.089	0.625
310.15	0.002	0.30054	1007.39	0.626
315.15	0.002	0	992.334	0.625
315.15	0.002	0.00207	992.428	0.625
315.15	0.002	0.00639	992.624	0.625
315.15	0.002	0.00758	992.678	0.625
315.15	0.002	0.01121	992.843	0.625
315.15	0.002	0.02056	993.266	0.625
315.15	0.002	0.05045	994.612	0.625
315.15	0.002	0.10145	996.881	0.625
315.15	0.002	0.19947	1001.15	0.63
315.15	0.002	0.30054	1005.43	0.626
305.15	0.0035	0	996.115	0.625
305.15	0.0035	0.002	996.205	0.625
305.15	0.0035	0.00601	996.384	0.625
305.15	0.0035	0.008	996.473	0.625
305.15	0.0035	0.01012	996.568	0.625
305.15	0.0035	0.01989	997.003	0.625
305.15	0.0035	0.04878	998.284	0.625
305.15	0.0035	0.10012	1000.535	0.625
305.15	0.0035	0.19899	1004.776	0.626
305.15	0.0035	0.29875	1008.934	0.626
310.15	0.0035	0	994.412	0.625
310.15	0.0035	0.002	994.502	0.625
310.15	0.0035	0.00601	994.681	0.625
310.15	0.0035	0.008	994.77	0.62
310.15	0.0035	0.01012	994.865	0.625
310.15	0.0035	0.01989	995.3	0.625
310.15	0.0035	0.04878	996.581	0.625
310.15	0.0035	0.10012	998.832	0.625
310.15	0.0035	0.19899	1003.073	0.625
310.15	0.0035	0.29875	1007.234	0.626
315.15	0.0035	0	992.522	0.625
315.15	0.0035	0.002	992.612	0.625
315.15	0.0035	0.00601	992.791	0.625
315.15	0.0035	0.008	992.88	0.62
315.15	0.0035	0.01012	992.975	0.625
315.15	0.0035	0.01989	993.411	0.625
315.15	0.0035	0.04878	994.693	0.625
315.15	0.0035	0.10012	996.945	0.625
315.15	0.0035	0.19899	1001.19	0.625
315.15	0.0035	0.29875	1005.355	0.626

System: glycyl-L-leucine + water + amoxicillin; phases: Liquid
Fixed: Pressure, kPa = 100
Fixed: Frequency, MHz = 3
Property: Speed of sound, m/s (Liquid); method: Sing-around technique in a fixed-path interferometer
Temperature, K	Solvent: Molality, mol/kg of amoxicillin	Molality, mol/kg of glycyl-L-leucine	Speed of sound, m/s	uncertainty
305.15	0	0	1513.49	1.51
305.15	0	0.00196	1514.02	1.51
305.15	0	0.00595	1514.83	1.51
305.15	0	0.00811	1514.97	1.51
305.15	0	0.01008	1515.25	1.51
305.15	0	0.02014	1516.36	1.51
305.15	0	0.05085	1521.45	1.51
305.15	0	0.10018	1528.78	1.52
305.15	0	0.19911	1540.16	1.51
305.15	0	0.29898	1551.98	1.51
310.15	0	0	1523.5	1.5
310.15	0	0.00196	1523.91	1.51
310.15	0	0.00595	1524.6	1.51
310.15	0	0.00811	1524.92	1.51
310.15	0	0.01008	1525.15	1.51
310.15	0	0.02014	1526.15	1.51
310.15	0	0.05085	1531.36	1.52
310.15	0	0.10018	1538.17	1.54
310.15	0	0.19911	1548.86	1.51
310.15	0	0.29898	1559.96	1.52
315.15	0	0	1532.17	1.51
315.15	0	0.00196	1532.36	1.51
315.15	0	0.00595	1532.98	1.51
315.15	0	0.00811	1533.07	1.51
315.15	0	0.01008	1533.32	1.51
315.15	0	0.02014	1534.47	1.51
315.15	0	0.05085	1539.25	1.51
315.15	0	0.10018	1545.87	1.52
315.15	0	0.19911	1555.84	1.52
315.15	0	0.29898	1566.61	1.52
305.15	0.0005	0	1514.69	1.51
305.15	0.0005	0.00197	1514.81	1.51
305.15	0.0005	0.00574	1515.05	1.51
305.15	0.0005	0.00819	1515.43	1.51
305.15	0.0005	0.01001	1515.61	1.51
305.15	0.0005	0.01998	1517.09	1.51
305.15	0.0005	0.05015	1520.38	1.51
305.15	0.0005	0.10121	1525.89	1.51
305.15	0.0005	0.19898	1538.91	1.51
305.15	0.0005	0.30656	1553.97	1.51
310.15	0.0005	0	1524.61	1.51
310.15	0.0005	0.00197	1524.89	1.51
310.15	0.0005	0.00574	1524.99	1.51
310.15	0.0005	0.00819	1525.01	1.51
310.15	0.0005	0.01001	1525.27	1.51
310.15	0.0005	0.01998	1525.75	1.51
310.15	0.0005	0.05015	1528.12	1.51
310.15	0.0005	0.10121	1533.56	1.51
310.15	0.0005	0.19898	1547.59	1.51
310.15	0.0005	0.30656	1561.8	1.5
315.15	0.0005	0	1532.91	1.51
315.15	0.0005	0.00197	1533.11	1.51
315.15	0.0005	0.00574	1533.34	1.51
315.15	0.0005	0.00819	1533.51	1.51
315.15	0.0005	0.01001	1533.67	1.51
315.15	0.0005	0.01998	1535.03	1.51
315.15	0.0005	0.05015	1537.86	1.51
315.15	0.0005	0.10121	1543.56	1.51
315.15	0.0005	0.19898	1554.87	1.51
315.15	0.0005	0.30656	1568.35	1.52
305.15	0.002	0	1515.03	1.51
305.15	0.002	0.00207	1515.21	1.51
305.15	0.002	0.00639	1515.52	1.51
305.15	0.002	0.00758	1516.26	1.51
305.15	0.002	0.01121	1516.4	1.51
305.15	0.002	0.02056	1517.12	1.51
305.15	0.002	0.05045	1520.49	1.51
305.15	0.002	0.10145	1526.45	1.51
305.15	0.002	0.19947	1538.14	1.51
305.15	0.002	0.30054	1549.46	1.51
310.15	0.002	0	1524.84	1.51
310.15	0.002	0.00207	1524.95	1.51
310.15	0.002	0.00639	1525.19	1.51
310.15	0.002	0.00758	1526	1.51
310.15	0.002	0.01121	1526.39	1.51
310.15	0.002	0.02056	1526.6	1.51
310.15	0.002	0.05045	1530.12	1.51
310.15	0.002	0.10145	1536.45	1.51
310.15	0.002	0.19947	1548.76	1.51
310.15	0.002	0.30054	1559.98	1.51
315.15	0.002	0	1533.22	1.51
315.15	0.002	0.00207	1533.33	1.51
315.15	0.002	0.00639	1533.57	1.51
315.15	0.002	0.00758	1534.29	1.51
315.15	0.002	0.01121	1534.64	1.51
315.15	0.002	0.02056	1535.25	1.51
315.15	0.002	0.05045	1539.12	1.51
315.15	0.002	0.10145	1545.45	1.51
315.15	0.002	0.19947	1555.98	1.51
315.15	0.002	0.30054	1566.12	1.51
305.15	0.0035	0	1514.36	1.51
305.15	0.0035	0.002	1515.02	1.51
305.15	0.0035	0.00601	1515.54	1.51
305.15	0.0035	0.008	1515.84	1.51
305.15	0.0035	0.01012	1516.12	1.51
305.15	0.0035	0.01989	1517.06	1.51
305.15	0.0035	0.04878	1520.95	1.51
305.15	0.0035	0.10012	1527.57	1.51
305.15	0.0035	0.19899	1540.57	1.51
305.15	0.0035	0.29875	1552.46	1.51
310.15	0.0035	0	1524.3	1.51
310.15	0.0035	0.002	1524.73	1.51
310.15	0.0035	0.00601	1525.07	1.51
310.15	0.0035	0.008	1525.69	1.51
310.15	0.0035	0.01012	1526.01	1.51
310.15	0.0035	0.01989	1526.64	1.51
310.15	0.0035	0.04878	1530.39	1.51
310.15	0.0035	0.10012	1536.75	1.51
310.15	0.0035	0.19899	1549.07	1.51
310.15	0.0035	0.29875	1560.34	1.51
315.15	0.0035	0	1532.53	1.51
315.15	0.0035	0.002	1533.25	1.51
315.15	0.0035	0.00601	1533.59	1.51
315.15	0.0035	0.008	1533.45	1.51
315.15	0.0035	0.01012	1534.12	1.51
315.15	0.0035	0.01989	1534.9	1.51
315.15	0.0035	0.04878	1538.48	1.51
315.15	0.0035	0.10012	1544.57	1.51
315.15	0.0035	0.19899	1556.26	1.51
315.15	0.0035	0.29875	1566.96	1.51

System: glycylglycine + water; phases: Liquid
Fixed: Pressure, kPa = 100
Property: Mass density, kg/m3 (Liquid); method: Vibrating tube method
Temperature, K	Molality, mol/kg of glycylglycine	Mass density, kg/m3	uncertainty
305.15	0.00206	995.2	0.606
305.15	0.00597	995.41	0.606
305.15	0.00797	995.517	0.606
305.15	0.01021	995.637	0.606
305.15	0.02015	996.168	0.606
305.15	0.05037	997.778	0.605
305.15	0.10077	1000.446	0.605
305.15	0.20215	1005.75	0.61
305.15	0.29595	1010.581	0.605
305.15	0.40001	1015.858	0.605
310.15	0.00206	993.513	0.606
310.15	0.00597	993.721	0.606
310.15	0.00797	993.827	0.606
310.15	0.01021	993.946	0.606
310.15	0.02015	994.474	0.606
310.15	0.05037	996.073	0.606
310.15	0.10077	998.723	0.605
310.15	0.20215	1003.99	0.605
310.15	0.29595	1008.788	0.605
310.15	0.40001	1014.031	0.605
315.15	0.00206	991.618	0.606
315.15	0.00597	991.824	0.606
315.15	0.00797	991.929	0.606
315.15	0.01021	992.047	0.606
315.15	0.02015	992.568	0.606
315.15	0.05037	994.147	0.606
315.15	0.10077	996.764	0.605
315.15	0.20215	1001.967	0.605
315.15	0.29595	1006.705	0.605
315.15	0.40001	1011.879	0.605

System: glycylglycine + water; phases: Liquid
Fixed: Pressure, kPa = 100
Fixed: Frequency, MHz = 3
Property: Speed of sound, m/s (Liquid); method: Sing-around technique in a fixed-path interferometer
Temperature, K	Molality, mol/kg of glycylglycine	Speed of sound, m/s	uncertainty
305.15	0.00206	1514.12	1.29
305.15	0.00597	1514.76	1.28
305.15	0.00797	1515.2	1.28
305.15	0.01021	1515.42	1.28
305.15	0.02015	1515.76	1.28
305.15	0.05037	1517.78	1.28
305.15	0.10077	1521.64	1.28
305.15	0.20215	1529.46	1.29
305.15	0.29595	1535.99	1.29
305.15	0.40001	1542.53	1.3
310.15	0.00206	1524.08	1.29
310.15	0.00597	1524.71	1.29
310.15	0.00797	1525.07	1.29
310.15	0.01021	1525.24	1.29
310.15	0.02015	1525.56	1.29
310.15	0.05037	1527.45	1.29
310.15	0.10077	1531.22	1.29
310.15	0.20215	1538.82	1.29
310.15	0.29595	1545.36	1.29
310.15	0.40001	1551.62	1.3
315.15	0.00206	1532.36	1.29
315.15	0.00597	1532.92	1.29
315.15	0.00797	1533.52	1.29
315.15	0.01021	1533.63	1.29
315.15	0.02015	1533.95	1.29
315.15	0.05037	1535.76	1.29
315.15	0.10077	1539.44	1.29
315.15	0.20215	1546.87	1.29
315.15	0.29595	1553.02	1.29
315.15	0.40001	1559.32	1.3

System: water + amoxicillin; phases: Liquid
Fixed: Pressure, kPa = 100
Property: Mass density, kg/m3 (Liquid); method: Vibrating tube method
Temperature, K	Molality, mol/kg of amoxicillin	Mass density, kg/m3	uncertainty
305.15	0.0005	995.743	0.604
310.15	0.0005	994.045	0.604
315.15	0.0005	992.153	0.604
305.15	0.002	995.924	0.603
310.15	0.002	994.23	0.603
315.15	0.002	992.334	0.603
305.15	0.0035	996.115	0.603
310.15	0.0035	994.412	0.603
315.15	0.0035	992.522	0.603

System: water + amoxicillin; phases: Liquid
Fixed: Pressure, kPa = 100
Fixed: Frequency, MHz = 3
Property: Speed of sound, m/s (Liquid); method: Sing-around technique in a fixed-path interferometer
Temperature, K	Molality, mol/kg of amoxicillin	Speed of sound, m/s	uncertainty
305.15	0.0005	1514.69	1.28
310.15	0.0005	1524.61	1.29
315.15	0.0005	1532.91	1.29
305.15	0.002	1515.03	1.28
310.15	0.002	1524.84	1.29
315.15	0.002	1533.22	1.29
305.15	0.0035	1514.36	1.28
310.15	0.0035	1524.3	1.29
315.15	0.0035	1532.53	1.29

System: glycyl-L-leucine + water; phases: Liquid
Fixed: Pressure, kPa = 100
Property: Mass density, kg/m3 (Liquid); method: Vibrating tube method
Temperature, K	Molality, mol/kg of glycyl-L-leucine	Mass density, kg/m3	uncertainty
305.15	0.00196	995.189	0.627
305.15	0.00595	995.39	0.627
305.15	0.00811	995.498	0.627
305.15	0.01008	995.597	0.627
305.15	0.02014	996.102	0.627
305.15	0.05085	997.635	0.626
305.15	0.10018	1000.07	0.63
305.15	0.19911	1004.855	0.626
305.15	0.29898	1009.555	0.627
310.15	0.00196	993.501	0.627
310.15	0.00595	993.701	0.627
310.15	0.00811	993.809	0.627
310.15	0.01008	993.908	0.627
310.15	0.02014	994.41	0.63
310.15	0.05085	995.935	0.626
310.15	0.10018	998.358	0.626
310.15	0.19911	1003.118	0.626
310.15	0.29898	1007.795	0.626
315.15	0.00196	991.607	0.627
315.15	0.00595	991.806	0.627
315.15	0.00811	991.913	0.627
315.15	0.01008	992.01	0.627
315.15	0.02014	992.508	0.627
315.15	0.05085	994.019	0.626
315.15	0.10018	996.42	0.626
315.15	0.19911	1001.137	0.625
315.15	0.29898	1005.77	0.626

System: glycyl-L-leucine + water; phases: Liquid
Fixed: Pressure, kPa = 100
Fixed: Frequency, MHz = 3
Property: Speed of sound, m/s (Liquid); method: Sing-around technique in a fixed-path interferometer
Temperature, K	Molality, mol/kg of glycyl-L-leucine	Speed of sound, m/s	uncertainty
305.15	0.00196	1514.02	1.51
305.15	0.00595	1514.83	1.51
305.15	0.00811	1514.97	1.51
305.15	0.01008	1515.25	1.51
305.15	0.02014	1516.36	1.51
305.15	0.05085	1521.45	1.51
305.15	0.10018	1528.78	1.52
305.15	0.19911	1540.16	1.51
305.15	0.29898	1551.98	1.51
310.15	0.00196	1523.91	1.51
310.15	0.00595	1524.6	1.51
310.15	0.00811	1524.92	1.51
310.15	0.01008	1525.15	1.51
310.15	0.02014	1526.15	1.51
310.15	0.05085	1531.36	1.52
310.15	0.10018	1538.17	1.54
310.15	0.19911	1548.86	1.51
310.15	0.29898	1559.96	1.52
315.15	0.00196	1532.36	1.51
315.15	0.00595	1532.98	1.51
315.15	0.00811	1533.07	1.51
315.15	0.01008	1533.32	1.51
315.15	0.02014	1534.47	1.51
315.15	0.05085	1539.25	1.51
315.15	0.10018	1545.87	1.52
315.15	0.19911	1555.84	1.52
315.15	0.29898	1566.61	1.52
