Measured thermophysical data. Isobaric specific heat capacities of emulsified kerosene at high temperature and pressure
Source: Thermochim. Acta, 2018, 10.1016/j.tca.2018.04.018
Compound 1: water, H2O, InChI=1S/H2O/h1H2, purity 99.9%
Compound 2: pentane, C5H12, InChI=1S/C5H12/c1-3-5-4-2/h3-5H2,1-2H3
Compound 3: acetone, C3H6O, InChI=1S/C3H6O/c1-3(2)4/h1-2H3

System: water; phases: Liquid
Fixed: Pressure, kPa = 3000
Property: Molar heat capacity at constant pressure, J/K/mol (Liquid); method: Flow calorimetry
Temperature, K	Molar heat capacity at constant pressure, J/K/mol	uncertainty
330.2	75.28585512	1.74748216
340.1	75.41196208	1.74748216
358.4	75.61013016	1.76549744
368.2	75.61013016	1.76549744
378.6	75.98845104	1.76549744
388.4	76.49287888	1.78351272
398.5	76.51089416	1.78351272
408.6	77.48371928	1.801528
418.8	76.9252456	1.78351272
428.6	77.71791792	1.801528
438.5	78.11425408	1.81954328
448.2	78.9069264	1.83755856
458.5	79.41135424	1.85557384
468.2	80.92463776	1.87358912
478.2	81.80738648	1.90961968
488.7	83.32067	1.94565024
498.1	83.91517424	1.94565024

System: water; phases: Gas
Property: Molar heat capacity at constant pressure, J/K/mol (Gas); method: Flow calorimetry
Temperature, K	Pressure, kPa	Molar heat capacity at constant pressure, J/K/mol	uncertainty
508.4	3000	63.30569392	1.47725296

System: pentane + acetone; phases: Liquid
Property: Molar heat capacity at constant pressure, J/K/mol (Liquid); method: Flow calorimetry
Mole fraction of pentane	Pressure, kPa	Temperature, K	Molar heat capacity at constant pressure, J/K/mol	uncertainty
0.25	2000	423.15	174.50302615	4.0653723
0.25	2300	423.16	175.11899165	4.0653723
0.25	3900	423.14	170.7456366	3.9421792
0.25	6000	423.15	171.3616021	4.00377575
0.25	7960	423.15	163.9700161	3.8189861
0.5	2900	423.15	194.43028456	4.5579772
0.5	4000	423.15	190.7839028	4.42774928
0.5	6050	423.15	184.14227888	4.29752136
0.5	7920	423.14	179.32384584	4.16729344

System: pentane + acetone; phases: Gas
Property: Molar heat capacity at constant pressure, J/K/mol (Gas); method: Flow calorimetry
Mole fraction of pentane	Pressure, kPa	Temperature, K	Molar heat capacity at constant pressure, J/K/mol	uncertainty
0.25	1080	423.17	135.1428307	3.14142405
0.25	3140	493.16	173.64067445	4.12696885
0.25	3860	493.15	221.56279035	5.1741102
0.25	3200	503.14	167.97379185	3.9421792
0.25	4120	503.14	214.41759055	5.0509171
0.5	1080	423.16	145.8552704	3.38592592
0.5	2960	483.14	180.49589712	5.01377492
0.5	4000	483.14	283.18061204	6.90207976
0.5	2980	508.15	175.807692	4.10217948
0.5	4060	508.15	200.68122472	7.42299144

System: pentane + acetone; phases: Fluid (supercritical or subcritical phases)
Property: Molar heat capacity at constant pressure, J/K/mol (Fluid (supercritical or subcritical phases)); method: Flow calorimetry
Mole fraction of pentane	Pressure, kPa	Temperature, K	Molar heat capacity at constant pressure, J/K/mol	uncertainty
0.25	4530	493.15	611.96172425	123.3162931
0.25	4742	493.15	1236.92032055	144.9982787
0.25	6000	493.16	263.44844435	9.7322549
0.25	7920	493.15	214.04801125	5.60528605
0.25	5400	503.16	600.0735901	43.2407781
0.25	6180	503.15	330.58868385	10.1018342
0.25	7820	503.15	229.44714875	5.85167225
0.5	4480	483.15	750.82907276	53.58878908
0.5	5000	483.16	446.030626	32.16629624
0.5	6100	483.16	260.1302702	6.90207976
0.5	7050	483.15	233.69400244	8.72527064
0.5	8160	483.15	218.131766	8.98572648
0.5	5030	508.16	258.63264912	9.57175212
0.5	6050	508.15	360.7313384	11.91585468
0.5	6930	508.15	310.98427296	9.05084044
0.5	8010	508.15	261.36743544	7.94390312
