Measured thermophysical data. Sublimation enthalpies of 9 substituted acetanilides at 298 K estimated by solution calorimetry approach
Source: Thermochim. Acta, 2017, 10.1016/j.tca.2017.08.011
Compound 1: N-phenylethanamide, C8H9NO, InChI=1S/C8H9NO/c1-7(10)9-8-5-3-2-4-6-8/h2-6H,1H3,(H,9,10), purity 97%
Compound 2: N-(2-chlorophenyl)acetamide, C8H8ClNO, InChI=1S/C8H8ClNO/c1-6(11)10-8-5-3-2-4-7(8)9/h2-5H,1H3,(H,10,11), purity 98%
Compound 3: 3-bromoacetanilide, C8H8BrNO, InChI=1S/C8H8BrNO/c1-6(11)10-8-4-2-3-7(9)5-8/h2-5H,1H3,(H,10,11), purity 98%
Compound 4: 3-acetamidophenol, C8H9NO2, InChI=1S/C8H9NO2/c1-6(10)9-7-3-2-4-8(11)5-7/h2-5,11H,1H3,(H,9,10), purity 98%
Compound 5: 1-acetamido-4-methylbenzene, C9H11NO, InChI=1S/C9H11NO/c1-7-3-5-9(6-4-7)10-8(2)11/h3-6H,1-2H3,(H,10,11), purity 99%
Compound 6: N-(4-bromophenyl)acetamide, C8H8BrNO, InChI=1S/C8H8BrNO/c1-6(11)10-8-4-2-7(9)3-5-8/h2-5H,1H3,(H,10,11), purity 98%
Compound 7: N(4-chlorophenyl)ethanamide, C8H8ClNO, InChI=1S/C8H8ClNO/c1-6(11)10-8-4-2-7(9)3-5-8/h2-5H,1H3,(H,10,11), purity 97%
Compound 8: N-acetyl-p-aminophenol, C8H9NO2, InChI=1S/C8H9NO2/c1-6(10)9-7-2-4-8(11)5-3-7/h2-5,11H,1H3,(H,9,10), purity 99%
Compound 9: N-(4-nitrophenyl)acetamide, C8H8N2O3, InChI=1S/C8H8N2O3/c1-6(11)9-7-2-4-8(5-3-7)10(12)13/h2-5H,1H3,(H,9,11), purity 98%
Compound 10: N-(4-ethoxyphenyl)ethanamide, C10H13NO2, InChI=1S/C10H13NO2/c1-3-13-10-6-4-9(5-7-10)11-8(2)12/h4-7H,3H2,1-2H3,(H,11,12), purity 99%
Compound 11: ethoxybenzene, C8H10O, InChI=1S/C8H10O/c1-2-9-8-6-4-3-5-7-8/h3-7H,2H2,1H3, purity 99%
Compound 12: acetonitrile, C2H3N, InChI=1S/C2H3N/c1-2-3/h1H3, purity 99%

System: N-phenylethanamide + acetonitrile; phases: Liquid
Property: Molar enthalpy of solution, kJ/mol (Liquid); method: Power-compensation calorimetry
Mole fraction of N-phenylethanamide	Pressure, kPa	Temperature, K	Molar enthalpy of solution, kJ/mol	uncertainty
0	100	298.15	22.75	0.35

System: N-(2-chlorophenyl)acetamide + acetonitrile; phases: Liquid
Property: Molar enthalpy of solution, kJ/mol (Liquid); method: Power-compensation calorimetry
Mole fraction of N-(2-chlorophenyl)acetamide	Pressure, kPa	Temperature, K	Molar enthalpy of solution, kJ/mol	uncertainty
0	100	298.15	20.55	0.53

System: 3-bromoacetanilide + acetonitrile; phases: Liquid
Property: Molar enthalpy of solution, kJ/mol (Liquid); method: Power-compensation calorimetry
Mole fraction of 3-bromoacetanilide	Pressure, kPa	Temperature, K	Molar enthalpy of solution, kJ/mol	uncertainty
0	100	298.15	23.86	0.39

System: 3-acetamidophenol + acetonitrile; phases: Liquid
Property: Molar enthalpy of solution, kJ/mol (Liquid); method: Power-compensation calorimetry
Mole fraction of 3-acetamidophenol	Pressure, kPa	Temperature, K	Molar enthalpy of solution, kJ/mol	uncertainty
0	100	298.15	23.68	0.37

System: 1-acetamido-4-methylbenzene + acetonitrile; phases: Liquid
Property: Molar enthalpy of solution, kJ/mol (Liquid); method: Power-compensation calorimetry
Mole fraction of 1-acetamido-4-methylbenzene	Pressure, kPa	Temperature, K	Molar enthalpy of solution, kJ/mol	uncertainty
0	100	298.15	26.36	0.4

System: N-(4-bromophenyl)acetamide + acetonitrile; phases: Liquid
Property: Molar enthalpy of solution, kJ/mol (Liquid); method: Power-compensation calorimetry
Mole fraction of N-(4-bromophenyl)acetamide	Pressure, kPa	Temperature, K	Molar enthalpy of solution, kJ/mol	uncertainty
0	100	298.15	26.75	0.46

System: N(4-chlorophenyl)ethanamide + acetonitrile; phases: Liquid
Property: Molar enthalpy of solution, kJ/mol (Liquid); method: Power-compensation calorimetry
Mole fraction of N(4-chlorophenyl)ethanamide	Pressure, kPa	Temperature, K	Molar enthalpy of solution, kJ/mol	uncertainty
0	100	298.15	27.82	0.3

System: N-acetyl-p-aminophenol + acetonitrile; phases: Liquid
Property: Molar enthalpy of solution, kJ/mol (Liquid); method: Power-compensation calorimetry
Mole fraction of N-acetyl-p-aminophenol	Pressure, kPa	Temperature, K	Molar enthalpy of solution, kJ/mol	uncertainty
0	100	298.15	23.47	0.33

System: N-(4-nitrophenyl)acetamide + acetonitrile; phases: Liquid
Property: Molar enthalpy of solution, kJ/mol (Liquid); method: Power-compensation calorimetry
Mole fraction of N-(4-nitrophenyl)acetamide	Pressure, kPa	Temperature, K	Molar enthalpy of solution, kJ/mol	uncertainty
0	100	298.15	23.95	0.31

System: ethoxybenzene + acetonitrile; phases: Liquid
Property: Molar enthalpy of solution, kJ/mol (Liquid); method: Titration calorimetry
Mole fraction of ethoxybenzene	Pressure, kPa	Temperature, K	Molar enthalpy of solution, kJ/mol	uncertainty
0	100	298.15	3.36	0.07

System: N-(4-ethoxyphenyl)ethanamide + acetonitrile; phases: Liquid
Property: Molar enthalpy of solution, kJ/mol (Liquid); method: Power-compensation calorimetry
Mole fraction of N-(4-ethoxyphenyl)ethanamide	Pressure, kPa	Temperature, K	Molar enthalpy of solution, kJ/mol	uncertainty
0	100	298.15	30.7	0.33
