Measured thermophysical data. Application of fast scanning calorimetry to the fusion thermochemistry of low-molecular-weight organic compounds: Fast-crystallizing m-terphenyl heat capacities in a deeply supercooled liquid state
Source: Thermochim. Acta, 2018, 10.1016/j.tca.2018.08.015
Compound 1: benzophenone, C13H10O, InChI=1S/C13H10O/c14-13(11-7-3-1-4-8-11)12-9-5-2-6-10-12/h1-10H, purity 99%
Compound 2: o-terphenyl, C18H14, InChI=1S/C18H14/c1-3-9-15(10-4-1)17-13-7-8-14-18(17)16-11-5-2-6-12-16/h1-14H, purity 99%
Compound 3: m-terphenyl, C18H14, InChI=1S/C18H14/c1-3-8-15(9-4-1)17-12-7-13-18(14-17)16-10-5-2-6-11-16/h1-14H, purity 99%

System: benzophenone; phases: Liquid
Fixed: Pressure, kPa = 101.325
Property: Molar heat capacity at constant pressure, J/K/mol (Liquid); method: DSC
Temperature, K	Molar heat capacity at constant pressure, J/K/mol	uncertainty
245	265.3	13.3
255	269.9	13.5
265	274.5	13.7
275	279	14
285	283.6	14.2
295	288.1	14.4
305	292.7	14.6
315	297.3	14.9
325	301.8	15.1
335	306.4	15.3
345	311	15.6

System: o-terphenyl; phases: Glass, Liquid, Air at 1 atmosphere
Property: Triple point temperature, K (Glass); method: DSC
Triple point temperature, K	uncertainty
270	1

System: o-terphenyl; phases: Liquid
Fixed: Pressure, kPa = 101.325
Property: Molar heat capacity at constant pressure, J/K/mol (Liquid); method: DSC
Temperature, K	Molar heat capacity at constant pressure, J/K/mol	uncertainty
280	356.2	17.8
290	363.1	18.2
300	370	18.5
310	376.9	18.8
320	383.8	19.2
330	390.7	19.5
340	397.6	19.9
350	404.4	20.2

System: o-terphenyl; phases: Glass
Fixed: Pressure, kPa = 101.325
Property: Molar heat capacity at constant pressure, J/K/mol (Glass); method: DSC
Temperature, K	Molar heat capacity at constant pressure, J/K/mol	uncertainty
212	181.5	9.1
217	187.8	9.4
222	194	9.7
227	200.3	10
232	206.5	10.3
237	212.8	10.6
242	219	11

System: m-terphenyl; phases: Crystal, Liquid, Air at 1 atmosphere
Property: Normal melting temperature, K (Crystal); method: DTA
Normal melting temperature, K	uncertainty
361	0.5

System: m-terphenyl; phases: Crystal, Liquid, Air at 1 atmosphere
Property: Molar enthalpy of transition or fusion, kJ/mol (Crystal); method: DSC
Molar enthalpy of transition or fusion, kJ/mol	uncertainty
23.82	0.59

System: m-terphenyl; phases: Glass, Liquid, Air at 1 atmosphere
Property: Triple point temperature, K (Glass); method: DSC
Triple point temperature, K	uncertainty
256	1

System: m-terphenyl; phases: Crystal
Fixed: Pressure, kPa = 101.325
Property: Molar heat capacity at constant pressure, J/K/mol (Crystal); method: DSC
Temperature, K	Molar heat capacity at constant pressure, J/K/mol	uncertainty
318	299.5	15
323	304.2	15.2
328	308.9	15.4
333	313.5	15.7
338	318.2	15.9
343	322.9	16.1
348	327.5	16.4

System: m-terphenyl; phases: Crystal
Fixed: Pressure, kPa = 101.325
Property: Molar heat capacity at constant pressure, J/K/mol (Crystal); method: DSC
Temperature, K	Molar heat capacity at constant pressure, J/K/mol	uncertainty
212	190.6	9.5
222	200.7	10
232	210.8	10.5
242	220.8	11
252	230.9	11.5
262	241	12.1
272	251.1	12.6
282	261.2	13.1
292	271.2	13.6
302	281.3	14.1
312	291.4	14.6
322	301.5	15.1
330	309.5	15.5

System: m-terphenyl; phases: Liquid
Fixed: Pressure, kPa = 101.325
Property: Molar heat capacity at constant pressure, J/K/mol (Liquid); method: DSC
Temperature, K	Molar heat capacity at constant pressure, J/K/mol	uncertainty
280	364.8	18.2
290	370.5	18.5
300	376.3	18.8
310	382.1	19.1
320	387.8	19.4
330	393.6	19.7
340	399.3	20
350	405.1	20.3
360	410.9	20.5
370	416.6	20.8
378	421.2	21.1

System: m-terphenyl; phases: Glass
Fixed: Pressure, kPa = 101.325
Property: Molar heat capacity at constant pressure, J/K/mol (Glass); method: DSC
Temperature, K	Molar heat capacity at constant pressure, J/K/mol	uncertainty
212	193.8	9.7
217	200	10
222	206.2	10.3
227	212.4	10.6
232	218.6	10.9
237	224.8	11.2
