Measured thermophysical data. Dielectric and excess dielectric constants in non polar + polar binary liquidmixtures of toluene with alcohols at 303, 313 and 323 K
Source: Thermochim. Acta, 2013, 10.1016/j.tca.2013.05.022
Compound 1: toluene, C7H8, InChI=1S/C7H8/c1-7-5-3-2-4-6-7/h2-6H,1H3
Compound 2: ethanol, C2H6O, InChI=1S/C2H6O/c1-2-3/h3H,2H2,1H3
Compound 3: methanol, CH4O, InChI=1S/CH4O/c1-2/h2H,1H3
Compound 4: propan-1-ol, C3H8O, InChI=1S/C3H8O/c1-2-3-4/h4H,2-3H2,1H3
Compound 5: propan-2-ol, C3H8O, InChI=1S/C3H8O/c1-3(2)4/h3-4H,1-2H3

System: ethanol; phases: Liquid
Fixed: Pressure, kPa = 101
Property: Relative permittivity at zero frequency (Liquid); method: Parallel plate capacitor
Temperature, K	Relative permittivity at zero frequency	uncertainty
303	24.26	0.97
313	23.85	0.95
323	23.25	0.95

System: methanol; phases: Liquid
Fixed: Pressure, kPa = 101
Property: Relative permittivity at zero frequency (Liquid); method: Parallel plate capacitor
Temperature, K	Relative permittivity at zero frequency	uncertainty
303	33.19	1.33
313	32.35	1.29
323	31.98	1.28

System: propan-1-ol; phases: Liquid
Fixed: Pressure, kPa = 101
Property: Relative permittivity at zero frequency (Liquid); method: Parallel plate capacitor
Temperature, K	Relative permittivity at zero frequency	uncertainty
303	19.95	0.95
313	18.65	0.95
323	17.82	0.95

System: propan-2-ol; phases: Liquid
Fixed: Pressure, kPa = 307116
Property: Relative permittivity at zero frequency (Liquid); method: Parallel plate capacitor
Temperature, K	Relative permittivity at zero frequency	uncertainty
303	18.25	0.95
313	17.75	0.95
323	16.57	0.95

System: ethanol + toluene; phases: Liquid
Fixed: Pressure, kPa = 101
Property: Relative permittivity at zero frequency (Liquid); method: Parallel plate capacitor
Temperature, K	Volume fraction of ethanol	Relative permittivity at zero frequency	uncertainty
303	0.1	3.97	0.95
303	0.2	5.64	0.95
303	0.3	7.43	0.95
303	0.4	8.29	0.95
303	0.5	10.1	0.95
303	0.6	12.53	0.95
303	0.7	15.27	0.95
303	0.8	18.07	0.95
303	0.9	21.14	0.95
303	1	24.26	0.97
313	0.1	3.42	0.95
313	0.2	5.27	0.95
313	0.3	6.34	0.95
313	0.4	7.98	0.95
313	0.5	9.7	0.95
313	0.6	12.26	0.95
313	0.7	14.78	0.95
313	0.8	17.72	0.95
313	0.9	20.78	0.95
313	1	23.85	0.95
323	0.1	2.95	0.95
323	0.2	4.91	0.95
323	0.3	6.14	0.95
323	0.4	7.87	0.95
323	0.5	9.2	0.95
323	0.6	12.07	0.95
323	0.7	14.54	0.95
323	0.8	17.28	0.95
323	0.9	20.14	0.95
323	1	23.25	0.95

System: methanol + toluene; phases: Liquid
Fixed: Pressure, kPa = 101
Property: Relative permittivity at zero frequency (Liquid); method: Parallel plate capacitor
Temperature, K	Volume fraction of methanol	Relative permittivity at zero frequency	uncertainty
303	0.1	5.82	0.95
303	0.2	7.85	0.95
303	0.3	10.56	0.95
303	0.4	12.89	0.95
303	0.5	15.86	0.95
303	0.6	19.25	0.95
303	0.7	22.54	0.95
303	0.8	25.91	1.04
303	0.9	29.34	1.17
303	1	33.19	1.33
313	0.1	5.03	0.95
313	0.2	7.57	0.95
313	0.3	10.29	0.95
313	0.4	12.66	0.95
313	0.5	15.11	0.95
313	0.6	18.71	0.95
313	0.7	22.17	0.95
313	0.8	25.38	1.02
313	0.9	28.83	1.15
313	1	32.35	1.29
323	0.1	4.87	0.95
323	0.2	6.92	0.95
323	0.3	9.82	0.95
323	0.4	12.14	0.95
323	0.5	14.72	0.95
323	0.6	18.27	0.95
323	0.7	21.67	0.95
323	0.8	24.95	1
323	0.9	28.42	1.14
323	1	31.98	1.28

System: propan-1-ol + toluene; phases: Liquid
Fixed: Pressure, kPa = 101
Property: Relative permittivity at zero frequency (Liquid); method: Parallel plate capacitor
Temperature, K	Volume fraction of propan-1-ol	Relative permittivity at zero frequency	uncertainty
303	0.1	3.28	0.95
303	0.2	4.67	0.95
303	0.3	6.29	0.95
303	0.4	7.59	0.95
303	0.5	8.79	0.95
303	0.6	11.44	0.95
303	0.7	13.76	0.95
303	0.8	15.84	0.95
303	0.9	18.08	0.95
303	1	19.95	0.95
313	0.1	3.17	0.95
313	0.2	4.59	0.95
313	0.3	6.18	0.95
313	0.4	7.23	0.95
313	0.5	8.17	0.95
313	0.6	11.18	0.95
313	0.7	13.37	0.95
313	0.8	15.59	0.95
313	0.9	17.87	0.95
313	1	18.65	0.95
323	0.1	2.98	0.95
323	0.2	4.42	0.95
323	0.3	5.95	0.95
323	0.4	6.89	0.95
323	0.5	7.88	0.95
323	0.6	10.89	0.95
323	0.7	13.18	0.95
323	0.8	15.29	0.95
323	0.9	17.24	0.95
323	1	17.82	0.95

System: propan-2-ol + toluene; phases: Liquid
Fixed: Pressure, kPa = 307116
Property: Relative permittivity at zero frequency (Liquid); method: Parallel plate capacitor
Temperature, K	Volume fraction of propan-2-ol	Relative permittivity at zero frequency	uncertainty
303	0.1	3.55	0.95
303	0.2	4.83	0.95
303	0.3	5.98	0.95
303	0.4	6.85	0.95
303	0.5	8.06	0.95
303	0.6	10.1	0.95
303	0.7	12.09	0.95
303	0.8	14.27	0.95
303	0.9	16.36	0.95
303	1	18.25	0.95
313	0.1	3.12	0.95
313	0.2	4.48	0.95
313	0.3	5.55	0.95
313	0.4	6.45	0.95
313	0.5	7.75	0.95
313	0.6	9.73	0.95
313	0.7	11.75	0.95
313	0.8	13.65	0.95
313	0.9	15.98	0.95
313	1	17.75	0.95
323	0.1	3	0.95
323	0.2	4.12	0.95
323	0.3	5.13	0.95
323	0.4	6.15	0.95
323	0.5	7.46	0.95
323	0.6	9.45	0.95
323	0.7	11.24	0.95
323	0.8	13.34	0.95
323	0.9	15.35	0.95
323	1	16.57	0.95
