Measured thermophysical data. Temperature dependence of densities, speeds of sound, and derived  properties of cyclohexylamine + cyclohexane or benzene in the range  (293.15 to 323.15) K
Source: Thermochim. Acta, 2012, 10.1016/j.tca.2012.08.011
Compound 1: cyclohexane, C6H12, InChI=1S/C6H12/c1-2-4-6-5-3-1/h1-6H2
Compound 2: cyclohexylamine, C6H13N, InChI=1S/C6H13N/c7-6-4-2-1-3-5-6/h6H,1-5,7H2
Compound 3: benzene, C6H6, InChI=1S/C6H6/c1-2-4-6-5-3-1/h1-6H

System: cyclohexane; phases: Liquid
Fixed: Pressure, kPa = 101
Property: Speed of sound, m/s (Liquid); method: Linear variable-path acoustic interferometer
Temperature, K	Speed of sound, m/s	uncertainty
293.15	1278.6	1.4
298.15	1253.9	1.4
303.15	1229.3	1.3
308.15	1205.1	1.3
313.15	1181	1.3
318.15	1157.3	1.3
323.15	1133.7	1.3

System: cyclohexane; phases: Liquid
Fixed: Pressure, kPa = 101
Property: Mass density, kg/m3 (Liquid); method: Vibrating tube method
Temperature, K	Mass density, kg/m3	uncertainty
293.15	778.55	0.12
298.15	773.84	0.12
303.15	769.11	0.12
308.15	764.35	0.12
313.15	759.56	0.13
318.15	754.74	0.13
323.15	749.89	0.13

System: cyclohexylamine; phases: Liquid
Fixed: Pressure, kPa = 101
Property: Speed of sound, m/s (Liquid); method: Linear variable-path acoustic interferometer
Temperature, K	Speed of sound, m/s	uncertainty
293.15	1430.5	1.6
298.15	1408.8	1.6
303.15	1387.3	1.5
308.15	1366	1.5
313.15	1344.5	1.5
318.15	1323.1	1.5
323.15	1301.8	1.5

System: cyclohexylamine; phases: Liquid
Fixed: Pressure, kPa = 101
Property: Mass density, kg/m3 (Liquid); method: Vibrating tube method
Temperature, K	Mass density, kg/m3	uncertainty
293.15	867.39	0.12
298.15	862.85	0.12
303.15	858.31	0.12
308.15	853.76	0.12
313.15	849.23	0.13
318.15	844.68	0.13
323.15	840.14	0.13

System: benzene; phases: Liquid
Fixed: Pressure, kPa = 101
Property: Speed of sound, m/s (Liquid); method: Linear variable-path acoustic interferometer
Temperature, K	Speed of sound, m/s	uncertainty
293.15	1322.7	1.4
298.15	1299.3	1.4
303.15	1276	1.4
308.15	1252.8	1.4
313.15	1229.8	1.3
318.15	1207	1.3
323.15	1184.5	1.3

System: benzene; phases: Liquid
Fixed: Pressure, kPa = 101
Property: Mass density, kg/m3 (Liquid); method: Vibrating tube method
Temperature, K	Mass density, kg/m3	uncertainty
293.15	878.95	0.08
298.15	873.61	0.08
303.15	868.25	0.08
308.15	862.88	0.09
313.15	857.48	0.09
318.15	852.08	0.09
323.15	846.65	0.09

System: cyclohexylamine + cyclohexane; phases: Liquid
Fixed: Pressure, kPa = 101
Property: Speed of sound, m/s (Liquid); method: Linear variable-path acoustic interferometer
Temperature, K	Mole fraction of cyclohexylamine	Speed of sound, m/s	uncertainty
293.15	0	1278.6	1.4
293.15	0.0545	1282.7	1.4
293.15	0.1032	1287.2	1.4
293.15	0.1514	1291.9	1.4
293.15	0.204	1298	1.4
293.15	0.2496	1303.5	1.4
293.15	0.3052	1310.7	1.4
293.15	0.3467	1316.6	1.4
293.15	0.3967	1323.8	1.4
293.15	0.4025	1324.5	1.4
293.15	0.4478	1331.2	1.4
293.15	0.4992	1339.2	1.5
293.15	0.5538	1348.3	1.5
293.15	0.6495	1364.5	1.5
293.15	0.6996	1373.5	1.5
293.15	0.7535	1383.2	1.5
293.15	0.8071	1393	1.5
293.15	0.8555	1402.2	1.5
293.15	0.8959	1410.1	1.5
293.15	0.9501	1420.6	1.6
293.15	1	1430.5	1.6
298.15	0	1253.9	1.4
298.15	0.0545	1257.9	1.4
298.15	0.1032	1262.6	1.4
298.15	0.1514	1267.6	1.4
298.15	0.204	1273.8	1.4
298.15	0.2496	1279.4	1.4
298.15	0.3052	1286.8	1.4
298.15	0.3467	1293	1.4
298.15	0.3967	1300.2	1.4
298.15	0.4025	1300.9	1.4
298.15	0.4478	1307.8	1.4
298.15	0.4992	1315.9	1.4
298.15	0.5538	1325	1.4
298.15	0.6495	1341.3	1.5
298.15	0.6996	1350.4	1.5
298.15	0.7535	1360.5	1.5
298.15	0.8071	1370.4	1.5
298.15	0.8555	1379.6	1.5
298.15	0.8959	1387.7	1.5
298.15	0.9501	1398.5	1.5
298.15	1	1408.8	1.6
303.15	0	1229.3	1.3
303.15	0.0545	1233.6	1.3
303.15	0.1032	1238.1	1.4
303.15	0.1514	1243.5	1.4
303.15	0.204	1249.7	1.4
303.15	0.2496	1255.4	1.4
303.15	0.3052	1263.2	1.4
303.15	0.3467	1269	1.4
303.15	0.3967	1276.7	1.4
303.15	0.4025	1277.4	1.4
303.15	0.4478	1284.4	1.4
303.15	0.4992	1292.7	1.4
303.15	0.5538	1301.8	1.4
303.15	0.6495	1318.5	1.5
303.15	0.6996	1327.6	1.5
303.15	0.7535	1337.7	1.5
303.15	0.8071	1347.9	1.5
303.15	0.8555	1357.2	1.5
303.15	0.8959	1365.3	1.5
303.15	0.9501	1376.5	1.5
303.15	1	1387.3	1.5
308.15	0	1205.1	1.3
308.15	0.0545	1209.3	1.3
308.15	0.1032	1213.9	1.3
308.15	0.1514	1219.6	1.3
308.15	0.204	1225.8	1.3
308.15	0.2496	1231.6	1.4
308.15	0.3052	1239.7	1.4
308.15	0.3467	1245.6	1.4
308.15	0.3967	1253.5	1.4
308.15	0.4025	1254.4	1.4
308.15	0.4478	1261.5	1.4
308.15	0.4992	1269.9	1.4
308.15	0.5538	1279	1.4
308.15	0.6495	1295.7	1.4
308.15	0.6996	1305	1.4
308.15	0.7535	1315.5	1.5
308.15	0.8071	1325.6	1.5
308.15	0.8555	1334.9	1.5
308.15	0.8959	1343.1	1.5
308.15	0.9501	1354.7	1.5
308.15	1	1366	1.5
313.15	0	1181	1.3
313.15	0.0545	1185.5	1.3
313.15	0.1032	1189.8	1.3
313.15	0.1514	1195.5	1.3
313.15	0.204	1202	1.3
313.15	0.2496	1207.9	1.3
313.15	0.3052	1216.3	1.3
313.15	0.3467	1222.2	1.4
313.15	0.3967	1230.3	1.4
313.15	0.4025	1231	1.4
313.15	0.4478	1238.5	1.4
313.15	0.4992	1247	1.4
313.15	0.5538	1256.3	1.4
313.15	0.6495	1273.3	1.4
313.15	0.6996	1282.6	1.4
313.15	0.7535	1292.9	1.4
313.15	0.8071	1303.4	1.5
313.15	0.8555	1312.8	1.5
313.15	0.8959	1321.1	1.5
313.15	0.9501	1332.8	1.5
313.15	1	1344.5	1.5
318.15	0	1157.3	1.3
318.15	0.0545	1162.1	1.3
318.15	0.1032	1166.2	1.3
318.15	0.1514	1171.9	1.3
318.15	0.204	1178.7	1.3
318.15	0.2496	1184.7	1.3
318.15	0.3052	1193.1	1.3
318.15	0.3467	1199.2	1.3
318.15	0.3967	1207.3	1.3
318.15	0.4025	1208.2	1.3
318.15	0.4478	1215.8	1.4
318.15	0.4992	1224.5	1.4
318.15	0.5538	1233.9	1.4
318.15	0.6495	1251.1	1.4
318.15	0.6996	1260.4	1.4
318.15	0.7535	1270.9	1.4
318.15	0.8071	1281.5	1.4
318.15	0.8555	1290.9	1.5
318.15	0.8959	1299.2	1.5
318.15	0.9501	1311.1	1.5
318.15	1	1323.1	1.5
323.15	0	1133.7	1.3
323.15	0.0545	1138.5	1.3
323.15	0.1032	1142.7	1.3
323.15	0.1514	1148.4	1.3
323.15	0.204	1155.2	1.3
323.15	0.2496	1161.4	1.3
323.15	0.3052	1169.9	1.3
323.15	0.3467	1176.2	1.3
323.15	0.3967	1184.5	1.3
323.15	0.4025	1185.4	1.3
323.15	0.4478	1193.2	1.3
323.15	0.4992	1202	1.3
323.15	0.5538	1211.6	1.4
323.15	0.6495	1228.8	1.4
323.15	0.6996	1238.3	1.4
323.15	0.7535	1248.9	1.4
323.15	0.8071	1259.4	1.4
323.15	0.8555	1269.2	1.4
323.15	0.8959	1277.6	1.5
323.15	0.9501	1289.6	1.5
323.15	1	1301.8	1.5

System: cyclohexylamine + cyclohexane; phases: Liquid
Fixed: Pressure, kPa = 101
Property: Mass density, kg/m3 (Liquid); method: Vibrating tube method
Temperature, K	Mole fraction of cyclohexylamine	Mass density, kg/m3	uncertainty
293.15	0	778.55	0.12
293.15	0.0545	782.87	0.12
293.15	0.1032	786.84	0.12
293.15	0.1514	790.9	0.12
293.15	0.204	795.42	0.11
293.15	0.2496	799.41	0.11
293.15	0.3052	804.34	0.11
293.15	0.3467	808.08	0.11
293.15	0.3967	812.57	0.11
293.15	0.4025	813.08	0.11
293.15	0.4478	817.22	0.11
293.15	0.4992	821.91	0.11
293.15	0.5538	826.9	0.11
293.15	0.6495	835.66	0.11
293.15	0.6996	840.25	0.11
293.15	0.7535	845.15	0.11
293.15	0.8071	850.03	0.12
293.15	0.8555	854.41	0.12
293.15	0.8959	858.06	0.12
293.15	0.9501	862.93	0.12
293.15	1	867.39	0.12
298.15	0	773.84	0.12
298.15	0.0545	778.17	0.12
298.15	0.1032	782.14	0.12
298.15	0.1514	786.2	0.12
298.15	0.204	790.73	0.12
298.15	0.2496	794.7	0.12
298.15	0.3052	799.64	0.12
298.15	0.3467	803.36	0.11
298.15	0.3967	807.88	0.11
298.15	0.4025	808.4	0.11
298.15	0.4478	812.54	0.11
298.15	0.4992	817.25	0.11
298.15	0.5538	822.24	0.11
298.15	0.6495	831.02	0.11
298.15	0.6996	835.61	0.12
298.15	0.7535	840.54	0.12
298.15	0.8071	845.43	0.12
298.15	0.8555	849.81	0.12
298.15	0.8959	853.48	0.12
298.15	0.9501	858.37	0.12
298.15	1	862.85	0.12
303.15	0	769.11	0.12
303.15	0.0545	773.44	0.12
303.15	0.1032	777.42	0.12
303.15	0.1514	781.48	0.12
303.15	0.204	786.03	0.12
303.15	0.2496	790.01	0.12
303.15	0.3052	794.94	0.12
303.15	0.3467	798.67	0.12
303.15	0.3967	803.19	0.12
303.15	0.4025	803.71	0.12
303.15	0.4478	807.85	0.12
303.15	0.4992	812.59	0.12
303.15	0.5538	817.57	0.12
303.15	0.6495	826.37	0.12
303.15	0.6996	830.97	0.12
303.15	0.7535	835.93	0.12
303.15	0.8071	840.82	0.12
303.15	0.8555	845.22	0.12
303.15	0.8959	848.9	0.12
303.15	0.9501	853.81	0.12
303.15	1	858.31	0.12
308.15	0	764.35	0.12
308.15	0.0545	768.69	0.12
308.15	0.1032	772.67	0.12
308.15	0.1514	776.74	0.12
308.15	0.204	781.3	0.12
308.15	0.2496	785.28	0.12
308.15	0.3052	790.22	0.12
308.15	0.3467	793.96	0.12
308.15	0.3967	798.48	0.12
308.15	0.4025	799.01	0.12
308.15	0.4478	803.16	0.12
308.15	0.4992	807.91	0.12
308.15	0.5538	812.89	0.12
308.15	0.6495	821.73	0.12
308.15	0.6996	826.34	0.12
308.15	0.7535	831.31	0.12
308.15	0.8071	836.22	0.12
308.15	0.8555	840.63	0.12
308.15	0.8959	844.32	0.12
308.15	0.9501	849.24	0.12
308.15	1	853.76	0.12
313.15	0	759.56	0.13
313.15	0.0545	763.91	0.13
313.15	0.1032	767.89	0.12
313.15	0.1514	771.98	0.12
313.15	0.204	776.54	0.12
313.15	0.2496	780.53	0.12
313.15	0.3052	785.49	0.12
313.15	0.3467	789.24	0.12
313.15	0.3967	793.77	0.12
313.15	0.4025	794.29	0.12
313.15	0.4478	798.45	0.12
313.15	0.4992	803.21	0.12
313.15	0.5538	808.21	0.12
313.15	0.6495	817.07	0.12
313.15	0.6996	821.7	0.12
313.15	0.7535	826.67	0.12
313.15	0.8071	831.61	0.12
313.15	0.8555	836.02	0.12
313.15	0.8959	839.74	0.12
313.15	0.9501	844.68	0.13
313.15	1	849.23	0.13
318.15	0	754.74	0.13
318.15	0.0545	759.09	0.13
318.15	0.1032	763.09	0.13
318.15	0.1514	767.19	0.12
318.15	0.204	771.77	0.12
318.15	0.2496	775.77	0.12
318.15	0.3052	780.74	0.12
318.15	0.3467	784.5	0.12
318.15	0.3967	789.02	0.12
318.15	0.4025	789.56	0.12
318.15	0.4478	793.71	0.12
318.15	0.4992	798.49	0.12
318.15	0.5538	803.51	0.12
318.15	0.6495	812.4	0.12
318.15	0.6996	817.05	0.12
318.15	0.7535	822.04	0.12
318.15	0.8071	827	0.12
318.15	0.8555	831.42	0.12
318.15	0.8959	835.15	0.12
318.15	0.9501	840.12	0.13
318.15	1	844.68	0.13
323.15	0	749.89	0.13
323.15	0.0545	754.26	0.13
323.15	0.1032	758.27	0.13
323.15	0.1514	762.37	0.13
323.15	0.204	766.97	0.13
323.15	0.2496	770.99	0.13
323.15	0.3052	775.97	0.12
323.15	0.3467	779.75	0.12
323.15	0.3967	784.29	0.12
323.15	0.4025	784.82	0.12
323.15	0.4478	788.97	0.12
323.15	0.4992	793.75	0.12
323.15	0.5538	798.79	0.12
323.15	0.6495	807.72	0.12
323.15	0.6996	812.4	0.12
323.15	0.7535	817.4	0.12
323.15	0.8071	822.37	0.12
323.15	0.8555	826.82	0.13
323.15	0.8959	830.56	0.13
323.15	0.9501	835.56	0.13
323.15	1	840.14	0.13

System: benzene + cyclohexylamine; phases: Liquid
Fixed: Pressure, kPa = 101
Property: Speed of sound, m/s (Liquid); method: Linear variable-path acoustic interferometer
Temperature, K	Mole fraction of cyclohexylamine	Speed of sound, m/s	uncertainty
293.15	0	1322.7	1.4
293.15	0.0621	1328	1.4
293.15	0.0938	1331	1.4
293.15	0.1434	1335.6	1.4
293.15	0.1546	1336.6	1.4
293.15	0.2031	1341.3	1.4
293.15	0.2475	1345.8	1.4
293.15	0.2972	1350.9	1.4
293.15	0.3472	1356.1	1.5
293.15	0.3945	1361.2	1.5
293.15	0.4786	1370.2	1.5
293.15	0.4948	1372.1	1.5
293.15	0.5013	1372.6	1.5
293.15	0.5389	1376.9	1.5
293.15	0.5396	1377	1.5
293.15	0.5419	1377.1	1.5
293.15	0.5927	1382.8	1.5
293.15	0.6428	1388.4	1.5
293.15	0.6927	1394.2	1.5
293.15	0.7465	1400.3	1.5
293.15	0.7962	1405.9	1.5
293.15	0.8474	1411.9	1.5
293.15	0.897	1418	1.6
293.15	0.9485	1424.2	1.6
293.15	1	1430.5	1.6
298.15	0	1299.3	1.4
298.15	0.0621	1304.7	1.4
298.15	0.0938	1307.7	1.4
298.15	0.1434	1312.3	1.4
298.15	0.1546	1313.4	1.4
298.15	0.2031	1318.1	1.4
298.15	0.2475	1322.7	1.4
298.15	0.2972	1327.9	1.4
298.15	0.3472	1333.3	1.4
298.15	0.3945	1338.4	1.4
298.15	0.4786	1347.5	1.5
298.15	0.4948	1349.2	1.5
298.15	0.5013	1349.9	1.5
298.15	0.5389	1354.3	1.5
298.15	0.5396	1354.4	1.5
298.15	0.5419	1354.6	1.5
298.15	0.5927	1360.2	1.5
298.15	0.6428	1365.8	1.5
298.15	0.6927	1371.8	1.5
298.15	0.7465	1378	1.5
298.15	0.7962	1383.7	1.5
298.15	0.8474	1389.9	1.5
298.15	0.897	1396	1.5
298.15	0.9485	1402.4	1.6
298.15	1	1408.8	1.6
303.15	0	1276	1.4
303.15	0.0621	1281.5	1.4
303.15	0.0938	1284.3	1.4
303.15	0.1434	1289.2	1.4
303.15	0.1546	1290.3	1.4
303.15	0.2031	1295.1	1.4
303.15	0.2475	1299.7	1.4
303.15	0.2972	1305.2	1.4
303.15	0.3472	1310.6	1.4
303.15	0.3945	1315.6	1.4
303.15	0.4786	1325	1.4
303.15	0.4948	1326.9	1.4
303.15	0.5013	1327.4	1.4
303.15	0.5389	1331.8	1.4
303.15	0.5396	1331.9	1.5
303.15	0.5419	1332.1	1.5
303.15	0.5927	1337.9	1.5
303.15	0.6428	1343.5	1.5
303.15	0.6927	1349.5	1.5
303.15	0.7465	1355.6	1.5
303.15	0.7962	1361.5	1.5
303.15	0.8474	1367.9	1.5
303.15	0.897	1374.1	1.5
303.15	0.9485	1380.5	1.5
303.15	1	1387.3	1.5
308.15	0	1252.8	1.4
308.15	0.0621	1258.4	1.4
308.15	0.0938	1261.5	1.4
308.15	0.1434	1266.2	1.4
308.15	0.1546	1267.5	1.4
308.15	0.2031	1272.5	1.4
308.15	0.2475	1277.2	1.4
308.15	0.2972	1282.6	1.4
308.15	0.3472	1288.1	1.4
308.15	0.3945	1293.2	1.4
308.15	0.4786	1302.7	1.4
308.15	0.4948	1304.6	1.4
308.15	0.5013	1305.1	1.4
308.15	0.5389	1309.4	1.4
308.15	0.5396	1309.5	1.4
308.15	0.5419	1309.8	1.4
308.15	0.5927	1315.5	1.4
308.15	0.6428	1321.3	1.5
308.15	0.6927	1327.3	1.5
308.15	0.7465	1333.5	1.5
308.15	0.7962	1339.7	1.5
308.15	0.8474	1345.9	1.5
308.15	0.897	1352.2	1.5
308.15	0.9485	1359	1.5
308.15	1	1366	1.5
313.15	0	1229.8	1.3
313.15	0.0621	1235.4	1.3
313.15	0.0938	1238.6	1.4
313.15	0.1434	1243.5	1.4
313.15	0.1546	1244.6	1.4
313.15	0.2031	1249.7	1.4
313.15	0.2475	1254.5	1.4
313.15	0.2972	1260	1.4
313.15	0.3472	1265.6	1.4
313.15	0.3945	1270.9	1.4
313.15	0.4786	1280.4	1.4
313.15	0.4948	1282.3	1.4
313.15	0.5013	1283	1.4
313.15	0.5389	1287.3	1.4
313.15	0.5396	1287.4	1.4
313.15	0.5419	1287.7	1.4
313.15	0.5927	1293.5	1.4
313.15	0.6428	1299.4	1.4
313.15	0.6927	1305.2	1.4
313.15	0.7465	1311.7	1.5
313.15	0.7962	1317.8	1.5
313.15	0.8474	1324.1	1.5
313.15	0.897	1330.5	1.5
313.15	0.9485	1337.5	1.5
313.15	1	1344.5	1.5
318.15	0	1207	1.3
318.15	0.0621	1212.6	1.3
318.15	0.0938	1215.7	1.3
318.15	0.1434	1220.9	1.3
318.15	0.1546	1221.9	1.3
318.15	0.2031	1227.1	1.3
318.15	0.2475	1232	1.4
318.15	0.2972	1237.5	1.4
318.15	0.3472	1243.2	1.4
318.15	0.3945	1248.6	1.4
318.15	0.4786	1258.2	1.4
318.15	0.4948	1260	1.4
318.15	0.5013	1260.8	1.4
318.15	0.5389	1265.3	1.4
318.15	0.5396	1265.4	1.4
318.15	0.5419	1265.7	1.4
318.15	0.5927	1271.5	1.4
318.15	0.6428	1277.4	1.4
318.15	0.6927	1283.3	1.4
318.15	0.7465	1289.9	1.4
318.15	0.7962	1295.8	1.5
318.15	0.8474	1302.4	1.5
318.15	0.897	1308.8	1.5
318.15	0.9485	1315.9	1.5
318.15	1	1323.1	1.5
323.15	0	1184.5	1.3
323.15	0.0621	1190.1	1.3
323.15	0.0938	1193.2	1.3
323.15	0.1434	1198.3	1.3
323.15	0.1546	1199.4	1.3
323.15	0.2031	1204.6	1.3
323.15	0.2475	1209.5	1.3
323.15	0.2972	1215.1	1.3
323.15	0.3472	1220.9	1.4
323.15	0.3945	1226.2	1.4
323.15	0.4786	1236.1	1.4
323.15	0.4948	1237.9	1.4
323.15	0.5013	1238.7	1.4
323.15	0.5389	1243.1	1.4
323.15	0.5396	1243.2	1.4
323.15	0.5419	1243.5	1.4
323.15	0.5927	1249.5	1.4
323.15	0.6428	1255.5	1.4
323.15	0.6927	1261.5	1.4
323.15	0.7465	1268.1	1.4
323.15	0.7962	1274.1	1.4
323.15	0.8474	1280.6	1.4
323.15	0.897	1287.1	1.5
323.15	0.9485	1294.4	1.5
323.15	1	1301.8	1.5

System: benzene + cyclohexylamine; phases: Liquid
Fixed: Pressure, kPa = 101
Property: Mass density, kg/m3 (Liquid); method: Vibrating tube method
Temperature, K	Mole fraction of cyclohexylamine	Mass density, kg/m3	uncertainty
293.15	0	878.95	0.08
293.15	0.0621	877.45	0.08
293.15	0.0938	876.73	0.08
293.15	0.1434	875.68	0.08
293.15	0.1546	875.47	0.08
293.15	0.2031	874.52	0.08
293.15	0.2475	873.73	0.08
293.15	0.2972	872.9	0.09
293.15	0.3472	872.15	0.09
293.15	0.3945	871.5	0.09
293.15	0.4786	870.45	0.09
293.15	0.4948	870.28	0.09
293.15	0.5013	870.2	0.09
293.15	0.5389	869.83	0.09
293.15	0.5396	869.83	0.09
293.15	0.5419	869.8	0.09
293.15	0.5927	869.3	0.1
293.15	0.6428	868.89	0.1
293.15	0.6927	868.55	0.1
293.15	0.7465	868.2	0.1
293.15	0.7962	867.93	0.11
293.15	0.8474	867.74	0.11
293.15	0.897	867.61	0.11
293.15	0.9485	867.49	0.12
293.15	1	867.39	0.12
298.15	0	873.61	0.08
298.15	0.0621	872.22	0.08
298.15	0.0938	871.52	0.08
298.15	0.1434	870.56	0.08
298.15	0.1546	870.34	0.08
298.15	0.2031	869.46	0.09
298.15	0.2475	868.71	0.09
298.15	0.2972	867.95	0.09
298.15	0.3472	867.25	0.09
298.15	0.3945	866.64	0.09
298.15	0.4786	865.69	0.09
298.15	0.4948	865.5	0.09
298.15	0.5013	865.45	0.09
298.15	0.5389	865.08	0.1
298.15	0.5396	865.08	0.1
298.15	0.5419	865.06	0.1
298.15	0.5927	864.62	0.1
298.15	0.6428	864.23	0.1
298.15	0.6927	863.88	0.1
298.15	0.7465	863.59	0.11
298.15	0.7962	863.33	0.11
298.15	0.8474	863.17	0.11
298.15	0.897	863.04	0.11
298.15	0.9485	862.94	0.12
298.15	1	862.85	0.12
303.15	0	868.25	0.08
303.15	0.0621	866.94	0.08
303.15	0.0938	866.31	0.08
303.15	0.1434	865.4	0.09
303.15	0.1546	865.2	0.09
303.15	0.2031	864.38	0.09
303.15	0.2475	863.69	0.09
303.15	0.2972	862.98	0.09
303.15	0.3472	862.36	0.09
303.15	0.3945	861.76	0.09
303.15	0.4786	860.88	0.1
303.15	0.4948	860.72	0.1
303.15	0.5013	860.67	0.1
303.15	0.5389	860.32	0.1
303.15	0.5396	860.32	0.1
303.15	0.5419	860.3	0.1
303.15	0.5927	859.9	0.1
303.15	0.6428	859.54	0.1
303.15	0.6927	859.24	0.11
303.15	0.7465	858.96	0.11
303.15	0.7962	858.72	0.11
303.15	0.8474	858.58	0.11
303.15	0.897	858.47	0.12
303.15	0.9485	858.38	0.12
303.15	1	858.31	0.12
308.15	0	862.88	0.09
308.15	0.0621	861.67	0.09
308.15	0.0938	861.08	0.09
308.15	0.1434	860.23	0.09
308.15	0.1546	860.04	0.09
308.15	0.2031	859.28	0.09
308.15	0.2475	858.65	0.09
308.15	0.2972	857.99	0.09
308.15	0.3472	857.38	0.09
308.15	0.3945	856.87	0.09
308.15	0.4786	856.07	0.1
308.15	0.4948	855.9	0.1
308.15	0.5013	855.87	0.1
308.15	0.5389	855.55	0.1
308.15	0.5396	855.55	0.1
308.15	0.5419	855.53	0.1
308.15	0.5927	855.17	0.1
308.15	0.6428	854.84	0.1
308.15	0.6927	854.58	0.11
308.15	0.7465	854.32	0.11
308.15	0.7962	854.16	0.11
308.15	0.8474	853.99	0.11
308.15	0.897	853.9	0.12
308.15	0.9485	853.83	0.12
308.15	1	853.76	0.12
313.15	0	857.48	0.09
313.15	0.0621	856.39	0.09
313.15	0.0938	855.84	0.09
313.15	0.1434	855.11	0.09
313.15	0.1546	854.94	0.09
313.15	0.2031	854.22	0.09
313.15	0.2475	853.65	0.09
313.15	0.2972	853.04	0.09
313.15	0.3472	852.51	0.09
313.15	0.3945	852.03	0.1
313.15	0.4786	851.24	0.1
313.15	0.4948	851.15	0.1
313.15	0.5013	851.07	0.1
313.15	0.5389	850.78	0.1
313.15	0.5396	850.78	0.1
313.15	0.5419	850.75	0.1
313.15	0.5927	850.43	0.1
313.15	0.6428	850.14	0.11
313.15	0.6927	849.92	0.11
313.15	0.7465	849.68	0.11
313.15	0.7962	849.53	0.11
313.15	0.8474	849.39	0.12
313.15	0.897	849.32	0.12
313.15	0.9485	849.27	0.12
313.15	1	849.23	0.13
318.15	0	852.08	0.09
318.15	0.0621	851.07	0.09
318.15	0.0938	850.53	0.09
318.15	0.1434	849.85	0.09
318.15	0.1546	849.69	0.09
318.15	0.2031	849.06	0.09
318.15	0.2475	848.53	0.09
318.15	0.2972	847.99	0.1
318.15	0.3472	847.44	0.1
318.15	0.3945	847.06	0.1
318.15	0.4786	846.39	0.1
318.15	0.4948	846.28	0.1
318.15	0.5013	846.24	0.1
318.15	0.5389	845.99	0.1
318.15	0.5396	845.99	0.1
318.15	0.5419	845.99	0.1
318.15	0.5927	845.7	0.11
318.15	0.6428	845.45	0.11
318.15	0.6927	845.29	0.11
318.15	0.7465	845.06	0.11
318.15	0.7962	844.93	0.12
318.15	0.8474	844.84	0.12
318.15	0.897	844.74	0.12
318.15	0.9485	844.71	0.12
318.15	1	844.68	0.13
323.15	0	846.65	0.09
323.15	0.0621	845.7	0.09
323.15	0.0938	845.26	0.09
323.15	0.1434	844.64	0.09
323.15	0.1546	844.5	0.09
323.15	0.2031	843.92	0.1
323.15	0.2475	843.45	0.1
323.15	0.2972	842.96	0.1
323.15	0.3472	842.52	0.1
323.15	0.3945	842.14	0.1
323.15	0.4786	841.55	0.1
323.15	0.4948	841.45	0.1
323.15	0.5013	841.42	0.1
323.15	0.5389	841.19	0.11
323.15	0.5396	841.19	0.11
323.15	0.5419	841.19	0.11
323.15	0.5927	840.94	0.11
323.15	0.6428	840.73	0.11
323.15	0.6927	840.66	0.11
323.15	0.7465	840.41	0.11
323.15	0.7962	840.3	0.12
323.15	0.8474	840.24	0.12
323.15	0.897	840.16	0.12
323.15	0.9485	840.16	0.13
323.15	1	840.14	0.13
