Measured thermophysical data. Temperature and pressure dependence of densities and viscosities for binary mixtures of methyl decanoate plus n-heptane
Source: Thermochim. Acta, 2018, 10.1016/j.tca.2018.10.018
Compound 1: methyl decanoate, C11H22O2, InChI=1S/C11H22O2/c1-3-4-5-6-7-8-9-10-11(12)13-2/h3-10H2,1-2H3, purity 99%
Compound 2: heptane, C7H16, InChI=1S/C7H16/c1-3-5-7-6-4-2/h3-7H2,1-2H3, purity 99%

System: methyl decanoate; phases: Liquid
Property: Mass density, kg/m3 (Liquid); method: Siemens Coriolis flowmeter
Temperature, K	Pressure, kPa	Mass density, kg/m3	uncertainty
298.15	100	868	2
298.15	3000	870	2
298.15	6000	872	2
298.15	9000	874	2
298.15	12000	877	2
298.15	15000	878	2
308.15	100	860	2
308.15	3010	862	2
308.15	6000	864	2
308.15	9000	866	2
308.15	12000	869	2
308.15	15000	871	2
318.15	100	853	2
318.15	3000	854	2
318.15	6000	856	2
318.15	9000	859	2
318.15	12000	861	2
318.15	15000	863	2

System: methyl decanoate; phases: Liquid
Property: Viscosity, Pa*s (Liquid); method: Capillary tube (Ostwald; Ubbelohde) method
Temperature, K	Pressure, kPa	Viscosity, Pa*s	uncertainty
298.15	100	0.001934	6e-05
298.15	3000	0.001992	6.1e-05
298.15	6000	0.002058	6.4e-05
298.15	9000	0.002123	6.6e-05
298.15	12000	0.002209	6.8e-05
298.15	15000	0.002272	7e-05
308.15	100	0.001628	5e-05
308.15	3010	0.001675	5.2e-05
308.15	6000	0.001727	5.3e-05
308.15	9000	0.001779	5.5e-05
308.15	12000	0.001835	5.7e-05
308.15	15000	0.001888	5.8e-05
318.15	100	0.00138	4.3e-05
318.15	3000	0.001417	4.4e-05
318.15	6000	0.001462	4.5e-05
318.15	9000	0.001491	4.6e-05
318.15	12000	0.001534	4.7e-05
318.15	15000	0.001578	4.9e-05

System: heptane; phases: Liquid
Property: Mass density, kg/m3 (Liquid); method: Siemens Coriolis flowmeter
Temperature, K	Pressure, kPa	Mass density, kg/m3	uncertainty
298.15	100	680	2
298.15	3000	683	2
298.15	6000	686	2
298.15	9000	689	2
298.15	12000	691	2
298.15	15000	694	2
308.15	100	670	2
308.15	3000	674	2
308.15	6000	677	2
308.15	9000	680	2
308.15	12000	683	2
308.15	15000	685	2
318.15	100	662	2
318.15	3000	666	2
318.15	6000	669	2
318.15	9000	672	2
318.15	12000	675	2
318.15	15000	678	2

System: heptane; phases: Liquid
Property: Viscosity, Pa*s (Liquid); method: Capillary tube (Ostwald; Ubbelohde) method
Temperature, K	Pressure, kPa	Viscosity, Pa*s	uncertainty
298.15	100	0.000404	1.3e-05
298.15	3000	0.000415	1.3e-05
298.15	6000	0.00042	1.3e-05
298.15	9000	0.000432	1.3e-05
298.15	12000	0.000446	1.4e-05
298.15	15000	0.000454	1.4e-05
308.15	100	0.000367	1.1e-05
308.15	3000	0.000371	1.2e-05
308.15	6000	0.000385	1.2e-05
308.15	9000	0.000396	1.2e-05
308.15	12000	0.000404	1.3e-05
308.15	15000	0.000411	1.3e-05
318.15	100	0.00033	1e-05
318.15	3000	0.000339	1.1e-05
318.15	6000	0.000347	1.1e-05
318.15	9000	0.000359	1.1e-05
318.15	12000	0.000369	1.2e-05
318.15	15000	0.000374	1.2e-05

System: methyl decanoate + heptane; phases: Liquid
Property: Mass density, kg/m3 (Liquid); method: Siemens Coriolis flowmeter
Temperature, K	Pressure, kPa	Mole fraction of methyl decanoate	Mass density, kg/m3	uncertainty
298.15	100	0.101	706	2
298.15	100	0.202	730	2
298.15	100	0.299	753	2
298.15	100	0.403	773	2
298.15	100	0.501	792	2
298.15	100	0.601	810	2
298.15	100	0.698	826	2
298.15	100	0.799	841	2
298.15	100	0.902	855	2
298.15	3000	0.101	709	2
298.15	3000	0.202	734	2
298.15	3000	0.299	756	2
298.15	3000	0.403	776	2
298.15	3000	0.501	795	2
298.15	3000	0.601	812	2
298.15	3000	0.698	828	2
298.15	3000	0.799	843	2
298.15	3000	0.902	857	2
298.15	6000	0.101	712	2
298.15	6000	0.202	736	2
298.15	6000	0.299	758	2
298.15	6000	0.403	779	2
298.15	6000	0.501	798	2
298.15	6000	0.601	815	2
298.15	6000	0.698	831	2
298.15	6000	0.799	846	2
298.15	6000	0.902	859	2
298.15	9000	0.101	715	2
298.15	9000	0.202	739	2
298.15	9000	0.299	761	2
298.15	9000	0.403	781	2
298.15	9000	0.501	800	2
298.15	9000	0.601	817	2
298.15	9000	0.698	833	2
298.15	9000	0.799	848	2
298.15	9000	0.902	861	2
298.15	12000	0.101	718	2
298.15	12000	0.202	742	2
298.15	12000	0.299	764	2
298.15	12000	0.403	784	2
298.15	12000	0.501	802	2
298.15	12000	0.601	819	2
298.15	12000	0.698	835	2
298.15	12000	0.799	850	2
298.15	12000	0.902	863	2
298.15	15000	0.101	720	2
298.15	15000	0.202	744	2
298.15	15000	0.299	766	2
298.15	15000	0.403	786	2
298.15	15000	0.501	805	2
298.15	15000	0.601	822	2
298.15	15000	0.698	837	2
298.15	15000	0.799	852	2
298.15	15000	0.902	865	2
308.15	100	0.101	698	2
308.15	100	0.202	722	2
308.15	100	0.299	744	2
308.15	100	0.403	765	2
308.15	100	0.501	784	2
308.15	100	0.601	801	2
308.15	100	0.698	818	2
308.15	100	0.799	833	2
308.15	100	0.902	847	2
308.15	3000	0.101	700	2
308.15	3000	0.202	724	2
308.15	3000	0.299	747	2
308.15	3000	0.403	767	2
308.15	3000	0.501	786	2
308.15	3000	0.601	804	2
308.15	3000	0.698	820	2
308.15	3000	0.799	835	2
308.15	3000	0.902	849	2
308.15	6000	0.101	703	2
308.15	6000	0.202	727	2
308.15	6000	0.299	750	2
308.15	6000	0.403	770	2
308.15	6000	0.501	789	2
308.15	6000	0.601	806	2
308.15	6000	0.698	822	2
308.15	6000	0.799	837	2
308.15	6000	0.902	851	2
308.15	9000	0.101	706	2
308.15	9000	0.202	730	2
308.15	9000	0.299	752	2
308.15	9000	0.403	773	2
308.15	9000	0.501	792	2
308.15	9000	0.601	809	2
308.15	9000	0.698	825	2
308.15	9000	0.799	840	2
308.15	9000	0.902	853	2
308.15	12000	0.101	709	2
308.15	12000	0.202	733	2
308.15	12000	0.299	755	2
308.15	12000	0.403	775	2
308.15	12000	0.501	794	2
308.15	12000	0.601	811	2
308.15	12000	0.698	827	2
308.15	12000	0.799	842	2
308.15	12000	0.902	856	2
308.15	15000	0.101	712	2
308.15	15000	0.202	736	2
308.15	15000	0.299	758	2
308.15	15000	0.403	778	2
308.15	15000	0.501	797	2
308.15	15000	0.601	814	2
308.15	15000	0.698	829	2
308.15	15000	0.799	844	2
308.15	15000	0.902	858	2
318.15	100	0.101	689	2
318.15	100	0.202	713	2
318.15	100	0.299	736	2
318.15	100	0.403	757	2
318.15	100	0.501	776	2
318.15	100	0.601	793	2
318.15	100	0.698	809	2
318.15	100	0.799	825	2
318.15	100	0.902	839	2
318.15	3000	0.101	692	2
318.15	3000	0.202	717	2
318.15	3000	0.299	739	2
318.15	3000	0.403	760	2
318.15	3000	0.501	778	2
318.15	3000	0.601	796	2
318.15	3000	0.698	812	2
318.15	3000	0.799	827	2
318.15	3000	0.902	841	2
318.15	6000	0.101	696	2
318.15	6000	0.202	720	2
318.15	6000	0.299	742	2
318.15	6000	0.403	763	2
318.15	6000	0.501	781	2
318.15	6000	0.601	799	2
318.15	6000	0.698	815	2
318.15	6000	0.799	830	2
318.15	6000	0.902	843	2
318.15	9000	0.101	699	2
318.15	9000	0.202	723	2
318.15	9000	0.299	745	2
318.15	9000	0.403	765	2
318.15	9000	0.501	784	2
318.15	9000	0.601	801	2
318.15	9000	0.698	817	2
318.15	9000	0.799	832	2
318.15	9000	0.902	846	2
318.15	12000	0.101	702	2
318.15	12000	0.202	726	2
318.15	12000	0.299	748	2
318.15	12000	0.403	768	2
318.15	12000	0.501	787	2
318.15	12000	0.601	804	2
318.15	12000	0.698	820	2
318.15	12000	0.799	834	2
318.15	12000	0.902	848	2
318.15	15000	0.101	705	2
318.15	15000	0.202	729	2
318.15	15000	0.299	751	2
318.15	15000	0.403	771	2
318.15	15000	0.501	789	2
318.15	15000	0.601	806	2
318.15	15000	0.698	822	2
318.15	15000	0.799	837	2
318.15	15000	0.902	850	2
298.15	100	1	868	2
298.15	3000	1	870	2
298.15	6000	1	872	2
298.15	9000	1	874	2
298.15	12000	1	877	2
298.15	15000	1	878	2
308.15	100	1	860	2
308.15	3010	1	862	2
308.15	6000	1	864	2
308.15	9000	1	866	2
308.15	12000	1	869	2
308.15	15000	1	871	2
318.15	100	1	853	2
318.15	3000	1	854	2
318.15	6000	1	856	2
318.15	9000	1	859	2
318.15	12000	1	861	2
318.15	15000	1	863	2
298.15	100	0	680	2
298.15	3000	0	683	2
298.15	6000	0	686	2
298.15	9000	0	689	2
298.15	12000	0	691	2
298.15	15000	0	694	2
308.15	100	0	670	2
308.15	3000	0	674	2
308.15	6000	0	677	2
308.15	9000	0	680	2
308.15	12000	0	683	2
308.15	15000	0	685	2
318.15	100	0	662	2
318.15	3000	0	666	2
318.15	6000	0	669	2
318.15	9000	0	672	2
318.15	12000	0	675	2
318.15	15000	0	678	2

System: methyl decanoate + heptane; phases: Liquid
Property: Viscosity, Pa*s (Liquid); method: Capillary tube (Ostwald; Ubbelohde) method
Temperature, K	Pressure, kPa	Mole fraction of methyl decanoate	Viscosity, Pa*s	uncertainty
298.15	100	0.101	0.000465	1.5e-05
298.15	100	0.202	0.000549	1.7e-05
298.15	100	0.299	0.000655	2e-05
298.15	100	0.403	0.000779	2.4e-05
298.15	100	0.501	0.000912	2.8e-05
298.15	100	0.601	0.001071	3.3e-05
298.15	100	0.698	0.001257	3.9e-05
298.15	100	0.799	0.001461	4.5e-05
298.15	100	0.902	0.00167	5.2e-05
298.15	3000	0.101	0.000483	1.5e-05
298.15	3000	0.202	0.000575	1.8e-05
298.15	3000	0.299	0.000686	2.1e-05
298.15	3000	0.403	0.000815	2.5e-05
298.15	3000	0.501	0.000955	3e-05
298.15	3000	0.601	0.001119	3.5e-05
298.15	3000	0.698	0.00131	4.1e-05
298.15	3000	0.799	0.00152	4.7e-05
298.15	3000	0.902	0.001735	5.4e-05
298.15	6000	0.101	0.000502	1.6e-05
298.15	6000	0.202	0.000599	1.9e-05
298.15	6000	0.299	0.000717	2.2e-05
298.15	6000	0.403	0.000851	2.6e-05
298.15	6000	0.501	0.000996	3.1e-05
298.15	6000	0.601	0.001166	3.6e-05
298.15	6000	0.698	0.001364	4.2e-05
298.15	6000	0.799	0.00158	4.9e-05
298.15	6000	0.902	0.0018	5.6e-05
298.15	9000	0.101	0.000519	1.6e-05
298.15	9000	0.202	0.000623	1.9e-05
298.15	9000	0.299	0.000746	2.3e-05
298.15	9000	0.403	0.000886	2.8e-05
298.15	9000	0.501	0.001038	3.2e-05
298.15	9000	0.601	0.001214	3.8e-05
298.15	9000	0.698	0.001417	4.4e-05
298.15	9000	0.799	0.001639	5.1e-05
298.15	9000	0.902	0.001865	5.8e-05
298.15	12000	0.101	0.000537	1.7e-05
298.15	12000	0.202	0.000647	2e-05
298.15	12000	0.299	0.000776	2.4e-05
298.15	12000	0.403	0.000922	2.9e-05
298.15	12000	0.501	0.001079	3.4e-05
298.15	12000	0.601	0.001261	3.9e-05
298.15	12000	0.698	0.001471	4.6e-05
298.15	12000	0.799	0.001698	5.3e-05
298.15	12000	0.902	0.00193	6e-05
298.15	15000	0.101	0.000555	1.7e-05
298.15	15000	0.202	0.000671	2.1e-05
298.15	15000	0.299	0.000806	2.5e-05
298.15	15000	0.403	0.000958	3e-05
298.15	15000	0.501	0.001121	3.5e-05
298.15	15000	0.601	0.001308	4.1e-05
298.15	15000	0.698	0.001524	4.7e-05
298.15	15000	0.799	0.001757	5.4e-05
298.15	15000	0.902	0.001995	6.2e-05
308.15	100	0.101	0.000394	1.2e-05
308.15	100	0.202	0.000454	1.4e-05
308.15	100	0.299	0.00052	1.6e-05
308.15	100	0.403	0.000613	1.9e-05
308.15	100	0.501	0.000716	2.2e-05
308.15	100	0.601	0.000843	2.6e-05
308.15	100	0.698	0.000999	3.1e-05
308.15	100	0.799	0.001173	3.6e-05
308.15	100	0.902	0.001351	4.2e-05
308.15	3000	0.101	0.000411	1.3e-05
308.15	3000	0.202	0.000475	1.5e-05
308.15	3000	0.299	0.000547	1.7e-05
308.15	3000	0.403	0.000644	2e-05
308.15	3000	0.501	0.000752	2.3e-05
308.15	3000	0.601	0.000885	2.8e-05
308.15	3000	0.698	0.001045	3.3e-05
308.15	3000	0.799	0.001224	3.8e-05
308.15	3000	0.902	0.001407	4.4e-05
308.15	6000	0.101	0.000428	1.3e-05
308.15	6000	0.202	0.000496	1.5e-05
308.15	6000	0.299	0.000574	1.8e-05
308.15	6000	0.403	0.000676	2.1e-05
308.15	6000	0.501	0.000789	2.5e-05
308.15	6000	0.601	0.000926	2.9e-05
308.15	6000	0.698	0.001091	3.4e-05
308.15	6000	0.799	0.001276	4e-05
308.15	6000	0.902	0.001463	4.5e-05
308.15	9000	0.101	0.000446	1.4e-05
308.15	9000	0.202	0.000518	1.6e-05
308.15	9000	0.299	0.0006	1.9e-05
308.15	9000	0.403	0.000707	2.2e-05
308.15	9000	0.501	0.000825	2.6e-05
308.15	9000	0.601	0.000967	3e-05
308.15	9000	0.698	0.001138	3.5e-05
308.15	9000	0.799	0.001327	4.1e-05
308.15	9000	0.902	0.001519	4.7e-05
308.15	12000	0.101	0.000463	1.4e-05
308.15	12000	0.202	0.000539	1.7e-05
308.15	12000	0.299	0.000626	2e-05
308.15	12000	0.403	0.000739	2.3e-05
308.15	12000	0.501	0.000862	2.7e-05
308.15	12000	0.601	0.001009	3.1e-05
308.15	12000	0.698	0.001184	3.7e-05
308.15	12000	0.799	0.001378	4.3e-05
308.15	12000	0.902	0.001575	4.9e-05
308.15	15000	0.101	0.00048	1.5e-05
308.15	15000	0.202	0.000561	1.8e-05
308.15	15000	0.299	0.000653	2e-05
308.15	15000	0.403	0.000771	2.4e-05
308.15	15000	0.501	0.000898	2.8e-05
308.15	15000	0.601	0.001051	3.3e-05
308.15	15000	0.698	0.00123	3.8e-05
308.15	15000	0.799	0.001429	4.4e-05
308.15	15000	0.902	0.001631	5.1e-05
318.15	100	0.101	0.000339	1.1e-05
318.15	100	0.202	0.000375	1.2e-05
318.15	100	0.299	0.000418	1.3e-05
318.15	100	0.403	0.000486	1.5e-05
318.15	100	0.501	0.000565	1.8e-05
318.15	100	0.601	0.000669	2.1e-05
318.15	100	0.698	0.0008	2.5e-05
318.15	100	0.799	0.000951	3e-05
318.15	100	0.902	0.001104	3.4e-05
318.15	3000	0.101	0.000355	1.1e-05
318.15	3000	0.202	0.000394	1.2e-05
318.15	3000	0.299	0.000441	1.4e-05
318.15	3000	0.403	0.000514	1.6e-05
318.15	3000	0.501	0.000597	1.9e-05
318.15	3000	0.601	0.000704	2.2e-05
318.15	3000	0.698	0.00084	2.6e-05
318.15	3000	0.799	0.000995	3.1e-05
318.15	3000	0.902	0.001152	3.6e-05
318.15	6000	0.101	0.000371	1.2e-05
318.15	6000	0.202	0.000414	1.3e-05
318.15	6000	0.299	0.000465	1.5e-05
318.15	6000	0.403	0.000541	1.7e-05
318.15	6000	0.501	0.000629	2e-05
318.15	6000	0.601	0.00074	2.3e-05
318.15	6000	0.698	0.00088	2.7e-05
318.15	6000	0.799	0.001039	3.2e-05
318.15	6000	0.902	0.001199	3.7e-05
318.15	9000	0.101	0.000386	1.2e-05
318.15	9000	0.202	0.000433	1.4e-05
318.15	9000	0.299	0.000489	1.5e-05
318.15	9000	0.403	0.000569	1.8e-05
318.15	9000	0.501	0.000661	2.1e-05
318.15	9000	0.601	0.000776	2.4e-05
318.15	9000	0.698	0.000919	2.9e-05
318.15	9000	0.799	0.001083	3.4e-05
318.15	9000	0.902	0.001247	3.9e-05
318.15	12000	0.101	0.000402	1.3e-05
318.15	12000	0.202	0.000452	1.4e-05
318.15	12000	0.299	0.000512	1.6e-05
318.15	12000	0.403	0.000596	1.9e-05
318.15	12000	0.501	0.000692	2.2e-05
318.15	12000	0.601	0.000812	2.5e-05
318.15	12000	0.698	0.000959	3e-05
318.15	12000	0.799	0.001126	3.5e-05
318.15	12000	0.902	0.001295	4e-05
318.15	15000	0.101	0.000418	1.3e-05
318.15	15000	0.202	0.000472	1.5e-05
318.15	15000	0.299	0.000536	1.7e-05
318.15	15000	0.403	0.000624	1.9e-05
318.15	15000	0.501	0.000724	2.3e-05
318.15	15000	0.601	0.000847	2.6e-05
318.15	15000	0.698	0.000998	3.1e-05
318.15	15000	0.799	0.00117	3.6e-05
318.15	15000	0.902	0.001343	4.2e-05
298.15	100	1	0.001934	6e-05
298.15	3000	1	0.001992	6.1e-05
298.15	6000	1	0.002058	6.4e-05
298.15	9000	1	0.002123	6.6e-05
298.15	12000	1	0.002209	6.8e-05
298.15	15000	1	0.002272	7e-05
308.15	100	1	0.001628	5e-05
308.15	3010	1	0.001675	5.2e-05
308.15	6000	1	0.001727	5.3e-05
308.15	9000	1	0.001779	5.5e-05
308.15	12000	1	0.001835	5.7e-05
308.15	15000	1	0.001888	5.8e-05
318.15	100	1	0.00138	4.3e-05
318.15	3000	1	0.001417	4.4e-05
318.15	6000	1	0.001462	4.5e-05
318.15	9000	1	0.001491	4.6e-05
318.15	12000	1	0.001534	4.7e-05
318.15	15000	1	0.001578	4.9e-05
298.15	100	0	0.000404	1.3e-05
298.15	3000	0	0.000415	1.3e-05
298.15	6000	0	0.00042	1.3e-05
298.15	9000	0	0.000432	1.3e-05
298.15	12000	0	0.000446	1.4e-05
298.15	15000	0	0.000454	1.4e-05
308.15	100	0	0.000367	1.1e-05
308.15	3000	0	0.000371	1.2e-05
308.15	6000	0	0.000385	1.2e-05
308.15	9000	0	0.000396	1.2e-05
308.15	12000	0	0.000404	1.3e-05
308.15	15000	0	0.000411	1.3e-05
318.15	100	0	0.00033	1e-05
318.15	3000	0	0.000339	1.1e-05
318.15	6000	0	0.000347	1.1e-05
318.15	9000	0	0.000359	1.1e-05
318.15	12000	0	0.000369	1.2e-05
318.15	15000	0	0.000374	1.2e-05
