Measured thermophysical data. Topological investigations of molecular interactions of binary and ternary mixtures containing  tetrahydropyran, o-toluidine and N-methyl formamide
Source: Thermochim. Acta, 2011, 10.1016/j.tca.2011.06.020
Compound 1: 2-methylaniline, C7H9N, InChI=1S/C7H9N/c1-6-4-2-3-5-7(6)8/h2-5H,8H2,1H3, purity 99%
Compound 2: tetrahydropyran, C5H10O, InChI=1S/C5H10O/c1-2-4-6-5-3-1/h1-5H2, purity 98%
Compound 3: N-methylformamide, C2H5NO, InChI=1S/C2H5NO/c1-3-2-4/h2H,1H3,(H,3,4), purity 98%

System: 2-methylaniline; phases: Liquid
Fixed: Pressure, kPa = 101
Property: Speed of sound, m/s (Liquid); method: Sing-around technique in a fixed-path interferometer
Temperature, K	Speed of sound, m/s	uncertainty
298.15	1602.6	2.35
303.15	1577.8	2.57
308.15	1558.38	2.35
308.15	1558.4	2.35

System: 2-methylaniline; phases: Liquid
Fixed: Pressure, kPa = 101
Property: Mass density, kg/m3 (Liquid); method: Vibrating tube method
Temperature, K	Mass density, kg/m3	uncertainty
298.15	994.351	0.232
303.15	990.224	0.446
308.15	986.069	0.234

System: tetrahydropyran; phases: Liquid
Fixed: Pressure, kPa = 101
Property: Speed of sound, m/s (Liquid); method: Sing-around technique in a fixed-path interferometer
Temperature, K	Speed of sound, m/s	uncertainty
298.15	1269.88	2.9
303.15	1246.83	2.89
308.15	1224.47	2.89

System: tetrahydropyran; phases: Liquid
Fixed: Pressure, kPa = 101
Property: Mass density, kg/m3 (Liquid); method: Vibrating tube method
Temperature, K	Mass density, kg/m3	uncertainty
298.15	879.136	0.703
303.15	873.992	0.698
308.15	868.831	0.692

System: N-methylformamide; phases: Liquid
Fixed: Pressure, kPa = 101
Property: Speed of sound, m/s (Liquid); method: Sing-around technique in a fixed-path interferometer
Temperature, K	Speed of sound, m/s	uncertainty
298.15	1432.86	2.9
303.15	1417.66	2.9
308.15	1402.55	2.9

System: N-methylformamide; phases: Liquid
Fixed: Pressure, kPa = 101
Property: Mass density, kg/m3 (Liquid); method: Vibrating tube method
Temperature, K	Mass density, kg/m3	uncertainty
298.15	999.004	0.836
303.15	994.653	0.831
308.15	990.302	0.826

System: 2-methylaniline + tetrahydropyran; phases: Liquid
Fixed: Pressure, kPa = 101
Property: Speed of sound, m/s (Liquid); method: Sing-around technique in a fixed-path interferometer
Temperature, K	Mole fraction of 2-methylaniline	Speed of sound, m/s	uncertainty
298.15	0	1269.88	2.9
298.15	0.0732	1296.39	2.85
298.15	0.1342	1318.61	2.81
298.15	0.1768	1333.98	2.78
298.15	0.2207	1349.85	2.75
298.15	0.2721	1368.16	2.72
298.15	0.3328	1389.27	2.69
298.15	0.3562	1397.33	2.67
298.15	0.3901	1408.97	2.65
298.15	0.4288	1421.78	2.63
298.15	0.4567	1430.96	2.61
298.15	0.5014	1445.54	2.59
298.15	0.5362	1456.56	2.57
298.15	0.5982	1475.66	2.54
298.15	0.6243	1483.59	2.52
298.15	0.6644	1495.66	2.5
298.15	0.7125	1510.15	2.48
298.15	0.7703	1527.4	2.45
298.15	0.8025	1537.04	2.44
298.15	1	1602.6	2.35
303.15	0	1246.83	2.89
303.15	0.0732	1274.12	2.85
303.15	0.1342	1296.85	2.81
303.15	0.1768	1312.52	2.78
303.15	0.2207	1328.63	2.75
303.15	0.2721	1347.13	2.72
303.15	0.3328	1368.74	2.68
303.15	0.3562	1376.92	2.67
303.15	0.3901	1388.49	2.65
303.15	0.4288	1401.63	2.63
303.15	0.4567	1411.09	2.61
303.15	0.5014	1425.65	2.59
303.15	0.5362	1437.04	2.57
303.15	0.5982	1456.47	2.53
303.15	0.6243	1464.71	2.52
303.15	0.6644	1476.95	2.5
303.15	0.7125	1491.34	2.48
303.15	0.7703	1508.67	2.45
303.15	0.8025	1518.08	2.43
303.15	1	1577.8	2.35
308.15	0	1224.47	2.89
308.15	0.0732	1252.49	2.84
308.15	0.1342	1275.85	2.8
308.15	0.1768	1291.97	2.78
308.15	0.2207	1308.47	2.75
308.15	0.2721	1327.61	2.72
308.15	0.3328	1349.47	2.68
308.15	0.3562	1357.79	2.67
308.15	0.3901	1369.76	2.65
308.15	0.4288	1383.06	2.63
308.15	0.4567	1392.32	2.61
308.15	0.5014	1407.17	2.58
308.15	0.5362	1418.24	2.57
308.15	0.5982	1437.56	2.53
308.15	0.6243	1445.68	2.52
308.15	0.6644	1457.6	2.5
308.15	0.7125	1471.77	2.47
308.15	0.7703	1488.59	2.45
308.15	0.8025	1497.88	2.43
308.15	1	1558.38	2.35

System: 2-methylaniline + tetrahydropyran; phases: Liquid
Fixed: Pressure, kPa = 101
Property: Mass density, kg/m3 (Liquid); method: Vibrating tube method
Temperature, K	Mole fraction of 2-methylaniline	Mass density, kg/m3	uncertainty
298.15	0	879.136	0.703
298.15	0.0732	890.691	0.669
298.15	0.1342	899.769	0.639
298.15	0.1768	905.846	0.618
298.15	0.2207	911.867	0.596
298.15	0.2721	918.66	0.57
298.15	0.3328	926.351	0.539
298.15	0.3562	929.219	0.528
298.15	0.3901	933.275	0.511
298.15	0.4288	937.818	0.491
298.15	0.4567	940.995	0.477
298.15	0.5014	945.986	0.455
298.15	0.5362	949.788	0.438
298.15	0.5982	956.336	0.408
298.15	0.6243	959.04	0.396
298.15	0.6644	963.103	0.377
298.15	0.7125	967.87	0.354
298.15	0.7703	973.454	0.328
298.15	0.8025	976.501	0.314
298.15	1	994.351	0.234
303.15	0	873.992	0.698
303.15	0.0732	885.73	0.664
303.15	0.1342	894.897	0.635
303.15	0.1768	900.991	0.614
303.15	0.2207	907.057	0.592
303.15	0.2721	913.86	0.567
303.15	0.3328	921.578	0.536
303.15	0.3562	924.445	0.525
303.15	0.3901	928.536	0.508
303.15	0.4288	933.094	0.489
303.15	0.4567	936.325	0.475
303.15	0.5014	941.37	0.453
303.15	0.5362	945.194	0.436
303.15	0.5982	951.867	0.407
303.15	0.6243	954.607	0.394
303.15	0.6644	958.737	0.375
303.15	0.7125	963.596	0.353
303.15	0.7703	969.292	0.327
303.15	0.8025	972.384	0.313
303.15	1	990.224	0.234
308.15	0	868.831	0.692
308.15	0.0732	880.749	0.66
308.15	0.1342	890.021	0.63
308.15	0.1768	896.174	0.61
308.15	0.2207	902.258	0.588
308.15	0.2721	909.112	0.563
308.15	0.3328	916.872	0.533
308.15	0.3562	919.758	0.522
308.15	0.3901	923.89	0.505
308.15	0.4288	928.469	0.486
308.15	0.4567	931.715	0.473
308.15	0.5014	936.823	0.451
308.15	0.5362	940.693	0.434
308.15	0.5982	947.455	0.405
308.15	0.6243	950.235	0.393
308.15	0.6644	954.427	0.374
308.15	0.7125	959.361	0.352
308.15	0.7703	965.131	0.327
308.15	0.8025	968.276	0.312
308.15	1	986.069	0.234

System: 2-methylaniline + N-methylformamide; phases: Liquid
Fixed: Pressure, kPa = 101
Fixed: Temperature, K = 308.15
Property: Excess molar enthalpy (molar enthalpy of mixing), kJ/mol (Liquid); method: Drop calorimetry
Mole fraction of 2-methylaniline	Excess molar enthalpy (molar enthalpy of mixing), kJ/mol	uncertainty
0.0486	-0.1681	0.0039
0.0972	-0.3132	0.0069
0.1358	-0.4208	0.0092
0.1888	-0.5276	0.0115
0.2267	-0.6065	0.0131
0.2786	-0.6685	0.0144
0.3432	-0.7302	0.0157
0.3972	-0.7614	0.0164
0.4209	-0.7651	0.0165
0.4811	-0.7563	0.0163
0.5306	-0.7321	0.0158
0.5822	-0.6791	0.0147
0.6225	-0.6385	0.0138
0.6788	-0.5784	0.0125
0.7121	-0.5193	0.0113
0.7826	-0.4044	0.0088
0.8127	-0.3589	0.0079
0.8455	-0.2981	0.0066

System: 2-methylaniline + N-methylformamide; phases: Liquid
Fixed: Pressure, kPa = 101
Property: Speed of sound, m/s (Liquid); method: Sing-around technique in a fixed-path interferometer
Temperature, K	Mole fraction of 2-methylaniline	Speed of sound, m/s	uncertainty
298.15	0	1432.86	2.9
298.15	0.0656	1454.27	2.86
298.15	0.1258	1472.38	2.82
298.15	0.1673	1484.06	2.8
298.15	0.2127	1496.05	2.77
298.15	0.2466	1504.4	2.75
298.15	0.2789	1512.07	2.73
298.15	0.3081	1518.62	2.71
298.15	0.3356	1524.41	2.69
298.15	0.3898	1535.19	2.66
298.15	0.4383	1543.96	2.63
298.15	0.4802	1551.07	2.61
298.15	0.5269	1558.2	2.58
298.15	0.5599	1562.89	2.56
298.15	0.6006	1568.18	2.54
298.15	0.6519	1574.36	2.51
298.15	0.7244	1582.15	2.48
298.15	0.7904	1588.23	2.45
298.15	0.8485	1592.85	2.42
298.15	1	1602.6	2.35
303.15	0	1417.66	2.9
303.15	0.0656	1438.44	2.86
303.15	0.1258	1456.3	2.82
303.15	0.1673	1467.84	2.8
303.15	0.2127	1479.7	2.77
303.15	0.2466	1488.16	2.75
303.15	0.2789	1495.69	2.73
303.15	0.3081	1502.34	2.71
303.15	0.3356	1508.21	2.69
303.15	0.3898	1518.88	2.66
303.15	0.4383	1527.61	2.63
303.15	0.4802	1534.6	2.6
303.15	0.5269	1541.45	2.58
303.15	0.5599	1545.93	2.56
303.15	0.6006	1551.11	2.54
303.15	0.6519	1556.65	2.51
303.15	0.7244	1563.43	2.48
303.15	0.7904	1568.28	2.44
303.15	0.8485	1571.88	2.42
303.15	1	1577.8	2.35
308.15	0	1402.55	2.9
308.15	0.0656	1423.32	2.86
308.15	0.1258	1440.91	2.82
308.15	0.1673	1452.23	2.79
308.15	0.2127	1463.85	2.77
308.15	0.2466	1471.94	2.74
308.15	0.2789	1479.4	2.72
308.15	0.3081	1485.71	2.71
308.15	0.3356	1491.39	2.69
308.15	0.3898	1501.86	2.66
308.15	0.4383	1510.38	2.63
308.15	0.4802	1517.25	2.61
308.15	0.5269	1524.11	2.58
308.15	0.5599	1528.45	2.56
308.15	0.6006	1533.61	2.54
308.15	0.6519	1539.19	2.51
308.15	0.7244	1545.99	2.47
308.15	0.7904	1550.91	2.44
308.15	0.8485	1554.24	2.41
308.15	1	1558.4	2.35

System: 2-methylaniline + N-methylformamide; phases: Liquid
Fixed: Pressure, kPa = 101
Property: Mass density, kg/m3 (Liquid); method: Vibrating tube method
Temperature, K	Mole fraction of 2-methylaniline	Mass density, kg/m3	uncertainty
298.15	0	999.004	0.836
298.15	0.0656	1000.18	0.79
298.15	0.1258	1000.98	0.74
298.15	0.1673	1001.39	0.71
298.15	0.2127	1001.71	0.68
298.15	0.2466	1001.88	0.65
298.15	0.2789	1001.99	0.63
298.15	0.3081	1002.03	0.61
298.15	0.3356	1002.04	0.59
298.15	0.3898	1001.96	0.55
298.15	0.4383	1001.79	0.52
298.15	0.4802	1001.56	0.49
298.15	0.5269	1001.25	0.47
298.15	0.5599	1000.97	0.45
298.15	0.6006	1000.59	0.42
298.15	0.6519	1000.02	0.39
298.15	0.7244	999.105	0.354
298.15	0.7904	998.148	0.321
298.15	0.8485	997.204	0.294
298.15	1	994.351	0.232
303.15	0	994.653	0.831
303.15	0.0656	995.882	0.78
303.15	0.1258	996.704	0.734
303.15	0.1673	997.124	0.703
303.15	0.2127	997.464	0.67
303.15	0.2466	997.65	0.646
303.15	0.2789	997.753	0.623
303.15	0.3081	997.811	0.603
303.15	0.3356	997.839	0.584
303.15	0.3898	997.768	0.548
303.15	0.4383	997.624	0.517
303.15	0.4802	997.416	0.491
303.15	0.5269	997.104	0.463
303.15	0.5599	996.843	0.443
303.15	0.6006	996.484	0.42
303.15	0.6519	995.935	0.392
303.15	0.7244	995.043	0.353
303.15	0.7904	994.083	0.321
303.15	0.8485	993.14	0.293
303.15	1	990.224	0.232
308.15	0	990.302	0.826
308.15	0.0656	991.55	0.775
308.15	0.1258	992.418	0.73
308.15	0.1673	992.87	0.699
308.15	0.2127	993.254	0.667
308.15	0.2466	993.459	0.643
308.15	0.2789	993.588	0.62
308.15	0.3081	993.675	0.6
308.15	0.3356	993.709	0.581
308.15	0.3898	993.664	0.546
308.15	0.4383	993.525	0.515
308.15	0.4802	993.334	0.489
308.15	0.5269	993.02	0.461
308.15	0.5599	992.76	0.442
308.15	0.6006	992.392	0.418
308.15	0.6519	991.837	0.39
308.15	0.7244	990.907	0.352
308.15	0.7904	989.937	0.32
308.15	0.8485	988.977	0.293
308.15	1	986.069	0.232

System: N-methylformamide + tetrahydropyran; phases: Liquid
Fixed: Pressure, kPa = 101
Fixed: Temperature, K = 308.15
Property: Excess molar enthalpy (molar enthalpy of mixing), kJ/mol (Liquid); method: Drop calorimetry
Mole fraction of tetrahydropyran	Excess molar enthalpy (molar enthalpy of mixing), kJ/mol	uncertainty
0.0662	0.0341	0.0012
0.1805	0.1224	0.0029
0.2254	0.1556	0.0036
0.2892	0.2061	0.0047
0.3252	0.2361	0.0053
0.3743	0.2679	0.006
0.4016	0.2788	0.0062
0.4724	0.3135	0.0069
0.5114	0.3231	0.0071
0.5562	0.3266	0.0072
0.5923	0.3245	0.0072
0.6242	0.3126	0.0069
0.6675	0.3042	0.0067
0.7153	0.2755	0.0061
0.7576	0.2521	0.0056
0.7901	0.2232	0.005
0.8152	0.2017	0.0046
0.8676	0.1537	0.0036

System: N-methylformamide + tetrahydropyran; phases: Liquid
Fixed: Pressure, kPa = 101
Property: Speed of sound, m/s (Liquid); method: Sing-around technique in a fixed-path interferometer
Temperature, K	Mole fraction of tetrahydropyran	Speed of sound, m/s	uncertainty
298.15	0	1432.86	2.9
298.15	0.0822	1411.82	2.9
298.15	0.1587	1394.05	2.9
298.15	0.2344	1377.93	2.9
298.15	0.2633	1372.11	2.9
298.15	0.3005	1364.96	2.9
298.15	0.3572	1354.53	2.9
298.15	0.3814	1350.33	2.9
298.15	0.4163	1344.43	2.9
298.15	0.4334	1341.6	2.9
298.15	0.4851	1333.4	2.9
298.15	0.5122	1329.29	2.89
298.15	0.5693	1321.01	2.89
298.15	0.6064	1315.89	2.89
298.15	0.6571	1309.14	2.89
298.15	0.6988	1303.83	2.89
298.15	0.7315	1299.83	2.89
298.15	0.7743	1294.7	2.89
298.15	0.8468	1286.41	2.89
298.15	1	1269.88	2.89
303.15	0	1417.66	2.9
303.15	0.0822	1396.37	2.9
303.15	0.1587	1377.92	2.9
303.15	0.2344	1361.03	2.9
303.15	0.2633	1354.95	2.9
303.15	0.3005	1347.37	2.9
303.15	0.3572	1336.47	2.9
303.15	0.3814	1332.02	2.9
303.15	0.4163	1325.82	2.89
303.15	0.4334	1322.87	2.89
303.15	0.4851	1314.31	2.89
303.15	0.5122	1310.01	2.89
303.15	0.5693	1301.35	2.89
303.15	0.6064	1295.98	2.89
303.15	0.6571	1288.96	2.89
303.15	0.6988	1283.45	2.89
303.15	0.7315	1279.26	2.89
303.15	0.7743	1273.89	2.89
303.15	0.8468	1265.07	2.89
303.15	1	1246.83	2.89
308.15	0	1402.55	2.9
308.15	0.0822	1380.66	2.9
308.15	0.1587	1361.68	2.9
308.15	0.2344	1344.41	2.9
308.15	0.2633	1338.11	2.9
308.15	0.3005	1330.33	2.89
308.15	0.3572	1319.09	2.89
308.15	0.3814	1314.46	2.89
308.15	0.4163	1308.04	2.89
308.15	0.4334	1304.99	2.89
308.15	0.4851	1296.11	2.89
308.15	0.5122	1291.6	2.89
308.15	0.5693	1282.56	2.89
308.15	0.6064	1276.98	2.89
308.15	0.6571	1269.56	2.89
308.15	0.6988	1263.71	2.89
308.15	0.7315	1259.26	2.89
308.15	0.7743	1253.53	2.89
308.15	0.8468	1244.09	2.89
308.15	1	1224.47	2.89

System: N-methylformamide + tetrahydropyran; phases: Liquid
Fixed: Pressure, kPa = 101
Property: Mass density, kg/m3 (Liquid); method: Vibrating tube method
Temperature, K	Mole fraction of tetrahydropyran	Mass density, kg/m3	uncertainty
298.15	0	999.004	0.836
298.15	0.0822	984.359	0.82
298.15	0.1587	971.886	0.805
298.15	0.2344	960.487	0.791
298.15	0.2633	956.359	0.786
298.15	0.3005	951.208	0.781
298.15	0.3572	943.711	0.772
298.15	0.3814	940.623	0.768
298.15	0.4163	936.288	0.764
298.15	0.4334	934.212	0.761
298.15	0.4851	928.124	0.754
298.15	0.5122	925.036	0.751
298.15	0.5693	918.752	0.744
298.15	0.6064	914.817	0.74
298.15	0.6571	909.625	0.734
298.15	0.6988	905.507	0.73
298.15	0.7315	902.361	0.726
298.15	0.7743	898.361	0.722
298.15	0.8468	891.856	0.715
298.15	1	879.136	0.702
303.15	0	994.653	0.831
303.15	0.0822	979.949	0.814
303.15	0.1587	967.407	0.799
303.15	0.2344	955.945	0.786
303.15	0.2633	951.788	0.781
303.15	0.3005	946.607	0.775
303.15	0.3572	939.057	0.767
303.15	0.3814	935.944	0.763
303.15	0.4163	931.584	0.758
303.15	0.4334	929.494	0.756
303.15	0.4851	923.354	0.749
303.15	0.5122	920.247	0.746
303.15	0.5693	913.91	0.739
303.15	0.6064	909.949	0.735
303.15	0.6571	904.722	0.729
303.15	0.6988	900.569	0.725
303.15	0.7315	897.401	0.721
303.15	0.7743	893.366	0.717
303.15	0.8468	886.811	0.71
303.15	1	873.992	0.697
308.15	0	990.302	0.826
308.15	0.0822	975.601	0.809
308.15	0.1587	963.009	0.794
308.15	0.2344	951.454	0.781
308.15	0.2633	947.263	0.776
308.15	0.3005	942.041	0.77
308.15	0.3572	934.409	0.762
308.15	0.3814	931.277	0.758
308.15	0.4163	926.867	0.753
308.15	0.4334	924.763	0.751
308.15	0.4851	918.566	0.744
308.15	0.5122	915.428	0.741
308.15	0.5693	909.049	0.734
308.15	0.6064	905.053	0.729
308.15	0.6571	899.79	0.724
308.15	0.6988	895.605	0.719
308.15	0.7315	892.421	0.716
308.15	0.7743	888.365	0.712
308.15	0.8468	881.763	0.705
308.15	1	868.831	0.691
