Measured thermophysical data. Probing molecular interactions of ionic liquid in industrially important solvents  by means of conductometric and spectroscopic approach
Source: Thermochim. Acta, 2013, 10.1016/j.tca.2013.02.022
Compound 1: 1-ethyl-3-methylimidazolium bromide, C6H11BrN2, InChI=1S/C6H11N2.BrH/c1-3-8-5-4-7(2)6-8;/h4-6H,3H2,1-2H3;1H/q+1;/p-1, purity 98.5%
Compound 2: acetonitrile, C2H3N, InChI=1S/C2H3N/c1-2-3/h1H3, purity 99.5%
Compound 3: methanol, CH4O, InChI=1S/CH4O/c1-2/h2H,1H3, purity 99.5%
Compound 4: dimethylformamide, C3H7NO, InChI=1S/C3H7NO/c1-4(2)3-5/h3H,1-2H3, purity 99.5%
Compound 5: N,N-dimethylethanamide, C4H9NO, InChI=1S/C4H9NO/c1-4(6)5(2)3/h1-3H3, purity 99.5%
Compound 6: dimethyl sulfoxide, C2H6OS, InChI=1S/C2H6OS/c1-4(2)3/h1-2H3, purity 99.5%

System: acetonitrile + 1-ethyl-3-methylimidazolium bromide; phases: Liquid
Fixed: Pressure, kPa = 101
Fixed: Temperature, K = 298.15
Property: Molar conductivity, S*m2/mol (Liquid); method: Alternating current cell with electrodes
Amount concentration (molarity), mol/dm3 of 1-ethyl-3-methylimidazolium bromide	Molar conductivity, S*m2/mol	uncertainty
0.000941	0.015507	0.000319
0.001725	0.01522	0.000312
0.002388	0.01501	0.000306
0.002957	0.014866	0.000301
0.003994	0.014638	0.000296
0.0046	0.014507	0.000293
0.005175	0.01441	0.00029
0.005645	0.014321	0.000289
0.006038	0.01426	0.000287
0.006369	0.014203	0.000286
0.006654	0.014155	0.000285
0.007011	0.014093	0.000284
0.007656	0.013997	0.000281
0.007998	0.013948	0.00028
0.008433	0.013886	0.000279

System: methanol + 1-ethyl-3-methylimidazolium bromide; phases: Liquid
Fixed: Pressure, kPa = 101
Fixed: Temperature, K = 298.15
Property: Molar conductivity, S*m2/mol (Liquid); method: Alternating current cell with electrodes
Amount concentration (molarity), mol/dm3 of 1-ethyl-3-methylimidazolium bromide	Molar conductivity, S*m2/mol	uncertainty
0.001828	0.00814	0.00017
0.002264	0.008037	0.000167
0.002683	0.007951	0.000164
0.003262	0.007842	0.000161
0.003528	0.007788	0.00016
0.004007	0.007707	0.000158
0.004303	0.007653	0.000157
0.004622	0.007605	0.000155
0.004858	0.007567	0.000155
0.005093	0.007529	0.000154
0.005282	0.0075	0.000153
0.005565	0.007458	0.000151
0.005822	0.00743	0.000151
0.006122	0.007386	0.00015
0.006338	0.007358	0.000149

System: dimethylformamide + 1-ethyl-3-methylimidazolium bromide; phases: Liquid
Fixed: Pressure, kPa = 101
Fixed: Temperature, K = 298.15
Property: Molar conductivity, S*m2/mol (Liquid); method: Alternating current cell with electrodes
Amount concentration (molarity), mol/dm3 of 1-ethyl-3-methylimidazolium bromide	Molar conductivity, S*m2/mol	uncertainty
0.001828	0.00732	0.000159
0.002531	0.0071	0.000156
0.003133	0.0069	0.000151
0.003655	0.00675	0.000141
0.004225	0.00667	0.000139
0.004874	0.00652	0.000136
0.005483	0.00643	0.000134
0.005981	0.0063	0.000134
0.006397	0.00622	0.000128
0.006905	0.00616	0.000125
0.007429	0.0061	0.000125
0.007833	0.00604	0.000127
0.008291	0.00593	0.000125
0.008681	0.00587	0.00012
0.009008	0.00584	0.000118

System: N,N-dimethylethanamide + 1-ethyl-3-methylimidazolium bromide; phases: Liquid
Fixed: Pressure, kPa = 101
Fixed: Temperature, K = 298.15
Property: Molar conductivity, S*m2/mol (Liquid); method: Alternating current cell with electrodes
Amount concentration (molarity), mol/dm3 of 1-ethyl-3-methylimidazolium bromide	Molar conductivity, S*m2/mol	uncertainty
0.000995	0.00429	0.000109
0.001858	0.004	0.000105
0.002527	0.00377	9.4e-05
0.003129	0.00364	8.3e-05
0.003697	0.00354	7.8e-05
0.004106	0.00348	8.4e-05
0.004509	0.00335	8.4e-05
0.005187	0.0032	7.7e-05
0.005736	0.00309	7.3e-05
0.005973	0.00305	6.7e-05
0.006388	0.003	6.9e-05
0.0073	0.00283	6.8e-05
0.007821	0.00273	6.1e-05
0.008279	0.0027	6.4e-05
0.008995	0.00254	6.8e-05

System: dimethyl sulfoxide + 1-ethyl-3-methylimidazolium bromide; phases: Liquid
Fixed: Pressure, kPa = 101
Fixed: Temperature, K = 298.15
Property: Molar conductivity, S*m2/mol (Liquid); method: Alternating current cell with electrodes
Amount concentration (molarity), mol/dm3 of 1-ethyl-3-methylimidazolium bromide	Molar conductivity, S*m2/mol	uncertainty
0.002105	0.00246	5.5e-05
0.003858	0.00225	5e-05
0.005342	0.00209	4.6e-05
0.006614	0.00198	4.3e-05
0.007717	0.0019	4.1e-05
0.008681	0.00182	3.9e-05
0.009532	0.00177	3.8e-05
0.010966	0.00166	3.6e-05
0.012126	0.00158	3.4e-05
0.013504	0.0015	3.2e-05
0.014576	0.00144	3.1e-05
0.016135	0.001359	2.9e-05
0.017214	0.0013	2.8e-05
0.018117	0.00126	2.7e-05
0.019016	0.00122	2.6e-05
