Measured thermophysical data. Mixing enthalpies of liquid Bi-Ni and Ag-Bi-Ni alloys
Source: Thermochim. Acta, 2017, 10.1016/j.tca.2017.09.002
Compound 1: bismuth, Bi, InChI=1S/Bi, purity 99.999%
Compound 2: silver, Ag, InChI=1S/Ag, purity 99.99%
Compound 3: nickel, Ni, InChI=1S/Ni, purity 99.98%

System: nickel + bismuth; phases: Liquid
Fixed: Temperature, K = 1273
Fixed: Pressure, kPa = 105
Property: Excess molar enthalpy (molar enthalpy of mixing), kJ/mol (Liquid); method: Calvet calorimetry
Mole fraction of nickel	Excess molar enthalpy (molar enthalpy of mixing), kJ/mol	uncertainty
0.0552	-0.354	0.06
0.1056	-0.69	0.06
0.1516	-0.949	0.08
0.1935	-1.14	0.08
0.2321	-1.259	0.1
0.2677	-1.345	0.101
0.3011	-1.378	0.101
0.3319	-1.361	0.101

System: nickel + silver + bismuth; phases: Liquid
Fixed: Temperature, K = 1173
Fixed: Pressure, kPa = 105
Property: Excess molar enthalpy (molar enthalpy of mixing), kJ/mol (Liquid); method: Calvet calorimetry
Mole fraction of bismuth	Mole fraction of nickel	Excess molar enthalpy (molar enthalpy of mixing), kJ/mol	uncertainty
0.396	0.01	1.849	0.2
0.392	0.02	1.801	0.2
0.388	0.0301	1.783	0.2
0.3835	0.0411	1.755	0.2
0.3789	0.0528	1.793	0.2
0.3742	0.0645	1.881	0.2
0.4944	0.0112	2.156	0.201
0.4884	0.0233	2.178	0.201
0.4818	0.0363	2.095	0.201
0.4753	0.0495	2.116	0.201
0.4682	0.0636	2.116	0.201
0.4608	0.0783	2.09	0.201
0.453	0.0939	2.033	0.4
0.4451	0.1097	1.967	0.4
0.5904	0.016	2.246	0.201
0.5652	0.058	1.987	0.4
0.5528	0.0786	1.859	0.4
0.5397	0.1004	1.775	0.4
0.5268	0.122	1.661	0.4
0.5119	0.1469	1.714	0.4
0.6925	0.0107	2.181	0.201
0.6834	0.0237	2.121	0.201
0.6744	0.0366	2.088	0.201
0.6645	0.0508	1.942	0.201
0.6538	0.066	1.8	0.2
0.6426	0.082	1.725	0.4
0.6317	0.0976	1.681	0.4
0.621	0.1128	1.595	0.4
0.6107	0.1275	1.643	0.4
0.6007	0.1419	1.528	0.4
0.591	0.1558	1.481	0.4
0.5815	0.1692	1.529	0.4
0.5722	0.1825	1.438	0.4
0.5628	0.196	1.382	0.4
0.5535	0.2092	1.294	0.4
0.7848	0.019	1.843	0.2
0.7672	0.041	1.647	0.2
0.7493	0.0634	1.46	0.4
0.7298	0.0877	1.26	0.4
0.7112	0.111	1.006	0.4
0.6935	0.1332	0.877	0.4
0.6766	0.1543	0.808	0.4
0.6602	0.1747	0.66	0.6
0.6276	0.2155	0.402	0.4
0.6118	0.2353	0.335	0.4
0.5965	0.2544	0.122	0.4

System: nickel + silver + bismuth; phases: Liquid
Fixed: Temperature, K = 1173
Fixed: Pressure, kPa = 105
Property: Excess molar enthalpy (molar enthalpy of mixing), kJ/mol (Liquid); method: Calvet calorimetry
Mole fraction of bismuth	Mole fraction of silver	Excess molar enthalpy (molar enthalpy of mixing), kJ/mol	uncertainty
0.7761	0.0299	-0.724	0.2
0.7502	0.0623	-0.235	0.2
0.7212	0.0984	-0.006	0.264
0.6921	0.1349	0.374	0.2
0.6614	0.1732	0.636	0.2
0.6317	0.2104	0.832	0.2
0.6039	0.2451	1.072	0.2
0.5774	0.2783	1.289	0.2
0.5523	0.3096	1.434	0.2
0.5281	0.3399	1.559	0.2
0.5036	0.3705	1.656	0.2
0.4804	0.3995	1.731	0.4
0.4578	0.4277	1.764	0.4
