Measured thermophysical data. The solidus and liquidus temperatures of UO2 Gd2O3 and UO2 Er2O3 fuels
Source: Thermochim. Acta, 2007, 10.1016/j.tca.2006.11.027
Compound 1: uranium dioxide, O2U, InChI=1S/2O.U/q2*-2;+4
Compound 2: gadolinium sesquioxide, Gd2O3, InChI=1S/2Gd.3O/q2*+3;3*-2
Compound 3: erbium oxide, Er2O3, InChI=1S/2Er.3O/q2*+3;3*-2

System: uranium dioxide + gadolinium sesquioxide; phases: Liquid, Crystal
Fixed: Pressure, kPa = 101
Property: Solid-liquid equilibrium temperature, K (Liquid); method: DTA
Mass fraction of gadolinium sesquioxide	Solid-liquid equilibrium temperature, K	uncertainty
0.04	3093.15	20
0.06	3091.15	20
0.08	3056.15	20
0.12	3012.15	20

System: uranium dioxide + gadolinium sesquioxide; phases: Crystal, Liquid
Fixed: Pressure, kPa = 101
Property: Solid-liquid equilibrium temperature, K (Crystal); method: DTA
Mass fraction of gadolinium sesquioxide	Solid-liquid equilibrium temperature, K	uncertainty
0.04	2943.15	25
0.06	2893.15	25
0.08	2810.15	25
0.12	2734.15	25

System: uranium dioxide + erbium oxide; phases: Crystal, Liquid
Fixed: Pressure, kPa = 101
Property: Solid-liquid equilibrium temperature, K (Crystal); method: DTA
Mass fraction of erbium oxide	Solid-liquid equilibrium temperature, K	uncertainty
0.02	2908.15	25
0.04	2873.15	25
0.08	2805.15	25

System: uranium dioxide + erbium oxide; phases: Liquid, Crystal
Fixed: Pressure, kPa = 101
Property: Solid-liquid equilibrium temperature, K (Liquid); method: DTA
Mass fraction of erbium oxide	Solid-liquid equilibrium temperature, K	uncertainty
0.02	3095.15	20
0.04	3063.15	20
0.08	3070.15	20
