Measured thermophysical data. Heat capacity of vitreous and crystalline GeSe2 from 2 to 25K by relaxation calorimetry
Source: Thermochim. Acta, 2006, 10.1016/j.tca.2006.02.026
Compound 1: germanium diselenide, GeSe2, InChI=1S/Ge.2Se/q+4;2*-2, purity 99%

System: germanium diselenide; phases: Glass
Fixed: Pressure, kPa = 101.325
Property: Molar heat capacity at constant pressure, J/K/mol (Glass); method: Relaxation calorimetry
Temperature, K	Molar heat capacity at constant pressure, J/K/mol	uncertainty
1.82746	0.02214	0.00102
1.82774	0.02214	0.00102
1.82881	0.02216	0.00103
1.92629	0.02669	0.00112
1.92698	0.02668	0.00112
1.92838	0.02684	0.00112
2.03231	0.03221	0.00131
2.03304	0.0323	0.0013
2.03511	0.03235	0.00131
2.1464	0.03924	0.00158
2.1473	0.03923	0.00158
2.14938	0.03934	0.00158
2.26509	0.04806	0.00181
2.266	0.04815	0.00181
2.26781	0.04825	0.00181
2.39223	0.05798	0.00203
2.39315	0.05812	0.00203
2.39549	0.05816	0.00203
2.5245	0.06956	0.00231
2.52513	0.06927	0.00231
2.52749	0.0698	0.0023
2.66315	0.0829	0.0027
2.66418	0.08302	0.00268
2.66615	0.08332	0.00268
2.80943	0.09945	0.00308
2.81056	0.09956	0.00308
2.81314	0.09966	0.00308
2.96411	0.11833	0.00358
2.96556	0.11849	0.00359
2.96822	0.11901	0.00359
3.13634	0.1431	0.0041
3.13705	0.14343	0.00415
3.13727	0.14366	0.00416
3.30635	0.16978	0.00465
3.30808	0.16983	0.00465
3.31212	0.17061	0.00466
3.48818	0.19943	0.00532
3.49022	0.19944	0.00532
3.4934	0.19985	0.00533
3.68153	0.23564	0.00619
3.68412	0.23523	0.00618
3.68795	0.23581	0.00619
3.88465	0.27831	0.00707
3.88943	0.27861	0.00708
3.89191	0.2794	0.0071
4.10549	0.32682	0.00802
4.10827	0.32776	0.00804
4.11188	0.32888	0.00806
4.33004	0.38127	0.00914
4.33308	0.38183	0.00915
4.33654	0.38298	0.00916
4.56694	0.44332	0.01043
4.57088	0.44435	0.01044
4.57432	0.44475	0.01045
4.81906	0.51522	0.01189
4.8223	0.51596	0.0119
4.82607	0.51666	0.01191
5.08607	0.59633	0.01341
5.09036	0.59645	0.01341
5.09391	0.59709	0.01342
5.36588	0.6819	0.0151
5.36995	0.68344	0.01514
5.37442	0.68449	0.01516
5.66406	0.78238	0.01711
5.66783	0.78373	0.01714
5.67317	0.78558	0.01717
5.97788	0.8935	0.0193
5.98454	0.89612	0.01936
5.98884	0.89823	0.0194
6.30403	1.01677	0.02174
6.31687	1.02191	0.02183
6.32034	1.02093	0.02181
6.64725	1.15085	0.02446
6.65388	1.15429	0.02453
6.65923	1.15529	0.02455
7.03982	1.31884	0.02779
7.04047	1.3189	0.0278
7.04499	1.32137	0.02783
7.4026	1.48005	0.03097
7.4124	1.48589	0.03108
7.41822	1.48816	0.03112
7.80518	1.66674	0.03462
7.81375	1.67212	0.03472
7.82315	1.67389	0.03476
8.23674	1.87075	0.03868
8.245	1.87608	0.03879
8.24996	1.87783	0.03882
8.68995	2.09946	0.0432
8.70144	2.10563	0.04332
8.70873	2.10849	0.04337
9.17733	2.34854	0.04814
9.18516	2.35136	0.0482
9.1898	2.35387	0.04824
9.68025	2.62068	0.05357
9.69124	2.62683	0.05369
9.69775	2.63321	0.05382
10.21973	2.92402	0.05959
10.22854	2.93025	0.05971
10.23475	2.93257	0.05975
10.78134	3.25241	0.06611
10.79219	3.25826	0.06623
10.79925	3.26061	0.06627
11.3784	3.60845	0.07319
11.38929	3.61376	0.0733
11.39727	3.61734	0.07337
12.00692	3.99692	0.08093
12.01852	4.00625	0.08112
12.02577	4.00948	0.08118
12.67201	4.42419	0.08942
12.68253	4.42988	0.08953
12.69124	4.43469	0.08963
13.37605	4.87997	0.0985
13.38626	4.88771	0.09865
13.39387	4.89165	0.09873
14.11642	5.38006	0.10846
14.12594	5.38792	0.10862
14.13071	5.3885	0.1086
14.8968	5.91623	0.11914
14.9054	5.92644	0.11934
14.90828	5.92281	0.11927
15.71884	6.49173	0.13061
15.72747	6.49879	0.13075
15.72825	6.50063	0.13078
16.5771	7.10528	0.14283
16.58884	7.11086	0.14294
16.58946	7.119	0.143
17.49664	7.76733	0.15604
17.50125	7.77408	0.15617
17.50161	7.77055	0.1561
18.45154	8.48228	0.17031
18.46286	8.48335	0.17033
18.46545	8.48465	0.17035
19.48513	9.25555	0.18573
19.487	9.25144	0.18565
19.4927	9.24045	0.18543
20.56346	10.07401	0.20206
20.56372	10.05327	0.20164
20.56843	10.05796	0.20174
21.63363	10.87242	0.21768
21.68907	10.91924	0.21867
21.71418	10.91271	0.21848
22.83767	11.72244	0.23719
22.89517	11.82829	0.23941
22.89704	11.82924	0.2393
24.09188	12.84728	0.25717
24.17131	12.80474	0.25632
24.17187	12.7941	0.2562
25.41868	13.87347	0.28111
25.49468	13.702	0.278

System: germanium diselenide; phases: Crystal
Fixed: Pressure, kPa = 101.325
Property: Molar heat capacity at constant pressure, J/K/mol (Crystal); method: Relaxation calorimetry
Temperature, K	Molar heat capacity at constant pressure, J/K/mol	uncertainty
1.82192	0.01008	0.00045
1.82811	0.01018	0.00046
1.8285	0.01019	0.00045
1.92934	0.01224	0.00047
1.93087	0.01224	0.00047
1.9321	0.01217	0.00047
2.03789	0.01442	0.00054
2.03803	0.0144	0.0005
2.03951	0.01443	0.00054
2.15041	0.01715	0.00065
2.15052	0.0171	0.0006
2.15249	0.01716	0.00065
2.26741	0.02068	0.00074
2.26822	0.02064	0.00074
2.2702	0.02074	0.00074
2.39373	0.02453	0.00082
2.39526	0.02449	0.00082
2.39793	0.02461	0.00082
2.52812	0.02922	0.00096
2.52944	0.02927	0.00097
2.5314	0.02931	0.00097
2.66814	0.03497	0.00111
2.66933	0.03508	0.00112
2.67164	0.03504	0.00112
2.81588	0.04165	0.00132
2.81659	0.04177	0.00132
2.819	0.04176	0.00132
2.97141	0.05031	0.00159
2.97236	0.05027	0.00159
2.97494	0.05046	0.00159
3.13825	0.06133	0.00189
3.13906	0.06124	0.00189
3.14098	0.06154	0.00189
3.31259	0.0747	0.0022
3.31377	0.07471	0.0022
3.3164	0.07503	0.00221
3.49651	0.09034	0.00262
3.49751	0.09025	0.00261
3.49994	0.09064	0.00262
3.68864	0.1102	0.0032
3.69036	0.11011	0.00316
3.6931	0.11017	0.00316
3.89339	0.13526	0.0038
3.89426	0.13577	0.0038
3.90002	0.13648	0.00381
4.11698	0.16658	0.00448
4.11713	0.16615	0.00448
4.1198	0.1665	0.0045
4.34009	0.20243	0.00537
4.3408	0.20211	0.00536
4.34435	0.2035	0.0054
4.577	0.24703	0.00634
4.57981	0.24707	0.00634
4.58346	0.24799	0.00636
4.83138	0.30023	0.00747
4.83306	0.30098	0.00748
4.8383	0.30184	0.00749
5.09834	0.36212	0.00877
5.10179	0.36199	0.00877
5.10718	0.36495	0.00882
5.37901	0.43568	0.01034
5.38167	0.43705	0.01037
5.38781	0.43887	0.01039
5.67536	0.52311	0.01219
5.67876	0.52456	0.01221
5.68377	0.52773	0.01226
6.0043	0.63119	0.01434
6.00546	0.63091	0.01434
6.0063	0.63185	0.01436
6.3212	0.74487	0.01662
6.32403	0.74345	0.0166
6.33093	0.7485	0.0167
6.65907	0.87228	0.01923
6.66316	0.87459	0.01927
6.66883	0.8757	0.0193
7.05102	1.03889	0.02256
7.05151	1.03897	0.02256
7.05748	1.04034	0.02259
7.40823	1.20082	0.02575
7.4155	1.2015	0.0258
7.42478	1.20517	0.02583
7.81455	1.3917	0.0295
7.82252	1.39553	0.02955
7.83133	1.39958	0.02963
8.24391	1.60278	0.03363
8.2503	1.60677	0.03371
8.25504	1.61035	0.03378
8.69843	1.84071	0.03832
8.71218	1.84844	0.03846
8.72096	1.85463	0.03858
9.17494	2.0988	0.0434
9.18314	2.10402	0.04352
9.19019	2.10671	0.04357
9.68102	2.3871	0.0491
9.69521	2.39591	0.0493
9.70706	2.40178	0.04934
10.22273	2.70606	0.05544
10.23216	2.71003	0.05552
10.24046	2.71743	0.05566
10.7898	3.0525	0.0623
10.80022	3.05981	0.06242
10.80864	3.0636	0.0625
11.38729	3.42328	0.06964
11.39825	3.43152	0.0698
11.40764	3.43752	0.06992
12.00941	3.82774	0.07765
12.02141	3.83316	0.07776
12.02827	3.83678	0.07783
12.67747	4.26347	0.0863
12.69045	4.27431	0.08651
12.6982	4.28263	0.08667
13.3831	4.73589	0.09569
13.39491	4.7472	0.0959
13.4047	4.75488	0.09606
14.12526	5.25084	0.10593
14.13757	5.25942	0.1061
14.14381	5.26414	0.10619
14.90793	5.7962	0.1168
14.91743	5.80541	0.11696
14.92144	5.81029	0.11706
15.73109	6.38141	0.12842
15.73929	6.38734	0.12854
15.73965	6.38297	0.12845
16.6	7.00605	0.14087
16.60733	7.01237	0.141
16.60917	7.00726	0.1409
17.5051	7.66431	0.154
17.5141	7.66958	0.1541
17.51601	7.66809	0.15407
18.46805	8.38002	0.16827
18.47791	8.37634	0.1682
18.4815	8.38566	0.16839
19.49985	9.15899	0.18378
19.50111	9.15767	0.18376
19.50237	9.15116	0.18363
20.57169	9.93924	0.19936
20.57772	9.95605	0.19969
20.57833	9.96066	0.19978
21.71157	10.8156	0.2167
21.71164	10.78469	0.21612
21.71329	10.7921	0.2163
22.84658	11.50158	0.23468
22.84744	11.65674	0.23329
22.9279	11.69061	0.23396
24.11481	12.57569	0.25299
24.16816	12.65338	0.25474
24.17219	12.65411	0.25455
25.41504	13.56877	0.27209
25.47689	13.6224	0.273
25.48663	13.63947	0.2735

System: germanium diselenide; phases: Crystal
Fixed: Pressure, kPa = 101.325
Property: Molar heat capacity at constant pressure, J/K/mol (Crystal); method: Relaxation calorimetry
Temperature, K	Molar heat capacity at constant pressure, J/K/mol	uncertainty
1.83899	0.01069	0.00045
1.83911	0.0107	0.0004
1.84109	0.01072	0.00045
1.92207	0.01232	0.00048
1.92301	0.01234	0.00048
1.92493	0.01237	0.00048
2.03105	0.01462	0.00054
2.03122	0.01463	0.00054
2.03198	0.01463	0.00054
2.14494	0.01742	0.00066
2.14594	0.01745	0.00066
2.14755	0.01747	0.00066
2.26456	0.0212	0.0008
2.26858	0.02131	0.00076
2.26874	0.02121	0.00076
2.39126	0.02519	0.00086
2.39216	0.0252	0.0009
2.39408	0.02529	0.00086
2.52329	0.03002	0.00099
2.52419	0.02997	0.00099
2.52633	0.03008	0.00099
2.66271	0.03587	0.00115
2.66362	0.03587	0.00115
2.66589	0.03596	0.00115
2.80968	0.04279	0.00134
2.8108	0.04277	0.00134
2.81304	0.04284	0.00134
2.96477	0.0514	0.0016
2.96545	0.05151	0.00162
2.96821	0.05158	0.00162
3.13079	0.06274	0.00193
3.13179	0.06281	0.00193
3.13454	0.06299	0.00193
3.30466	0.07626	0.00226
3.30575	0.07635	0.00226
3.30846	0.07668	0.00226
3.48693	0.09234	0.00266
3.48827	0.09223	0.00266
3.49276	0.09261	0.00266
3.6804	0.1123	0.0032
3.68158	0.11246	0.00323
3.68488	0.1129	0.0032
3.88353	0.13793	0.00386
3.88477	0.13823	0.00386
3.88836	0.13874	0.00387
4.10413	0.16932	0.00457
4.10545	0.16932	0.00457
4.10894	0.16991	0.00458
4.32879	0.2063	0.0055
4.33035	0.2065	0.0055
4.33405	0.20705	0.00547
4.56617	0.25167	0.00649
4.56817	0.25161	0.00649
4.5719	0.25216	0.0065
4.81796	0.30619	0.00767
4.82052	0.30634	0.00768
4.82479	0.30761	0.0077
5.08452	0.37066	0.00901
5.08762	0.37156	0.00902
5.0917	0.37257	0.00904
5.36399	0.44544	0.01058
5.36733	0.44584	0.01058
5.37163	0.44742	0.01061
5.66228	0.53513	0.01245
5.66532	0.53548	0.01245
5.66926	0.53668	0.01247
5.97939	0.6405	0.0146
5.98107	0.6405	0.0146
5.98418	0.64187	0.01461
6.30702	0.75936	0.01696
6.3097	0.7599	0.017
6.314	0.76216	0.017
6.6553	0.89474	0.0197
6.65886	0.89589	0.01973
6.66185	0.8975	0.0198
7.03799	1.06047	0.02302
7.03885	1.06142	0.02304
7.04604	1.06514	0.02311
7.41472	1.23449	0.02647
7.41848	1.23626	0.02651
7.42214	1.23806	0.02654
7.82362	1.43623	0.03041
7.82759	1.43671	0.03042
7.83179	1.43925	0.03047
8.25514	1.65369	0.0347
8.25947	1.65734	0.03477
8.26376	1.65905	0.03481
8.71121	1.90121	0.03957
8.71588	1.90366	0.03962
8.72066	1.9058	0.0397
9.19401	2.16855	0.04487
9.19883	2.17242	0.04494
9.20268	2.17406	0.04497
9.70224	2.46948	0.05082
9.70719	2.47291	0.05089
9.7101	2.47447	0.05092
10.24056	2.79509	0.05726
10.24458	2.79914	0.05734
10.24779	2.80062	0.05737
10.80359	3.15179	0.06431
10.80897	3.15699	0.06442
10.81194	3.15908	0.06446
11.40338	3.5379	0.072
11.40477	3.54056	0.07203
11.40705	3.53991	0.07201
12.02851	3.9603	0.0804
12.03672	3.9629	0.0804
12.03739	3.96165	0.08039
12.68757	4.40986	0.08927
12.69962	4.41538	0.08938
12.70118	4.41686	0.08941
13.38929	4.89594	0.09893
13.40362	4.90509	0.09911
13.40706	4.90536	0.09912
14.1235	5.4203	0.1094
14.13913	5.43138	0.10958
14.14359	5.42931	0.10954
14.90052	5.98438	0.12059
14.91229	5.99635	0.12082
14.92008	5.99882	0.12087
15.72222	6.58979	0.13263
15.72658	6.59044	0.13264
15.73344	6.5971	0.1328
16.58725	7.23763	0.14553
16.59104	7.23834	0.14554
16.60118	7.24257	0.14563
17.49543	7.91806	0.15911
17.50093	7.91702	0.15909
17.50232	7.93127	0.15937
18.44969	8.66336	0.17394
18.46375	8.66391	0.17395
18.4701	8.67705	0.17422
19.4725	9.43959	0.18884
19.49058	9.46033	0.18986
19.50825	9.43159	0.18868
20.5289	10.29511	0.20598
20.57867	10.29978	0.206
20.59452	10.31386	0.20636
21.65341	11.17144	0.22349
21.71683	11.18629	0.22377
21.72119	11.15314	0.22313
22.85296	12.14049	0.24281
22.91089	12.12315	0.24254
22.92112	12.14068	0.24281
24.12064	13.03383	0.26243
24.16582	13.10984	0.26398
24.19238	13.14248	0.26459
25.44643	14.06	0.28
25.47336	14.13147	0.28362
25.53548	14.17479	0.28384

System: germanium diselenide; phases: Glass
Fixed: Pressure, kPa = 101.325
Property: Molar heat capacity at constant pressure, J/K/mol (Glass); method: Relaxation calorimetry
Temperature, K	Molar heat capacity at constant pressure, J/K/mol	uncertainty
1.83614	0.02212	0.00098
1.8416	0.02231	0.001
1.84536	0.02246	0.001
1.92825	0.02617	0.00112
1.93196	0.02635	0.00112
1.93266	0.02638	0.00112
2.03378	0.03172	0.0013
2.0346	0.03172	0.0013
2.03666	0.03192	0.0013
2.14911	0.03863	0.00155
2.14952	0.03852	0.00155
2.15147	0.03884	0.00155
2.2681	0.04743	0.00178
2.26919	0.04751	0.00178
2.27114	0.0478	0.0018
2.39624	0.05723	0.00198
2.39742	0.05718	0.00197
2.39923	0.05741	0.00198
2.52916	0.06856	0.0023
2.53149	0.06875	0.0023
2.5333	0.06887	0.0023
2.66975	0.08231	0.00261
2.67095	0.08229	0.00261
2.67393	0.08267	0.00262
2.82045	0.09798	0.00301
2.82206	0.09831	0.00301
2.8264	0.09862	0.00301
2.97595	0.11707	0.00352
2.97794	0.11728	0.00352
2.98066	0.11711	0.00352
3.14337	0.14026	0.00408
3.1452	0.14066	0.00408
3.14797	0.14107	0.00409
3.32063	0.16733	0.00457
3.32259	0.1675	0.0046
3.32498	0.16785	0.00458
3.51298	0.19788	0.00526
3.51324	0.19808	0.00526
3.51518	0.19839	0.00527
3.68645	0.23058	0.00609
3.68824	0.23099	0.00609
3.69082	0.23154	0.0061
3.88985	0.27276	0.0069
3.89202	0.27337	0.00691
3.89418	0.27405	0.00692
4.11488	0.32119	0.00786
4.11786	0.32222	0.00788
4.12678	0.32455	0.00792
4.34283	0.37575	0.009
4.34514	0.37615	0.009
4.34745	0.37663	0.00901
4.58141	0.43685	0.01025
4.58389	0.43743	0.01026
4.58597	0.43799	0.01027
4.83353	0.507	0.012
4.83667	0.50801	0.01167
4.83784	0.50835	0.01168
5.10075	0.58572	0.01316
5.10311	0.58566	0.01316
5.10568	0.58631	0.01317
5.38043	0.67077	0.01486
5.3831	0.67133	0.01487
5.38515	0.67194	0.01488
5.67633	0.76845	0.01685
5.67998	0.7692	0.0169
5.68201	0.77004	0.01687
5.98882	0.87998	0.01903
5.99342	0.87708	0.01897
6.00585	0.8835	0.0191
6.33044	1.00439	0.02146
6.33313	1.00398	0.02145
6.33386	1.00278	0.02143
6.67211	1.13479	0.0241
6.67667	1.13646	0.02413
6.67734	1.13655	0.02414
7.04985	1.29314	0.02725
7.05011	1.29285	0.02724
7.05477	1.29489	0.02728
7.42861	1.45858	0.0305
7.43233	1.45906	0.03051
7.43475	1.46127	0.03055
7.83638	1.64301	0.03412
7.84096	1.64675	0.03419
7.84373	1.64661	0.03419
8.26815	1.8442	0.0381
8.27367	1.84859	0.03819
8.27597	1.84702	0.03816
8.72459	2.06817	0.04254
8.72993	2.07067	0.04259
8.73015	2.07053	0.04259
9.20591	2.30971	0.04733
9.21008	2.31039	0.04735
9.21065	2.31278	0.04739
9.71441	2.57827	0.05268
9.71588	2.58093	0.05273
9.71902	2.58385	0.05279
10.24712	2.87034	0.05847
10.25251	2.8711	0.0585
10.25491	2.87462	0.05856
10.80662	3.18833	0.0648
10.81719	3.19586	0.06494
10.81931	3.19559	0.06494
11.39816	3.5321	0.0716
11.4111	3.53623	0.07172
11.41382	3.54259	0.07185
12.0234	3.91412	0.07925
12.03469	3.91803	0.07932
12.04329	3.92721	0.0795
12.68293	4.32451	0.0878
12.69411	4.32975	0.0875
12.70677	4.34254	0.08816
13.38705	4.77068	0.09621
13.39629	4.77903	0.09644
13.41261	4.78646	0.09652
14.12226	5.25169	0.10624
14.13382	5.26533	0.10615
14.148	5.2722	0.1066
14.89871	5.77755	0.11559
14.90935	5.78284	0.11644
14.9254	5.7814	0.1157
15.7239	6.33338	0.12743
15.72505	6.33888	0.12754
15.72904	6.34172	0.1276
16.57806	6.93365	0.14056
16.59344	6.91062	0.13893
16.60693	6.96678	0.14121
17.49225	7.58858	0.15233
17.51195	7.59522	0.15256
17.51801	7.60539	0.15267
18.45471	8.27063	0.16792
18.47769	8.29354	0.16652
18.47979	8.23439	0.1672
19.47776	9.03936	0.18084
19.50378	9.0371	0.1808
19.51363	9.03171	0.18068
20.55571	9.83937	0.20115
20.56187	9.83341	0.20342
20.59832	9.92811	0.20288
21.69323	10.66152	0.2181
21.72951	10.65827	0.21317
21.73725	10.5607	0.2161
22.8512	11.43582	0.23086
22.89646	11.58228	0.24052
22.89711	11.5079	0.2323
24.157	12.50485	0.26077
24.18549	12.38587	0.26142
24.19964	12.34741	0.25775
25.43537	13.17481	0.28229
25.47665	13.3883	0.287
25.5	13.5021	0.2884
