Measured thermophysical data. Conductivity, calorimetry and phase diagram of the NaHSO4 KHSO4 system
Source: Thermochim. Acta, 2006, 10.1016/j.tca.2005.11.022
Compound 1: hydrogen potassium sulfate, HKO4S, InChI=1S/K.H2O4S/c;1-5(2,3)4/h;(H2,1,2,3,4)/q+1;/p-1
Compound 2: sulfuric acid, monosodium salt, HNaO4S, InChI=1S/Na.H2O4S/c;1-5(2,3)4/h;(H2,1,2,3,4)/q+1;/p-1

System: hydrogen potassium sulfate; phases: Crystal 1, Liquid
Property: Solid-liquid equilibrium temperature, K (Crystal 1); method: OTHER::sMethod:Conductivity measurements
Pressure, kPa	Solid-liquid equilibrium temperature, K	uncertainty
101.3	488	1

System: sulfuric acid, monosodium salt; phases: Crystal, Liquid
Property: Solid-liquid equilibrium temperature, K (Crystal); method: Conductivity measurements
Pressure, kPa	Solid-liquid equilibrium temperature, K	uncertainty
101.3	458	1

System: hydrogen potassium sulfate + sulfuric acid, monosodium salt; phases: Crystal, Crystal, Liquid, Air at 1 atmosphere
Property: Eutectic temperature, K (Crystal); method: PHASDIA:
Eutectic temperature, K	uncertainty
406	2

System: hydrogen potassium sulfate + sulfuric acid, monosodium salt; phases: Crystal, Crystal, Liquid, Air at 1 atmosphere
Property: Eutectic composition: mole fraction of hydrogen potassium sulfate (Crystal); method: Derived from phase diagram analysis
Eutectic composition: mole fraction of hydrogen potassium sulfate	uncertainty
0.44	0.01

System: hydrogen potassium sulfate + sulfuric acid, monosodium salt; phases: Liquid
Fixed: Temperature, K = 505
Fixed: Pressure, kPa = 101
Property: Excess molar enthalpy (molar enthalpy of mixing), kJ/mol (Liquid); method: Calvet calorimetry
Mole fraction of hydrogen potassium sulfate	Excess molar enthalpy (molar enthalpy of mixing), kJ/mol	uncertainty
0.1135	-0.17985	0.01809
0.2137	-0.42031	0.04219
0.4029	-0.52732	0.05292
0.4978	-0.6052	0.0607
0.5883	-0.59858	0.06006
0.7186	-0.51421	0.0516
0.8521	-0.28876	0.02901

System: hydrogen potassium sulfate + sulfuric acid, monosodium salt; phases: Liquid, Crystal
Fixed: Pressure, kPa = 101
Property: Solid-liquid equilibrium temperature, K (Liquid); method: Conductivity measurements
Mole fraction of hydrogen potassium sulfate	Solid-liquid equilibrium temperature, K	uncertainty
0	458	1
0.1621	439	1
0.2993	425	1
0.3047	425	1
0.4081	415	1

System: hydrogen potassium sulfate + sulfuric acid, monosodium salt; phases: Liquid, Crystal 2
Fixed: Pressure, kPa = 101
Property: Solid-liquid equilibrium temperature, K (Liquid); method: Conductivity measurements
Mole fraction of hydrogen potassium sulfate	Solid-liquid equilibrium temperature, K	uncertainty
0.4502	412	1
0.5035	415	1
0.5999	435	1

System: hydrogen potassium sulfate + sulfuric acid, monosodium salt; phases: Liquid, Crystal 1
Fixed: Pressure, kPa = 101
Property: Solid-liquid equilibrium temperature, K (Liquid); method: Conductivity measurements
Mole fraction of hydrogen potassium sulfate	Solid-liquid equilibrium temperature, K	uncertainty
0.8007	466	1
1	488	1
