Measured thermophysical data. Thermal decomposition peculiarities and combustion behavior of nitropyrazoles
Source: Thermochim. Acta, 2017, 10.1016/j.tca.2017.02.019
Compound 1: 3,4-dinitro-1H-pyrazole, C3H2N4O4, InChI=1S/C3H2N4O4/c8-6(9)2-1-4-5-3(2)7(10)11/h1H,(H,4,5)
Compound 2: 4,4',5,5'-tetranitro-3,3'-bi-1H-pyrazole, C6H2N8O8, InChI=1S/C6H2N8O8/c15-11(16)3-1(7-9-5(3)13(19)20)2-4(12(17)18)6(10-8-2)14(21)22/h(H,7,9)(H,8,10)
Compound 3: 3,5-dinitro-1H-pyrazol-4-amine, C3H3N5O4, InChI=1S/C3H3N5O4/c4-1-2(7(9)10)5-6-3(1)8(11)12/h4H2,(H,5,6)
Compound 4: N-(3,5-dinitro-1H-pyrazol-4-yl)-[1,2,4]triazolo[4,3-b][1,2,4,5]tetrazin-6-amine, C6H3N11O4, InChI=1S/C6H3N11O4/c18-16(19)3-2(4(10-9-3)17(20)21)8-5-11-13-6-12-7-1-15(6)14-5/h1H,(H,8,14)(H,9,10)
Compound 5: 1-(methoxymethyl)-3,5-dinitro-1H-pyrazol-4-amine, C5H7N5O5, InChI=1S/C5H7N5O5/c1-15-2-8-5(10(13)14)3(6)4(7-8)9(11)12/h2,6H2,1H3

System: 3,4-dinitro-1H-pyrazole; phases: Crystal, Liquid, Air at 1 atmosphere
Property: Normal melting temperature, K (Crystal); method: DTA
Normal melting temperature, K	uncertainty
360.65	0.5

System: 3,4-dinitro-1H-pyrazole; phases: Crystal, Liquid, Air at 1 atmosphere
Property: Molar enthalpy of transition or fusion, kJ/mol (Crystal); method: DSC
Molar enthalpy of transition or fusion, kJ/mol	uncertainty
16.99279805	0.521639382

System: 4,4',5,5'-tetranitro-3,3'-bi-1H-pyrazole; phases: Crystal, Liquid, Air at 1 atmosphere
Property: Normal melting temperature, K (Crystal); method: DTA
Normal melting temperature, K	uncertainty
480.15	1

System: 4,4',5,5'-tetranitro-3,3'-bi-1H-pyrazole; phases: Crystal, Liquid, Air at 1 atmosphere
Property: Molar enthalpy of transition or fusion, kJ/mol (Crystal); method: DSC
Molar enthalpy of transition or fusion, kJ/mol	uncertainty
28.30304092	0.81673592

System: 3,5-dinitro-1H-pyrazol-4-amine; phases: Crystal, Liquid, Air at 1 atmosphere
Property: Normal melting temperature, K (Crystal); method: DTA
Normal melting temperature, K	uncertainty
459.15	10

System: N-(3,5-dinitro-1H-pyrazol-4-yl)-[1,2,4]triazolo[4,3-b][1,2,4,5]tetrazin-6-amine; phases: Crystal
Fixed: Pressure, kPa = 101.325
Property: Mass density, kg/m3 (Crystal); method: X-ray diffraction
Temperature, K	Mass density, kg/m3	uncertainty
100	1871	2
298	1827	2

System: 1-(methoxymethyl)-3,5-dinitro-1H-pyrazol-4-amine; phases: Crystal, Liquid, Air at 1 atmosphere
Property: Normal melting temperature, K (Crystal); method: VISOBS
Normal melting temperature, K	uncertainty
398.15	6
