Measured thermophysical data. Preparation and Characterization of Microencapsulated Phase Change Materials with Binary Cores and Poly (allyl methacrylate) (PALMA) Shells Used for Thermo-regulated Fibers
Source: Thermochim. Acta, 2017, 10.1016/j.tca.2017.07.006
Compound 1: butyl octadecanoate, C22H44O2, InChI=1S/C22H44O2/c1-3-5-7-8-9-10-11-12-13-14-15-16-17-18-19-20-22(23)24-21-6-4-2/h3-21H2,1-2H3
Compound 2: 1-tetradecanol, C14H30O, InChI=1S/C14H30O/c1-2-3-4-5-6-7-8-9-10-11-12-13-14-15/h15H,2-14H2,1H3

System: butyl octadecanoate; phases: Crystal, Liquid, Air at 1 atmosphere
Property: Molar enthalpy of transition or fusion, kJ/mol (Crystal); method: DSC
Molar enthalpy of transition or fusion, kJ/mol	uncertainty
36.95331626	1.055809036

System: butyl octadecanoate; phases: Crystal, Liquid, Air at 1 atmosphere
Property: Normal melting temperature, K (Crystal); method: DTA
Normal melting temperature, K	uncertainty
300.85	2

System: 1-tetradecanol; phases: Crystal, Liquid, Air at 1 atmosphere
Property: Molar enthalpy of transition or fusion, kJ/mol (Crystal); method: DSC
Molar enthalpy of transition or fusion, kJ/mol	uncertainty
48.00133886	1.32920188

System: 1-tetradecanol; phases: Crystal, Liquid, Air at 1 atmosphere
Property: Normal melting temperature, K (Crystal); method: DTA
Normal melting temperature, K	uncertainty
312.25	2

System: butyl octadecanoate + 1-tetradecanol; phases: Crystal, Crystal, Liquid, Air at 1 atmosphere
Property: Eutectic temperature, K (Crystal); method: DTA
Eutectic temperature, K	uncertainty
296.85	2

System: butyl octadecanoate + 1-tetradecanol; phases: Liquid, Crystal
Fixed: Pressure, kPa = 100
Property: Solid-liquid equilibrium temperature, K (Liquid); method: DTA
Mass fraction of 1-tetradecanol	Solid-liquid equilibrium temperature, K	uncertainty
1	312.25	2
0.71	308.35	2
0.67	307.55	2
0.6	306.25	2
0.5	304.35	2
0.38	302.65	2
