Measured thermophysical data. Contribution of blocking positions on the curing behaviors, networks and thermal properties of aromatic diamine-based benzoxazines
Source: Thermochim. Acta, 2018, 10.1016/j.tca.2018.08.012
Compound 1: bis(4-(2H-benzo[e][1,3]oxazin-3(4H)-yl)phenyl)methane, C29H26N2O2, InChI=1S/C29H26N2O2/c1-3-7-28-24(5-1)18-30(20-32-28)26-13-9-22(10-14-26)17-23-11-15-27(16-12-23)31-19-25-6-2-4-8-29(25)33-21-31/h1-16H,17-21H2
Compound 2: bis(4-(7-methyl-2H-benzo[e][1,3]oxazin-3(4H)-yl)phenyl)methane, C31H30N2O2, InChI=1S/C31H30N2O2/c1-22-3-9-26-18-32(20-34-30(26)15-22)28-11-5-24(6-12-28)17-25-7-13-29(14-8-25)33-19-27-10-4-23(2)16-31(27)35-21-33/h3-16H,17-21H2,1-2H3
Compound 3: bis(4-(6-methyl-2H-benzo[e][1,3]oxazin-3(4H)-yl)phenyl)methane, C31H30N2O2, InChI=1S/C31H30N2O2/c1-22-3-13-30-26(15-22)18-32(20-34-30)28-9-5-24(6-10-28)17-25-7-11-29(12-8-25)33-19-27-16-23(2)4-14-31(27)35-21-33/h3-16H,17-21H2,1-2H3
Compound 4: bis(4-(6,8-dimethyl-2H-benzo[e][1,3]oxazin-3(4H)-yl)phenyl)methane, C33H34N2O2, InChI=1S/C33H34N2O2/c1-22-13-24(3)32-28(15-22)18-34(20-36-32)30-9-5-26(6-10-30)17-27-7-11-31(12-8-27)35-19-29-16-23(2)14-25(4)33(29)37-21-35/h5-16H,17-21H2,1-4H3

System: bis(4-(2H-benzo[e][1,3]oxazin-3(4H)-yl)phenyl)methane; phases: Crystal 2, Crystal 1, Air at 1 atmosphere
Property: Triple point temperature, K (Crystal 2); method: DSC
Triple point temperature, K	uncertainty
328.15	10

System: bis(4-(2H-benzo[e][1,3]oxazin-3(4H)-yl)phenyl)methane; phases: Crystal 1, Liquid, Air at 1 atmosphere
Property: Triple point temperature, K (Crystal 1); method: DSC
Triple point temperature, K	uncertainty
357.15	10

System: bis(4-(7-methyl-2H-benzo[e][1,3]oxazin-3(4H)-yl)phenyl)methane; phases: Crystal, Liquid, Air at 1 atmosphere
Property: Triple point temperature, K (Crystal); method: DSC
Triple point temperature, K	uncertainty
435.15	10

System: bis(4-(6-methyl-2H-benzo[e][1,3]oxazin-3(4H)-yl)phenyl)methane; phases: Crystal 1, Liquid, Air at 1 atmosphere
Property: Triple point temperature, K (Crystal 1); method: DSC
Triple point temperature, K	uncertainty
432.15	10

System: bis(4-(6,8-dimethyl-2H-benzo[e][1,3]oxazin-3(4H)-yl)phenyl)methane; phases: Crystal 1, Liquid, Air at 1 atmosphere
Property: Triple point temperature, K (Crystal 1); method: DSC
Triple point temperature, K	uncertainty
406.15	10

System: bis(4-(6,8-dimethyl-2H-benzo[e][1,3]oxazin-3(4H)-yl)phenyl)methane; phases: Crystal 2, Crystal 1, Air at 1 atmosphere
Property: Triple point temperature, K (Crystal 2); method: DSC
Triple point temperature, K	uncertainty
390.15	10
