Measured thermophysical data. Thermodynamic Measurement of Nd-Fe system  by Double Knudsen Cell Mass Spectrometry
Source: Thermochim. Acta, 2011, 10.1016/j.tca.2010.12.023
Compound 1: neodymium, Nd, InChI=1S/Nd
Compound 2: iron, Fe, InChI=1S/Fe

System: iron + neodymium; phases: Crystal
Fixed: Pressure, kPa = 1e-07
Property: (Relative) activity of neodymium (Crystal); method: Mass-spectrometry
Temperature, K	Mole fraction of neodymium	(Relative) activity of neodymium	uncertainty
1373	0.085	0.079	0.03
1373	0.16	0.27	0.12
1398	0.085	0.082	0.018
1423	0.085	0.096	0.04
1423	0.16	0.23	0.02
1448	0.085	0.11	0.02
1473	0.085	0.15	0.04
1473	0.16	0.24	0.1
1498	0.085	0.21	0.02
1523	0.085	0.19	0.02
1523	0.16	0.21	0.06

System: iron + neodymium; phases: Liquid
Fixed: Pressure, kPa = 1e-07
Property: (Relative) activity of neodymium (Liquid); method: Mass-spectrometry
Temperature, K	Mole fraction of neodymium	(Relative) activity of neodymium	uncertainty
1373	0.49	0.28	0.12
1373	0.72	0.43	0.02
1373	0.93	0.77	0.06
1423	0.49	0.32	0.02
1423	0.72	0.48	0.06
1423	0.93	0.84	0.16
1473	0.49	0.39	0.02
1473	0.72	0.52	0.04
1473	0.93	0.91	0.08
1523	0.49	0.42	0.02
1523	0.72	0.55	0.02
1523	0.93	0.95	0.02
