Measured thermophysical data. Thermodynamics of BaNd2Fe2O7(s) and BaNdFeO4(s) in the system Ba Nd Fe O
Source: Thermochim. Acta, 2006, 10.1016/j.tca.2005.12.020
Compound 1: calcium monoxide, CaO, InChI=1S/Ca.O/q+2;-2
Compound 2: barium difluoride, BaF2, InChI=1S/Ba.2FH/h;2*1H/q+2;;/p-2
Compound 3: calcium fluoride, CaF2, InChI=1S/Ca.2FH/h;2*1H/q+2;;/p-2
Compound 4: neodymium ferrite, FeNdO3, InChI=1S/Fe.Nd.3O
Compound 5: barium iron neodymium oxide (BaFe2Nd2O7), BaFe2Nd2O7, InChI=1S/Ba.2Fe.2Nd.7O/q+2;4*+3;7*-2, purity 98%
Compound 6: barium iron neodymium oxide (BaFeNdO4), BaFeNdO4, InChI=1S/Ba.Fe.Nd.4O/q+2;2*+3;4*-2, purity 98%

System: barium iron neodymium oxide (BaFe2Nd2O7); phases: Crystal
Property: Mass density, kg/m3 (Crystal); method: X-ray diffraction
Temperature, K	Pressure, kPa	Mass density, kg/m3	uncertainty
298	101.325	3439	4

System: barium iron neodymium oxide (BaFe2Nd2O7); phases: Crystal
Fixed: Pressure, kPa = 101.325
Property: Molar heat capacity at constant pressure, J/K/mol (Crystal); method: Small sample (50 mg) DSC
Temperature, K	Molar heat capacity at constant pressure, J/K/mol	uncertainty
132	137.1	2.7
134	145.7	2.9
136	151.4	3
139	163.5	3.3
140	165.7	3.3
142	171	3.4
144	178.3	3.6
146	185.1	3.7
148	189.9	3.8
151	196.3	3.9
152	197.6	4
153	200.8	4
156	204.2	4.1
158	208.9	4.2
160	211.9	4.2
163	217.3	4.3
164	218.5	4.4
165	220.9	4.4
168	223.7	4.5
172	227.1	4.5
176	228.8	4.6
180	231.5	4.6
188	234	4.7
196	236.3	4.7
202	239.8	4.8
212	241.9	4.8
215	246.3	4.9
223	247.7	5
232	253.4	5.1
245	258.6	5.2
253	261	5.2
268	263.3	5.3
278	266.1	5.3
287	266.9	5.3
295	267.8	5.4
307	269.2	5.4
321	271.1	5.4
327	272.1	5.4
346	278.8	5.6
366	283.1	5.7
386	285.4	5.7
406	287.6	5.8
426	290.6	5.8
446	294.6	5.9
466	299.2	6
486	303.9	6.1
506	308.2	6.2
525	311.9	6.2
545	315	6.3
565	317.8	6.4
585	320.5	6.4
605	323.3	6.5
625	326.5	6.5
645	330.1	6.6
665	333.7	6.7
685	337	6.7
705	339.3	6.8
725	340.1	6.8
745	345.6	6.9
765	348.7	7
785	351.8	7
805	354.9	7.1
825	358	7.2
845	361.1	7.2

System: barium iron neodymium oxide (BaFeNdO4); phases: Crystal
Property: Mass density, kg/m3 (Crystal); method: X-ray diffraction
Temperature, K	Pressure, kPa	Mass density, kg/m3	uncertainty
298	101.325	3462	4

System: barium iron neodymium oxide (BaFeNdO4); phases: Crystal
Fixed: Pressure, kPa = 101.325
Property: Molar heat capacity at constant pressure, J/K/mol (Crystal); method: Small sample (50 mg) DSC
Temperature, K	Molar heat capacity at constant pressure, J/K/mol	uncertainty
132	88.6	1.8
134	93.5	1.9
137	95.4	1.9
139	99.7	2
142	101.3	2
144	104.2	2.1
146	105.6	2.1
149	106.8	2.1
151	107.3	2.1
153	109.8	2.2
156	110.8	2.2
158	113.2	2.3
161	114.7	2.3
163	116.2	2.3
165	117.7	2.4
168	119.2	2.4
170	120.3	2.4
172	120.8	2.4
175	121.5	2.4
177	121.3	2.4
180	121.3	2.4
182	122	2.4
184	122.7	2.5
187	122.6	2.5
189	123.3	2.5
192	123.1	2.5
194	127.5	2.6
197	128.2	2.6
199	128.8	2.6
201	129.1	2.6
206	129.5	2.6
211	130.1	2.6
226	136	2.7
238	138.6	2.8
257	141.9	2.8
270	147.1	2.9
287	151.8	3
305	152.1	3
310	155.4	3.1
315	159.3	3.2
327	159.8	3.2
346	161.8	3.2
366	164.7	3.3
386	167.5	3.4
406	169.5	3.4
426	173.1	3.5
466	178.8	3.6
486	182.9	3.7
506	185.8	3.7
526	188.3	3.8
546	189	3.8
566	191	3.8
585	195.3	3.9
605	198.1	4
625	201.9	4
645	204.7	4.1
665	206.4	4.1
685	208.2	4.2
705	214	4.3
725	214.8	4.3
745	218.5	4.4
765	220.3	4.4
785	222.1	4.4
805	225.9	4.5
825	229.6	4.6
845	231.4	4.6

Reaction: 1 calcium monoxide + 1 barium difluoride + -1 calcium fluoride + 1 barium iron neodymium oxide (BaFe2Nd2O7) + -2 barium iron neodymium oxide (BaFeNdO4)
Property: Molar Gibbs energy of reaction, kJ/mol
4.17

Reaction: 1 calcium monoxide + 1 barium difluoride + -1 calcium fluoride + 1 barium iron neodymium oxide (BaFe2Nd2O7) + -2 barium iron neodymium oxide (BaFeNdO4)
Property: Molar Gibbs energy of reaction, kJ/mol
14.03

Reaction: -1 calcium monoxide + -1 barium difluoride + 1 calcium fluoride + -2 neodymium ferrite + 1 barium iron neodymium oxide (BaFe2Nd2O7)
Property: Molar Gibbs energy of reaction, kJ/mol
-26.31

Reaction: -1 calcium monoxide + -1 barium difluoride + 1 calcium fluoride + -2 neodymium ferrite + 1 barium iron neodymium oxide (BaFe2Nd2O7)
Property: Molar Gibbs energy of reaction, kJ/mol
-13.44
