Measured thermophysical data. Combustion behavior and physico-chemical properties of dihydroxylammonium 5,5'-bistetrazole-1,1'-diolate (TKX-50)
Source: Thermochim. Acta, 2015, 10.1016/j.tca.2015.06.019
Compound 1: carbon dioxide, CO2, InChI=1S/CO2/c2-1-3
Compound 2: nitrogen, N2, InChI=1S/N2/c1-2
Compound 3: water, H2O, InChI=1S/H2O/h1H2
Compound 4: oxygen, O2, InChI=1S/O2/c1-2
Compound 5: hydroxylammonium 1H,1'H-[5,5'-bitetrazole]-1,1'-bis(olate), C2H8N10O4, InChI=1S/C2N8O2.2H4NO/c11-9-1(3-5-7-9)2-4-6-8-10(2)12;2*1-2/h;2*2H,1H3/q-2;2*+1

Reaction: -1 hydroxylammonium 1H,1'H-[5,5'-bitetrazole]-1,1'-bis(olate) + 2 carbon dioxide + 5 nitrogen + 4 water + -2 oxygen
Property: Specific internal energy of reaction at constant volume, J/g
-8704
