Measured thermophysical data. Molar heat capacities of choline chloride-based deep eutectic solvents and their binary mixtures  with water
Source: Thermochim. Acta, 2012, 10.1016/j.tca.2011.11.036
Compound 1: water, H2O, InChI=1S/H2O/h1H2
Compound 2: urea, CH4N2O, InChI=1S/CH4N2O/c2-1(3)4/h(H4,2,3,4), purity 98%
Compound 3: 1,2-ethanediol, C2H6O2, InChI=1S/C2H6O2/c3-1-2-4/h3-4H,1-2H2, purity 98%
Compound 4: glycerol, C3H8O3, InChI=1S/C3H8O3/c4-1-3(6)2-5/h3-6H,1-2H2
Compound 5: choline chloride, C5H14ClNO, InChI=1S/C5H14NO.ClH/c1-6(2,3)4-5-7;/h7H,4-5H2,1-3H3;1H/q+1;/p-1, purity 98%

System: urea + choline chloride; phases: Liquid
Fixed: Pressure, kPa = 101
Fixed: Mole fraction of choline chloride = 0.3333
Property: Molar heat capacity at constant pressure, J/K/mol (Liquid); method: Small sample (50 mg) DSC
Temperature, K	Molar heat capacity at constant pressure, J/K/mol	uncertainty
303.15	181.4	2.8
308.15	182.2	2.8
313.15	183.2	2.8
318.15	183.5	2.8
323.15	184.5	2.9
328.15	185.3	2.9
333.15	186.4	2.9
338.15	187.4	2.9
343.15	188.5	3
348.15	189.5	2.9
353.15	190.8	3.1

System: choline chloride + 1,2-ethanediol; phases: Liquid
Fixed: Pressure, kPa = 101
Fixed: Mole fraction of choline chloride = 0.3333
Property: Molar heat capacity at constant pressure, J/K/mol (Liquid); method: Small sample (50 mg) DSC
Temperature, K	Molar heat capacity at constant pressure, J/K/mol	uncertainty
303.15	190.8	3
308.15	192.2	3
313.15	194	3
318.15	194.9	3
323.15	196.4	3
328.15	197.6	3.1
333.15	199.2	3.1
338.15	200.6	3.1
343.15	202.1	3.1
348.15	203.9	3.2
353.15	205.6	3.2

System: glycerol + choline chloride; phases: Liquid
Fixed: Pressure, kPa = 101
Fixed: Mole fraction of choline chloride = 0.3333
Property: Molar heat capacity at constant pressure, J/K/mol (Liquid); method: Small sample (50 mg) DSC
Temperature, K	Molar heat capacity at constant pressure, J/K/mol	uncertainty
303.15	237.7	3.7
308.15	239.1	3.7
313.15	240.8	3.7
318.15	241.9	3.7
323.15	243.5	3.8
328.15	244.9	3.8
333.15	246.9	3.8
338.15	248.4	3.8
343.15	250.3	3.9
348.15	252.1	3.9
353.15	254.3	3.9

System: urea + choline chloride + water; phases: Liquid
Fixed: Pressure, kPa = 101
Fixed: Solvent: Mole fraction of choline chloride = 0.3333
Property: Molar heat capacity at constant pressure, J/K/mol (Liquid); method: Small sample (50 mg) DSC
Temperature, K	Mole fraction of water	Molar heat capacity at constant pressure, J/K/mol	uncertainty
303.15	0.1074	168.3	2.6
303.15	0.3025	145	2.6
303.15	0.5019	122.1	1.9
303.15	0.7005	100.5	1.6
303.15	0.9002	81.51	1.26
308.15	0.1074	169.2	2.6
308.15	0.3025	146.1	2.7
308.15	0.5019	122.9	1.9
308.15	0.7005	101.1	1.6
308.15	0.9002	81.93	1.27
313.15	0.1074	170.1	2.6
313.15	0.3025	147.1	2.6
313.15	0.5019	123.8	1.9
313.15	0.7005	101.7	1.6
313.15	0.9002	82.32	1.28
318.15	0.1074	170.6	2.6
318.15	0.3025	147.6	2.9
318.15	0.5019	124.3	1.9
318.15	0.7005	102.1	1.7
318.15	0.9002	82.44	1.28
323.15	0.1074	171.4	2.7
323.15	0.3025	148.5	2.6
323.15	0.5019	125.2	1.9
323.15	0.7005	102.8	1.7
323.15	0.9002	82.79	1.28
328.15	0.1074	172.3	2.7
328.15	0.3025	149.2	2.9
328.15	0.5019	125.9	2
328.15	0.7005	103.4	1.7
328.15	0.9002	83.09	1.29
333.15	0.1074	173.4	2.7
333.15	0.3025	150.3	2.9
333.15	0.5019	126.8	2
333.15	0.7005	104.1	1.7
333.15	0.9002	83.51	1.29
338.15	0.1074	174.2	2.7
338.15	0.3025	151.1	2.9
338.15	0.5019	127.7	2
338.15	0.7005	104.8	1.8
338.15	0.9002	83.82	1.3
343.15	0.1074	175.3	2.7
343.15	0.3025	152.3	3.1
343.15	0.5019	128.5	2.1
343.15	0.7005	105.6	1.8
343.15	0.9002	84.17	1.3
348.15	0.1074	176.5	2.7
348.15	0.3025	153.3	3.2
348.15	0.5019	129.6	2
348.15	0.7005	106.3	1.9
348.15	0.9002	84.62	1.31
353.15	0.1074	177.8	2.8
353.15	0.3025	154.6	2.8
353.15	0.5019	130.7	2
353.15	0.7005	107.4	1.9
353.15	0.9002	85.15	1.32

System: choline chloride + 1,2-ethanediol + water; phases: Liquid
Fixed: Pressure, kPa = 101
Fixed: Solvent: Mole fraction of choline chloride = 0.3333
Property: Molar heat capacity at constant pressure, J/K/mol (Liquid); method: Small sample (50 mg) DSC
Temperature, K	Mole fraction of water	Molar heat capacity at constant pressure, J/K/mol	uncertainty
303.15	0.1107	175.9	2.7
303.15	0.3063	151	2.3
303.15	0.5035	126.8	2
303.15	0.6995	104.7	1.7
303.15	0.9003	84.33	1.69
308.15	0.1107	177.3	2.7
308.15	0.3063	152.5	2.4
308.15	0.5035	128.1	2
308.15	0.6995	105.8	1.7
308.15	0.9003	84.93	1.56
313.15	0.1107	178.9	2.8
313.15	0.3063	153.7	2.4
313.15	0.5035	129.4	2
313.15	0.6995	106.8	1.7
313.15	0.9003	85.45	1.57
318.15	0.1107	179.8	2.8
318.15	0.3063	154.6	2.4
318.15	0.5035	130.2	2
318.15	0.6995	107.5	1.7
318.15	0.9003	85.68	1.57
323.15	0.1107	181.2	2.8
323.15	0.3063	155.9	2.4
323.15	0.5035	131.3	2.1
323.15	0.6995	108.5	1.7
323.15	0.9003	86.1	1.58
328.15	0.1107	182.4	2.8
328.15	0.3063	157.1	2.4
328.15	0.5035	132.3	2.2
328.15	0.6995	109.3	1.7
328.15	0.9003	86.37	1.46
333.15	0.1107	183.9	2.8
333.15	0.3063	158.4	2.5
333.15	0.5035	133.6	2.2
333.15	0.6995	110.2	1.7
333.15	0.9003	86.89	1.47
338.15	0.1107	185.2	2.9
338.15	0.3063	159.6	2.5
338.15	0.5035	134.7	2.4
338.15	0.6995	111.1	1.7
338.15	0.9003	87.21	1.37
343.15	0.1107	186.6	2.9
343.15	0.3063	161	2.5
343.15	0.5035	135.9	2.4
343.15	0.6995	112	1.7
343.15	0.9003	87.56	1.38
348.15	0.1107	188.2	2.9
348.15	0.3063	162.3	2.5
348.15	0.5035	137.1	2.4
348.15	0.6995	112.9	1.8
348.15	0.9003	87.95	1.36
353.15	0.1107	189.8	2.9
353.15	0.3063	163.9	2.5
353.15	0.5035	138.4	2.4
353.15	0.6995	114	1.8
353.15	0.9003	88.34	1.37

System: glycerol + choline chloride + water; phases: Liquid
Fixed: Pressure, kPa = 101
Fixed: Solvent: Mole fraction of choline chloride = 0.3333
Property: Molar heat capacity at constant pressure, J/K/mol (Liquid); method: Small sample (50 mg) DSC
Temperature, K	Mole fraction of water	Molar heat capacity at constant pressure, J/K/mol	uncertainty
303.15	0.102	218.8	3.4
303.15	0.3007	184.4	2.9
303.15	0.5053	150.4	2.3
303.15	0.7005	119.2	1.8
303.15	0.9	88.93	1.38
308.15	0.102	220.4	3.4
308.15	0.3007	185.7	2.9
308.15	0.5053	151.6	2.4
308.15	0.7005	120.2	1.9
308.15	0.9	89.42	1.39
313.15	0.102	221.9	3.4
313.15	0.3007	187.1	2.9
313.15	0.5053	153	2.6
313.15	0.7005	121.2	1.9
313.15	0.9	89.92	1.39
318.15	0.102	223	3.5
318.15	0.3007	188.1	2.9
318.15	0.5053	153.8	2.5
318.15	0.7005	122	1.9
318.15	0.9	90.19	1.4
323.15	0.102	224.5	3.5
323.15	0.3007	189.4	2.9
323.15	0.5053	155.2	2.5
323.15	0.7005	123	1.9
323.15	0.9	90.69	1.4
328.15	0.102	225.8	3.7
328.15	0.3007	190.5	3
328.15	0.5053	156.2	2.6
328.15	0.7005	123.9	1.9
328.15	0.9	91.02	1.41
333.15	0.102	227.6	3.7
333.15	0.3007	192.3	3
333.15	0.5053	157.8	2.6
333.15	0.7005	125	1.9
333.15	0.9	91.66	1.42
338.15	0.102	229.1	3.7
338.15	0.3007	193.8	3
338.15	0.5053	159	2.6
338.15	0.7005	126	2
338.15	0.9	92.08	1.43
343.15	0.102	230.9	3.9
343.15	0.3007	195.3	3
343.15	0.5053	160.3	2.7
343.15	0.7005	127	2
343.15	0.9	92.56	1.43
348.15	0.102	232.6	3.8
348.15	0.3007	196.8	3.2
348.15	0.5053	161.7	2.8
348.15	0.7005	128.1	2
348.15	0.9	93.1	1.44
353.15	0.102	234.7	4.1
353.15	0.3007	198.7	3.1
353.15	0.5053	163.3	2.9
353.15	0.7005	129.3	2
353.15	0.9	93.51	1.45
