Measured thermophysical data. Determination and correlation of solubility and mixing properties of isonicotinamide (form II) in some pure solvents
Source: Thermochim. Acta, 2016, 10.1016/j.tca.2016.01.012
Compound 1: 4-pyridinecarboxamide, C6H6N2O, InChI=1S/C6H6N2O/c7-6(9)5-1-3-8-4-2-5/h1-4H,(H2,7,9), purity 99%
Compound 2: ethanol, C2H6O, InChI=1S/C2H6O/c1-2-3/h3H,2H2,1H3, purity 99.5%
Compound 3: propan-2-ol, C3H8O, InChI=1S/C3H8O/c1-3(2)4/h3-4H,1-2H3, purity 99.5%
Compound 4: butan-1-ol, C4H10O, InChI=1S/C4H10O/c1-2-3-4-5/h5H,2-4H2,1H3, purity 99.5%
Compound 5: butan-2-ol, C4H10O, InChI=1S/C4H10O/c1-3-4(2)5/h4-5H,3H2,1-2H3, purity 99.5%
Compound 6: ethyl acetate, C4H8O2, InChI=1S/C4H8O2/c1-3-6-4(2)5/h3H2,1-2H3, purity 99.5%
Compound 7: butyl ethanoate, C6H12O2, InChI=1S/C6H12O2/c1-3-4-5-8-6(2)7/h3-5H2,1-2H3, purity 99.5%
Compound 8: water, H2O, InChI=1S/H2O/h1H2, purity 99.8%

System: 4-pyridinecarboxamide; phases: Crystal, Liquid, Air at 1 atmosphere
Property: Normal melting temperature, K (Crystal); method: DTA
Normal melting temperature, K	uncertainty
428.5	0.7

System: 4-pyridinecarboxamide; phases: Crystal, Liquid, Air at 1 atmosphere
Property: Molar enthalpy of transition or fusion, kJ/mol (Crystal); method: DSC
Molar enthalpy of transition or fusion, kJ/mol	uncertainty
22.6	1.11

System: 4-pyridinecarboxamide + water; phases: Liquid, Crystal
Fixed: Pressure, kPa = 100
Property: Mole fraction of 4-pyridinecarboxamide (Liquid); method: Gravimetric
Temperature, K	Mole fraction of 4-pyridinecarboxamide	uncertainty
298.15	0.01525	0.00094
303.15	0.02059	0.00126
308.15	0.02685	0.00163
313.15	0.03417	0.00207
318.15	0.04221	0.00255
323.15	0.04958	0.00299

System: ethanol + 4-pyridinecarboxamide; phases: Liquid, Crystal
Fixed: Pressure, kPa = 100
Property: Mole fraction of 4-pyridinecarboxamide (Liquid); method: Gravimetric
Temperature, K	Mole fraction of 4-pyridinecarboxamide	uncertainty
298.15	0.0316	0.0019
303.15	0.03566	0.00215
308.15	0.04117	0.00248
313.15	0.04771	0.00288
318.15	0.05665	0.00342
323.15	0.06483	0.00391

System: propan-2-ol + 4-pyridinecarboxamide; phases: Liquid, Crystal
Fixed: Pressure, kPa = 100
Property: Mole fraction of 4-pyridinecarboxamide (Liquid); method: Gravimetric
Temperature, K	Mole fraction of 4-pyridinecarboxamide	uncertainty
298.15	0.02637	0.0016
303.15	0.03248	0.00196
308.15	0.03751	0.00226
313.15	0.0439	0.00265
318.15	0.0504	0.00304
323.15	0.05711	0.00344

System: butan-1-ol + 4-pyridinecarboxamide; phases: Liquid, Crystal
Fixed: Pressure, kPa = 100
Property: Mole fraction of 4-pyridinecarboxamide (Liquid); method: Gravimetric
Temperature, K	Mole fraction of 4-pyridinecarboxamide	uncertainty
298.15	0.04211	0.00254
303.15	0.04824	0.00291
308.15	0.05777	0.00349
313.15	0.06649	0.00402
318.15	0.07937	0.00479
323.15	0.0913	0.0055

System: butan-2-ol + 4-pyridinecarboxamide; phases: Liquid, Crystal
Fixed: Pressure, kPa = 100
Property: Mole fraction of 4-pyridinecarboxamide (Liquid); method: Gravimetric
Temperature, K	Mole fraction of 4-pyridinecarboxamide	uncertainty
298.15	0.02632	0.00159
303.15	0.0302	0.00182
308.15	0.03433	0.00207
313.15	0.03962	0.00239
318.15	0.04588	0.00277
323.15	0.05467	0.0033

System: ethyl acetate + 4-pyridinecarboxamide; phases: Liquid, Crystal
Fixed: Pressure, kPa = 100
Property: Mole fraction of 4-pyridinecarboxamide (Liquid); method: Gravimetric
Temperature, K	Mole fraction of 4-pyridinecarboxamide	uncertainty
298.15	0.00822	0.00049
303.15	0.00906	0.00055
308.15	0.01022	0.00062
313.15	0.01153	0.0007
318.15	0.01349	0.00081
323.15	0.01539	0.00093

System: butyl ethanoate + 4-pyridinecarboxamide; phases: Liquid, Crystal
Fixed: Pressure, kPa = 100
Property: Mole fraction of 4-pyridinecarboxamide (Liquid); method: Gravimetric
Temperature, K	Mole fraction of 4-pyridinecarboxamide	uncertainty
298.15	0.00757	0.00046
303.15	0.00876	0.00053
308.15	0.01009	0.00061
313.15	0.01181	0.00071
318.15	0.01322	0.0008
323.15	0.01519	0.00092
