Measured thermophysical data. Heat capacity and thermodynamic functions of sphalerite: Implication to sulfide solid-state galvanic cell measurements
Source: Thermochim. Acta, 2016, 10.1016/j.tca.2016.08.006
Compound 1: zinc sulfide, SZn, InChI=1S/S.Zn/q-2;+2, purity 99.99%

System: zinc sulfide; phases: Crystal
Fixed: Pressure, kPa = 101.325
Property: Molar heat capacity at constant pressure, J/K/mol (Crystal); method: Vacuum adiabatic calorimetry
Temperature, K	Molar heat capacity at constant pressure, J/K/mol	uncertainty
13.23	0.1984	0.0097
16.01	0.5445	0.0166
17.97	1.025	0.0277
19.61	1.553	0.04
21.54	2.093	0.053
23.46	2.68	0.067
25.99	3.508	0.086
28.89	4.52	0.11
31.66	5.487	0.137
34.78	6.6	0.163
37.93	7.702	0.189
41.05	8.761	0.07
44.22	9.788	0.076
47.06	10.713	0.081
51.43	12.16	0.09
53.49	12.83	0.09
55.51	13.31	0.1
57.5	14	0.1
59.41	14.51	0.11
61.72	15.17	0.11
64.45	15.93	0.11
67.18	16.76	0.12
69.7	17.39	0.12
72.52	18.2	0.13
75.26	18.97	0.13
77.99	19.74	0.14
80.73	20.47	0.14
83.59	21.24	0.15
86.48	22.17	0.15
91.62	23.27	0.22
95.13	24.19	0.22
98.85	25.12	0.23
102.42	26.14	0.23
106.06	26.79	0.23
109.93	27.68	0.24
113.87	28.52	0.24
117.79	29.35	0.25
121.86	30.17	0.25
125.61	30.87	0.26
129.43	31.59	0.26
133.29	32.28	0.26
137.15	32.9	0.27
141.04	33.52	0.27
144.93	34.17	0.27
149.88	35.06	0.28
155.67	35.74	0.21
159.17	36.12	0.21
164	36.77	0.21
168.93	37.35	0.21
173.91	37.96	0.21
178.77	38.48	0.21
184.05	38.9	0.21
189.4	39.43	0.22
194.4	39.95	0.22
199.39	40.39	0.22
204.53	40.77	0.22
209.77	41.2	0.22
214.65	41.55	0.22
219.66	41.93	0.22
224.69	42.27	0.22
230	42.62	0.22
235.27	42.91	0.23
240.27	43.24	0.23
245.33	43.69	0.23
250.45	43.78	0.23
258.21	44.25	0.23
263.65	44.4	0.23
269.02	44.71	0.23
274.56	44.99	0.23
280.13	45.24	0.23
285.72	45.48	0.23
291.19	45.73	0.23
297.09	45.7	0.23
304.72	46.14	0.23
312.85	46.5	0.24

System: zinc sulfide; phases: Crystal
Fixed: Pressure, kPa = 101.325
Property: Molar heat capacity at constant pressure, J/K/mol (Crystal); method: Vacuum adiabatic calorimetry
Temperature, K	Molar heat capacity at constant pressure, J/K/mol	uncertainty
1	0.000119	0.010001
2	0.000958	0.010009
4	0.007765	0.010072
6	0.02685	0.01024
8	0.06618	0.01056
10	0.1376	0.0111
12	0.2601	0.012
14	0.4569	0.0134
16	0.7475	0.0152
18	1.1396	0.0174
20	1.6283	0.02
25	3.17	0.025
30	4.941	0.05
35	6.734	0.054
40	8.454	0.057
45	10.081	0.06
50	11.627	0.064
55	13.114	0.066
60	14.563	0.069
65	15.986	0.072
70	17.388	0.075
75	18.771	0.078
80	20.13	0.08
85	21.46	0.08
90	22.77	0.22
95	24.03	0.22
100	25.25	0.23
110	27.55	0.23
120	29.66	0.23
130	31.58	0.23
140	33.3	0.23
150	34.85	0.23
160	36.24	0.24
170	37.49	0.24
180	38.6	0.24
190	39.6	0.24
200	40.5	0.24
210	41.32	0.24
220	42.05	0.24
230	42.72	0.24
240	43.32	0.24
250	43.88	0.24
260	44.38	0.24
270	44.84	0.24
280	45.27	0.25
290	45.66	0.25
300	46.03	0.25
310	46.36	0.25
320	46.68	0.25

System: zinc sulfide; phases: Crystal
Fixed: Pressure, kPa = 101.325
Property: Molar entropy, J/K/mol (Crystal); method: Vacuum adiabatic calorimetry
Temperature, K	Molar entropy, J/K/mol	uncertainty
1	3.1e-05	0.015
2	0.00031	0.015
4	0.002561	0.015035
6	0.00879	0.01511
8	0.0213	0.01526
10	0.043	0.0155
12	0.078	0.0159
14	0.1317	0.0164
16	0.2106	0.0171
18	0.3203	0.0179
20	0.4649	0.019
25	0.987	0.022
30	1.72	0.065
35	2.617	0.068
40	3.629	0.071
45	4.72	0.074
50	5.863	0.078
55	7.041	0.081
60	8.244	0.085
65	9.466	0.089
70	10.7	0.09
75	11.95	0.1
80	13.2	0.1
85	14.47	0.1
90	15.73	0.32
95	16.99	0.33
100	18.26	0.33
110	20.77	0.33
120	23.26	0.33
130	25.71	0.34
140	28.12	0.34
150	30.47	0.35
160	32.76	0.35
170	35	0.35
180	37.17	0.36
190	39.29	0.36
200	41.34	0.36
210	43.34	0.37
220	45.28	0.37
230	47.16	0.37
240	48.99	0.37
250	50.77	0.38
260	52.5	0.38
270	54.19	0.38
280	55.83	0.38
290	57.42	0.39
300	58.98	0.39
310	60.49	0.39
320	61.97	0.39

System: zinc sulfide; phases: Crystal
Fixed: Pressure, kPa = 101.325
Property: Molar enthalpy, kJ/mol (Crystal); method: Vacuum adiabatic calorimetry
Temperature, K	Molar enthalpy, kJ/mol	uncertainty
1	1.8e-08	1e-05
2	4.66e-07	2.0005e-05
4	7.706e-06	4.0071e-05
6	3.97e-05	6.03e-05
8	0.0001285	8.11e-05
10	0.0003257	0.0001026
12	0.0007129	0.0001254
14	0.001416	0.00015
16	0.002603	0.000178
18	0.004473	0.000208
20	0.007226	0.000244
25	0.01907	0.00034
30	0.0393	0.00128
35	0.0685	0.00154
40	0.1065	0.0018
45	0.1529	0.0021
50	0.2072	0.0024
55	0.2691	0.0028
60	0.3383	0.0031
65	0.4147	0.0034
70	0.4981	0.0038
75	0.5885	0.0042
80	0.6858	0.0046
85	0.7898	0.005
90	0.9004	0.0189
95	1.017	0.02
100	1.141	0.021
110	1.405	0.023
120	1.691	0.026
130	1.997	0.028
140	2.322	0.03
150	2.663	0.033
160	3.018	0.035
170	3.387	0.037
180	3.768	0.04
190	4.159	0.042
200	4.559	0.045
210	4.969	0.047
220	5.385	0.049
230	5.809	0.052
240	6.24	0.054
250	6.676	0.057
260	7.117	0.059
270	7.563	0.062
280	8.014	0.064
290	8.468	0.066
300	8.927	0.069
310	9.389	0.071
320	9.854	0.074
