Measured thermophysical data. Topological and thermodynamic investigations of binary mixtures: Molar excess volumes, molar excess enthalpies and isentropic compressibility changes of mixing
Source: Thermochim. Acta, 2008, 10.1016/j.tca.2008.06.004
Compound 1: 2-methylaniline, C7H9N, InChI=1S/C7H9N/c1-6-4-2-3-5-7(6)8/h2-5H,8H2,1H3
Compound 2: cyclohexane, C6H12, InChI=1S/C6H12/c1-2-4-6-5-3-1/h1-6H2
Compound 3: hexane, C6H14, InChI=1S/C6H14/c1-3-5-6-4-2/h3-6H2,1-2H3
Compound 4: heptane, C7H16, InChI=1S/C7H16/c1-3-5-7-6-4-2/h3-7H2,1-2H3

System: 2-methylaniline; phases: Liquid
Property: Mass density, kg/m3 (Liquid); method: Pycnometric method
Temperature, K	Pressure, kPa	Mass density, kg/m3	uncertainty
298.15	101.325	994.28	1.02

System: 2-methylaniline; phases: Liquid
Property: Speed of sound, m/s (Liquid); method: Linear variable-path acoustic interferometer
Temperature, K	Pressure, kPa	Speed of sound, m/s	uncertainty
308.15	101.325	1603	3

System: cyclohexane; phases: Liquid
Property: Mass density, kg/m3 (Liquid); method: Pycnometric method
Temperature, K	Pressure, kPa	Mass density, kg/m3	uncertainty
298.15	101.325	773.94	0.76

System: cyclohexane; phases: Liquid
Property: Speed of sound, m/s (Liquid); method: Linear variable-path acoustic interferometer
Temperature, K	Pressure, kPa	Speed of sound, m/s	uncertainty
298.15	101.325	1255	3

System: hexane; phases: Liquid
Property: Mass density, kg/m3 (Liquid); method: Pycnometric method
Temperature, K	Pressure, kPa	Mass density, kg/m3	uncertainty
298.15	101.325	654.82	0.63

System: hexane; phases: Liquid
Property: Speed of sound, m/s (Liquid); method: Linear variable-path acoustic interferometer
Temperature, K	Pressure, kPa	Speed of sound, m/s	uncertainty
298.15	101.325	1079	3

System: heptane; phases: Liquid
Property: Mass density, kg/m3 (Liquid); method: Pycnometric method
Temperature, K	Pressure, kPa	Mass density, kg/m3	uncertainty
298.15	101.325	679.49	0.65

System: heptane; phases: Liquid
Property: Speed of sound, m/s (Liquid); method: Linear variable-path acoustic interferometer
Temperature, K	Pressure, kPa	Speed of sound, m/s	uncertainty
308.15	101.325	1088	3

System: 2-methylaniline + cyclohexane; phases: Liquid
Fixed: Temperature, K = 308.15
Fixed: Pressure, kPa = 101
Property: Excess molar enthalpy (molar enthalpy of mixing), kJ/mol (Liquid); method: Calvet calorimetry
Mole fraction of 2-methylaniline	Excess molar enthalpy (molar enthalpy of mixing), kJ/mol	uncertainty
0.0527	0.2658	0.0059
0.1017	0.5064	0.011
0.1628	0.7895	0.017
0.2349	1.0877	0.0233
0.2681	1.3077	0.028
0.3614	1.4815	0.0317
0.4213	1.5978	0.0341
0.4907	1.6687	0.0356
0.5613	1.6666	0.0356
0.6121	1.6173	0.0346
0.6774	1.4949	0.032
0.7643	1.2309	0.0264
0.8391	0.9158	0.0197
0.931	0.4283	0.0093

System: 2-methylaniline + cyclohexane; phases: Liquid
Fixed: Temperature, K = 308.15
Fixed: Pressure, kPa = 101
Property: Speed of sound, m/s (Liquid); method: Linear variable-path acoustic interferometer
Mole fraction of 2-methylaniline	Speed of sound, m/s	uncertainty
0.0663	1215	3
0.1293	1221	3
0.1758	1228	3
0.2355	1239	3
0.2902	1252	3
0.3335	1264	3
0.393	1282	3
0.4881	1315	3
0.556	1342	3
0.6453	1382	3
0.7117	1415	3
0.7986	1462	3
0.8479	1493	3
0.9026	1528	3

System: 2-methylaniline + cyclohexane; phases: Liquid
Fixed: Temperature, K = 298.15
Fixed: Pressure, kPa = 101
Property: Excess molar volume, m3/mol (Liquid); method: Direct dilatometry
Mole fraction of 2-methylaniline	Excess molar volume, m3/mol	uncertainty
0.0768	2.41e-07	3e-09
0.1415	3.87e-07	5e-09
0.1925	4.7e-07	5e-09
0.2442	5.29e-07	6e-09
0.2901	5.62e-07	6e-09
0.3415	5.81e-07	6e-09
0.3981	5.82e-07	6e-09
0.4506	5.68e-07	6e-09
0.5225	5.29e-07	6e-09
0.6103	4.57e-07	5e-09
0.6875	3.79e-07	5e-09
0.7513	3.07e-07	4e-09
0.8224	2.22e-07	3e-09
0.9119	1.11e-07	3e-09

System: 2-methylaniline + hexane; phases: Liquid
Fixed: Temperature, K = 308.15
Fixed: Pressure, kPa = 101
Property: Excess molar enthalpy (molar enthalpy of mixing), kJ/mol (Liquid); method: Calvet calorimetry
Mole fraction of 2-methylaniline	Excess molar enthalpy (molar enthalpy of mixing), kJ/mol	uncertainty
0.0678	0.1609	0.0037
0.1317	0.3513	0.0077
0.1927	0.553	0.012
0.2505	0.7498	0.0162
0.3314	1.0144	0.0218
0.4015	1.2151	0.026
0.4718	1.3732	0.0294
0.5317	1.4631	0.0313
0.5997	1.5048	0.0322
0.6532	1.486	0.0318
0.7013	1.4263	0.0305
0.7717	1.2599	0.027
0.8439	0.9847	0.0211
0.9164	0.5954	0.0129

System: 2-methylaniline + hexane; phases: Liquid
Fixed: Temperature, K = 308.15
Fixed: Pressure, kPa = 101
Property: Speed of sound, m/s (Liquid); method: Linear variable-path acoustic interferometer
Mole fraction of 2-methylaniline	Speed of sound, m/s	uncertainty
0.0697	1056	3
0.1172	1075	3
0.1851	1105	3
0.2657	1142	3
0.3119	1165	3
0.3707	1194	3
0.4478	1232	3
0.5009	1259	3
0.5787	1297	3
0.6449	1329	3
0.709	1359	3
0.7673	1389	3
0.8391	1433	3
0.9123	1501	3

System: 2-methylaniline + hexane; phases: Liquid
Fixed: Temperature, K = 298.15
Fixed: Pressure, kPa = 101
Property: Excess molar volume, m3/mol (Liquid); method: Direct dilatometry
Mole fraction of 2-methylaniline	Excess molar volume, m3/mol	uncertainty
0.0712	-4.8e-08	2e-09
0.1767	-1.25e-07	3e-09
0.2524	-1.84e-07	3e-09
0.2933	-2.15e-07	3e-09
0.3442	-2.52e-07	3e-09
0.3801	-2.77e-07	4e-09
0.4443	-3.15e-07	4e-09
0.4903	-3.38e-07	4e-09
0.5613	-3.63e-07	4e-09
0.6363	-3.71e-07	4e-09
0.6991	-3.61e-07	4e-09
0.7552	-3.36e-07	4e-09
0.8345	-2.71e-07	4e-09
0.9265	-1.46e-07	3e-09

System: 2-methylaniline + heptane; phases: Liquid
Fixed: Temperature, K = 308.15
Fixed: Pressure, kPa = 101
Property: Excess molar enthalpy (molar enthalpy of mixing), kJ/mol (Liquid); method: Calvet calorimetry
Mole fraction of 2-methylaniline	Excess molar enthalpy (molar enthalpy of mixing), kJ/mol	uncertainty
0.0734	0.2004	0.0045
0.1457	0.3648	0.008
0.1968	0.4683	0.0102
0.2678	0.6017	0.013
0.3109	0.6785	0.0146
0.3874	0.8083	0.0174
0.4467	0.9015	0.0194
0.5019	0.9792	0.021
0.5876	1.0708	0.023
0.6513	1.1034	0.0237
0.7016	1.0983	0.0235
0.7767	1.0216	0.0219
0.8312	0.899	0.0193
0.9267	0.5036	0.0109

System: 2-methylaniline + heptane; phases: Liquid
Fixed: Temperature, K = 308.15
Fixed: Pressure, kPa = 101
Property: Speed of sound, m/s (Liquid); method: Linear variable-path acoustic interferometer
Mole fraction of 2-methylaniline	Speed of sound, m/s	uncertainty
0.0707	1102	3
0.1227	1115	3
0.1758	1129	3
0.2378	1148	3
0.3079	1172	3
0.3508	1187	3
0.4047	1208	3
0.4679	1233	3
0.547	1266	3
0.6131	1296	3
0.6884	1334	3
0.7597	1373	3
0.8208	1413	3
0.9224	1501	3

System: 2-methylaniline + heptane; phases: Liquid
Fixed: Temperature, K = 298.15
Fixed: Pressure, kPa = 101
Property: Excess molar volume, m3/mol (Liquid); method: Direct dilatometry
Mole fraction of 2-methylaniline	Excess molar volume, m3/mol	uncertainty
0.0814	-4.8e-08	2e-09
0.1663	-1.02e-07	2e-09
0.2224	-1.37e-07	3e-09
0.2812	-1.71e-07	3e-09
0.3388	-1.99e-07	3e-09
0.3991	-2.23e-07	3e-09
0.4554	-2.38e-07	3e-09
0.5218	-2.47e-07	3e-09
0.5804	-2.45e-07	3e-09
0.6446	-2.33e-07	3e-09
0.7112	-2.1e-07	3e-09
0.7819	-1.73e-07	3e-09
0.8503	-1.27e-07	3e-09
0.9383	-6.7e-08	2e-09
