Measured thermophysical data. Thermochemical Analysis on Rare Earth Complex of Gadolinium with  Salicylic acid and 8-hydroxyquinoline
Source: Thermochim. Acta, 2012, 10.1016/j.tca.2012.08.027
Compound 1: gadolinium, Gd, InChI=1S/Gd
Compound 2: hydrogen, H2, InChI=1S/H2/h1H
Compound 3: nitrogen, N2, InChI=1S/N2/c1-2
Compound 4: graphite, C
Compound 5: oxygen, O2, InChI=1S/O2/c1-2
Compound 6: gadolinium trinitrate hexahydrate, GdH12N3O15, InChI=1S/Gd.3NO3.6H2O/c;3*2-1(3)4;;;;;;/h;;;;6*1H2/q+3;3*-1;;;;;;, purity 99%
Compound 7: 2-hydroxybenzoic acid, C7H6O3, InChI=1S/C7H6O3/c8-6-4-2-1-3-5(6)7(9)10/h1-4,8H,(H,9,10), purity 99.9%
Compound 8: 8-hydroxyquinoline, C9H7NO, InChI=1S/C9H7NO/c11-8-5-1-3-7-4-2-6-10-9(7)8/h1-6,11H, purity 99.9%
Compound 9: water, H2O, InChI=1S/H2O/h1H2, purity 99.9%
Compound 10: nitric acid, HNO3, InChI=1S/HNO3/c2-1(3)4/h(H,2,3,4), purity 98%
Compound 11: gadolinium disalicylate 8-hydroxyquinolinate, C23H16GdNO7, InChI=1S/C9H7NO.2C7H6O3.Gd/c11-8-5-1-3-7-4-2-6-10-9(7)8;2*8-6-4-2-1-3-5(6)7(9)10;/h1-6,11H;2*1-4,8H,(H,9,10);/q;;;+3/p-3

Reaction: 1 gadolinium disalicylate 8-hydroxyquinolinate + -2 2-hydroxybenzoic acid + -1 8-hydroxyquinoline + 3 nitric acid + -1 gadolinium trinitrate hexahydrate + 6 water
Property: Molar enthalpy of reaction, kJ/mol
211.54

Reaction: 1 gadolinium disalicylate 8-hydroxyquinolinate + -1 gadolinium + -8 hydrogen + -.5 nitrogen + -23 graphite + -3.5 oxygen
Property: Molar enthalpy of reaction, kJ/mol
-1890.7
