Measured thermophysical data. Thermochemistry of NaRb[B4O5(OH)4]*4H2O
Source: Thermochim. Acta, 2006, 10.1016/j.tca.2006.05.001
Compound 1: hydrogen chloride, ClH, InChI=1S/ClH/h1H
Compound 2: sodium chloride, ClNa, InChI=1S/ClH.Na/h1H;/q;+1/p-1
Compound 3: rubidium chloride, ClRb, InChI=1S/ClH.Rb/h1H;/q;+1/p-1
Compound 4: boric acid, BH3O3, InChI=1S/BH3O3/c2-1(3)4/h2-4H
Compound 5: water, H2O, InChI=1S/H2O/h1H2
Compound 6: sodium rubidium tetraborate tetrahydrate NaRb[B4O5(OH)4]*4H2O, B4H12NaO13Rb, InChI=1S/B4H4O9.Na.4H2O.Rb/c5-1(6)11-3(9)13-4(10)12-2(7)8;;;;;;/h5,7,9-10H;;4*1H2;/q-2;+1;;;;;+1, purity 99.5%

Reaction: -2 hydrogen chloride + 1 sodium chloride + 1 rubidium chloride + 4 boric acid + -1 sodium rubidium tetraborate tetrahydrate NaRb[B4O5(OH)4]*4H2O + 1 water
Property: Molar enthalpy of reaction, kJ/mol
-383.51
