Measured thermophysical data. Homotactic enthalpic pairwise interactions of four deoxynucleosides  (dU, dC, dG, dT) in dimethylformamide (DMF) + water mixtures at  298.15 K
Source: Thermochim. Acta, 2012, 10.1016/j.tca.2012.09.030
Compound 1: 2'-deoxycytidine, C9H13N3O4, InChI=1S/C9H13N3O4/c10-7-1-2-12(9(15)11-7)8-3-5(14)6(4-13)16-8/h1-2,5-6,8,13-14H,3-4H2,(H2,10,11,15)/t5?,6-,8-/m1/s1, purity 99%
Compound 2: 2'-deoxyuridine, C9H12N2O5, InChI=1S/C9H12N2O5/c12-4-6-5(13)3-8(16-6)11-2-1-7(14)10-9(11)15/h1-2,5-6,8,12-13H,3-4H2,(H,10,14,15)/t5-,6+,8+/m0/s1, purity 99%
Compound 3: 2'-deoxyguanosine, C10H13N5O4, InChI=1S/C10H13N5O4/c11-10-13-8-7(9(18)14-10)12-3-15(8)6-1-4(17)5(2-16)19-6/h3-6,16-17H,1-2H2,(H3,11,13,14,18)/t4-,5+,6+/m0/s1, purity 99%
Compound 4: thymidine, C10H14N2O5, InChI=1S/C10H14N2O5/c1-5-3-12(10(16)11-9(5)15)8-2-6(14)7(4-13)17-8/h3,6-8,13-14H,2,4H2,1H3,(H,11,15,16)/t6?,7-,8-/m1/s1, purity 99%
Compound 5: water, H2O, InChI=1S/H2O/h1H2
Compound 6: dimethylformamide, C3H7NO, InChI=1S/C3H7NO/c1-4(2)3-5/h3H,1-2H3, purity 99%

System: dimethylformamide + 2'-deoxycytidine + water; phases: Liquid
Fixed: Temperature, K = 298.15
Fixed: Pressure, kPa = 101
Property: Molar enthalpy of dilution, kJ/mol (Liquid); method: Calvet calorimetry
Initial molality of solute, mol/kg	Solvent: Mass fraction of dimethylformamide	Final molality of solute, mol/kg	Molar enthalpy of dilution, kJ/mol	uncertainty
0.00327	0.05	0.00542	1.13761	0.00959
0.00542	0.05	0.00756	1.10906	0.00937
0.00756	0.05	0.00967	1.0733	0.00909
0.00967	0.05	0.01175	1.03802	0.00882
0.01175	0.05	0.01382	1.00682	0.00857
0.01382	0.05	0.01586	0.98024	0.00837
0.01586	0.05	0.01789	0.95837	0.0082
0.01789	0.05	0.01989	0.93648	0.00803
0.01989	0.05	0.02186	0.91437	0.00786
0.02186	0.05	0.02382	0.89225	0.00769
0.02382	0.05	0.02576	0.87311	0.00754
0.02576	0.05	0.02767	0.85374	0.00739
0.02767	0.05	0.02956	0.83071	0.00721
0.02956	0.05	0.03143	0.81265	0.00707
0.03143	0.05	0.03327	0.77432	0.0079
0.03327	0.05	0.0351	0.77733	0.00877
0.0351	0.05	0.0369	0.75739	0.00664
0.0369	0.05	0.03868	0.742	0.00652
0.00327	0.1001	0.00542	0.91721	0.00788
0.00542	0.1001	0.00754	0.89839	0.00773
0.00754	0.1001	0.00965	0.87446	0.00755
0.00965	0.1001	0.01174	0.85067	0.00736
0.01174	0.1001	0.0138	0.83172	0.00722
0.0138	0.1001	0.01584	0.8123	0.00707
0.01584	0.1001	0.01786	0.79364	0.00692
0.01786	0.1001	0.01986	0.77539	0.00678
0.01986	0.1001	0.02183	0.75823	0.00665
0.02183	0.1001	0.02378	0.73946	0.0065
0.02378	0.1001	0.02572	0.72481	0.00639
0.02572	0.1001	0.02763	0.70818	0.00626
0.02763	0.1001	0.02951	0.69102	0.00613
0.02951	0.1001	0.03138	0.67589	0.00601
0.03138	0.1001	0.03322	0.65995	0.00589
0.03322	0.1001	0.03505	0.64759	0.00579
0.03505	0.1001	0.03685	0.63253	0.00568
0.03685	0.1001	0.03863	0.61763	0.00556
0.00327	0.1499	0.00542	0.72544	0.00639
0.00542	0.1499	0.00755	0.71238	0.00629
0.00755	0.1499	0.00966	0.69531	0.00616
0.00966	0.1499	0.01174	0.67867	0.00603
0.01174	0.1499	0.01381	0.66402	0.00592
0.01381	0.1499	0.01585	0.64652	0.00578
0.01585	0.1499	0.01787	0.63241	0.00567
0.01787	0.1499	0.01987	0.61833	0.00557
0.01987	0.1499	0.02185	0.60646	0.00547
0.02185	0.1499	0.0238	0.59056	0.00535
0.0238	0.1499	0.02573	0.5797	0.00527
0.02573	0.1499	0.02765	0.5682	0.00518
0.02765	0.1499	0.02953	0.55482	0.00507
0.02953	0.1499	0.0314	0.54172	0.00507
0.0314	0.1499	0.03325	0.52981	0.00488
0.03325	0.1499	0.03507	0.51955	0.0048
0.03507	0.1499	0.03687	0.50823	0.00471
0.03687	0.1499	0.03865	0.49762	0.00463
0.00327	0.2498	0.00542	0.51288	0.00475
0.00542	0.2498	0.00755	0.5033	0.00467
0.00755	0.2498	0.00966	0.49089	0.00458
0.00966	0.2498	0.01174	0.47896	0.00449
0.01174	0.2498	0.0138	0.4685	0.00441
0.0138	0.2498	0.01585	0.45786	0.00432
0.01585	0.2498	0.01787	0.44893	0.00431
0.01787	0.2498	0.01986	0.43944	0.00418
0.01986	0.2498	0.02184	0.4302	0.00411
0.02184	0.2498	0.02379	0.42052	0.00404
0.02379	0.2498	0.02573	0.41141	0.00428
0.02573	0.2498	0.02764	0.4032	0.00415
0.02764	0.2498	0.02953	0.39421	0.00407
0.02953	0.2498	0.03139	0.38609	0.00402
0.03139	0.2498	0.03324	0.37765	0.00395
0.03324	0.2498	0.03506	0.37115	0.00391
0.03506	0.2498	0.03686	0.36353	0.0039
0.03686	0.2498	0.03864	0.35565	0.00369
0.00327	0.2	0.00542	0.62743	0.00564
0.00542	0.2	0.00754	0.61319	0.00553
0.00754	0.2	0.00965	0.60144	0.00543
0.00965	0.2	0.01173	0.58564	0.00531
0.01173	0.2	0.0138	0.57383	0.00522
0.0138	0.2	0.01584	0.5594	0.00511
0.01584	0.2	0.01786	0.5483	0.00502
0.01786	0.2	0.01985	0.53666	0.00493
0.01985	0.2	0.02183	0.52651	0.00485
0.02183	0.2	0.02378	0.51207	0.00474
0.02378	0.2	0.02571	0.50356	0.00468
0.02571	0.2	0.02762	0.49325	0.0046
0.02762	0.2	0.02951	0.48146	0.00451
0.02951	0.2	0.03137	0.47122	0.00443
0.03137	0.2	0.03322	0.46091	0.00435
0.03322	0.2	0.03504	0.45232	0.00428
0.03504	0.2	0.03684	0.44117	0.00419
0.03684	0.2	0.03862	0.43194	0.00412
0.00328	0.2998	0.00543	0.44866	0.00425
0.00543	0.2998	0.00757	0.4413	0.00419
0.00757	0.2998	0.00968	0.43126	0.00412
0.00968	0.2998	0.01178	0.4212	0.00404
0.01178	0.2998	0.01384	0.41259	0.00397
0.01384	0.2998	0.01589	0.40274	0.0039
0.01589	0.2998	0.01792	0.39324	0.00382
0.01792	0.2998	0.01992	0.38587	0.00376
0.01992	0.2998	0.0219	0.37795	0.0037
0.0219	0.2998	0.02386	0.36889	0.00363
0.02386	0.2998	0.0258	0.36259	0.00358
0.0258	0.2998	0.02772	0.35515	0.00353
0.02772	0.2998	0.02961	0.34707	0.00346
0.02961	0.2998	0.03149	0.34047	0.00341
0.03149	0.2998	0.03334	0.3329	0.00335
0.03334	0.2998	0.03516	0.32616	0.0033
0.03516	0.2998	0.03697	0.32051	0.00326
0.03697	0.2998	0.03876	0.31364	0.00321

System: dimethylformamide + 2'-deoxyuridine + water; phases: Liquid
Fixed: Temperature, K = 298.15
Fixed: Pressure, kPa = 101
Property: Molar enthalpy of dilution, kJ/mol (Liquid); method: Calvet calorimetry
Initial molality of solute, mol/kg	Solvent: Mass fraction of dimethylformamide	Final molality of solute, mol/kg	Molar enthalpy of dilution, kJ/mol	uncertainty
0.00325	0.05	0.00539	0.76264	0.00668
0.00539	0.05	0.0075	0.74302	0.00653
0.0075	0.05	0.0096	0.72156	0.00636
0.0096	0.05	0.01167	0.70115	0.00621
0.01167	0.05	0.01372	0.68143	0.00605
0.01372	0.05	0.01575	0.66323	0.00591
0.01575	0.05	0.01776	0.64875	0.0058
0.01776	0.05	0.01974	0.63337	0.00568
0.01974	0.05	0.02171	0.61716	0.00556
0.02171	0.05	0.02365	0.60303	0.00545
0.02365	0.05	0.02557	0.59098	0.00535
0.02557	0.05	0.02747	0.57659	0.00524
0.02747	0.05	0.02935	0.5625	0.00513
0.02935	0.05	0.0312	0.54945	0.00503
0.0312	0.05	0.03304	0.53742	0.00494
0.03304	0.05	0.03485	0.52538	0.00485
0.03485	0.05	0.03664	0.51288	0.00475
0.03664	0.05	0.03841	0.49958	0.00465
0.00325	0.1001	0.00539	0.71575	0.00632
0.00539	0.1001	0.00751	0.69881	0.00619
0.00751	0.1001	0.00961	0.67987	0.00604
0.00961	0.1001	0.01169	0.66136	0.0059
0.01169	0.1001	0.01374	0.6454	0.00577
0.01374	0.1001	0.01577	0.63048	0.00566
0.01577	0.1001	0.01778	0.61758	0.00556
0.01778	0.1001	0.01977	0.60056	0.00543
0.01977	0.1001	0.02174	0.58865	0.00534
0.02174	0.1001	0.02368	0.57324	0.00522
0.02368	0.1001	0.02561	0.56009	0.00511
0.02561	0.1001	0.02751	0.54842	0.00502
0.02751	0.1001	0.02939	0.53679	0.00493
0.02939	0.1001	0.03124	0.52323	0.00483
0.03124	0.1001	0.03308	0.51141	0.00474
0.03308	0.1001	0.0349	0.50132	0.00466
0.0349	0.1001	0.03669	0.48802	0.00456
0.03669	0.1001	0.03846	0.47909	0.00449
0.00325	0.1499	0.00538	0.66194	0.0059
0.00538	0.1499	0.0075	0.64562	0.00578
0.0075	0.1499	0.00959	0.62693	0.00563
0.00959	0.1499	0.01167	0.60839	0.00549
0.01167	0.1499	0.01372	0.59429	0.00538
0.01372	0.1499	0.01575	0.57949	0.00526
0.01575	0.1499	0.01775	0.56644	0.00516
0.01775	0.1499	0.01974	0.55354	0.00506
0.01974	0.1499	0.0217	0.54196	0.00497
0.0217	0.1499	0.02365	0.52788	0.00486
0.02365	0.1499	0.02557	0.51738	0.00478
0.02557	0.1499	0.02746	0.50608	0.0047
0.02746	0.1499	0.02934	0.49443	0.00461
0.02934	0.1499	0.0312	0.48383	0.00452
0.0312	0.1499	0.03303	0.47309	0.00444
0.03303	0.1499	0.03484	0.46326	0.00436
0.03484	0.1499	0.03663	0.45262	0.00436
0.03663	0.1499	0.0384	0.44283	0.00421
0.00324	0.2	0.00537	0.61925	0.00557
0.00537	0.2	0.00748	0.60326	0.00545
0.00748	0.2	0.00957	0.58572	0.00531
0.00957	0.2	0.01164	0.56964	0.00519
0.01164	0.2	0.01368	0.55622	0.00508
0.01368	0.2	0.0157	0.54245	0.00498
0.0157	0.2	0.01771	0.52978	0.00488
0.01771	0.2	0.01969	0.51916	0.0048
0.01969	0.2	0.02165	0.50681	0.0047
0.02165	0.2	0.02358	0.49444	0.00461
0.02358	0.2	0.0255	0.484	0.00462
0.0255	0.2	0.02739	0.47338	0.0046
0.02739	0.2	0.02926	0.46208	0.00459
0.02926	0.2	0.03111	0.45227	0.00462
0.03111	0.2	0.03294	0.44235	0.00458
0.03294	0.2	0.03475	0.43365	0.00444
0.03475	0.2	0.03653	0.42494	0.00443
0.03653	0.2	0.0383	0.41571	0.00438
0.00325	0.2498	0.00538	0.53817	0.00494
0.00538	0.2498	0.0075	0.52244	0.00482
0.0075	0.2498	0.00959	0.50772	0.00471
0.00959	0.2498	0.01166	0.4952	0.00461
0.01166	0.2498	0.01371	0.48396	0.00452
0.01371	0.2498	0.01574	0.47141	0.00443
0.01574	0.2498	0.01775	0.46075	0.00434
0.01775	0.2498	0.01973	0.44921	0.00426
0.01973	0.2498	0.02169	0.43909	0.00418
0.02169	0.2498	0.02363	0.42736	0.00409
0.02363	0.2498	0.02555	0.41903	0.00402
0.02555	0.2498	0.02745	0.40912	0.00403
0.02745	0.2498	0.02933	0.39962	0.00397
0.02933	0.2498	0.03118	0.39099	0.00388
0.03118	0.2498	0.03301	0.37001	0.00744
0.03301	0.2498	0.03482	0.37416	0.00386
0.03482	0.2498	0.03661	0.36447	0.0036
0.03661	0.2498	0.03838	0.35462	0.00352
0.00325	0.2998	0.0054	0.53251	0.00554
0.0054	0.2998	0.00752	0.51875	0.00542
0.00752	0.2998	0.00962	0.50367	0.00531
0.00962	0.2998	0.0117	0.49105	0.00536
0.0117	0.2998	0.01375	0.48012	0.0055
0.01375	0.2998	0.01578	0.46783	0.00547
0.01578	0.2998	0.0178	0.45747	0.00559
0.0178	0.2998	0.01979	0.44629	0.00562
0.01979	0.2998	0.02176	0.43699	0.00527
0.02176	0.2998	0.0237	0.42536	0.00556
0.0237	0.2998	0.02563	0.41699	0.00578
0.02563	0.2998	0.02753	0.40769	0.00577
0.02753	0.2998	0.02941	0.3978	0.0059
0.02941	0.2998	0.03127	0.38919	0.00579
0.03127	0.2998	0.03311	0.37949	0.00599
0.03311	0.2998	0.03492	0.3721	0.0062
0.03492	0.2998	0.03672	0.36302	0.00626
0.03672	0.2998	0.03849	0.35681	0.00599

System: dimethylformamide + 2'-deoxyguanosine + water; phases: Liquid
Fixed: Temperature, K = 298.15
Fixed: Pressure, kPa = 101
Property: Molar enthalpy of dilution, kJ/mol (Liquid); method: Calvet calorimetry
Initial molality of solute, mol/kg	Solvent: Mass fraction of dimethylformamide	Final molality of solute, mol/kg	Molar enthalpy of dilution, kJ/mol	uncertainty
0.00251	0.05	0.00415	0.84823	0.00735
0.00415	0.05	0.00579	0.82255	0.00715
0.00579	0.05	0.0074	0.79706	0.00695
0.0074	0.05	0.009	0.77684	0.00679
0.009	0.05	0.01058	0.75551	0.00663
0.01058	0.05	0.01215	0.73674	0.00648
0.01215	0.05	0.0137	0.71869	0.00634
0.0137	0.05	0.01523	0.70314	0.00622
0.01523	0.05	0.01674	0.68591	0.00609
0.01674	0.05	0.01824	0.66935	0.00596
0.01824	0.05	0.01972	0.65585	0.00586
0.01972	0.05	0.02119	0.64006	0.00573
0.02119	0.05	0.02264	0.62543	0.00562
0.02264	0.05	0.02407	0.6126	0.00552
0.02407	0.05	0.02548	0.59886	0.00541
0.02548	0.05	0.02688	0.58552	0.00686
0.02688	0.05	0.02826	0.57103	0.0052
0.02826	0.05	0.02963	0.55888	0.0051
0.00251	0.1001	0.00417	0.76246	0.00668
0.00417	0.1001	0.00581	0.74117	0.00652
0.00581	0.1001	0.00743	0.71747	0.00633
0.00743	0.1001	0.00903	0.6956	0.00616
0.00903	0.1001	0.01062	0.67779	0.00603
0.01062	0.1001	0.01219	0.66087	0.00589
0.01219	0.1001	0.01374	0.64578	0.00578
0.01374	0.1001	0.01528	0.63196	0.00567
0.01528	0.1001	0.0168	0.61738	0.00556
0.0168	0.1001	0.0183	0.60209	0.00544
0.0183	0.1001	0.01979	0.58818	0.00533
0.01979	0.1001	0.02126	0.57642	0.00524
0.02126	0.1001	0.02271	0.56415	0.00515
0.02271	0.1001	0.02415	0.55186	0.00505
0.02415	0.1001	0.02557	0.53865	0.00495
0.02557	0.1001	0.02697	0.52948	0.00488
0.02697	0.1001	0.02836	0.51778	0.00479
0.02836	0.1001	0.02972	0.50561	0.00469
0.00253	0.1499	0.0042	0.69926	0.00619
0.0042	0.1499	0.00585	0.68067	0.00605
0.00585	0.1499	0.00749	0.6625	0.00591
0.00749	0.1499	0.0091	0.64036	0.00574
0.0091	0.1499	0.0107	0.62759	0.00564
0.0107	0.1499	0.01229	0.61171	0.00551
0.01229	0.1499	0.01385	0.59983	0.007
0.01385	0.1499	0.0154	0.58581	0.00531
0.0154	0.1499	0.01693	0.57356	0.00522
0.01693	0.1499	0.01845	0.55884	0.0051
0.01845	0.1499	0.01995	0.54887	0.00503
0.01995	0.1499	0.02143	0.53704	0.00494
0.02143	0.1499	0.02289	0.52446	0.00484
0.02289	0.1499	0.02434	0.51363	0.00475
0.02434	0.1499	0.02577	0.50207	0.00466
0.02577	0.1499	0.02718	0.49164	0.00458
0.02718	0.1499	0.02858	0.47819	0.00448
0.02858	0.1499	0.02996	0.47143	0.00443
0.00252	0.2	0.00418	0.65005	0.00581
0.00418	0.2	0.00582	0.63204	0.00567
0.00582	0.2	0.00744	0.61482	0.00554
0.00744	0.2	0.00905	0.5991	0.00542
0.00905	0.2	0.01064	0.58333	0.00529
0.01064	0.2	0.01221	0.56977	0.00519
0.01221	0.2	0.01377	0.55772	0.0051
0.01377	0.2	0.01531	0.54469	0.00499
0.01531	0.2	0.01683	0.53232	0.0049
0.01683	0.2	0.01834	0.52065	0.00481
0.01834	0.2	0.01983	0.50967	0.00472
0.01983	0.2	0.0213	0.49817	0.00463
0.0213	0.2	0.02276	0.48775	0.00455
0.02276	0.2	0.02419	0.47762	0.00448
0.02419	0.2	0.02562	0.46565	0.00438
0.02562	0.2	0.02702	0.45705	0.00432
0.02702	0.2	0.02841	0.44474	0.00422
0.02841	0.2	0.02978	0.43757	0.00417
0.00273	0.2498	0.00452	0.63505	0.00569
0.00452	0.2498	0.0063	0.61836	0.00557
0.0063	0.2498	0.00806	0.59997	0.00542
0.00806	0.2498	0.0098	0.57966	0.00527
0.0098	0.2498	0.01152	0.56864	0.00518
0.01152	0.2498	0.01323	0.55516	0.00508
0.01323	0.2498	0.01491	0.54425	0.00499
0.01491	0.2498	0.01658	0.53046	0.00488
0.01658	0.2498	0.01823	0.51947	0.0048
0.01823	0.2498	0.01986	0.50725	0.0047
0.01986	0.2498	0.02147	0.49776	0.00463
0.02147	0.2498	0.02307	0.48824	0.00456
0.02307	0.2498	0.02464	0.47707	0.00447
0.02464	0.2498	0.0262	0.46704	0.00439
0.0262	0.2498	0.02774	0.45651	0.00431
0.02774	0.2498	0.02926	0.44847	0.00425
0.02926	0.2498	0.03077	0.43712	0.00416
0.03077	0.2498	0.03225	0.42574	0.00407
0.0027	0.2998	0.00448	0.59371	0.00537
0.00448	0.2998	0.00624	0.5766	0.00524
0.00624	0.2998	0.00798	0.56178	0.00513
0.00798	0.2998	0.00971	0.54539	0.005
0.00971	0.2998	0.01141	0.53461	0.00492
0.01141	0.2998	0.0131	0.51972	0.0048
0.0131	0.2998	0.01477	0.50987	0.00473
0.01477	0.2998	0.01643	0.49994	0.00465
0.01643	0.2998	0.01806	0.48842	0.00456
0.01806	0.2998	0.01968	0.47763	0.00448
0.01968	0.2998	0.02127	0.46946	0.00441
0.02127	0.2998	0.02285	0.45844	0.00433
0.02285	0.2998	0.02442	0.44906	0.00425
0.02442	0.2998	0.02596	0.43681	0.00416
0.02596	0.2998	0.02749	0.42864	0.0041
0.02749	0.2998	0.02899	0.4215	0.00404
0.02899	0.2998	0.03048	0.41107	0.00396
0.03048	0.2998	0.03195	0.40211	0.00389

System: thymidine + dimethylformamide + water; phases: Liquid
Fixed: Temperature, K = 298.15
Fixed: Pressure, kPa = 101
Property: Molar enthalpy of dilution, kJ/mol (Liquid); method: Calvet calorimetry
Initial molality of solute, mol/kg	Solvent: Mass fraction of dimethylformamide	Final molality of solute, mol/kg	Molar enthalpy of dilution, kJ/mol	uncertainty
0.00223	0.05	0.00371	0.73507	0.00647
0.00371	0.05	0.00516	0.71574	0.00632
0.00516	0.05	0.0066	0.69439	0.00615
0.0066	0.05	0.00803	0.67912	0.00604
0.00803	0.05	0.00944	0.65748	0.00587
0.00944	0.05	0.01084	0.64232	0.00575
0.01084	0.05	0.01222	0.62408	0.00561
0.01222	0.05	0.01358	0.61077	0.00551
0.01358	0.05	0.01493	0.5946	0.00538
0.01493	0.05	0.01627	0.57906	0.00526
0.01627	0.05	0.01759	0.57233	0.00521
0.01759	0.05	0.0189	0.55617	0.00508
0.0189	0.05	0.02019	0.54384	0.00499
0.02019	0.05	0.02147	0.53058	0.00489
0.02147	0.05	0.02273	0.52033	0.00481
0.02273	0.05	0.02397	0.50449	0.00468
0.02397	0.05	0.02521	0.49202	0.00459
0.02521	0.05	0.02642	0.47822	0.00448
0.00221	0.1001	0.00366	0.62563	0.00562
0.00366	0.1001	0.0051	0.60855	0.00549
0.0051	0.1001	0.00652	0.59142	0.00536
0.00652	0.1001	0.00793	0.57571	0.00523
0.00793	0.1001	0.00932	0.56093	0.00512
0.00932	0.1001	0.0107	0.54647	0.00501
0.0107	0.1001	0.01207	0.53385	0.00491
0.01207	0.1001	0.01341	0.52227	0.00482
0.01341	0.1001	0.01475	0.51025	0.00473
0.01475	0.1001	0.01607	0.49742	0.00463
0.01607	0.1001	0.01737	0.48785	0.00455
0.01737	0.1001	0.01866	0.47502	0.00446
0.01866	0.1001	0.01994	0.46555	0.00438
0.01994	0.1001	0.0212	0.4545	0.0043
0.0212	0.1001	0.02245	0.44437	0.00422
0.02245	0.1001	0.02368	0.43427	0.00414
0.02368	0.1001	0.02489	0.42396	0.00406
0.02489	0.1001	0.0261	0.41214	0.00397
0.00241	0.1499	0.00399	0.60988	0.0055
0.00399	0.1499	0.00556	0.59289	0.00537
0.00556	0.1499	0.00711	0.57754	0.00525
0.00711	0.1499	0.00865	0.56434	0.00515
0.00865	0.1499	0.01017	0.55186	0.00505
0.01017	0.1499	0.01167	0.53831	0.00495
0.01167	0.1499	0.01316	0.52636	0.00485
0.01316	0.1499	0.01463	0.51305	0.00475
0.01463	0.1499	0.01609	0.50227	0.00467
0.01609	0.1499	0.01753	0.49052	0.00458
0.01753	0.1499	0.01895	0.48004	0.00449
0.01895	0.1499	0.02036	0.46944	0.00441
0.02036	0.1499	0.02175	0.45882	0.00433
0.02175	0.1499	0.02313	0.44791	0.00425
0.02313	0.1499	0.02449	0.43801	0.00417
0.02449	0.1499	0.02583	0.42902	0.0041
0.02583	0.1499	0.02716	0.41887	0.00402
0.02716	0.1499	0.02847	0.409	0.00394
0.00237	0.2	0.00394	0.52858	0.00487
0.00394	0.2	0.00548	0.51467	0.00498
0.00548	0.2	0.00701	0.5013	0.00468
0.00701	0.2	0.00853	0.48609	0.00461
0.00853	0.2	0.01003	0.47545	0.00455
0.01003	0.2	0.01151	0.46457	0.0046
0.01151	0.2	0.01298	0.45404	0.0046
0.01298	0.2	0.01443	0.44313	0.00445
0.01443	0.2	0.01587	0.4339	0.00436
0.01587	0.2	0.01729	0.42387	0.00446
0.01729	0.2	0.01869	0.41528	0.00463
0.01869	0.2	0.02008	0.40626	0.00476
0.02008	0.2	0.02145	0.39607	0.00431
0.02145	0.2	0.02281	0.38728	0.00445
0.02281	0.2	0.02415	0.37944	0.00436
0.02415	0.2	0.02547	0.36845	0.0041
0.02547	0.2	0.02678	0.36751	0.00445
0.02678	0.2	0.02807	0.35075	0.00349
0.00266	0.2498	0.00441	0.5472	0.00501
0.00441	0.2498	0.00614	0.53311	0.00491
0.00614	0.2498	0.00786	0.51972	0.0048
0.00786	0.2498	0.00955	0.5049	0.00505
0.00955	0.2498	0.01123	0.49422	0.00506
0.01123	0.2498	0.01289	0.48203	0.005
0.01289	0.2498	0.01454	0.47144	0.00508
0.01454	0.2498	0.01616	0.46079	0.00469
0.01616	0.2498	0.01777	0.45145	0.0048
0.01777	0.2498	0.01936	0.43968	0.00479
0.01936	0.2498	0.02094	0.43019	0.00478
0.02094	0.2498	0.02249	0.42189	0.0045
0.02249	0.2498	0.02403	0.41224	0.00457
0.02403	0.2498	0.02555	0.4033	0.00441
0.02555	0.2498	0.02705	0.39392	0.00453
0.02705	0.2498	0.02853	0.38601	0.00409
0.02853	0.2498	0.03	0.37797	0.00442
0.03	0.2498	0.03144	0.36985	0.00364
0.00264	0.2998	0.00438	0.49735	0.00463
0.00438	0.2998	0.0061	0.48481	0.00453
0.0061	0.2998	0.0078	0.47216	0.00443
0.0078	0.2998	0.00948	0.45806	0.00432
0.00948	0.2998	0.01115	0.44812	0.00425
0.01115	0.2998	0.0128	0.43683	0.00416
0.0128	0.2998	0.01443	0.42888	0.0041
0.01443	0.2998	0.01604	0.4191	0.00402
0.01604	0.2998	0.01764	0.40985	0.00395
0.01764	0.2998	0.01922	0.40029	0.00388
0.01922	0.2998	0.02078	0.39242	0.00382
0.02078	0.2998	0.02232	0.38397	0.00375
0.02232	0.2998	0.02385	0.37542	0.00368
0.02385	0.2998	0.02536	0.36732	0.00362
0.02536	0.2998	0.02685	0.35848	0.00355
0.02685	0.2998	0.02832	0.35108	0.0035
0.02832	0.2998	0.02977	0.34511	0.00347
0.02977	0.2998	0.03121	0.33609	0.00352

System: 2'-deoxycytidine + water; phases: Liquid
Fixed: Temperature, K = 298.15
Fixed: Pressure, kPa = 101
Property: Molar enthalpy of dilution, kJ/mol (Liquid); method: Calvet calorimetry
Initial molality of solute, mol/kg	Final molality of solute, mol/kg	Molar enthalpy of dilution, kJ/mol	uncertainty
0.00207	0.00344	0.96664	0.00826
0.00344	0.00479	0.95228	0.00815
0.00479	0.00613	0.92994	0.00798
0.00613	0.00746	0.90545	0.00779
0.00746	0.00877	0.88504	0.00763
0.00877	0.01006	0.86476	0.00747
0.01006	0.01134	0.8457	0.00733
0.01134	0.01261	0.82574	0.00717
0.01261	0.01387	0.80776	0.00703
0.01387	0.01511	0.78619	0.00687
0.01511	0.01634	0.77002	0.00674
0.01634	0.01755	0.75132	0.0066
0.01755	0.01875	0.73373	0.00646
0.01875	0.01993	0.71531	0.00632
0.01993	0.02111	0.69719	0.00618
0.02111	0.02226	0.68194	0.00606
0.02226	0.02341	0.66715	0.00594
0.02341	0.02454	0.65421	0.00584

System: 2'-deoxyuridine + water; phases: Liquid
Fixed: Temperature, K = 298.15
Fixed: Pressure, kPa = 101
Property: Molar enthalpy of dilution, kJ/mol (Liquid); method: Calvet calorimetry
Initial molality of solute, mol/kg	Final molality of solute, mol/kg	Molar enthalpy of dilution, kJ/mol	uncertainty
0.00281	0.00467	0.78142	0.00683
0.00467	0.0065	0.75811	0.00665
0.0065	0.00831	0.73743	0.00649
0.00831	0.01011	0.71823	0.00634
0.01011	0.01188	0.7016	0.00621
0.01188	0.01364	0.68372	0.00607
0.01364	0.01538	0.66932	0.00596
0.01538	0.0171	0.65376	0.00584
0.0171	0.0188	0.63831	0.00572
0.0188	0.02049	0.62419	0.00561
0.02049	0.02215	0.61058	0.00551
0.02215	0.02379	0.59795	0.00541
0.02379	0.02542	0.58274	0.00529
0.02542	0.02703	0.57031	0.00519
0.02703	0.02862	0.55678	0.00509
0.02862	0.03019	0.54587	0.005
0.03019	0.03174	0.53301	0.0049
0.03174	0.03327	0.52049	0.00481

System: 2'-deoxyguanosine + water; phases: Liquid
Fixed: Temperature, K = 298.15
Fixed: Pressure, kPa = 101
Property: Molar enthalpy of dilution, kJ/mol (Liquid); method: Calvet calorimetry
Initial molality of solute, mol/kg	Final molality of solute, mol/kg	Molar enthalpy of dilution, kJ/mol	uncertainty
0.00199	0.00329	0.75376	0.00661
0.00329	0.00459	0.73072	0.00644
0.00459	0.00587	0.71258	0.0063
0.00587	0.00713	0.69605	0.00617
0.00713	0.00839	0.67992	0.00604
0.00839	0.00963	0.66276	0.00591
0.00963	0.01086	0.64877	0.0058
0.01086	0.01207	0.63369	0.00568
0.01207	0.01327	0.61944	0.00557
0.01327	0.01446	0.60265	0.00544
0.01446	0.01563	0.5919	0.00538
0.01563	0.0168	0.57762	0.00527
0.0168	0.01794	0.56389	0.00522
0.01794	0.01908	0.5513	0.0053
0.01908	0.0202	0.53858	0.00516
0.0202	0.02131	0.52707	0.00486
0.02131	0.0224	0.51504	0.00488
0.0224	0.02348	0.50339	0.00498

System: thymidine + water; phases: Liquid
Fixed: Temperature, K = 298.15
Fixed: Pressure, kPa = 101
Property: Molar enthalpy of dilution, kJ/mol (Liquid); method: Calvet calorimetry
Initial molality of solute, mol/kg	Final molality of solute, mol/kg	Molar enthalpy of dilution, kJ/mol	uncertainty
0.00198	0.00328	0.78515	0.00686
0.00328	0.00457	0.76652	0.00671
0.00457	0.00585	0.7453	0.00655
0.00585	0.00711	0.72464	0.00639
0.00711	0.00836	0.70247	0.00622
0.00836	0.0096	0.68789	0.0061
0.0096	0.01082	0.67053	0.00597
0.01082	0.01204	0.65367	0.00584
0.01204	0.01323	0.63647	0.00737
0.01323	0.01442	0.62093	0.00559
0.01442	0.01559	0.60899	0.00549
0.01559	0.01675	0.59473	0.00538
0.01675	0.01789	0.57863	0.00526
0.01789	0.01902	0.55981	0.00511
0.01902	0.02014	0.55759	0.00509
0.02014	0.02124	0.53977	0.00496
0.02124	0.02233	0.52644	0.00485
0.02233	0.02341	0.50511	0.00469
