Measured thermophysical data. Thermodynamic properties and phase transition of monoclinic terbium orthophosphate
Source: Thermochim. Acta, 2016, 10.1016/j.tca.2016.08.008
Compound 1: terbium orthophosphate, O4PTb, InChI=1S/H3O4P.Tb/c1-5(2,3)4;/h(H3,1,2,3,4);/q;+3/p-3

System: terbium orthophosphate; phases: Crystal 2, Crystal 1, Air at 1 atmosphere
Property: Triple point temperature, K (Crystal 2); method: DSC
Triple point temperature, K	uncertainty
1643	6

System: terbium orthophosphate; phases: Metastable crystal
Property: Mass density, kg/m3 (Metastable crystal); method: X-ray diffraction
Temperature, K	Pressure, kPa	Mass density, kg/m3	uncertainty
298	101.325	6088	18

System: terbium orthophosphate; phases: Metastable crystal
Fixed: Pressure, kPa = 101.325
Property: Molar heat capacity at constant pressure, J/K/mol (Metastable crystal); method: Vacuum adiabatic calorimetry
Temperature, K	Molar heat capacity at constant pressure, J/K/mol	uncertainty
83.73	41.32	0.5
85.78	42.39	0.52
87.83	43.95	0.54
89.89	45.03	0.55
91.94	46.03	0.58
94	47.04	0.59
96.06	48.09	0.6
98.12	49.05	0.61
100.18	50.06	0.63
102.86	51.16	0.64
106.14	52.71	0.66
109.43	54.24	0.68
112.71	55.74	0.69
116.01	57.18	0.71
119.3	58.57	0.73
122.6	59.95	0.74
125.9	61.32	0.76
129.2	62.65	0.77
132.49	63.94	0.79
135.79	65.24	0.81
139.09	66.54	0.82
142.39	67.77	0.84
145.69	69.04	0.85
148.98	70.3	0.87
152.28	71.55	0.88
155.57	72.72	0.89
158.87	73.84	0.91
162.16	74.93	0.92
165.45	76.02	0.93
168.73	77.12	0.95
172.02	78.29	0.96
175.28	79.23	0.97
178.56	80.19	0.98
181.84	81.29	1
185.11	82.39	1.01
188.38	83.45	1.02
191.65	84.37	1.03
194.92	85.28	1.04
198.18	86.29	1.06
201.43	87.36	1.07
205.1	88.44	1.08
209.15	89.46	1.09
213.21	90.54	1.11
217.26	91.68	1.12
221.31	92.89	1.13
225.34	93.96	1.15
229.34	95.06	1.16
233.27	95.82	1.17
237.28	96.8	1.18
241.28	97.76	1.19
245.26	98.58	1.2
249.23	99.5	1.21
253.16	100.4	1.2
257.1	101.2	1.2
260.99	102.1	1.2
264.86	102.9	1.3
268.76	103.8	1.3
272.6	104.6	1.3
276.41	105.3	1.3
280.2	105.9	1.3
283.96	106.6	1.3
287.7	107.3	1.3
291.41	108	1.3
294.82	108.6	1.3
298.47	109.3	1.3
302.47	110	1.3
307.42	110.9	1.3
313.46	112.2	1.4
320.4	113.3	1.4
327.27	114.3	1.4
334.07	115.4	1.4
340.79	116.6	1.4
347.44	117.5	1.4
8.48	0.404	0.027
9.05	0.511	0.033
9.71	0.655	0.042
10.37	0.779	0.049
11.05	0.934	0.058
11.74	1.116	0.069
12.45	1.328	0.082
13.16	1.551	0.095
13.89	1.784	0.109
14.62	2.037	0.124
15.36	2.349	0.143
16.12	2.666	0.162
16.88	2.985	0.181
17.64	3.316	0.201
18.41	3.69	0.223
19.18	4.058	0.245
19.96	4.44	0.268
21.2	5.035	0.106
22.67	5.753	0.12
24.17	6.522	0.135
25.69	7.302	0.15
27.22	8.099	0.166
28.76	8.951	0.183
30.31	9.817	0.202
31.87	10.74	0.22
33.44	11.64	0.24
35.02	12.43	0.25
36.6	13.44	0.27
38.18	14.4	0.29
39.77	15.33	0.31
41.38	16.26	0.2
42.98	17.22	0.21
44.6	18.17	0.23
46.24	19.19	0.24
47.86	20.2	0.25
49.48	21.22	0.26
51.11	22.24	0.27
52.74	23.26	0.29
54.37	24.23	0.3
56	25.23	0.31
57.64	26.25	0.32
59.28	27.25	0.33
60.93	28.25	0.35
62.57	29.31	0.36
64.22	30.35	0.37
65.88	31.35	0.38
67.53	32.33	0.4
69.19	33.27	0.41
71.05	34.29	0.42
73.13	35.52	0.43
75.2	36.74	0.45
77.26	38.04	0.46
79.33	39.29	0.48
81.4	40.39	0.49
83.47	41.31	0.5
85.54	42.27	0.52
87.61	43.75	0.53
89.69	44.86	0.55
91.76	45.8	0.58
93.84	46.75	0.59
95.93	47.75	0.6
98.01	48.74	0.61
100.09	49.85	0.62
102.79	51.27	0.64

System: terbium orthophosphate; phases: Metastable crystal
Fixed: Pressure, kPa = 101.325
Property: Molar heat capacity at constant pressure, J/K/mol (Metastable crystal); method: Vacuum adiabatic calorimetry
Temperature, K	Molar heat capacity at constant pressure, J/K/mol	uncertainty
7	0.2233	0.0142
8	0.3348	0.0192
9	0.4742	0.0258
10	0.6496	0.0345
12	1.115	0.057
14	1.738	0.089
16	2.51	0.127
18	3.404	0.172
20	4.388	0.221
25	7.043	0.144
30	9.779	0.2
35	12.55	0.26
40	15.41	0.31
45	18.37	0.19
50	21.44	0.22
55	24.56	0.25
60	27.69	0.29
70	33.8	0.35
80	39.56	0.4
90	44.91	0.48
100	49.89	0.53
110	54.53	0.57
120	58.89	0.62
130	63	0.66
140	66.91	0.7
150	70.62	0.73
160	74.17	0.77
170	77.56	0.8
180	80.8	0.83
190	83.89	0.86
200	86.85	0.89
210	89.66	0.92
220	92.36	0.95
230	94.92	0.97
240	97.37	1
250	99.7	1.02
260	101.9	1
270	104	1.1
280	106	1.1
290	107.9	1.1
300	109.8	1.1
310	111.5	1.1
320	113.1	1.2
325	113.9	1.2

System: terbium orthophosphate; phases: Metastable crystal
Fixed: Pressure, kPa = 101.325
Property: Molar entropy, J/K/mol (Metastable crystal); method: Vacuum adiabatic calorimetry
Temperature, K	Molar entropy, J/K/mol	uncertainty
7	0.0744	0.013
8	0.1113	0.015
9	0.1586	0.0181
10	0.2174	0.0224
12	0.3747	0.0348
14	0.5915	0.0528
16	0.8724	0.0765
18	1.219	0.106
20	1.627	0.141
25	2.889	0.132
30	4.414	0.205
35	6.129	0.281
40	7.99	0.365
45	9.975	0.335
50	12.07	0.4
55	14.26	0.48
60	16.53	0.55
70	21.26	0.71
80	26.15	0.87
90	31.12	1.06
100	36.12	1.22
110	41.09	1.38
120	46.02	1.54
130	50.9	1.7
140	55.72	1.86
150	60.46	2.01
160	65.13	2.17
170	69.73	2.32
180	74.26	2.47
190	78.71	2.61
200	83.09	2.76
210	87.39	2.9
220	91.63	3.04
230	95.79	3.18
240	99.88	3.31
250	103.9	3.4
260	107.9	3.6
270	111.7	3.7
280	115.6	3.8
290	119.3	4
300	123	4.1
310	126.6	4.2
320	130.2	4.3
325	132	4.4

System: terbium orthophosphate; phases: Metastable crystal
Fixed: Pressure, kPa = 101.325
Property: Molar enthalpy, kJ/mol (Metastable crystal); method: Vacuum adiabatic calorimetry
Temperature, K	Molar enthalpy, kJ/mol	uncertainty
7	0.0003908	5.71e-05
8	0.0006698	7.08e-05
9	0.001074	9.1e-05
10	0.001636	0.00012
12	0.003381	0.000211
14	0.006214	0.000361
16	0.01044	0.00059
18	0.01635	0.00091
20	0.02413	0.00133
25	0.05264	0.00132
30	0.09469	0.00248
35	0.1505	0.0038
40	0.2203	0.0055
45	0.3048	0.0049
50	0.4043	0.0064
55	0.5193	0.0081
60	0.6499	0.0101
70	0.9575	0.0148
80	1.325	0.02
90	1.747	0.03
100	2.222	0.037
110	2.744	0.045
120	3.311	0.053
130	3.921	0.063
140	4.57	0.072
150	5.258	0.083
160	5.982	0.094
170	6.741	0.105
180	7.533	0.117
190	8.357	0.13
200	9.21	0.142
210	10.093	0.156
220	11.003	0.17
230	11.94	0.184
240	12.901	0.198
250	13.887	0.213
260	14.895	0.228
270	15.925	0.244
280	16.975	0.26
290	18.045	0.276
300	19.134	0.292
310	20.24	0.309
320	21.363	0.326
325	21.931	0.335

System: terbium orthophosphate; phases: Metastable crystal
Fixed: Pressure, kPa = 101.325
Property: Molar heat capacity at constant pressure, J/K/mol (Metastable crystal); method: Small sample (50 mg) DSC
Temperature, K	Molar heat capacity at constant pressure, J/K/mol	uncertainty
433.9	128.2	3.1
438.9	128.4	3.1
443.9	128.3	3.1
448.9	128.3	3.1
453.9	128.3	3.1
458.9	128.5	3.1
463.9	128.6	3.2
468.9	129	3.2
473.9	129.1	3.2
478.9	129.3	3.2
483.9	129.7	3.2
488.9	130.2	3.2
493.9	130.7	3.2
498.9	131.4	3.2
503.9	131.7	3.2
508.9	132.1	3.2
513.9	132.7	3.3
518.9	132.9	3.3
523.9	133.1	3.3
528.9	133.7	3.3
533.9	134.6	3.3
538.9	135.3	3.3
543.9	135.7	3.3
548.9	136.1	3.3
553.9	136.5	3.3
558.9	136.9	3.4
563.9	137.2	3.4
568.9	137.5	3.4
573.9	138	3.4
578.9	138.3	3.4
583.9	138.2	3.4
588.9	138.1	3.4
593.9	138.4	3.4
598.9	138.7	3.4
603.9	138.6	3.4
608.9	138.7	3.4
613.9	138.4	3.4
618.9	138.5	3.4
623.9	138.6	3.4
628.9	138.4	3.4
633.9	136.7	3.3
638.9	135.8	3.3
643.9	135.7	3.3
648.9	135.9	3.3
653.9	136.3	3.3
658.9	136.4	3.3
663.9	136.8	3.4
668.9	136.7	3.3
673.9	136.7	3.3
678.9	136.8	3.4
683.9	136.8	3.4
688.9	136.9	3.4
693.9	137.1	3.4
698.9	137.5	3.4
703.9	138	3.4
708.9	138.4	3.4
713.9	138.9	3.4
718.9	139.3	3.4
723.9	139.1	3.4
728.9	139.3	3.4
733.9	139.2	3.4
738.9	139.5	3.4
743.9	139.8	3.4
748.9	140.3	3.4
753.9	140.6	3.4
758.9	141.1	3.5
763.9	141.3	3.5
768.9	141.7	3.5
773.9	141.7	3.5
778.9	141.7	3.5
783.9	141.5	3.5
788.9	141.5	3.5
793.9	141.8	3.5
798.9	142.4	3.5
803.9	142.5	3.5
808.9	142.6	3.5
813.9	142.7	3.5
818.9	143.1	3.5
823.9	143	3.5
828.9	142.9	3.5
833.9	143.1	3.5
838.9	142.9	3.5
843.9	143.2	3.5
848.9	142.9	3.5
853.9	142.8	3.5
858.9	142.7	3.5
863.9	142.4	3.5
868.9	142	3.5
873.9	141.5	3.5
878.9	141.9	3.5
883.9	141.8	3.5
888.9	141.7	3.5
893.9	141.6	3.5
898.9	141.8	3.5
903.9	141.5	3.5
908.9	141.4	3.5
913.9	141.7	3.5
918.9	141.8	3.5
923.9	142.1	3.5
928.9	142.7	3.5
933.9	143	3.5
938.9	142.9	3.5
943.9	142.4	3.5
948.9	142.6	3.5
953.9	142.6	3.5
958.9	143.1	3.5
963.9	142.7	3.5
968.9	142.8	3.5
973.9	142.8	3.5
978.9	142.6	3.5
983.9	142.5	3.5
988.9	142.5	3.5
993.9	142.6	3.5
998.9	142.9	3.5
1003.9	143	3.5
1008.9	143.3	3.5

System: terbium orthophosphate; phases: Metastable crystal
Fixed: Pressure, kPa = 101.325
Property: Molar heat capacity at constant pressure, J/K/mol (Metastable crystal); method: Small sample (50 mg) DSC
Temperature, K	Molar heat capacity at constant pressure, J/K/mol	uncertainty
340	116.3	3.9
360	119	3.9
380	121.5	4
400	123.7	4.1
420	125.6	4.2
440	127.4	4.2
460	129	4.3
480	130.4	4.3
500	131.7	4.4
520	132.9	4.4
540	134	4.4
560	135	4.5
580	135.8	4.5
600	136.7	4.5
620	137.4	4.6
640	138.1	4.6
660	138.7	4.6
680	139.3	4.6
700	139.9	4.6
720	140.4	4.7
740	140.8	4.7
760	141.2	4.7
780	141.6	4.7
800	142	4.7
820	142.4	4.7
840	142.7	4.7
860	143	4.7
880	143.3	4.8
900	143.6	4.8
920	143.8	4.8
940	144	4.8
960	144.3	4.8
980	144.5	4.8
1000	144.7	4.8
1009	144.8	4.8

System: terbium orthophosphate; phases: Metastable crystal
Fixed: Pressure, kPa = 101.325
Property: Molar entropy, J/K/mol (Metastable crystal); method: Small sample (50 mg) DSC
Temperature, K	Molar entropy, J/K/mol	uncertainty
340	137.1	10.7
360	143.9	11.2
380	150.4	11.7
400	156.7	12.2
420	162.7	12.7
440	168.6	13.1
460	174.3	13.6
480	179.8	14
500	185.2	14.4
520	190.4	14.8
540	195.4	15.2
560	200.3	15.6
580	205.1	16
600	209.7	16.3
620	214.2	16.7
640	218.6	17
660	222.8	17.4
680	227	17.7
700	231	18
720	235	18.3
740	238.8	18.6
760	242.6	18.9
780	246.2	19.2
800	249.8	19.5
820	253.3	19.7
840	256.8	20
860	260.1	20.3
880	263.4	20.5
900	266.7	20.8
920	269.8	21
940	272.9	21.3
960	275.9	21.5
980	278.9	21.7
1000	281.8	22
1009	283.1	22.1

System: terbium orthophosphate; phases: Metastable crystal
Fixed: Pressure, kPa = 101.325
Property: Molar enthalpy, kJ/mol (Metastable crystal); method: Small sample (50 mg) DSC
Temperature, K	Molar enthalpy, kJ/mol	uncertainty
340	23.66	1.23
360	26.01	1.35
380	28.42	1.48
400	30.87	1.6
420	33.36	1.73
440	35.89	1.86
460	38.46	2
480	41.05	2.13
500	43.67	2.27
520	46.32	2.41
540	48.99	2.55
560	51.68	2.69
580	54.38	2.83
600	57.11	2.97
620	59.85	3.11
640	62.6	3.25
660	65.37	3.4
680	68.15	3.54
700	70.94	3.69
720	73.75	3.83
740	76.56	3.98
760	79.38	4.12
780	82.21	4.27
800	85.04	4.42
820	87.89	4.57
840	90.74	4.71
860	93.6	4.86
880	96.46	5.01
900	99.33	5.16
920	102.2	5.3
940	105.1	5.5
960	108	5.6
980	110.8	5.8
1000	113.7	5.9
1009	115	6
