Measured thermophysical data. Vapor pressure, kinetics and enthalpy of sublimation of bis(2,2,6,6-tetramethyl-3,5-heptanedionato)copper(II)
Source: Thermochim. Acta, 2009, 10.1016/j.tca.2009.05.014
Compound 1: bis(2,2,6,6-tetramethyl-3,5-heptanedionato)copper(II), C22H38CuO4, InChI=1S/2C11H20O2.Cu/c2*1-10(2,3)8(12)7-9(13)11(4,5)6;/h2*7,12H,1-6H3;/q;;+2/p-2/b2*8-7-;, purity 98%

System: bis(2,2,6,6-tetramethyl-3,5-heptanedionato)copper(II); phases: Crystal, Gas
Property: Vapor or sublimation pressure, kPa (Crystal); method: Rate of evaporation
Temperature, K	Vapor or sublimation pressure, kPa	uncertainty
375	4e-05	4e-06
385	7.2e-05	7e-06
395	0.000151	1.5e-05
404	0.000343	3.4e-05
415	0.00072	7.2e-05
425	0.001456	0.000146
435	0.002373	0.000237
