Measured thermophysical data. Tunable properties of novel tetra-functional fluorene-based benzoxazines from mixed amines: Synthesis, characterization andcuring kinetics
Source: Thermochim. Acta, 2016, 10.1016/j.tca.2016.03.027
Compound 1: 3,8-diphenyl-12,12-bis(3-phenyl-3,4-dihydro-2H-benzo[e][1,3]oxazin-6-yl)-3,4,7,8,9,12-hexahydro-2H-fluoreno[3,2-e:6,7-e']bis([1,3]oxazine), C57H46N4O4, InChI=1S/C57H46N4O4/c1-5-13-45(14-6-1)58-31-39-25-43(21-23-53(39)62-35-58)57(44-22-24-54-40(26-44)32-59(36-63-54)46-15-7-2-8-16-46)51-29-55-41(33-60(37-64-55)47-17-9-3-10-18-47)27-49(51)50-28-42-34-61(48-19-11-4-12-20-48)38-65-56(42)30-52(50)57/h1-30H,31-38H2

System: 3,8-diphenyl-12,12-bis(3-phenyl-3,4-dihydro-2H-benzo[e][1,3]oxazin-6-yl)-3,4,7,8,9,12-hexahydro-2H-fluoreno[3,2-e:6,7-e']bis([1,3]oxazine); phases: Crystal, Liquid, Air at 1 atmosphere
Property: Normal melting temperature, K (Crystal); method: DTA
Normal melting temperature, K	uncertainty
433.15	1
