Measured thermophysical data. The study of excess molar volumes and related properties for binary mixtures containing benzyl alcohol and 1,3-dichloro-2-propanol with vinyl acetate, ethyl acetate and t-butyl acetate at T = 293.15 to 313.15 K and P = 0.087 MPa
Source: Thermochim. Acta, 2016, 10.1016/j.tca.2016.04.001
Compound 1: benzenemethanol, C7H8O, InChI=1S/C7H8O/c8-6-7-4-2-1-3-5-7/h1-5,8H,6H2, purity 99%
Compound 2: 1,3-dichloro-2-propanol, C3H6Cl2O, InChI=1S/C3H6Cl2O/c4-1-3(6)2-5/h3,6H,1-2H2, purity 99%
Compound 3: vinyl acetate, C4H6O2, InChI=1S/C4H6O2/c1-3-6-4(2)5/h3H,1H2,2H3, purity 99%
Compound 4: ethyl acetate, C4H8O2, InChI=1S/C4H8O2/c1-3-6-4(2)5/h3H2,1-2H3, purity 99%
Compound 5: 1,1-dimethylethyl ethanoate, C6H12O2, InChI=1S/C6H12O2/c1-5(7)8-6(2,3)4/h1-4H3, purity 99%

System: benzenemethanol; phases: Liquid
Fixed: Pressure, kPa = 87
Property: Mass density, kg/m3 (Liquid); method: Vibrating tube method
Temperature, K	Mass density, kg/m3	uncertainty
293.15	1045.21	1.03
298.15	1041.38	1.03
303.15	1037.5	1.03
308.15	1033.63	1.03
313.15	1029.71	1.03

System: 1,3-dichloro-2-propanol; phases: Liquid
Fixed: Pressure, kPa = 87
Property: Mass density, kg/m3 (Liquid); method: Vibrating tube method
Temperature, K	Mass density, kg/m3	uncertainty
293.15	1362.66	1.12
298.15	1356.74	1.12
303.15	1350.72	1.12
308.15	1344.71	1.11
313.15	1338.65	1.11

System: benzenemethanol + vinyl acetate; phases: Liquid
Fixed: Pressure, kPa = 87
Property: Mass density, kg/m3 (Liquid); method: Vibrating tube method
Temperature, K	Mole fraction of benzenemethanol	Mass density, kg/m3	uncertainty
293.15	0	932.41	1.03
293.15	0.0504	940.17	1.38
293.15	0.0954	947.04	1.33
293.15	0.1987	961.08	1.3
293.15	0.2999	974.18	1.27
293.15	0.3947	985.63	1.24
293.15	0.5005	997.61	1.22
293.15	0.5991	1008.19	1.21
293.15	0.7047	1019.12	1.19
293.15	0.8037	1028.4	1.16
293.15	0.9067	1037.37	1.15
293.15	1	1045.21	1.03
298.15	0	926.01	1.03
298.15	0.0504	934.2	1.41
298.15	0.0954	941.4	1.33
298.15	0.1987	955.4	1.31
298.15	0.2999	968.88	1.28
298.15	0.3947	980.52	1.25
298.15	0.5005	992.77	1.23
298.15	0.5991	1003.62	1.21
298.15	0.7047	1014.77	1.19
298.15	0.8037	1024.23	1.17
298.15	0.9067	1033.39	1.16
298.15	1	1041.38	1.03
303.15	0	919.56	1.03
303.15	0.0504	928.1	1.45
303.15	0.0954	935.7	1.34
303.15	0.1987	949.66	1.31
303.15	0.2999	963.51	1.29
303.15	0.3947	975.38	1.26
303.15	0.5005	987.91	1.24
303.15	0.5991	998.97	1.22
303.15	0.7047	1010.36	1.2
303.15	0.8037	1020.02	1.17
303.15	0.9067	1029.37	1.16
303.15	1	1037.5	1.03
308.15	0	913.07	1.03
308.15	0.0504	922	1.48
308.15	0.0954	930	1.35
308.15	0.1987	943.89	1.32
308.15	0.2999	958.06	1.31
308.15	0.3947	970.21	1.27
308.15	0.5005	983.01	1.25
308.15	0.5991	994.32	1.23
308.15	0.7047	1005.95	1.21
308.15	0.8037	1015.85	1.18
308.15	0.9067	1025.33	1.16
308.15	1	1033.63	1.03
313.15	0	906.52	1.03
313.15	0.0504	915.06	1.45
313.15	0.0954	922.62	1.39
313.15	0.1987	938.08	1.35
313.15	0.2999	952.57	1.32
313.15	0.3947	965	1.28
313.15	0.5005	978.09	1.26
313.15	0.5991	989.64	1.24
313.15	0.7047	1001.51	1.21
313.15	0.8037	1011.55	1.18
313.15	0.9067	1021.27	1.17
313.15	1	1029.71	1.03

System: benzenemethanol + ethyl acetate; phases: Liquid
Fixed: Pressure, kPa = 87
Property: Mass density, kg/m3 (Liquid); method: Vibrating tube method
Temperature, K	Mole fraction of benzenemethanol	Mass density, kg/m3	uncertainty
293.15	0	900.71	1.03
293.15	0.0452	909.04	1.49
293.15	0.1047	919.57	1.46
293.15	0.2008	935.91	1.43
293.15	0.3043	952.73	1.4
293.15	0.4	967.5	1.37
293.15	0.5017	982.41	1.34
293.15	0.6006	996.27	1.31
293.15	0.7013	1009.5	1.29
293.15	0.8074	1023	1.27
293.15	0.9042	1034.66	1.25
293.15	0.9537	1040.08	1.22
293.15	1	1045.21	1.03
298.15	0	894.65	1.03
298.15	0.0452	903.11	1.5
298.15	0.1047	913.81	1.47
298.15	0.2008	930.43	1.44
298.15	0.3043	947.53	1.41
298.15	0.4	962.53	1.38
298.15	0.5017	977.66	1.35
298.15	0.6006	991.73	1.32
298.15	0.7013	1005.14	1.29
298.15	0.8074	1018.86	1.28
298.15	0.9042	1030.64	1.25
298.15	0.9537	1036.17	1.23
298.15	1	1041.38	1.03
303.15	0	888.52	1.03
303.15	0.0452	897.12	1.52
303.15	0.1047	908.02	1.48
303.15	0.2008	924.91	1.45
303.15	0.3043	942.29	1.42
303.15	0.4	957.53	1.38
303.15	0.5017	972.89	1.36
303.15	0.6006	987.15	1.32
303.15	0.7013	1000.77	1.3
303.15	0.8074	1014.67	1.28
303.15	0.9042	1026.67	1.26
303.15	0.9537	1032.23	1.23
303.15	1	1037.5	1.03
308.15	0	882.35	1.03
308.15	0.0452	891.1	1.53
308.15	0.1047	902.18	1.5
308.15	0.2008	919.36	1.47
308.15	0.3043	937.02	1.43
308.15	0.4	952.49	1.39
308.15	0.5017	968.08	1.36
308.15	0.6006	982.56	1.33
308.15	0.7013	996.37	1.31
308.15	0.8074	1010.47	1.29
308.15	0.9042	1022.63	1.26
308.15	0.9537	1028.28	1.24
308.15	1	1033.63	1.03
313.15	0	876.12	1.03
313.15	0.0452	885.03	1.55
313.15	0.1047	896.3	1.51
313.15	0.2008	913.77	1.48
313.15	0.3043	931.72	1.44
313.15	0.4	947.43	1.4
313.15	0.5017	963.26	1.37
313.15	0.6006	977.95	1.34
313.15	0.7013	991.97	1.31
313.15	0.8074	1006.26	1.29
313.15	0.9042	1018.59	1.27
313.15	0.9537	1024.32	1.24
313.15	1	1029.71	1.03

System: benzenemethanol + 1,1-dimethylethyl ethanoate; phases: Liquid
Fixed: Pressure, kPa = 87
Property: Mass density, kg/m3 (Liquid); method: Vibrating tube method
Temperature, K	Mole fraction of benzenemethanol	Mass density, kg/m3	uncertainty
293.15	0	866.95	1.03
293.15	0.047	874.64	1.43
293.15	0.0925	882.2	1.43
293.15	0.2017	900.32	1.44
293.15	0.3001	916.98	1.45
293.15	0.4	934.1	1.46
293.15	0.4999	951.7	1.48
293.15	0.6002	969.63	1.49
293.15	0.7027	988.3	1.51
293.15	0.7996	1006.55	1.53
293.15	0.9059	1026.81	1.54
293.15	0.9528	1035.96	1.56
293.15	1	1045.21	1.03
298.15	0	861.41	1.03
298.15	0.047	869.18	1.43
298.15	0.0925	876.83	1.44
298.15	0.2017	895.16	1.44
298.15	0.3001	912	1.46
298.15	0.4	929.3	1.47
298.15	0.4999	947.08	1.49
298.15	0.6002	965.17	1.5
298.15	0.7027	984.07	1.52
298.15	0.7996	1002.4	1.54
298.15	0.9059	1022.83	1.55
298.15	0.9528	1032.06	1.57
298.15	1	1041.38	1.03
303.15	0	855.79	1.03
303.15	0.047	863.68	1.44
303.15	0.0925	871.43	1.44
303.15	0.2017	889.77	1.45
303.15	0.3001	906.99	1.47
303.15	0.4	924.47	1.48
303.15	0.4999	942.4	1.49
303.15	0.6002	960.68	1.51
303.15	0.7027	979.75	1.53
303.15	0.7996	998.24	1.54
303.15	0.9059	1018.83	1.56
303.15	0.9528	1028.11	1.57
303.15	1	1037.5	1.03
308.15	0	850.17	1.03
308.15	0.047	858.15	1.45
308.15	0.0925	865.99	1.46
308.15	0.2017	884.75	1.46
308.15	0.3001	901.96	1.47
308.15	0.4	919.62	1.49
308.15	0.4999	937.73	1.5
308.15	0.6002	956.18	1.52
308.15	0.7027	975.42	1.53
308.15	0.7996	994.06	1.55
308.15	0.9059	1014.82	1.56
308.15	0.9528	1024.17	1.58
308.15	1	1033.63	1.03
313.15	0	844.49	1.03
313.15	0.047	852.61	1.46
313.15	0.0925	860.52	1.46
313.15	0.2017	879.5	1.47
313.15	0.3001	896.9	1.48
313.15	0.4	914.74	1.49
313.15	0.4999	933.04	1.51
313.15	0.6002	951.66	1.52
313.15	0.7027	971.06	1.54
313.15	0.7996	989.87	1.56
313.15	0.9059	1010.79	1.57
313.15	0.9528	1020.21	1.58
313.15	1	1029.71	1.03

System: 1,3-dichloro-2-propanol + vinyl acetate; phases: Liquid
Fixed: Pressure, kPa = 87
Property: Mass density, kg/m3 (Liquid); method: Vibrating tube method
Temperature, K	Mole fraction of 1,3-dichloro-2-propanol	Mass density, kg/m3	uncertainty
293.15	0	932.41	1.03
293.15	0.0481	954.28	2.91
293.15	0.1022	978.78	2.88
293.15	0.2021	1023.42	2.86
293.15	0.2995	1066.61	2.84
293.15	0.3953	1108.66	2.82
293.15	0.5002	1154.23	2.8
293.15	0.6003	1197.18	2.77
293.15	0.6999	1239.3	2.74
293.15	0.8007	1281.45	2.72
293.15	0.9014	1322.94	2.69
293.15	0.9524	1343.43	2.66
293.15	1	1362.66	1.12
298.15	0	926.01	1.03
298.15	0.0481	947.93	2.92
298.15	0.1022	972.47	2.89
298.15	0.2021	1017.18	2.87
298.15	0.2995	1060.46	2.85
298.15	0.3953	1102.54	2.82
298.15	0.5002	1148.18	2.8
298.15	0.6003	1191.17	2.77
298.15	0.6999	1233.34	2.75
298.15	0.8007	1275.5	2.72
298.15	0.9014	1317	2.69
298.15	0.9524	1337.48	2.66
298.15	1	1356.74	1.12
303.15	0	919.56	1.03
303.15	0.0481	941.53	2.92
303.15	0.1022	966.08	2.89
303.15	0.2021	1010.91	2.87
303.15	0.2995	1054.25	2.85
303.15	0.3953	1096.39	2.83
303.15	0.5002	1142.09	2.8
303.15	0.6003	1185.12	2.77
303.15	0.6999	1227.29	2.75
303.15	0.8007	1269.5	2.72
303.15	0.9014	1311	2.69
303.15	0.9524	1331.49	2.66
303.15	1	1350.72	1.12
308.15	0	913.07	1.03
308.15	0.0481	935.07	2.92
308.15	0.1022	959.68	2.89
308.15	0.2021	1004.52	2.88
308.15	0.2995	1048	2.86
308.15	0.3953	1090.21	2.83
308.15	0.5002	1135.96	2.81
308.15	0.6003	1179.04	2.77
308.15	0.6999	1221.25	2.75
308.15	0.8007	1263.47	2.72
308.15	0.9014	1304.98	2.69
308.15	0.9524	1325.46	2.66
308.15	1	1344.71	1.11
313.15	0	906.52	1.03
313.15	0.0481	928.57	2.93
313.15	0.1022	953.24	2.9
313.15	0.2021	998.25	2.88
313.15	0.2995	1041.72	2.86
313.15	0.3953	1083.96	2.83
313.15	0.5002	1129.81	2.81
313.15	0.6003	1172.93	2.78
313.15	0.6999	1215.17	2.75
313.15	0.8007	1257.41	2.72
313.15	0.9014	1298.92	2.69
313.15	0.9524	1319.4	2.66
313.15	1	1338.65	1.11

System: 1,3-dichloro-2-propanol + ethyl acetate; phases: Liquid
Fixed: Pressure, kPa = 87
Property: Mass density, kg/m3 (Liquid); method: Vibrating tube method
Temperature, K	Mole fraction of 1,3-dichloro-2-propanol	Mass density, kg/m3	uncertainty
293.15	0	900.71	1.03
293.15	0.0442	921.07	2.94
293.15	0.0967	945.13	2.93
293.15	0.1971	991	2.93
293.15	0.3019	1039.05	2.94
293.15	0.3939	1081.4	2.96
293.15	0.4995	1130.18	2.97
293.15	0.6006	1176.92	2.97
293.15	0.6993	1222.62	2.99
293.15	0.8006	1269.78	3
293.15	0.9011	1316.79	3.01
293.15	0.953	1340.9	3
293.15	1	1362.66	1.12
298.15	0	894.65	1.03
298.15	0.0442	915.01	2.94
298.15	0.0967	939.12	2.93
298.15	0.1971	985	2.94
298.15	0.3019	1033.15	2.95
298.15	0.3939	1075.55	2.96
298.15	0.4995	1124.35	2.97
298.15	0.6006	1171.1	2.97
298.15	0.6993	1216.83	2.99
298.15	0.8006	1263.96	3
298.15	0.9011	1310.89	3.01
298.15	0.953	1334.99	3
298.15	1	1356.74	1.12
303.15	0	888.52	1.03
303.15	0.0442	909.02	2.95
303.15	0.0967	933.16	2.94
303.15	0.1971	979.1	2.94
303.15	0.3019	1027.3	2.95
303.15	0.3939	1069.64	2.96
303.15	0.4995	1118.48	2.97
303.15	0.6006	1165.25	2.97
303.15	0.6993	1210.95	2.98
303.15	0.8006	1258.07	3
303.15	0.9011	1304.97	3
303.15	0.953	1329.01	2.99
303.15	1	1350.72	1.12
308.15	0	882.35	1.03
308.15	0.0442	902.88	2.96
308.15	0.0967	927.05	2.93
308.15	0.1971	972.97	2.94
308.15	0.3019	1021.22	2.95
308.15	0.3939	1063.7	2.96
308.15	0.4995	1112.58	2.97
308.15	0.6006	1159.37	2.97
308.15	0.6993	1205.06	2.98
308.15	0.8006	1252.15	3
308.15	0.9011	1299	3
308.15	0.953	1323.02	2.99
308.15	1	1344.71	1.11
313.15	0	876.12	1.03
313.15	0.0442	896.68	2.98
313.15	0.0967	921.2	2.95
313.15	0.1971	967.2	2.94
313.15	0.3019	1015.41	2.95
313.15	0.3939	1057.83	2.96
313.15	0.4995	1106.65	2.97
313.15	0.6006	1153.45	2.97
313.15	0.6993	1199.14	2.98
313.15	0.8006	1246.2	3
313.15	0.9011	1293.1	3
313.15	0.953	1316.98	2.98
313.15	1	1338.65	1.11

System: 1,3-dichloro-2-propanol + 1,1-dimethylethyl ethanoate; phases: Liquid
Fixed: Pressure, kPa = 87
Property: Mass density, kg/m3 (Liquid); method: Vibrating tube method
Temperature, K	Mole fraction of 1,3-dichloro-2-propanol	Mass density, kg/m3	uncertainty
293.15	0	866.95	1.03
293.15	0.0496	885.18	2.46
293.15	0.0948	902.23	2.55
293.15	0.2007	943.76	2.63
293.15	0.3003	985.2	2.77
293.15	0.4001	1029.14	2.91
293.15	0.4991	1075.36	3.07
293.15	0.6003	1125.61	3.26
293.15	0.7009	1179.16	3.47
293.15	0.8013	1236.36	3.71
293.15	0.9032	1298.89	3.9
293.15	0.9507	1329.66	4.11
293.15	1	1362.66	1.12
298.15	0	861.41	1.03
298.15	0.0496	879.67	2.46
298.15	0.0948	896.7	2.55
298.15	0.2007	938.26	2.63
298.15	0.3003	979.7	2.77
298.15	0.4001	1023.63	2.91
298.15	0.4991	1069.84	3.07
298.15	0.6003	1120.05	3.26
298.15	0.7009	1173.55	3.47
298.15	0.8013	1230.68	3.71
298.15	0.9032	1293.07	3.88
298.15	0.9507	1323.78	4.1
298.15	1	1356.74	1.12
303.15	0	855.79	1.03
303.15	0.0496	874.08	2.46
303.15	0.0948	891.14	2.55
303.15	0.2007	932.7	2.63
303.15	0.3003	974.18	2.77
303.15	0.4001	1018.09	2.91
303.15	0.4991	1064.27	3.07
303.15	0.6003	1114.46	3.25
303.15	0.7009	1167.9	3.46
303.15	0.8013	1224.95	3.7
303.15	0.9032	1287.22	3.87
303.15	0.9507	1317.85	4.09
303.15	1	1350.72	1.12
308.15	0	850.17	1.03
308.15	0.0496	868.47	2.46
308.15	0.0948	885.54	2.55
308.15	0.2007	927.12	2.63
308.15	0.3003	968.6	2.77
308.15	0.4001	1012.51	2.91
308.15	0.4991	1058.68	3.07
308.15	0.6003	1108.83	3.25
308.15	0.7009	1162.21	3.46
308.15	0.8013	1219.17	3.69
308.15	0.9032	1281.34	3.86
308.15	0.9507	1311.9	4.08
308.15	1	1344.71	1.11
313.15	0	844.49	1.03
313.15	0.0496	862.83	2.47
313.15	0.0948	879.9	2.55
313.15	0.2007	921.51	2.63
313.15	0.3003	963	2.77
313.15	0.4001	1006.91	2.91
313.15	0.4991	1053.06	3.07
313.15	0.6003	1103.17	3.25
313.15	0.7009	1156.49	3.45
313.15	0.8013	1213.37	3.69
313.15	0.9032	1275.42	3.86
313.15	0.9507	1305.91	4.07
313.15	1	1338.65	1.11
