Measured thermophysical data. Solid + liquid equilibria and molecular structure studies of binary mixtures for nitrate ester's stabilizers: Measurement and modeling
Source: Thermochim. Acta, 2018, 10.1016/j.tca.2018.07.002
Compound 1: N-ethyl-4-nitroaniline, C8H10N2O2, InChI=1S/C8H10N2O2/c1-2-9-7-3-5-8(6-4-7)10(11)12/h3-6,9H,2H2,1H3, purity 99%
Compound 2: N-(2-hydroxyethyl)-4-nitroaniline, C8H10N2O3, InChI=1S/C8H10N2O3/c11-6-5-9-7-1-3-8(4-2-7)10(12)13/h1-4,9,11H,5-6H2
Compound 3: N-(2-methoxyethyl)-4-nitroaniline, C9H12N2O3, InChI=1S/C9H12N2O3/c1-14-7-6-10-8-2-4-9(5-3-8)11(12)13/h2-5,10H,6-7H2,1H3

System: N-ethyl-4-nitroaniline; phases: Crystal
Property: Molar volume, m3/mol (Crystal); method: Pycnometric method
Temperature, K	Pressure, kPa	Molar volume, m3/mol	uncertainty
298.15	101.325	0.0001272	8e-07

System: N-ethyl-4-nitroaniline; phases: Crystal, Liquid, Air at 1 atmosphere
Property: Molar enthalpy of transition or fusion, kJ/mol (Crystal); method: DSC
Molar enthalpy of transition or fusion, kJ/mol	uncertainty
22.7	1.5

System: N-ethyl-4-nitroaniline; phases: Crystal, Liquid, Air at 1 atmosphere
Property: Normal melting temperature, K (Crystal); method: DTA
Normal melting temperature, K	uncertainty
367.3	0.9

System: N-(2-hydroxyethyl)-4-nitroaniline; phases: Crystal
Property: Molar volume, m3/mol (Crystal); method: Pycnometric method
Temperature, K	Pressure, kPa	Molar volume, m3/mol	uncertainty
298.15	101.325	0.0001375	8e-07

System: N-(2-hydroxyethyl)-4-nitroaniline; phases: Crystal, Liquid, Air at 1 atmosphere
Property: Molar enthalpy of transition or fusion, kJ/mol (Crystal); method: DSC
Molar enthalpy of transition or fusion, kJ/mol	uncertainty
26.5	1.5

System: N-(2-hydroxyethyl)-4-nitroaniline; phases: Crystal, Liquid, Air at 1 atmosphere
Property: Normal melting temperature, K (Crystal); method: DTA
Normal melting temperature, K	uncertainty
381	0.9

System: N-(2-methoxyethyl)-4-nitroaniline; phases: Crystal
Property: Molar volume, m3/mol (Crystal); method: Pycnometric method
Temperature, K	Pressure, kPa	Molar volume, m3/mol	uncertainty
298.15	101.325	0.0001527	8e-07

System: N-(2-methoxyethyl)-4-nitroaniline; phases: Crystal, Liquid, Air at 1 atmosphere
Property: Molar enthalpy of transition or fusion, kJ/mol (Crystal); method: DSC
Molar enthalpy of transition or fusion, kJ/mol	uncertainty
27.3	1.5

System: N-(2-methoxyethyl)-4-nitroaniline; phases: Crystal, Liquid, Air at 1 atmosphere
Property: Normal melting temperature, K (Crystal); method: DTA
Normal melting temperature, K	uncertainty
358.9	0.9

System: N-ethyl-4-nitroaniline + N-(2-methoxyethyl)-4-nitroaniline; phases: Crystal, Crystal, Liquid, Air at 1 atmosphere
Property: Eutectic temperature, K (Crystal); method: DTA
Eutectic temperature, K	uncertainty
334.6	0.9

System: N-ethyl-4-nitroaniline + N-(2-methoxyethyl)-4-nitroaniline; phases: Crystal, Crystal, Liquid, Air at 1 atmosphere
Property: Eutectic composition: mole fraction of N-(2-methoxyethyl)-4-nitroaniline (Crystal); method: Derived from phase diagram analysis
Eutectic composition: mole fraction of N-(2-methoxyethyl)-4-nitroaniline	uncertainty
0.5275	0.0314

System: N-ethyl-4-nitroaniline + N-(2-methoxyethyl)-4-nitroaniline; phases: Liquid, Crystal
Fixed: Pressure, kPa = 100
Property: Solid-liquid equilibrium temperature, K (Liquid); method: DTA
Mole fraction of N-(2-methoxyethyl)-4-nitroaniline	Solid-liquid equilibrium temperature, K	uncertainty
0	367.3	0.9
0.0496	366	0.9
0.0998	363.8	0.9
0.1481	362.2	0.9
0.2001	359.7	0.9
0.2501	357.8	0.9
0.3	354.4	0.9
0.3501	351.7	0.9
0.4004	348.1	0.9
0.4516	342.5	0.9
0.4995	339.4	0.9
0.5275	335	0.9

System: N-ethyl-4-nitroaniline + N-(2-methoxyethyl)-4-nitroaniline; phases: Liquid, Crystal
Fixed: Pressure, kPa = 100
Property: Solid-liquid equilibrium temperature, K (Liquid); method: DTA
Mole fraction of N-(2-methoxyethyl)-4-nitroaniline	Solid-liquid equilibrium temperature, K	uncertainty
0.5275	335	0.9
0.5493	337.4	0.9
0.6002	341.5	0.9
0.6506	344.8	0.9
0.7003	347.4	0.9
0.748	348.8	0.9
0.799	351.2	0.9
0.85	353.2	0.9
0.9021	355.1	0.9
0.9485	356.9	0.9
1	358.9	0.9

System: N-ethyl-4-nitroaniline + N-(2-hydroxyethyl)-4-nitroaniline; phases: Crystal, Crystal, Liquid, Air at 1 atmosphere
Property: Eutectic temperature, K (Crystal); method: DTA
Eutectic temperature, K	uncertainty
352.8	0.9

System: N-ethyl-4-nitroaniline + N-(2-hydroxyethyl)-4-nitroaniline; phases: Crystal, Crystal, Liquid, Air at 1 atmosphere
Property: Eutectic composition: mole fraction of N-(2-hydroxyethyl)-4-nitroaniline (Crystal); method: Derived from phase diagram analysis
Eutectic composition: mole fraction of N-(2-hydroxyethyl)-4-nitroaniline	uncertainty
0.3959	0.0313

System: N-ethyl-4-nitroaniline + N-(2-hydroxyethyl)-4-nitroaniline; phases: Liquid, Crystal
Fixed: Pressure, kPa = 100
Property: Solid-liquid equilibrium temperature, K (Liquid); method: DTA
Mole fraction of N-(2-hydroxyethyl)-4-nitroaniline	Solid-liquid equilibrium temperature, K	uncertainty
0	367.3	0.9
0.0513	366.8	0.9
0.0995	365.4	0.9
0.1512	364.1	0.9
0.2044	361.6	0.9
0.2504	360.2	0.9
0.3004	358.7	0.9
0.3508	357.1	0.9
0.3959	353.8	0.9

System: N-ethyl-4-nitroaniline + N-(2-hydroxyethyl)-4-nitroaniline; phases: Liquid, Crystal
Fixed: Pressure, kPa = 100
Property: Solid-liquid equilibrium temperature, K (Liquid); method: DTA
Mole fraction of N-(2-hydroxyethyl)-4-nitroaniline	Solid-liquid equilibrium temperature, K	uncertainty
0.3959	353.8	0.9
0.4017	355.4	0.9
0.4492	358.8	0.9
0.5011	360.8	0.9
0.5494	363.4	0.9
0.5997	366	0.9
0.6514	369.5	0.9
0.7011	371.9	0.9
0.7512	373.6	0.9
0.8018	375.7	0.9
0.8449	377.4	0.9
0.9	379.2	0.9
0.9478	380.3	0.9
1	381	0.9
