Measured thermophysical data. Electrical conductivity of CaCl2-KCl-NaCl system at 1080K
Source: Thermochim. Acta, 2012, 10.1016/j.tca.2012.05.007
Compound 1: calcium chloride, CaCl2, InChI=1S/Ca.2ClH/h;2*1H/q+2;;/p-2
Compound 2: potassium chloride, ClK, InChI=1S/ClH.K/h1H;/q;+1/p-1
Compound 3: sodium chloride, ClNa, InChI=1S/ClH.Na/h1H;/q;+1/p-1

System: potassium chloride + sodium chloride + calcium chloride; phases: Liquid
Fixed: Temperature, K = 1080
Fixed: Pressure, kPa = 101
Property: Electrical conductivity, S/m (Liquid); method: Alternating current cell with electrodes
Mole fraction of potassium chloride	Mole fraction of sodium chloride	Electrical conductivity, S/m	uncertainty
0.1	0.1	188.4	9.4
0.2	0.4	191.5	9.6
0.2	0.7	228.7	11.4
