Measured thermophysical data. Evaluation of vapor pressures of 5-Methylresorcinol derivatives by thermogravimetric analysis
Source: Thermochim. Acta, 2014, 10.1016/j.tca.2014.07.001
Compound 1: 1-methyl-3,5-bis(2-methylpropoxy)benzene, C15H24O2, InChI=1S/C15H24O2/c1-11(2)9-16-14-6-13(5)7-15(8-14)17-10-12(3)4/h6-8,11-12H,9-10H2,1-5H3
Compound 2: 1-methyl-3,5-bis(2-phenylethoxy)benzene, C23H24O2, InChI=1S/C23H24O2/c1-19-16-22(24-14-12-20-8-4-2-5-9-20)18-23(17-19)25-15-13-21-10-6-3-7-11-21/h2-11,16-18H,12-15H2,1H3
Compound 3: 1-methyl-3,5-bis(propan-2-yloxy)benzene, C13H20O2, InChI=1S/C13H20O2/c1-9(2)14-12-6-11(5)7-13(8-12)15-10(3)4/h6-10H,1-5H3
Compound 4: 3-methyl-5-(pentanoyloxy)phenyl pentanoate, C17H24O4, InChI=1S/C17H24O4/c1-4-6-8-16(18)20-14-10-13(3)11-15(12-14)21-17(19)9-7-5-2/h10-12H,4-9H2,1-3H3
Compound 5: 3-[(2,2-dimethylpropanoyl)oxy]-5-methylphenyl 2,2-dimethylpropanoate, C17H24O4, InChI=1S/C17H24O4/c1-11-8-12(20-14(18)16(2,3)4)10-13(9-11)21-15(19)17(5,6)7/h8-10H,1-7H3
Compound 6: 1,3-dibutoxy-5-methylbenzene, C15H24O2, InChI=1S/C15H24O2/c1-4-6-8-16-14-10-13(3)11-15(12-14)17-9-7-5-2/h10-12H,4-9H2,1-3H3

System: 1-methyl-3,5-bis(2-methylpropoxy)benzene; phases: Liquid
Fixed: Pressure, kPa = 101.325
Property: Mass density, kg/m3 (Liquid); method: Vibrating tube method
Temperature, K	Mass density, kg/m3	uncertainty
328.2	908.941	0.083
338.2	901.02	0.086
348.2	893.071	0.089
358.2	885.087	0.092

System: 1-methyl-3,5-bis(2-methylpropoxy)benzene; phases: Liquid, Gas
Property: Vapor or sublimation pressure, kPa (Liquid); method: Rate of evaporation
Temperature, K	Vapor or sublimation pressure, kPa	uncertainty
446	2.406	0.595
449	2.737	0.67
452	3.108	0.709
455	3.524	0.798
458	3.989	0.897
461	4.508	1.006
464	5.086	1.127
467	5.729	1.261
470	6.445	1.409
473	7.238	1.572
476	8.118	1.752
479	9.091	1.95
482	10.166	2.073
485	11.354	2.3
488	12.662	2.549
491	14.103	2.82
494	15.686	3.118
497	17.426	3.442
500	19.334	3.796
503	21.424	4.181
506	23.711	4.407
509	26.211	4.849

System: 1-methyl-3,5-bis(2-phenylethoxy)benzene; phases: Liquid
Fixed: Pressure, kPa = 101.325
Property: Mass density, kg/m3 (Liquid); method: Vibrating tube method
Temperature, K	Mass density, kg/m3	uncertainty
283.2	921.532	0.07
303.2	907.265	0.076
323.2	893.041	0.081
343.2	878.854	0.087
363.2	864.445	0.093

System: 1-methyl-3,5-bis(2-phenylethoxy)benzene; phases: Liquid, Gas
Property: Vapor or sublimation pressure, kPa (Liquid); method: Rate of evaporation
Temperature, K	Vapor or sublimation pressure, kPa	uncertainty
507	1.602	0.372
510	1.802	0.416
513	2.024	0.44
516	2.271	0.491
519	2.543	0.546
522	2.845	0.608
525	3.179	0.675
528	3.548	0.749
531	3.954	0.83
534	4.401	0.919
537	4.893	1.017
540	5.434	1.123
543	6.027	1.24
546	6.678	1.367
549	7.39	1.505
552	8.17	1.656
555	9.022	1.82
558	9.952	1.998
561	10.967	2.084
564	12.073	2.283
567	13.277	2.393
570	14.586	2.633
573	15.521	2.629

System: 1-methyl-3,5-bis(propan-2-yloxy)benzene; phases: Liquid
Fixed: Pressure, kPa = 101.325
Property: Mass density, kg/m3 (Liquid); method: Vibrating tube method
Temperature, K	Mass density, kg/m3	uncertainty
283.2	963.279	1.764
303.2	945.753	1.71
323.2	928.213	1.656
343.2	910.635	1.603
363.2	892.968	1.551

System: 1-methyl-3,5-bis(propan-2-yloxy)benzene; phases: Liquid, Gas
Property: Vapor or sublimation pressure, kPa (Liquid); method: Rate of evaporation
Temperature, K	Vapor or sublimation pressure, kPa	uncertainty
419	2.389	0.584
422	2.713	0.657
425	3.074	0.695
428	3.478	0.78
431	3.928	0.874
434	4.428	0.978
437	4.984	1.093
440	5.601	1.22
443	6.285	1.359
446	7.041	1.512
449	7.876	1.68
452	8.796	1.864
455	9.811	2.066
458	10.926	2.184
461	12.151	2.413
464	13.495	2.662
467	14.968	2.933
470	16.579	3.228
473	18.34	3.549
476	20.262	3.741
479	22.358	4.108

System: 3-methyl-5-(pentanoyloxy)phenyl pentanoate; phases: Liquid
Fixed: Pressure, kPa = 101.325
Property: Mass density, kg/m3 (Liquid); method: Vibrating tube method
Temperature, K	Mass density, kg/m3	uncertainty
278.2	1031.848	0.299
298.1	1015.276	0.284
318.1	998.841	0.271
338.1	982.449	0.27
358.1	966.043	0.269

System: 3-methyl-5-(pentanoyloxy)phenyl pentanoate; phases: Liquid, Gas
Property: Vapor or sublimation pressure, kPa (Liquid); method: Rate of evaporation
Temperature, K	Vapor or sublimation pressure, kPa	uncertainty
464	0.708	0.183
468	0.844	0.216
472	1.004	0.232
476	1.19	0.272
480	1.406	0.319
484	1.657	0.372
488	1.948	0.434
492	2.284	0.504
496	2.671	0.585
500	3.116	0.676
504	3.626	0.78
508	4.209	0.899
512	4.875	1.033
516	5.633	1.184
520	6.495	1.355
524	7.472	1.548
528	8.579	1.765
532	9.828	2.008
536	11.237	2.172
540	12.822	2.461
544	14.602	2.782
548	16.598	3.141
552	18.832	3.54
556	21.328	3.797
560	24.112	4.272

System: 3-[(2,2-dimethylpropanoyl)oxy]-5-methylphenyl 2,2-dimethylpropanoate; phases: Liquid
Fixed: Pressure, kPa = 101.325
Property: Mass density, kg/m3 (Liquid); method: Vibrating tube method
Temperature, K	Mass density, kg/m3	uncertainty
323.1	977.806	0.088
333.1	969.344	0.091
343.1	960.889	0.093
353.1	952.427	0.096
363.1	943.951	0.099

System: 3-[(2,2-dimethylpropanoyl)oxy]-5-methylphenyl 2,2-dimethylpropanoate; phases: Liquid, Gas
Property: Vapor or sublimation pressure, kPa (Liquid); method: Rate of evaporation
Temperature, K	Vapor or sublimation pressure, kPa	uncertainty
456	1.816	0.434
460	2.127	0.502
464	2.485	0.541
468	2.894	0.625
472	3.363	0.72
476	3.898	0.827
480	4.506	0.948
484	5.197	1.085
488	5.98	1.239
492	6.865	1.412
496	7.864	1.605
500	8.989	1.822
504	10.252	1.964
508	11.669	2.218
512	13.255	2.501
516	15.027	2.816
520	17.003	3.164
524	19.203	3.549
528	21.647	3.85
532	24.358	4.261
536	26.581	4.449

System: 1,3-dibutoxy-5-methylbenzene; phases: Liquid
Fixed: Pressure, kPa = 101.325
Property: Mass density, kg/m3 (Liquid); method: Vibrating tube method
Temperature, K	Mass density, kg/m3	uncertainty
278.2	955.338	0.095
298.1	938.896	0.1
318.1	922.519	0.105
338.1	906	0.11
358.1	889.4	0.115

System: 1,3-dibutoxy-5-methylbenzene; phases: Liquid, Gas
Property: Vapor or sublimation pressure, kPa (Liquid); method: Rate of evaporation
Temperature, K	Vapor or sublimation pressure, kPa	uncertainty
421	1.076	0.281
425	1.286	0.332
429	1.533	0.357
433	1.821	0.42
437	2.156	0.491
441	2.545	0.574
445	2.995	0.669
449	3.515	0.778
453	4.114	0.902
457	4.801	1.043
461	5.588	1.203
465	6.487	1.384
469	7.512	1.589
473	8.677	1.821
477	9.998	2.081
481	11.494	2.265
485	13.183	2.576
489	15.086	2.924
493	17.226	3.312
497	19.628	3.745
501	22.318	4.226
505	25.325	4.761
509	28.68	5.014
513	32.417	5.741
517	34.44	5.595
