Measured thermophysical data. Volumetric properties of hexamethyleneimine and of its mixtures with water
Source: Thermochim. Acta, 2009, 10.1016/j.tca.2008.12.007
Compound 1: azacycloheptane, C6H13N, InChI=1S/C6H13N/c1-2-4-6-7-5-3-1/h7H,1-6H2
Compound 2: water, H2O, InChI=1S/H2O/h1H2

System: azacycloheptane; phases: Liquid
Fixed: Pressure, kPa = 101.325
Property: Mass density, kg/m3 (Liquid); method: Vibrating tube method
Temperature, K	Mass density, kg/m3	uncertainty
273.16	898.81	0.3
273.66	898.36	0.3
274.16	897.92	0.3
274.66	897.48	0.3
275.16	897.04	0.3
275.66	896.6	0.3
276.16	896.16	0.3
276.66	895.72	0.3
277.16	895.28	0.3
277.66	894.84	0.3
278.16	894.4	0.3
278.66	893.96	0.3
279.16	893.51	0.3
279.66	893.07	0.3
280.16	892.63	0.3
280.66	892.19	0.3
281.16	891.75	0.3
281.66	891.31	0.3
282.16	890.87	0.3
282.66	890.42	0.3
283.16	889.98	0.3
283.66	889.54	0.3
284.16	889.1	0.3
284.66	888.66	0.3
285.15	888.22	0.3
285.66	887.77	0.3
286.16	887.33	0.3
286.66	886.89	0.3
287.16	886.45	0.3
287.66	886	0.3
288.16	885.56	0.3
288.66	885.12	0.3
289.16	884.68	0.3
289.66	884.23	0.3
290.16	883.79	0.3
290.66	883.35	0.3
291.15	882.91	0.3
291.65	882.47	0.3
292.16	882.03	0.3
292.65	881.58	0.3
293.15	881.15	0.3
293.65	880.71	0.3
294.15	880.26	0.3
294.65	879.82	0.3
295.15	879.38	0.3
295.65	878.94	0.3
319.15	858.06	0.3
319.65	857.61	0.3
320.15	857.17	0.3
320.65	856.72	0.3
321.15	856.28	0.3
321.65	855.83	0.3
322.15	855.39	0.3
322.65	854.94	0.3
323.15	854.49	0.3
323.65	854.05	0.3
324.15	853.6	0.3
324.65	853.15	0.3
325.15	852.71	0.3
325.66	852.26	0.3
326.16	851.81	0.3
326.66	851.37	0.3
327.15	850.92	0.3
327.66	850.47	0.3
328.16	850.03	0.3
328.66	849.58	0.3
329.16	849.13	0.3
329.66	848.69	0.3
330.16	848.24	0.3
330.65	847.79	0.3
331.16	847.35	0.3
331.66	846.9	0.3
332.15	846.45	0.3
332.66	846	0.3
333.16	845.55	0.3
333.65	845.11	0.3
334.16	844.66	0.3
334.65	844.21	0.3
335.16	843.76	0.3
335.65	843.31	0.3
336.16	842.86	0.3
336.66	842.42	0.3
337.16	841.96	0.3
337.66	841.52	0.3
338.16	841.07	0.3
338.66	840.62	0.3
339.16	840.17	0.3
339.66	839.72	0.3
340.16	839.27	0.3
340.66	838.82	0.3
341.16	838.37	0.3
341.65	837.92	0.3

System: azacycloheptane + water; phases: Liquid
Fixed: Pressure, kPa = 101
Property: Mass density, kg/m3 (Liquid); method: Vibrating tube method
Temperature, K	Mole fraction of water	Mass density, kg/m3	uncertainty
283.15	0.0199	891.47	0.29
283.15	0.0395	892.56	0.29
283.15	0.0821	895.27	0.27
283.15	0.1198	897.59	0.26
283.15	0.1594	900.05	0.25
283.15	0.1994	902.85	0.23
283.15	0.2498	906.32	0.22
283.15	0.3	909.81	0.2
283.15	0.3499	913.73	0.19
283.15	0.4	917.67	0.18
283.15	0.4529	922.26	0.16
283.15	0.5008	926.61	0.15
283.15	0.5041	926.61	0.15
283.15	0.5508	931.05	0.14
283.15	0.5992	935.7	0.13
283.15	0.65	941.01	0.13
283.15	0.699	946.42	0.12
283.15	0.7496	952.51	0.12
283.15	0.7994	959.33	0.12
283.15	0.8398	965.5	0.12
283.15	0.8799	972.62	0.13
283.15	0.92	981.18	0.15
283.15	0.9599	991.53	0.17
283.15	0.96	991.6	0.18
283.15	0.9699	994.44	0.17
283.15	0.98	997.1	0.16
288.15	0.0199	887.05	0.29
288.15	0.0395	888.13	0.29
288.15	0.0821	890.84	0.27
288.15	0.1198	893.16	0.26
288.15	0.1594	895.61	0.25
288.15	0.1994	898.4	0.23
288.15	0.2498	901.88	0.22
288.15	0.3	905.38	0.2
288.15	0.3499	909.3	0.19
288.15	0.4	913.25	0.18
288.15	0.4529	917.86	0.17
288.15	0.5008	922.24	0.15
288.15	0.5041	922.23	0.14
288.15	0.5508	926.72	0.15
288.15	0.5992	931.42	0.14
288.15	0.65	936.79	0.13
288.15	0.699	942.29	0.12
288.15	0.7496	948.5	0.12
288.15	0.7994	955.51	0.12
288.15	0.8398	961.88	0.13
288.15	0.8799	969.3	0.14
288.15	0.92	978.28	0.16
288.15	0.9599	989.32	0.18
288.15	0.96	989.39	0.2
288.15	0.9699	992.49	0.19
288.15	0.98	995.56	0.18
293.15	0.0199	882.62	0.29
293.15	0.0395	883.7	0.29
293.15	0.0821	886.39	0.27
293.15	0.1198	888.7	0.26
293.15	0.1594	891.15	0.25
293.15	0.1994	893.94	0.23
293.15	0.2498	897.41	0.22
293.15	0.3	900.91	0.21
293.15	0.3499	904.84	0.19
293.15	0.4	908.79	0.18
293.15	0.4529	913.42	0.17
293.15	0.5008	917.83	0.15
293.15	0.5041	917.82	0.15
293.15	0.5508	922.34	0.15
293.15	0.5992	927.09	0.14
293.15	0.65	932.53	0.13
293.15	0.699	938.12	0.13
293.15	0.7496	944.46	0.12
293.15	0.7994	951.64	0.12
293.15	0.8398	958.2	0.13
293.15	0.8799	965.9	0.15
293.15	0.92	975.3	0.17
293.15	0.9599	986.99	0.19
293.15	0.96	987.06	0.21
293.15	0.9699	990.4	0.21
293.15	0.98	993.8	0.2
298.15	0.0199	878.18	0.29
298.15	0.0395	879.25	0.29
298.15	0.0821	881.94	0.27
298.15	0.1198	884.23	0.26
298.15	0.1594	886.67	0.25
298.15	0.1994	889.46	0.24
298.15	0.2498	892.92	0.22
298.15	0.3	896.42	0.21
298.15	0.3499	900.36	0.19
298.15	0.4	904.32	0.18
298.15	0.4529	908.96	0.17
298.15	0.5008	913.38	0.15
298.15	0.5041	913.38	0.15
298.15	0.5508	917.93	0.15
298.15	0.5992	922.72	0.14
298.15	0.65	928.22	0.13
298.15	0.699	933.9	0.13
298.15	0.7496	940.36	0.13
298.15	0.7994	947.71	0.13
298.15	0.8398	954.47	0.13
298.15	0.8799	962.45	0.15
298.15	0.92	972.24	0.18
298.15	0.95973	984.66	0.2
298.15	0.9599	984.54	0.2
298.15	0.96	984.61	0.23
298.15	0.9699	988.16	0.23
298.15	0.97981	991.9	0.23
298.15	0.98	991.86	0.23
298.15	0.9851	993.77	0.22
298.15	0.98819	994.59	0.19
298.15	0.98992	994.98	0.18
298.15	0.99211	995.43	0.19
298.15	0.99403	995.81	0.19
298.15	0.95973	984.68	0.2
303.15	0.0199	873.74	0.29
303.15	0.0395	874.8	0.29
303.15	0.0821	877.47	0.27
303.15	0.1198	879.75	0.26
303.15	0.1594	882.19	0.25
303.15	0.1994	884.96	0.24
303.15	0.2498	888.42	0.22
303.15	0.3	891.91	0.21
303.15	0.3499	895.85	0.19
303.15	0.4	899.81	0.18
303.15	0.4529	904.46	0.17
303.15	0.5008	908.91	0.15
303.15	0.5041	908.91	0.15
303.15	0.5508	913.48	0.15
303.15	0.5992	918.31	0.14
303.15	0.65	923.88	0.14
303.15	0.699	929.63	0.13
303.15	0.7496	936.22	0.13
303.15	0.7994	943.73	0.13
303.15	0.8398	950.68	0.14
303.15	0.8799	958.91	0.16
303.15	0.92	969.1	0.18
303.15	0.9599	981.98	0.2
303.15	0.96	982.04	0.24
303.15	0.9699	985.8	0.24
303.15	0.98	989.75	0.24
308.15	0.0199	869.29	0.29
308.15	0.0395	870.34	0.29
308.15	0.0821	872.99	0.27
308.15	0.1198	875.26	0.26
308.15	0.1594	877.68	0.25
308.15	0.1994	880.45	0.24
308.15	0.2498	883.9	0.22
308.15	0.3	887.38	0.21
308.15	0.3499	891.32	0.2
308.15	0.4	895.28	0.18
308.15	0.4529	899.94	0.17
308.15	0.5008	904.4	0.15
308.15	0.5041	904.4	0.15
308.15	0.5508	909	0.15
308.15	0.5992	913.86	0.14
308.15	0.65	919.49	0.14
308.15	0.699	925.32	0.13
308.15	0.7496	932.02	0.13
308.15	0.7994	939.69	0.13
308.15	0.8398	946.83	0.14
308.15	0.8799	955.31	0.16
308.15	0.92	965.86	0.19
308.15	0.9599	979.29	0.21
308.15	0.96	979.35	0.25
308.15	0.9699	983.3	0.25
308.15	0.98	987.48	0.25
313.15	0.0199	864.83	0.29
313.15	0.0395	865.87	0.29
313.15	0.0821	868.49	0.27
313.15	0.1198	870.75	0.26
313.15	0.1594	873.16	0.25
313.15	0.1994	875.92	0.24
313.15	0.2498	879.35	0.22
313.15	0.3	882.83	0.21
313.15	0.3499	886.76	0.2
313.15	0.4	890.72	0.19
313.15	0.4529	895.39	0.17
313.15	0.5008	899.86	0.15
313.15	0.5041	899.86	0.15
313.15	0.5508	904.48	0.15
313.15	0.5992	909.37	0.15
313.15	0.65	915.05	0.14
313.15	0.699	920.96	0.13
313.15	0.7496	927.77	0.13
313.15	0.7994	935.59	0.14
313.15	0.8398	942.92	0.15
313.15	0.8799	951.63	0.17
313.15	0.92	962.53	0.2
313.15	0.9599	976.48	0.22
313.15	0.96	976.54	0.26
313.15	0.9699	980.66	0.26
313.15	0.98	985.06	0.26
318.15	0.0199	860.37	0.29
318.15	0.0395	861.39	0.29
318.15	0.0821	863.99	0.27
318.15	0.1198	866.23	0.26
318.15	0.1594	868.63	0.25
318.15	0.1994	871.37	0.24
318.15	0.2498	874.79	0.22
318.15	0.3	878.26	0.21
318.15	0.3499	882.18	0.2
318.15	0.4	886.14	0.19
318.15	0.4529	890.8	0.18
318.15	0.5008	895.29	0.16
318.15	0.5041	895.28	0.15
318.15	0.5508	899.93	0.16
318.15	0.5992	904.85	0.15
318.15	0.65	910.58	0.14
318.15	0.699	916.55	0.14
318.15	0.7496	923.47	0.14
318.15	0.7994	931.44	0.14
318.15	0.8398	938.93	0.15
318.15	0.8799	947.87	0.17
318.15	0.92	959.11	0.2
318.15	0.9599	973.55	0.23
318.15	0.96	973.61	0.27
318.15	0.9699	977.9	0.27
318.15	0.98	982.5	0.28
323.15	0.0199	855.9	0.3
323.15	0.0395	856.9	0.29
323.15	0.0821	859.48	0.28
323.15	0.1198	861.7	0.26
323.15	0.1594	864.08	0.25
323.15	0.1994	866.81	0.24
323.15	0.2498	870.21	0.23
323.15	0.3	873.67	0.21
323.15	0.3499	877.58	0.2
323.15	0.4	881.52	0.19
323.15	0.4529	886.19	0.18
323.15	0.5008	890.68	0.16
323.15	0.5041	890.68	0.16
323.15	0.5508	895.33	0.16
323.15	0.5992	900.28	0.15
323.15	0.65	906.06	0.14
323.15	0.699	912.1	0.14
323.15	0.7496	919.11	0.14
323.15	0.7994	927.23	0.14
323.15	0.8398	934.88	0.15
323.15	0.8799	944.03	0.17
323.15	0.92	955.59	0.21
323.15	0.9599	970.5	0.24
323.15	0.96	970.56	0.28
323.15	0.9699	975.01	0.28
323.15	0.98	979.8	0.29
333.15	0.0199	846.92	0.3
333.15	0.0395	847.9	0.29
333.15	0.0821	850.41	0.28
333.15	0.1198	852.59	0.26
333.15	0.1594	854.93	0.25
333.15	0.1994	857.62	0.24
333.15	0.2498	860.98	0.23
333.15	0.3	864.4	0.21
333.15	0.3499	868.28	0.2
333.15	0.4	872.21	0.19
333.15	0.4529	876.87	0.18
333.15	0.5008	881.36	0.16
333.15	0.5041	881.35	0.16
333.15	0.5508	886.03	0.16
333.15	0.5992	891.02	0.15
333.15	0.65	896.87	0.15
333.15	0.699	903.03	0.14
333.15	0.7496	910.24	0.14
333.15	0.7994	918.61	0.15
333.15	0.8398	926.57	0.16
333.15	0.8799	936.13	0.18
333.15	0.92	948.28	0.22
333.15	0.9599	964.06	0.25
333.15	0.96	964.12	0.28
333.15	0.9699	968.88	0.3
333.15	0.98	974.02	0.3
343.15	0.0199	837.91	0.3
343.15	0.0395	838.84	0.29
343.15	0.0821	841.28	0.28
343.15	0.1198	843.4	0.27
343.15	0.1594	845.7	0.25
343.15	0.1994	848.34	0.24
343.15	0.2498	851.65	0.23
343.15	0.3	855.03	0.22
343.15	0.3499	858.87	0.21
343.15	0.4	862.76	0.19
343.15	0.4529	867.39	0.18
343.15	0.5008	871.87	0.16
343.15	0.5041	871.87	0.16
343.15	0.5508	876.55	0.16
343.15	0.5992	881.58	0.16
343.15	0.65	887.5	0.15
343.15	0.699	893.76	0.15
343.15	0.7496	901.13	0.15
343.15	0.7994	909.74	0.15
343.15	0.8398	917.97	0.17
343.15	0.8799	927.91	0.21
343.15	0.92	942.9	0.24
343.15	0.9599	958.32	0.25
343.15	0.96	958.4	0.33
343.15	0.9699	963.25	0.29
343.15	0.98	967.74	0.27
348.15	0.0199	833.38	0.3
348.15	0.0395	834.3	0.29
348.15	0.0821	836.69	0.28
348.15	0.1198	838.79	0.27
348.15	0.1594	841.06	0.26
348.15	0.1994	843.67	0.24
348.15	0.2498	846.94	0.23
348.15	0.3	850.31	0.22
348.15	0.3499	854.12	0.21
348.15	0.4	857.99	0.2
348.15	0.4529	862.6	0.18
348.15	0.5008	867.08	0.17
348.15	0.5041	867.07	0.17
348.15	0.5508	871.76	0.17
348.15	0.5992	876.78	0.16
348.15	0.65	882.74	0.15
348.15	0.699	889.04	0.15
348.15	0.7496	896.49	0.15
348.15	0.7994	905.21	0.15
348.15	0.8398	913.57	0.17
348.15	0.8799	923.42	0.2
348.15	0.92	938.07	0.25
348.15	0.9599	954.48	0.27
348.15	0.96	954.96	0.27
348.15	0.98	964.39	0.29
353.15	0.0199	828.84	0.3
353.15	0.0395	829.73	0.29
353.15	0.0821	832.07	0.28
353.15	0.1198	834.14	0.27
353.15	0.1594	836.38	0.26
353.15	0.1994	838.95	0.25
353.15	0.2498	842.2	0.23
353.15	0.3	845.54	0.22
353.15	0.3499	849.32	0.21
353.15	0.4	853.18	0.2
353.15	0.4529	857.76	0.19
353.15	0.5008	862.24	0.17
353.15	0.5041	862.22	0.17
353.15	0.5508	866.92	0.17
353.15	0.5992	871.95	0.16
353.15	0.65	877.92	0.16
353.15	0.699	884.27	0.15
353.15	0.7496	891.79	0.15
353.15	0.7994	900.62	0.16
353.15	0.8398	909.09	0.17
353.15	0.8799	918.78	0.21
353.15	0.92	933.73	0.27
353.15	0.98	961.1	0.28
