Measured thermophysical data. Nucleation and crystallization of celecoxib glass: Impact of experience of low temperature on physical stability
Source: Thermochim. Acta, 2019, 10.1016/j.tca.2018.11.004
Compound 1: celebrex, C17H14F3N3O2S, InChI=1S/C17H14F3N3O2S/c1-11-2-4-12(5-3-11)15-10-16(17(18,19)20)22-23(15)13-6-8-14(9-7-13)26(21,24)25/h2-10H,1H3,(H2,21,24,25), purity 98%

System: celebrex; phases: Glass, Liquid, Air at 1 atmosphere
Property: Triple point temperature, K (Glass); method: DSC
Triple point temperature, K	uncertainty
331.15	2

System: celebrex; phases: Crystal, Liquid, Air at 1 atmosphere
Property: Triple point temperature, K (Crystal); method: DSC
Triple point temperature, K	uncertainty
435.15	2
