Measured thermophysical data. Enthalpies of transfer of amino acids from water to aqueous solutions of sodium nitrate and sodium perchlorate at T = 298.15K
Source: Thermochim. Acta, 2006, 10.1016/j.tca.2005.10.013
Compound 1: sodium nitrate, NNaO3, InChI=1S/NO3.Na/c2-1(3)4;/q-1;+1, purity 99%
Compound 2: sodium perchlorate, ClNaO4, InChI=1S/ClHO4.Na/c2-1(3,4)5;/h(H,2,3,4,5);/q;+1/p-1, purity 99.5%
Compound 3: 2-aminoacetic acid, C2H5NO2, InChI=1S/C2H5NO2/c3-1-2(4)5/h1,3H2,(H,4,5), purity 99%
Compound 4: (S)-2-aminopropanoic acid, C3H7NO2, InChI=1S/C3H7NO2/c1-2(4)3(5)6/h2H,4H2,1H3,(H,5,6)/t2-/m0/s1, purity 99%
Compound 5: water, H2O, InChI=1S/H2O/h1H2
Compound 6: L-serine, C3H7NO3, InChI=1S/C3H7NO3/c4-2(1-5)3(6)7/h2,5H,1,4H2,(H,6,7)/t2-/m0/s1, purity 99%

System: 2-aminoacetic acid + water; phases: Liquid
Property: Molar enthalpy of solution, kJ/mol (Liquid); method: CALVET:solid
Temperature, K	Pressure, kPa	Molality, mol/kg of 2-aminoacetic acid	Molar enthalpy of solution, kJ/mol	uncertainty
298.15	101.3	0.1	14.15	0.22

System: (S)-2-aminopropanoic acid + water; phases: Liquid
Property: Molar enthalpy of solution, kJ/mol (Liquid); method: CALVET:solid
Temperature, K	Pressure, kPa	Molality, mol/kg of (S)-2-aminopropanoic acid	Molar enthalpy of solution, kJ/mol	uncertainty
298.15	101.3	0.1	7.57	0.14

System: L-serine + water; phases: Liquid
Property: Molar enthalpy of solution, kJ/mol (Liquid); method: CALVET:solid
Temperature, K	Pressure, kPa	Molality, mol/kg of L-serine	Molar enthalpy of solution, kJ/mol	uncertainty
298.15	101.3	0.1	11.34	0.19

System: 2-aminoacetic acid + sodium nitrate + water; phases: Liquid
Fixed: Temperature, K = 298.15
Fixed: Pressure, kPa = 101
Fixed: Molality, mol/kg of 2-aminoacetic acid = 0.1
Property: Molar enthalpy of solution, kJ/mol (Liquid); method: CALVET:solid
Solvent: Molality, mol/kg of sodium nitrate	Molar enthalpy of solution, kJ/mol	uncertainty
0	14.15	0.22
0.1997	13.68	0.21
0.4997	13.07	0.21
0.6996	12.69	0.2
0.9999	12.23	0.2
1.4967	11.27	0.19
2.0001	10.63	0.18
2.4433	10.25	0.17
2.9954	9.92	0.17

System: (S)-2-aminopropanoic acid + sodium nitrate + water; phases: Liquid
Fixed: Temperature, K = 298.15
Fixed: Pressure, kPa = 101
Fixed: Molality, mol/kg of (S)-2-aminopropanoic acid = 0.1
Property: Molar enthalpy of solution, kJ/mol (Liquid); method: CALVET:solid
Solvent: Molality, mol/kg of sodium nitrate	Molar enthalpy of solution, kJ/mol	uncertainty
0	7.57	0.14
0.1993	7.23	0.14
0.4988	6.87	0.14
0.7002	6.61	0.13
1.0004	6.46	0.13
1.4998	6.3	0.13
1.9906	6.23	0.13
2.5001	6.18	0.13
3.0005	6.14	0.13

System: L-serine + sodium nitrate + water; phases: Liquid
Fixed: Temperature, K = 298.15
Fixed: Pressure, kPa = 101
Fixed: Molality, mol/kg of L-serine = 0.1
Property: Molar enthalpy of solution, kJ/mol (Liquid); method: CALVET:solid
Solvent: Molality, mol/kg of sodium nitrate	Molar enthalpy of solution, kJ/mol	uncertainty
0	11.34	0.19
0.1998	10.39	0.18
0.4997	9.56	0.17
0.6997	9.1	0.16
0.9999	8.64	0.16
1.4982	8.14	0.15
2.0572	7.57	0.14
2.5001	7.19	0.14
2.9987	6.86	0.14

System: 2-aminoacetic acid + sodium perchlorate + water; phases: Liquid
Fixed: Temperature, K = 298.15
Fixed: Pressure, kPa = 101
Fixed: Molality, mol/kg of 2-aminoacetic acid = 0.1
Property: Molar enthalpy of solution, kJ/mol (Liquid); method: CALVET:solid
Solvent: Molality, mol/kg of sodium perchlorate	Molar enthalpy of solution, kJ/mol	uncertainty
0	14.15	0.22
0.1989	13.32	0.21
0.5	12.75	0.2
0.6995	12.08	0.19
0.9995	11.1	0.18
1.4994	10.19	0.17
2.002	8.95	0.16
2.4998	8.35	0.15
2.9981	7.72	0.15

System: (S)-2-aminopropanoic acid + sodium perchlorate + water; phases: Liquid
Fixed: Temperature, K = 298.15
Fixed: Pressure, kPa = 101
Fixed: Molality, mol/kg of (S)-2-aminopropanoic acid = 0.1
Property: Molar enthalpy of solution, kJ/mol (Liquid); method: CALVET:solid
Solvent: Molality, mol/kg of sodium perchlorate	Molar enthalpy of solution, kJ/mol	uncertainty
0	7.57	0.14
0.2	7.2	0.14
0.5	6.74	0.14
0.6955	6.41	0.13
0.9996	6.14	0.13
1.4992	5.62	0.12
1.9891	5.35	0.12
2.5006	5.13	0.12
2.9955	5.07	0.12

System: L-serine + sodium perchlorate + water; phases: Liquid
Fixed: Temperature, K = 298.15
Fixed: Pressure, kPa = 101
Fixed: Molality, mol/kg of L-serine = 0.1
Property: Molar enthalpy of solution, kJ/mol (Liquid); method: CALVET:solid
Solvent: Molality, mol/kg of sodium perchlorate	Molar enthalpy of solution, kJ/mol	uncertainty
0	11.34	0.19
0.2	10.18	0.17
0.5	9.31	0.16
0.7	8.74	0.16
0.9996	8.13	0.15
1.5003	7.1	0.14
1.9991	6.62	0.13
2.5	6.12	0.13
2.997	5.61	0.12
