Measured thermophysical data. Estimation of sublimation enthalpies of aromatic amides at 298.15 K from the values of fusion enthalpies
Source: Thermochim. Acta, 2016, 10.1016/j.tca.2016.10.015
Compound 1: 3-nitrobenzamide, C7H6N2O3, InChI=1S/C7H6N2O3/c8-7(10)5-2-1-3-6(4-5)9(11)12/h1-4H,(H2,8,10), purity 99%
Compound 2: p-nitrobenzamide, C7H6N2O3, InChI=1S/C7H6N2O3/c8-7(10)5-1-3-6(4-2-5)9(11)12/h1-4H,(H2,8,10), purity 99%
Compound 3: 3-aminobenzamide, C7H8N2O, InChI=1S/C7H8N2O/c8-6-3-1-2-5(4-6)7(9)10/h1-4H,8H2,(H2,9,10), purity 98%
Compound 4: acetonitrile, C2H3N, InChI=1S/C2H3N/c1-2-3/h1H3, purity 99%

System: acetonitrile + 3-nitrobenzamide; phases: Liquid
Property: Molar enthalpy of solution, kJ/mol (Liquid); method: Power-compensation calorimetry
Mole fraction of 3-nitrobenzamide	Temperature, K	Pressure, kPa	Molar enthalpy of solution, kJ/mol	uncertainty
0	298.15	100	23.37	0.42

System: acetonitrile + p-nitrobenzamide; phases: Liquid
Property: Molar enthalpy of solution, kJ/mol (Liquid); method: Power-compensation calorimetry
Mole fraction of p-nitrobenzamide	Temperature, K	Pressure, kPa	Molar enthalpy of solution, kJ/mol	uncertainty
0	298.15	100	23.98	0.21

System: acetonitrile + 3-aminobenzamide; phases: Liquid
Property: Molar enthalpy of solution, kJ/mol (Liquid); method: Power-compensation calorimetry
Mole fraction of 3-aminobenzamide	Temperature, K	Pressure, kPa	Molar enthalpy of solution, kJ/mol	uncertainty
0	298.15	100	21.98	0.44
