Measured thermophysical data. Measurement and correlation of solubility of carbendazim in lower alcohols
Source: Thermochim. Acta, 2018, 10.1016/j.tca.2017.12.007
Compound 1: methyl 2-benzimidazolecarbamate, C9H9N3O2, InChI=1S/C9H9N3O2/c1-14-9(13)12-8-10-6-4-2-3-5-7(6)11-8/h2-5H,1H3,(H2,10,11,12,13), purity 99%
Compound 2: methanol, CH4O, InChI=1S/CH4O/c1-2/h2H,1H3, purity 99.8%
Compound 3: ethanol, C2H6O, InChI=1S/C2H6O/c1-2-3/h3H,2H2,1H3, purity 99.8%
Compound 4: propan-1-ol, C3H8O, InChI=1S/C3H8O/c1-2-3-4/h4H,2-3H2,1H3, purity 99.8%
Compound 5: butan-1-ol, C4H10O, InChI=1S/C4H10O/c1-2-3-4-5/h5H,2-4H2,1H3, purity 99.8%
Compound 6: pentan-1-ol, C5H12O, InChI=1S/C5H12O/c1-2-3-4-5-6/h6H,2-5H2,1H3, purity 99.8%

System: methyl 2-benzimidazolecarbamate + methanol; phases: Liquid, Crystal
Fixed: Pressure, kPa = 101.3
Property: Mole fraction of methyl 2-benzimidazolecarbamate (Liquid); method: Titration method
Temperature, K	Mole fraction of methyl 2-benzimidazolecarbamate	uncertainty
278.15	3.187e-05	2.24e-06
283.15	4.003e-05	2.81e-06
288.15	5.2e-05	3.65e-06
293.15	6.334e-05	4.44e-06
298.15	7.766e-05	5.45e-06
303.15	9.851e-05	6.91e-06
308.15	0.00011804	8.28e-06
313.15	0.00014325	1.005e-05
318.15	0.00017271	1.211e-05
323.15	0.00020146	1.412e-05

System: methyl 2-benzimidazolecarbamate + ethanol; phases: Liquid, Crystal
Fixed: Pressure, kPa = 101.3
Property: Mole fraction of methyl 2-benzimidazolecarbamate (Liquid); method: Titration method
Temperature, K	Mole fraction of methyl 2-benzimidazolecarbamate	uncertainty
278.15	6.39e-06	4.6e-07
283.15	1.052e-05	7.4e-07
288.15	1.584e-05	1.12e-06
293.15	2.299e-05	1.62e-06
298.15	3.19e-05	2.24e-06
303.15	4.337e-05	3.05e-06
308.15	5.778e-05	4.06e-06
313.15	7.655e-05	5.38e-06
318.15	0.00010055	7.06e-06
323.15	0.00013353	9.37e-06

System: methyl 2-benzimidazolecarbamate + propan-1-ol; phases: Liquid, Crystal
Fixed: Pressure, kPa = 101.3
Property: Mole fraction of methyl 2-benzimidazolecarbamate (Liquid); method: Titration method
Temperature, K	Mole fraction of methyl 2-benzimidazolecarbamate	uncertainty
278.15	3.3e-06	2.4e-07
283.15	5.42e-06	3.8e-07
288.15	8.66e-06	6.1e-07
293.15	1.298e-05	9.1e-07
298.15	1.888e-05	1.33e-06
303.15	2.727e-05	1.92e-06
308.15	3.922e-05	2.76e-06
313.15	5.574e-05	3.93e-06
318.15	8.375e-05	5.9e-06
323.15	0.00012037	8.46e-06

System: methyl 2-benzimidazolecarbamate + butan-1-ol; phases: Liquid, Crystal
Fixed: Pressure, kPa = 101.3
Property: Mole fraction of methyl 2-benzimidazolecarbamate (Liquid); method: Titration method
Temperature, K	Mole fraction of methyl 2-benzimidazolecarbamate	uncertainty
278.15	2.12e-06	1.5e-07
283.15	3.75e-06	2.7e-07
288.15	6.22e-06	4.4e-07
293.15	9.84e-06	6.9e-07
298.15	1.505e-05	1.06e-06
303.15	2.281e-05	1.61e-06
308.15	3.344e-05	2.36e-06
313.15	5.07e-05	3.58e-06
318.15	7.614e-05	5.37e-06
323.15	0.00011052	7.77e-06

System: methyl 2-benzimidazolecarbamate + pentan-1-ol; phases: Liquid, Crystal
Fixed: Pressure, kPa = 101.3
Property: Mole fraction of methyl 2-benzimidazolecarbamate (Liquid); method: Titration method
Temperature, K	Mole fraction of methyl 2-benzimidazolecarbamate	uncertainty
278.15	1e-06	7e-08
283.15	2e-06	1.4e-07
288.15	3.62e-06	2.6e-07
293.15	6.19e-06	4.4e-07
298.15	1.053e-05	7.5e-07
303.15	1.692e-05	1.2e-06
308.15	2.871e-05	2.03e-06
313.15	4.553e-05	3.21e-06
318.15	6.796e-05	4.79e-06
323.15	0.00010135	7.13e-06
