Measured thermophysical data. On the partial enthalpy of mixing of Nb in liquid Al
Source: Thermochim. Acta, 2019, 10.1016/j.tca.2018.11.009
Compound 1: iron, Fe, InChI=1S/Fe
Compound 2: niobium, Nb, InChI=1S/Nb
Compound 3: nickel, Ni, InChI=1S/Ni
Compound 4: niobium compound with aluminum (NbAl3), Al3Nb, InChI=1S/3Al.Nb, purity 99.5%
Compound 5: iron-niobium compound (NbFe2), Fe2Nb, InChI=1S/2Fe.Nb, purity 99.5%
Compound 6: niobium-nickel compound (NbNi3), NbNi3, InChI=1S/Nb.3Ni, purity 99.5%

System: niobium compound with aluminum (NbAl3); phases: Crystal
Property: Molar enthalpy, kJ/mol (Crystal); method: Drop calorimetry
Temperature, K	Pressure, kPa	Molar enthalpy, kJ/mol	uncertainty
1019.9	101.325	75.4	4.8

System: niobium compound with aluminum (NbAl3); phases: Crystal
Property: Molar enthalpy, kJ/mol (Crystal); method: Drop calorimetry
Temperature, K	Pressure, kPa	Molar enthalpy, kJ/mol	uncertainty
921	101.325	63.4	2.5

System: niobium compound with aluminum (NbAl3); phases: Crystal
Property: Molar enthalpy, kJ/mol (Crystal); method: Drop calorimetry
Temperature, K	Pressure, kPa	Molar enthalpy, kJ/mol	uncertainty
803.1	101.325	49.9	2

Reaction: -2 iron + -1 niobium + 1 iron-niobium compound (NbFe2)
Property: Molar enthalpy of reaction, kJ/mol
-53.7

Reaction: -3 nickel + -1 niobium + 1 niobium-nickel compound (NbNi3)
Property: Molar enthalpy of reaction, kJ/mol
-122.8
