Measured thermophysical data. Densities, viscosities, excess molar volumes, and refractive indices of acetonitrile and 2-alkanols binary mixtures at different temperatures: Experimental results and application of the Prigogine Flory Patterson theory
Source: Thermochim. Acta, 2009, 10.1016/j.tca.2009.06.015
Compound 1: acetonitrile, C2H3N, InChI=1S/C2H3N/c1-2-3/h1H3, purity 99%
Compound 2: propan-2-ol, C3H8O, InChI=1S/C3H8O/c1-3(2)4/h3-4H,1-2H3, purity 99%
Compound 3: butan-2-ol, C4H10O, InChI=1S/C4H10O/c1-3-4(2)5/h4-5H,3H2,1-2H3, purity 99%
Compound 4: pentan-2-ol, C5H12O, InChI=1S/C5H12O/c1-3-4-5(2)6/h5-6H,3-4H2,1-2H3, purity 99%
Compound 5: 2-hexanol, C6H14O, InChI=1S/C6H14O/c1-3-4-5-6(2)7/h6-7H,3-5H2,1-2H3, purity 99%
Compound 6: 2-heptanol, C7H16O, InChI=1S/C7H16O/c1-3-4-5-6-7(2)8/h7-8H,3-6H2,1-2H3, purity 99%

System: acetonitrile; phases: Liquid
Fixed: Pressure, kPa = 101.325
Property: Refractive index (Na D-line) (Liquid); method: Standard Abbe refractometry
Temperature, K	Refractive index (Na D-line)	uncertainty
293.15	1.3436	0.0021
298.15	1.3411	0.0021
303.15	1.339	0.0021
308.15	1.3371	0.0021

System: acetonitrile; phases: Liquid
Fixed: Pressure, kPa = 101
Property: Viscosity, Pa*s (Liquid); method: Capillary tube (Ostwald; Ubbelohde) method
Temperature, K	Viscosity, Pa*s	uncertainty
293.15	0.0003542	4e-06
298.15	0.0003369	3.8e-06
298.15	0.000336	4e-06
303.15	0.0003254	3.7e-06
303.15	0.000325	4e-06
308.15	0.0003082	3.6e-06
308.15	0.000308	4e-06

System: acetonitrile; phases: Liquid
Fixed: Pressure, kPa = 101
Property: Mass density, kg/m3 (Liquid); method: Vibrating tube method
Temperature, K	Mass density, kg/m3	uncertainty
293.15	782.04	0.31
298.15	776.64	0.31
303.15	771.21	0.31
308.15	765.75	0.31

System: propan-2-ol; phases: Liquid
Fixed: Pressure, kPa = 101.325
Property: Refractive index (Na D-line) (Liquid); method: Standard Abbe refractometry
Temperature, K	Refractive index (Na D-line)	uncertainty
293.15	1.3766	0.0021
298.15	1.3745	0.0021
303.15	1.3724	0.0021
308.15	1.3703	0.0021

System: propan-2-ol; phases: Liquid
Fixed: Pressure, kPa = 101
Property: Viscosity, Pa*s (Liquid); method: Capillary tube (Ostwald; Ubbelohde) method
Temperature, K	Viscosity, Pa*s	uncertainty
293.15	0.0023511	2.42e-05
298.15	0.0020439	2.18e-05
303.15	0.0017583	1.89e-05
308.15	0.0015315	1.66e-05

System: propan-2-ol; phases: Liquid
Fixed: Pressure, kPa = 101
Property: Mass density, kg/m3 (Liquid); method: Vibrating tube method
Temperature, K	Mass density, kg/m3	uncertainty
293.15	785.19	0.31
298.15	780.98	0.31
303.15	776.71	0.31
308.15	772.36	0.31

System: butan-2-ol; phases: Liquid
Fixed: Pressure, kPa = 101.325
Property: Refractive index (Na D-line) (Liquid); method: Standard Abbe refractometry
Temperature, K	Refractive index (Na D-line)	uncertainty
293.15	1.3966	0.0021
298.15	1.3946	0.0021
303.15	1.3924	0.0021
308.15	1.3905	0.0021

System: butan-2-ol; phases: Liquid
Fixed: Pressure, kPa = 101
Property: Viscosity, Pa*s (Liquid); method: Capillary tube (Ostwald; Ubbelohde) method
Temperature, K	Viscosity, Pa*s	uncertainty
293.15	0.0039119	4.61e-05
298.15	0.0031318	3.89e-05
303.15	0.002534	2.95e-05
308.15	0.0021723	2.42e-05

System: butan-2-ol; phases: Liquid
Fixed: Pressure, kPa = 101
Property: Mass density, kg/m3 (Liquid); method: Vibrating tube method
Temperature, K	Mass density, kg/m3	uncertainty
293.15	806.57	0.31
298.15	802.56	0.31
303.15	798.26	0.31
308.15	793.96	0.31

System: pentan-2-ol; phases: Liquid
Fixed: Pressure, kPa = 101.325
Property: Refractive index (Na D-line) (Liquid); method: Standard Abbe refractometry
Temperature, K	Refractive index (Na D-line)	uncertainty
293.15	1.406	0.0021
298.15	1.4045	0.0039
303.15	1.3724	0.004
308.15	1.3703	0.0021

System: pentan-2-ol; phases: Liquid
Fixed: Pressure, kPa = 101
Property: Viscosity, Pa*s (Liquid); method: Capillary tube (Ostwald; Ubbelohde) method
Temperature, K	Viscosity, Pa*s	uncertainty
293.15	0.0042982	4.96e-05
298.15	0.0034785	5.92e-05
303.15	0.0017583	4.2e-05
308.15	0.0015315	1.66e-05

System: pentan-2-ol; phases: Liquid
Fixed: Pressure, kPa = 101
Property: Mass density, kg/m3 (Liquid); method: Vibrating tube method
Temperature, K	Mass density, kg/m3	uncertainty
293.15	809.29	0.31
298.15	805.24	0.34
303.15	776.71	0.34
308.15	772.36	0.31

System: 2-hexanol; phases: Liquid
Fixed: Pressure, kPa = 101.325
Property: Refractive index (Na D-line) (Liquid); method: Standard Abbe refractometry
Temperature, K	Refractive index (Na D-line)	uncertainty
293.15	1.4135	0.0021
298.15	1.4116	0.0021
303.15	1.4093	0.0021
308.15	1.4077	0.0021

System: 2-hexanol; phases: Liquid
Fixed: Pressure, kPa = 101
Property: Viscosity, Pa*s (Liquid); method: Capillary tube (Ostwald; Ubbelohde) method
Temperature, K	Viscosity, Pa*s	uncertainty
293.15	0.005155	6.1e-05
298.15	0.0041	5e-05
303.15	0.00341	4e-05
308.15	0.002819	3.4e-05

System: 2-hexanol; phases: Liquid
Fixed: Pressure, kPa = 101
Property: Mass density, kg/m3 (Liquid); method: Vibrating tube method
Temperature, K	Mass density, kg/m3	uncertainty
293.15	814.08	0.3
298.15	810.14	0.31
303.15	806.13	0.31
308.15	802.06	0.31

System: 2-heptanol; phases: Liquid
Fixed: Pressure, kPa = 101.325
Property: Refractive index (Na D-line) (Liquid); method: Standard Abbe refractometry
Temperature, K	Refractive index (Na D-line)	uncertainty
293.15	1.4206	0.0021
298.15	1.4188	0.0021
303.15	1.4165	0.0021
308.15	1.4143	0.0021

System: 2-heptanol; phases: Liquid
Fixed: Pressure, kPa = 101
Property: Viscosity, Pa*s (Liquid); method: Capillary tube (Ostwald; Ubbelohde) method
Temperature, K	Viscosity, Pa*s	uncertainty
293.15	0.0065198	7.17e-05
298.15	0.0053303	6.34e-05
303.15	0.0043006	5.18e-05
308.15	0.0035285	4.36e-05

System: 2-heptanol; phases: Liquid
Fixed: Pressure, kPa = 101
Property: Mass density, kg/m3 (Liquid); method: Vibrating tube method
Temperature, K	Mass density, kg/m3	uncertainty
293.15	817.18	0.3
298.15	813.33	0.3
303.15	809.44	0.31
308.15	805.5	0.31

System: propan-2-ol + acetonitrile; phases: Liquid
Fixed: Pressure, kPa = 101
Property: Viscosity, Pa*s (Liquid); method: Capillary tube (Ostwald; Ubbelohde) method
Temperature, K	Mole fraction of acetonitrile	Viscosity, Pa*s	uncertainty
293.15	0	0.0023511	2.42e-05
293.15	0.0496	0.0019715	2.12e-05
293.15	0.0906	0.0016877	1.84e-05
293.15	0.1529	0.0013682	1.45e-05
293.15	0.2022	0.0011759	1.25e-05
293.15	0.2783	0.0009608	1.03e-05
293.15	0.3678	0.0007912	8.4e-06
293.15	0.4768	0.0006502	6.8e-06
293.15	0.6132	0.00051	5.7e-06
293.15	0.7714	0.0004156	4.8e-06
293.15	0.9207	0.0003716	4.2e-06
293.15	1	0.0003542	4e-06
298.15	0	0.0020439	2.18e-05
298.15	0.0496	0.0016909	1.82e-05
298.15	0.0906	0.0014612	1.55e-05
298.15	0.1529	0.0012074	1.27e-05
298.15	0.2022	0.001044	1.1e-05
298.15	0.2783	0.0008677	8.9e-06
298.15	0.3678	0.0007248	7.5e-06
298.15	0.4768	0.0006062	6.4e-06
298.15	0.6132	0.0004735	5.1e-06
298.15	0.7714	0.000384	4.3e-06
298.15	0.9207	0.0003499	3.9e-06
298.15	1	0.0003369	3.8e-06
303.15	0	0.0017583	1.89e-05
303.15	0.0496	0.0014742	1.56e-05
303.15	0.0906	0.0012875	1.34e-05
303.15	0.1529	0.0010692	1.12e-05
303.15	0.2022	0.0009367	9.7e-06
303.15	0.2783	0.0007975	8.3e-06
303.15	0.3678	0.0006615	7e-06
303.15	0.4768	0.0005492	5.9e-06
303.15	0.6132	0.0004429	4.8e-06
303.15	0.7714	0.0003617	4e-06
303.15	0.9207	0.0003311	3.8e-06
303.15	1	0.0003254	3.7e-06
308.15	0	0.0015315	1.66e-05
308.15	0.0496	0.0012958	1.35e-05
308.15	0.0906	0.00115	1.19e-05
308.15	0.1529	0.0009576	9.8e-06
308.15	0.2022	0.000846	8.7e-06
308.15	0.2783	0.0007168	7.5e-06
308.15	0.3678	0.0006057	6.3e-06
308.15	0.4768	0.0005051	5.4e-06
308.15	0.6132	0.0004111	4.5e-06
308.15	0.7714	0.0003442	3.8e-06
308.15	0.9207	0.0003202	3.6e-06
308.15	1	0.0003082	3.6e-06

System: propan-2-ol + acetonitrile; phases: Liquid
Fixed: Pressure, kPa = 101
Property: Refractive index (Na D-line) (Liquid); method: Standard Abbe refractometry
Temperature, K	Mole fraction of acetonitrile	Refractive index (Na D-line)	uncertainty
293.15	0	1.3766	0.0021
293.15	0.0496	1.3757	0.0021
293.15	0.0906	1.3751	0.0021
293.15	0.1529	1.3737	0.0021
293.15	0.2022	1.3726	0.0021
293.15	0.2783	1.3705	0.0021
293.15	0.3678	1.3677	0.002
293.15	0.4768	1.364	0.002
293.15	0.6132	1.359	0.002
293.15	0.7714	1.3528	0.002
293.15	0.9207	1.3469	0.0021
293.15	1	1.3436	0.0021
298.15	0	1.3745	0.0021
298.15	0.0496	1.3733	0.0021
298.15	0.0906	1.3724	0.0021
298.15	0.1529	1.3713	0.0021
298.15	0.2022	1.3702	0.0021
298.15	0.2783	1.3687	0.0021
298.15	0.3678	1.3667	0.0021
298.15	0.4768	1.3635	0.0021
298.15	0.6132	1.3591	0.0021
298.15	0.7714	1.3528	0.002
298.15	0.9207	1.3452	0.0021
298.15	1	1.3411	0.0021
303.15	0	1.3724	0.0021
303.15	0.0496	1.3715	0.0021
303.15	0.0906	1.3707	0.0021
303.15	0.1529	1.3694	0.0021
303.15	0.2022	1.3684	0.0021
303.15	0.2783	1.3666	0.0021
303.15	0.3678	1.3641	0.0021
303.15	0.4768	1.3608	0.0021
303.15	0.6132	1.3561	0.0021
303.15	0.7714	1.35	0.0021
303.15	0.9207	1.3433	0.0021
303.15	1	1.339	0.0021
308.15	0	1.3703	0.0021
308.15	0.0496	1.3694	0.0021
308.15	0.0906	1.3687	0.0021
308.15	0.1529	1.3679	0.0021
308.15	0.2022	1.367	0.002
308.15	0.2783	1.3657	0.002
308.15	0.3678	1.3637	0.002
308.15	0.4768	1.3605	0.002
308.15	0.6132	1.3557	0.002
308.15	0.7714	1.3491	0.002
308.15	0.9207	1.3417	0.0021
308.15	1	1.3371	0.0021

System: propan-2-ol + acetonitrile; phases: Liquid
Fixed: Pressure, kPa = 101
Property: Mass density, kg/m3 (Liquid); method: Vibrating tube method
Temperature, K	Mole fraction of acetonitrile	Mass density, kg/m3	uncertainty
293.15	0	785.19	0.31
293.15	0.0496	784.97	0.31
293.15	0.0906	784.72	0.31
293.15	0.1529	784.31	0.31
293.15	0.2022	783.9	0.31
293.15	0.2783	783.36	0.31
293.15	0.3678	782.71	0.31
293.15	0.4768	782.02	0.31
293.15	0.6132	781.53	0.31
293.15	0.7714	781.13	0.31
293.15	0.9207	781.26	0.31
293.15	1	782.04	0.31
298.15	0	780.98	0.31
298.15	0.0496	780.76	0.31
298.15	0.0906	780.3	0.3
298.15	0.1529	779.7	0.3
298.15	0.2022	779.7	0.3
298.15	0.2783	779.2	0.3
298.15	0.3678	777.65	0.31
298.15	0.4768	778.79	0.31
298.15	0.6132	776.2	0.31
298.15	0.7714	775.79	0.31
298.15	0.9207	775.95	0.31
298.15	1	776.64	0.31
303.15	0	776.71	0.31
303.15	0.0496	776.32	0.31
303.15	0.0906	775.84	0.31
303.15	0.1529	775.13	0.31
303.15	0.2022	774.54	0.31
303.15	0.2783	773.97	0.31
303.15	0.3678	772.88	0.31
303.15	0.4768	771.84	0.31
303.15	0.6132	771.13	0.31
303.15	0.7714	770.52	0.31
303.15	0.9207	770.59	0.31
303.15	1	771.21	0.31
308.15	0	772.36	0.31
308.15	0.0496	771.86	0.31
308.15	0.0906	771.31	0.31
308.15	0.1529	770.57	0.31
308.15	0.2022	769.92	0.31
308.15	0.2783	768.98	0.31
308.15	0.3678	767.8	0.31
308.15	0.4768	766.44	0.31
308.15	0.6132	765.75	0.31
308.15	0.7714	765.26	0.31
308.15	0.9207	765.18	0.31
308.15	1	765.75	0.31

System: acetonitrile + butan-2-ol; phases: Liquid
Fixed: Pressure, kPa = 101
Property: Viscosity, Pa*s (Liquid); method: Capillary tube (Ostwald; Ubbelohde) method
Temperature, K	Mole fraction of acetonitrile	Viscosity, Pa*s	uncertainty
293.15	0	0.0039119	4.61e-05
293.15	0.0844	0.0025031	3.08e-05
293.15	0.1644	0.0016545	1.89e-05
293.15	0.2516	0.0013764	1.4e-05
293.15	0.3369	0.001089	1.15e-05
293.15	0.4444	0.0008564	8.8e-06
293.15	0.5382	0.0006953	7.2e-06
293.15	0.6425	0.0005565	6.1e-06
293.15	0.761	0.0004636	5.2e-06
293.15	0.8715	0.0003984	4.3e-06
293.15	0.9588	0.0003663	4e-06
293.15	1	0.0003542	4e-06
298.15	0	0.0031318	3.89e-05
298.15	0.0844	0.0021353	2.38e-05
298.15	0.1644	0.0015742	1.53e-05
298.15	0.2516	0.0012185	1.27e-05
298.15	0.3369	0.000992	1.02e-05
298.15	0.4444	0.0007937	8.2e-06
298.15	0.5382	0.0006498	6.8e-06
298.15	0.6425	0.000518	5.5e-06
298.15	0.761	0.0004216	4.6e-06
298.15	0.8715	0.0003868	4.2e-06
298.15	0.9588	0.0003632	4e-06
298.15	1	0.0003369	3.8e-06
303.15	0	0.002534	2.95e-05
303.15	0.0844	0.0017943	1.97e-05
303.15	0.1644	0.0013829	1.46e-05
303.15	0.2516	0.0010822	1.13e-05
303.15	0.3369	0.0008873	9.3e-06
303.15	0.4444	0.0007129	7.5e-06
303.15	0.5382	0.0005936	6.3e-06
303.15	0.6425	0.0004865	5.2e-06
303.15	0.761	0.0004019	4.4e-06
303.15	0.8715	0.0003612	4.1e-06
303.15	0.9588	0.0003414	3.9e-06
303.15	1	0.0003254	3.7e-06
308.15	0	0.0021723	2.42e-05
308.15	0.0844	0.0015718	1.55e-05
308.15	0.1644	0.0012127	1.23e-05
308.15	0.2516	0.0009642	9.8e-06
308.15	0.3369	0.0008021	8.2e-06
308.15	0.4444	0.0006524	6.8e-06
308.15	0.5382	0.0005479	5.8e-06
308.15	0.6425	0.0004533	4.8e-06
308.15	0.761	0.000379	4.1e-06
308.15	0.8715	0.0003437	3.9e-06
308.15	0.9588	0.0003238	3.7e-06
308.15	1	0.0003082	3.6e-06

System: acetonitrile + butan-2-ol; phases: Liquid
Fixed: Pressure, kPa = 101
Property: Refractive index (Na D-line) (Liquid); method: Standard Abbe refractometry
Temperature, K	Mole fraction of acetonitrile	Refractive index (Na D-line)	uncertainty
293.15	0	1.3966	0.0021
293.15	0.0844	1.3952	0.0021
293.15	0.1644	1.393	0.0021
293.15	0.2516	1.3899	0.0021
293.15	0.3369	1.386	0.0021
293.15	0.4444	1.3804	0.0021
293.15	0.5382	1.3751	0.0021
293.15	0.6425	1.3686	0.002
293.15	0.761	1.361	0.002
293.15	0.8715	1.3534	0.002
293.15	0.9588	1.3467	0.0021
293.15	1	1.3436	0.0021
298.15	0	1.3946	0.0021
298.15	0.0844	1.3918	0.0021
298.15	0.1644	1.3893	0.0021
298.15	0.2516	1.3865	0.0021
298.15	0.3369	1.383	0.0021
298.15	0.4444	1.3782	0.002
298.15	0.5382	1.3734	0.0021
298.15	0.6425	1.3674	0.0021
298.15	0.761	1.3597	0.0021
298.15	0.8715	1.3518	0.0021
298.15	0.9588	1.3448	0.0021
298.15	1	1.3411	0.0021
303.15	0	1.3924	0.0021
303.15	0.0844	1.3902	0.0021
303.15	0.1644	1.3886	0.0021
303.15	0.2516	1.386	0.0021
303.15	0.3369	1.3829	0.0021
303.15	0.4444	1.3779	0.0021
303.15	0.5382	1.3722	0.002
303.15	0.6425	1.3656	0.002
303.15	0.761	1.3575	0.002
303.15	0.8715	1.3495	0.002
303.15	0.9588	1.3426	0.002
303.15	1	1.339	0.0021
308.15	0	1.3905	0.0021
308.15	0.0844	1.3876	0.0021
308.15	0.1644	1.3853	0.0021
308.15	0.2516	1.3825	0.0021
308.15	0.3369	1.3799	0.0021
308.15	0.4444	1.3753	0.0021
308.15	0.5382	1.3713	0.002
308.15	0.6425	1.3659	0.002
308.15	0.761	1.3592	0.002
308.15	0.8715	1.351	0.002
308.15	0.9588	1.3423	0.002
308.15	1	1.3371	0.0021

System: acetonitrile + butan-2-ol; phases: Liquid
Fixed: Pressure, kPa = 101
Property: Mass density, kg/m3 (Liquid); method: Vibrating tube method
Temperature, K	Mole fraction of acetonitrile	Mass density, kg/m3	uncertainty
293.15	0	806.57	0.31
293.15	0.0844	804.53	0.31
293.15	0.1644	802.5	0.3
293.15	0.2516	800.41	0.31
293.15	0.3369	798.33	0.31
293.15	0.4444	795.68	0.31
293.15	0.5382	793.35	0.31
293.15	0.6425	790.7	0.3
293.15	0.761	788.1	0.3
293.15	0.8715	785.92	0.31
293.15	0.9588	783.48	0.31
293.15	1	782.04	0.31
298.15	0	802.56	0.31
298.15	0.0844	800.28	0.31
298.15	0.1644	798.07	0.31
298.15	0.2516	795.79	0.31
298.15	0.3369	793.63	0.31
298.15	0.4444	790.96	0.31
298.15	0.5382	788.5	0.3
298.15	0.6425	785.67	0.31
298.15	0.761	782.65	0.31
298.15	0.8715	779.99	0.31
298.15	0.9588	777.71	0.31
298.15	1	776.64	0.31
303.15	0	798.26	0.31
303.15	0.0844	795.95	0.31
303.15	0.1644	793.74	0.31
303.15	0.2516	791.38	0.31
303.15	0.3369	789.07	0.31
303.15	0.4444	786.17	0.31
303.15	0.5382	783.62	0.31
303.15	0.6425	780.73	0.31
303.15	0.761	777.45	0.31
303.15	0.8715	774.43	0.31
303.15	0.9588	772.05	0.31
303.15	1	771.21	0.31
308.15	0	793.96	0.31
308.15	0.0844	791.55	0.31
308.15	0.1644	789.27	0.31
308.15	0.2516	786.77	0.31
308.15	0.3369	784.37	0.31
308.15	0.4444	781.35	0.31
308.15	0.5382	778.69	0.31
308.15	0.6425	775.68	0.31
308.15	0.761	772.27	0.31
308.15	0.8715	768.99	0.31
308.15	0.9588	766.51	0.31
308.15	1	765.75	0.31

System: acetonitrile + pentan-2-ol; phases: Liquid
Fixed: Pressure, kPa = 101
Property: Viscosity, Pa*s (Liquid); method: Capillary tube (Ostwald; Ubbelohde) method
Temperature, K	Mole fraction of acetonitrile	Viscosity, Pa*s	uncertainty
293.15	0	0.0042982	0.0008608
293.15	0.116	0.002544	0.0005096
293.15	0.1727	0.0020931	0.0004191
293.15	0.2827	0.0015337	0.0003071
293.15	0.3546	0.0012618	0.0002526
293.15	0.4458	0.0010078	0.0002018
293.15	0.5366	0.00081	0.0001622
293.15	0.6488	0.0006391	0.0001279
293.15	0.7671	0.0005048	0.0001011
293.15	0.8793	0.0004119	8.25e-05
293.15	0.9578	0.0003705	7.42e-05
293.15	1	0.0003542	7.09e-05
298.15	0	0.0034785	0.000698
298.15	0.116	0.0021703	0.0004349
298.15	0.1727	0.0018045	0.0003615
298.15	0.2827	0.0013619	0.0002727
298.15	0.3546	0.0011248	0.0002252
298.15	0.4458	0.0009044	0.0001811
298.15	0.5366	0.0007392	0.000148
298.15	0.6488	0.0005884	0.0001178
298.15	0.7671	0.0004715	9.44e-05
298.15	0.8793	0.000391	7.83e-05
298.15	0.9578	0.0003537	7.08e-05
298.15	1	0.0003369	6.74e-05
303.15	0	0.0017583	0.000354
303.15	0.116	0.0014742	0.0002956
303.15	0.1727	0.0012875	0.000258
303.15	0.2827	0.0010692	0.0002141
303.15	0.3546	0.0009367	0.0001876
303.15	0.4458	0.0007975	0.0001597
303.15	0.5366	0.0006615	0.0001324
303.15	0.6488	0.0005492	0.0001099
303.15	0.7671	0.0004429	8.87e-05
303.15	0.8793	0.0003617	7.24e-05
303.15	0.9578	0.0003311	6.63e-05
303.15	1	0.0003254	6.51e-05
308.15	0	0.0015315	0.0003066
308.15	0.116	0.0012958	0.0002595
308.15	0.1727	0.00115	0.0002302
308.15	0.2827	0.0009576	0.0001917
308.15	0.3546	0.000846	0.0001694
308.15	0.4458	0.0007168	0.0001435
308.15	0.5366	0.0006057	0.0001212
308.15	0.6488	0.0005051	0.0001011
308.15	0.7671	0.0004111	8.23e-05
308.15	0.8793	0.0003442	6.89e-05
308.15	0.9578	0.0003202	6.41e-05
308.15	1	0.0003082	6.17e-05

System: acetonitrile + pentan-2-ol; phases: Liquid
Fixed: Pressure, kPa = 101
Property: Refractive index (Na D-line) (Liquid); method: Standard Abbe refractometry
Temperature, K	Mole fraction of acetonitrile	Refractive index (Na D-line)	uncertainty
293.15	0	1.406	0.0021
293.15	0.116	1.4035	0.0021
293.15	0.1727	1.402	0.0021
293.15	0.2827	1.3981	0.0021
293.15	0.3546	1.3951	0.002
293.15	0.4458	1.3908	0.002
293.15	0.5366	1.3858	0.002
293.15	0.6488	1.3779	0.002
293.15	0.7671	1.3674	0.002
293.15	0.8793	1.3561	0.002
293.15	0.9578	1.3478	0.0021
293.15	1	1.3436	0.0021
298.15	0	1.4045	0.0039
298.15	0.116	1.4012	0.0038
298.15	0.1727	1.3999	0.0037
298.15	0.2827	1.3965	0.0035
298.15	0.3546	1.3941	0.0034
298.15	0.4458	1.3901	0.0032
298.15	0.5366	1.3848	0.003
298.15	0.6488	1.3764	0.0027
298.15	0.7671	1.3657	0.0023
298.15	0.8793	1.3548	0.0021
298.15	0.9578	1.3461	0.0021
298.15	1	1.3411	0.0021
303.15	0	1.3724	0.004
303.15	0.116	1.3715	0.0038
303.15	0.1727	1.3707	0.0037
303.15	0.2827	1.3694	0.0035
303.15	0.3546	1.3684	0.0034
303.15	0.4458	1.3666	0.0032
303.15	0.5366	1.3641	0.0029
303.15	0.6488	1.3608	0.0026
303.15	0.7671	1.3561	0.0023
303.15	0.8793	1.35	0.0021
303.15	0.9578	1.3433	0.0021
303.15	1	1.339	0.0021
308.15	0	1.3703	0.0021
308.15	0.116	1.3694	0.0021
308.15	0.1727	1.3687	0.0021
308.15	0.2827	1.3679	0.0021
308.15	0.3546	1.367	0.0021
308.15	0.4458	1.3657	0.002
308.15	0.5366	1.3637	0.002
308.15	0.6488	1.3605	0.002
308.15	0.7671	1.3557	0.002
308.15	0.8793	1.3491	0.0021
308.15	0.9578	1.3417	0.0021
308.15	1	1.3371	0.0021

System: acetonitrile + pentan-2-ol; phases: Liquid
Fixed: Pressure, kPa = 101
Property: Mass density, kg/m3 (Liquid); method: Vibrating tube method
Temperature, K	Mole fraction of acetonitrile	Mass density, kg/m3	uncertainty
293.15	0	809.29	0.31
293.15	0.116	806.75	0.31
293.15	0.1727	805.46	0.31
293.15	0.2827	802.79	0.31
293.15	0.3546	801.01	0.31
293.15	0.4458	798.66	0.31
293.15	0.5366	796.26	0.31
293.15	0.6488	793.09	0.31
293.15	0.7671	789.52	0.31
293.15	0.8793	786.03	0.31
293.15	0.9578	783.59	0.31
293.15	1	782.04	0.31
298.15	0	805.24	0.31
298.15	0.116	802.61	0.31
298.15	0.1727	801.25	0.31
298.15	0.2827	798.55	0.31
298.15	0.3546	796.68	0.31
298.15	0.4458	794.17	0.31
298.15	0.5366	791.6	0.3
298.15	0.6488	788.28	0.31
298.15	0.7671	784.54	0.31
298.15	0.8793	780.88	0.31
298.15	0.9578	778.28	0.31
298.15	1	776.64	0.31
303.15	0	801.13	0.31
303.15	0.116	798.39	0.31
303.15	0.1727	796.93	0.31
303.15	0.2827	794.05	0.31
303.15	0.3546	792.08	0.31
303.15	0.4458	789.54	0.31
303.15	0.5366	786.91	0.31
303.15	0.6488	783.41	0.31
303.15	0.7671	779.52	0.31
303.15	0.8793	775.68	0.31
303.15	0.9578	772.96	0.31
303.15	1	771.21	0.31
308.15	0	796.94	0.31
308.15	0.116	794.1	0.31
308.15	0.1727	792.65	0.31
308.15	0.2827	789.63	0.31
308.15	0.3546	787.6	0.31
308.15	0.4458	784.92	0.31
308.15	0.5366	782.17	0.31
308.15	0.6488	778.55	0.31
308.15	0.7671	774.47	0.31
308.15	0.8793	770.45	0.31
308.15	0.9578	767.48	0.31
308.15	1	765.75	0.31

System: acetonitrile + 2-hexanol; phases: Liquid
Fixed: Pressure, kPa = 101
Property: Viscosity, Pa*s (Liquid); method: Capillary tube (Ostwald; Ubbelohde) method
Temperature, K	Mole fraction of acetonitrile	Viscosity, Pa*s	uncertainty
293.15	0	0.005155	6.1e-05
293.15	0.0964	0.0034907	4.41e-05
293.15	0.1813	0.0026962	3.02e-05
293.15	0.2574	0.0021277	2.36e-05
293.15	0.3436	0.0016839	1.82e-05
293.15	0.4483	0.0012763	1.38e-05
293.15	0.5398	0.0010062	1.08e-05
293.15	0.6495	0.0007676	8.2e-06
293.15	0.758	0.000582	6.4e-06
293.15	0.8733	0.0004444	4.9e-06
293.15	0.9579	0.0003758	4.2e-06
293.15	1	0.0003542	4e-06
298.15	0	0.0041	5e-05
298.15	0.0964	0.0029326	3.26e-05
298.15	0.1813	0.0022839	2.5e-05
298.15	0.2574	0.0018402	1.96e-05
298.15	0.3436	0.0014749	1.55e-05
298.15	0.4483	0.0011327	1.18e-05
298.15	0.5398	0.0009062	9.4e-06
298.15	0.6495	0.0006995	7.3e-06
298.15	0.758	0.0005384	5.7e-06
298.15	0.8733	0.0004184	4.6e-06
298.15	0.9579	0.0003583	4e-06
298.15	1	0.000336	4e-06
303.15	0	0.00341	4e-05
303.15	0.0964	0.0024914	2.72e-05
303.15	0.1813	0.0019671	2.11e-05
303.15	0.2574	0.00161	1.69e-05
303.15	0.3436	0.0013014	1.36e-05
303.15	0.4483	0.0010167	1.05e-05
303.15	0.5398	0.00082121	8.51e-06
303.15	0.6495	0.0006409	6.7e-06
303.15	0.758	0.0005036	5.3e-06
303.15	0.8733	0.0003943	4.3e-06
303.15	0.9579	0.0003411	3.8e-06
303.15	1	0.000325	4e-06
308.15	0	0.002819	3.4e-05
308.15	0.0964	0.0021336	2.24e-05
308.15	0.1813	0.0017084	1.79e-05
308.15	0.2574	0.0014198	1.47e-05
308.15	0.3436	0.0011548	1.18e-05
308.15	0.4483	0.0009154	9.4e-06
308.15	0.5398	0.0007511	7.7e-06
308.15	0.6495	0.0005933	6.1e-06
308.15	0.758	0.0004724	5e-06
308.15	0.8733	0.0003759	4.1e-06
308.15	0.9579	0.0003263	3.7e-06
308.15	1	0.000308	4e-06

System: acetonitrile + 2-hexanol; phases: Liquid
Fixed: Pressure, kPa = 101
Property: Refractive index (Na D-line) (Liquid); method: Standard Abbe refractometry
Temperature, K	Mole fraction of acetonitrile	Refractive index (Na D-line)	uncertainty
293.15	0	1.4135	0.0021
293.15	0.0964	1.4103	0.002
293.15	0.1813	1.4077	0.002
293.15	0.2574	1.4051	0.002
293.15	0.3436	1.4014	0.002
293.15	0.4483	1.3972	0.002
293.15	0.5398	1.3917	0.002
293.15	0.6495	1.3837	0.002
293.15	0.758	1.3739	0.002
293.15	0.8733	1.3621	0.0021
293.15	0.9579	1.351	0.0021
293.15	1	1.3436	0.0021
298.15	0	1.4116	0.0021
298.15	0.0964	1.4096	0.002
298.15	0.1813	1.4078	0.002
298.15	0.2574	1.4054	0.002
298.15	0.3436	1.4022	0.002
298.15	0.4483	1.3975	0.002
298.15	0.5398	1.3924	0.002
298.15	0.6495	1.3837	0.002
298.15	0.758	1.373	0.002
298.15	0.8733	1.3595	0.002
298.15	0.9579	1.348	0.0021
298.15	1	1.3411	0.0021
303.15	0	1.4093	0.0021
303.15	0.0964	1.4082	0.002
303.15	0.1813	1.4064	0.002
303.15	0.2574	1.4044	0.002
303.15	0.3436	1.4021	0.002
303.15	0.4483	1.3979	0.002
303.15	0.5398	1.3925	0.002
303.15	0.6495	1.3839	0.002
303.15	0.758	1.374	0.002
303.15	0.8733	1.3596	0.002
303.15	0.9579	1.345	0.002
303.15	1	1.339	0.0021
308.15	0	1.4077	0.0021
308.15	0.0964	1.4069	0.002
308.15	0.1813	1.4061	0.002
308.15	0.2574	1.4049	0.002
308.15	0.3436	1.4026	0.002
308.15	0.4483	1.3979	0.002
308.15	0.5398	1.3925	0.002
308.15	0.6495	1.3844	0.002
308.15	0.758	1.3745	0.002
308.15	0.8733	1.361	0.002
308.15	0.9579	1.3469	0.002
308.15	1	1.3371	0.0021

System: acetonitrile + 2-hexanol; phases: Liquid
Fixed: Pressure, kPa = 101
Property: Mass density, kg/m3 (Liquid); method: Vibrating tube method
Temperature, K	Mole fraction of acetonitrile	Mass density, kg/m3	uncertainty
293.15	0	814.08	0.3
293.15	0.0964	812.14	0.31
293.15	0.1813	810.22	0.31
293.15	0.2574	808.34	0.31
293.15	0.3436	806.07	0.31
293.15	0.4483	803.11	0.31
293.15	0.5398	800.33	0.31
293.15	0.6495	796.76	0.31
293.15	0.758	792.88	0.31
293.15	0.8733	788.19	0.31
293.15	0.9579	784.29	0.31
293.15	1	782.04	0.31
298.15	0	810.14	0.31
298.15	0.0964	808.14	0.31
298.15	0.1813	806.14	0.31
298.15	0.2574	804.19	0.31
298.15	0.3436	801.82	0.31
298.15	0.4483	798.72	0.31
298.15	0.5398	795.82	0.31
298.15	0.6495	792.09	0.31
298.15	0.758	788.02	0.31
298.15	0.8733	783.08	0.31
298.15	0.9579	779.02	0.31
298.15	1	776.64	0.31
303.15	0	806.13	0.31
303.15	0.0964	804.04	0.31
303.15	0.1813	801.94	0.31
303.15	0.2574	799.91	0.31
303.15	0.3436	797.49	0.31
303.15	0.4483	794.38	0.31
303.15	0.5398	791.33	0.31
303.15	0.6495	787.45	0.31
303.15	0.758	783.07	0.31
303.15	0.8733	777.74	0.31
303.15	0.9579	773.37	0.31
303.15	1	771.21	0.31
308.15	0	802.06	0.31
308.15	0.0964	799.97	0.31
308.15	0.1813	797.84	0.31
308.15	0.2574	795.74	0.31
308.15	0.3436	793.18	0.31
308.15	0.4483	789.88	0.31
308.15	0.5398	786.73	0.31
308.15	0.6495	782.83	0.31
308.15	0.758	778.36	0.31
308.15	0.8733	772.84	0.31
308.15	0.9579	768.23	0.31
308.15	1	765.75	0.31

System: acetonitrile + 2-heptanol; phases: Liquid
Fixed: Pressure, kPa = 101
Property: Viscosity, Pa*s (Liquid); method: Capillary tube (Ostwald; Ubbelohde) method
Temperature, K	Mole fraction of acetonitrile	Viscosity, Pa*s	uncertainty
293.15	0	0.0065198	0.0006552
293.15	0.1142	0.0043265	0.0004354
293.15	0.1947	0.0033365	0.0003353
293.15	0.251	0.0027697	0.0002783
293.15	0.3491	0.0021331	0.0002143
293.15	0.4525	0.0015843	0.0001592
293.15	0.5436	0.0012387	0.0001244
293.15	0.6702	0.0008636	8.67e-05
293.15	0.7574	0.0006732	6.76e-05
293.15	0.877	0.0005444	5.46e-05
293.15	0.9588	0.0003857	3.87e-05
293.15	1	0.0003542	3.56e-05
298.15	0	0.0053303	0.0005362
298.15	0.1142	0.0035832	0.0003602
298.15	0.1947	0.0028206	0.0002834
298.15	0.251	0.0024016	0.0002412
298.15	0.3491	0.0018531	0.0001861
298.15	0.4525	0.0013949	0.00014
298.15	0.5436	0.0011061	0.000111
298.15	0.6702	0.0007855	7.88e-05
298.15	0.7574	0.0006191	6.21e-05
298.15	0.877	0.000512	5.14e-05
298.15	0.9588	0.0003652	3.67e-05
298.15	1	0.0003369	3.38e-05
303.15	0	0.0043006	0.0004326
303.15	0.1142	0.0030302	0.0003045
303.15	0.1947	0.0024092	0.000242
303.15	0.251	0.0020664	0.0002075
303.15	0.3491	0.0016188	0.0001625
303.15	0.4525	0.0012505	0.0001255
303.15	0.5436	0.0009893	9.93e-05
303.15	0.6702	0.0007174	7.2e-05
303.15	0.7574	0.0005762	5.78e-05
303.15	0.877	0.0004829	4.85e-05
303.15	0.9588	0.0003483	3.5e-05
303.15	1	0.0003254	3.27e-05
308.15	0	0.0035285	0.0003551
308.15	0.1142	0.0025779	0.0002589
308.15	0.1947	0.002072	0.000208
308.15	0.251	0.001816	0.0001823
308.15	0.3491	0.001466	0.0001471
308.15	0.4525	0.0011116	0.0001116
308.15	0.5436	0.0008985	9.02e-05
308.15	0.6702	0.0006625	6.65e-05
308.15	0.7574	0.000539	5.41e-05
308.15	0.877	0.0004454	4.47e-05
308.15	0.9588	0.0003326	3.34e-05
308.15	1	0.0003082	3.09e-05

System: acetonitrile + 2-heptanol; phases: Liquid
Fixed: Pressure, kPa = 101
Property: Refractive index (Na D-line) (Liquid); method: Standard Abbe refractometry
Temperature, K	Mole fraction of acetonitrile	Refractive index (Na D-line)	uncertainty
293.15	0	1.4206	0.0021
293.15	0.1142	1.417	0.002
293.15	0.1947	1.4145	0.002
293.15	0.251	1.4124	0.002
293.15	0.3491	1.4094	0.002
293.15	0.4525	1.4042	0.002
293.15	0.5436	1.3986	0.002
293.15	0.6702	1.3881	0.002
293.15	0.7574	1.3793	0.002
293.15	0.877	1.3637	0.002
293.15	0.9588	1.3516	0.002
293.15	1	1.3436	0.0021
298.15	0	1.4188	0.0021
298.15	0.1142	1.4158	0.002
298.15	0.1947	1.4146	0.002
298.15	0.251	1.4129	0.002
298.15	0.3491	1.4094	0.002
298.15	0.4525	1.4039	0.002
298.15	0.5436	1.3979	0.002
298.15	0.6702	1.3873	0.002
298.15	0.7574	1.3781	0.002
298.15	0.877	1.3629	0.002
298.15	0.9588	1.3503	0.0021
298.15	1	1.3411	0.0021
303.15	0	1.4165	0.0021
303.15	0.1142	1.4154	0.002
303.15	0.1947	1.4147	0.002
303.15	0.251	1.4135	0.002
303.15	0.3491	1.4093	0.002
303.15	0.4525	1.4029	0.002
303.15	0.5436	1.3973	0.002
303.15	0.6702	1.3863	0.002
303.15	0.7574	1.3774	0.0021
303.15	0.877	1.362	0.0021
303.15	0.9588	1.3481	0.0021
303.15	1	1.339	0.0021
308.15	0	1.4143	0.0021
308.15	0.1142	1.4139	0.0021
308.15	0.1947	1.413	0.0021
308.15	0.251	1.4116	0.0021
308.15	0.3491	1.4079	0.0021
308.15	0.4525	1.4022	0.002
308.15	0.5436	1.3958	0.0021
308.15	0.6702	1.3845	0.0021
308.15	0.7574	1.3744	0.0022
308.15	0.877	1.3576	0.0022
308.15	0.9588	1.3452	0.0022
308.15	1	1.3371	0.0021

System: acetonitrile + 2-heptanol; phases: Liquid
Fixed: Pressure, kPa = 101
Property: Mass density, kg/m3 (Liquid); method: Vibrating tube method
Temperature, K	Mole fraction of acetonitrile	Mass density, kg/m3	uncertainty
293.15	0	817.18	0.3
293.15	0.1142	814.97	0.3
293.15	0.1947	813.16	0.31
293.15	0.251	811.78	0.31
293.15	0.3491	809.24	0.31
293.15	0.4525	806.32	0.31
293.15	0.5436	803.52	0.31
293.15	0.6702	798.9	0.3
293.15	0.7574	795.18	0.31
293.15	0.877	789.27	0.31
293.15	0.9588	784.77	0.31
293.15	1	782.04	0.31
298.15	0	813.33	0.3
298.15	0.1142	811.07	0.31
298.15	0.1947	809.19	0.31
298.15	0.251	807.74	0.31
298.15	0.3491	805	0.31
298.15	0.4525	802.07	0.31
298.15	0.5436	799.12	0.31
298.15	0.6702	794.43	0.31
298.15	0.7574	790.57	0.31
298.15	0.877	784.26	0.31
298.15	0.9588	779.64	0.31
298.15	1	776.64	0.31
303.15	0	809.44	0.31
303.15	0.1142	807.06	0.31
303.15	0.1947	805.14	0.31
303.15	0.251	803.62	0.31
303.15	0.3491	800.93	0.31
303.15	0.4525	797.79	0.31
303.15	0.5436	794.69	0.31
303.15	0.6702	789.88	0.31
303.15	0.7574	786	0.31
303.15	0.877	779.5	0.31
303.15	0.9588	774.36	0.31
303.15	1	771.21	0.31
308.15	0	805.5	0.31
308.15	0.1142	803.17	0.31
308.15	0.1947	801.12	0.31
308.15	0.251	799.49	0.31
308.15	0.3491	796.53	0.31
308.15	0.4525	793.31	0.31
308.15	0.5436	790.11	0.31
308.15	0.6702	785.23	0.31
308.15	0.7574	781.16	0.31
308.15	0.877	774.15	0.31
308.15	0.9588	768.93	0.31
308.15	1	765.75	0.31
