Measured thermophysical data. Thermal characteristics of solid solid phase transitions in long-chain dialkyl ammonium salts
Source: Thermochim. Acta, 2005, 10.1016/j.tca.2005.04.019
Compound 1: N-octyl-1-octaminium hydrochloride, C16H36ClN, InChI=1S/C16H35N.ClH/c1-3-5-7-9-11-13-15-17-16-14-12-10-8-6-4-2;/h17H,3-16H2,1-2H3;1H
Compound 2: N-octyloctan-1-aminium nitrate, C16H36N2O3, InChI=1S/C16H35N.NO3/c1-3-5-7-9-11-13-15-17-16-14-12-10-8-6-4-2;2-1(3)4/h17H,3-16H2,1-2H3;/q;-1/p+1
Compound 3: N-octyloctan-1-aminium bromide, C16H36BrN, InChI=1S/C16H35N.BrH/c1-3-5-7-9-11-13-15-17-16-14-12-10-8-6-4-2;/h17H,3-16H2,1-2H3;1H
Compound 4: N-octyloctan-1-aminium iodide, C16H36IN, InChI=1S/C16H35N.HI/c1-3-5-7-9-11-13-15-17-16-14-12-10-8-6-4-2;/h17H,3-16H2,1-2H3;1H
Compound 5: dioctylammonium hydrogen sulfate, C16H37NO4S, InChI=1S/C16H35N.H2O4S/c1-3-5-7-9-11-13-15-17-16-14-12-10-8-6-4-2;1-5(2,3)4/h17H,3-16H2,1-2H3;(H2,1,2,3,4)
Compound 6: N-octyloctan-1-aminium chlorate, C16H36ClNO3, InChI=1S/C16H35N.ClHO3/c1-3-5-7-9-11-13-15-17-16-14-12-10-8-6-4-2;2-1(3)4/h17H,3-16H2,1-2H3;(H,2,3,4)
Compound 7: N-octyloctan-1-aminium perchlorate, C16H36ClNO4, InChI=1S/C16H35N.ClHO4/c1-3-5-7-9-11-13-15-17-16-14-12-10-8-6-4-2;2-1(3,4)5/h17H,3-16H2,1-2H3;(H,2,3,4,5)
Compound 8: N-octyloctan-1-aminium dihydrogen phosphate, C16H38NO4P, InChI=1S/C16H35N.H3O4P/c1-3-5-7-9-11-13-15-17-16-14-12-10-8-6-4-2;1-5(2,3)4/h17H,3-16H2,1-2H3;(H3,1,2,3,4)
Compound 9: N-decyldecan-1-aminium nitrate, C20H44N2O3, InChI=1S/C20H43N.NO3/c1-3-5-7-9-11-13-15-17-19-21-20-18-16-14-12-10-8-6-4-2;2-1(3)4/h21H,3-20H2,1-2H3;/q;-1/p+1
Compound 10: didecylammonium chloride, C20H44ClN, InChI=1S/C20H43N.ClH/c1-3-5-7-9-11-13-15-17-19-21-20-18-16-14-12-10-8-6-4-2;/h21H,3-20H2,1-2H3;1H
Compound 11: N-decyldecan-1-aminium bromide, C20H44BrN, InChI=1S/C20H43N.BrH/c1-3-5-7-9-11-13-15-17-19-21-20-18-16-14-12-10-8-6-4-2;/h21H,3-20H2,1-2H3;1H
Compound 12: N-decyldecan-1-aminium chlorate, C20H44ClNO3, InChI=1S/C20H43N.ClHO3/c1-3-5-7-9-11-13-15-17-19-21-20-18-16-14-12-10-8-6-4-2;2-1(3)4/h21H,3-20H2,1-2H3;(H,2,3,4)
Compound 13: N-decyldecan-1-aminium dihydrogen phosphate, C20H46NO4P, InChI=1S/C20H43N.H3O4P/c1-3-5-7-9-11-13-15-17-19-21-20-18-16-14-12-10-8-6-4-2;1-5(2,3)4/h21H,3-20H2,1-2H3;(H3,1,2,3,4)
Compound 14: N-dodecyldodecan-1-aminium nitrate, C24H52N2O3, InChI=1S/C24H51N.NO3/c1-3-5-7-9-11-13-15-17-19-21-23-25-24-22-20-18-16-14-12-10-8-6-4-2;2-1(3)4/h25H,3-24H2,1-2H3;/q;-1/p+1
Compound 15: N-dodecyldodecan-1-aminium chloride, C24H52ClN, InChI=1S/C24H51N.ClH/c1-3-5-7-9-11-13-15-17-19-21-23-25-24-22-20-18-16-14-12-10-8-6-4-2;/h25H,3-24H2,1-2H3;1H
Compound 16: N-dodecyldodecan-1-aminium bromide, C24H52BrN, InChI=1S/C24H51N.BrH/c1-3-5-7-9-11-13-15-17-19-21-23-25-24-22-20-18-16-14-12-10-8-6-4-2;/h25H,3-24H2,1-2H3;1H
Compound 17: N-dodecyldodecan-1-aminium iodide, C24H52IN, InChI=1S/C24H51N.HI/c1-3-5-7-9-11-13-15-17-19-21-23-25-24-22-20-18-16-14-12-10-8-6-4-2;/h25H,3-24H2,1-2H3;1H
Compound 18: N-dodecyldodecan-1-aminium hydrogen sulfate, C24H53NO4S, InChI=1S/C24H51N.H2O4S/c1-3-5-7-9-11-13-15-17-19-21-23-25-24-22-20-18-16-14-12-10-8-6-4-2;1-5(2,3)4/h25H,3-24H2,1-2H3;(H2,1,2,3,4)
Compound 19: N-dodecyldodecan-1-aminium chlorate, C24H52ClNO3, InChI=1S/C24H51N.ClHO3/c1-3-5-7-9-11-13-15-17-19-21-23-25-24-22-20-18-16-14-12-10-8-6-4-2;2-1(3)4/h25H,3-24H2,1-2H3;(H,2,3,4)
Compound 20: N-dodecyldodecan-1-aminium perchlorate, C24H52ClNO4, InChI=1S/C24H51N.ClHO4/c1-3-5-7-9-11-13-15-17-19-21-23-25-24-22-20-18-16-14-12-10-8-6-4-2;2-1(3,4)5/h25H,3-24H2,1-2H3;(H,2,3,4,5)
Compound 21: N-dodecyldodecan-1-aminium dihydrogen phosphate, C24H54NO4P, InChI=1S/C24H51N.H3O4P/c1-3-5-7-9-11-13-15-17-19-21-23-25-24-22-20-18-16-14-12-10-8-6-4-2;1-5(2,3)4/h25H,3-24H2,1-2H3;(H3,1,2,3,4)
Compound 22: N-octadecyloctadecan-1-aminium nitrate, C36H76N2O3, InChI=1S/C36H75N.NO3/c1-3-5-7-9-11-13-15-17-19-21-23-25-27-29-31-33-35-37-36-34-32-30-28-26-24-22-20-18-16-14-12-10-8-6-4-2;2-1(3)4/h37H,3-36H2,1-2H3;/q;-1/p+1
Compound 23: N-octadecyloctadecan-1-aminium chloride, C36H76ClN, InChI=1S/C36H75N.ClH/c1-3-5-7-9-11-13-15-17-19-21-23-25-27-29-31-33-35-37-36-34-32-30-28-26-24-22-20-18-16-14-12-10-8-6-4-2;/h37H,3-36H2,1-2H3;1H
Compound 24: N-octadecyloctadecan-1-aminium bromide, C36H76BrN, InChI=1S/C36H75N.BrH/c1-3-5-7-9-11-13-15-17-19-21-23-25-27-29-31-33-35-37-36-34-32-30-28-26-24-22-20-18-16-14-12-10-8-6-4-2;/h37H,3-36H2,1-2H3;1H
Compound 25: N-octadecyloctadecan-1-aminium iodide, C36H76IN, InChI=1S/C36H75N.HI/c1-3-5-7-9-11-13-15-17-19-21-23-25-27-29-31-33-35-37-36-34-32-30-28-26-24-22-20-18-16-14-12-10-8-6-4-2;/h37H,3-36H2,1-2H3;1H
Compound 26: N-octadecyloctadecan-1-aminium hydrogen sulfate, C36H77NO4S, InChI=1S/C36H75N.H2O4S/c1-3-5-7-9-11-13-15-17-19-21-23-25-27-29-31-33-35-37-36-34-32-30-28-26-24-22-20-18-16-14-12-10-8-6-4-2;1-5(2,3)4/h37H,3-36H2,1-2H3;(H2,1,2,3,4)
Compound 27: N-octadecyloctadecan-1-aminium chlorate, C36H76ClNO3, InChI=1S/C36H75N.ClHO3/c1-3-5-7-9-11-13-15-17-19-21-23-25-27-29-31-33-35-37-36-34-32-30-28-26-24-22-20-18-16-14-12-10-8-6-4-2;2-1(3)4/h37H,3-36H2,1-2H3;(H,2,3,4)
Compound 28: N-octadecyloctadecan-1-aminium perchlorate, C36H76ClNO4, InChI=1S/C36H75N.ClHO4/c1-3-5-7-9-11-13-15-17-19-21-23-25-27-29-31-33-35-37-36-34-32-30-28-26-24-22-20-18-16-14-12-10-8-6-4-2;2-1(3,4)5/h37H,3-36H2,1-2H3;(H,2,3,4,5)

System: N-octyl-1-octaminium hydrochloride; phases: Crystal 2, Crystal 1, Air at 1 atmosphere
Property: Molar enthalpy of transition or fusion, kJ/mol (Crystal 2); method: DSC
Molar enthalpy of transition or fusion, kJ/mol	uncertainty
37	1

System: N-octyl-1-octaminium hydrochloride; phases: Crystal 2, Crystal 1, Air at 1 atmosphere
Property: Triple point temperature, K (Crystal 2); method: DTA:corrimp
Triple point temperature, K	uncertainty
294.1	3

System: N-octyl-1-octaminium hydrochloride; phases: Crystal 2, Crystal 1, Air at 1 atmosphere
Property: Triple point temperature, K (Crystal 2); method: DTA:corrimp
Triple point temperature, K	uncertainty
294.1	3

System: N-octyloctan-1-aminium nitrate; phases: Crystal 2, Crystal 1, Air at 1 atmosphere
Property: Molar enthalpy of transition or fusion, kJ/mol (Crystal 2); method: DSC
Molar enthalpy of transition or fusion, kJ/mol	uncertainty
53.5	1

System: N-octyloctan-1-aminium nitrate; phases: Crystal 2, Crystal 1, Air at 1 atmosphere
Property: Triple point temperature, K (Crystal 2); method: DTA:corrimp
Triple point temperature, K	uncertainty
318.1	3

System: N-octyloctan-1-aminium bromide; phases: Crystal 2, Crystal 1, Air at 1 atmosphere
Property: Molar enthalpy of transition or fusion, kJ/mol (Crystal 2); method: DSC
Molar enthalpy of transition or fusion, kJ/mol	uncertainty
25	1

System: N-octyloctan-1-aminium bromide; phases: Crystal 2, Crystal 1, Air at 1 atmosphere
Property: Triple point temperature, K (Crystal 2); method: DTA:corrimp
Triple point temperature, K	uncertainty
303.1	5

System: N-octyloctan-1-aminium iodide; phases: Crystal 3, Crystal 1, Air at 1 atmosphere
Property: Molar enthalpy of transition or fusion, kJ/mol (Crystal 3); method: DSC
Molar enthalpy of transition or fusion, kJ/mol	uncertainty
21	1

System: N-octyloctan-1-aminium iodide; phases: Crystal 3, Crystal 2, Air at 1 atmosphere
Property: Triple point temperature, K (Crystal 3); method: DTA:corrimpFP
Triple point temperature, K	uncertainty
267.1	1

System: N-octyloctan-1-aminium iodide; phases: Crystal 2, Crystal 1, Air at 1 atmosphere
Property: Triple point temperature, K (Crystal 2); method: DTA:corrimp
Triple point temperature, K	uncertainty
271.1	1

System: dioctylammonium hydrogen sulfate; phases: Crystal 4, Crystal 3, Air at 1 atmosphere
Property: Molar enthalpy of transition or fusion, kJ/mol (Crystal 4); method: DSC
Molar enthalpy of transition or fusion, kJ/mol	uncertainty
4.1	0.2

System: dioctylammonium hydrogen sulfate; phases: Crystal 3, Crystal 2, Air at 1 atmosphere
Property: Molar enthalpy of transition or fusion, kJ/mol (Crystal 3); method: DSC
Molar enthalpy of transition or fusion, kJ/mol	uncertainty
1.4	0.3

System: dioctylammonium hydrogen sulfate; phases: Crystal 2, Crystal 1, Air at 1 atmosphere
Property: Molar enthalpy of transition or fusion, kJ/mol (Crystal 2); method: DSC
Molar enthalpy of transition or fusion, kJ/mol	uncertainty
4.8	3

System: dioctylammonium hydrogen sulfate; phases: Crystal 2, Crystal 1, Air at 1 atmosphere
Property: Triple point temperature, K (Crystal 2); method: DTA:corrimp
Triple point temperature, K	uncertainty
463.15	3

System: dioctylammonium hydrogen sulfate; phases: Crystal 3, Crystal 2, Air at 1 atmosphere
Property: Triple point temperature, K (Crystal 3); method: DTA:corrimp
Triple point temperature, K	uncertainty
371.1	3

System: dioctylammonium hydrogen sulfate; phases: Crystal 4, Crystal 3, Air at 1 atmosphere
Property: Triple point temperature, K (Crystal 4); method: DTA:corrimp
Triple point temperature, K	uncertainty
289.1	3

System: N-octyloctan-1-aminium chlorate; phases: Crystal 2, Crystal 1, Air at 1 atmosphere
Property: Molar enthalpy of transition or fusion, kJ/mol (Crystal 2); method: DSC
Molar enthalpy of transition or fusion, kJ/mol	uncertainty
40	1

System: N-octyloctan-1-aminium chlorate; phases: Crystal 2, Crystal 1, Air at 1 atmosphere
Property: Triple point temperature, K (Crystal 2); method: DTA:corrimp
Triple point temperature, K	uncertainty
305.1	3

System: N-octyloctan-1-aminium perchlorate; phases: Crystal 2, Crystal 1, Air at 1 atmosphere
Property: Molar enthalpy of transition or fusion, kJ/mol (Crystal 2); method: DSC
Molar enthalpy of transition or fusion, kJ/mol	uncertainty
37	2

System: N-octyloctan-1-aminium perchlorate; phases: Crystal 2, Crystal 1, Air at 1 atmosphere
Property: Triple point temperature, K (Crystal 2); method: DTA:corrimp
Triple point temperature, K	uncertainty
296.1	10

System: N-octyloctan-1-aminium dihydrogen phosphate; phases: Crystal 2, Crystal 1, Air at 1 atmosphere
Property: Triple point temperature, K (Crystal 2); method: DTA:corrimp
Triple point temperature, K	uncertainty
333.1	3

System: N-decyldecan-1-aminium nitrate; phases: Crystal 2, Crystal 1, Air at 1 atmosphere
Property: Molar enthalpy of transition or fusion, kJ/mol (Crystal 2); method: DSC
Molar enthalpy of transition or fusion, kJ/mol	uncertainty
64	1

System: N-decyldecan-1-aminium nitrate; phases: Crystal 2, Crystal 1, Air at 1 atmosphere
Property: Triple point temperature, K (Crystal 2); method: DTA:corrimp
Triple point temperature, K	uncertainty
333.1	3

System: didecylammonium chloride; phases: Crystal 2, Crystal 1, Air at 1 atmosphere
Property: Molar enthalpy of transition or fusion, kJ/mol (Crystal 2); method: DSC
Molar enthalpy of transition or fusion, kJ/mol	uncertainty
40	1

System: didecylammonium chloride; phases: Crystal 2, Crystal 1, Air at 1 atmosphere
Property: Triple point temperature, K (Crystal 2); method: DTA:corrimp
Triple point temperature, K	uncertainty
321.1	3

System: N-decyldecan-1-aminium bromide; phases: Crystal 2, Crystal 1, Air at 1 atmosphere
Property: Molar enthalpy of transition or fusion, kJ/mol (Crystal 2); method: DSC
Molar enthalpy of transition or fusion, kJ/mol	uncertainty
38	2

System: N-decyldecan-1-aminium bromide; phases: Crystal 2, Crystal 1, Air at 1 atmosphere
Property: Triple point temperature, K (Crystal 2); method: DTA:corrimp
Triple point temperature, K	uncertainty
330.1	3

System: N-decyldecan-1-aminium chlorate; phases: Crystal 2, Crystal 1, Air at 1 atmosphere
Property: Molar enthalpy of transition or fusion, kJ/mol (Crystal 2); method: DSC
Molar enthalpy of transition or fusion, kJ/mol	uncertainty
59	2

System: N-decyldecan-1-aminium chlorate; phases: Crystal 2, Crystal 1, Air at 1 atmosphere
Property: Triple point temperature, K (Crystal 2); method: DTA:corrimp
Triple point temperature, K	uncertainty
328.65	3

System: N-decyldecan-1-aminium dihydrogen phosphate; phases: Crystal 2, Crystal 1, Air at 1 atmosphere
Property: Molar enthalpy of transition or fusion, kJ/mol (Crystal 2); method: DSC
Molar enthalpy of transition or fusion, kJ/mol	uncertainty
61	2

System: N-decyldecan-1-aminium dihydrogen phosphate; phases: Crystal 2, Crystal 1, Air at 1 atmosphere
Property: Triple point temperature, K (Crystal 2); method: DTA:corrimp
Triple point temperature, K	uncertainty
354.1	3

System: N-dodecyldodecan-1-aminium nitrate; phases: Crystal 2, Crystal 1, Air at 1 atmosphere
Property: Molar enthalpy of transition or fusion, kJ/mol (Crystal 2); method: DSC:FP
Molar enthalpy of transition or fusion, kJ/mol	uncertainty
77	1

System: N-dodecyldodecan-1-aminium nitrate; phases: Crystal 2, Crystal 1, Air at 1 atmosphere
Property: Triple point temperature, K (Crystal 2); method: DTA:corrimp
Triple point temperature, K	uncertainty
339.1	3

System: N-dodecyldodecan-1-aminium chloride; phases: Crystal 2, Crystal 1, Air at 1 atmosphere
Property: Molar enthalpy of transition or fusion, kJ/mol (Crystal 2); method: DSC:FP
Molar enthalpy of transition or fusion, kJ/mol	uncertainty
48	1

System: N-dodecyldodecan-1-aminium chloride; phases: Crystal 2, Crystal 1, Air at 1 atmosphere
Property: Triple point temperature, K (Crystal 2); method: DTA:corrimp
Triple point temperature, K	uncertainty
338.1	3

System: N-dodecyldodecan-1-aminium bromide; phases: Crystal 2, Crystal 1, Air at 1 atmosphere
Property: Molar enthalpy of transition or fusion, kJ/mol (Crystal 2); method: DSC:FP
Molar enthalpy of transition or fusion, kJ/mol	uncertainty
49	1.1

System: N-dodecyldodecan-1-aminium bromide; phases: Crystal 2, Crystal 1, Air at 1 atmosphere
Property: Triple point temperature, K (Crystal 2); method: DTA:corrimp
Triple point temperature, K	uncertainty
346.1	3

System: N-dodecyldodecan-1-aminium iodide; phases: Crystal 2, Crystal 1, Air at 1 atmosphere
Property: Molar enthalpy of transition or fusion, kJ/mol (Crystal 2); method: DSC:FP
Molar enthalpy of transition or fusion, kJ/mol	uncertainty
38.5	1

System: N-dodecyldodecan-1-aminium iodide; phases: Crystal 2, Crystal 1, Air at 1 atmosphere
Property: Triple point temperature, K (Crystal 2); method: DTA:corrimp
Triple point temperature, K	uncertainty
338.1	3

System: N-dodecyldodecan-1-aminium hydrogen sulfate; phases: Crystal 3, Crystal 1, Air at 1 atmosphere
Property: Molar enthalpy of transition or fusion, kJ/mol (Crystal 3); method: DSC:FP
Molar enthalpy of transition or fusion, kJ/mol	uncertainty
30	2

System: N-dodecyldodecan-1-aminium hydrogen sulfate; phases: Crystal 2, Crystal 1, Air at 1 atmosphere
Property: Triple point temperature, K (Crystal 2); method: DTA:corrimp
Triple point temperature, K	uncertainty
373.1	3

System: N-dodecyldodecan-1-aminium hydrogen sulfate; phases: Crystal 3, Crystal 2, Air at 1 atmosphere
Property: Triple point temperature, K (Crystal 3); method: DTA:corrimp
Triple point temperature, K	uncertainty
347.1	3

System: N-dodecyldodecan-1-aminium chlorate; phases: Crystal 2, Crystal 1, Air at 1 atmosphere
Property: Molar enthalpy of transition or fusion, kJ/mol (Crystal 2); method: DSC:FP
Molar enthalpy of transition or fusion, kJ/mol	uncertainty
70	2

System: N-dodecyldodecan-1-aminium chlorate; phases: Crystal 2, Crystal 1, Air at 1 atmosphere
Property: Triple point temperature, K (Crystal 2); method: DTA:corrimp
Triple point temperature, K	uncertainty
334.65	3

System: N-dodecyldodecan-1-aminium perchlorate; phases: Crystal 2, Crystal 1, Air at 1 atmosphere
Property: Molar enthalpy of transition or fusion, kJ/mol (Crystal 2); method: DSC:FP
Molar enthalpy of transition or fusion, kJ/mol	uncertainty
72	2

System: N-dodecyldodecan-1-aminium perchlorate; phases: Crystal 2, Crystal 1, Air at 1 atmosphere
Property: Triple point temperature, K (Crystal 2); method: DTA:corrimp
Triple point temperature, K	uncertainty
335.1	3

System: N-dodecyldodecan-1-aminium dihydrogen phosphate; phases: Crystal 2, Crystal 1, Air at 1 atmosphere
Property: Molar enthalpy of transition or fusion, kJ/mol (Crystal 2); method: DSC:FP
Molar enthalpy of transition or fusion, kJ/mol	uncertainty
83	3

System: N-dodecyldodecan-1-aminium dihydrogen phosphate; phases: Crystal 2, Crystal 1, Air at 1 atmosphere
Property: Triple point temperature, K (Crystal 2); method: DTA:corrimp
Triple point temperature, K	uncertainty
363.1	3

System: N-dodecyldodecan-1-aminium dihydrogen phosphate; phases: Crystal 3, Crystal 2, Air at 1 atmosphere
Property: Triple point temperature, K (Crystal 3); method: DTA:corrimp
Triple point temperature, K	uncertainty
328.1	3

System: N-octadecyloctadecan-1-aminium nitrate; phases: Crystal 2, Crystal 1, Air at 1 atmosphere
Property: Molar enthalpy of transition or fusion, kJ/mol (Crystal 2); method: DSC:FP
Molar enthalpy of transition or fusion, kJ/mol	uncertainty
109	3

System: N-octadecyloctadecan-1-aminium nitrate; phases: Crystal 2, Crystal 1, Air at 1 atmosphere
Property: Triple point temperature, K (Crystal 2); method: DTA:corrimp
Triple point temperature, K	uncertainty
366.65	3

System: N-octadecyloctadecan-1-aminium chloride; phases: Crystal 2, Crystal 1, Air at 1 atmosphere
Property: Molar enthalpy of transition or fusion, kJ/mol (Crystal 2); method: DSC:FP
Molar enthalpy of transition or fusion, kJ/mol	uncertainty
97	2

System: N-octadecyloctadecan-1-aminium chloride; phases: Crystal 2, Crystal 1, Air at 1 atmosphere
Property: Triple point temperature, K (Crystal 2); method: DTA:corrimp
Triple point temperature, K	uncertainty
364.35	3

System: N-octadecyloctadecan-1-aminium bromide; phases: Crystal 2, Crystal 1, Air at 1 atmosphere
Property: Molar enthalpy of transition or fusion, kJ/mol (Crystal 2); method: DSC:FP
Molar enthalpy of transition or fusion, kJ/mol	uncertainty
81	2

System: N-octadecyloctadecan-1-aminium bromide; phases: Crystal 2, Crystal 1, Air at 1 atmosphere
Property: Triple point temperature, K (Crystal 2); method: DTA:corrimp
Triple point temperature, K	uncertainty
371.15	3

System: N-octadecyloctadecan-1-aminium iodide; phases: Crystal 2, Crystal 1, Air at 1 atmosphere
Property: Molar enthalpy of transition or fusion, kJ/mol (Crystal 2); method: DSC:FP
Molar enthalpy of transition or fusion, kJ/mol	uncertainty
75	3

System: N-octadecyloctadecan-1-aminium iodide; phases: Crystal 2, Crystal 1, Air at 1 atmosphere
Property: Triple point temperature, K (Crystal 2); method: DTA:corrimp
Triple point temperature, K	uncertainty
366.15	3

System: N-octadecyloctadecan-1-aminium hydrogen sulfate; phases: Crystal 3, Crystal 1, Air at 1 atmosphere
Property: Molar enthalpy of transition or fusion, kJ/mol (Crystal 3); method: DSC:FP
Molar enthalpy of transition or fusion, kJ/mol	uncertainty
109	3

System: N-octadecyloctadecan-1-aminium hydrogen sulfate; phases: Crystal 2, Crystal 1, Air at 1 atmosphere
Property: Triple point temperature, K (Crystal 2); method: DTA:corrimp
Triple point temperature, K	uncertainty
355.1	3

System: N-octadecyloctadecan-1-aminium hydrogen sulfate; phases: Crystal 3, Crystal 2, Air at 1 atmosphere
Property: Triple point temperature, K (Crystal 3); method: DTA:corrimp
Triple point temperature, K	uncertainty
343.1	3

System: N-octadecyloctadecan-1-aminium chlorate; phases: Crystal 3, Crystal 1, Air at 1 atmosphere
Property: Molar enthalpy of transition or fusion, kJ/mol (Crystal 3); method: DSC:FP
Molar enthalpy of transition or fusion, kJ/mol	uncertainty
94	3

System: N-octadecyloctadecan-1-aminium chlorate; phases: Crystal 2, Crystal 1, Air at 1 atmosphere
Property: Triple point temperature, K (Crystal 2); method: DTA:corrimp
Triple point temperature, K	uncertainty
364.1	3

System: N-octadecyloctadecan-1-aminium chlorate; phases: Crystal 3, Crystal 2, Air at 1 atmosphere
Property: Triple point temperature, K (Crystal 3); method: DTA:corrimp
Triple point temperature, K	uncertainty
357.1	3

System: N-octadecyloctadecan-1-aminium perchlorate; phases: Crystal 2, Crystal 1, Air at 1 atmosphere
Property: Molar enthalpy of transition or fusion, kJ/mol (Crystal 2); method: DSC:FP
Molar enthalpy of transition or fusion, kJ/mol	uncertainty
115	1

System: N-octadecyloctadecan-1-aminium perchlorate; phases: Crystal 2, Crystal 1, Air at 1 atmosphere
Property: Triple point temperature, K (Crystal 2); method: DTA:corrimp
Triple point temperature, K	uncertainty
361.25	3
