Measured thermophysical data. Solvation of N-methyl-2-pyrrolidone and N,N-dimethylpropanamide in  cyclohexane, heptane, n-alkan-1-ols(C1-C4) and water at 298.15K
Source: Thermochim. Acta, 2013, 10.1016/j.tca.2013.09.017
Compound 1: water, H2O, InChI=1S/H2O/h1H2
Compound 2: N-methylpyrrolidone, C5H9NO, InChI=1S/C5H9NO/c1-6-4-2-3-5(6)7/h2-4H2,1H3, purity 99.9%
Compound 3: cyclohexane, C6H12, InChI=1S/C6H12/c1-2-4-6-5-3-1/h1-6H2, purity 99.9%
Compound 4: heptane, C7H16, InChI=1S/C7H16/c1-3-5-7-6-4-2/h3-7H2,1-2H3, purity 99.9%
Compound 5: methanol, CH4O, InChI=1S/CH4O/c1-2/h2H,1H3, purity 99.9%
Compound 6: ethanol, C2H6O, InChI=1S/C2H6O/c1-2-3/h3H,2H2,1H3, purity 99.9%
Compound 7: propan-1-ol, C3H8O, InChI=1S/C3H8O/c1-2-3-4/h4H,2-3H2,1H3, purity 99.9%
Compound 8: butan-1-ol, C4H10O, InChI=1S/C4H10O/c1-2-3-4-5/h5H,2-4H2,1H3, purity 99.9%
Compound 9: N,N-dimethylpropionamide, C5H11NO, InChI=1S/C5H11NO/c1-4-5(7)6(2)3/h4H2,1-3H3, purity 99.3%

System: N-methylpyrrolidone; phases: Liquid
Property: Mass density, kg/m3 (Liquid); method: Vibrating tube method
Temperature, K	Pressure, kPa	Mass density, kg/m3	uncertainty
298.15	101.325	1028.01	0.08

System: N-methylpyrrolidone; phases: Liquid
Property: Speed of sound, m/s (Liquid); method: Sing-around technique in a fixed-path interferometer
Temperature, K	Pressure, kPa	Speed of sound, m/s	uncertainty
298.15	101.325	1545.25	1.1

System: cyclohexane; phases: Liquid
Property: Mass density, kg/m3 (Liquid); method: Vibrating tube method
Temperature, K	Pressure, kPa	Mass density, kg/m3	uncertainty
298.15	101.325	773.82	0.16

System: cyclohexane; phases: Liquid
Property: Speed of sound, m/s (Liquid); method: Sing-around technique in a fixed-path interferometer
Temperature, K	Pressure, kPa	Speed of sound, m/s	uncertainty
298.15	101.325	1254.95	0.97

System: heptane; phases: Liquid
Property: Mass density, kg/m3 (Liquid); method: Vibrating tube method
Temperature, K	Pressure, kPa	Mass density, kg/m3	uncertainty
298.15	101.325	679.51	0.21

System: heptane; phases: Liquid
Property: Speed of sound, m/s (Liquid); method: Sing-around technique in a fixed-path interferometer
Temperature, K	Pressure, kPa	Speed of sound, m/s	uncertainty
298.15	101.325	1131.4	0.92

System: methanol; phases: Liquid
Property: Mass density, kg/m3 (Liquid); method: Vibrating tube method
Temperature, K	Pressure, kPa	Mass density, kg/m3	uncertainty
298.15	101.325	786.66	0.16

System: methanol; phases: Liquid
Property: Speed of sound, m/s (Liquid); method: Sing-around technique in a fixed-path interferometer
Temperature, K	Pressure, kPa	Speed of sound, m/s	uncertainty
298.15	101.325	1103.41	0.91

System: ethanol; phases: Liquid
Property: Mass density, kg/m3 (Liquid); method: Vibrating tube method
Temperature, K	Pressure, kPa	Mass density, kg/m3	uncertainty
298.15	101.325	785.22	0.16

System: ethanol; phases: Liquid
Property: Speed of sound, m/s (Liquid); method: Sing-around technique in a fixed-path interferometer
Temperature, K	Pressure, kPa	Speed of sound, m/s	uncertainty
298.15	101.325	1145.17	0.93

System: propan-1-ol; phases: Liquid
Property: Mass density, kg/m3 (Liquid); method: Vibrating tube method
Temperature, K	Pressure, kPa	Mass density, kg/m3	uncertainty
298.15	101.325	799.58	0.15

System: propan-1-ol; phases: Liquid
Property: Speed of sound, m/s (Liquid); method: Sing-around technique in a fixed-path interferometer
Temperature, K	Pressure, kPa	Speed of sound, m/s	uncertainty
298.15	101.325	1206.71	0.95

System: butan-1-ol; phases: Liquid
Property: Mass density, kg/m3 (Liquid); method: Vibrating tube method
Temperature, K	Pressure, kPa	Mass density, kg/m3	uncertainty
298.15	101.325	805.72	0.15

System: butan-1-ol; phases: Liquid
Property: Speed of sound, m/s (Liquid); method: Sing-around technique in a fixed-path interferometer
Temperature, K	Pressure, kPa	Speed of sound, m/s	uncertainty
298.15	101.325	1240.5	0.97

System: N,N-dimethylpropionamide; phases: Liquid
Property: Mass density, kg/m3 (Liquid); method: Vibrating tube method
Temperature, K	Pressure, kPa	Mass density, kg/m3	uncertainty
298.15	101.325	921.16	0.19

System: N,N-dimethylpropionamide; phases: Liquid
Property: Speed of sound, m/s (Liquid); method: Sing-around technique in a fixed-path interferometer
Temperature, K	Pressure, kPa	Speed of sound, m/s	uncertainty
298.15	101.325	1425.43	1.25

System: cyclohexane + N,N-dimethylpropionamide; phases: Liquid
Fixed: Pressure, kPa = 101
Fixed: Temperature, K = 298.15
Property: Molar enthalpy of solution, kJ/mol (Liquid); method: adiabatic calorimeter
Molality, mol/kg of N,N-dimethylpropionamide	Molar enthalpy of solution, kJ/mol	uncertainty
0.05906	10.5	1
0.05997	10.1	1
0.06016	10	1
0.06049	11.2	1
0.06069	10.8	1

System: cyclohexane + N,N-dimethylpropionamide; phases: Liquid
Fixed: Pressure, kPa = 101
Fixed: Temperature, K = 298.15
Property: Mass density, kg/m3 (Liquid); method: Vibrating tube method
Molality, mol/kg of N,N-dimethylpropionamide	Mass density, kg/m3	uncertainty
0.05	773.91	0.16
0.1518	774.79	0.16
0.2497	775.68	0.16
0.355	776.64	0.16
0.4496	777.52	0.16

System: cyclohexane + N,N-dimethylpropionamide; phases: Liquid
Fixed: Pressure, kPa = 101
Fixed: Temperature, K = 298.15
Property: Speed of sound, m/s (Liquid); method: Sing-around technique in a fixed-path interferometer
Molality, mol/kg of N,N-dimethylpropionamide	Speed of sound, m/s	uncertainty
0.05	1254.7	1
0.1518	1254.7	1
0.2497	1254.8	1
0.355	1254.9	1
0.4496	1255	1

System: heptane + N,N-dimethylpropionamide; phases: Liquid
Fixed: Pressure, kPa = 101
Fixed: Temperature, K = 298.15
Property: Molar enthalpy of solution, kJ/mol (Liquid); method: adiabatic calorimeter
Molality, mol/kg of N,N-dimethylpropionamide	Molar enthalpy of solution, kJ/mol	uncertainty
0.05957	10.9	0.5
0.05957	10.4	0.5
0.05973	11	0.5
0.05988	10.5	0.5
0.05993	10.3	0.5

System: heptane + N,N-dimethylpropionamide; phases: Liquid
Fixed: Pressure, kPa = 101
Fixed: Temperature, K = 298.15
Property: Mass density, kg/m3 (Liquid); method: Vibrating tube method
Molality, mol/kg of N,N-dimethylpropionamide	Mass density, kg/m3	uncertainty
0.0487	680.32	0.21
0.1515	681.98	0.21
0.2686	683.9	0.21
0.3627	685.47	0.2
0.4628	687.09	0.2

System: heptane + N,N-dimethylpropionamide; phases: Liquid
Fixed: Pressure, kPa = 101
Fixed: Temperature, K = 298.15
Property: Speed of sound, m/s (Liquid); method: Sing-around technique in a fixed-path interferometer
Molality, mol/kg of N,N-dimethylpropionamide	Speed of sound, m/s	uncertainty
0.0487	1132.3	0.9
0.1515	1133.4	0.9
0.2686	1135.1	0.9
0.3627	1136.2	0.9
0.4628	1137.5	0.9

System: methanol + N,N-dimethylpropionamide; phases: Liquid
Fixed: Pressure, kPa = 101
Fixed: Temperature, K = 298.15
Property: Molar enthalpy of solution, kJ/mol (Liquid); method: adiabatic calorimeter
Molality, mol/kg of N,N-dimethylpropionamide	Molar enthalpy of solution, kJ/mol	uncertainty
0.05662	-2.5	0.1
0.05939	-2.7	0.1
0.05958	-2.6	0.1
0.05997	-2.7	0.1
0.05997	-2.4	0.1

System: methanol + N,N-dimethylpropionamide; phases: Liquid
Fixed: Pressure, kPa = 101
Fixed: Temperature, K = 298.15
Property: Mass density, kg/m3 (Liquid); method: Vibrating tube method
Molality, mol/kg of N,N-dimethylpropionamide	Mass density, kg/m3	uncertainty
0.0618	787.53	0.16
0.1442	788.62	0.16
0.2317	789.76	0.15
0.3264	790.9	0.15
0.4233	792.14	0.15

System: methanol + N,N-dimethylpropionamide; phases: Liquid
Fixed: Pressure, kPa = 101
Fixed: Temperature, K = 298.15
Property: Speed of sound, m/s (Liquid); method: Sing-around technique in a fixed-path interferometer
Molality, mol/kg of N,N-dimethylpropionamide	Speed of sound, m/s	uncertainty
0.0618	1105	0.9
0.1442	1107	0.9
0.2317	1109.6	0.9
0.3264	1112	0.9
0.4233	1114.7	0.9

System: ethanol + N,N-dimethylpropionamide; phases: Liquid
Fixed: Pressure, kPa = 101
Fixed: Temperature, K = 298.15
Property: Molar enthalpy of solution, kJ/mol (Liquid); method: adiabatic calorimeter
Molality, mol/kg of N,N-dimethylpropionamide	Molar enthalpy of solution, kJ/mol	uncertainty
0.05923	0.3	0.1
0.05967	0.2	0.1
0.05975	0.3	0.1
0.06044	0.3	0.1
0.06088	0.3	0.1

System: ethanol + N,N-dimethylpropionamide; phases: Liquid
Fixed: Pressure, kPa = 101
Fixed: Temperature, K = 298.15
Property: Mass density, kg/m3 (Liquid); method: Vibrating tube method
Molality, mol/kg of N,N-dimethylpropionamide	Mass density, kg/m3	uncertainty
0.0587	785.99	0.16
0.1486	787.09	0.16
0.2471	788.4	0.16
0.3517	789.6	0.15
0.4456	790.79	0.15

System: ethanol + N,N-dimethylpropionamide; phases: Liquid
Fixed: Pressure, kPa = 101
Fixed: Temperature, K = 298.15
Property: Speed of sound, m/s (Liquid); method: Sing-around technique in a fixed-path interferometer
Molality, mol/kg of N,N-dimethylpropionamide	Speed of sound, m/s	uncertainty
0.0587	1146.6	0.9
0.1486	1148.1	0.9
0.2471	1150.7	0.9
0.3517	1153.2	0.9
0.4456	1155.3	0.9

System: propan-1-ol + N,N-dimethylpropionamide; phases: Liquid
Fixed: Pressure, kPa = 101
Fixed: Temperature, K = 298.15
Property: Molar enthalpy of solution, kJ/mol (Liquid); method: adiabatic calorimeter
Molality, mol/kg of N,N-dimethylpropionamide	Molar enthalpy of solution, kJ/mol	uncertainty
0.05926	1.4	0.1
0.05932	1.2	0.1
0.0594	1.3	0.1
0.05966	1.4	0.1
0.05971	1.4	0.1

System: propan-1-ol + N,N-dimethylpropionamide; phases: Liquid
Fixed: Pressure, kPa = 101
Fixed: Temperature, K = 298.15
Property: Mass density, kg/m3 (Liquid); method: Vibrating tube method
Molality, mol/kg of N,N-dimethylpropionamide	Mass density, kg/m3	uncertainty
0.0515	800.16	0.15
0.1316	801.03	0.15
0.2061	801.84	0.15
0.2845	802.68	0.15
0.3632	803.51	0.15

System: propan-1-ol + N,N-dimethylpropionamide; phases: Liquid
Fixed: Pressure, kPa = 101
Fixed: Temperature, K = 298.15
Property: Speed of sound, m/s (Liquid); method: Sing-around technique in a fixed-path interferometer
Molality, mol/kg of N,N-dimethylpropionamide	Speed of sound, m/s	uncertainty
0.0515	1207.9	1
0.1316	1209.6	1
0.2061	1211.2	1
0.2845	1212.9	1
0.3632	1214.5	1

System: butan-1-ol + N,N-dimethylpropionamide; phases: Liquid
Fixed: Pressure, kPa = 101
Fixed: Temperature, K = 298.15
Property: Molar enthalpy of solution, kJ/mol (Liquid); method: adiabatic calorimeter
Molality, mol/kg of N,N-dimethylpropionamide	Molar enthalpy of solution, kJ/mol	uncertainty
0.05929	2	0.1
0.05951	1.9	0.1
0.05996	2	0.1
0.06044	1.9	0.1
0.06048	1.9	0.1

System: butan-1-ol + N,N-dimethylpropionamide; phases: Liquid
Fixed: Pressure, kPa = 101
Fixed: Temperature, K = 298.15
Property: Mass density, kg/m3 (Liquid); method: Vibrating tube method
Molality, mol/kg of N,N-dimethylpropionamide	Mass density, kg/m3	uncertainty
0.0494	806.25	0.15
0.1311	807.08	0.15
0.21	807.88	0.15
0.2899	808.68	0.15
0.3702	809.48	0.15

System: butan-1-ol + N,N-dimethylpropionamide; phases: Liquid
Fixed: Pressure, kPa = 101
Fixed: Temperature, K = 298.15
Property: Speed of sound, m/s (Liquid); method: Sing-around technique in a fixed-path interferometer
Molality, mol/kg of N,N-dimethylpropionamide	Speed of sound, m/s	uncertainty
0.0494	1241.7	1
0.1311	1243.2	1
0.21	1244.6	1
0.2899	1246.1	1
0.3702	1247.5	1

System: N,N-dimethylpropionamide + water; phases: Liquid
Fixed: Pressure, kPa = 101
Fixed: Temperature, K = 298.15
Property: Molar enthalpy of solution, kJ/mol (Liquid); method: adiabatic calorimeter
Molality, mol/kg of N,N-dimethylpropionamide	Molar enthalpy of solution, kJ/mol	uncertainty
0.05955	-21.5	0.2
0.05966	-21.8	0.2
0.06001	-21.8	0.2
0.06007	-21.6	0.2
0.06026	-21.9	0.2

System: N,N-dimethylpropionamide + water; phases: Liquid
Fixed: Pressure, kPa = 101
Fixed: Temperature, K = 298.15
Property: Mass density, kg/m3 (Liquid); method: Vibrating tube method
Molality, mol/kg of N,N-dimethylpropionamide	Mass density, kg/m3	uncertainty
0.0588	996.85	0.07
0.1486	996.53	0.07
0.2471	996.2	0.08
0.3518	995.95	0.08
0.4457	995.72	0.08

System: N,N-dimethylpropionamide + water; phases: Liquid
Fixed: Pressure, kPa = 101
Fixed: Temperature, K = 298.15
Property: Speed of sound, m/s (Liquid); method: Sing-around technique in a fixed-path interferometer
Molality, mol/kg of N,N-dimethylpropionamide	Speed of sound, m/s	uncertainty
0.0588	1501.1	1.1
0.1486	1508.1	1.1
0.2471	1515.7	1.1
0.3518	1522	1.1
0.4457	1528.2	1.1

System: cyclohexane + N-methylpyrrolidone; phases: Liquid
Fixed: Pressure, kPa = 101
Fixed: Temperature, K = 298.15
Property: Molar enthalpy of solution, kJ/mol (Liquid); method: abiabatic calorimeter
Molality, mol/kg of N-methylpyrrolidone	Molar enthalpy of solution, kJ/mol	uncertainty
0.05972	11.6	1
0.06016	12.3	1
0.06223	10.9	1
0.06257	11.9	1

System: cyclohexane + N-methylpyrrolidone; phases: Liquid
Fixed: Pressure, kPa = 101
Fixed: Temperature, K = 298.15
Property: Mass density, kg/m3 (Liquid); method: Vibrating tube method
Molality, mol/kg of N-methylpyrrolidone	Mass density, kg/m3	uncertainty
0.0792	774.81	0.16
0.1648	776.26	0.16
0.2385	777.5	0.16
0.3142	778.77	0.16
0.3925	780.08	0.16

System: cyclohexane + N-methylpyrrolidone; phases: Liquid
Fixed: Pressure, kPa = 101
Fixed: Temperature, K = 298.15
Property: Speed of sound, m/s (Liquid); method: Sing-around technique in a fixed-path interferometer
Molality, mol/kg of N-methylpyrrolidone	Speed of sound, m/s	uncertainty
0.0792	1256	1
0.1648	1256.8	1
0.2385	1257.6	1
0.3142	1258.3	1
0.3925	1258.7	1

System: heptane + N-methylpyrrolidone; phases: Liquid
Fixed: Pressure, kPa = 101
Fixed: Temperature, K = 298.15
Property: Molar enthalpy of solution, kJ/mol (Liquid); method: abiabatic calorimeter
Molality, mol/kg of N-methylpyrrolidone	Molar enthalpy of solution, kJ/mol	uncertainty
0.05995	12.3	0.5
0.0605	12.5	0.5
0.06819	11.6	0.5
0.07152	12.4	0.5
0.07543	11.2	0.5

System: heptane + N-methylpyrrolidone; phases: Liquid
Fixed: Pressure, kPa = 101
Fixed: Temperature, K = 298.15
Property: Mass density, kg/m3 (Liquid); method: Vibrating tube method
Molality, mol/kg of N-methylpyrrolidone	Mass density, kg/m3	uncertainty
0.0859	681.45	0.21
0.1879	683.75	0.21
0.2695	685.56	0.2
0.3576	687.51	0.2
0.4488	689.49	0.2

System: heptane + N-methylpyrrolidone; phases: Liquid
Fixed: Pressure, kPa = 101
Fixed: Temperature, K = 298.15
Property: Speed of sound, m/s (Liquid); method: Sing-around technique in a fixed-path interferometer
Molality, mol/kg of N-methylpyrrolidone	Speed of sound, m/s	uncertainty
0.0859	1133.1	0.9
0.1879	1135	0.9
0.2695	1136.4	0.9
0.3576	1137.7	0.9
0.4488	1139.2	0.9

System: methanol + N-methylpyrrolidone; phases: Liquid
Fixed: Pressure, kPa = 101
Fixed: Temperature, K = 298.15
Property: Molar enthalpy of solution, kJ/mol (Liquid); method: abiabatic calorimeter
Molality, mol/kg of N-methylpyrrolidone	Molar enthalpy of solution, kJ/mol	uncertainty
0.05824	-3	0.1
0.05932	-3	0.1
0.06037	-3	0.1
0.06043	-3.3	0.1

System: methanol + N-methylpyrrolidone; phases: Liquid
Fixed: Pressure, kPa = 101
Fixed: Temperature, K = 298.15
Property: Mass density, kg/m3 (Liquid); method: Vibrating tube method
Molality, mol/kg of N-methylpyrrolidone	Mass density, kg/m3	uncertainty
0.0786	788.33	0.16
0.1588	789.97	0.15
0.2275	791.35	0.15
0.3082	792.96	0.15
0.3854	794.5	0.15

System: methanol + N-methylpyrrolidone; phases: Liquid
Fixed: Pressure, kPa = 101
Fixed: Temperature, K = 298.15
Property: Speed of sound, m/s (Liquid); method: Sing-around technique in a fixed-path interferometer
Molality, mol/kg of N-methylpyrrolidone	Speed of sound, m/s	uncertainty
0.0786	1106.3	0.9
0.1588	1109	0.9
0.2275	1111.2	0.9
0.3082	1114	0.9
0.3854	1116.6	0.9

System: ethanol + N-methylpyrrolidone; phases: Liquid
Fixed: Pressure, kPa = 101
Fixed: Temperature, K = 298.15
Property: Molar enthalpy of solution, kJ/mol (Liquid); method: abiabatic calorimeter
Molality, mol/kg of N-methylpyrrolidone	Molar enthalpy of solution, kJ/mol	uncertainty
0.05855	0.6	0.1
0.06104	0.6	0.1
0.06133	0.6	0.1
0.06187	0.6	0.1
0.06299	0.7	0.1

System: ethanol + N-methylpyrrolidone; phases: Liquid
Fixed: Pressure, kPa = 101
Fixed: Temperature, K = 298.15
Property: Mass density, kg/m3 (Liquid); method: Vibrating tube method
Molality, mol/kg of N-methylpyrrolidone	Mass density, kg/m3	uncertainty
0.077	786.74	0.16
0.1554	788.32	0.16
0.2349	789.86	0.15
0.3089	791.28	0.15
0.388	792.78	0.15

System: ethanol + N-methylpyrrolidone; phases: Liquid
Fixed: Pressure, kPa = 101
Fixed: Temperature, K = 298.15
Property: Speed of sound, m/s (Liquid); method: Sing-around technique in a fixed-path interferometer
Molality, mol/kg of N-methylpyrrolidone	Speed of sound, m/s	uncertainty
0.077	1146.8	0.9
0.1554	1149.3	0.9
0.2349	1151.9	0.9
0.3089	1154	0.9
0.388	1156.5	0.9

System: propan-1-ol + N-methylpyrrolidone; phases: Liquid
Fixed: Pressure, kPa = 101
Fixed: Temperature, K = 298.15
Property: Molar enthalpy of solution, kJ/mol (Liquid); method: abiabatic calorimeter
Molality, mol/kg of N-methylpyrrolidone	Molar enthalpy of solution, kJ/mol	uncertainty
0.05755	1.9	0.1
0.05885	1.8	0.1
0.05917	2	0.1
0.0598	1.8	0.1
0.06022	1.7	0.1
0.06027	1.6	0.1

System: propan-1-ol + N-methylpyrrolidone; phases: Liquid
Fixed: Pressure, kPa = 101
Fixed: Temperature, K = 298.15
Property: Mass density, kg/m3 (Liquid); method: Vibrating tube method
Molality, mol/kg of N-methylpyrrolidone	Mass density, kg/m3	uncertainty
0.0757	801.03	0.15
0.1611	802.58	0.15
0.2275	803.78	0.15
0.3064	805.2	0.15
0.381	806.51	0.15

System: propan-1-ol + N-methylpyrrolidone; phases: Liquid
Fixed: Pressure, kPa = 101
Fixed: Temperature, K = 298.15
Property: Speed of sound, m/s (Liquid); method: Sing-around technique in a fixed-path interferometer
Molality, mol/kg of N-methylpyrrolidone	Speed of sound, m/s	uncertainty
0.0757	1209.1	1
0.1611	1211.6	1
0.2275	1213.4	1
0.3064	1215.6	1
0.381	1217.6	1

System: butan-1-ol + N-methylpyrrolidone; phases: Liquid
Fixed: Pressure, kPa = 101
Fixed: Temperature, K = 298.15
Property: Molar enthalpy of solution, kJ/mol (Liquid); method: abiabatic calorimeter
Molality, mol/kg of N-methylpyrrolidone	Molar enthalpy of solution, kJ/mol	uncertainty
0.05891	2.4	0.1
0.05894	2.3	0.1
0.06047	2.6	0.1
0.06053	2.6	0.1
0.06069	2.4	0.1

System: butan-1-ol + N-methylpyrrolidone; phases: Liquid
Fixed: Pressure, kPa = 101
Fixed: Temperature, K = 298.15
Property: Mass density, kg/m3 (Liquid); method: Vibrating tube method
Molality, mol/kg of N-methylpyrrolidone	Mass density, kg/m3	uncertainty
0.0846	807.27	0.15
0.1506	808.43	0.15
0.23	809.82	0.15
0.2953	810.94	0.14
0.3712	812.24	0.14

System: butan-1-ol + N-methylpyrrolidone; phases: Liquid
Fixed: Pressure, kPa = 101
Fixed: Temperature, K = 298.15
Property: Speed of sound, m/s (Liquid); method: Sing-around technique in a fixed-path interferometer
Molality, mol/kg of N-methylpyrrolidone	Speed of sound, m/s	uncertainty
0.0846	1243	1
0.1506	1244.6	1
0.23	1245.8	1
0.2953	1247.7	1
0.3712	1249.6	1

System: N-methylpyrrolidone + water; phases: Liquid
Fixed: Pressure, kPa = 101
Fixed: Temperature, K = 298.15
Property: Molar enthalpy of solution, kJ/mol (Liquid); method: abiabatic calorimeter
Molality, mol/kg of N-methylpyrrolidone	Molar enthalpy of solution, kJ/mol	uncertainty
0.04434	-20.3	0.2
0.04625	-20.9	0.2
0.04917	-21.7	0.2
0.05828	-21.3	0.2
0.05915	-21.1	0.2

System: N-methylpyrrolidone + water; phases: Liquid
Fixed: Pressure, kPa = 101
Fixed: Temperature, K = 298.15
Property: Mass density, kg/m3 (Liquid); method: Vibrating tube method
Molality, mol/kg of N-methylpyrrolidone	Mass density, kg/m3	uncertainty
0.0621	997.34	0.07
0.1225	997.63	0.07
0.1806	997.92	0.07
0.2399	998.21	0.07
0.3036	998.54	0.07

System: N-methylpyrrolidone + water; phases: Liquid
Fixed: Pressure, kPa = 101
Fixed: Temperature, K = 298.15
Property: Speed of sound, m/s (Liquid); method: Sing-around technique in a fixed-path interferometer
Molality, mol/kg of N-methylpyrrolidone	Speed of sound, m/s	uncertainty
0.0621	1500.7	1.1
0.1225	1504.4	1.1
0.1806	1507.8	1.1
0.2399	1511.4	1.1
0.3036	1515.1	1.1
