Measured thermophysical data. Heat capacities of PbBi12O19(s) and phi-Pb5Bi8O17(s)
Source: Thermochim. Acta, 2005, 10.1016/j.tca.2005.09.012
Compound 1: bismuth lead oxide Bi12PbO19, Bi12O19Pb, InChI=1S/12Bi.19O.Pb/q12*+3;19*-2;+2, purity 99%
Compound 2: bismuth lead oxide Bi8Pb5O17, Bi8O17Pb5, InChI=1S/8Bi.17O.5Pb/q8*+3;17*-2;5*+2, purity 99%

System: bismuth lead oxide Bi12PbO19; phases: Crystal
Fixed: Pressure, kPa = 101.325
Property: Molar heat capacity at constant pressure, J/K/mol (Crystal); method: Small sample (50 mg) DSC
Temperature, K	Molar heat capacity at constant pressure, J/K/mol	uncertainty
280	649	13
300	677	14
400	753	15
500	791	16
600	819	16
700	836	17
800	861	17

System: bismuth lead oxide Bi8Pb5O17; phases: Crystal
Fixed: Pressure, kPa = 101.325
Property: Molar heat capacity at constant pressure, J/K/mol (Crystal); method: Small sample (50 mg) DSC
Temperature, K	Molar heat capacity at constant pressure, J/K/mol	uncertainty
280	582	12
300	606	12
400	685	14
500	726	15
600	760	15
700	771	15
800	861	17
