Measured thermophysical data. Volumetric and Acoustic Properties of Binary Mixtures of Cyclohexane + Benzene and +  Benzaldehyde at (293.15 to 323.15) K
Source: Thermochim. Acta, 2012, 10.1016/j.tca.2012.04.002
Compound 1: cyclohexane, C6H12, InChI=1S/C6H12/c1-2-4-6-5-3-1/h1-6H2, purity 99%
Compound 2: benzene, C6H6, InChI=1S/C6H6/c1-2-4-6-5-3-1/h1-6H, purity 99%
Compound 3: benzaldehyde, C7H6O, InChI=1S/C7H6O/c8-6-7-4-2-1-3-5-7/h1-6H, purity 99%

System: cyclohexane; phases: Liquid
Fixed: Pressure, kPa = 101
Property: Speed of sound, m/s (Liquid); method: Pulse-echo method
Temperature, K	Speed of sound, m/s	uncertainty
293.15	1278.55	1.4
298.15	1253.86	1.39
303.15	1229.34	1.38
308.15	1205.05	1.37
313.15	1181.03	1.36
318.15	1157.29	1.35
323.15	1133.73	1.35

System: cyclohexane; phases: Liquid
Fixed: Pressure, kPa = 101
Property: Mass density, kg/m3 (Liquid); method: Vibrating tube method
Temperature, K	Mass density, kg/m3	uncertainty
293.15	778.547	0.242
298.15	773.844	0.242
303.15	769.111	0.242
308.15	764.351	0.243
313.15	759.561	0.243
318.15	754.74	0.244
323.15	749.887	0.244

System: benzene; phases: Liquid
Fixed: Pressure, kPa = 101
Property: Speed of sound, m/s (Liquid); method: Pulse-echo method
Temperature, K	Speed of sound, m/s	uncertainty
293.15	1322.72	1.4
298.15	1299.33	1.39
303.15	1275.96	1.39
308.15	1252.76	1.38
313.15	1229.76	1.37
318.15	1207.04	1.36
323.15	1184.47	1.35

System: benzene; phases: Liquid
Fixed: Pressure, kPa = 101
Property: Mass density, kg/m3 (Liquid); method: Vibrating tube method
Temperature, K	Mass density, kg/m3	uncertainty
293.15	878.954	0.237
298.15	873.614	0.237
303.15	868.257	0.238
308.15	862.885	0.238
313.15	857.494	0.238
318.15	852.087	0.238
323.15	846.659	0.239

System: benzaldehyde; phases: Liquid
Fixed: Pressure, kPa = 101
Property: Speed of sound, m/s (Liquid); method: Pulse-echo method
Temperature, K	Speed of sound, m/s	uncertainty
293.15	1476.74	1.42
298.15	1458.21	1.41
303.15	1439.68	1.41
308.15	1421.24	1.4
313.15	1402.93	1.4
318.15	1384.71	1.39
323.15	1366.65	1.38

System: benzaldehyde; phases: Liquid
Fixed: Pressure, kPa = 101
Property: Mass density, kg/m3 (Liquid); method: Vibrating tube method
Temperature, K	Mass density, kg/m3	uncertainty
293.15	1045.545	0.267
298.15	1041.039	0.264
303.15	1036.528	0.26
308.15	1032.012	0.257
313.15	1027.493	0.253
318.15	1022.968	0.249
323.15	1018.439	0.246

System: benzene + cyclohexane; phases: Liquid
Fixed: Pressure, kPa = 101
Property: Speed of sound, m/s (Liquid); method: Pulse-echo method
Temperature, K	Mole fraction of cyclohexane	Speed of sound, m/s	uncertainty
293.15	0	1322.72	0.99
293.15	0.0537	1315.05	0.99
293.15	0.11	1307.82	0.98
293.15	0.151	1303.08	0.98
293.15	0.1753	1300.39	0.98
293.15	0.2498	1293.08	0.98
293.15	0.2784	1290.62	0.97
293.15	0.3494	1285.26	0.97
293.15	0.3726	1283.79	0.97
293.15	0.4524	1279.14	0.97
293.15	0.474	1278.26	0.97
293.15	0.5524	1275.21	0.97
293.15	0.605	1273.74	0.97
293.15	0.6534	1272.74	0.97
293.15	0.706	1272.26	0.97
293.15	0.7323	1272.14	0.97
293.15	0.7779	1272.31	0.97
293.15	0.7948	1272.46	0.97
293.15	0.8506	1273.25	0.97
293.15	0.8887	1274.3	0.97
293.15	0.9376	1275.76	0.97
293.15	1	1278.55	0.98
298.15	0	1299.33	0.98
298.15	0.0537	1291.69	0.98
298.15	0.11	1284.64	0.97
298.15	0.151	1279.68	0.97
298.15	0.1753	1276.98	0.97
298.15	0.2498	1269.78	0.97
298.15	0.2784	1267.31	0.96
298.15	0.3494	1261.83	0.96
298.15	0.3726	1260.29	0.96
298.15	0.4524	1255.57	0.96
298.15	0.474	1254.49	0.96
298.15	0.5524	1251.39	0.96
298.15	0.605	1249.86	0.96
298.15	0.6534	1248.91	0.96
298.15	0.706	1248.31	0.96
298.15	0.7323	1248.28	0.96
298.15	0.7779	1248.24	0.96
298.15	0.7948	1248.3	0.96
298.15	0.8506	1249.1	0.96
298.15	0.8887	1249.86	0.96
298.15	0.9376	1251.33	0.96
298.15	1	1253.86	0.96
303.15	0	1275.96	0.97
303.15	0.0537	1268.27	0.97
303.15	0.11	1261.05	0.96
303.15	0.151	1256.09	0.96
303.15	0.1753	1253.51	0.96
303.15	0.2498	1246.26	0.95
303.15	0.2784	1243.78	0.95
303.15	0.3494	1238.28	0.95
303.15	0.3726	1236.71	0.95
303.15	0.4524	1232	0.95
303.15	0.474	1230.88	0.95
303.15	0.5524	1227.65	0.95
303.15	0.605	1226.07	0.95
303.15	0.6534	1225.15	0.94
303.15	0.706	1224.45	0.94
303.15	0.7323	1224.25	0.94
303.15	0.7779	1224.32	0.94
303.15	0.7948	1224.42	0.94
303.15	0.8506	1224.95	0.95
303.15	0.8887	1225.72	0.95
303.15	0.9376	1227.04	0.95
303.15	1	1229.34	0.95
308.15	0	1252.76	0.96
308.15	0.0537	1245.02	0.95
308.15	0.11	1237.91	0.95
308.15	0.151	1232.77	0.95
308.15	0.1753	1230.35	0.95
308.15	0.2498	1223.14	0.94
308.15	0.2784	1220.68	0.94
308.15	0.3494	1215.09	0.94
308.15	0.3726	1213.21	0.94
308.15	0.4524	1208.74	0.93
308.15	0.474	1207.51	0.94
308.15	0.5524	1204.11	0.93
308.15	0.605	1202.52	0.93
308.15	0.6534	1201.64	0.93
308.15	0.706	1200.71	0.93
308.15	0.7323	1200.61	0.93
308.15	0.7779	1200.71	0.93
308.15	0.7948	1200.71	0.93
308.15	0.8506	1201.18	0.93
308.15	0.8887	1201.86	0.93
308.15	0.9376	1203.03	0.94
308.15	1	1205.05	0.94
313.15	0	1229.76	0.95
313.15	0.0537	1222.06	0.94
313.15	0.11	1214.87	0.94
313.15	0.151	1210.01	0.94
313.15	0.1753	1207.23	0.93
313.15	0.2498	1200.12	0.93
313.15	0.2784	1197.62	0.93
313.15	0.3494	1191.96	0.93
313.15	0.3726	1190.29	0.92
313.15	0.4524	1185.56	0.92
313.15	0.474	1184.17	0.92
313.15	0.5524	1180.78	0.92
313.15	0.605	1179.21	0.92
313.15	0.6534	1178.29	0.92
313.15	0.706	1177.29	0.92
313.15	0.7323	1177.12	0.92
313.15	0.7779	1177.17	0.92
313.15	0.7948	1177.17	0.92
313.15	0.8506	1177.5	0.92
313.15	0.8887	1178.02	0.92
313.15	0.9376	1179.21	0.92
313.15	1	1181.03	0.92
318.15	0	1207.04	0.93
318.15	0.0537	1199.07	0.93
318.15	0.11	1192.04	0.93
318.15	0.151	1187.21	0.92
318.15	0.1753	1184.53	0.92
318.15	0.2498	1177.46	0.92
318.15	0.2784	1174.91	0.92
318.15	0.3494	1169.24	0.91
318.15	0.3726	1167.52	0.91
318.15	0.4524	1162.8	0.91
318.15	0.474	1161.31	0.91
318.15	0.5526	1157.83	0.91
318.15	0.605	1156.19	0.91
318.15	0.6534	1155.29	0.91
318.15	0.706	1154.22	0.91
318.15	0.7323	1154.02	0.91
318.15	0.7779	1153.96	0.91
318.15	0.7948	1153.96	0.91
318.15	0.8506	1154.21	0.91
318.15	0.8887	1154.61	0.91
318.15	0.9376	1155.74	0.91
318.15	1	1157.29	0.91
323.15	0	1184.47	0.92
323.15	0.0537	1176.78	0.92
323.15	0.11	1169.51	0.91
323.15	0.151	1164.71	0.91
323.15	0.1753	1161.92	0.91
323.15	0.2498	1154.89	0.91
323.15	0.2784	1152.35	0.91
323.15	0.3494	1146.63	0.9
323.15	0.3726	1144.92	0.9
323.15	0.4524	1140.09	0.9
323.15	0.474	1138.55	0.9
323.15	0.5524	1135.02	0.9
323.15	0.605	1133.29	0.89
323.15	0.6534	1132.47	0.9
323.15	0.706	1131.45	0.89
323.15	0.7323	1131.05	0.89
323.15	0.7779	1130.92	0.9
323.15	0.7948	1130.92	0.9
323.15	0.8506	1131.06	0.9
323.15	0.8887	1131.27	0.9
323.15	0.9376	1132.34	0.9
323.15	1	1133.73	0.9

System: benzene + cyclohexane; phases: Liquid
Fixed: Pressure, kPa = 101
Property: Mass density, kg/m3 (Liquid); method: Vibrating tube method
Temperature, K	Mole fraction of cyclohexane	Mass density, kg/m3	uncertainty
293.15	0	878.954	0.132
293.15	0.0537	871.229	0.136
293.15	0.11	863.467	0.137
293.15	0.151	858.073	0.138
293.15	0.1753	854.899	0.139
293.15	0.2498	845.7	0.14
293.15	0.2784	842.31	0.14
293.15	0.3494	834.203	0.142
293.15	0.3726	831.673	0.142
293.15	0.4524	823.25	0.144
293.15	0.474	821.061	0.144
293.15	0.5524	813.445	0.146
293.15	0.605	808.582	0.146
293.15	0.6534	804.357	0.147
293.15	0.706	799.894	0.148
293.15	0.7323	797.747	0.148
293.15	0.7779	794.133	0.149
293.15	0.7948	792.835	0.149
293.15	0.8506	788.677	0.15
293.15	0.8887	785.944	0.151
293.15	0.9376	782.618	0.151
293.15	1	778.547	0.152
298.15	0	873.614	0.133
298.15	0.0537	865.942	0.137
298.15	0.11	858.23	0.138
298.15	0.151	852.871	0.139
298.15	0.1753	849.715	0.139
298.15	0.2498	840.578	0.141
298.15	0.2784	837.205	0.141
298.15	0.3494	829.15	0.143
298.15	0.3726	826.634	0.143
298.15	0.4524	818.264	0.145
298.15	0.474	816.09	0.145
298.15	0.5524	808.52	0.147
298.15	0.605	803.69	0.147
298.15	0.6534	799.491	0.148
298.15	0.706	795.053	0.149
298.15	0.7323	792.92	0.149
298.15	0.7779	789.33	0.15
298.15	0.7948	788.039	0.15
298.15	0.8506	783.909	0.151
298.15	0.8887	781.195	0.152
298.15	0.9376	777.889	0.153
298.15	1	773.844	0.153
303.15	0	868.257	0.134
303.15	0.0537	860.637	0.138
303.15	0.11	852.975	0.139
303.15	0.151	847.649	0.14
303.15	0.1753	844.511	0.141
303.15	0.2498	835.434	0.142
303.15	0.2784	832.079	0.143
303.15	0.3494	824.075	0.144
303.15	0.3726	821.572	0.144
303.15	0.4524	813.253	0.146
303.15	0.474	811.094	0.146
303.15	0.5524	803.569	0.148
303.15	0.605	798.771	0.149
303.15	0.6534	794.598	0.149
303.15	0.706	790.183	0.15
303.15	0.7323	788.064	0.151
303.15	0.7779	784.497	0.151
303.15	0.7948	783.213	0.152
303.15	0.8506	779.11	0.153
303.15	0.8887	776.414	0.153
303.15	0.9376	773.127	0.154
303.15	1	769.111	0.154
308.15	0	862.885	0.135
308.15	0.0537	855.317	0.139
308.15	0.11	847.704	0.14
308.15	0.151	842.411	0.141
308.15	0.1753	839.291	0.142
308.15	0.2498	830.274	0.143
308.15	0.2784	826.935	0.144
308.15	0.3494	818.981	0.145
308.15	0.3726	816.491	0.146
308.15	0.4524	808.222	0.147
308.15	0.474	806.078	0.147
308.15	0.5524	798.597	0.149
308.15	0.605	793.83	0.15
308.15	0.6534	789.682	0.151
308.15	0.706	785.291	0.152
308.15	0.7323	783.186	0.152
308.15	0.7779	779.641	0.153
308.15	0.7948	778.363	0.153
308.15	0.8506	774.287	0.154
308.15	0.8887	771.608	0.154
308.15	0.9376	768.34	0.155
308.15	1	764.351	0.155
313.15	0	857.494	0.136
313.15	0.0537	849.977	0.14
313.15	0.11	842.412	0.142
313.15	0.151	837.152	0.142
313.15	0.1753	834.049	0.143
313.15	0.2498	825.091	0.144
313.15	0.2784	821.769	0.145
313.15	0.3494	813.864	0.146
313.15	0.3726	811.387	0.147
313.15	0.4524	803.167	0.148
313.15	0.474	801.038	0.149
313.15	0.5524	793.599	0.15
313.15	0.605	788.864	0.151
313.15	0.6534	784.74	0.152
313.15	0.706	780.371	0.153
313.15	0.7323	778.279	0.153
313.15	0.7779	774.757	0.154
313.15	0.7948	773.485	0.154
313.15	0.8506	769.435	0.155
313.15	0.8887	766.772	0.156
313.15	0.9376	763.523	0.156
313.15	1	759.561	0.157
318.15	0	852.087	0.138
318.15	0.0537	844.637	0.142
318.15	0.11	837.12	0.143
318.15	0.151	831.893	0.144
318.15	0.1753	828.806	0.144
318.15	0.2498	819.908	0.146
318.15	0.2784	816.602	0.146
318.15	0.3494	808.747	0.148
318.15	0.3726	806.282	0.148
318.15	0.4524	798.112	0.15
318.15	0.474	795.997	0.15
318.15	0.5526	788.601	0.151
318.15	0.605	783.897	0.152
318.15	0.6534	779.797	0.153
318.15	0.706	775.451	0.154
318.15	0.7323	773.373	0.155
318.15	0.7779	769.872	0.155
318.15	0.7948	768.607	0.155
318.15	0.8506	764.582	0.156
318.15	0.8887	761.937	0.157
318.15	0.9376	758.706	0.158
318.15	1	754.74	0.158
323.15	0	846.659	0.139
323.15	0.0537	839.242	0.143
323.15	0.11	831.772	0.144
323.15	0.151	826.576	0.145
323.15	0.1753	823.506	0.145
323.15	0.2498	814.664	0.147
323.15	0.2784	811.374	0.147
323.15	0.3494	803.565	0.149
323.15	0.3726	801.112	0.149
323.15	0.4524	792.989	0.151
323.15	0.474	790.887	0.151
323.15	0.5524	783.531	0.153
323.15	0.605	778.857	0.154
323.15	0.6534	774.779	0.154
323.15	0.706	770.453	0.155
323.15	0.7323	768.388	0.156
323.15	0.7779	764.908	0.157
323.15	0.7948	763.648	0.157
323.15	0.8506	759.648	0.158
323.15	0.8887	757.018	0.158
323.15	0.9376	753.803	0.159
323.15	1	749.887	0.159

System: benzaldehyde + cyclohexane; phases: Liquid
Fixed: Pressure, kPa = 101
Property: Speed of sound, m/s (Liquid); method: Pulse-echo method
Temperature, K	Mole fraction of cyclohexane	Speed of sound, m/s	uncertainty
293.15	0	1476.74	1.02
293.15	0.0348	1466.87	1.02
293.15	0.0766	1454.98	1.02
293.15	0.1159	1444.33	1.02
293.15	0.123	1442.15	1.01
293.15	0.2034	1420.74	1.01
293.15	0.2474	1409.12	1.01
293.15	0.2886	1398.17	1
293.15	0.3355	1386.39	1
293.15	0.3809	1375.38	1
293.15	0.4261	1364.68	0.99
293.15	0.4807	1352.19	0.99
293.15	0.5259	1342.58	0.99
293.15	0.5834	1330.9	0.99
293.15	0.6362	1320.68	0.99
293.15	0.6904	1311.27	0.98
293.15	0.7502	1301.95	0.98
293.15	0.8036	1294.47	0.98
293.15	0.8666	1287.48	0.98
293.15	0.929	1282.09	0.98
293.15	1	1278.55	0.98
298.15	0	1458.21	1.02
298.15	0.0348	1447.95	1.02
298.15	0.0766	1435.94	1.01
298.15	0.1159	1424.77	1.01
298.15	0.123	1422.78	1.01
298.15	0.2034	1400.49	1
298.15	0.2474	1388.55	0.99
298.15	0.2886	1377.34	0.99
298.15	0.3355	1365.29	0.98
298.15	0.3809	1353.73	0.98
298.15	0.4261	1342.83	0.98
298.15	0.4807	1329.85	0.97
298.15	0.5259	1319.65	0.97
298.15	0.5834	1307.64	0.97
298.15	0.6362	1297.45	0.97
298.15	0.6904	1287.69	0.97
298.15	0.7502	1278.19	0.97
298.15	0.8036	1270.84	0.97
298.15	0.8666	1263.53	0.97
298.15	0.929	1257.86	0.97
298.15	1	1253.86	0.96
303.15	0	1439.68	1.01
303.15	0.0348	1428.64	1.01
303.15	0.0766	1416.43	1
303.15	0.1159	1405.07	1
303.15	0.123	1403.09	1
303.15	0.2034	1380.58	0.99
303.15	0.2474	1368.63	0.98
303.15	0.2886	1357.62	0.98
303.15	0.3355	1345.5	0.97
303.15	0.3809	1333.68	0.97
303.15	0.4261	1322.5	0.96
303.15	0.4807	1309.13	0.96
303.15	0.5259	1298.86	0.96
303.15	0.5834	1286.23	0.95
303.15	0.6362	1275.15	0.95
303.15	0.6904	1264.82	0.95
303.15	0.7502	1254.28	0.95
303.15	0.8036	1246.16	0.95
303.15	0.8666	1238.42	0.96
303.15	0.929	1232.71	0.95
303.15	1	1229.34	0.95
308.15	0	1421.24	1
308.15	0.0348	1409.97	1
308.15	0.0766	1397.54	0.99
308.15	0.1159	1385.93	0.99
308.15	0.123	1383.95	0.99
308.15	0.2034	1360.93	0.98
308.15	0.2474	1348.62	0.97
308.15	0.2886	1337.41	0.97
308.15	0.3355	1324.97	0.97
308.15	0.3809	1312.96	0.96
308.15	0.4261	1301.52	0.96
308.15	0.4807	1287.98	0.95
308.15	0.5259	1277.25	0.95
308.15	0.5834	1264.24	0.95
308.15	0.6362	1253.02	0.94
308.15	0.6904	1242.37	0.94
308.15	0.7502	1231.54	0.94
308.15	0.8036	1223.26	0.94
308.15	0.8666	1214.94	0.94
308.15	0.929	1208.97	0.94
308.15	1	1205.05	0.94
313.15	0	1402.93	0.99
313.15	0.0348	1391.27	0.99
313.15	0.0766	1378.49	0.98
313.15	0.1159	1366.81	0.98
313.15	0.123	1364.7	0.98
313.15	0.2034	1341.22	0.97
313.15	0.2474	1328.68	0.96
313.15	0.2886	1317.2	0.96
313.15	0.3355	1304.35	0.95
313.15	0.3809	1292.31	0.95
313.15	0.4261	1280.55	0.94
313.15	0.4807	1266.68	0.94
313.15	0.5259	1255.64	0.94
313.15	0.5834	1242.26	0.93
313.15	0.6362	1230.91	0.93
313.15	0.6904	1219.91	0.93
313.15	0.7502	1208.85	0.93
313.15	0.8036	1200.28	0.93
313.15	0.8666	1191.57	0.92
313.15	0.929	1185.24	0.92
313.15	1	1181.03	0.92
318.15	0	1384.71	0.98
318.15	0.0348	1373.14	0.98
318.15	0.0766	1360.08	0.97
318.15	0.1159	1348.11	0.97
318.15	0.123	1346.02	0.97
318.15	0.2034	1322.24	0.96
318.15	0.2474	1309.59	0.95
318.15	0.2886	1297.92	0.94
318.15	0.3355	1284.79	0.94
318.15	0.3809	1272.47	0.94
318.15	0.4261	1260.44	0.93
318.15	0.4807	1246.28	0.93
318.15	0.5259	1234.82	0.92
318.15	0.5834	1221.15	0.92
318.15	0.6362	1209.31	0.92
318.15	0.6904	1197.95	0.92
318.15	0.7502	1186.45	0.92
318.15	0.8036	1177.46	0.91
318.15	0.8666	1168.64	0.91
318.15	0.929	1161.87	0.91
318.15	1	1157.29	0.91
323.15	0	1366.65	0.97
323.15	0.0348	1355.02	0.97
323.15	0.0766	1341.64	0.96
323.15	0.1159	1329.42	0.96
323.15	0.123	1327.38	0.96
323.15	0.2034	1303.28	0.95
323.15	0.2474	1290.47	0.94
323.15	0.2886	1278.64	0.94
323.15	0.3355	1265.24	0.93
323.15	0.3809	1252.64	0.93
323.15	0.4261	1240.33	0.92
323.15	0.4807	1225.84	0.92
323.15	0.5259	1214.1	0.91
323.15	0.5834	1200.07	0.91
323.15	0.6362	1187.59	0.91
323.15	0.6904	1175.96	0.9
323.15	0.7502	1164.11	0.9
323.15	0.8036	1154.67	0.9
323.15	0.8666	1145.64	0.9
323.15	0.929	1138.38	0.89
323.15	1	1133.73	0.9

System: benzaldehyde + cyclohexane; phases: Liquid
Fixed: Pressure, kPa = 101
Property: Mass density, kg/m3 (Liquid); method: Vibrating tube method
Temperature, K	Mole fraction of cyclohexane	Mass density, kg/m3	uncertainty
293.15	0	1045.545	0.118
293.15	0.0348	1035.471	0.13
293.15	0.0766	1023.327	0.128
293.15	0.1159	1011.962	0.126
293.15	0.123	1009.939	0.126
293.15	0.2034	986.828	0.127
293.15	0.2474	974.335	0.128
293.15	0.2886	962.673	0.129
293.15	0.3355	949.528	0.13
293.15	0.3809	936.911	0.132
293.15	0.4261	924.426	0.133
293.15	0.4807	909.54	0.135
293.15	0.5259	897.406	0.137
293.15	0.5834	882.111	0.139
293.15	0.6362	868.23	0.142
293.15	0.6904	854.214	0.144
293.15	0.7502	838.981	0.147
293.15	0.8036	825.611	0.149
293.15	0.8666	810.152	0.152
293.15	0.929	795.158	0.155
293.15	1	778.547	0.152
298.15	0	1041.039	0.117
298.15	0.0348	1030.948	0.129
298.15	0.0766	1018.803	0.128
298.15	0.1159	1007.421	0.126
298.15	0.123	1005.391	0.126
298.15	0.2034	982.244	0.127
298.15	0.2474	969.742	0.128
298.15	0.2886	958.071	0.129
298.15	0.3355	944.91	0.131
298.15	0.3809	932.276	0.132
298.15	0.4261	919.776	0.134
298.15	0.4807	904.865	0.136
298.15	0.5259	892.719	0.138
298.15	0.5834	877.402	0.14
298.15	0.6362	863.504	0.142
298.15	0.6904	849.473	0.145
298.15	0.7502	834.243	0.148
298.15	0.8036	820.874	0.15
298.15	0.8666	805.421	0.153
298.15	0.929	790.436	0.156
298.15	1	773.844	0.153
303.15	0	1036.528	0.116
303.15	0.0348	1026.388	0.129
303.15	0.0766	1014.226	0.127
303.15	0.1159	1002.869	0.126
303.15	0.123	1000.804	0.126
303.15	0.2034	977.664	0.128
303.15	0.2474	965.145	0.129
303.15	0.2886	953.456	0.13
303.15	0.3355	940.281	0.131
303.15	0.3809	927.623	0.133
303.15	0.4261	915.105	0.135
303.15	0.4807	900.174	0.137
303.15	0.5259	888.014	0.139
303.15	0.5834	872.647	0.141
303.15	0.6362	858.767	0.143
303.15	0.6904	844.724	0.146
303.15	0.7502	829.484	0.149
303.15	0.8036	816.115	0.151
303.15	0.8666	800.673	0.154
303.15	0.929	785.696	0.157
303.15	1	769.111	0.154
308.15	0	1032.012	0.116
308.15	0.0348	1021.911	0.128
308.15	0.0766	1009.726	0.127
308.15	0.1159	998.314	0.125
308.15	0.123	996.281	0.126
308.15	0.2034	973.076	0.128
308.15	0.2474	960.542	0.129
308.15	0.2886	948.834	0.131
308.15	0.3355	935.644	0.132
308.15	0.3809	922.962	0.134
308.15	0.4261	910.429	0.135
308.15	0.4807	895.477	0.138
308.15	0.5259	883.287	0.139
308.15	0.5834	867.942	0.142
308.15	0.6362	854.035	0.144
308.15	0.6904	839.957	0.147
308.15	0.7502	824.71	0.15
308.15	0.8036	811.339	0.152
308.15	0.8666	795.868	0.155
308.15	0.929	780.925	0.159
308.15	1	764.351	0.155
313.15	0	1027.493	0.115
313.15	0.0348	1017.372	0.128
313.15	0.0766	1005.168	0.126
313.15	0.1159	993.753	0.126
313.15	0.123	991.684	0.126
313.15	0.2034	968.482	0.129
313.15	0.2474	955.929	0.13
313.15	0.2886	944.202	0.131
313.15	0.3355	930.967	0.133
313.15	0.3809	918.29	0.135
313.15	0.4261	905.745	0.136
313.15	0.4807	890.767	0.139
313.15	0.5259	878.519	0.14
313.15	0.5834	863.145	0.143
313.15	0.6362	849.241	0.145
313.15	0.6904	835.173	0.148
313.15	0.7502	819.919	0.151
313.15	0.8036	806.542	0.153
313.15	0.8666	791.088	0.157
313.15	0.929	776.123	0.16
313.15	1	759.561	0.157
318.15	0	1022.968	0.115
318.15	0.0348	1012.816	0.127
318.15	0.0766	1000.624	0.126
318.15	0.1159	989.185	0.127
318.15	0.123	987.141	0.127
318.15	0.2034	963.894	0.129
318.15	0.2474	951.308	0.131
318.15	0.2886	939.57	0.132
318.15	0.3355	926.353	0.134
318.15	0.3809	913.611	0.135
318.15	0.4261	901.046	0.137
318.15	0.4807	886.046	0.139
318.15	0.5259	873.802	0.141
318.15	0.5834	858.384	0.144
318.15	0.6362	844.46	0.146
318.15	0.6904	830.377	0.149
318.15	0.7502	815.111	0.152
318.15	0.8036	801.726	0.155
318.15	0.8666	786.288	0.158
318.15	0.929	771.313	0.161
318.15	1	754.74	0.158
323.15	0	1018.439	0.114
323.15	0.0348	1008.283	0.127
323.15	0.0766	996.073	0.126
323.15	0.1159	984.61	0.127
323.15	0.123	982.562	0.127
323.15	0.2034	959.271	0.13
323.15	0.2474	946.677	0.131
323.15	0.2886	934.912	0.133
323.15	0.3355	921.647	0.134
323.15	0.3809	908.9	0.136
323.15	0.4261	896.304	0.138
323.15	0.4807	881.315	0.14
323.15	0.5259	869.019	0.142
323.15	0.5834	853.589	0.145
323.15	0.6362	839.64	0.147
323.15	0.6904	825.561	0.15
323.15	0.7502	810.284	0.153
323.15	0.8036	796.889	0.156
323.15	0.8666	781.422	0.159
323.15	0.929	766.452	0.162
323.15	1	749.887	0.159
