Measured thermophysical data. Vapor pressure data of nicotine, anabasine and cotinine using differential scanning calorimetry
Source: Thermochim. Acta, 2014, 10.1016/j.tca.2014.08.033
Compound 1: (-)-3-(N-methylpyrrolidino)pyridine, C10H14N2, InChI=1S/C10H14N2/c1-12-7-3-5-10(12)9-4-2-6-11-8-9/h2,4,6,8,10H,3,5,7H2,1H3/t10-/m0/s1, purity 99%
Compound 2: (.+-.)-anabasine, C10H14N2, InChI=1S/C10H14N2/c1-2-7-12-10(5-1)9-4-3-6-11-8-9/h3-4,6,8,10,12H,1-2,5,7H2, purity 97.1%
Compound 3: (S)-cotinine, C10H12N2O, InChI=1S/C10H12N2O/c1-12-9(4-5-10(12)13)8-3-2-6-11-7-8/h2-3,6-7,9H,4-5H2,1H3/t9-/m0/s1, purity 98%
Compound 4: toluene, C7H8, InChI=1S/C7H8/c1-7-5-3-2-4-6-7/h2-6H,1H3, purity 99.8%
Compound 5: hexadecane, C16H34, InChI=1S/C16H34/c1-3-5-7-9-11-13-15-16-14-12-10-8-6-4-2/h3-16H2,1-2H3, purity 99.8%
Compound 6: water, H2O, InChI=1S/H2O/h1H2, purity 99.8%

System: (-)-3-(N-methylpyrrolidino)pyridine; phases: Liquid, Gas
Property: Vapor or sublimation pressure, kPa (Liquid); method: DSC
Temperature, K	Vapor or sublimation pressure, kPa	uncertainty
447.7	14.96	1.16
457.2	19.93	1.55
471.1	29.87	2.32
490.6	49.83	3.87
510.1	79.61	6.18
520.4	99.84	7.74
566.4	247.84	19.26
594.8	397.81	30.9
609.3	500.02	38.85
617.8	568.97	44.2

System: (.+-.)-anabasine; phases: Liquid, Gas
Property: Vapor or sublimation pressure, kPa (Liquid); method: DSC
Temperature, K	Vapor or sublimation pressure, kPa	uncertainty
478	14.95	1.16
488	19.9	1.55
502.9	29.84	2.32
523	49.73	3.86
543.5	79.59	6.18
555.1	99.57	7.73
602.5	248.35	19.31
631.3	398.33	30.96
640.7	468.91	36.48
644.3	498.63	38.79

System: (S)-cotinine; phases: Liquid, Gas
Property: Vapor or sublimation pressure, kPa (Liquid); method: DSC
Temperature, K	Vapor or sublimation pressure, kPa	uncertainty
537.7	14.95	1.16
548.4	19.9	1.55
564.2	29.82	2.32
585.6	49.74	3.86
601.3	69.56	5.39
607.4	79.5	6.17
619.2	101.32	7.86
655.4	197.04	15.31
669.7	247.52	19.22

System: toluene; phases: Liquid, Gas
Property: Vapor or sublimation pressure, kPa (Liquid); method: DSC
Temperature, K	Vapor or sublimation pressure, kPa	uncertainty
327.6	14.9	1.17
360.7	49.6	3.85
375.8	79.3	6.16
384.3	102.73	7.97
383.5	100.66	7.81
451	498.3	38.62
451.5	499.9	38.74
490.4	1009.33	78.36

System: hexadecane; phases: Liquid, Gas
Property: Vapor or sublimation pressure, kPa (Liquid); method: DSC
Temperature, K	Vapor or sublimation pressure, kPa	uncertainty
486.1	14.78	1.16
529.6	49.76	3.86
549.3	79.6	6.17
560.9	102.04	7.91
560.5	101.35	7.86

System: water; phases: Liquid, Gas
Property: Vapor or sublimation pressure, kPa (Liquid); method: DSC
Temperature, K	Vapor or sublimation pressure, kPa	uncertainty
354.7	49.7	3.88
366.85	79.6	6.19
373.47	100.66	7.82
406.69	298.53	23.32
425.39	498.99	38.89
