Measured thermophysical data. D2O-H2O solvent isotope effects on the enthalpies of bicaret (tetraethylglycoluril) hydration and dilution of its aqueous solutions at different temperatures
Source: Thermochim. Acta, 2014, 10.1016/j.tca.2014.05.011
Compound 1: water, H2O, InChI=1S/H2O/h1H2
Compound 2: water-d2, D2O, InChI=1S/H2O/h1H2/i/hD2, purity 99.92%
Compound 3: bicaret, C12H22N4O2, InChI=1S/C12H22N4O2/c1-5-13-9-10(15(7-3)11(13)17)16(8-4)12(18)14(9)6-2/h9-10H,5-8H2,1-4H3

System: bicaret; phases: Crystal, Liquid, Air at 1 atmosphere
Property: Normal melting temperature, K (Crystal); method: VISOBS
Normal melting temperature, K	uncertainty
381.15	2

System: water + bicaret; phases: Liquid
Fixed: Temperature, K = 298.15
Fixed: Pressure, kPa = 101
Property: Molar enthalpy of dilution, kJ/mol (Liquid); method: ISOPERIBOL
Initial molality of solute, mol/kg	Final molality of solute, mol/kg	Molar enthalpy of dilution, kJ/mol	uncertainty
0.651	0.01	-0.93	0.093
0.651	0.0077	-0.948	0.095
0.9961	0.0158	-1.715	0.172
0.9961	0.0101	-1.713	0.172
1.4134	0.013	-2.523	0.253
1.4134	0.011	-2.555	0.256

System: water + bicaret; phases: Liquid
Fixed: Pressure, kPa = 101
Property: Molar enthalpy of solution, kJ/mol (Liquid); method: ISOPERIBOL
Temperature, K	Molality, mol/kg of bicaret	Molar enthalpy of solution, kJ/mol	uncertainty
278.15	0.0047	-15.66	0.22
288.15	0.0052	-11.2	0.33
298.15	0.0053	-6.83	0.26
308.15	0.0059	-2.33	0.13
318.15	0.0055	1.97	0.29

System: water-d2 + bicaret; phases: Liquid
Fixed: Temperature, K = 298.15
Fixed: Pressure, kPa = 101
Property: Molar enthalpy of dilution, kJ/mol (Liquid); method: ISOPERIBOL
Initial molality of solute, mol/kg	Final molality of solute, mol/kg	Molar enthalpy of dilution, kJ/mol	uncertainty
0.498	0.0077	-1.026	0.103
0.498	0.0075	-0.84	0.084
1.0088	0.0162	-2.556	0.256
1.0088	0.0087	-2.425	0.243
1.4525	0.016	-3.969	0.398
1.4525	0.0159	-4.05	0.406

System: water-d2 + bicaret; phases: Liquid
Fixed: Pressure, kPa = 101
Property: Molar enthalpy of solution, kJ/mol (Liquid); method: ISOPERIBOL
Temperature, K	Molality, mol/kg of bicaret	Molar enthalpy of solution, kJ/mol	uncertainty
278.15	0.0055	-16.67	0.28
288.15	0.006	-12.13	0.18
298.15	0.0044	-7.68	0.23
308.15	0.0049	-3.08	0.32
318.15	0.0049	1.33	0.25
