Measured thermophysical data. Low-temperature Heat Capacities and Thermodynamic Properties of Ethylenediammonium  Tetrachlorozincate Chloride (C2H10N2)2(ZnCl4)Cl2
Source: Thermochim. Acta, 2010, 10.1016/j.tca.2010.04.012
Compound 1: water, H2O, InChI=1S/H2O/h1H2
Compound 2: bis-ethylenediammonium tetrachlorozincate dichloride, C4H20Cl6N4Zn, InChI=1S/2C2H8N2.6ClH.Zn/c2*3-1-2-4;;;;;;;/h2*1-4H2;6*1H;/q;;;;;;;;+2/p-2
Compound 3: ethanediamine dihydrochloride, C2H10Cl2N2, InChI=1S/C2H8N2.2ClH/c3-1-2-4;;/h1-4H2;2*1H
Compound 4: zinc chloride, Cl2Zn, InChI=1S/2ClH.Zn/h2*1H;/q;;+2/p-2, purity 99%

System: bis-ethylenediammonium tetrachlorozincate dichloride; phases: Crystal
Property: Mass density, kg/m3 (Crystal); method: X-ray diffraction
Temperature, K	Pressure, kPa	Mass density, kg/m3	uncertainty
298	101.325	1752	2

System: bis-ethylenediammonium tetrachlorozincate dichloride; phases: Crystal
Fixed: Pressure, kPa = 101.325
Property: Molar heat capacity at constant pressure, J/K/mol (Crystal); method: Vacuum adiabatic calorimetry
Temperature, K	Molar heat capacity at constant pressure, J/K/mol	uncertainty
77.884	223.244	1.383
79.833	226.677	1.404
83.522	231.302	1.433
86.981	235.372	1.458
90.392	239.349	1.469
93.802	244.172	1.498
97.142	247.606	1.519
100.344	251.693	1.544
104.659	255.863	1.569
109.182	260.441	1.596
112.523	263.711	1.616
116.072	268.289	1.643
119.761	271.314	1.662
123.241	275.728	1.688
126.929	279.407	1.71
130.339	282.35	1.728
133.958	285.539	1.747
137.647	289.054	1.768
141.335	293.142	1.793
145.024	296.575	1.814
148.712	299.764	1.833
153.375	303.279	1.854
158.038	307.857	1.882
161.866	310.964	1.9
165.555	314.152	1.92
169.313	317.258	1.938
173.001	320.692	1.959
176.829	324.044	1.979
180.587	327.314	1.999
184.415	330.339	2.017
188.243	333.445	2.036
192.21	337.521	2.06
196.037	340.721	2.08
199.865	344.318	2.101
204.598	348.488	2.127
209.261	351.104	2.142
213.088	354.782	2.165
217.055	358.053	2.184
220.813	361.139	2.203
224.711	363.854	2.219
228.608	366.307	2.234
232.575	369.168	2.251
236.542	372.146	2.269
240.579	374.92	2.286
245.033	377.664	2.303
249.626	380.672	2.321
253.384	383.854	2.34
257.212	386.803	2.358
261.04	389.197	2.372
264.937	391.942	2.389
268.625	394.394	2.403
272.453	397.051	2.419
276.281	399.804	2.436
280.248	402.342	2.451
284.076	405.039	2.468
288.112	407.416	2.482
291.94	409.761	2.496
295.698	412.234	2.511
298.204	414.289	2.523
301.266	415.831	2.533
304.258	418.14	2.547
307.251	420.038	2.558
310.244	422.254	2.571
313.23	424.654	2.586
316.22	426.534	2.597
319.163	428.578	2.61
322.129	430.234	2.62
325.08	432.1	2.631
328.086	434.607	2.646
331.148	436.528	2.658
334.23	439.01	2.673
337.28	441.08	2.685
340.309	443.162	2.698
343.371	445.185	2.71
346.433	447.337	2.723
349.426	449.521	2.736
352.488	451.801	2.75
355.481	453.664	2.761
358.473	455.816	2.774
361.466	457.839	2.786
364.458	459.895	2.799
367.451	461.854	2.81
370.444	463.813	2.822
373.367	465.612	2.833
376.359	467.667	2.845

System: bis-ethylenediammonium tetrachlorozincate dichloride; phases: Crystal
Fixed: Pressure, kPa = 101.325
Property: Molar heat capacity at constant pressure, J/K/mol (Crystal); method: Vacuum adiabatic calorimetry
Temperature, K	Molar heat capacity at constant pressure, J/K/mol	uncertainty
80	229.29	1.42
85	235.19	1.46
90	240.98	1.48
95	246.67	1.51
100	252.26	1.55
105	257.75	1.58
110	263.13	1.61
115	268.43	1.64
120	273.63	1.68
125	278.74	1.71
130	283.75	1.74
135	288.69	1.77
140	293.53	1.8
145	298.3	1.82
150	302.98	1.85
155	307.59	1.88
160	312.12	1.91
165	316.57	1.93
170	320.96	1.96
175	325.27	1.99
180	329.52	2.01
185	333.7	2.04
190	337.83	2.06
195	341.89	2.09
200	345.89	2.11
205	349.84	2.13
210	353.74	2.16
215	357.59	2.18
220	361.39	2.2
225	365.14	2.23
230	368.85	2.25
235	372.52	2.27
240	376.16	2.29
245	379.75	2.32
250	383.32	2.34
255	386.85	2.36
260	390.36	2.38
265	393.84	2.4
270	397.29	2.42
275	400.73	2.44
280	404.15	2.46
285	407.55	2.48
290	410.94	2.5
295	414.32	2.52
298.15	416.45	2.54
300	417.69	2.54
305	421.06	2.56
310	424.43	2.58
315	427.79	2.6
320	431.16	2.63
325	434.53	2.65
330	437.92	2.67
335	441.31	2.69
340	444.72	2.71
345	448.14	2.73
350	451.59	2.75
355	455.05	2.77
360	458.54	2.79
365	462.06	2.81
370	465.6	2.83
375	469.18	2.85

System: bis-ethylenediammonium tetrachlorozincate dichloride; phases: Crystal
Fixed: Pressure, kPa = 101.325
Property: Molar enthalpy, kJ/mol (Crystal); method: Vacuum adiabatic calorimetry
Temperature, K	Molar enthalpy, kJ/mol	uncertainty
80	-72.059	0.444
85	-70.908	0.437
90	-69.727	0.42
95	-68.518	0.413
100	-67.281	0.405
105	-66.016	0.397
110	-64.724	0.39
115	-63.405	0.382
120	-62.059	0.373
125	-60.689	0.365
130	-59.292	0.357
135	-57.871	0.348
140	-56.426	0.339
145	-54.956	0.33
150	-53.463	0.321
155	-51.946	0.312
160	-50.407	0.303
165	-48.845	0.293
170	-47.261	0.284
175	-45.656	0.274
180	-44.029	0.264
185	-42.381	0.254
190	-40.712	0.244
195	-39.023	0.234
200	-37.313	0.224
205	-35.584	0.214
210	-33.835	0.203
215	-32.066	0.193
220	-30.279	0.182
225	-28.473	0.171
230	-26.648	0.16
235	-24.804	0.15
240	-22.942	0.139
245	-21.063	0.128
250	-19.165	0.117
255	-17.249	0.106
260	-15.316	0.095
265	-13.366	0.085
270	-11.398	0.075
275	-9.413	0.065
280	-7.4108	0.0562
285	-5.3916	0.0488
290	-3.3553	0.0436
295	-1.3022	0.0447
298.15	0	1
300	0.76788	0.04708
305	2.8548	0.0495
310	4.9585	0.0559
315	7.079	0.0653
320	9.2164	0.0758
325	11.371	0.087
330	13.542	0.099
335	15.73	0.111
340	17.935	0.124
345	20.157	0.136
350	22.396	0.149
355	24.653	0.163
360	26.927	0.176
365	29.218	0.19
370	31.528	0.203
375	33.855	0.217

System: bis-ethylenediammonium tetrachlorozincate dichloride; phases: Crystal
Fixed: Pressure, kPa = 101.325
Property: Molar entropy, J/K/mol (Crystal); method: Vacuum adiabatic calorimetry
Temperature, K	Molar entropy, J/K/mol	uncertainty
80	-410.7	3.79
85	-396.65	3.66
90	-383.04	3.45
95	-369.84	3.33
100	-357.02	3.22
105	-344.55	3.1
110	-332.42	3
115	-320.59	2.89
120	-309.05	2.78
125	-297.78	2.68
130	-286.75	2.58
135	-275.96	2.48
140	-265.39	2.39
145	-255.02	2.3
150	-244.84	2.2
155	-234.85	2.11
160	-225.03	2.03
165	-215.37	1.94
170	-205.86	1.85
175	-196.5	1.77
180	-187.28	1.69
185	-178.2	1.6
190	-169.24	1.52
195	-160.41	1.44
200	-151.69	1.37
205	-143.09	1.29
210	-134.61	1.21
215	-126.23	1.14
220	-117.95	1.07
225	-109.77	0.99
230	-101.7	0.92
235	-93.716	0.851
240	-85.827	0.782
245	-78.027	0.714
250	-70.315	0.648
255	-62.688	0.583
260	-55.142	0.52
265	-47.676	0.459
270	-40.287	0.4
275	-32.973	0.346
280	-25.73	0.296
285	-18.556	0.255
290	-11.449	0.225
295	-4.4056	0.2273
298.15	0	1
300	2.5763	0.2354
305	9.4993	0.2434
310	16.366	0.273
315	23.178	0.316
320	29.939	0.363
325	36.65	0.415
330	43.312	0.468
335	49.929	0.522
340	56.5	0.577
345	63.027	0.632
350	69.511	0.688
355	75.952	0.744
360	82.349	0.799
365	88.701	0.855
370	95.007	0.911
375	101.26	0.97

System: bis-ethylenediammonium tetrachlorozincate dichloride + water; phases: Liquid, Crystal
Property: Molar enthalpy of solution, kJ/mol (Liquid); method: ISOPERIBOL
Temperature, K	Mole fraction of bis-ethylenediammonium tetrachlorozincate dichloride	Molar enthalpy of solution, kJ/mol	uncertainty
298.15	0	16.478	0.549

System: ethanediamine dihydrochloride + water; phases: Liquid, Crystal
Property: Molar enthalpy of solution, kJ/mol (Liquid); method: ISOPERIBOL
Temperature, K	Mole fraction of ethanediamine dihydrochloride	Molar enthalpy of solution, kJ/mol	uncertainty
298.15	0	20.381	0.455

Reaction: 1 bis-ethylenediammonium tetrachlorozincate dichloride + -2 ethanediamine dihydrochloride + -1 zinc chloride
Property: Molar enthalpy of reaction, kJ/mol
-17.886
