Measured thermophysical data. Nanocalorimetry measurements of metastable states
Source: Thermochim. Acta, 2015, 10.1016/j.tca.2014.06.017
Compound 1: D-mannitol, C6H14O6, InChI=1S/C6H14O6/c7-1-3(9)5(11)6(12)4(10)2-8/h3-12H,1-2H2/t3-,4-,5-,6-/m1/s1

System: D-mannitol; phases: Crystal, Liquid, Air at 1 atmosphere
Property: Normal melting temperature, K (Crystal); method: DTA:corrimp
Normal melting temperature, K	uncertainty
435	11
