Measured thermophysical data. Experimental and predicted excess molar enthalpies of some working pairs for absorption cycles
Source: Thermochim. Acta, 2009, 10.1016/j.tca.2009.06.004
Compound 1: ethanol, C2H6O, InChI=1S/C2H6O/c1-2-3/h3H,2H2,1H3
Compound 2: 1,2-ethanediol, C2H6O2, InChI=1S/C2H6O2/c3-1-2-4/h3-4H,1-2H2, purity 99%
Compound 3: diethylene glycol, C4H10O3, InChI=1S/C4H10O3/c5-1-3-7-4-2-6/h5-6H,1-4H2, purity 99%
Compound 4: triethylene glycol, C6H14O4, InChI=1S/C6H14O4/c7-1-3-9-5-6-10-4-2-8/h7-8H,1-6H2, purity 99%
Compound 5: glycerol, C3H8O3, InChI=1S/C3H8O3/c4-1-3(6)2-5/h3-6H,1-2H2, purity 99%
Compound 6: water, H2O, InChI=1S/H2O/h1H2

System: 1,2-ethanediol + water; phases: Liquid
Fixed: Temperature, K = 298.15
Fixed: Pressure, kPa = 101
Property: Excess molar enthalpy (molar enthalpy of mixing), kJ/mol (Liquid); method: Calvet calorimetry
Mole fraction of water	Excess molar enthalpy (molar enthalpy of mixing), kJ/mol	uncertainty
0.1014	-0.174	0.003
0.1994	-0.337	0.004
0.2091	-0.347	0.005
0.3051	-0.48	0.006
0.3674	-0.559	0.007
0.3995	-0.59	0.007
0.4807	-0.64	0.007
0.5455	-0.666	0.008
0.6144	-0.698	0.008
0.669	-0.715	0.008
0.7949	-0.681	0.008
0.8656	-0.57	0.007
0.915	-0.423	0.005

System: diethylene glycol + water; phases: Liquid
Fixed: Temperature, K = 298.15
Fixed: Pressure, kPa = 101
Property: Excess molar enthalpy (molar enthalpy of mixing), kJ/mol (Liquid); method: Calvet calorimetry
Mole fraction of water	Excess molar enthalpy (molar enthalpy of mixing), kJ/mol	uncertainty
0.1026	-0.275	0.004
0.2012	-0.511	0.006
0.2094	-0.521	0.006
0.3067	-0.741	0.008
0.4068	-0.931	0.01
0.4937	-1.039	0.011
0.5018	-1.066	0.012
0.6003	-1.192	0.013
0.6996	-1.245	0.013
0.7998	-1.172	0.013
0.8999	-0.857	0.01
0.9002	-0.867	0.01
0.9498	-0.538	0.006

System: triethylene glycol + water; phases: Liquid
Fixed: Temperature, K = 298.15
Fixed: Pressure, kPa = 101
Property: Excess molar enthalpy (molar enthalpy of mixing), kJ/mol (Liquid); method: Calvet calorimetry
Mole fraction of water	Excess molar enthalpy (molar enthalpy of mixing), kJ/mol	uncertainty
0.1291	-0.44	0.005
0.2167	-0.787	0.009
0.3145	-1.079	0.012
0.4016	-1.34	0.014
0.5006	-1.606	0.017
0.6006	-1.803	0.019
0.6999	-1.876	0.02
0.7985	-1.767	0.019
0.9013	-1.307	0.014

System: glycerol + water; phases: Liquid
Fixed: Temperature, K = 298.15
Fixed: Pressure, kPa = 101
Property: Excess molar enthalpy (molar enthalpy of mixing), kJ/mol (Liquid); method: Calvet calorimetry
Mole fraction of water	Excess molar enthalpy (molar enthalpy of mixing), kJ/mol	uncertainty
0.1028	-0.152	0.003
0.2192	-0.292	0.004
0.3038	-0.387	0.005
0.3964	-0.471	0.006
0.5022	-0.547	0.006
0.5956	-0.598	0.007
0.6991	-0.611	0.007
0.8005	-0.56	0.007
0.8995	-0.364	0.005

System: ethanol + diethylene glycol; phases: Liquid
Fixed: Temperature, K = 298.15
Fixed: Pressure, kPa = 101
Property: Excess molar enthalpy (molar enthalpy of mixing), kJ/mol (Liquid); method: Calvet calorimetry
Mole fraction of ethanol	Excess molar enthalpy (molar enthalpy of mixing), kJ/mol	uncertainty
0.1048	0.076	0.002
0.1991	0.129	0.002
0.2967	0.193	0.003
0.4009	0.249	0.004
0.4963	0.262	0.004
0.5879	0.28	0.004
0.7041	0.252	0.004
0.7958	0.204	0.003
0.9006	0.121	0.002

System: ethanol + triethylene glycol; phases: Liquid
Fixed: Temperature, K = 298.15
Fixed: Pressure, kPa = 101
Property: Excess molar enthalpy (molar enthalpy of mixing), kJ/mol (Liquid); method: Calvet calorimetry
Mole fraction of ethanol	Excess molar enthalpy (molar enthalpy of mixing), kJ/mol	uncertainty
0.104	0.117	0.002
0.2042	0.245	0.003
0.301	0.35	0.005
0.399	0.435	0.005
0.5002	0.494	0.006
0.599	0.508	0.006
0.6993	0.47	0.006
0.7995	0.403	0.005
0.8992	0.26	0.004
