Measured thermophysical data. Study on preparation and thermal properties of sodium nitrate/silica composite as shape-stabilized phase change material
Source: Thermochim. Acta, 2015, 10.1016/j.tca.2015.05.023
Compound 1: sodium nitrate, NNaO3, InChI=1S/NO3.Na/c2-1(3)4;/q-1;+1, purity 98%

System: sodium nitrate; phases: Crystal, Liquid, Air at 1 atmosphere
Property: Molar enthalpy of transition or fusion, kJ/mol (Crystal); method: DSC
Molar enthalpy of transition or fusion, kJ/mol	uncertainty
16.06400019	0.50996826

System: sodium nitrate; phases: Crystal, Liquid, Air at 1 atmosphere
Property: Triple point temperature, K (Crystal); method: DTA
Triple point temperature, K	uncertainty
581.15	1
