Measured thermophysical data. On the melting temperatures of 3,6-diamino-9H-carbazole and 3,6-dinitro-9H-carbazole
Source: Thermochim. Acta, 2005, 10.1016/j.tca.2005.05.013
Compound 1: 3,6-diamino-9H-carbazole, C12H11N3, InChI=1S/C12H11N3/c13-7-1-3-11-9(5-7)10-6-8(14)2-4-12(10)15-11/h1-6,15H,13-14H2, purity 98%
Compound 2: 3,6-dinitro-9H-carbazole, C12H7N3O4, InChI=1S/C12H7N3O4/c16-14(17)7-1-3-11-9(5-7)10-6-8(15(18)19)2-4-12(10)13-11/h1-6,13H, purity 98%

System: 3,6-diamino-9H-carbazole; phases: Crystal, Liquid, Air at 1 atmosphere
Property: Normal melting temperature, K (Crystal); method: DTA:corrimp
Normal melting temperature, K	uncertainty
514.15	10.2

System: 3,6-dinitro-9H-carbazole; phases: Crystal, Liquid, Air at 1 atmosphere
Property: Normal melting temperature, K (Crystal); method: DTA:corrimp
Normal melting temperature, K	uncertainty
569.65	10.2
