Measured thermophysical data. Physico-chemical study of bioactive N-(5-ethyl-1,3,4-thiadiazole-2-yl)-4-nitrobenzamide: Sublimation, solubility and distribution
Source: Thermochim. Acta, 2017, 10.1016/j.tca.2017.09.010
Compound 1: N-(5-ethyl-1,3,4-thiadiazol-2-yl)-4-nitrobenzamide, C11H10N4O3S, InChI=1S/C11H10N4O3S/c1-2-9-13-14-11(19-9)12-10(16)7-3-5-8(6-4-7)15(17)18/h3-6H,2H2,1H3,(H,12,14,16), purity 97.5%
Compound 2: ethanol, C2H6O, InChI=1S/C2H6O/c1-2-3/h3H,2H2,1H3, purity 99%
Compound 3: octan-1-ol, C8H18O, InChI=1S/C8H18O/c1-2-3-4-5-6-7-8-9/h9H,2-8H2,1H3, purity 99%
Compound 4: hexane, C6H14, InChI=1S/C6H14/c1-3-5-6-4-2/h3-6H2,1-2H3, purity 97%

System: N-(5-ethyl-1,3,4-thiadiazol-2-yl)-4-nitrobenzamide; phases: Crystal, Liquid, Air at 1 atmosphere
Property: Normal melting temperature, K (Crystal); method: DTA
Normal melting temperature, K	uncertainty
555.35	0.4

System: N-(5-ethyl-1,3,4-thiadiazol-2-yl)-4-nitrobenzamide; phases: Crystal, Liquid, Air at 1 atmosphere
Property: Molar enthalpy of transition or fusion, kJ/mol (Crystal); method: DSC
Molar enthalpy of transition or fusion, kJ/mol	uncertainty
37.4	0.9

System: N-(5-ethyl-1,3,4-thiadiazol-2-yl)-4-nitrobenzamide; phases: Crystal, Gas
Property: Vapor or sublimation pressure, kPa (Crystal); method: Transpiration method
Temperature, K	Vapor or sublimation pressure, kPa	uncertainty
431.15	3.67e-05	1.61e-05
433.15	4.31e-05	1.61e-05
435.15	5.08e-05	1.62e-05
437.15	6.02e-05	1.62e-05
439.15	6.97e-05	1.63e-05
441.15	7.86e-05	1.64e-05
443.15	9.55e-05	1.65e-05
445.15	0.0001082	1.67e-05
447.15	0.0001286	1.69e-05
449.15	0.0001461	1.71e-05
451.15	0.0001715	1.74e-05
453.15	0.0001892	1.78e-05
455.15	0.0002223	1.88e-05
457.15	0.0002686	1.99e-05

System: N-(5-ethyl-1,3,4-thiadiazol-2-yl)-4-nitrobenzamide + hexane; phases: Liquid, Crystal
Fixed: Pressure, kPa = 100
Property: Mole fraction of N-(5-ethyl-1,3,4-thiadiazol-2-yl)-4-nitrobenzamide (Liquid); method: UV spectrophotometry
Temperature, K	Mole fraction of N-(5-ethyl-1,3,4-thiadiazol-2-yl)-4-nitrobenzamide	uncertainty
288.15	6.2e-06	5e-07
293.15	7.4e-06	6e-07
298.15	9.5e-06	8e-07
303.15	1.19e-05	1e-06
308.15	1.44e-05	1.2e-06
313.15	1.79e-05	1.4e-06
318.15	2.11e-05	1.7e-06

System: N-(5-ethyl-1,3,4-thiadiazol-2-yl)-4-nitrobenzamide + hexane; phases: Liquid, Crystal
Fixed: Pressure, kPa = 100
Property: Mass density, kg/m3 (Liquid); method: Vibrating tube method
Temperature, K	Mass density, kg/m3	uncertainty
288.15	664.2	4
293.15	659.7	4
298.15	655.4	4
303.15	650.8	3.9
308.15	645.7	3.9
313.15	641.2	3.9
318.15	637.1	3.9

System: N-(5-ethyl-1,3,4-thiadiazol-2-yl)-4-nitrobenzamide + ethanol; phases: Liquid, Crystal
Fixed: Pressure, kPa = 100
Property: Mole fraction of N-(5-ethyl-1,3,4-thiadiazol-2-yl)-4-nitrobenzamide (Liquid); method: spectrophotometry
Temperature, K	Mole fraction of N-(5-ethyl-1,3,4-thiadiazol-2-yl)-4-nitrobenzamide	uncertainty
288.15	2.81e-05	2.3e-06
293.15	3.17e-05	2.6e-06
298.15	3.91e-05	3.2e-06
303.15	4.87e-05	3.9e-06
308.15	5.95e-05	4.8e-06
313.15	7.34e-05	5.9e-06
318.15	8.87e-05	7.2e-06

System: N-(5-ethyl-1,3,4-thiadiazol-2-yl)-4-nitrobenzamide + ethanol; phases: Liquid, Crystal
Fixed: Pressure, kPa = 100
Property: Mass density, kg/m3 (Liquid); method: Vibrating tube method
Temperature, K	Mass density, kg/m3	uncertainty
288.15	798.4	4.8
293.15	792.4	4.8
298.15	787.3	4.7
303.15	781.3	4.7
308.15	775.3	4.7
313.15	769.9	4.6
318.15	763.4	4.6

System: N-(5-ethyl-1,3,4-thiadiazol-2-yl)-4-nitrobenzamide + octan-1-ol; phases: Liquid, Crystal
Fixed: Pressure, kPa = 100
Property: Mole fraction of N-(5-ethyl-1,3,4-thiadiazol-2-yl)-4-nitrobenzamide (Liquid); method: spectrophotometry
Temperature, K	Mole fraction of N-(5-ethyl-1,3,4-thiadiazol-2-yl)-4-nitrobenzamide	uncertainty
288.15	4.34e-05	3.5e-06
293.15	5.22e-05	4.2e-06
298.15	6.52e-05	5.3e-06
303.15	8.06e-05	6.5e-06
308.15	9.61e-05	7.8e-06
313.15	0.0001176	9.5e-06
318.15	0.0001399	1.13e-05

System: N-(5-ethyl-1,3,4-thiadiazol-2-yl)-4-nitrobenzamide + octan-1-ol; phases: Liquid, Crystal
Fixed: Pressure, kPa = 100
Property: Mass density, kg/m3 (Liquid); method: Vibrating tube method
Temperature, K	Mass density, kg/m3	uncertainty
288.15	834.5	5
293.15	832.4	5
298.15	830.6	5
303.15	829.2	5
308.15	828.3	5
313.15	827.2	5
318.15	825.7	5
