Measured thermophysical data. Vapour pressure and standard enthalpy of sublimation of alkali-metal fluoroborates
Source: Thermochim. Acta, 2007, 10.1016/j.tca.2006.10.008
Compound 1: sodium tetrafluoroborate, BF4Na, InChI=1S/BF4.Na/c2-1(3,4)5;/q-1;+1
Compound 2: rubidium tetrafluoroborate, BF4Rb, InChI=1S/BF4.Rb/c2-1(3,4)5;/q-1;+1, purity 99%
Compound 3: cesium tetrafluoroborate, BCsF4, InChI=1S/BF4.Cs/c2-1(3,4)5;/q-1;+1, purity 99%

System: sodium tetrafluoroborate; phases: Crystal 2, Crystal 1, Air at 1 atmosphere
Property: Triple point temperature, K (Crystal 2); method: DTA
Triple point temperature, K	uncertainty
519	1

System: sodium tetrafluoroborate; phases: Crystal 2, Gas
Property: Vapor or sublimation pressure, kPa (Crystal 2); method: Transpiration method
Temperature, K	Vapor or sublimation pressure, kPa	uncertainty
483	0.0002215	1.12e-05
493	0.0003008	1.51e-05
498	0.0003479	1.75e-05
503	0.0003963	1.99e-05
514	0.0006649	3.33e-05
519	0.0006401	3.21e-05

System: sodium tetrafluoroborate; phases: Crystal 1, Gas
Property: Vapor or sublimation pressure, kPa (Crystal 1); method: Transpiration method
Temperature, K	Vapor or sublimation pressure, kPa	uncertainty
519	0.0006401	3.21e-05
523	0.0008727	4.37e-05
533	0.0011843	5.93e-05
544	0.0016622	8.33e-05
545	0.0014752	7.4e-05
554	0.0019594	9.81e-05
554	0.0018033	9.03e-05
554	0.0018259	9.14e-05
554	0.0018477	9.25e-05
554	0.0018783	9.4e-05
566	0.0025613	0.0001282
575	0.0026384	0.0001322
576	0.0030272	0.0001515
580	0.0035129	0.0001758
586	0.0038382	0.000192
602	0.0035129	0.0001758
612	0.0058908	0.0002947
622	0.0087822	0.0004392
663	0.015817	0.000791

System: rubidium tetrafluoroborate; phases: Crystal 2, Crystal 1, Air at 1 atmosphere
Property: Triple point temperature, K (Crystal 2); method: DTA
Triple point temperature, K	uncertainty
527	1

System: rubidium tetrafluoroborate; phases: Crystal 1, Gas
Property: Vapor or sublimation pressure, kPa (Crystal 1); method: Transpiration method
Temperature, K	Vapor or sublimation pressure, kPa	uncertainty
550	3.93e-05	2.1e-06
555	5.32e-05	2.8e-06
566	6.47e-05	3.3e-06
576	9.73e-05	5e-06
581	9.94e-05	5.1e-06
592	0.0001394	7.1e-06
602	0.0001641	8.3e-06
613	0.0002173	1.1e-05
622	0.000287	1.45e-05
622	0.0002854	1.44e-05
622	0.0002867	1.44e-05
629	0.0003005	1.51e-05
641	0.0004209	2.11e-05
655	0.0005109	2.57e-05
676	0.0007892	3.96e-05
697	0.0010819	5.42e-05

System: cesium tetrafluoroborate; phases: Crystal 2, Crystal 1, Air at 1 atmosphere
Property: Triple point temperature, K (Crystal 2); method: DTA
Triple point temperature, K	uncertainty
442	1

System: cesium tetrafluoroborate; phases: Crystal 1, Gas
Property: Vapor or sublimation pressure, kPa (Crystal 1); method: Transpiration method
Temperature, K	Vapor or sublimation pressure, kPa	uncertainty
586	3.63e-05	1.9e-06
592	4.17e-05	2.2e-06
602	6.62e-05	3.4e-06
608	8.43e-05	4.3e-06
611	8.34e-05	4.3e-06
623	0.0001414	7.2e-06
627	0.0001197	6.1e-06
627	0.0001287	6.5e-06
627	0.000129	6.6e-06
627	0.0001275	6.5e-06
634	0.0001822	9.2e-06
648	0.0002611	1.32e-05
654	0.0003472	1.75e-05
666	0.0003572	1.8e-05
682	0.0005593	2.81e-05
692	0.0007727	3.87e-05
703	0.0008954	4.49e-05
705	0.000949	4.76e-05
