Measured thermophysical data. Thermodynamic characteristics of reactions with KH(PO3H)
Source: Thermochim. Acta, 2012, 10.1016/j.tca.2012.08.020
Compound 1: potassium hydroxide, HKO, InChI=1S/K.H2O/h;1H2/q+1;/p-1
Compound 2: phosphonic acid, H3O3P, InChI=1S/H3O3P/c1-4(2)3/h4H,(H2,1,2,3)
Compound 3: water, H2O, InChI=1S/H2O/h1H2
Compound 4: potassium dihydrogen phosphite, H2KO3P, InChI=1S/K.H2O3P/c;1-4(2)3/h;1-2H/q+1;-1

Reaction: -1 potassium hydroxide + -1 phosphonic acid + 1 potassium dihydrogen phosphite + 1 water
Property: Molar enthalpy of reaction, kJ/mol
-125.72
