Measured thermophysical data. Determination of sublimation enthalpies of substituted benzophenones, fluorenes and diphenyl ethers by solution calorimetry approach
Source: Thermochim. Acta, 2017, 10.1016/j.tca.2017.08.003
Compound 1: benzophenone, C13H10O, InChI=1S/C13H10O/c14-13(11-7-3-1-4-8-11)12-9-5-2-6-10-12/h1-10H, purity 98%
Compound 2: 4-methylbenzophenone, C14H12O, InChI=1S/C14H12O/c1-11-7-9-13(10-8-11)14(15)12-5-3-2-4-6-12/h2-10H,1H3, purity 99%
Compound 3: 4-nitrobenzophenone, C13H9NO3, InChI=1S/C13H9NO3/c15-13(10-4-2-1-3-5-10)11-6-8-12(9-7-11)14(16)17/h1-9H, purity 99%
Compound 4: 4-chlorobenzophenone, C13H9ClO, InChI=1S/C13H9ClO/c14-12-8-6-11(7-9-12)13(15)10-4-2-1-3-5-10/h1-9H, purity 99%
Compound 5: bis(4-chlorophenyl)methanone, C13H8Cl2O, InChI=1S/C13H8Cl2O/c14-11-5-1-9(2-6-11)13(16)10-3-7-12(15)8-4-10/h1-8H, purity 99%
Compound 6: fluorene, C13H10, InChI=1S/C13H10/c1-3-7-12-10(5-1)9-11-6-2-4-8-13(11)12/h1-8H,9H2, purity 98%
Compound 7: 2-nitro-9H-fluorene, C13H9NO2, InChI=1S/C13H9NO2/c15-14(16)11-5-6-13-10(8-11)7-9-3-1-2-4-12(9)13/h1-6,8H,7H2, purity 98%
Compound 8: 2-aminofluorene, C13H11N, InChI=1S/C13H11N/c14-11-5-6-13-10(8-11)7-9-3-1-2-4-12(9)13/h1-6,8H,7,14H2, purity 98%
Compound 9: 2-bromofluorene, C13H9Br, InChI=1S/C13H9Br/c14-11-5-6-13-10(8-11)7-9-3-1-2-4-12(9)13/h1-6,8H,7H2, purity 95%
Compound 10: 2,7-dibromofluorene, C13H8Br2, InChI=1S/C13H8Br2/c14-10-1-3-12-8(6-10)5-9-7-11(15)2-4-13(9)12/h1-4,6-7H,5H2, purity 97%
Compound 11: diphenyl ether, C12H10O, InChI=1S/C12H10O/c1-3-7-11(8-4-1)13-12-9-5-2-6-10-12/h1-10H, purity 99%
Compound 12: benzene, C6H6, InChI=1S/C6H6/c1-2-4-6-5-3-1/h1-6H, purity 99%

System: benzene + benzophenone; phases: Liquid
Property: Molar enthalpy of solution, kJ/mol (Liquid); method: Power-compensation calorimetry
Mole fraction of benzophenone	Pressure, kPa	Temperature, K	Molar enthalpy of solution, kJ/mol	uncertainty
0	100	298	18.19	0.14

System: benzene + 4-methylbenzophenone; phases: Liquid
Property: Molar enthalpy of solution, kJ/mol (Liquid); method: Power-compensation calorimetry
Mole fraction of 4-methylbenzophenone	Pressure, kPa	Temperature, K	Molar enthalpy of solution, kJ/mol	uncertainty
0	100	298	18.35	0.22

System: benzene + 4-nitrobenzophenone; phases: Liquid
Property: Molar enthalpy of solution, kJ/mol (Liquid); method: Power-compensation calorimetry
Mole fraction of 4-nitrobenzophenone	Pressure, kPa	Temperature, K	Molar enthalpy of solution, kJ/mol	uncertainty
0	100	298	25.95	0.34

System: benzene + 4-chlorobenzophenone; phases: Liquid
Property: Molar enthalpy of solution, kJ/mol (Liquid); method: Power-compensation calorimetry
Mole fraction of 4-chlorobenzophenone	Pressure, kPa	Temperature, K	Molar enthalpy of solution, kJ/mol	uncertainty
0	100	298	22.48	0.5

System: benzene + bis(4-chlorophenyl)methanone; phases: Liquid
Property: Molar enthalpy of solution, kJ/mol (Liquid); method: Power-compensation calorimetry
Mole fraction of bis(4-chlorophenyl)methanone	Pressure, kPa	Temperature, K	Molar enthalpy of solution, kJ/mol	uncertainty
0	100	298	24.05	0.42

System: benzene + fluorene; phases: Liquid
Property: Molar enthalpy of solution, kJ/mol (Liquid); method: Power-compensation calorimetry
Mole fraction of fluorene	Pressure, kPa	Temperature, K	Molar enthalpy of solution, kJ/mol	uncertainty
0	100	298	19.12	0.21

System: benzene + 2-aminofluorene; phases: Liquid
Property: Molar enthalpy of solution, kJ/mol (Liquid); method: Power-compensation calorimetry
Mole fraction of 2-aminofluorene	Pressure, kPa	Temperature, K	Molar enthalpy of solution, kJ/mol	uncertainty
0	100	298	23.41	0.18

System: benzene + 2-bromofluorene; phases: Liquid
Property: Molar enthalpy of solution, kJ/mol (Liquid); method: Power-compensation calorimetry
Mole fraction of 2-bromofluorene	Pressure, kPa	Temperature, K	Molar enthalpy of solution, kJ/mol	uncertainty
0	100	298	16.71	0.14

System: benzene + 2-nitro-9H-fluorene; phases: Liquid
Property: Molar enthalpy of solution, kJ/mol (Liquid); method: Power-compensation calorimetry
Mole fraction of 2-nitro-9H-fluorene	Pressure, kPa	Temperature, K	Molar enthalpy of solution, kJ/mol	uncertainty
0	100	298	26.34	0.26

System: benzene + 2,7-dibromofluorene; phases: Liquid
Property: Molar enthalpy of solution, kJ/mol (Liquid); method: Power-compensation calorimetry
Mole fraction of 2,7-dibromofluorene	Pressure, kPa	Temperature, K	Molar enthalpy of solution, kJ/mol	uncertainty
0	100	298	23.42	0.23

System: benzene + diphenyl ether; phases: Liquid
Property: Molar enthalpy of solution, kJ/mol (Liquid); method: Power-compensation calorimetry
Mole fraction of diphenyl ether	Pressure, kPa	Temperature, K	Molar enthalpy of solution, kJ/mol	uncertainty
0	100	301	0.08	0.1
