Measured thermophysical data. Ionic Liquids Analogues Based on Potassium Carbonate
Source: Thermochim. Acta, 2014, 10.1016/j.tca.2013.10.028
Compound 1: glycerol, C3H8O3, InChI=1S/C3H8O3/c4-1-3(6)2-5/h3-6H,1-2H2
Compound 2: potassium carbonate, CK2O3, InChI=1S/CH2O3.2K/c2-1(3)4;;/h(H2,2,3,4);;/q;2*+1/p-2
Compound 3: 1,2-ethanediol, C2H6O2, InChI=1S/C2H6O2/c3-1-2-4/h3-4H,1-2H2

System: glycerol + potassium carbonate; phases: Liquid
Fixed: Pressure, kPa = 101
Property: Mass density, kg/m3 (Liquid); method: Vibrating tube method
Amount ratio of solute to solvent of glycerol	Temperature, K	Mass density, kg/m3	uncertainty
4	293.15	1477.9	2
4	303.15	1472	2
4	313.15	1466.1	1.9
4	323.15	1460.2	1.9
4	333.15	1454.1	1.9
4	343.15	1448.1	1.9
4	353.15	1442.2	1.9
5	293.15	1447.2	1.9
5	303.15	1441.4	1.9
5	313.15	1435.5	1.9
5	323.15	1429.6	1.8
5	333.15	1423.4	1.8
5	343.15	1417.5	1.8
5	353.15	1411.4	1.8
6	293.15	1423.6	1.8
6	303.15	1417.8	1.8
6	313.15	1411.9	1.8
6	323.15	1405.9	1.8
6	333.15	1399.8	1.8
6	343.15	1393.8	1.8
6	353.15	1387.7	1.7

System: glycerol + potassium carbonate; phases: Liquid
Fixed: Pressure, kPa = 101
Property: Viscosity, Pa*s (Liquid); method: Capillary tube (Ostwald; Ubbelohde) method
Amount ratio of solute to solvent of glycerol	Temperature, K	Viscosity, Pa*s	uncertainty
4	293.15	28.104	3.946
4	303.15	10.1	1.3
4	313.15	3.33	0.41
4	323.15	1.4	0.16
4	333.15	0.663	0.072
4	343.15	0.323	0.034
4	353.15	0.2	0.02
5	293.15	18.018	2.442
5	303.15	8.899	1.15
5	313.15	3.44	0.42
5	323.15	1.418	0.163
5	333.15	0.646	0.071
5	343.15	0.323	0.034
5	353.15	0.178	0.019
6	293.15	5.5	0.69
6	303.15	3.5	0.42
6	313.15	1.71	0.2
6	323.15	0.767	0.085
6	333.15	0.378	0.04
6	343.15	0.203	0.021
6	353.15	0.115	0.012

System: glycerol + potassium carbonate; phases: Liquid
Fixed: Pressure, kPa = 101
Property: Electrical conductivity, S/m (Liquid); method: Alternating current cell with electrodes
Amount ratio of solute to solvent of glycerol	Temperature, K	Electrical conductivity, S/m	uncertainty
4	293.15	0.0008	0.0002
4	303.15	0.003	0.0006
4	313.15	0.0069	0.0014
4	323.15	0.0162	0.0032
4	333.15	0.0313	0.0063
4	343.15	0.0583	0.0117
4	353.15	0.204	0.041
5	293.15	0.0034	0.0007
5	303.15	0.0082	0.0016
5	313.15	0.0154	0.0031
5	323.15	0.0371	0.0074
5	333.15	0.076	0.015
5	343.15	0.1387	0.0277
5	353.15	0.313	0.063
6	293.15	0.0052	0.001
6	303.15	0.0112	0.0022
6	313.15	0.0247	0.0049
6	323.15	0.0393	0.0079
6	333.15	0.1213	0.0243
6	343.15	0.1629	0.0326
6	353.15	0.341	0.068

System: glycerol + potassium carbonate; phases: Liquid, Air at 1 atmosphere
Property: Surface tension liquid-gas, N/m (Liquid); method: Ring tensiometer
Amount ratio of solute to solvent of glycerol	Temperature, K	Surface tension liquid-gas, N/m	uncertainty
4	293.15	0.0506	0.00215
4	303.15	0.0461	0.00213
4	313.15	0.0452	0.00212
4	323.15	0.0444	0.00212
4	333.15	0.0434	0.00211
4	343.15	0.0426	0.00211
4	353.15	0.0416	0.00211
5	293.15	0.0644	0.00223
5	303.15	0.0591	0.0022
5	313.15	0.0567	0.00219
5	323.15	0.0553	0.00218
5	333.15	0.0547	0.00217
5	343.15	0.0537	0.00217
5	353.15	0.0513	0.00216
6	293.15	0.0695	0.00227
6	303.15	0.0668	0.00225
6	313.15	0.0656	0.00224
6	323.15	0.064	0.00223
6	333.15	0.063	0.00222
6	343.15	0.0622	0.00222
6	353.15	0.0615	0.00221

System: glycerol + potassium carbonate; phases: Liquid
Fixed: Pressure, kPa = 101
Property: Refractive index (Na D-line) (Liquid); method: Standard Abbe refractometry
Amount ratio of solute to solvent of glycerol	Temperature, K	Refractive index (Na D-line)	uncertainty
4	293.15	1.4922	0.0021
4	303.15	1.4906	0.0021
4	313.15	1.4888	0.0021
4	323.15	1.4862	0.0021
4	333.15	1.4857	0.0021
4	343.15	1.4846	0.0021
4	353.15	1.4839	0.0021
5	293.15	1.491	0.0021
5	303.15	1.4894	0.0021
5	313.15	1.488	0.0021
5	323.15	1.4853	0.0021
5	333.15	1.4839	0.0021
5	343.15	1.4818	0.0021
5	353.15	1.4783	0.0021
6	293.15	1.4897	0.0021
6	303.15	1.4882	0.0021
6	313.15	1.4866	0.0021
6	323.15	1.4845	0.0021
6	333.15	1.4827	0.0021
6	343.15	1.4808	0.0021
6	353.15	1.4789	0.0021

System: 1,2-ethanediol + potassium carbonate; phases: Liquid
Fixed: Pressure, kPa = 101
Property: Mass density, kg/m3 (Liquid); method: Vibrating tube method
Amount ratio of solute to solvent of 1,2-ethanediol	Temperature, K	Mass density, kg/m3	uncertainty
6	293.15	1338.8	1.6
6	303.15	1332.1	1.6
6	313.15	1325.3	1.6
6	323.15	1318.5	1.6
6	333.15	1311.7	1.5
6	343.15	1304.9	1.5
7	293.15	1314	1.5
7	303.15	1307.3	1.5
7	313.15	1300.6	1.5
7	323.15	1293.8	1.5
7	333.15	1287	1.5
7	343.15	1280.1	1.5
8	293.15	1295.5	1.5
8	303.15	1288.8	1.5
8	313.15	1282.1	1.5
8	323.15	1275.3	1.5
8	333.15	1268.5	1.4
8	343.15	1261.7	1.4

System: 1,2-ethanediol + potassium carbonate; phases: Liquid
Fixed: Pressure, kPa = 101
Property: Viscosity, Pa*s (Liquid); method: Capillary tube (Ostwald; Ubbelohde) method
Amount ratio of solute to solvent of 1,2-ethanediol	Temperature, K	Viscosity, Pa*s	uncertainty
6	293.15	0.227	0.024
6	303.15	0.12	0.012
6	313.15	0.069	0.007
6	323.15	0.042	0.004
6	333.15	0.028	0.003
6	343.15	0.02	0.002
7	293.15	0.149	0.015
7	303.15	0.081	0.008
7	313.15	0.049	0.005
7	323.15	0.031	0.003
7	333.15	0.021	0.002
7	343.15	0.015	0.002
8	293.15	0.117	0.012
8	303.15	0.066	0.007
8	313.15	0.04	0.004
8	323.15	0.026	0.003
8	333.15	0.018	0.002
8	343.15	0.013	0.001

System: 1,2-ethanediol + potassium carbonate; phases: Liquid
Fixed: Pressure, kPa = 101
Property: Electrical conductivity, S/m (Liquid); method: Alternating current cell with electrodes
Amount ratio of solute to solvent of 1,2-ethanediol	Temperature, K	Electrical conductivity, S/m	uncertainty
6	293.15	0.22	0.022
6	303.15	0.34	0.034
6	313.15	0.51	0.051
6	323.15	0.78	0.078
6	333.15	1.171	0.117
6	343.15	1.51	0.15
7	293.15	0.238	0.024
7	303.15	0.425	0.043
7	313.15	0.537	0.054
7	323.15	0.801	0.08
7	333.15	1.183	0.118
7	343.15	1.53	0.15
8	293.15	0.231	0.023
8	303.15	0.365	0.036
8	313.15	0.531	0.053
8	323.15	0.73	0.073
8	333.15	1.042	0.104
8	343.15	1.402	0.14

System: 1,2-ethanediol + potassium carbonate; phases: Liquid, Air at 1 atmosphere
Property: Surface tension liquid-gas, N/m (Liquid); method: Ring tensiometer
Amount ratio of solute to solvent of 1,2-ethanediol	Temperature, K	Surface tension liquid-gas, N/m	uncertainty
6	293.15	0.0284	0.0005
6	303.15	0.0278	0.00049
6	313.15	0.0273	0.00048
6	323.15	0.0268	0.00047
6	333.15	0.0261	0.00046
6	343.15	0.0255	0.00045
7	293.15	0.0283	0.0005
7	303.15	0.0277	0.00049
7	313.15	0.0272	0.00048
7	323.15	0.0267	0.00047
7	333.15	0.026	0.00046
7	343.15	0.0253	0.00045
8	293.15	0.0278	0.00049
8	303.15	0.0273	0.00048
8	313.15	0.0267	0.00047
8	323.15	0.0261	0.00046
8	333.15	0.0255	0.00045
8	343.15	0.0248	0.00044

System: 1,2-ethanediol + potassium carbonate; phases: Liquid
Fixed: Pressure, kPa = 101
Property: Refractive index (Na D-line) (Liquid); method: Standard Abbe refractometry
Amount ratio of solute to solvent of 1,2-ethanediol	Temperature, K	Refractive index (Na D-line)	uncertainty
6	293.15	1.4598	0.0021
6	303.15	1.4576	0.0021
6	313.15	1.455	0.0021
6	323.15	1.4533	0.0021
6	333.15	1.4519	0.0021
6	343.15	1.4485	0.0021
7	293.15	1.4565	0.0021
7	303.15	1.4548	0.0021
7	313.15	1.4525	0.0021
7	323.15	1.4507	0.0021
7	333.15	1.449	0.0021
7	343.15	1.4459	0.0021
8	293.15	1.457	0.0021
8	303.15	1.4556	0.0021
8	313.15	1.4536	0.0021
8	323.15	1.4513	0.0021
8	333.15	1.4496	0.0021
8	343.15	1.4469	0.0021
