Measured thermophysical data. Thermodynamic studies of mixtures for topical anesthesia: Lidocaine-salol binary phase diagram
Source: Thermochim. Acta, 2010, 10.1016/j.tca.2009.08.016
Compound 1: phenyl salicylate, C13H10O3, InChI=1S/C13H10O3/c14-12-9-5-4-8-11(12)13(15)16-10-6-2-1-3-7-10/h1-9,14H
Compound 2: 2-(diethylamino)-N-(2,6-dimethylphenyl)acetamide, C14H22N2O, InChI=1S/C14H22N2O/c1-5-16(6-2)10-13(17)15-14-11(3)8-7-9-12(14)4/h7-9H,5-6,10H2,1-4H3,(H,15,17)

System: phenyl salicylate; phases: Crystal, Liquid, Air at 1 atmosphere
Property: Molar enthalpy of transition or fusion, kJ/mol (Crystal); method: DSC
Molar enthalpy of transition or fusion, kJ/mol	uncertainty
19.2	1

System: phenyl salicylate; phases: Crystal, Liquid, Air at 1 atmosphere
Property: Normal melting temperature, K (Crystal); method: DTA
Normal melting temperature, K	uncertainty
315.08	1.06

System: 2-(diethylamino)-N-(2,6-dimethylphenyl)acetamide; phases: Crystal, Liquid, Air at 1 atmosphere
Property: Molar enthalpy of transition or fusion, kJ/mol (Crystal); method: DSC
Molar enthalpy of transition or fusion, kJ/mol	uncertainty
16.4	0.5

System: 2-(diethylamino)-N-(2,6-dimethylphenyl)acetamide; phases: Crystal, Liquid, Air at 1 atmosphere
Property: Normal melting temperature, K (Crystal); method: DTA
Normal melting temperature, K	uncertainty
340.69	1.06

System: phenyl salicylate + 2-(diethylamino)-N-(2,6-dimethylphenyl)acetamide; phases: Crystal, Crystal, Liquid, Air at 1 atmosphere
Property: Eutectic temperature, K (Crystal); method: DTA
Eutectic temperature, K	uncertainty
291.35	1

System: phenyl salicylate + 2-(diethylamino)-N-(2,6-dimethylphenyl)acetamide; phases: Crystal, Crystal, Liquid, Air at 1 atmosphere
Property: Eutectic composition: mole fraction of 2-(diethylamino)-N-(2,6-dimethylphenyl)acetamide (Crystal); method: Derived from phase diagram analysis
Eutectic composition: mole fraction of 2-(diethylamino)-N-(2,6-dimethylphenyl)acetamide	uncertainty
0.43	0.01

System: phenyl salicylate + 2-(diethylamino)-N-(2,6-dimethylphenyl)acetamide; phases: Liquid, Crystal
Fixed: Pressure, kPa = 101
Property: Solid-liquid equilibrium temperature, K (Liquid); method: DTA
Mole fraction of 2-(diethylamino)-N-(2,6-dimethylphenyl)acetamide	Solid-liquid equilibrium temperature, K	uncertainty
0	315.08	1.06
0.071	313.85	1.07
0.091	311.44	1.08
0.097	309.97	1.08
0.099	310.89	1.08
0.129	311.4	1.06
0.184	309.46	1.13
0.193	307.66	1.54
0.206	304.74	1.06
0.208	307.06	1.06
0.25	306.58	1.16
0.285	299.76	1.27
0.309	298.65	1.14
0.348	294.71	1.08
0.3495	298.49	1.07
0.379	296.35	1.08
0.414	296.08	1.06
0.43	296.35	1.06

System: phenyl salicylate + 2-(diethylamino)-N-(2,6-dimethylphenyl)acetamide; phases: Liquid, Crystal
Fixed: Pressure, kPa = 101
Property: Solid-liquid equilibrium temperature, K (Liquid); method: DTA
Mole fraction of 2-(diethylamino)-N-(2,6-dimethylphenyl)acetamide	Solid-liquid equilibrium temperature, K	uncertainty
0.43	296.35	1.08
0.47	294.71	1.08
0.52	299.37	1.13
0.616	306.08	1.15
0.695	314.7	1.23
0.723	319.61	1.22
0.726	321.61	1.23
0.75	321.37	1.1
0.8	325.36	1.14
0.809	327.19	1.14
0.851	329.61	1.12
0.899	333.41	1.16
0.949	338.78	1.12
1	340.69	1.06
