Measured thermophysical data. D2O-H2O solvent isotope effects on the enthalpy of 1,1,3,3-tetramethylurea hydration between 278.15 and 318.15 K
Source: Thermochim. Acta, 2010, 10.1016/j.tca.2009.10.018
Compound 1: tetramethylurea, C5H12N2O, InChI=1S/C5H12N2O/c1-6(2)5(8)7(3)4/h1-4H3
Compound 2: water, H2O, InChI=1S/H2O/h1H2
Compound 3: water-d2, D2O, InChI=1S/H2O/h1H2/i/hD2, purity 99.92%

System: tetramethylurea; phases: Liquid
Property: Refractive index (Na D-line) (Liquid); method: Standard Abbe refractometry
Temperature, K	Pressure, kPa	Refractive index (Na D-line)	uncertainty
298.15	101.325	1.44935	0.00072

System: tetramethylurea; phases: Liquid
Property: Mass density, kg/m3 (Liquid); method: Pycnometric method
Temperature, K	Pressure, kPa	Mass density, kg/m3	uncertainty
298.15	101.325	962.04	0.87

System: tetramethylurea + water; phases: Liquid
Fixed: Pressure, kPa = 101
Property: Molar enthalpy of solution, kJ/mol (Liquid); method: ISOPERIBOL
Temperature, K	Molality, mol/kg of tetramethylurea	Molar enthalpy of solution, kJ/mol	uncertainty
278.15	0.02665	-29.24	0.23
288.15	0.02075	-27.05	0.21
298.15	0.025	-24.86	0.2
308.15	0.02525	-22.66	0.18
318.15	0.02225	-20.47	0.19

System: tetramethylurea + water-d2; phases: Liquid
Fixed: Pressure, kPa = 101
Property: Molar enthalpy of solution, kJ/mol (Liquid); method: ISOPERIBOL
Temperature, K	Molality, mol/kg of tetramethylurea	Molar enthalpy of solution, kJ/mol	uncertainty
278.15	0.03315	-31.03	0.24
288.15	0.02095	-28.55	0.23
298.15	0.02255	-26.08	0.21
308.15	0.0203	-23.57	0.18
318.15	0.0245	-21.1	0.17
