Measured thermophysical data. Enthalpies of fusion, vaporisation and sublimation of crown ethers determined by thermogravimetry and differential scanning calorimetry
Source: Thermochim. Acta, 2017, 10.1016/j.tca.2016.03.013
Compound 1: 1,4,7,10,13,16-hexaoxacyclooctadecane, C12H24O6, InChI=1S/C12H24O6/c1-2-14-5-6-16-9-10-18-12-11-17-8-7-15-4-3-13-1/h1-12H2, purity 97%
Compound 2: dibenzo[b,k][1,4,7,10,13,16]hexaoxacyclooctadecane, C20H24O6, InChI=1S/C20H24O6/c1-2-6-18-17(5-1)23-13-9-21-11-15-25-19-7-3-4-8-20(19)26-16-12-22-10-14-24-18/h1-8H,9-16H2, purity 98%
Compound 3: dibenzo-24-crown-8, C24H32O8, InChI=1S/C24H32O8/c1-2-6-22-21(5-1)29-17-13-25-9-10-27-15-19-31-23-7-3-4-8-24(23)32-20-16-28-12-11-26-14-18-30-22/h1-8H,9-20H2, purity 98%
Compound 4: dibenzo-30-crown-10, C28H40O10, InChI=1S/C28H40O10/c1-2-6-26-25(5-1)35-21-17-31-13-9-29-11-15-33-19-23-37-27-7-3-4-8-28(27)38-24-20-34-16-12-30-10-14-32-18-22-36-26/h1-8H,9-24H2, purity 98%
Compound 5: anthracene, C14H10, InChI=1S/C14H10/c1-2-6-12-10-14-8-4-3-7-13(14)9-11(12)5-1/h1-10H, purity 99%
Compound 6: phenanthrene, C14H10, InChI=1S/C14H10/c1-3-7-13-11(5-1)9-10-12-6-2-4-8-14(12)13/h1-10H, purity 99%
Compound 7: aluminum oxide (Al2O3), Al2O3, InChI=1S/2Al.3O/q2*+3;3*-2, purity 99.95%

System: 1,4,7,10,13,16-hexaoxacyclooctadecane; phases: Crystal, Liquid, Air at 1 atmosphere
Property: Normal melting temperature, K (Crystal); method: DTA
Normal melting temperature, K	uncertainty
312.32	0.39

System: 1,4,7,10,13,16-hexaoxacyclooctadecane; phases: Crystal, Liquid, Air at 1 atmosphere
Property: Molar enthalpy of transition or fusion, kJ/mol (Crystal); method: DSC
Molar enthalpy of transition or fusion, kJ/mol	uncertainty
40	0.85

System: 1,4,7,10,13,16-hexaoxacyclooctadecane; phases: Crystal
Fixed: Pressure, kPa = 101.325
Property: Molar heat capacity at constant pressure, J/K/mol (Crystal); method: Small sample (50 mg) DSC
Temperature, K	Molar heat capacity at constant pressure, J/K/mol	uncertainty
290	380.3	24.2
291	388.3	24.7
292	394.8	25.1
293	401.7	25.6
294	409.8	26.1
295	418.9	26.7
296	428.4	27.3
297	440.7	28.2
298	457	29.3
298.15	460	29.5
299	479.4	30.8

System: 1,4,7,10,13,16-hexaoxacyclooctadecane; phases: Liquid
Fixed: Pressure, kPa = 101.325
Property: Molar heat capacity at constant pressure, J/K/mol (Liquid); method: Small sample (50 mg) DSC
Temperature, K	Molar heat capacity at constant pressure, J/K/mol	uncertainty
315	515	13.5
320	516.5	13.5
325	518.7	13.6
330	521.5	13.6
335	522.8	13.7
340	524.9	13.7
345	526.3	13.8
350	527.8	13.8
355	528.8	13.8
410	562.4	14.7
415	567.4	14.8
420	573.6	15
425	578.6	15.1
430	582.6	15.2
435	587.1	15.4
440	590.4	15.4
445	595.2	15.6
450	599.4	15.7
455	603	15.8
460	607.7	15.9
465	612.5	16
470	617.4	16.1
475	621.3	16.3
480	626.4	16.4
485	630.9	16.5
490	635.9	16.6

System: 1,4,7,10,13,16-hexaoxacyclooctadecane; phases: Liquid, Gas
Property: Vapor or sublimation pressure, kPa (Liquid); method: Rate of evaporation
Temperature, K	Vapor or sublimation pressure, kPa	uncertainty
430	0.3102	0.1055
435	0.4219	0.1385
440	0.5487	0.1771
445	0.6846	0.2191
450	0.8441	0.2703
455	1.052	0.3377
460	1.3165	0.4204
465	1.6018	0.5106
470	1.9672	0.627
475	2.3993	0.7617
480	2.879	0.9079
430	0.3376	0.1094
435	0.4315	0.1413
440	0.5414	0.1749
445	0.6904	0.2208
450	0.858	0.2745
455	1.0631	0.341
460	1.3153	0.4201
465	1.6158	0.5147
470	1.9724	0.6285
475	2.3945	0.7602
480	2.8534	0.898
430	0.3358	0.1091
435	0.4305	0.141
440	0.5488	0.1771
445	0.6934	0.2217
450	0.8682	0.2775
455	1.052	0.3377
460	1.3103	0.4186
465	1.6189	0.5157
470	1.9586	0.6244
475	2.3867	0.7579
480	2.8577	0.8997

System: dibenzo[b,k][1,4,7,10,13,16]hexaoxacyclooctadecane; phases: Crystal, Liquid, Air at 1 atmosphere
Property: Molar enthalpy of transition or fusion, kJ/mol (Crystal); method: DSC
Molar enthalpy of transition or fusion, kJ/mol	uncertainty
55.95	1.16

System: dibenzo[b,k][1,4,7,10,13,16]hexaoxacyclooctadecane; phases: Crystal, Liquid, Air at 1 atmosphere
Property: Normal melting temperature, K (Crystal); method: DTA
Normal melting temperature, K	uncertainty
435.65	0.39

System: dibenzo[b,k][1,4,7,10,13,16]hexaoxacyclooctadecane; phases: Crystal
Fixed: Pressure, kPa = 101.325
Property: Molar heat capacity at constant pressure, J/K/mol (Crystal); method: Small sample (50 mg) DSC
Temperature, K	Molar heat capacity at constant pressure, J/K/mol	uncertainty
295	434.6	43.9
298.15	439.7	44.4
300	443.6	44.8
305	449	45.3
310	457.8	46.2
315	462.9	46.8
320	468.4	47.3
325	474.6	47.9
330	481.5	48.6
335	487.5	49.2
340	494.7	50
345	500.5	50.5
350	506.2	51.1
355	513.3	51.8
360	520.1	52.5
365	527	53.2
370	533.2	53.9
375	540.2	54.6
380	547.6	55.3
385	555.2	56.1
390	563.2	56.9
395	571.3	57.7
400	580.1	58.6
405	588.7	59.5
410	596.8	60.3
415	604.8	61.1

System: dibenzo[b,k][1,4,7,10,13,16]hexaoxacyclooctadecane; phases: Liquid
Fixed: Pressure, kPa = 101.325
Property: Molar heat capacity at constant pressure, J/K/mol (Liquid); method: Small sample (50 mg) DSC
Temperature, K	Molar heat capacity at constant pressure, J/K/mol	uncertainty
445	755.4	59.9
450	761	60.3
455	768.7	60.9
460	772.5	61.2
465	780.2	61.8
470	787	62.4
475	792	62.8
480	799.7	63.4
485	806	63.9
490	812.6	64.4

System: dibenzo[b,k][1,4,7,10,13,16]hexaoxacyclooctadecane; phases: Liquid, Gas
Property: Vapor or sublimation pressure, kPa (Liquid); method: Rate of evaporation
Temperature, K	Vapor or sublimation pressure, kPa	uncertainty
545	0.5186	0.1666
550	0.6363	0.2027
555	0.7755	0.2467
560	0.9424	0.2993
565	1.1372	0.3608
570	1.3694	0.4338
575	1.6384	0.5181
580	1.9482	0.6156
585	2.3159	0.7302
590	2.7175	0.8546
595	3.164	0.9914
545	0.4924	0.1623
550	0.6057	0.1936
555	0.7424	0.2369
560	0.9045	0.288
565	1.0946	0.348
570	1.3225	0.4198
575	1.5891	0.5033
580	1.9025	0.6018
585	2.2578	0.7127
590	2.6729	0.8411
595	3.142	0.9832
545	0.5452	0.1719
550	0.6637	0.2109
555	0.8052	0.2556
560	0.9751	0.3091
565	1.1689	0.3703
570	1.3976	0.4423
575	1.6632	0.5255
580	1.9686	0.6217
585	2.3209	0.7317
590	2.7198	0.8553
595	3.1604	0.9901

System: dibenzo-24-crown-8; phases: Crystal 1, Liquid, Air at 1 atmosphere
Property: Normal melting temperature, K (Crystal 1); method: DTA
Normal melting temperature, K	uncertainty
373.87	0.39

System: dibenzo-24-crown-8; phases: Crystal 1, Liquid, Air at 1 atmosphere
Property: Molar enthalpy of transition or fusion, kJ/mol (Crystal 1); method: DSC
Molar enthalpy of transition or fusion, kJ/mol	uncertainty
53.69	1.12

System: dibenzo-24-crown-8; phases: Crystal 2, Crystal 1, Air at 1 atmosphere
Property: Triple point temperature, K (Crystal 2); method: DSC
Triple point temperature, K	uncertainty
346.32	0.77

System: dibenzo-24-crown-8; phases: Crystal 2, Crystal 1, Air at 1 atmosphere
Property: Molar enthalpy of transition or fusion, kJ/mol (Crystal 2); method: DSC
Molar enthalpy of transition or fusion, kJ/mol	uncertainty
0.98	0.19

System: dibenzo-24-crown-8; phases: Crystal 1
Fixed: Pressure, kPa = 101.325
Property: Molar heat capacity at constant pressure, J/K/mol (Crystal 1); method: Small sample (50 mg) DSC
Temperature, K	Molar heat capacity at constant pressure, J/K/mol	uncertainty
355	755.6	74.8
360	771.8	76.4
365	802	79.4

System: dibenzo-24-crown-8; phases: Liquid
Fixed: Pressure, kPa = 101.325
Property: Molar heat capacity at constant pressure, J/K/mol (Liquid); method: Small sample (50 mg) DSC
Temperature, K	Molar heat capacity at constant pressure, J/K/mol	uncertainty
380	921.2	83.9
385	922.5	84
390	927.3	84.5
395	930.4	84.8
400	934.6	85.1
405	938.7	85.5
410	943.5	86
415	947.5	86.3
420	956.1	87.1
425	962.6	87.7
430	968.4	88.2
435	974.4	88.8
440	979	89.2
445	985.6	89.8
450	990.7	90.3
455	996.8	90.8
460	1003.2	91.4
465	1009.9	92
470	1016.5	92.6
475	1020.4	93
480	1025.3	93.4
485	1030.6	93.9
490	1036.3	94.4

System: dibenzo-24-crown-8; phases: Liquid, Gas
Property: Vapor or sublimation pressure, kPa (Liquid); method: Rate of evaporation
Temperature, K	Vapor or sublimation pressure, kPa	uncertainty
545	0.114	0.0368
550	0.1414	0.0455
555	0.1786	0.0572
560	0.2198	0.0703
565	0.2733	0.0874
570	0.3358	0.1071
575	0.4103	0.1308
580	0.5036	0.1605
585	0.6145	0.1955
590	0.7461	0.2371
595	0.9028	0.2852
545	0.1131	0.0367
550	0.1434	0.046
555	0.1736	0.0558
560	0.2155	0.0691
565	0.2674	0.0856
570	0.3406	0.1085
575	0.4082	0.1302
580	0.4998	0.1594
585	0.607	0.1933
590	0.7381	0.2347
595	0.897	0.283
545	0.1132	0.0367
550	0.1402	0.0451
555	0.1757	0.0564
560	0.2204	0.0705
565	0.2714	0.0868
570	0.3372	0.1075
575	0.4133	0.1317
580	0.5082	0.1619
585	0.6171	0.1963
590	0.7487	0.2379
595	0.9062	0.2866

System: dibenzo-24-crown-8; phases: Crystal 2
Fixed: Pressure, kPa = 101.325
Property: Molar heat capacity at constant pressure, J/K/mol (Crystal 2); method: Small sample (50 mg) DSC
Temperature, K	Molar heat capacity at constant pressure, J/K/mol	uncertainty
295	602	59.6
298.15	611.3	60.5
300	615.7	61
305	627.3	62.1
310	638.8	63.3
315	648	64.2
320	658.1	65.2
325	668.9	66.2
330	681.3	67.5
335	692.8	68.6
340	706.2	69.9

System: dibenzo-30-crown-10; phases: Crystal, Liquid, Air at 1 atmosphere
Property: Normal melting temperature, K (Crystal); method: DTA
Normal melting temperature, K	uncertainty
377.6	0.39

System: dibenzo-30-crown-10; phases: Crystal, Liquid, Air at 1 atmosphere
Property: Molar enthalpy of transition or fusion, kJ/mol (Crystal); method: DSC
Molar enthalpy of transition or fusion, kJ/mol	uncertainty
86.53	1.75

System: dibenzo-30-crown-10; phases: Crystal
Fixed: Pressure, kPa = 101.325
Property: Molar heat capacity at constant pressure, J/K/mol (Crystal); method: Small sample (50 mg) DSC
Temperature, K	Molar heat capacity at constant pressure, J/K/mol	uncertainty
295	668.8	41.2
298.15	680.4	41.9
300	686.9	42.3
305	700.3	43.2
310	715.3	44.1
315	728.4	44.9
320	741.6	45.7
325	755.5	46.6
330	769.9	47.5
335	783.3	48.3
340	797	49.1
345	811.5	50
350	826.4	50.9
355	844.9	52.1
360	868.2	53.5

System: dibenzo-30-crown-10; phases: Liquid
Fixed: Pressure, kPa = 101.325
Property: Molar heat capacity at constant pressure, J/K/mol (Liquid); method: Small sample (50 mg) DSC
Temperature, K	Molar heat capacity at constant pressure, J/K/mol	uncertainty
390	1144.6	68.3
395	1148.9	68.6
400	1153	68.8
405	1159.5	69.2
410	1164.6	69.5
415	1169.3	69.8
420	1179.2	70.4
425	1186.2	70.8
430	1187.9	70.9
435	1195	71.3
440	1196.6	71.4
445	1199.2	71.6
450	1201.2	71.7
455	1200.9	71.7
460	1201.6	71.7
465	1202	71.8
470	1201.9	71.8

System: dibenzo-30-crown-10; phases: Liquid, Gas
Property: Vapor or sublimation pressure, kPa (Liquid); method: Rate of evaporation
Temperature, K	Vapor or sublimation pressure, kPa	uncertainty
545	0.0347	0.0111
550	0.0424	0.0136
555	0.0536	0.0171
560	0.0649	0.0205
565	0.0764	0.0243
570	0.0946	0.0303
575	0.1176	0.0376
580	0.1444	0.0467
585	0.188	0.0598
590	0.2192	0.0694
595	0.2675	0.0847
545	0.0347	0.0111
550	0.0405	0.013
555	0.0515	0.0165
560	0.0655	0.0207
565	0.0772	0.0245
570	0.0969	0.031
575	0.116	0.0371
580	0.1429	0.0462
585	0.1768	0.0565
590	0.2184	0.0692
595	0.2625	0.0827
545	0.0354	0.0113
550	0.0433	0.0139
555	0.0526	0.0168
560	0.0614	0.0195
565	0.0781	0.0248
570	0.0924	0.0296
575	0.118	0.0377
580	0.1455	0.047
585	0.1779	0.0568
590	0.2143	0.0679
595	0.2682	0.085

System: anthracene; phases: Liquid, Gas
Property: Vapor or sublimation pressure, kPa (Liquid); method: Rate of evaporation
Temperature, K	Vapor or sublimation pressure, kPa	uncertainty
494	5.7942	1.844
496	6.2419	1.9795
498	6.7125	2.121
500	7.1741	2.2633
502	7.6619	2.4129
504	8.173	2.5708
506	8.6936	2.7311
508	9.2272	2.8937
510	9.7746	3.0608
512	10.3093	3.2233

System: phenanthrene; phases: Liquid, Gas
Property: Vapor or sublimation pressure, kPa (Liquid); method: Rate of evaporation
Temperature, K	Vapor or sublimation pressure, kPa	uncertainty
384	0.0567	0.0209
388	0.0795	0.0265
392	0.097	0.0311
396	0.1144	0.0373
400	0.146	0.0478
404	0.1785	0.0571
408	0.2069	0.0658
412	0.2439	0.0782
416	0.2926	0.0938
420	0.3468	0.1103

System: aluminum oxide (Al2O3); phases: Crystal
Fixed: Pressure, kPa = 101.325
Property: Molar heat capacity at constant pressure, J/K/mol (Crystal); method: Small sample (50 mg) DSC
Temperature, K	Molar heat capacity at constant pressure, J/K/mol	uncertainty
298.15	78.8	1.79
350	88.2	2.46
450	101.33	2.61
