Measured thermophysical data. Thermodynamic properties of pyruvic acid and its methyl ester
Source: Thermochim. Acta, 2018, 10.1016/j.tca.2018.05.009
Compound 1: carbon dioxide, CO2, InChI=1S/CO2/c2-1-3
Compound 2: water, H2O, InChI=1S/H2O/h1H2
Compound 3: oxygen, O2, InChI=1S/O2/c1-2
Compound 4: 2-oxopropanoic acid, C3H4O3, InChI=1S/C3H4O3/c1-2(4)3(5)6/h1H3,(H,5,6), purity 98%
Compound 5: methyl 2-oxopropanoate, C4H6O3, InChI=1S/C4H6O3/c1-3(5)4(6)7-2/h1-2H3, purity 98%

System: 2-oxopropanoic acid; phases: Liquid, Gas
Property: Vapor or sublimation pressure, kPa (Liquid); method: Transpiration method
Temperature, K	Vapor or sublimation pressure, kPa	uncertainty
308.2	0.2899	0.0182
313.3	0.3753	0.0233
313.3	0.3771	0.0233
315.9	0.434	0.027
316.8	0.45	0.028
318.3	0.509	0.032
320.9	0.599	0.038
320.9	0.597	0.037
325.8	0.798	0.05
330.8	1.092	0.068
333.2	1.274	0.08
336.4	1.519	0.094

System: methyl 2-oxopropanoate; phases: Liquid, Gas
Property: Vapor or sublimation pressure, kPa (Liquid); method: Transpiration method
Temperature, K	Vapor or sublimation pressure, kPa	uncertainty
279.4	0.177	0.0112
279.4	0.1749	0.0111
280.9	0.1942	0.0124
282.4	0.2279	0.0146
283.8	0.2536	0.0161
286.2	0.2982	0.0186
286.2	0.293	0.0183
287	0.3042	0.0191
289.2	0.3569	0.0228
291	0.426	0.027
294.9	0.527	0.033
298.9	0.706	0.045
302.9	0.919	0.058
307.8	1.227	0.077

Reaction: -1 2-oxopropanoic acid + 3 carbon dioxide + 2 water + -2.5 oxygen
Property: Specific internal energy of reaction at constant volume, J/g
-13225

Reaction: -1 methyl 2-oxopropanoate + 4 carbon dioxide + 3 water + -4 oxygen
Property: Specific internal energy of reaction at constant volume, J/g
-18381.8
