Measured thermophysical data. Thermochemical study on the Schiff base[H2salen = N,N -bis(salicylidene) ethylendiamine] and its binuclearcopper (II) complex
Source: Thermochim. Acta, 2013, 10.1016/j.tca.2013.07.004
Compound 1: 2-hydroxybenzaldehyde, C7H6O2, InChI=1S/C7H6O2/c8-5-6-3-1-2-4-7(6)9/h1-5,9H
Compound 2: ethane-1,2-diamine, C2H8N2, InChI=1S/C2H8N2/c3-1-2-4/h1-4H2
Compound 3: water, H2O, InChI=1S/H2O/h1H2
Compound 4: 2,2'-[ethylenebis(nitrilomethylidyne)]diphenol, C16H16N2O2, InChI=1S/C16H16N2O2/c19-15-7-3-1-5-13(15)11-17-9-10-18-12-14-6-2-4-8-16(14)20/h1-8,11-12,19-20H,9-10H2, purity 99%

Reaction: -2 2-hydroxybenzaldehyde + 1 2,2'-[ethylenebis(nitrilomethylidyne)]diphenol + -1 ethane-1,2-diamine + 2 water
Property: Molar enthalpy of reaction, kJ/mol
-92.884
