Measured thermophysical data. D2O-H2O solvent isotope effects on the enthalpy of 1,1,3,3-tetramethyl-2-thiourea hydration at temperatures from (278.15 to 313.15) K and ambient pressure
Source: Thermochim. Acta, 2014, 10.1016/j.tca.2014.06.025
Compound 1: 1,1,3,3-tetramethyl-2-thiourea, C5H12N2S, InChI=1S/C5H12N2S/c1-6(2)5(8)7(3)4/h1-4H3, purity 98%
Compound 2: water, H2O, InChI=1S/H2O/h1H2
Compound 3: water-d2, D2O, InChI=1S/H2O/h1H2/i/hD2, purity 99.9%

System: 1,1,3,3-tetramethyl-2-thiourea + water; phases: Liquid
Fixed: Pressure, kPa = 101
Property: Molar enthalpy of solution, kJ/mol (Liquid); method: ISOPERIBOL
Temperature, K	Molality, mol/kg of 1,1,3,3-tetramethyl-2-thiourea	Molar enthalpy of solution, kJ/mol	uncertainty
278.15	0.01115	10.96	0.12
288.15	0.0124	13.56	0.12
298.15	0.01475	16.17	0.14
308.15	0.01605	18.7	0.18
313.15	0.01485	20.03	0.18

System: 1,1,3,3-tetramethyl-2-thiourea + water-d2; phases: Liquid
Fixed: Pressure, kPa = 101
Property: Molar enthalpy of solution, kJ/mol (Liquid); method: ISOPERIBOL
Temperature, K	Molality, mol/kg of 1,1,3,3-tetramethyl-2-thiourea	Molar enthalpy of solution, kJ/mol	uncertainty
278.15	0.0165	9.32	0.15
288.15	0.0145	12.47	0.17
298.15	0.017	15.8	0.16
308.15	0.0136	18.95	0.16
313.15	0.01535	20.61	0.17
