Measured thermophysical data. Thermochemistry of two lead borates, Pb(BO2)2*H2O and PbB4O7*4H2O
Source: Thermochim. Acta, 2011, 10.1016/j.tca.2010.09.012
Compound 1: lead(2+) oxide, OPb, InChI=1S/O.Pb/q-2;+2
Compound 2: boric acid, BH3O3, InChI=1S/BH3O3/c2-1(3)4/h2-4H
Compound 3: water, H2O, InChI=1S/H2O/h1H2
Compound 4: lead diborate monohydrate, B2H2O5Pb, InChI=1S/2BO2.H2O.Pb/c2*2-1-3;;/h;;1H2;/q2*-1;;+2, purity 98%
Compound 5: lead tetraborate tetrahydrate, B4H8O11Pb, InChI=1S/B4O7.4H2O.Pb/c5-1-7-3-9-2(6)10-4(8-1)11-3;;;;;/h;4*1H2;/q-2;;;;;+2, purity 98%

Reaction: -1 lead(2+) oxide + -2 boric acid + 1 lead diborate monohydrate + 2 water
Property: Molar enthalpy of reaction, kJ/mol
15.54

Reaction: -1 lead(2+) oxide + -4 boric acid + 1 lead tetraborate tetrahydrate + 2 water
Property: Molar enthalpy of reaction, kJ/mol
-12.45
