Measured thermophysical data. Heat capacity and thermal expansion coefficient of SrCeO3(s) and Sr2CeO4(s)
Source: Thermochim. Acta, 2011, 10.1016/j.tca.2011.08.007
Compound 1: strontium cerate (IV), CeO3Sr, InChI=1S/Ce.3O.Sr/q+4;3*-2;+2, purity 98.56%
Compound 2: cerium strontium oxide CeSr2O4, CeO4Sr2, InChI=1S/Ce.4O.2Sr/q+4;4*-2;2*+2, purity 99.37%

System: strontium cerate (IV); phases: Crystal
Fixed: Pressure, kPa = 101.325
Property: Molar heat capacity at constant pressure, J/K/mol (Crystal); method: Small sample (50 mg) DSC
Temperature, K	Molar heat capacity at constant pressure, J/K/mol	uncertainty
300	109.25	2.19
350	114.44	2.29
400	118.48	2.37
450	121.85	2.44
500	124.32	2.49
550	126.23	2.52
600	127.8	2.56
650	129.38	2.59
700	130.5	2.61
750	131.51	2.63
800	132.41	2.65
850	133.19	2.66
870	133.3	2.67

System: strontium cerate (IV); phases: Crystal
Fixed: Pressure, kPa = 101.325
Property: Mass density, kg/m3 (Crystal); method: X-ray diffraction
Temperature, K	Mass density, kg/m3	uncertainty
298.15	5764	19
373	5764	19
473	5763	19
573	5760	19
673	5755	19
773	5750	19
873	5744	19
973	5735	19
1073	5726	19
1173	5716	19
1273	5703	19

System: cerium strontium oxide CeSr2O4; phases: Crystal
Fixed: Pressure, kPa = 101.325
Property: Molar heat capacity at constant pressure, J/K/mol (Crystal); method: Small sample (50 mg) DSC
Temperature, K	Molar heat capacity at constant pressure, J/K/mol	uncertainty
300	169.29	3.39
350	178.52	3.57
400	185.57	3.71
450	191.73	3.83
500	196.88	3.94
550	200.99	4.02
600	205.98	4.12

System: cerium strontium oxide CeSr2O4; phases: Crystal
Fixed: Pressure, kPa = 101.325
Property: Mass density, kg/m3 (Crystal); method: X-ray diffraction
Temperature, K	Mass density, kg/m3	uncertainty
298.15	5523	5
373	5523	5
473	5517	5
573	5511	5
673	5500	5
773	5492	5
873	5483	5
973	5468	5
1073	5449	5
1173	5429	4
1273	5399	4
