Measured thermophysical data. Isobaric molar heat capacities of binary mixtures containing methyl caprate and methyl laurate at pressures up to 16.2 MPa
Source: Thermochim. Acta, 2017, 10.1016/j.tca.2017.02.015
Compound 1: methyl decanoate, C11H22O2, InChI=1S/C11H22O2/c1-3-4-5-6-7-8-9-10-11(12)13-2/h3-10H2,1-2H3, purity 98%
Compound 2: methyl dodecanoate, C13H26O2, InChI=1S/C13H26O2/c1-3-4-5-6-7-8-9-10-11-12-13(14)15-2/h3-12H2,1-2H3, purity 99%

System: methyl decanoate; phases: Liquid
Property: Molar heat capacity at constant pressure, J/K/mol (Liquid); method: Flow calorimetry
Pressure, kPa	Temperature, K	Molar heat capacity at constant pressure, J/K/mol	uncertainty
100	313.71	383.9	3.9
4070	313.82	382.1	3.9
8030	313.83	380.5	3.8
12010	313.99	378.5	3.8
16140	314.01	376.6	3.8
100	324.79	387.6	3.9
4070	324.79	386	3.9
8030	325.01	384.4	3.9
12010	325.06	382.5	3.9
16140	325.2	379.3	3.8
100	334.12	393.2	4
4070	334.53	390.3	3.9
8030	334.33	388.3	3.9
12010	334.6	386.2	3.9
16140	334.84	384.2	3.9

System: methyl dodecanoate; phases: Liquid
Property: Molar heat capacity at constant pressure, J/K/mol (Liquid); method: Flow calorimetry
Pressure, kPa	Temperature, K	Molar heat capacity at constant pressure, J/K/mol	uncertainty
100	313.97	442.6	4.5
4040	313.99	441.6	4.5
8070	314.06	439.5	4.4
12160	314.09	438.3	4.4
16180	314.14	436.9	4.4
100	323.88	449.5	4.5
4070	323.93	447.2	4.5
8060	324.01	445.8	4.5
12090	323.84	444.8	4.5
16080	323.94	443.3	4.5
100	333.88	456.4	4.6
4050	333.96	453.6	4.6
8050	334	452.1	4.6
12060	334.05	450.5	4.6
16170	334.11	448	4.5

System: methyl decanoate + methyl dodecanoate; phases: Liquid
Property: Molar heat capacity at constant pressure, J/K/mol (Liquid); method: Flow calorimetry
Pressure, kPa	Temperature, K	Mole fraction of methyl dodecanoate	Molar heat capacity at constant pressure, J/K/mol	uncertainty
100	313.97	1	442.6	4.5
4040	313.99	1	441.6	4.5
8070	314.06	1	439.5	4.4
12160	314.09	1	438.3	4.4
16180	314.14	1	436.9	4.4
100	323.88	1	449.5	4.5
4070	323.93	1	447.2	4.5
8060	324.01	1	445.8	4.5
12090	323.84	1	444.8	4.5
16080	323.94	1	443.3	4.5
100	333.88	1	456.4	4.6
4050	333.96	1	453.6	4.6
8050	334	1	452.1	4.6
12060	334.05	1	450.5	4.6
16170	334.11	1	448	4.5
100	313.71	0	383.9	3.9
4070	313.82	0	382.1	3.9
8030	313.83	0	380.5	3.8
12010	313.99	0	378.5	3.8
16140	314.01	0	376.6	3.8
100	324.79	0	387.6	3.9
4070	324.79	0	386	3.9
8030	325.01	0	384.4	3.9
12010	325.06	0	382.5	3.9
16140	325.2	0	379.3	3.8
100	334.12	0	393.2	4
4070	334.53	0	390.3	3.9
8030	334.33	0	388.3	3.9
12010	334.6	0	386.2	3.9
16140	334.84	0	384.2	3.9
100	314.37	0.3001	403.7	4.1
4090	314.53	0.3001	402.2	4.1
8010	314.71	0.3001	400.6	4
12020	314.95	0.3001	397.7	4
16080	315.06	0.3001	395.6	4
100	323.53	0.3001	412	4.2
4100	323.58	0.3001	409.5	4.1
8070	323.69	0.3001	406.9	4.1
12080	323.84	0.3001	403.9	4.1
16190	324.39	0.3001	400.5	4
100	333.55	0.3001	418.3	4.2
4130	333.76	0.3001	415.8	4.2
8110	333.79	0.3001	413.5	4.2
12080	334.03	0.3001	411.7	4.2
16110	334.21	0.3001	408.4	4.1
100	313.71	0.5001	414.9	4.2
4060	313.82	0.5001	413.3	4.2
8100	313.83	0.5001	412.3	4.2
12140	313.99	0.5001	410.1	4.1
16150	314.01	0.5001	408.9	4.1
100	324.79	0.5001	424.4	4.3
4150	324.79	0.5001	421.6	4.3
8140	325.01	0.5001	418.7	4.2
12110	325.06	0.5001	416.1	4.2
16230	325.2	0.5001	413.7	4.2
100	334.12	0.5001	431.7	4.4
4120	334.53	0.5001	428.8	4.3
8140	334.33	0.5001	425.5	4.3
12200	334.6	0.5001	423.1	4.3
16030	334.84	0.5001	420.7	4.3
100	314.01	0.6999	426.4	4.3
4080	314.08	0.6999	425.1	4.3
8140	314.18	0.6999	422.7	4.3
12080	314.17	0.6999	421.2	4.3
16150	314.21	0.6999	419.4	4.2
100	324.05	0.6999	435.5	4.4
4120	324.08	0.6999	433.4	4.4
8050	324.13	0.6999	431.3	4.4
12080	324.19	0.6999	428.2	4.3
16120	324.24	0.6999	426.4	4.3
100	333.71	0.6999	442.8	4.5
4150	333.98	0.6999	440.9	4.5
8040	334.04	0.6999	439	4.4
12160	333.97	0.6999	434.7	4.4
16170	334.04	0.6999	431.9	4.4
