Measured thermophysical data. An experimental investigation and modelling of the thermal and caloric properties of nanofluids isopropyl alcohol - Al2O3 nanoparticles
Source: Thermochim. Acta, 2019, 10.1016/j.tca.2019.05.011
Compound 1: propan-2-ol, C3H8O, InChI=1S/C3H8O/c1-3(2)4/h3-4H,1-2H3, purity 99%

System: propan-2-ol; phases: Liquid, Gas
Property: Vapor or sublimation pressure, kPa (Liquid); method: Closed cell (Static) method
Temperature, K	Vapor or sublimation pressure, kPa	uncertainty
297.8	5.781	0.124
303.1	7.995	0.172
315.8	16.22	0.34
332.1	36.06	0.74
344.7	63.92	1.3

System: propan-2-ol; phases: Liquid
Fixed: Pressure, kPa = 101.325
Property: Molar heat capacity at constant pressure, J/K/mol (Liquid); method: Vacuum adiabatic calorimetry
Temperature, K	Molar heat capacity at constant pressure, J/K/mol	uncertainty
190	111.11569198	1.814869604
200	112.88849507	1.814869604
210	115.009849276	1.814869604
220	117.521821112	1.814869604
230	120.46046759	1.814869604
240	123.873864726	1.814869604
250	127.810088536	1.814869604
260	132.305196032	1.820879106
270	137.413272732	1.820879106
280	143.188404154	1.820879106
290	149.678666314	1.820879106
300	156.93814473	1.820879106
310	165.02092492	1.820879106
320	173.987101904	1.820879106
330	183.902780204	1.826888608
