Measured thermophysical data. Heat capacities of ionic liquids and their heats of solution in molecular liquids
Source: Thermochim. Acta, 2005, 10.1016/j.tca.2005.03.001
Compound 1: 1-ethyl-3-methylimidazolium tetrafluoroborate, C6H11BF4N2, InChI=1S/C6H11N2.BF4/c1-3-8-5-4-7(2)6-8;2-1(3,4)5/h4-6H,3H2,1-2H3;/q+1;-1
Compound 2: 1-ethyl-3-methylimidazolium bis((trifluoromethyl)sulfonyl)imide, C8H11F6N3O4S2, InChI=1S/C6H11N2.C2F6NO4S2/c1-3-8-5-4-7(2)6-8;3-1(4,5)14(10,11)9-15(12,13)2(6,7)8/h4-6H,3H2,1-2H3;/q+1;-1
Compound 3: 1-butyl-3-methylimidazolium tetrafluoroborate, C8H15BF4N2, InChI=1S/C8H15N2.BF4/c1-3-4-5-10-7-6-9(2)8-10;2-1(3,4)5/h6-8H,3-5H2,1-2H3;/q+1;-1
Compound 4: 1-methyl-1-propylpyrrolidinium bis[(trifluoromethyl)sulfonyl]imide, C10H18F6N2O4S2, InChI=1S/C8H18N.C2F6NO4S2/c1-3-6-9(2)7-4-5-8-9;3-1(4,5)14(10,11)9-15(12,13)2(6,7)8/h3-8H2,1-2H3;/q+1;-1
Compound 5: water, H2O, InChI=1S/H2O/h1H2
Compound 6: acetonitrile, C2H3N, InChI=1S/C2H3N/c1-2-3/h1H3
Compound 7: methanol, CH4O, InChI=1S/CH4O/c1-2/h2H,1H3, purity 99.8%

System: 1-ethyl-3-methylimidazolium tetrafluoroborate; phases: Liquid
Fixed: Pressure, kPa = 101.325
Property: Molar heat capacity at constant pressure, J/K/mol (Liquid); method: Small sample (50 mg) DSC
Temperature, K	Molar heat capacity at constant pressure, J/K/mol	uncertainty
283.15	303.4	4.7
288.15	304.9	4.7
293.15	306.5	4.7
298.15	308.1	4.8
303.15	309.8	4.8
308.15	311.5	4.8
313.15	313.2	4.9
318.15	315	4.9
323.15	316.8	4.9
328.15	318.7	4.9
333.15	320.6	5
338.15	322.5	5
343.15	324.5	5
348.15	326.5	5.1
353.15	328.6	5.1
358.15	330.7	5.1

System: 1-ethyl-3-methylimidazolium bis((trifluoromethyl)sulfonyl)imide; phases: Liquid
Fixed: Pressure, kPa = 101.325
Property: Molar heat capacity at constant pressure, J/K/mol (Liquid); method: Small sample (50 mg) DSC
Temperature, K	Molar heat capacity at constant pressure, J/K/mol	uncertainty
283.15	502.3	7.8
288.15	504.6	7.8
293.15	506.9	7.9
298.15	509.2	7.9
303.15	511.5	7.9
308.15	513.8	8
313.15	516.1	8
318.15	518.5	8
323.15	520.9	8.1
328.15	523.3	8.1
333.15	525.7	8.1
338.15	528.1	8.2
343.15	530.5	8.2
348.15	533	8.3
353.15	535.5	8.3
358.15	538	8.3

System: 1-butyl-3-methylimidazolium tetrafluoroborate; phases: Liquid
Fixed: Pressure, kPa = 101.325
Property: Molar heat capacity at constant pressure, J/K/mol (Liquid); method: Small sample (50 mg) DSC
Temperature, K	Molar heat capacity at constant pressure, J/K/mol	uncertainty
283.15	357.8	5.5
288.15	360.2	5.6
293.15	362.5	5.6
298.15	364.8	5.7
303.15	367.2	5.7
308.15	369.5	5.7
313.15	371.9	5.8
318.15	374.3	5.8
323.15	376.6	5.8
328.15	379	5.9
333.15	381.4	5.9
338.15	383.9	5.9
343.15	386.3	6
348.15	388.7	6
353.15	391.2	6.1
358.15	393.6	6.1

System: 1-methyl-1-propylpyrrolidinium bis[(trifluoromethyl)sulfonyl]imide; phases: Liquid
Fixed: Pressure, kPa = 101.325
Property: Molar heat capacity at constant pressure, J/K/mol (Liquid); method: Small sample (50 mg) DSC
Temperature, K	Molar heat capacity at constant pressure, J/K/mol	uncertainty
283.15	544.2	8.4
288.15	547.5	8.5
293.15	550.7	8.5
298.15	554	8.6
303.15	557.3	8.6
308.15	560.6	8.7
313.15	563.9	8.7
318.15	567.2	8.8
323.15	570.5	8.8
328.15	573.8	8.9
333.15	577.2	8.9
338.15	580.5	9
343.15	583.9	9
348.15	587.2	9.1
353.15	590.6	9.1
358.15	594	9.2

System: acetonitrile + 1-ethyl-3-methylimidazolium tetrafluoroborate; phases: Liquid
Fixed: Temperature, K = 298.15
Fixed: Pressure, kPa = 101
Property: Molar enthalpy of solution, kJ/mol (Liquid); method: ISOPERIBOL
Molality, mol/kg of 1-ethyl-3-methylimidazolium tetrafluoroborate	Molar enthalpy of solution, kJ/mol	uncertainty
0.00443	-4.56	0.28
0.0058	-4.53	0.28
0.00661	-4.53	0.28
0.00736	-4.51	0.28
0.00891	-4.48	0.28
0.01011	-4.48	0.28
0.01024	-4.47	0.28
0.01291	-4.43	0.28
0.01373	-4.4	0.28
0.01868	-4.35	0.28

System: acetonitrile + 1-butyl-3-methylimidazolium tetrafluoroborate; phases: Liquid
Fixed: Temperature, K = 298.15
Fixed: Pressure, kPa = 101
Property: Molar enthalpy of solution, kJ/mol (Liquid); method: ISOPERIBOL
Molality, mol/kg of 1-butyl-3-methylimidazolium tetrafluoroborate	Molar enthalpy of solution, kJ/mol	uncertainty
0.00215	-4.86	0.28
0.00218	-4.84	0.28
0.00299	-4.8	0.28
0.00409	-4.74	0.28
0.00429	-4.74	0.28
0.00594	-4.68	0.28
0.00778	-4.59	0.28
0.00902	-4.53	0.28
0.01009	-4.5	0.28
0.01152	-4.46	0.28

System: water + 1-ethyl-3-methylimidazolium tetrafluoroborate; phases: Liquid
Fixed: Temperature, K = 298.15
Fixed: Pressure, kPa = 101
Property: Molar enthalpy of solution, kJ/mol (Liquid); method: ISOPERIBOL
Molality, mol/kg of 1-ethyl-3-methylimidazolium tetrafluoroborate	Molar enthalpy of solution, kJ/mol	uncertainty
0.0015	17.33	0.55
0.01	17.33	0.55

System: methanol + 1-ethyl-3-methylimidazolium tetrafluoroborate; phases: Liquid
Fixed: Temperature, K = 298.15
Fixed: Pressure, kPa = 101
Property: Molar enthalpy of solution, kJ/mol (Liquid); method: ISOPERIBOL
Molality, mol/kg of 1-ethyl-3-methylimidazolium tetrafluoroborate	Molar enthalpy of solution, kJ/mol	uncertainty
0.0015	19.02	0.29
0.01	19.02	0.29

System: water + 1-butyl-3-methylimidazolium tetrafluoroborate; phases: Liquid
Fixed: Temperature, K = 298.15
Fixed: Pressure, kPa = 101
Property: Molar enthalpy of solution, kJ/mol (Liquid); method: ISOPERIBOL
Molality, mol/kg of 1-butyl-3-methylimidazolium tetrafluoroborate	Molar enthalpy of solution, kJ/mol	uncertainty
0.0015	15.81	0.63
0.01	15.81	0.63

System: methanol + 1-butyl-3-methylimidazolium tetrafluoroborate; phases: Liquid
Fixed: Temperature, K = 298.15
Fixed: Pressure, kPa = 101
Property: Molar enthalpy of solution, kJ/mol (Liquid); method: ISOPERIBOL
Molality, mol/kg of 1-butyl-3-methylimidazolium tetrafluoroborate	Molar enthalpy of solution, kJ/mol	uncertainty
0.0015	18.5	0.46
0.01	18.5	0.46

System: water + 1-methyl-1-propylpyrrolidinium bis[(trifluoromethyl)sulfonyl]imide; phases: Liquid
Fixed: Temperature, K = 298.15
Fixed: Pressure, kPa = 101
Property: Molar enthalpy of solution, kJ/mol (Liquid); method: ISOPERIBOL
Molality, mol/kg of 1-methyl-1-propylpyrrolidinium bis[(trifluoromethyl)sulfonyl]imide	Molar enthalpy of solution, kJ/mol	uncertainty
0.0015	4.24	1.06
0.01	4.24	1.06

System: methanol + 1-methyl-1-propylpyrrolidinium bis[(trifluoromethyl)sulfonyl]imide; phases: Liquid
Fixed: Temperature, K = 298.15
Fixed: Pressure, kPa = 101
Property: Molar enthalpy of solution, kJ/mol (Liquid); method: ISOPERIBOL
Molality, mol/kg of 1-methyl-1-propylpyrrolidinium bis[(trifluoromethyl)sulfonyl]imide	Molar enthalpy of solution, kJ/mol	uncertainty
0.0015	14.51	0.61
0.01	14.51	0.61

System: acetonitrile + 1-methyl-1-propylpyrrolidinium bis[(trifluoromethyl)sulfonyl]imide; phases: Liquid
Fixed: Temperature, K = 298.15
Fixed: Pressure, kPa = 101
Property: Molar enthalpy of solution, kJ/mol (Liquid); method: ISOPERIBOL
Molality, mol/kg of 1-methyl-1-propylpyrrolidinium bis[(trifluoromethyl)sulfonyl]imide	Molar enthalpy of solution, kJ/mol	uncertainty
0.0015	0.44	0.08
0.01	0.44	0.08

System: water + 1-ethyl-3-methylimidazolium bis((trifluoromethyl)sulfonyl)imide; phases: Liquid
Fixed: Temperature, K = 298.15
Fixed: Pressure, kPa = 101
Property: Molar enthalpy of solution, kJ/mol (Liquid); method: ISOPERIBOL
Molality, mol/kg of 1-ethyl-3-methylimidazolium bis((trifluoromethyl)sulfonyl)imide	Molar enthalpy of solution, kJ/mol	uncertainty
0.0015	7.81	0.94
0.01	7.81	0.94

System: methanol + 1-ethyl-3-methylimidazolium bis((trifluoromethyl)sulfonyl)imide; phases: Liquid
Fixed: Temperature, K = 298.15
Fixed: Pressure, kPa = 101
Property: Molar enthalpy of solution, kJ/mol (Liquid); method: ISOPERIBOL
Molality, mol/kg of 1-ethyl-3-methylimidazolium bis((trifluoromethyl)sulfonyl)imide	Molar enthalpy of solution, kJ/mol	uncertainty
0.0015	13.73	0.63
0.01	13.73	0.63

System: acetonitrile + 1-ethyl-3-methylimidazolium bis((trifluoromethyl)sulfonyl)imide; phases: Liquid
Fixed: Temperature, K = 298.15
Fixed: Pressure, kPa = 101
Property: Molar enthalpy of solution, kJ/mol (Liquid); method: ISOPERIBOL
Molality, mol/kg of 1-ethyl-3-methylimidazolium bis((trifluoromethyl)sulfonyl)imide	Molar enthalpy of solution, kJ/mol	uncertainty
0.0015	-2.18	0.68
0.01	-2.18	0.68
