Measured thermophysical data. Heat capacities and electrical conductivities of 1-n-butyl-3-methylimidazolium-based ionic liquids
Source: Thermochim. Acta, 2009, 10.1016/j.tca.2008.10.015
Compound 1: 1-butyl-3-methylimidazolium tetrafluoroborate, C8H15BF4N2, InChI=1S/C8H15N2.BF4/c1-3-4-5-10-7-6-9(2)8-10;2-1(3,4)5/h6-8H,3-5H2,1-2H3;/q+1;-1, purity 99%
Compound 2: 1-butyl-3-methylimidazolium hexafluorophosphate, C8H15F6N2P, InChI=1S/C8H15N2.F6P/c1-3-4-5-10-7-6-9(2)8-10;1-7(2,3,4,5)6/h6-8H,3-5H2,1-2H3;/q+1;-1, purity 99%
Compound 3: 1-butyl-3-methylimidazolium methyl sulfate, C9H18N2O4S, InChI=1S/C8H15N2.CH4O4S/c1-3-4-5-10-7-6-9(2)8-10;1-5-6(2,3)4/h6-8H,3-5H2,1-2H3;1H3,(H,2,3,4)/q+1;/p-1, purity 98%
Compound 4: 1-butyl-3-methylimidazolium trifluoromethanesulfonate, C9H15F3N2O3S, InChI=1S/C8H15N2.CHF3O3S/c1-3-4-5-10-7-6-9(2)8-10;2-1(3,4)8(5,6)7/h6-8H,3-5H2,1-2H3;(H,5,6,7)/q+1;/p-1, purity 98.1%

System: 1-butyl-3-methylimidazolium tetrafluoroborate; phases: Liquid
Fixed: Pressure, kPa = 101.325
Property: Molar heat capacity at constant pressure, J/K/mol (Liquid); method: Small sample (50 mg) DSC
Temperature, K	Molar heat capacity at constant pressure, J/K/mol	uncertainty
303.2	368.417152264	6.780683784
308.2	370.677380192	6.780683784
313.2	372.93760812	6.780683784
318.2	375.197836048	6.780683784
323.2	377.458063976	6.780683784
328.2	379.718291904	6.780683784
333.2	381.978519832	6.780683784
338.2	384.23874776	6.780683784
343.2	386.498975688	6.780683784
348.2	388.759203616	6.780683784
353.2	391.019431544	6.780683784
358.2	393.279659472	6.780683784

System: 1-butyl-3-methylimidazolium tetrafluoroborate; phases: Liquid
Fixed: Pressure, kPa = 101.325
Property: Electrical conductivity, S/m (Liquid); method: conductivity meter
Temperature, K	Electrical conductivity, S/m	uncertainty
303.2	0.295	0.016
308.2	0.364	0.018
313.2	0.446	0.009
318.2	0.542	0.011
323.2	0.651	0.013
328.2	0.783	0.016
333.2	0.926	0.019
338.2	1.081	0.022
343.2	1.251	0.025
348.2	1.669	0.033
353.2	2.18	0.044

System: 1-butyl-3-methylimidazolium hexafluorophosphate; phases: Liquid
Fixed: Pressure, kPa = 101.325
Property: Molar heat capacity at constant pressure, J/K/mol (Liquid); method: Small sample (50 mg) DSC
Temperature, K	Molar heat capacity at constant pressure, J/K/mol	uncertainty
303.2	412.06442229	8.525470806
308.2	417.748069494	11.39571264402
313.2	420.589893096	11.39571264402
318.2	423.431716698	11.39571264402
323.2	423.431716698	11.39571264402
328.2	426.2735403	11.39571264402
333.2	429.115363902	11.39571264402
338.2	431.957187504	11.39571264402
343.2	434.799011106	11.39571264402
348.2	440.48265831	11.39571264402
353.2	443.324481912	11.39571264402
358.2	443.324481912	8.525470806

System: 1-butyl-3-methylimidazolium hexafluorophosphate; phases: Liquid
Fixed: Pressure, kPa = 101.325
Property: Electrical conductivity, S/m (Liquid); method: conductivity meter
Temperature, K	Electrical conductivity, S/m	uncertainty
303.2	0.114	0.002
308.2	0.149	0.003
313.2	0.193	0.006
318.2	0.245	0.018
323.2	0.308	0.006
328.2	0.383	0.008
333.2	0.468	0.018
338.2	0.556	0.022
343.2	0.664	0.018
348.2	0.917	0.026
353.2	1.214	0.024

System: 1-butyl-3-methylimidazolium methyl sulfate; phases: Liquid
Fixed: Pressure, kPa = 101.325
Property: Molar heat capacity at constant pressure, J/K/mol (Liquid); method: Small sample (50 mg) DSC
Temperature, K	Molar heat capacity at constant pressure, J/K/mol	uncertainty
303.2	375.47445	7.509489
308.2	380.480776	7.509489
313.2	382.983939	7.509489
318.2	382.983939	7.509489
323.2	385.487102	7.509489
328.2	387.990265	7.509489
333.2	390.493428	7.509489
338.2	392.996591	7.509489
343.2	392.996591	7.509489
348.2	398.002917	7.509489
353.2	398.002917	7.509489
358.2	400.50608	7.509489

System: 1-butyl-3-methylimidazolium methyl sulfate; phases: Liquid
Fixed: Pressure, kPa = 101.325
Property: Electrical conductivity, S/m (Liquid); method: conductivity meter
Temperature, K	Electrical conductivity, S/m	uncertainty
303.2	0.217	0.02
308.2	0.276	0.018
313.2	0.348	0.022
318.2	0.43	0.014
323.2	0.522	0.016
328.2	0.626	0.022
333.2	0.741	0.016
338.2	0.867	0.02
343.2	1.008	0.022
348.2	1.318	0.026
353.2	1.667	0.033

System: 1-butyl-3-methylimidazolium trifluoromethanesulfonate; phases: Liquid
Fixed: Pressure, kPa = 101.325
Property: Molar heat capacity at constant pressure, J/K/mol (Liquid); method: Small sample (50 mg) DSC
Temperature, K	Molar heat capacity at constant pressure, J/K/mol	uncertainty
303.2	443.963965984	8.648648688
308.2	443.963965984	8.648648688
313.2	446.84684888	8.648648688
318.2	449.729731776	8.648648688
323.2	452.612614672	11.50270275504
328.2	452.612614672	11.50270275504
333.2	455.495497568	11.50270275504
338.2	458.378380464	11.50270275504
343.2	461.26126336	11.50270275504
348.2	464.144146256	11.50270275504
353.2	467.027029152	11.50270275504
358.2	469.909912048	11.50270275504

System: 1-butyl-3-methylimidazolium trifluoromethanesulfonate; phases: Liquid
Fixed: Pressure, kPa = 101.325
Property: Electrical conductivity, S/m (Liquid); method: conductivity meter
Temperature, K	Electrical conductivity, S/m	uncertainty
303.2	0.23	0.018
308.2	0.286	0.02
313.2	0.358	0.081
318.2	0.437	0.02
323.2	0.521	0.02
328.2	0.619	0.018
333.2	0.724	0.018
338.2	0.841	0.02
343.2	0.967	0.02
348.2	1.255	0.025
353.2	1.575	0.032
