Measured thermophysical data. Comparative study of thermal stability and combustion of dinitropyrazole isomers
Source: Thermochim. Acta, 2018, 10.1016/j.tca.2018.07.006
Compound 1: 1,3-dinitro-1H-pyrazole, C3H2N4O4, InChI=1S/C3H2N4O4/c8-6(9)3-1-2-5(4-3)7(10)11/h1-2H
Compound 2: 1,4-dinitro-1H-pyrazole, C3H2N4O4, InChI=1S/C3H2N4O4/c8-6(9)3-1-4-5(2-3)7(10)11/h1-2H

System: 1,3-dinitro-1H-pyrazole; phases: Crystal, Liquid, Air at 1 atmosphere
Property: Triple point temperature, K (Crystal); method: DSC
Triple point temperature, K	uncertainty
339.15	4.1

System: 1,3-dinitro-1H-pyrazole; phases: Crystal, Liquid, Air at 1 atmosphere
Property: Molar enthalpy of transition or fusion, kJ/mol (Crystal); method: DSC
Molar enthalpy of transition or fusion, kJ/mol	uncertainty
15.664988714	0.490024874

System: 1,3-dinitro-1H-pyrazole; phases: Crystal
Property: Mass density, kg/m3 (Crystal); method: Pycnometric method
Temperature, K	Pressure, kPa	Mass density, kg/m3	uncertainty
298	101.325	1768	3

System: 1,4-dinitro-1H-pyrazole; phases: Crystal, Liquid, Air at 1 atmosphere
Property: Triple point temperature, K (Crystal); method: DSC
Triple point temperature, K	uncertainty
321.05	4.1

System: 1,4-dinitro-1H-pyrazole; phases: Crystal, Liquid, Air at 1 atmosphere
Property: Molar enthalpy of transition or fusion, kJ/mol (Crystal); method: DSC
Molar enthalpy of transition or fusion, kJ/mol	uncertainty
15.57014519	0.490024874

System: 1,4-dinitro-1H-pyrazole; phases: Crystal
Property: Mass density, kg/m3 (Crystal); method: Pycnometric method
Temperature, K	Pressure, kPa	Mass density, kg/m3	uncertainty
298	101.325	1679	3
