Measured thermophysical data. Crystal structure and thermodynamic properties of potassium antimony tungsten oxide
Source: Thermochim. Acta, 2010, 10.1016/j.tca.2009.12.002
Compound 1: antimony potassium tungsten oxide, KO5SbW, InChI=1S/K.5O.Sb.W/q+1;5*-2;+3;+6, purity 99%

System: antimony potassium tungsten oxide; phases: Crystal
Fixed: Pressure, kPa = 101.325
Property: Molar heat capacity at constant pressure, J/K/mol (Crystal); method: Vacuum adiabatic calorimetry
Temperature, K	Molar heat capacity at constant pressure, J/K/mol	uncertainty
5	0.3625	0.0171
10	2.726	0.114
15	6.395	0.261
20	10.83	0.13
25	15.96	0.17
30	21.26	0.22
35	26.5	0.28
40	31.29	0.32
45	36	0.17
50	40.69	0.19
60	49.51	0.22
70	57.93	0.26
80	66.3	0.29
90	74.51	0.36
100	81.69	0.38
110	88.71	0.41
120	95.28	0.44
130	101.4	0.5
140	107.3	0.5
150	113	0.5
160	118.7	0.5
170	124.2	0.6
180	129.4	0.6
190	134.1	0.6
200	138.4	0.6
210	142.5	0.6
220	146.5	0.6
230	150.2	0.7
240	154	0.7
250	157.5	0.7
260	160.7	0.7
270	163.9	0.7
273.15	165	0.7
280	167.2	0.7
290	170.6	0.7
298.15	173.4	0.7
300	174.1	0.7
310	177.4	0.8
320	180.4	0.8
330	183.1	0.8
340	185.5	0.8
350	187.9	0.8
360	190.6	0.8
370	193.4	0.8

System: antimony potassium tungsten oxide; phases: Crystal 1
Fixed: Pressure, kPa = 101.325
Property: Molar heat capacity at constant pressure, J/K/mol (Crystal 1); method: Small (less than 1 g) adiabatic calorimetry
Temperature, K	Molar heat capacity at constant pressure, J/K/mol	uncertainty
6.8	0.921	0.037
7.13	1.07	0.04
7.6	1.29	0.04
8.06	1.52	0.05
8.46	1.74	0.05
8.87	1.98	0.05
9.29	2.25	0.06
9.73	2.53	0.06
10.15	2.82	0.07
10.58	3.12	0.07
10.98	3.42	0.07
11.39	3.74	0.08
11.88	4.08	0.08
12.43	4.5	0.09
13.32	5.13	0.1
14.19	5.78	0.1
15.04	6.38	0.11
15.89	7.082	0.118
16.74	7.823	0.125
17.6	8.577	0.132
18.47	9.376	0.14
19.35	10.22	0.15
20.3	11.13	0.15
21.28	12.13	0.16
22.31	13.11	0.17
23.34	14.23	0.17
24.39	15.3	0.18
25.45	16.45	0.18
26.53	17.6	0.19
27.64	18.77	0.19
28.77	19.91	0.19
29.91	21.1	0.19
31.07	22.4	0.21
32.25	23.7	0.22
33.44	25	0.23
34.65	26.1	0.23
35.87	27.39	0.24
37.11	28.54	0.24
38.37	29.81	0.25
39.64	31.04	0.26
40.93	32.2	0.26
42.22	33.3	0.27
43.54	34.53	0.27
44.86	35.85	0.28
46.19	37.17	0.29
47.53	38.4	0.29
48.87	39.7	0.3
50.23	40.88	0.3
51.59	42.14	0.31
52.96	43.4	0.32
54.33	44.6	0.32
55.71	45.85	0.33
57.1	47.02	0.34
58.49	48.21	0.34
59.88	49.43	0.35
61.28	50.57	0.35
62.69	51.79	0.36
64.09	52.95	0.37
65.42	54.06	0.37
66.91	55.28	0.38
68.33	56.51	0.38
69.75	57.73	0.39
71.17	58.96	0.4
72.57	60.14	0.4
73.98	61.23	0.41
75.39	62.45	0.41
76.8	63.72	0.42
78.22	64.91	0.42
79.63	66	0.43
80.91	67.01	0.44
81.75	67.75	0.44
82.48	68.27	0.44
83.89	69.4	0.45
84.73	70.36	0.45
85.31	70.49	0.45
86.74	71.59	0.46
87.76	72.76	0.46
88.15	72.74	0.46
89.58	73.76	0.47
90.79	75.09	0.5
91	74.91	0.5
93.7	77.24	0.51
96.86	79.52	0.52
99.9	81.66	0.53
103	83.81	0.54
105.96	85.85	0.54
109	88	0.55
112.03	89.99	0.56
115.05	92.1	0.57
118.08	94.04	0.58
121.1	95.98	0.58
124.12	97.87	0.59
127.14	99.74	0.6
130.1	101.4	0.6
133.14	103.2	0.6
136.14	105.1	0.6
139.14	106.7	0.6
142.13	108.6	0.6
145.11	110.1	0.6
148.09	111.9	0.7
151.06	113.6	0.7
154.03	115.4	0.7
156.99	117.1	0.7
159.95	118.7	0.7
162.89	120.3	0.7
165.84	122.1	0.7
168.77	123.7	0.7
171.7	125.1	0.7
174.62	126.5	0.7
177.49	128	0.7
180.39	129.5	0.7
183.3	130.8	0.7
186.19	132.1	0.7
189.08	133.5	0.7
191.96	135	0.7
194.83	136.2	0.7
197.7	137.6	0.8
200.55	138.8	0.8
203.4	140	0.8
206.6	141.2	0.8
209.47	142.3	0.8
212.21	143.5	0.8
215.02	144.5	0.8
217.82	145.7	0.8
220.62	146.7	0.8
223.4	147.8	0.8
226.16	148.8	0.8
228.93	149.8	0.8
231.68	151	0.8
234.43	152	0.8
237.16	153	0.8
239.89	153.9	0.8
242.59	154.9	0.8
245.28	155.8	0.8
247.98	156.8	0.8
250.66	157.6	0.8
253.17	158.4	0.8
255.83	159.3	0.8
258.48	160.3	0.8
261.11	161	0.8
263.73	161.9	0.8
266.33	162.9	0.9
268.92	163.6	0.9
271.5	164.5	0.9
274.06	165.3	0.9
276.8	166.2	0.9
279.12	167.1	0.9
281.63	167.8	0.9
284.09	168.6	0.9
286.56	169.4	0.9
289.01	170.3	0.9
291.41	171.1	0.9
293.51	171.7	0.9
295.9	172.6	0.9
298.27	173.5	0.9
300.62	174.4	0.9
302.95	175.2	0.9
305.27	175.9	0.9
307.57	176.6	0.9
309.85	177.2	0.9
312.11	177.9	0.9
314.35	178.6	0.9
316.53	179.4	0.9
318.73	180	0.9
320.92	180.7	0.9
323.09	181.3	0.9
324.86	181.8	0.9
326.8	182.2	0.9
328.83	182.7	0.9
330.87	183.4	0.9
332.95	183.9	0.9
335.01	184.3	0.9
337.04	184.8	0.9
339.06	185.3	0.9
341.06	185.7	0.9
343.03	186.2	0.9
344.93	186.7	0.9
346.86	187.1	1
348.77	187.6	1
350.66	188.1	1
352.53	188.6	1
354.38	189	1
356.5	189.8	1
358.7	190.3	1
360.87	190.8	1
362.61	191.2	1
364.32	191.7	1
366.01	192.2	1
367.68	192.7	1
369.44	193.3	1
371.11	193.8	1

System: antimony potassium tungsten oxide; phases: Crystal
Fixed: Pressure, kPa = 101.325
Property: Molar enthalpy, kJ/mol (Crystal); method: Vacuum adiabatic calorimetry
Temperature, K	Molar enthalpy, kJ/mol	uncertainty
5	0.0005	0.0001
10	0.0072	0.0003
15	0.0298	0.0012
20	0.0725	0.001
25	0.1393	0.0017
30	0.2323	0.0027
35	0.3518	0.004
40	0.4965	0.0054
45	0.6647	0.0037
50	0.8565	0.0046
60	1.308	0.007
70	1.845	0.009
80	2.467	0.012
90	3.172	0.02
100	3.953	0.023
110	4.805	0.027
120	5.726	0.031
130	6.709	0.036
140	7.753	0.04
150	8.854	0.045
160	10.01	0.05
170	11.23	0.06
180	12.5	0.06
190	13.81	0.07
200	15.18	0.07
210	16.58	0.08
220	18.03	0.08
230	19.51	0.09
240	21.03	0.1
250	22.59	0.1
260	24.18	0.11
270	25.8	0.12
273.15	26.32	0.12
280	27.46	0.12
290	29.15	0.13
298.15	30.55	0.14
300	30.87	0.14
310	32.63	0.15
320	34.42	0.15
330	36.24	0.16
340	38.08	0.17
350	39.95	0.18
360	41.84	0.19
370	43.76	0.19

System: antimony potassium tungsten oxide; phases: Crystal
Fixed: Pressure, kPa = 101.325
Property: Molar entropy, J/K/mol (Crystal); method: Vacuum adiabatic calorimetry
Temperature, K	Molar entropy, J/K/mol	uncertainty
5	0.1208	0.0153
10	0.9538	0.0611
15	2.743	0.168
20	5.164	0.09
25	8.123	0.134
30	11.5	0.19
35	15.18	0.24
40	19.03	0.3
45	22.99	0.17
50	27.03	0.19
60	35.24	0.24
70	43.5	0.3
80	51.79	0.35
90	60.09	0.46
100	68.31	0.5
110	76.43	0.55
120	84.43	0.59
130	92.3	0.64
140	100	0.7
150	107.6	0.7
160	115.1	0.8
170	122.5	0.8
180	129.7	0.9
190	136.8	0.9
200	143.8	0.9
210	150.7	1
220	157.4	1
230	164	1.1
240	170.5	1.1
250	176.8	1.1
260	183.1	1.2
270	189.2	1.2
273.15	191.1	1.2
280	195.2	1.2
290	201.1	1.3
298.15	205.9	1.3
300	207	1.3
310	212.8	1.4
320	218.4	1.4
330	224	1.4
340	229.5	1.5
350	234.9	1.5
360	240.3	1.5
370	245.5	1.5

System: antimony potassium tungsten oxide; phases: Crystal, Air at 1 atmosphere
Property: Mass density, kg/m3 (Crystal); method: X-ray diffraction
Temperature, K	Mass density, kg/m3	uncertainty
298	5460	10
373	5450	10
473	5450	10
573	5440	10
673	5430	10
773	5430	10
873	5420	10
973	5410	10
1073	5400	10
1173	5390	10
1273	5370	10
