Measured thermophysical data. Studies on fluorination of Y2O3 by NH4HF2
Source: Thermochim. Acta, 2011, 10.1016/j.tca.2011.03.032
Compound 1: ammonium fluoride, FH4N, InChI=1S/FH.H3N/h1H;1H3
Compound 2: ammonium difluoride, F2H5N, InChI=1S/2FH.H3N/h2*1H;1H3

System: ammonium fluoride; phases: Liquid, Gas
Property: Normal boiling temperature, K (Liquid); method: DTA
Normal boiling temperature, K	uncertainty
438.15	1

System: ammonium fluoride; phases: Crystal, Liquid, Air at 1 atmosphere
Property: Normal melting temperature, K (Crystal); method: DTA
Normal melting temperature, K	uncertainty
383.15	1

System: ammonium difluoride; phases: Liquid, Gas
Property: Normal boiling temperature, K (Liquid); method: DTA
Normal boiling temperature, K	uncertainty
418.15	1

System: ammonium difluoride; phases: Crystal, Liquid, Air at 1 atmosphere
Property: Normal melting temperature, K (Crystal); method: DTA
Normal melting temperature, K	uncertainty
398.15	1
