Measured thermophysical data. Physicochemical and thermodynamic properties of the {1-alkyl-1-methylpiperidinium bromide [C1Cn=2,4PIP][Br], or 1-butylpyridinium bromide, [C4Py][Br], or tri(ethyl)butylammonium bromide [N2,2,2,4] [Br] + water} binary systems
Source: Thermochim. Acta, 2019, 10.1016/j.tca.2018.11.018
Compound 1: N-ethyl-N-methylpiperidinium bromide, C8H18BrN, InChI=1S/C8H18N.BrH/c1-3-9(2)7-5-4-6-8-9;/h3-8H2,1-2H3;1H/q+1;/p-1
Compound 2: N-butyl-N-methylpiperidinium bromide, C10H22BrN, InChI=1S/C10H22N.BrH/c1-3-4-8-11(2)9-6-5-7-10-11;/h3-10H2,1-2H3;1H/q+1;/p-1
Compound 3: 1-butylpyridinium bromide, C9H14BrN, InChI=1S/C9H14N.BrH/c1-2-3-7-10-8-5-4-6-9-10;/h4-6,8-9H,2-3,7H2,1H3;1H/q+1;/p-1
Compound 4: butyltriethyl ammonium bromide, C10H24BrN, InChI=1S/C10H24N.BrH/c1-5-9-10-11(6-2,7-3)8-4;/h5-10H2,1-4H3;1H/q+1;/p-1
Compound 5: water, H2O, InChI=1S/H2O/h1H2, purity 99.8%

System: N-ethyl-N-methylpiperidinium bromide; phases: Crystal 1, Liquid, Air at 1 atmosphere
Property: Normal melting temperature, K (Crystal 1); method: DTA
Normal melting temperature, K	uncertainty
382.39	0.7

System: N-ethyl-N-methylpiperidinium bromide; phases: Crystal 1, Liquid, Air at 1 atmosphere
Property: Molar enthalpy of transition or fusion, kJ/mol (Crystal 1); method: DSC
Molar enthalpy of transition or fusion, kJ/mol	uncertainty
16.5	1.45

System: N-butyl-N-methylpiperidinium bromide; phases: Crystal 2, Crystal 1, Air at 1 atmosphere
Property: Triple point temperature, K (Crystal 2); method: DSC
Triple point temperature, K	uncertainty
339.53	0.93

System: N-butyl-N-methylpiperidinium bromide; phases: Crystal 2, Crystal 1, Air at 1 atmosphere
Property: Molar enthalpy of transition or fusion, kJ/mol (Crystal 2); method: DSC
Molar enthalpy of transition or fusion, kJ/mol	uncertainty
0.064	1.582

System: N-butyl-N-methylpiperidinium bromide; phases: Crystal 1, Liquid, Air at 1 atmosphere
Property: Normal melting temperature, K (Crystal 1); method: DTA
Normal melting temperature, K	uncertainty
513.82	0.7

System: 1-butylpyridinium bromide; phases: Crystal 1, Liquid, Air at 1 atmosphere
Property: Normal melting temperature, K (Crystal 1); method: DTA
Normal melting temperature, K	uncertainty
376.83	0.7

System: 1-butylpyridinium bromide; phases: Crystal 1, Liquid, Air at 1 atmosphere
Property: Molar enthalpy of transition or fusion, kJ/mol (Crystal 1); method: DSC
Molar enthalpy of transition or fusion, kJ/mol	uncertainty
19.7	1.5

System: butyltriethyl ammonium bromide; phases: Crystal 2, Crystal 1, Air at 1 atmosphere
Property: Triple point temperature, K (Crystal 2); method: DSC
Triple point temperature, K	uncertainty
444.65	0.93

System: butyltriethyl ammonium bromide; phases: Crystal 2, Crystal 1, Air at 1 atmosphere
Property: Molar enthalpy of transition or fusion, kJ/mol (Crystal 2); method: DSC
Molar enthalpy of transition or fusion, kJ/mol	uncertainty
11.21	1.62

System: butyltriethyl ammonium bromide; phases: Crystal 1, Liquid, Air at 1 atmosphere
Property: Normal melting temperature, K (Crystal 1); method: DTA
Normal melting temperature, K	uncertainty
490.02	0.7

System: butyltriethyl ammonium bromide; phases: Crystal 1, Liquid, Air at 1 atmosphere
Property: Normal melting temperature, K (Crystal 1); method: VISOBS
Normal melting temperature, K	uncertainty
490.1	0.5

System: water; phases: Crystal, Liquid, Air at 1 atmosphere
Property: Normal melting temperature, K (Crystal); method: VISOBS
Normal melting temperature, K	uncertainty
273.2	0.3

System: N-ethyl-N-methylpiperidinium bromide + water; phases: Liquid
Fixed: Pressure, kPa = 100
Property: Mass density, kg/m3 (Liquid); method: Vibrating tube method
Temperature, K	Mole fraction of N-ethyl-N-methylpiperidinium bromide	Mass density, kg/m3	uncertainty
298.15	0	997.1	1
298.15	0.02	1042.3	1
298.15	0.046	1088.3	1
298.15	0.065	1116.9	1
298.15	0.085	1141.4	1
298.15	0.11	1167.4	1.1
298.15	0.14	1192.2	1.1
298.15	0.18	1217.8	1.1
298.15	0.221	1237.8	1.2
298.15	0.27	1255.2	1.3
298.15	0.321	1268.9	1.5
303.15	0	995.7	1
303.15	0.02	1040.5	1
303.15	0.046	1085.9	1
303.15	0.065	1114.2	1
303.15	0.085	1138.5	1
303.15	0.11	1164.3	1.1
303.15	0.14	1189	1.1
303.15	0.18	1214.4	1.1
303.15	0.221	1234.4	1.2
303.15	0.27	1251.8	1.3
303.15	0.321	1265.5	1.4
308.15	0	994	1
308.15	0.02	1038.6	1
308.15	0.046	1083.5	1
308.15	0.065	1111.5	1
308.15	0.085	1135.5	1
308.15	0.11	1161.2	1.1
308.15	0.14	1185.7	1.1
308.15	0.18	1211	1.1
308.15	0.221	1230.9	1.2
308.15	0.27	1248.4	1.3
308.15	0.321	1262.1	1.4
313.15	0	992.2	1
313.15	0.02	1036.4	1
313.15	0.046	1081.1	1
313.15	0.065	1108.7	1
313.15	0.085	1132.5	1
313.15	0.11	1158	1
313.15	0.14	1182.3	1.1
313.15	0.18	1207.5	1.1
313.15	0.221	1227.4	1.2
313.15	0.27	1244.9	1.3
313.15	0.321	1258.6	1.4
318.15	0	990.1	1
318.15	0.02	1034.1	1
318.15	0.046	1078.7	1
318.15	0.065	1105.9	1
318.15	0.085	1129.5	1
318.15	0.11	1154.8	1
318.15	0.14	1178.9	1.1
318.15	0.18	1204.1	1.1
318.15	0.221	1223.9	1.2
318.15	0.27	1241.4	1.3
318.15	0.321	1255.2	1.4
323.15	0	987.9	1
323.15	0.02	1031.6	1
323.15	0.046	1075.9	1
323.15	0.065	1102.9	1
323.15	0.085	1126.3	1
323.15	0.11	1151.5	1
323.15	0.14	1175.5	1.1
323.15	0.18	1200.6	1.1
323.15	0.221	1220.4	1.2
323.15	0.27	1237.9	1.3
323.15	0.321	1251.8	1.4
328.15	0	985.6	1
328.15	0.02	1029	1
328.15	0.046	1073	1
328.15	0.065	1099.9	1
328.15	0.085	1123.1	1
328.15	0.11	1148.1	1
328.15	0.14	1172.1	1.1
328.15	0.18	1197	1.1
328.15	0.221	1216.9	1.2
328.15	0.27	1234.4	1.3
328.15	0.321	1248.3	1.4
333.15	0	983.2	1
333.15	0.02	1026.3	1
333.15	0.046	1070.2	1
333.15	0.065	1096.7	1
333.15	0.085	1119.9	1
333.15	0.11	1144.7	1
333.15	0.14	1168.6	1.1
333.15	0.18	1193.5	1.1
333.15	0.221	1213.4	1.2
333.15	0.27	1230.9	1.3
333.15	0.321	1244.9	1.4
338.15	0	980.3	1
338.15	0.02	1023.5	1
338.15	0.046	1067.1	1
338.15	0.065	1093.5	1
338.15	0.085	1116.9	1
338.15	0.11	1141.4	1
338.15	0.14	1165.1	1.1
338.15	0.18	1189.9	1.1
338.15	0.221	1209.8	1.2
338.15	0.27	1227.4	1.3
338.15	0.321	1241.4	1.4
343.15	0	978.1	1
343.15	0.02	1020.4	1
343.15	0.046	1063.9	1
343.15	0.065	1090.3	1
343.15	0.085	1113.8	1
343.15	0.11	1137.9	1
343.15	0.14	1161.5	1.1
343.15	0.18	1186.3	1.1
343.15	0.221	1206.2	1.2
343.15	0.27	1223.9	1.3
343.15	0.321	1238	1.4
348.15	0	974.8	1
348.15	0.02	1016.6	1
348.15	0.046	1060.6	1
348.15	0.065	1087	1
348.15	0.085	1110.3	1
348.15	0.11	1134.3	1
348.15	0.14	1157.9	1.1
348.15	0.18	1182.7	1.1
348.15	0.221	1202.6	1.2
348.15	0.27	1220.3	1.3
348.15	0.321	1234.5	1.4

System: N-ethyl-N-methylpiperidinium bromide + water; phases: Liquid
Fixed: Pressure, kPa = 100
Property: Viscosity, Pa*s (Liquid); method: Falling or rolling sphere viscometry
Temperature, K	Mole fraction of N-ethyl-N-methylpiperidinium bromide	Viscosity, Pa*s	uncertainty
298.15	0	0.00089	5.4e-05
298.15	0.02	0.001263	7.6e-05
298.15	0.046	0.002026	0.000122
298.15	0.065	0.002813	0.00017
298.15	0.085	0.003992	0.000242
298.15	0.11	0.00616	0.000373
298.15	0.14	0.01135	0.00069
298.15	0.18	0.02055	0.00125
298.15	0.221	0.03606	0.00219
298.15	0.27	0.06876	0.00421
298.15	0.321	0.1353	0.0092
303.15	0	0.000797	4.8e-05
303.15	0.02	0.001124	6.8e-05
303.15	0.046	0.001783	0.000108
303.15	0.065	0.002444	0.000148
303.15	0.085	0.003419	0.000207
303.15	0.11	0.005175	0.000313
303.15	0.14	0.009449	0.000572
303.15	0.18	0.01667	0.00101
303.15	0.221	0.02838	0.00172
303.15	0.27	0.05192	0.00314
303.15	0.321	0.09865	0.00633
308.15	0	0.000719	4.3e-05
308.15	0.02	0.001011	6.1e-05
308.15	0.046	0.00159	9.6e-05
308.15	0.065	0.002147	0.00013
308.15	0.085	0.002967	0.000179
308.15	0.11	0.00441	0.000267
308.15	0.14	0.007861	0.000476
308.15	0.18	0.0136	0.00082
308.15	0.221	0.02248	0.00137
308.15	0.27	0.03991	0.00243
308.15	0.321	0.07314	0.00452
313.15	0	0.000653	3.9e-05
313.15	0.02	0.000915	5.5e-05
313.15	0.046	0.001421	8.6e-05
313.15	0.065	0.001901	0.000115
313.15	0.085	0.002595	0.000157
313.15	0.11	0.0038	0.00023
313.15	0.14	0.006584	0.000399
313.15	0.18	0.01117	0.00068
313.15	0.221	0.01806	0.0011
313.15	0.27	0.031	0.00189
313.15	0.321	0.05437	0.0033
318.15	0	0.000596	3.6e-05
318.15	0.02	0.000834	5e-05
318.15	0.046	0.001279	7.7e-05
318.15	0.065	0.001697	0.000103
318.15	0.085	0.002287	0.000138
318.15	0.11	0.003301	0.0002
318.15	0.14	0.005574	0.000338
318.15	0.18	0.009251	0.000561
318.15	0.221	0.0147	0.00089
318.15	0.27	0.02463	0.0015
318.15	0.321	0.04207	0.00257
323.15	0	0.000547	3.3e-05
323.15	0.02	0.000767	4.6e-05
323.15	0.046	0.001162	7e-05
323.15	0.065	0.001522	9.2e-05
323.15	0.085	0.002045	0.000124
323.15	0.11	0.002895	0.000175
323.15	0.14	0.004742	0.000287
323.15	0.18	0.00776	0.000471
323.15	0.221	0.01215	0.00074
323.15	0.27	0.01999	0.00122
323.15	0.321	0.03303	0.00202
328.15	0	0.000504	3e-05
328.15	0.02	0.000709	4.3e-05
328.15	0.046	0.001063	6.4e-05
328.15	0.065	0.001378	8.3e-05
328.15	0.085	0.00183	0.000111
328.15	0.11	0.002563	0.000155
328.15	0.14	0.004087	0.000248
328.15	0.18	0.006616	0.000401
328.15	0.221	0.01015	0.00062
328.15	0.27	0.01644	0.001
328.15	0.321	0.02676	0.00163
333.15	0	0.000466	2.8e-05
333.15	0.02	0.000656	4e-05
333.15	0.046	0.000976	5.9e-05
333.15	0.065	0.001249	7.6e-05
333.15	0.085	0.00165	0.0001
333.15	0.11	0.002285	0.000138
333.15	0.14	0.003555	0.000215
333.15	0.18	0.005691	0.000345
333.15	0.221	0.008658	0.000526
333.15	0.27	0.01381	0.00084
333.15	0.321	0.02195	0.00134
338.15	0	0.000433	2.6e-05
338.15	0.02	0.000616	3.7e-05
338.15	0.046	0.0009	5.4e-05
338.15	0.065	0.001142	6.9e-05
338.15	0.085	0.001495	9e-05
338.15	0.11	0.002046	0.000124
338.15	0.14	0.00313	0.00019
338.15	0.18	0.004925	0.000299
338.15	0.221	0.007418	0.000451
338.15	0.27	0.01166	0.00071
338.15	0.321	0.01817	0.00111
343.15	0	0.000404	2.4e-05
343.15	0.02	0.000579	3.5e-05
343.15	0.046	0.000835	5e-05
343.15	0.065	0.00105	6.4e-05
343.15	0.085	0.001363	8.2e-05
343.15	0.11	0.001845	0.000112
343.15	0.14	0.002616	0.000158
343.15	0.18	0.004343	0.000263
343.15	0.221	0.006433	0.000391
343.15	0.27	0.01003	0.00061
343.15	0.321	0.01535	0.00094
348.15	0	0.000378	2.3e-05
348.15	0.02	0.000548	3.3e-05
348.15	0.046	0.000778	4.7e-05
348.15	0.065	0.000967	5.8e-05
348.15	0.085	0.001247	7.5e-05
348.15	0.11	0.00167	0.000101
348.15	0.14	0.002352	0.000142
348.15	0.18	0.003798	0.00023
348.15	0.221	0.005613	0.000341
348.15	0.27	0.008668	0.000528
348.15	0.321	0.01311	0.0008

System: N-ethyl-N-methylpiperidinium bromide + water; phases: Liquid, Crystal
Fixed: Pressure, kPa = 100
Property: Solid-liquid equilibrium temperature, K (Liquid); method: VISOBS
Mole fraction of N-ethyl-N-methylpiperidinium bromide	Solid-liquid equilibrium temperature, K	uncertainty
0.521	352	1.1
0.501	348.3	1.1
0.484	344.1	1.1
0.462	338.3	1.2
0.435	330	1.2
0.409	321.6	1.2
0.387	313.3	1.3
0.362	303.8	1.3
0.346	296.8	1.3
0.329	290.2	1.3

System: N-ethyl-N-methylpiperidinium bromide + water; phases: Liquid, Crystal
Fixed: Pressure, kPa = 100
Property: Solid-liquid equilibrium temperature, K (Liquid); method: VISOBS
Mole fraction of N-ethyl-N-methylpiperidinium bromide	Solid-liquid equilibrium temperature, K	uncertainty
0.14	240.1	1.2
0.129	243.9	1.2
0.12	247.2	1.2
0.11	250.7	1.2
0.1	253.9	1.2
0.09	256.9	1.2
0.08	259.7	1.1
0.07	261.9	1.1
0.06	263.9	1.1
0.05	265.7	1.1
0.04	267.3	1.1
0.03	268.8	1.1
0.019	270.3	1.1
0.01	271.7	1.1
0	273.2	1

System: N-butyl-N-methylpiperidinium bromide + water; phases: Liquid
Fixed: Pressure, kPa = 100
Property: Mass density, kg/m3 (Liquid); method: Vibrating tube method
Temperature, K	Mole fraction of N-butyl-N-methylpiperidinium bromide	Mass density, kg/m3	uncertainty
298.15	0	997.1	1
298.15	0.03	1057.7	1
298.15	0.06	1097.6	1
298.15	0.089	1126.3	1
298.15	0.124	1150.5	1.1
298.15	0.159	1167.6	1.1
298.15	0.195	1180.6	1.1
298.15	0.244	1193.3	1.2
303.15	0	995.7	1
303.15	0.03	1054.4	1
303.15	0.06	1094.6	1
303.15	0.089	1122.9	1
303.15	0.124	1146.9	1.1
303.15	0.159	1164	1.1
303.15	0.195	1176.9	1.1
303.15	0.244	1189.7	1.2
303.15	0.271	1195.4	1.2
308.15	0	994	1
308.15	0.03	1051.9	1
308.15	0.06	1091.5	1
308.15	0.089	1119.4	1
308.15	0.124	1143.2	1.1
308.15	0.159	1160.3	1.1
308.15	0.195	1173.3	1.1
308.15	0.244	1186.2	1.2
308.15	0.271	1191.8	1.2
313.15	0	992.2	1
313.15	0.03	1049.3	1
313.15	0.06	1088.3	1
313.15	0.089	1116	1
313.15	0.124	1139.6	1.1
313.15	0.159	1156.7	1.1
313.15	0.195	1169.7	1.1
313.15	0.244	1182.6	1.2
313.15	0.271	1188.3	1.2
318.15	0	990.1	1
318.15	0.03	1045.6	1
318.15	0.06	1085.1	1
318.15	0.089	1112.4	1
318.15	0.124	1135.9	1.1
318.15	0.159	1153	1.1
318.15	0.195	1166	1.1
318.15	0.244	1179	1.2
318.15	0.271	1184.7	1.2
323.15	0	987.9	1
323.15	0.03	1042.7	1
323.15	0.06	1081.8	1
323.15	0.089	1108.8	1
323.15	0.124	1132.2	1.1
323.15	0.159	1149.3	1.1
323.15	0.195	1162.4	1.1
323.15	0.244	1175.4	1.2
323.15	0.271	1181.2	1.2
328.15	0	985.6	1
328.15	0.03	1040	1
328.15	0.06	1078.4	1
328.15	0.089	1105.2	1
328.15	0.124	1128.5	1.1
328.15	0.159	1145.5	1.1
328.15	0.195	1158.7	1.1
328.15	0.244	1171.8	1.2
328.15	0.271	1177.6	1.2
333.15	0	983.2	1
333.15	0.03	1035.9	1
333.15	0.06	1075	1
333.15	0.089	1101.6	1
333.15	0.124	1124.8	1
333.15	0.159	1141.8	1.1
333.15	0.195	1155	1.1
333.15	0.244	1168.2	1.2
333.15	0.271	1174	1.2
338.15	0	980.3	1
338.15	0.03	1031.9	1
338.15	0.06	1071.4	1
338.15	0.089	1097.9	1
338.15	0.124	1121	1
338.15	0.159	1138	1.1
338.15	0.195	1151.3	1.1
338.15	0.244	1164.5	1.2
338.15	0.271	1170.4	1.2
343.15	0	978.1	1
343.15	0.03	1027.2	1
343.15	0.06	1067.6	1
343.15	0.089	1094.1	1
343.15	0.124	1117.2	1
343.15	0.159	1134.3	1.1
343.15	0.195	1147.6	1.1
343.15	0.244	1160.9	1.2
343.15	0.271	1166.8	1.2
348.15	0	974.8	1
348.15	0.03	1023.3	1
348.15	0.06	1064.1	1
348.15	0.089	1090.4	1
348.15	0.124	1113.4	1
348.15	0.159	1130.5	1.1
348.15	0.195	1143.8	1.1
348.15	0.244	1157.2	1.2
348.15	0.271	1163.2	1.2

System: N-butyl-N-methylpiperidinium bromide + water; phases: Liquid
Fixed: Pressure, kPa = 100
Property: Viscosity, Pa*s (Liquid); method: Falling or rolling sphere viscometry
Temperature, K	Mole fraction of N-butyl-N-methylpiperidinium bromide	Viscosity, Pa*s	uncertainty
298.15	0	0.00089	5.4e-05
298.15	0.03	0.001991	0.00012
298.15	0.06	0.003692	0.000223
298.15	0.089	0.006598	0.000399
298.15	0.124	0.01267	0.00077
298.15	0.159	0.02136	0.00129
298.15	0.195	0.03521	0.00214
298.15	0.244	0.06927	0.00424
303.15	0	0.000797	4.8e-05
303.15	0.03	0.001735	0.000105
303.15	0.06	0.003121	0.000189
303.15	0.089	0.005435	0.000329
303.15	0.124	0.01039	0.00063
303.15	0.159	0.01698	0.00103
303.15	0.195	0.02719	0.00165
303.15	0.244	0.05106	0.00309
303.15	0.271	0.07265	0.00447
308.15	0	0.000719	4.3e-05
308.15	0.03	0.001529	9.2e-05
308.15	0.06	0.002676	0.000162
308.15	0.089	0.004553	0.000275
308.15	0.124	0.008531	0.000517
308.15	0.159	0.01362	0.00083
308.15	0.195	0.02132	0.00129
308.15	0.244	0.03865	0.00235
308.15	0.271	0.05378	0.00326
313.15	0	0.000653	3.9e-05
313.15	0.03	0.001359	8.2e-05
313.15	0.06	0.002321	0.00014
313.15	0.089	0.00388	0.000235
313.15	0.124	0.007053	0.000427
313.15	0.159	0.01102	0.00067
313.15	0.195	0.01699	0.00103
313.15	0.244	0.02962	0.0018
313.15	0.271	0.04063	0.00247
318.15	0	0.000596	3.6e-05
318.15	0.03	0.001215	7.3e-05
318.15	0.06	0.002033	0.000123
318.15	0.089	0.003326	0.000201
318.15	0.124	0.005797	0.000351
318.15	0.159	0.00905	0.000549
318.15	0.195	0.01374	0.00083
318.15	0.244	0.02316	0.00141
318.15	0.271	0.03155	0.00192
323.15	0	0.000547	3.3e-05
323.15	0.03	0.001097	6.6e-05
323.15	0.06	0.001798	0.000109
323.15	0.089	0.00289	0.000175
323.15	0.124	0.004929	0.000298
323.15	0.159	0.00756	0.000458
323.15	0.195	0.01133	0.00069
323.15	0.244	0.01871	0.00114
323.15	0.271	0.02485	0.00151
328.15	0	0.000504	3e-05
328.15	0.03	0.000997	6e-05
328.15	0.06	0.001603	9.7e-05
328.15	0.089	0.00254	0.000154
328.15	0.124	0.004221	0.000256
328.15	0.159	0.006369	0.000386
328.15	0.195	0.009485	0.000576
328.15	0.244	0.01531	0.00093
328.15	0.271	0.02006	0.00122
333.15	0	0.000466	2.8e-05
333.15	0.03	0.000906	5.5e-05
333.15	0.06	0.001441	8.7e-05
333.15	0.089	0.002248	0.000136
333.15	0.124	0.003656	0.000221
333.15	0.159	0.005446	0.00033
333.15	0.195	0.008051	0.000489
333.15	0.244	0.01277	0.00078
333.15	0.271	0.01649	0.001
338.15	0	0.000433	2.6e-05
338.15	0.03	0.000828	5e-05
338.15	0.06	0.001302	7.9e-05
338.15	0.089	0.002006	0.000121
338.15	0.124	0.003199	0.000194
338.15	0.159	0.004666	0.000283
338.15	0.195	0.00686	0.000416
338.15	0.244	0.01074	0.00065
338.15	0.271	0.01375	0.00084
343.15	0	0.000404	2.4e-05
343.15	0.03	0.000761	4.6e-05
343.15	0.06	0.001185	7.2e-05
343.15	0.089	0.001806	0.000109
343.15	0.124	0.002715	0.000164
343.15	0.159	0.004069	0.000247
343.15	0.195	0.005932	0.00036
343.15	0.244	0.009231	0.000561
343.15	0.271	0.01168	0.00071
348.15	0	0.000378	2.3e-05
348.15	0.03	0.0007	4.2e-05
348.15	0.06	0.001083	6.5e-05
348.15	0.089	0.001629	9.9e-05
348.15	0.124	0.002428	0.000147
348.15	0.159	0.003568	0.000216
348.15	0.195	0.005143	0.000312
348.15	0.244	0.007953	0.000484
348.15	0.271	0.009976	0.000607

System: N-butyl-N-methylpiperidinium bromide + water; phases: Liquid, Crystal 1
Fixed: Pressure, kPa = 100
Property: Solid-liquid equilibrium temperature, K (Liquid); method: VISOBS
Mole fraction of N-butyl-N-methylpiperidinium bromide	Solid-liquid equilibrium temperature, K	uncertainty
0.393	365.8	1.4
0.368	353.5	1.5
0.354	343.9	1.7

System: N-butyl-N-methylpiperidinium bromide + water; phases: Liquid, Crystal
Fixed: Pressure, kPa = 100
Property: Solid-liquid equilibrium temperature, K (Liquid); method: VISOBS
Mole fraction of N-butyl-N-methylpiperidinium bromide	Solid-liquid equilibrium temperature, K	uncertainty
0.125	245.8	1.2
0.112	250.1	1.2
0.1	254.1	1.2
0.087	257.1	1.1
0.076	260.3	1.1
0.062	263.2	1.1
0.05	266.5	1.1
0.025	270.5	1
0	273.2	1

System: N-butyl-N-methylpiperidinium bromide + water; phases: Liquid, Crystal 2
Fixed: Pressure, kPa = 100
Property: Solid-liquid equilibrium temperature, K (Liquid); method: VISOBS
Mole fraction of N-butyl-N-methylpiperidinium bromide	Solid-liquid equilibrium temperature, K	uncertainty
0.338	335.3	1.6
0.324	326.6	1.6
0.312	320	1.5
0.296	311.3	1.5
0.284	304.5	1.5
0.273	298.5	1.5
0.264	293.4	1.4
0.252	288.3	1.4
0.244	283.8	1.6
0.236	278.7	1.6

System: 1-butylpyridinium bromide + water; phases: Liquid
Fixed: Pressure, kPa = 100
Property: Mass density, kg/m3 (Liquid); method: Vibrating tube method
Temperature, K	Mole fraction of 1-butylpyridinium bromide	Mass density, kg/m3	uncertainty
298.15	0	997.1	1
298.15	0.03	1068.5	1
298.15	0.06	1118.5	1
298.15	0.09	1154.8	1
298.15	0.13	1189.9	1.1
298.15	0.17	1214.8	1.1
298.15	0.211	1233.8	1.2
298.15	0.25	1247.8	1.2
298.15	0.291	1259.5	1.3
298.15	0.332	1268.9	1.5
298.15	0.377	1277.4	1.7
303.15	0	995.7	1
303.15	0.03	1066.2	1
303.15	0.06	1115.6	1
303.15	0.09	1151.6	1
303.15	0.13	1186.5	1.1
303.15	0.17	1211.3	1.1
303.15	0.211	1230.3	1.2
303.15	0.25	1244.4	1.2
303.15	0.291	1256.1	1.3
303.15	0.332	1265.6	1.5
303.15	0.377	1274	1.7
308.15	0	994	1
308.15	0.03	1063.8	1
308.15	0.06	1112.6	1
308.15	0.09	1148.3	1
308.15	0.13	1183	1.1
308.15	0.17	1207.8	1.1
308.15	0.211	1226.8	1.2
308.15	0.25	1240.9	1.2
308.15	0.291	1252.7	1.3
308.15	0.332	1262.2	1.5
308.15	0.377	1270.7	1.7
313.15	0	992.2	1
313.15	0.03	1061.2	1
313.15	0.06	1109.6	1
313.15	0.09	1145	1
313.15	0.13	1179.5	1.1
313.15	0.17	1204.2	1.1
313.15	0.211	1223.3	1.1
313.15	0.25	1237.5	1.2
313.15	0.291	1249.3	1.3
313.15	0.332	1258.8	1.5
313.15	0.377	1267.3	1.7
318.15	0	990.1	1
318.15	0.03	1058.6	1
318.15	0.06	1106.4	1
318.15	0.09	1141.6	1
318.15	0.13	1176	1.1
318.15	0.17	1200.7	1.1
318.15	0.211	1219.8	1.1
318.15	0.25	1234	1.2
318.15	0.291	1245.9	1.3
318.15	0.332	1255.4	1.5
318.15	0.377	1264	1.7
323.15	0	987.9	1
323.15	0.03	1055.7	1
323.15	0.06	1103.2	1
323.15	0.09	1138.1	1
323.15	0.13	1172.4	1.1
323.15	0.17	1197.1	1.1
323.15	0.211	1216.3	1.1
323.15	0.25	1230.5	1.2
323.15	0.291	1242.4	1.3
323.15	0.332	1252	1.5
323.15	0.377	1260.6	1.7
328.15	0	985.6	1
328.15	0.03	1052.8	1
328.15	0.06	1099.9	1
328.15	0.09	1134.7	1
328.15	0.13	1168.8	1.1
328.15	0.17	1193.5	1.1
328.15	0.211	1212.7	1.1
328.15	0.25	1227	1.2
328.15	0.291	1239	1.3
328.15	0.332	1248.6	1.5
328.15	0.377	1257.3	1.7
333.15	0	983.2	1
333.15	0.03	1049.9	1
333.15	0.06	1096.5	1
333.15	0.09	1131.1	1
333.15	0.13	1165.2	1.1
333.15	0.17	1189.9	1.1
333.15	0.211	1209.1	1.1
333.15	0.25	1223.4	1.2
333.15	0.291	1235.5	1.3
333.15	0.332	1245.4	1.5
333.15	0.377	1253.9	1.7
338.15	0	980.3	1
338.15	0.03	1046.6	1
338.15	0.06	1092.8	1
338.15	0.09	1127.5	1
338.15	0.13	1161.5	1.1
338.15	0.17	1186.2	1.1
338.15	0.211	1205.5	1.1
338.15	0.25	1219.9	1.2
338.15	0.291	1232	1.3
338.15	0.332	1241.8	1.5
338.15	0.377	1250.6	1.6
343.15	0	978.1	1
343.15	0.03	1043.2	1
343.15	0.06	1089.5	1
343.15	0.09	1123.9	1
343.15	0.13	1157.8	1.1
343.15	0.17	1182.6	1.1
343.15	0.211	1201.9	1.1
343.15	0.25	1216.3	1.2
343.15	0.291	1228.5	1.3
343.15	0.332	1238.3	1.4
343.15	0.377	1247.2	1.6
348.15	0	974.8	1
348.15	0.03	1039.8	1
348.15	0.06	1086	1
348.15	0.09	1120.1	1
348.15	0.13	1154.1	1.1
348.15	0.17	1178.9	1.1
348.15	0.211	1198.3	1.1
348.15	0.25	1212.8	1.2
348.15	0.291	1225	1.3
348.15	0.332	1234.9	1.4
348.15	0.377	1243.8	1.6

System: 1-butylpyridinium bromide + water; phases: Liquid
Fixed: Pressure, kPa = 100
Property: Viscosity, Pa*s (Liquid); method: Falling or rolling sphere viscometry
Temperature, K	Mole fraction of 1-butylpyridinium bromide	Viscosity, Pa*s	uncertainty
298.15	0	0.00089	5.4e-05
298.15	0.03	0.001544	9.3e-05
298.15	0.06	0.002378	0.000144
298.15	0.09	0.003424	0.000207
298.15	0.13	0.005218	0.000316
298.15	0.17	0.008606	0.000522
298.15	0.211	0.01222	0.00074
298.15	0.25	0.01644	0.001
298.15	0.291	0.02437	0.00149
298.15	0.332	0.0303	0.00185
298.15	0.377	0.04255	0.00261
303.15	0	0.000797	4.8e-05
303.15	0.03	0.00136	8.2e-05
303.15	0.06	0.002067	0.000125
303.15	0.09	0.002951	0.000179
303.15	0.13	0.00445	0.000269
303.15	0.17	0.007401	0.000449
303.15	0.211	0.01037	0.00063
303.15	0.25	0.01383	0.00084
303.15	0.291	0.01859	0.00113
303.15	0.332	0.02478	0.00151
303.15	0.377	0.03424	0.0021
308.15	0	0.000719	4.3e-05
308.15	0.03	0.001212	7.3e-05
308.15	0.06	0.00182	0.00011
308.15	0.09	0.002575	0.000156
308.15	0.13	0.003851	0.000233
308.15	0.17	0.006345	0.000385
308.15	0.211	0.008845	0.000537
308.15	0.25	0.01168	0.00071
308.15	0.291	0.01555	0.00095
308.15	0.332	0.02041	0.00125
308.15	0.377	0.02778	0.0017
313.15	0	0.000653	3.9e-05
313.15	0.03	0.001089	6.6e-05
313.15	0.06	0.001617	9.8e-05
313.15	0.09	0.002268	0.000137
313.15	0.13	0.003356	0.000203
313.15	0.17	0.005426	0.000329
313.15	0.211	0.007548	0.000458
313.15	0.25	0.01001	0.00061
313.15	0.291	0.01305	0.0008
313.15	0.332	0.01697	0.00104
313.15	0.377	0.02277	0.00139
318.15	0	0.000596	3.6e-05
318.15	0.03	0.000985	6e-05
318.15	0.06	0.001447	8.8e-05
318.15	0.09	0.002014	0.000122
318.15	0.13	0.002954	0.000179
318.15	0.17	0.004671	0.000283
318.15	0.211	0.006488	0.000394
318.15	0.25	0.008493	0.000517
318.15	0.291	0.01108	0.00068
318.15	0.332	0.01429	0.00087
318.15	0.377	0.01895	0.00116
323.15	0	0.000547	3.3e-05
323.15	0.03	0.000897	5.4e-05
323.15	0.06	0.001306	7.9e-05
323.15	0.09	0.001805	0.000109
323.15	0.13	0.002617	0.000158
323.15	0.17	0.004051	0.000246
323.15	0.211	0.005616	0.000341
323.15	0.25	0.007331	0.000446
323.15	0.291	0.009521	0.00058
323.15	0.332	0.01217	0.00074
323.15	0.377	0.01595	0.00098
328.15	0	0.000504	3e-05
328.15	0.03	0.000822	5e-05
328.15	0.06	0.001185	7.2e-05
328.15	0.09	0.001623	9.8e-05
328.15	0.13	0.002359	0.000143
328.15	0.17	0.003564	0.000216
328.15	0.211	0.004914	0.000298
328.15	0.25	0.006394	0.000389
328.15	0.291	0.008281	0.000505
328.15	0.332	0.01052	0.00064
328.15	0.377	0.01365	0.00084
333.15	0	0.000466	2.8e-05
333.15	0.03	0.000758	4.6e-05
333.15	0.06	0.001081	6.5e-05
333.15	0.09	0.001474	8.9e-05
333.15	0.13	0.002113	0.000128
333.15	0.17	0.003178	0.000193
333.15	0.211	0.004327	0.000263
333.15	0.25	0.005626	0.000342
333.15	0.291	0.007256	0.000442
333.15	0.332	0.009187	0.000561
333.15	0.377	0.01184	0.00073
338.15	0	0.000433	2.6e-05
338.15	0.03	0.000704	4.3e-05
338.15	0.06	0.001002	6.1e-05
338.15	0.09	0.001353	8.2e-05
338.15	0.13	0.001912	0.000116
338.15	0.17	0.002852	0.000173
338.15	0.211	0.003835	0.000233
338.15	0.25	0.00496	0.000302
338.15	0.291	0.006395	0.00039
338.15	0.332	0.008064	0.000493
338.15	0.377	0.01031	0.00063
343.15	0	0.000404	2.4e-05
343.15	0.03	0.00066	4e-05
343.15	0.06	0.00092	5.6e-05
343.15	0.09	0.001235	7.5e-05
343.15	0.13	0.001741	0.000105
343.15	0.17	0.002367	0.000144
343.15	0.211	0.003463	0.00021
343.15	0.25	0.004428	0.000269
343.15	0.291	0.005687	0.000347
343.15	0.332	0.007153	0.000437
343.15	0.377	0.009118	0.000558
348.15	0	0.000378	2.3e-05
348.15	0.03	0.000618	3.7e-05
348.15	0.06	0.000862	5.2e-05
348.15	0.09	0.001139	6.9e-05
348.15	0.13	0.001591	9.6e-05
348.15	0.17	0.002149	0.00013
348.15	0.211	0.003138	0.000191
348.15	0.25	0.003971	0.000242
348.15	0.291	0.00506	0.000308
348.15	0.332	0.006384	0.00039
348.15	0.377	0.008095	0.000496

System: 1-butylpyridinium bromide + water; phases: Liquid, Crystal
Fixed: Pressure, kPa = 100
Property: Solid-liquid equilibrium temperature, K (Liquid); method: VISOBS
Mole fraction of 1-butylpyridinium bromide	Solid-liquid equilibrium temperature, K	uncertainty
0.775	360.9	1
0.726	356.2	1
0.684	350.2	1.1
0.644	344.1	1.1
0.611	338.8	1.1
0.585	333.3	1.1
0.56	327.7	1.1
0.537	323	1.1
0.514	317.4	1.1
0.49	310.6	1.2
0.461	302.6	1.2
0.443	296.2	1.2

System: 1-butylpyridinium bromide + water; phases: Liquid, Crystal
Fixed: Pressure, kPa = 100
Property: Solid-liquid equilibrium temperature, K (Liquid); method: VISOBS
Mole fraction of 1-butylpyridinium bromide	Solid-liquid equilibrium temperature, K	uncertainty
0.175	237.8	1.1
0.163	240.9	1.1
0.15	244	1.1
0.137	247.4	1.1
0.124	250.4	1.1
0.113	253.4	1.1
0.1	256.4	1.1
0.087	259.5	1.1
0.075	261.7	1.1
0.062	264	1.1
0.05	266	1.1
0.038	268.1	1.1
0.025	269.9	1.1
0.012	271.8	1
0	273.2	1

System: butyltriethyl ammonium bromide + water; phases: Liquid
Fixed: Pressure, kPa = 100
Property: Mass density, kg/m3 (Liquid); method: Vibrating tube method
Temperature, K	Mole fraction of butyltriethyl ammonium bromide	Mass density, kg/m3	uncertainty
298.15	0	997.1	1
298.15	0.02	1030.2	1
298.15	0.04	1057.3	1
298.15	0.06	1078.8	1
298.15	0.08	1095.3	1
298.15	0.105	1111	1
298.15	0.13	1122.8	1.1
298.15	0.16	1133.5	1.1
298.15	0.189	1140.9	1.1
298.15	0.22	1147.3	1.1
298.15	0.253	1152.5	1.2
303.15	0	995.7	1
303.15	0.02	1028.2	1
303.15	0.04	1054.7	1
303.15	0.06	1075.6	1
303.15	0.08	1091.9	1
303.15	0.105	1107.4	1
303.15	0.13	1119.1	1.1
303.15	0.16	1129.8	1.1
303.15	0.189	1137.3	1.1
303.15	0.22	1143.7	1.1
303.15	0.253	1148.9	1.2
308.15	0	994	1
308.15	0.02	1026	1
308.15	0.04	1051.9	1
308.15	0.06	1072.5	1
308.15	0.08	1088.4	1
308.15	0.105	1103.8	1
308.15	0.13	1115.4	1
308.15	0.16	1126.1	1.1
308.15	0.189	1133.6	1.1
308.15	0.22	1140.1	1.1
308.15	0.253	1145.4	1.2
313.15	0	992.2	1
313.15	0.02	1023.6	1
313.15	0.04	1049.1	1
313.15	0.06	1069.2	1
313.15	0.08	1084.9	1
313.15	0.105	1100.2	1
313.15	0.13	1111.7	1
313.15	0.16	1122.4	1.1
313.15	0.189	1129.9	1.1
313.15	0.22	1136.5	1.1
313.15	0.253	1141.9	1.2
318.15	0	990.1	1
318.15	0.02	1021	1
318.15	0.04	1046.1	1
318.15	0.06	1065.9	1
318.15	0.08	1081.4	1
318.15	0.105	1096.5	1
318.15	0.13	1108	1
318.15	0.16	1118.7	1.1
318.15	0.189	1126.2	1.1
318.15	0.22	1132.8	1.1
318.15	0.253	1138.3	1.2
323.15	0	987.9	1
323.15	0.02	1018.3	1
323.15	0.04	1042.9	1
323.15	0.06	1062	1
323.15	0.08	1077.8	1
323.15	0.105	1092.8	1
323.15	0.13	1104.2	1
323.15	0.16	1115	1.1
323.15	0.189	1122.5	1.1
323.15	0.22	1129.2	1.1
323.15	0.253	1134.7	1.2
328.15	0	985.6	1
328.15	0.02	1015.8	1
328.15	0.04	1039.9	1
328.15	0.06	1059.1	1
328.15	0.08	1074.2	1
328.15	0.105	1089.1	1
328.15	0.13	1100.5	1
328.15	0.16	1111.2	1.1
328.15	0.189	1118.8	1.1
328.15	0.22	1125.6	1.1
328.15	0.253	1131.2	1.2
333.15	0	983.2	1
333.15	0.02	1013.01	1.02
333.15	0.04	1036.64	1.02
333.15	0.06	1055.6	1.03
333.15	0.08	1070.54	1.03
333.15	0.105	1085.3	1.04
333.15	0.13	1096.66	1.05
333.15	0.16	1107.44	1.06
333.15	0.189	1115.11	1.08
333.15	0.22	1121.89	1.11
333.15	0.253	1127.56	1.16
338.15	0	980.3	1
338.15	0.02	1010	1
338.15	0.04	1033.3	1
338.15	0.06	1052	1
338.15	0.08	1066.8	1
338.15	0.105	1081.5	1
338.15	0.13	1092.8	1
338.15	0.16	1103.7	1.1
338.15	0.189	1111.4	1.1
338.15	0.22	1118.2	1.1
338.15	0.253	1124	1.2
343.15	0	978.1	1
343.15	0.02	1006.6	1
343.15	0.04	1029.5	1
343.15	0.06	1048.4	1
343.15	0.08	1063.1	1
343.15	0.105	1077.7	1
343.15	0.13	1089	1
343.15	0.16	1099.8	1.1
343.15	0.189	1107.6	1.1
343.15	0.22	1114.6	1.1
343.15	0.253	1120.3	1.2
348.15	0	974.8	1
348.15	0.02	1003.4	1
348.15	0.04	1026.5	1
348.15	0.06	1044.7	1
348.15	0.08	1059.3	1
348.15	0.105	1073.8	1
348.15	0.13	1085.1	1
348.15	0.16	1096	1.1
348.15	0.189	1103.8	1.1
348.15	0.22	1110.8	1.1
348.15	0.253	1116.7	1.2

System: butyltriethyl ammonium bromide + water; phases: Liquid
Fixed: Pressure, kPa = 100
Property: Viscosity, Pa*s (Liquid); method: Falling or rolling sphere viscometry
Temperature, K	Mole fraction of butyltriethyl ammonium bromide	Viscosity, Pa*s	uncertainty
298.15	0	0.00089	5.4e-05
298.15	0.02	0.001581	9.6e-05
298.15	0.04	0.002599	0.000157
298.15	0.06	0.004044	0.000245
298.15	0.08	0.00587	0.000355
298.15	0.105	0.01002	0.00061
298.15	0.13	0.01411	0.00085
298.15	0.16	0.02136	0.00129
298.15	0.189	0.03066	0.00186
298.15	0.22	0.04363	0.00265
298.15	0.253	0.06373	0.00388
303.15	0	0.000797	4.8e-05
303.15	0.02	0.001381	8.3e-05
303.15	0.04	0.002216	0.000134
303.15	0.06	0.003393	0.000205
303.15	0.08	0.004835	0.000292
303.15	0.105	0.008222	0.000498
303.15	0.13	0.01145	0.00069
303.15	0.16	0.01685	0.00102
303.15	0.189	0.02362	0.00143
303.15	0.22	0.033	0.00201
303.15	0.253	0.04705	0.00286
308.15	0	0.000719	4.3e-05
308.15	0.02	0.001223	7.4e-05
308.15	0.04	0.001921	0.000116
308.15	0.06	0.002885	0.000174
308.15	0.08	0.004054	0.000245
308.15	0.105	0.006767	0.00041
308.15	0.13	0.009328	0.000565
308.15	0.16	0.01349	0.00082
308.15	0.189	0.01855	0.00113
308.15	0.22	0.02539	0.00154
308.15	0.253	0.03552	0.00216
313.15	0	0.000653	3.9e-05
313.15	0.02	0.001091	6.6e-05
313.15	0.04	0.001682	0.000102
313.15	0.06	0.002488	0.00015
313.15	0.08	0.003441	0.000208
313.15	0.105	0.005583	0.000338
313.15	0.13	0.007649	0.000463
313.15	0.16	0.01091	0.00066
313.15	0.189	0.01479	0.0009
313.15	0.22	0.01992	0.00121
313.15	0.253	0.02722	0.00166
318.15	0	0.000596	3.6e-05
318.15	0.02	0.000981	5.9e-05
318.15	0.04	0.001485	9e-05
318.15	0.06	0.002164	0.000131
318.15	0.08	0.002942	0.000178
318.15	0.105	0.004648	0.000281
318.15	0.13	0.006334	0.000384
318.15	0.16	0.008969	0.000544
318.15	0.189	0.01207	0.00073
318.15	0.22	0.01594	0.00097
318.15	0.253	0.02151	0.00131
323.15	0	0.000547	3.3e-05
323.15	0.02	0.000889	5.4e-05
323.15	0.04	0.001324	8e-05
323.15	0.06	0.001906	0.000115
323.15	0.08	0.002567	0.000155
323.15	0.105	0.00392	0.000237
323.15	0.13	0.005293	0.000321
323.15	0.16	0.007453	0.000452
323.15	0.189	0.009912	0.000601
323.15	0.22	0.01297	0.00079
323.15	0.253	0.01719	0.00105
328.15	0	0.000504	3e-05
328.15	0.02	0.000812	4.9e-05
328.15	0.04	0.001189	7.2e-05
328.15	0.06	0.00169	0.000102
328.15	0.08	0.002252	0.000136
328.15	0.105	0.003358	0.000203
328.15	0.13	0.004483	0.000271
328.15	0.16	0.006266	0.00038
328.15	0.189	0.00829	0.000503
328.15	0.22	0.01076	0.00065
328.15	0.253	0.01411	0.00086
333.15	0	0.000466	2.8e-05
333.15	0.02	0.00075	4.5e-05
333.15	0.04	0.001077	6.5e-05
333.15	0.06	0.001514	9.2e-05
333.15	0.08	0.001996	0.000121
333.15	0.105	0.002937	0.000178
333.15	0.13	0.003847	0.000233
333.15	0.16	0.005319	0.000322
333.15	0.189	0.007032	0.000427
333.15	0.22	0.009062	0.00055
333.15	0.253	0.0118	0.00072
338.15	0	0.000433	2.6e-05
338.15	0.02	0.0007	4.2e-05
338.15	0.04	0.000999	6e-05
338.15	0.06	0.001363	8.2e-05
338.15	0.08	0.001781	0.000108
338.15	0.105	0.002425	0.000147
338.15	0.13	0.003339	0.000202
338.15	0.16	0.004555	0.000276
338.15	0.189	0.005982	0.000363
338.15	0.22	0.007687	0.000467
338.15	0.253	0.009932	0.000604
343.15	0	0.000404	2.4e-05
343.15	0.02	0.000655	4e-05
343.15	0.04	0.000922	5.6e-05
343.15	0.06	0.001233	7.5e-05
343.15	0.08	0.001601	9.7e-05
343.15	0.105	0.002156	0.00013
343.15	0.13	0.002959	0.000179
343.15	0.16	0.003974	0.000241
343.15	0.189	0.005163	0.000313
343.15	0.22	0.006602	0.000401
343.15	0.253	0.008504	0.000517
348.15	0	0.000378	2.3e-05
348.15	0.02	0.000608	3.7e-05
348.15	0.04	0.000876	5.3e-05
348.15	0.06	0.001124	6.8e-05
348.15	0.08	0.001446	8.7e-05
348.15	0.105	0.001931	0.000117
348.15	0.13	0.002658	0.000161
348.15	0.16	0.003489	0.000211
348.15	0.189	0.004485	0.000272
348.15	0.22	0.005702	0.000346
348.15	0.253	0.007325	0.000446

System: butyltriethyl ammonium bromide + water; phases: Liquid, Crystal 2
Fixed: Pressure, kPa = 100
Property: Solid-liquid equilibrium temperature, K (Liquid); method: VISOBS
Mole fraction of butyltriethyl ammonium bromide	Solid-liquid equilibrium temperature, K	uncertainty
0.402	362.2	1.2
0.39	358.4	1.3
0.378	352.6	1.4
0.366	347.3	1.4
0.351	340.2	1.4
0.336	332.9	1.5
0.326	326.8	1.5
0.315	321	1.5
0.303	314.6	1.5
0.295	310.2	1.6
0.279	299.9	1.7
0.269	292.4	2
0.265	287.4	2.7

System: butyltriethyl ammonium bromide + water; phases: Liquid, Crystal
Fixed: Pressure, kPa = 100
Property: Solid-liquid equilibrium temperature, K (Liquid); method: VISOBS
Mole fraction of butyltriethyl ammonium bromide	Solid-liquid equilibrium temperature, K	uncertainty
0.1	242.2	1.5
0.094	245.4	1.4
0.088	248.3	1.4
0.081	251.4	1.3
0.075	254.1	1.3
0.068	256.7	1.3
0.063	258.9	1.3
0.056	261.4	1.2
0.05	263.1	1.2
0.043	265.1	1.2
0.037	266.9	1.1
0.031	268	1.1
0.025	269	1.1
0.019	270.2	1.1
0.012	271.2	1.1
0.006	272.2	1.1
0	273.2	1
