Measured thermophysical data. Standard enthalpies of formation of the AgCs(NO3)2 and Ag3Cs(NO3)4 compounds
Source: Thermochim. Acta, 2012, 10.1016/j.tca.2012.05.014
Compound 1: silver, Ag, InChI=1S/Ag
Compound 2: cesium, Cs, InChI=1S/Cs
Compound 3: nitrogen, N2, InChI=1S/N2/c1-2
Compound 4: oxygen, O2, InChI=1S/O2/c1-2
Compound 5: silver nitrate, AgNO3, InChI=1S/Ag.NO3/c;2-1(3)4/q+1;-1, purity 99.9%
Compound 6: cesium nitrate, CsNO3, InChI=1S/Cs.NO3/c;2-1(3)4/q+1;-1, purity 99.99%
Compound 7: cesium silver nitrate (1:1), AgCsN2O6, InChI=1S/Ag.Cs.2NO3/c;;2*2-1(3)4/q2*+1;2*-1
Compound 8: cesium silver nitrate (1:3), Ag3CsN4O12, InChI=1S/3Ag.Cs.4NO3/c;;;;4*2-1(3)4/q4*+1;4*-1
Compound 9: water, H2O, InChI=1S/H2O/h1H2, purity 99.9%

System: cesium silver nitrate (1:1); phases: Crystal, Liquid, Air at 1 atmosphere
Property: Normal melting temperature, K (Crystal); method: VISOBS
Normal melting temperature, K	uncertainty
450	1

System: cesium silver nitrate (1:3); phases: Crystal, Liquid, Air at 1 atmosphere
Property: Normal melting temperature, K (Crystal); method: VISOBS
Normal melting temperature, K	uncertainty
453	1

System: water + silver nitrate; phases: Liquid
Fixed: Temperature, K = 298
Fixed: Pressure, kPa = 101
Property: Molar enthalpy of solution, kJ/mol (Liquid); method: ISOPERIBOL
Amount concentration (molarity), mol/dm3 of silver nitrate	Molar enthalpy of solution, kJ/mol	uncertainty
0.0026	20.87	1.35
0.0033	21.47	1.35
0.0041	22.02	1.35
0.0054	22.8	1.35

System: water + silver nitrate; phases: Liquid
Fixed: Temperature, K = 298
Fixed: Pressure, kPa = 101
Property: Molar enthalpy of solution, kJ/mol (Liquid); method: Calset Calorimeter
Amount concentration (molarity), mol/dm3 of silver nitrate	Molar enthalpy of solution, kJ/mol	uncertainty
0.0074	21.88	0.36
0.0129	21.9	0.36
0.0219	20.53	0.35
0.0295	21.87	0.36
0.0315	20.51	0.35
0.0317	22.25	0.36
0.0546	22.15	0.36
0.0583	21.63	0.35
0.0704	22.28	0.36
0.0898	22.26	0.36

System: water + cesium nitrate; phases: Liquid
Fixed: Temperature, K = 298
Fixed: Pressure, kPa = 101
Property: Molar enthalpy of solution, kJ/mol (Liquid); method: Calset Calorimeter
Amount concentration (molarity), mol/dm3 of cesium nitrate	Molar enthalpy of solution, kJ/mol	uncertainty
0.0133	39.39	0.41
0.0196	39.52	0.41
0.0229	39.7	0.41
0.0288	39.56	0.41
0.0318	39.65	0.41
0.0349	39.39	0.41
0.0361	39.3	0.41
0.0369	39.75	0.41
0.0384	39.45	0.41
0.0546	39.39	0.41
0.0847	39.38	0.41

System: water + cesium nitrate; phases: Liquid
Fixed: Temperature, K = 298
Fixed: Pressure, kPa = 101
Property: Molar enthalpy of solution, kJ/mol (Liquid); method: Calvet calorimetry
Amount concentration (molarity), mol/dm3 of cesium nitrate	Molar enthalpy of solution, kJ/mol	uncertainty
0.0357	39.25	0.88
0.0358	39.47	0.85
0.036	39.56	0.94
0.0472	39.26	1.23
0.0607	39.48	0.89

System: cesium silver nitrate (1:1) + water; phases: Liquid
Fixed: Temperature, K = 298
Fixed: Pressure, kPa = 101
Property: Molar enthalpy of solution, kJ/mol (Liquid); method: Calset Calorimeter
Amount concentration (molarity), mol/dm3 of cesium silver nitrate (1:1)	Molar enthalpy of solution, kJ/mol	uncertainty
0.0063	68.77	0.97
0.0052	68.41	0.97
0.0086	69.09	0.97
0.0099	69.35	0.97
0.0119	68.71	0.97
0.0184	69.04	0.97
0.0261	68.12	0.97

System: cesium silver nitrate (1:1) + water; phases: Liquid
Fixed: Temperature, K = 298
Fixed: Pressure, kPa = 101
Property: Molar enthalpy of solution, kJ/mol (Liquid); method: Calvet calorimetry
Amount concentration (molarity), mol/dm3 of cesium silver nitrate (1:1)	Molar enthalpy of solution, kJ/mol	uncertainty
0.0317	68.27	1.52
0.0426	68.11	1.54
0.0516	68.26	1.77
0.0526	68.85	1.52

System: cesium silver nitrate (1:3) + water; phases: Liquid
Fixed: Temperature, K = 298
Fixed: Pressure, kPa = 101
Property: Molar enthalpy of solution, kJ/mol (Liquid); method: Calset Calorimeter
Amount concentration (molarity), mol/dm3 of cesium silver nitrate (1:3)	Molar enthalpy of solution, kJ/mol	uncertainty
0.0059	113.65	1.07
0.0065	113.72	1.07
0.007	114.09	1.07
0.0081	113.62	1.07
0.0111	114.14	1.07
0.0114	113.36	1.06
0.0119	114.21	1.07
0.0146	114.18	1.07
0.0159	114.09	1.07
0.0182	113.31	1.06

Reaction: 1 cesium silver nitrate (1:1) + -1 silver + -1 cesium + -1 nitrogen + -3 oxygen
Property: Molar enthalpy of reaction, kJ/mol
-7.34

Reaction: 1 cesium silver nitrate (1:3) + -3 silver + -1 cesium + -2 nitrogen + -6 oxygen
Property: Molar enthalpy of reaction, kJ/mol
-9.33

Reaction: 1 cesium silver nitrate (1:1) + -1 silver nitrate + -1 cesium nitrate
Property: Molar enthalpy of reaction, kJ/mol
-7.34

Reaction: 1 cesium silver nitrate (1:3) + -3 silver nitrate + -1 cesium nitrate
Property: Molar enthalpy of reaction, kJ/mol
-9.34
