Measured thermophysical data. Standard enthalpies of formation of Sr2CuO3 and Ca2CuO3
Source: Thermochim. Acta, 2005, 10.1016/j.tca.2004.12.017
Compound 1: strontium oxide (SrO), OSr, InChI=1S/O.Sr/q-2;+2
Compound 2: copper(II) oxide, CuO, InChI=1S/Cu.O/q+2;-2
Compound 3: calcium monoxide, CaO, InChI=1S/Ca.O/q+2;-2
Compound 4: strontium cuprate, CuO3Sr2, InChI=1S/Cu.3O.2Sr/q+2;3*-2;2*+2, purity 99%
Compound 5: calcium cuprate, Ca2CuO3, InChI=1S/2Ca.Cu.3O/q3*+2;3*-2, purity 99%

Reaction: -2 strontium oxide (SrO) + -1 copper(II) oxide + 1 strontium cuprate
Property: Molar enthalpy of reaction, kJ/mol
-32.7

Reaction: -2 calcium monoxide + -1 copper(II) oxide + 1 calcium cuprate
Property: Molar enthalpy of reaction, kJ/mol
-3.5
