Measured thermophysical data. Thermochemistry of triimidazolium nonaborate
Source: Thermochim. Acta, 2005, 10.1016/j.tca.2005.07.010
Compound 1: water, H2O, InChI=1S/H2O/h1H2
Compound 2: triimidazolium nonaborate, C9H21B9N6O18, InChI=1S/3C3H4N2.3B3H2O6/c3*1-2-5-3-4-1;3*4-1-8-3(7)9-2(5)6/h3*1-3H,(H,4,5);3*5,7H/q;;;3*-1/p+3
Compound 3: 1H-imidazole, C3H4N2, InChI=1S/C3H4N2/c1-2-5-3-4-1/h1-3H,(H,4,5), purity 99%
Compound 4: boric acid, BH3O3, InChI=1S/BH3O3/c2-1(3)4/h2-4H, purity 99%

Reaction: -3 1H-imidazole + -9 boric acid + 1 triimidazolium nonaborate + 9 water
Property: Molar enthalpy of reaction, kJ/mol
15
