Measured thermophysical data. Liquid liquid equilibria for mixtures of (ethylene carbonate + aromatic hydrocarbon + cyclohexane)
Source: Thermochim. Acta, 2006, 10.1016/j.tca.2006.03.012
Compound 1: ethylene carbonate, C3H4O3, InChI=1S/C3H4O3/c4-3-5-1-2-6-3/h1-2H2, purity 99%
Compound 2: cyclohexane, C6H12, InChI=1S/C6H12/c1-2-4-6-5-3-1/h1-6H2, purity 99%
Compound 3: benzene, C6H6, InChI=1S/C6H6/c1-2-4-6-5-3-1/h1-6H, purity 99%

System: benzene + ethylene carbonate + cyclohexane; phases: Liquid mixture 2, Liquid mixture 1
Fixed: Pressure, kPa = 101
Property: Mole fraction of benzene (Liquid mixture 2); method: Chromatography
Property: Mole fraction of ethylene carbonate (Liquid mixture 1); method: Chromatography
Property: Mole fraction of benzene (Liquid mixture 1); method: Chromatography
Temperature, K	Mole fraction of ethylene carbonate	Mole fraction of benzene	uncertainty	Mole fraction of ethylene carbonate	uncertainty	Mole fraction of benzene	uncertainty
313.15	0.706	0.2647	0.0102	0.0935	0.01	0.6281	
313.15	0.7486	0.2272	0.0101	0.0785	0.01	0.6222	
313.15	0.7953	0.1763	0.0101	0.0249	0.01	0.4621	
313.15	0.8444	0.1326	0.01	0.013	0.01	0.3986	
303.15	0.659	0.2958	0.0102	0.0358	0.01	0.5996	
303.15	0.7186	0.2435	0.0101	0.0296	0.01	0.5607	
303.15	0.7367	0.2252	0.0101	0.0168	0.01	0.4709	
303.15	0.7948	0.1752	0.0101	0.0084	0.0084	0.4268	
303.15	0.8439	0.1346	0.01	0.0074	0.0074	0.3994	
