Measured thermophysical data. Temperature and composition dependence of the density and viscosity of binary mixtures of (1-decanol + fragrance material)
Source: Thermochim. Acta, 2009, 10.1016/j.tca.2009.02.013
Compound 1: cyclohexanecarboxylic acid, C7H12O2, InChI=1S/C7H12O2/c8-7(9)6-4-2-1-3-5-6/h6H,1-5H2,(H,8,9), purity 98%
Compound 2: cyclohexyl ethanoate, C8H14O2, InChI=1S/C8H14O2/c1-7(9)10-8-5-3-2-4-6-8/h8H,2-6H2,1H3, purity 98%
Compound 3: cyclohexylethyl acetate, C10H18O2, InChI=1S/C10H18O2/c1-9(11)12-8-7-10-5-3-2-4-6-10/h10H,2-8H2,1H3, purity 98%
Compound 4: decan-1-ol, C10H22O, InChI=1S/C10H22O/c1-2-3-4-5-6-7-8-9-10-11/h11H,2-10H2,1H3, purity 99.8%

System: cyclohexanecarboxylic acid; phases: Liquid
Fixed: Pressure, kPa = 101
Property: Viscosity, Pa*s (Liquid); method: Falling or rolling sphere viscometry
Temperature, K	Viscosity, Pa*s	uncertainty
310	0.0132	0.0002
320	0.00926	0.00015
330	0.00676	0.00011
340	0.00507	8e-05

System: cyclohexanecarboxylic acid; phases: Liquid
Fixed: Pressure, kPa = 101
Property: Mass density, kg/m3 (Liquid); method: Vibrating tube method
Temperature, K	Mass density, kg/m3	uncertainty
310	1017.17	0.87
320	1008.77	0.86
330	1000.4	0.84
340	992.03	0.83

System: cyclohexyl ethanoate; phases: Liquid
Fixed: Pressure, kPa = 101
Property: Viscosity, Pa*s (Liquid); method: Falling or rolling sphere viscometry
Temperature, K	Viscosity, Pa*s	uncertainty
300	0.00195	3e-05
310	0.00161	3e-05
320	0.00136	2e-05
330	0.00116	2e-05
340	0.00101	2e-05

System: cyclohexyl ethanoate; phases: Liquid
Fixed: Pressure, kPa = 101
Property: Mass density, kg/m3 (Liquid); method: Vibrating tube method
Temperature, K	Mass density, kg/m3	uncertainty
300	963.57	0.79
310	953.9	0.78
320	944.17	0.77
330	934.41	0.76
340	924.64	0.75

System: cyclohexylethyl acetate; phases: Liquid
Fixed: Pressure, kPa = 101
Property: Viscosity, Pa*s (Liquid); method: Falling or rolling sphere viscometry
Temperature, K	Viscosity, Pa*s	uncertainty
300	0.00254	4e-05
310	0.00207	3e-05
320	0.00172	3e-05
330	0.00146	2e-05
340	0.00126	2e-05

System: cyclohexylethyl acetate; phases: Liquid
Fixed: Pressure, kPa = 101
Property: Mass density, kg/m3 (Liquid); method: Vibrating tube method
Temperature, K	Mass density, kg/m3	uncertainty
300	943.64	0.77
310	935.03	0.76
320	926.43	0.75
330	917.82	0.74
340	909.17	0.73

System: decan-1-ol; phases: Liquid
Fixed: Pressure, kPa = 101
Property: Viscosity, Pa*s (Liquid); method: Falling or rolling sphere viscometry
Temperature, K	Viscosity, Pa*s	uncertainty
300	0.0103	0.00013
310	0.00709	9e-05
320	0.005	6e-05
330	0.00367	5e-05
340	0.00274	3e-05

System: decan-1-ol; phases: Liquid
Fixed: Pressure, kPa = 101
Property: Mass density, kg/m3 (Liquid); method: Vibrating tube method
Temperature, K	Mass density, kg/m3	uncertainty
300	825.13	0.14
310	818.26	0.14
320	811.33	0.14
330	804.31	0.14
340	797.15	0.15

System: cyclohexanecarboxylic acid + decan-1-ol; phases: Liquid
Fixed: Pressure, kPa = 101
Property: Viscosity, Pa*s (Liquid); method: Falling or rolling sphere viscometry
Temperature, K	Mole fraction of decan-1-ol	Viscosity, Pa*s	uncertainty
310	0	0.0132	0.0002
310	0.0377	0.0121	0.0002
310	0.0625	0.0118	0.0002
310	0.1776	0.0106	0.0002
310	0.2753	0.00961	0.00014
310	0.4103	0.00879	0.00012
310	0.4952	0.00845	0.00011
310	0.5659	0.00815	0.00011
310	0.6678	0.00786	0.0001
310	0.7657	0.0077	0.0001
310	0.8462	0.00748	9e-05
310	0.9063	0.00743	9e-05
310	0.9593	0.00741	9e-05
310	1	0.00709	9e-05
320	0	0.00926	0.00015
320	0.0377	0.00854	0.00013
320	0.0625	0.00832	0.00013
320	0.1776	0.00757	0.00011
320	0.2753	0.00694	0.0001
320	0.4103	0.00639	9e-05
320	0.4952	0.00615	8e-05
320	0.5659	0.00594	8e-05
320	0.6678	0.00572	7e-05
320	0.7657	0.0056	7e-05
320	0.8462	0.00548	7e-05
320	0.9063	0.00536	7e-05
320	0.9593	0.0053	7e-05
320	1	0.005	6e-05
330	0	0.00676	0.00011
330	0.0377	0.00629	0.0001
330	0.0625	0.00613	0.0001
330	0.1776	0.00565	8e-05
330	0.2753	0.00519	7e-05
330	0.4103	0.0048	7e-05
330	0.4952	0.00463	6e-05
330	0.5659	0.00447	6e-05
330	0.6678	0.0043	6e-05
330	0.7657	0.0042	5e-05
330	0.8462	0.00412	5e-05
330	0.9063	0.004	5e-05
330	0.9593	0.00399	5e-05
330	1	0.00367	5e-05
340	0	0.00507	8e-05
340	0.0377	0.00481	8e-05
340	0.0625	0.0047	7e-05
340	0.1776	0.00435	6e-05
340	0.2753	0.00404	6e-05
340	0.4103	0.00372	5e-05
340	0.4952	0.00358	5e-05
340	0.5659	0.00345	5e-05
340	0.6678	0.00332	4e-05
340	0.7657	0.00323	4e-05
340	0.8462	0.00317	4e-05
340	0.9063	0.00307	4e-05
340	0.9593	0.00306	4e-05
340	1	0.00274	3e-05

System: cyclohexanecarboxylic acid + decan-1-ol; phases: Liquid
Fixed: Pressure, kPa = 101
Property: Mass density, kg/m3 (Liquid); method: Vibrating tube method
Temperature, K	Mole fraction of decan-1-ol	Mass density, kg/m3	uncertainty
310	0	1017.17	0.87
310	0.0377	1005.93	0.79
310	0.0625	998.87	0.75
310	0.1776	968.18	0.58
310	0.2753	944.78	0.46
310	0.4103	915.49	0.34
310	0.4952	898.67	0.28
310	0.5659	885.48	0.24
310	0.6678	867.76	0.2
310	0.7657	851.98	0.17
310	0.8462	839.8	0.15
310	0.9063	831.11	0.15
310	0.9593	823.73	0.14
310	1	818.26	0.14
320	0	1008.77	0.86
320	0.0377	997.64	0.78
320	0.0625	990.64	0.74
320	0.1776	960.23	0.57
320	0.2753	937.02	0.46
320	0.4103	907.93	0.34
320	0.4952	891.24	0.28
320	0.5659	878.13	0.24
320	0.6678	860.52	0.2
320	0.7657	844.86	0.17
320	0.8462	832.74	0.16
320	0.9063	824.11	0.15
320	0.9593	816.78	0.14
320	1	811.33	0.14
330	0	1000.4	0.84
330	0.0377	989.37	0.77
330	0.0625	982.42	0.73
330	0.1776	952.28	0.56
330	0.2753	929.25	0.45
330	0.4103	900.36	0.34
330	0.4952	883.77	0.28
330	0.5659	870.74	0.24
330	0.6678	853.23	0.2
330	0.7657	837.65	0.17
330	0.8462	825.61	0.16
330	0.9063	817.02	0.15
330	0.9593	809.74	0.15
330	1	804.31	0.14
340	0	992.03	0.83
340	0.0377	981.1	0.76
340	0.0625	974.22	0.72
340	0.1776	944.31	0.56
340	0.2753	921.45	0.45
340	0.4103	892.75	0.34
340	0.4952	876.25	0.28
340	0.5659	863.29	0.24
340	0.6678	845.89	0.2
340	0.7657	830.36	0.17
340	0.8462	818.36	0.16
340	0.9063	809.82	0.15
340	0.9593	802.6	0.15
340	1	797.15	0.15

System: decan-1-ol + cyclohexyl ethanoate; phases: Liquid
Fixed: Pressure, kPa = 101
Property: Viscosity, Pa*s (Liquid); method: Falling or rolling sphere viscometry
Temperature, K	Mole fraction of decan-1-ol	Viscosity, Pa*s	uncertainty
300	0	0.00195	3e-05
300	0.0746	0.00201	3e-05
300	0.1275	0.00211	3e-05
300	0.184	0.00226	3e-05
300	0.2015	0.0023	3e-05
300	0.2425	0.00242	4e-05
300	0.2741	0.00254	4e-05
300	0.4169	0.00315	4e-05
300	0.4886	0.00361	5e-05
300	0.6055	0.00441	6e-05
300	0.6993	0.00527	7e-05
300	0.8435	0.00756	9e-05
300	0.8806	0.00817	0.0001
300	1	0.0103	0.00013
310	0	0.00161	3e-05
310	0.0746	0.00165	3e-05
310	0.1275	0.00172	3e-05
310	0.184	0.00182	3e-05
310	0.2015	0.00186	3e-05
310	0.2425	0.00195	3e-05
310	0.2741	0.00203	3e-05
310	0.4169	0.00247	3e-05
310	0.4886	0.00281	4e-05
310	0.6055	0.00335	4e-05
310	0.6993	0.00395	5e-05
310	0.8435	0.00549	7e-05
310	0.8806	0.00585	7e-05
310	1	0.00709	9e-05
320	0	0.00136	2e-05
320	0.0746	0.00138	2e-05
320	0.1275	0.00143	2e-05
320	0.184	0.00151	2e-05
320	0.2015	0.00155	2e-05
320	0.2425	0.0016	2e-05
320	0.2741	0.00166	2e-05
320	0.4169	0.00198	3e-05
320	0.4886	0.00223	3e-05
320	0.6055	0.00262	3e-05
320	0.6993	0.00304	4e-05
320	0.8435	0.0041	5e-05
320	0.8806	0.00437	5e-05
320	1	0.005	6e-05
330	0	0.00116	2e-05
330	0.0746	0.00117	2e-05
330	0.1275	0.00121	2e-05
330	0.184	0.00127	2e-05
330	0.2015	0.0013	2e-05
330	0.2425	0.00134	2e-05
330	0.2741	0.00139	2e-05
330	0.4169	0.00163	2e-05
330	0.4886	0.00181	3e-05
330	0.6055	0.00209	3e-05
330	0.6993	0.00239	3e-05
330	0.8435	0.00314	4e-05
330	0.8806	0.00334	4e-05
330	1	0.00367	5e-05
340	0	0.00101	2e-05
340	0.0746	0.00102	2e-05
340	0.1275	0.00105	2e-05
340	0.184	0.00109	2e-05
340	0.2015	0.0011	2e-05
340	0.2425	0.00114	2e-05
340	0.2741	0.00118	2e-05
340	0.4169	0.00136	2e-05
340	0.4886	0.00149	2e-05
340	0.6055	0.0017	2e-05
340	0.6993	0.00192	3e-05
340	0.8435	0.00247	3e-05
340	0.8806	0.00261	3e-05
340	1	0.00274	3e-05

System: decan-1-ol + cyclohexyl ethanoate; phases: Liquid
Fixed: Pressure, kPa = 101
Property: Mass density, kg/m3 (Liquid); method: Vibrating tube method
Temperature, K	Mole fraction of decan-1-ol	Mass density, kg/m3	uncertainty
300	0	963.57	0.79
300	0.0746	949.18	0.68
300	0.1275	939.64	0.61
300	0.184	929.88	0.54
300	0.2015	926.89	0.52
300	0.2425	920.06	0.48
300	0.2741	915.03	0.45
300	0.4169	893.64	0.33
300	0.4886	883.66	0.28
300	0.6055	868.47	0.22
300	0.6993	857.06	0.19
300	0.8435	840.97	0.15
300	0.8806	837.03	0.15
300	1	825.13	0.14
310	0	953.9	0.78
310	0.0746	939.8	0.67
310	0.1275	930.43	0.6
310	0.184	920.86	0.54
310	0.2015	917.91	0.52
310	0.2425	911.24	0.47
310	0.2741	906.31	0.44
310	0.4169	885.38	0.32
310	0.4886	875.61	0.28
310	0.6055	860.73	0.22
310	0.6993	849.55	0.19
310	0.8435	833.83	0.16
310	0.8806	829.95	0.15
310	1	818.26	0.14
320	0	944.17	0.77
320	0.0746	930.36	0.66
320	0.1275	921.2	0.6
320	0.184	911.8	0.53
320	0.2015	908.94	0.51
320	0.2425	902.38	0.47
320	0.2741	897.62	0.44
320	0.4169	877.06	0.32
320	0.4886	867.5	0.28
320	0.6055	852.93	0.22
320	0.6993	841.99	0.19
320	0.8435	826.58	0.16
320	0.8806	822.79	0.15
320	1	811.33	0.14
330	0	934.41	0.76
330	0.0746	920.89	0.66
330	0.1275	911.92	0.59
330	0.184	902.71	0.52
330	0.2015	899.91	0.51
330	0.2425	893.48	0.46
330	0.2741	888.82	0.43
330	0.4169	868.7	0.32
330	0.4886	859.33	0.28
330	0.6055	845.1	0.22
330	0.6993	834.37	0.19
330	0.8435	819.26	0.16
330	0.8806	815.55	0.15
330	1	804.31	0.14
340	0	924.64	0.75
340	0.0746	911.39	0.65
340	0.1275	902.57	0.58
340	0.184	893.57	0.52
340	0.2015	890.81	0.5
340	0.2425	884.52	0.46
340	0.2741	879.96	0.43
340	0.4169	860.25	0.32
340	0.4886	851.09	0.28
340	0.6055	837.14	0.22
340	0.6993	826.63	0.19
340	0.8435	811.81	0.16
340	0.8806	808.17	0.16
340	1	797.15	0.15

System: decan-1-ol + cyclohexylethyl acetate; phases: Liquid
Fixed: Pressure, kPa = 101
Property: Viscosity, Pa*s (Liquid); method: Falling or rolling sphere viscometry
Temperature, K	Mole fraction of decan-1-ol	Viscosity, Pa*s	uncertainty
300	0	0.00254	4e-05
300	0.1066	0.00265	4e-05
300	0.1534	0.00274	4e-05
300	0.2863	0.00294	4e-05
300	0.337	0.00314	4e-05
300	0.4105	0.00347	5e-05
300	0.4983	0.00391	5e-05
300	0.5476	0.00425	6e-05
300	0.6306	0.00492	6e-05
300	0.702	0.00557	7e-05
300	0.7382	0.00593	8e-05
300	0.8402	0.00722	9e-05
300	0.9332	0.00892	0.00011
300	1	0.0103	0.00013
310	0	0.00207	3e-05
310	0.1066	0.00214	3e-05
310	0.1534	0.0022	3e-05
310	0.2863	0.00234	3e-05
310	0.337	0.00246	4e-05
310	0.4105	0.00272	4e-05
310	0.4983	0.00302	4e-05
310	0.5476	0.00326	4e-05
310	0.6306	0.00376	5e-05
310	0.702	0.00415	5e-05
310	0.7382	0.0044	6e-05
310	0.8402	0.00525	7e-05
310	0.9332	0.00635	8e-05
310	1	0.00709	9e-05
320	0	0.00172	3e-05
320	0.1066	0.00177	3e-05
320	0.1534	0.00182	3e-05
320	0.2863	0.00191	3e-05
320	0.337	0.00201	3e-05
320	0.4105	0.00215	3e-05
320	0.4983	0.00241	3e-05
320	0.5476	0.00256	3e-05
320	0.6306	0.00293	4e-05
320	0.702	0.00318	4e-05
320	0.7382	0.00337	4e-05
320	0.8402	0.00394	5e-05
320	0.9332	0.00467	6e-05
320	1	0.005	6e-05
330	0	0.00146	2e-05
330	0.1066	0.00149	2e-05
330	0.1534	0.00153	2e-05
330	0.2863	0.00159	2e-05
330	0.337	0.00165	2e-05
330	0.4105	0.00176	2e-05
330	0.4983	0.00194	3e-05
330	0.5476	0.00207	3e-05
330	0.6306	0.00232	3e-05
330	0.702	0.0025	3e-05
330	0.7382	0.00264	3e-05
330	0.8402	0.00302	4e-05
330	0.9332	0.00353	4e-05
330	1	0.00367	5e-05
340	0	0.00126	2e-05
340	0.1066	0.00128	2e-05
340	0.1534	0.00131	2e-05
340	0.2863	0.00134	2e-05
340	0.337	0.00139	2e-05
340	0.4105	0.00144	2e-05
340	0.4983	0.00161	2e-05
340	0.5476	0.0017	2e-05
340	0.6306	0.00188	3e-05
340	0.702	0.00201	3e-05
340	0.7382	0.00212	3e-05
340	0.8402	0.00238	3e-05
340	0.9332	0.00272	3e-05
340	1	0.00274	3e-05

System: decan-1-ol + cyclohexylethyl acetate; phases: Liquid
Fixed: Pressure, kPa = 101
Property: Mass density, kg/m3 (Liquid); method: Vibrating tube method
Temperature, K	Mole fraction of decan-1-ol	Mass density, kg/m3	uncertainty
300	0	943.64	0.77
300	0.1066	929.42	0.63
300	0.1534	923.37	0.57
300	0.2863	906.56	0.43
300	0.337	900.31	0.39
300	0.4105	891.39	0.33
300	0.4983	880.9	0.27
300	0.5476	875.09	0.24
300	0.6306	865.45	0.21
300	0.702	857.32	0.18
300	0.7382	853.32	0.17
300	0.8402	842.12	0.15
300	0.9332	832.17	0.14
300	1	825.13	0.14
310	0	935.03	0.76
310	0.1066	921	0.62
310	0.1534	915.03	0.56
310	0.2863	898.44	0.43
310	0.337	892.31	0.38
310	0.4105	883.51	0.33
310	0.4983	873.2	0.27
310	0.5476	867.47	0.24
310	0.6306	857.95	0.21
310	0.702	849.92	0.19
310	0.7382	846.02	0.18
310	0.8402	835	0.16
310	0.9332	825.2	0.14
310	1	818.26	0.14
320	0	926.43	0.75
320	0.1066	912.57	0.61
320	0.1534	906.67	0.56
320	0.2863	890.31	0.42
320	0.337	884.26	0.38
320	0.4105	875.59	0.33
320	0.4983	865.44	0.27
320	0.5476	859.81	0.24
320	0.6306	850.45	0.21
320	0.702	842.53	0.19
320	0.7382	838.68	0.18
320	0.8402	827.83	0.16
320	0.9332	818.17	0.15
320	1	811.33	0.14
330	0	917.82	0.74
330	0.1066	904.11	0.61
330	0.1534	898.29	0.55
330	0.2863	882.13	0.42
330	0.337	876.16	0.38
330	0.4105	867.62	0.32
330	0.4983	857.61	0.27
330	0.5476	852.05	0.24
330	0.6306	842.85	0.21
330	0.702	835.03	0.19
330	0.7382	831.25	0.18
330	0.8402	820.58	0.16
330	0.9332	811.05	0.15
330	1	804.31	0.14
340	0	909.17	0.73
340	0.1066	895.64	0.6
340	0.1534	889.87	0.55
340	0.2863	873.9	0.42
340	0.337	867.98	0.38
340	0.4105	859.59	0.32
340	0.4983	849.71	0.27
340	0.5476	844.24	0.24
340	0.6306	835.15	0.21
340	0.702	827.46	0.19
340	0.7382	823.73	0.18
340	0.8402	813.21	0.16
340	0.9332	803.8	0.15
340	1	797.15	0.15
