Measured thermophysical data. High-temperature and high-pressure density measurements and other derived thermodynamic properties of 1-butyl-3-methylimidazolium tris (pentafluoroethyl) trifluorophosphate
Source: Thermochim. Acta, 2017, 10.1016/j.tca.2017.10.022
Compound 1: 1-butyl-3-methylimidazolium tris(pentafluoroethyl)trifluorophosphate, C14H15F18N2P, InChI=1S/C8H15N2.C6F18P/c1-3-4-5-10-7-6-9(2)8-10;7-1(8,9)4(16,17)25(22,23,24,5(18,19)2(10,11)12)6(20,21)3(13,14)15/h6-8H,3-5H2,1-2H3;/q+1;-1, purity 99%

System: 1-butyl-3-methylimidazolium tris(pentafluoroethyl)trifluorophosphate; phases: Liquid
Property: Mass density, kg/m3 (Liquid); method: Vibrating tube method
Pressure, kPa	Temperature, K	Mass density, kg/m3	uncertainty
100	273.15	1652.1	1.82
1350	273.14	1653.18	1.83
5060	273.16	1656.36	1.87
9710	273.16	1660.28	1.93
19850	273.15	1668.52	2.08
30350	273.16	1676.69	2.51
39690	273.16	1683.64	2.67
50700	273.13	1691.47	2.87
59640	273.17	1697.58	3.05
70430	273.16	1704.66	3.5
79660	273.16	1710.48	3.69
89400	273.14	1716.41	3.9
99780	273.17	1722.5	4.14
118800	273.18	1733.15	4.79
120050	273.16	1733.84	4.82
129940	273.16	1739.13	5.06
139330	273.18	1744.04	5.3
100	283.15	1642.04	1.8
1680	283.18	1643.14	1.26
5060	283.17	1645.71	1.31
10290	283.16	1649.62	1.4
20200	283.14	1657.86	1.81
30000	283.15	1665.66	1.98
39630	283.15	1673	2.17
50000	283.15	1680.58	2.39
59640	283.16	1687.32	2.8
70000	283.15	1694.28	3.03
79910	283.15	1700.68	3.26
90000	283.15	1706.95	3.5
99450	283.16	1712.64	3.73
109870	283.15	1718.69	4.16
120110	283.14	1724.46	4.41
129870	283.14	1729.82	4.66
139910	283.13	1735.2	4.93
100	293.15	1630.69	1.22
1320	293.15	1631.5	1.24
5090	293.15	1633.91	1.3
10160	293.14	1638.4	1.38
20140	293.15	1646.93	1.79
30000	293.15	1654.99	1.96
39290	293.14	1662.26	2.14
50000	293.14	1670.28	2.37
59780	293.14	1677.28	2.77
70000	293.15	1684.3	2.99
79940	293.16	1690.87	3.22
90000	293.16	1697.26	3.46
99520	293.16	1703.11	3.86
109850	293.16	1709.25	4.11
120290	293.15	1715.26	4.37
129840	293.15	1720.62	4.61
139150	293.14	1725.72	4.86
100	298.15	1623.73	1.22
1200	298.15	1624.75	1.23
5020	298.15	1628.25	1.29
10000	298.15	1632.73	1.37
19970	298.15	1641.38	1.77
29980	298.15	1649.67	1.95
39970	298.15	1657.58	2.14
50000	298.15	1665.17	2.35
59930	298.15	1672.37	2.76
69980	298.15	1679.35	2.98
80000	298.15	1686.04	3.2
89970	298.15	1692.44	3.44
99970	298.15	1698.64	3.85
109940	298.15	1704.62	4.09
120000	298.15	1710.48	4.34
129930	298.15	1716.11	4.59
139960	298.15	1721.66	4.85
100	313.15	1606.76	0.78
1650	313.18	1608.26	0.82
5170	313.18	1611.65	0.9
10650	313.16	1616.79	1.04
19740	313.17	1625.04	1.33
30000	313.16	1633.91	1.55
39390	313.19	1641.67	1.79
50000	313.16	1650.02	2.08
59630	313.16	1657.26	2.36
70000	313.15	1664.72	2.64
79190	313.15	1671.07	2.9
90000	313.15	1678.24	3.21
99180	313.13	1684.12	3.48
109860	313.14	1690.72	3.8
120940	313.14	1697.34	4.14
129860	313.15	1702.53	4.41
139720	313.17	1708.14	4.71
100	333.15	1584.94	1.18
1260	333.13	1585.45	1.19
5140	333.15	1589.45	1.24
9930	333.16	1594.28	1.32
20140	333.14	1604.17	1.71
30000	333.15	1613.23	1.88
39770	333.15	1621.75	2.06
50000	333.15	1630.25	2.26
59990	333.15	1638.13	2.66
70000	333.15	1645.66	2.86
79890	333.16	1652.78	3.08
90000	333.15	1659.74	3.3
99820	333.15	1666.25	3.7
109860	333.15	1672.65	3.93
118340	333.15	1677.9	4.14
129860	333.15	1684.83	4.42
139940	333.16	1690.74	4.67
100	353.15	1561.81	1.15
1270	353.15	1563.13	1.17
5090	353.16	1567.37	1.22
10090	353.15	1572.8	1.29
19980	353.15	1583.07	1.68
30000	353.15	1592.9	1.84
39880	353.15	1602.06	2.01
49990	353.15	1610.93	2.21
59970	353.15	1619.21	2.6
70000	353.15	1627.11	2.8
80100	353.15	1634.68	3.01
90000	353.15	1641.74	3.23
99890	353.15	1648.5	3.63
109840	353.15	1655.03	3.85
119450	353.15	1661.12	4.07
129840	353.15	1667.5	4.32
139400	353.15	1673.23	4.56
100	373.15	1539.47	1.39
1160	373.16	1540.77	1.4
5110	373.15	1545.52	1.45
10040	373.15	1551.31	1.51
20100	373.15	1562.56	1.89
30000	373.15	1572.95	2.03
39510	373.15	1582.35	2.18
49990	373.15	1592.09	2.36
59740	373.14	1600.61	2.75
69990	373.15	1609.06	2.94
79560	373.15	1616.52	3.13
90000	373.15	1624.24	3.34
99610	373.14	1631	3.73
109850	373.15	1637.88	3.95
120080	373.15	1644.48	4.17
129850	373.15	1650.57	4.39
139740	373.15	1656.57	4.62
100	393.15	1517.22	1.37
940	393.16	1518.35	1.38
4870	393.16	1523.5	1.42
10230	393.15	1530.31	1.48
20900	393.15	1543.15	1.87
30000	393.15	1553.36	1.99
39630	393.16	1563.51	2.14
50000	393.15	1573.72	2.31
59450	393.14	1582.43	2.69
69600	393.16	1591.2	2.88
80080	393.15	1599.68	3.07
90000	393.15	1607.24	3.27
99670	393.14	1614.21	3.66
109840	393.14	1621.18	3.87
119870	393.14	1627.74	4.08
129850	393.15	1634.02	4.3
139920	393.15	1640.16	4.53
100	413.15	1495.07	1.62
1230	413.13	1496.71	1.63
5040	413.15	1502.14	1.66
10240	413.15	1509.32	1.71
20070	413.16	1522.13	2.08
30000	413.15	1534.15	2.2
40140	413.15	1545.54	2.34
50000	413.15	1555.82	2.49
59960	413.15	1565.46	2.88
70000	413.15	1574.5	3.05
79930	413.15	1582.84	3.22
90000	413.15	1590.73	3.41
99920	413.15	1598.04	3.8
109860	413.15	1604.94	3.99
119750	413.15	1611.47	4.19
129950	413.15	1617.91	4.4
139770	413.18	1623.89	4.61
