Measured thermophysical data. Evaluation of entropies of fusion of polychlorinated naphthalenes by model congeners: A DSC study
Source: Thermochim. Acta, 2006, 10.1016/j.tca.2006.04.011
Compound 1: naphthalene, 1,2,3-trichloro-, C10H5Cl3, InChI=1S/C10H5Cl3/c11-8-5-6-3-1-2-4-7(6)9(12)10(8)13/h1-5H
Compound 2: naphthalene, 1,2,3,4-tetrachloro-, C10H4Cl4, InChI=1S/C10H4Cl4/c11-7-5-3-1-2-4-6(5)8(12)10(14)9(7)13/h1-4H
Compound 3: naphthalene, 1,2,7,8-tetrachloro-, C10H4Cl4, InChI=1S/C10H4Cl4/c11-6-3-1-5-2-4-7(12)10(14)8(5)9(6)13/h1-4H
Compound 4: 1,3,5,7-tetrachloronaphthalene, C10H4Cl4, InChI=1S/C10H4Cl4/c11-5-1-7-8(10(14)3-5)2-6(12)4-9(7)13/h1-4H
Compound 5: 1,2,3,5,7-pentachloronaphthalene, C10H3Cl5, InChI=1S/C10H3Cl5/c11-4-1-6-5(7(12)2-4)3-8(13)10(15)9(6)14/h1-3H
Compound 6: 1,2,3,5,8-pentachloronaphthalene, C10H3Cl5, InChI=1S/C10H3Cl5/c11-5-1-2-6(12)8-4(5)3-7(13)9(14)10(8)15/h1-3H
Compound 7: naphthalene, 1,2,3,6,7-pentachloro-, C10H3Cl5, InChI=1S/C10H3Cl5/c11-6-1-4-2-8(13)10(15)9(14)5(4)3-7(6)12/h1-3H
Compound 8: naphthalene, 1,2,3,7,8-pentachloro-, C10H3Cl5, InChI=1S/C10H3Cl5/c11-5-2-1-4-3-6(12)9(14)10(15)7(4)8(5)13/h1-3H
Compound 9: 1,2,4,5,6-pentachloronaphthalene, C10H3Cl5, InChI=1S/C10H3Cl5/c11-5-2-1-4-8(10(5)15)6(12)3-7(13)9(4)14/h1-3H
Compound 10: naphthalene, 1,2,4,6,7-pentachloro-, C10H3Cl5, InChI=1S/C10H3Cl5/c11-6-3-9(14)10(15)5-2-8(13)7(12)1-4(5)6/h1-3H
Compound 11: 1,2,4,6,8-pentachloronaphthalene, C10H3Cl5, InChI=1S/C10H3Cl5/c11-4-1-5-6(12)3-8(14)10(15)9(5)7(13)2-4/h1-3H
Compound 12: 1,2,4,5,6,8-hexachloronaphthalene, C10H2Cl6, InChI=1S/C10H2Cl6/c11-3-1-5(13)9(15)8-4(12)2-6(14)10(16)7(3)8/h1-2H
Compound 13: naphthalene, 1,2,3,4,5,6,7-heptachloro-, C10HCl7, InChI=1S/C10HCl7/c11-3-1-2-4(7(14)6(3)13)8(15)10(17)9(16)5(2)12/h1H

System: naphthalene, 1,2,3-trichloro-; phases: Crystal 1, Liquid, Air at 1 atmosphere
Property: Molar enthalpy of transition or fusion, kJ/mol (Crystal 1); method: DSC
Molar enthalpy of transition or fusion, kJ/mol	uncertainty
18.44	0.818

System: naphthalene, 1,2,3-trichloro-; phases: Crystal 1, Liquid, Air at 1 atmosphere
Property: Triple point temperature, K (Crystal 1); method: DTA:corrimp
Triple point temperature, K	uncertainty
354.65	3.2

System: naphthalene, 1,2,3,4-tetrachloro-; phases: Crystal 3, Crystal 2, Air at 1 atmosphere
Property: Molar enthalpy of transition or fusion, kJ/mol (Crystal 3); method: DSC
Molar enthalpy of transition or fusion, kJ/mol	uncertainty
10.53	0.761

System: naphthalene, 1,2,3,4-tetrachloro-; phases: Crystal 2, Crystal 1, Air at 1 atmosphere
Property: Molar enthalpy of transition or fusion, kJ/mol (Crystal 2); method: DSC
Molar enthalpy of transition or fusion, kJ/mol	uncertainty
1.33	0.722

System: naphthalene, 1,2,3,4-tetrachloro-; phases: Crystal 1, Liquid, Air at 1 atmosphere
Property: Molar enthalpy of transition or fusion, kJ/mol (Crystal 1); method: DSC
Molar enthalpy of transition or fusion, kJ/mol	uncertainty
11.54	0.767

System: naphthalene, 1,2,3,4-tetrachloro-; phases: Crystal 3, Crystal 2, Air at 1 atmosphere
Property: Triple point temperature, K (Crystal 3); method: DTA:corrimp
Triple point temperature, K	uncertainty
440.45	3.2

System: naphthalene, 1,2,3,4-tetrachloro-; phases: Crystal 2, Crystal 1, Air at 1 atmosphere
Property: Triple point temperature, K (Crystal 2); method: DTA:corrimp
Triple point temperature, K	uncertainty
454.25	3.2

System: naphthalene, 1,2,3,4-tetrachloro-; phases: Crystal 1, Liquid, Air at 1 atmosphere
Property: Triple point temperature, K (Crystal 1); method: DTA:corrimp
Triple point temperature, K	uncertainty
470.75	3.2

System: naphthalene, 1,2,7,8-tetrachloro-; phases: Crystal 1, Liquid, Air at 1 atmosphere
Property: Molar enthalpy of transition or fusion, kJ/mol (Crystal 1); method: DSC
Molar enthalpy of transition or fusion, kJ/mol	uncertainty
14.62	0.788

System: naphthalene, 1,2,7,8-tetrachloro-; phases: Crystal 1, Liquid, Air at 1 atmosphere
Property: Triple point temperature, K (Crystal 1); method: DTA:corrimp
Triple point temperature, K	uncertainty
401.25	3.2

System: 1,3,5,7-tetrachloronaphthalene; phases: Crystal 1, Liquid, Air at 1 atmosphere
Property: Molar enthalpy of transition or fusion, kJ/mol (Crystal 1); method: DSC
Molar enthalpy of transition or fusion, kJ/mol	uncertainty
27.14	0.903

System: 1,3,5,7-tetrachloronaphthalene; phases: Crystal 1, Liquid, Air at 1 atmosphere
Property: Triple point temperature, K (Crystal 1); method: DTA:corrimp
Triple point temperature, K	uncertainty
452.95	3.2

System: 1,2,3,5,7-pentachloronaphthalene; phases: Crystal 1, Liquid, Air at 1 atmosphere
Property: Molar enthalpy of transition or fusion, kJ/mol (Crystal 1); method: DSC
Molar enthalpy of transition or fusion, kJ/mol	uncertainty
25.74	0.888

System: 1,2,3,5,7-pentachloronaphthalene; phases: Crystal 1, Liquid, Air at 1 atmosphere
Property: Triple point temperature, K (Crystal 1); method: DTA:corrimp
Triple point temperature, K	uncertainty
444.85	3.2

System: 1,2,3,5,8-pentachloronaphthalene; phases: Crystal 3, Crystal 2, Air at 1 atmosphere
Property: Molar enthalpy of transition or fusion, kJ/mol (Crystal 3); method: DSC
Molar enthalpy of transition or fusion, kJ/mol	uncertainty
14.39	0.786

System: 1,2,3,5,8-pentachloronaphthalene; phases: Crystal 2, Crystal 1, Air at 1 atmosphere
Property: Molar enthalpy of transition or fusion, kJ/mol (Crystal 2); method: DSC
Molar enthalpy of transition or fusion, kJ/mol	uncertainty
0.92	0.721

System: 1,2,3,5,8-pentachloronaphthalene; phases: Crystal 1, Liquid, Air at 1 atmosphere
Property: Molar enthalpy of transition or fusion, kJ/mol (Crystal 1); method: DSC
Molar enthalpy of transition or fusion, kJ/mol	uncertainty
8.44	0.749

System: 1,2,3,5,8-pentachloronaphthalene; phases: Crystal 3, Crystal 2, Air at 1 atmosphere
Property: Triple point temperature, K (Crystal 3); method: DTA:corrimp
Triple point temperature, K	uncertainty
387.75	3.2

System: 1,2,3,5,8-pentachloronaphthalene; phases: Crystal 2, Crystal 1, Air at 1 atmosphere
Property: Triple point temperature, K (Crystal 2); method: DTA:corrimp
Triple point temperature, K	uncertainty
443.35	3.2

System: 1,2,3,5,8-pentachloronaphthalene; phases: Crystal 1, Liquid, Air at 1 atmosphere
Property: Triple point temperature, K (Crystal 1); method: DTA:corrimp
Triple point temperature, K	uncertainty
453.25	3.2

System: naphthalene, 1,2,3,6,7-pentachloro-; phases: Crystal 1, Liquid, Air at 1 atmosphere
Property: Molar enthalpy of transition or fusion, kJ/mol (Crystal 1); method: DSC
Molar enthalpy of transition or fusion, kJ/mol	uncertainty
22.94	0.86

System: naphthalene, 1,2,3,6,7-pentachloro-; phases: Crystal 1, Liquid, Air at 1 atmosphere
Property: Triple point temperature, K (Crystal 1); method: DTA:corrimp
Triple point temperature, K	uncertainty
416.55	3.2

System: naphthalene, 1,2,3,7,8-pentachloro-; phases: Crystal 1, Liquid, Air at 1 atmosphere
Property: Molar enthalpy of transition or fusion, kJ/mol (Crystal 1); method: DSC
Molar enthalpy of transition or fusion, kJ/mol	uncertainty
17.55	0.811

System: naphthalene, 1,2,3,7,8-pentachloro-; phases: Crystal 1, Liquid, Air at 1 atmosphere
Property: Triple point temperature, K (Crystal 1); method: DTA:corrimp
Triple point temperature, K	uncertainty
381.55	3.2

System: 1,2,4,5,6-pentachloronaphthalene; phases: Crystal 2, Crystal 1, Air at 1 atmosphere
Property: Molar enthalpy of transition or fusion, kJ/mol (Crystal 2); method: DSC
Molar enthalpy of transition or fusion, kJ/mol	uncertainty
15.64	0.796

System: 1,2,4,5,6-pentachloronaphthalene; phases: Crystal 1, Liquid, Air at 1 atmosphere
Property: Molar enthalpy of transition or fusion, kJ/mol (Crystal 1); method: DSC
Molar enthalpy of transition or fusion, kJ/mol	uncertainty
8.41	0.749

System: 1,2,4,5,6-pentachloronaphthalene; phases: Crystal 2, Crystal 1, Air at 1 atmosphere
Property: Triple point temperature, K (Crystal 2); method: DTA:corrimp
Triple point temperature, K	uncertainty
404.15	3.2

System: 1,2,4,5,6-pentachloronaphthalene; phases: Crystal 1, Liquid, Air at 1 atmosphere
Property: Triple point temperature, K (Crystal 1); method: DTA:corrimp
Triple point temperature, K	uncertainty
412.65	3.2

System: naphthalene, 1,2,4,6,7-pentachloro-; phases: Crystal 1, Liquid, Air at 1 atmosphere
Property: Molar enthalpy of transition or fusion, kJ/mol (Crystal 1); method: DSC
Molar enthalpy of transition or fusion, kJ/mol	uncertainty
22.58	0.856

System: naphthalene, 1,2,4,6,7-pentachloro-; phases: Crystal 1, Liquid, Air at 1 atmosphere
Property: Triple point temperature, K (Crystal 1); method: DTA:corrimp
Triple point temperature, K	uncertainty
404.25	3.2

System: 1,2,4,6,8-pentachloronaphthalene; phases: Crystal 1, Liquid, Air at 1 atmosphere
Property: Molar enthalpy of transition or fusion, kJ/mol (Crystal 1); method: DSC
Molar enthalpy of transition or fusion, kJ/mol	uncertainty
19.75	0.83

System: 1,2,4,6,8-pentachloronaphthalene; phases: Crystal 1, Liquid, Air at 1 atmosphere
Property: Triple point temperature, K (Crystal 1); method: DTA:corrimp
Triple point temperature, K	uncertainty
428.95	3.2

System: 1,2,4,5,6,8-hexachloronaphthalene; phases: Crystal 1, Liquid, Air at 1 atmosphere
Property: Molar enthalpy of transition or fusion, kJ/mol (Crystal 1); method: DSC
Molar enthalpy of transition or fusion, kJ/mol	uncertainty
28.89	0.922

System: 1,2,4,5,6,8-hexachloronaphthalene; phases: Crystal 1, Liquid, Air at 1 atmosphere
Property: Triple point temperature, K (Crystal 1); method: DTA:corrimp
Triple point temperature, K	uncertainty
449.35	3.2

System: naphthalene, 1,2,3,4,5,6,7-heptachloro-; phases: Crystal 2, Crystal 1, Air at 1 atmosphere
Property: Molar enthalpy of transition or fusion, kJ/mol (Crystal 2); method: DSC
Molar enthalpy of transition or fusion, kJ/mol	uncertainty
8.54	0.749

System: naphthalene, 1,2,3,4,5,6,7-heptachloro-; phases: Crystal 1, Liquid, Air at 1 atmosphere
Property: Molar enthalpy of transition or fusion, kJ/mol (Crystal 1); method: DSC
Molar enthalpy of transition or fusion, kJ/mol	uncertainty
8.75	0.751

System: naphthalene, 1,2,3,4,5,6,7-heptachloro-; phases: Crystal 2, Crystal 1, Air at 1 atmosphere
Property: Triple point temperature, K (Crystal 2); method: DTA:corrimp
Triple point temperature, K	uncertainty
454.45	3.2

System: naphthalene, 1,2,3,4,5,6,7-heptachloro-; phases: Crystal 1, Liquid, Air at 1 atmosphere
Property: Triple point temperature, K (Crystal 1); method: DTA:corrimp
Triple point temperature, K	uncertainty
455.95	3.2
