Measured thermophysical data. Excess enthalpies of binary mixtures of some propylamines + some propanols at 298.15K
Source: Thermochim. Acta, 2006, 10.1016/j.tca.2006.08.006
Compound 1: 1,2-propanediamine, C3H10N2, InChI=1S/C3H10N2/c1-3(5)2-4/h3H,2,4-5H2,1H3
Compound 2: 1,3-propanediamine, C3H10N2, InChI=1S/C3H10N2/c4-2-1-3-5/h1-5H2
Compound 3: propan-1-ol, C3H8O, InChI=1S/C3H8O/c1-2-3-4/h4H,2-3H2,1H3
Compound 4: propan-2-ol, C3H8O, InChI=1S/C3H8O/c1-3(2)4/h3-4H,1-2H3
Compound 5: 1,2-propanediol, C3H8O2, InChI=1S/C3H8O2/c1-3(5)2-4/h3-5H,2H2,1H3
Compound 6: propan-1,3-diol, C3H8O2, InChI=1S/C3H8O2/c4-2-1-3-5/h4-5H,1-3H2
Compound 7: propan-1-amine, C3H9N, InChI=1S/C3H9N/c1-2-3-4/h2-4H2,1H3
Compound 8: 2-propanamine, C3H9N, InChI=1S/C3H9N/c1-3(2)4/h3H,4H2,1-2H3

System: 1,2-propanediamine; phases: Liquid
Property: Mass density, kg/m3 (Liquid); method: Vibrating tube method
Temperature, K	Pressure, kPa	Mass density, kg/m3	uncertainty
298.15	101.325	857.09	0.12

System: 1,3-propanediamine; phases: Liquid
Property: Mass density, kg/m3 (Liquid); method: Vibrating tube method
Temperature, K	Pressure, kPa	Mass density, kg/m3	uncertainty
298.15	101.325	879.81	0.11

System: propan-1-ol; phases: Liquid
Property: Mass density, kg/m3 (Liquid); method: Vibrating tube method
Temperature, K	Pressure, kPa	Mass density, kg/m3	uncertainty
298.15	101.325	799.1	0.15

System: propan-2-ol; phases: Liquid
Property: Mass density, kg/m3 (Liquid); method: Vibrating tube method
Temperature, K	Pressure, kPa	Mass density, kg/m3	uncertainty
298.15	101.325	780.35	0.16

System: 1,2-propanediol; phases: Liquid
Property: Mass density, kg/m3 (Liquid); method: Vibrating tube method
Temperature, K	Pressure, kPa	Mass density, kg/m3	uncertainty
298.15	101.325	1033.6	0.1

System: propan-1,3-diol; phases: Liquid
Property: Mass density, kg/m3 (Liquid); method: Vibrating tube method
Temperature, K	Pressure, kPa	Mass density, kg/m3	uncertainty
298.15	101.325	1049.9	0.1

System: propan-1-amine; phases: Liquid
Property: Mass density, kg/m3 (Liquid); method: Vibrating tube method
Temperature, K	Pressure, kPa	Mass density, kg/m3	uncertainty
298.15	101.325	712.76	0.19

System: 2-propanamine; phases: Liquid
Property: Mass density, kg/m3 (Liquid); method: Vibrating tube method
Temperature, K	Pressure, kPa	Mass density, kg/m3	uncertainty
298.15	101.325	683.94	0.21

System: 1,2-propanediol + propan-1-amine; phases: Liquid
Fixed: Temperature, K = 298.15
Fixed: Pressure, kPa = 101
Property: Excess molar enthalpy (molar enthalpy of mixing), kJ/mol (Liquid); method: Calvet calorimetry
Mole fraction of 1,2-propanediol	Excess molar enthalpy (molar enthalpy of mixing), kJ/mol	uncertainty
0.00199	-0.04379	0.00144
0.00397	-0.0833	0.00183
0.00594	-0.12045	0.0022
0.00791	-0.16076	0.00261
0.00986	-0.2006	0.00301
0.01181	-0.2356	0.00336
0.01367	-0.27183	0.00372
0.01559	-0.30952	0.0041
0.0175	-0.34867	0.00449
0.01941	-0.38712	0.00487
0.02131	-0.42379	0.00524
0.0232	-0.46244	0.00562
0.02509	-0.49693	0.00597
0.02697	-0.53401	0.00634
0.02884	-0.5737	0.00674
0.0307	-0.6115	0.00712
0.03256	-0.64962	0.0075
0.03441	-0.68266	0.00783
0.03808	-0.75718	0.00857
0.03991	-0.78811	0.00888
0.04173	-0.82122	0.00921
0.04355	-0.85543	0.00955
0.04535	-0.89471	0.00995
0.04715	-0.92876	0.01029
0.05073	-0.99897	0.01099
0.05429	-1.0689	0.0117
0.05782	-1.1367	0.0124
0.06479	-1.2738	0.0137
0.06824	-1.3383	0.0144
0.07507	-1.4759	0.0158
0.07844	-1.5375	0.0164
0.08179	-1.6004	0.017
0.08512	-1.663	0.0176
0.08842	-1.7213	0.0182
0.0917	-1.7832	0.0188
0.09495	-1.8421	0.0194
0.09818	-1.9076	0.0201
0.09902	-1.9251	0.0203
0.10139	-1.9642	0.0206
0.10458	-2.0199	0.0212
0.11088	-2.1371	0.0224
0.12276	-2.3524	0.0245
0.13948	-2.6387	0.0274
0.1645	-3.0375	0.0314
0.17444	-3.1907	0.0329
0.18565	-3.3514	0.0345
0.19395	-3.4702	0.0357
0.20791	-3.6505	0.0375
0.21839	-3.7853	0.0389
0.22998	-3.9207	0.0402
0.24287	-4.0621	0.0416
0.25729	-4.2095	0.0431
0.27353	-4.363	0.0446
0.28371	-4.4517	0.0455
0.28913	-4.4969	0.046
0.29475	-4.5411	0.0464
0.3006	-4.5853	0.0469
0.30669	-4.6289	0.0473
0.31303	-4.6713	0.0477
0.31963	-4.7131	0.0481
0.32652	-4.7586	0.0486
0.33743	-4.8184	0.0492
0.34512	-4.8543	0.0495
0.35317	-4.8928	0.0499
0.3616	-4.9302	0.0503
0.37044	-4.9655	0.0507
0.37973	-4.9976	0.051
0.38949	-5.023	0.0512
0.39977	-5.0453	0.0515
0.40512	-5.0535	0.0515
0.41625	-5.0663	0.0517
0.42801	-5.0764	0.0518
0.43415	-5.0806	0.0518
0.43728	-5.0814	0.0518
0.44046	-5.0818	0.0518
0.44369	-5.0815	0.0518
0.44924	-5.0745	0.0517
0.45314	-5.074	0.0517
0.45711	-5.0714	0.0517
0.46115	-5.0691	0.0517
0.46527	-5.0638	0.0516
0.46945	-5.0579	0.0516
0.47372	-5.0481	0.0515
0.47806	-5.0406	0.0514
0.48248	-5.0322	0.0513
0.48698	-5.0238	0.0512
0.49624	-5.0007	0.051
0.50587	-4.9744	0.0507
0.51587	-4.941	0.0504
0.52102	-4.9206	0.0502
0.53712	-4.8604	0.0496
0.54841	-4.806	0.0491
0.56019	-4.7456	0.0485
0.56488	-4.7231	0.0482
0.57193	-4.6805	0.0478
0.57552	-4.6627	0.0476
0.58283	-4.6204	0.0472
0.59034	-4.5714	0.0467
0.60196	-4.4982	0.046
0.6182	-4.3876	0.0449
0.63976	-4.2284	0.0433
0.67261	-3.9605	0.0406
0.69166	-3.7987	0.039
0.70287	-3.6906	0.0379
0.70669	-3.6526	0.0375
0.71055	-3.615	0.0372
0.71839	-3.5383	0.0364
0.72238	-3.5042	0.036
0.73879	-3.341	0.0344
0.74301	-3.2974	0.034
0.74728	-3.2511	0.0335
0.7516	-3.2026	0.033
0.75596	-3.1617	0.0326
0.76038	-3.1108	0.0321
0.76485	-3.0615	0.0316
0.76711	-3.0357	0.0314
0.76938	-3.0103	0.0311
0.77166	-2.9845	0.0308
0.77626	-2.9304	0.0303
0.7808	-2.8809	0.0298
0.78327	-2.8614	0.0296
0.78564	-2.8308	0.0293
0.78802	-2.8032	0.029
0.79041	-2.7801	0.0288
0.79684	-2.6946	0.0279
0.80013	-2.6668	0.0277
0.80392	-2.6118	0.0271
0.80631	-2.5837	0.0268
0.80871	-2.5554	0.0266
0.81112	-2.527	0.0263
0.81355	-2.4983	0.026
0.816	-2.47	0.0257
0.81846	-2.4415	0.0254
0.82093	-2.4119	0.0251
0.82291	-2.3923	0.0249
0.82552	-2.3602	0.0246
0.82815	-2.3273	0.0243
0.82815	-2.3273	0.0243
0.83079	-2.2952	0.024
0.83353	-2.2623	0.0236
0.83868	-2.1972	0.023
0.84128	-2.1635	0.0226
0.84389	-2.1312	0.0223
0.84652	-2.0964	0.022
0.84917	-2.0644	0.0216
0.85183	-2.0317	0.0213
0.85451	-1.9973	0.021
0.85714	-1.9624	0.0206
0.85946	-1.9332	0.0203
0.86179	-1.9037	0.02
0.86649	-1.8437	0.0194
0.87123	-1.782	0.0188
0.87603	-1.7207	0.0182
0.87845	-1.6898	0.0179
0.8858	-1.5944	0.0169
0.89076	-1.5294	0.0163
0.89578	-1.4642	0.0156
0.90085	-1.3971	0.015
0.90598	-1.3277	0.0143
0.91118	-1.2592	0.0136
0.91643	-1.1888	0.0129
0.92174	-1.1168	0.0122
0.92711	-1.0432	0.0114
0.93255	-0.96696	0.01067
0.93805	-0.88991	0.0099
0.94362	-0.81375	0.00914
0.94925	-0.73625	0.00836
0.95496	-0.65286	0.00753
0.96073	-0.57324	0.00673
0.96657	-0.48988	0.0059
0.97248	-0.40338	0.00503
0.97846	-0.31569	0.00416
0.98452	-0.22882	0.00329
0.98758	-0.18298	0.00283
0.99065	-0.14078	0.00241
0.99375	-0.09485	0.00195
0.99687	-0.04745	0.00147

System: propan-1-amine + propan-1,3-diol; phases: Liquid
Fixed: Temperature, K = 298.15
Fixed: Pressure, kPa = 101
Property: Excess molar enthalpy (molar enthalpy of mixing), kJ/mol (Liquid); method: Calvet calorimetry
Mole fraction of propan-1,3-diol	Excess molar enthalpy (molar enthalpy of mixing), kJ/mol	uncertainty
0.00443	-0.09655	0.00197
0.00883	-0.19075	0.00291
0.01318	-0.28934	0.00389
0.01766	-0.39594	0.00496
0.02198	-0.48613	0.00586
0.02626	-0.58502	0.00685
0.0305	-0.66565	0.00766
0.03471	-0.75422	0.00854
0.03888	-0.84293	0.00943
0.04301	-0.93053	0.01031
0.04711	-1.0151	0.0112
0.05117	-1.1005	0.012
0.0552	-1.1835	0.0128
0.0592	-1.2644	0.0136
0.06316	-1.3457	0.0145
0.06709	-1.4265	0.0153
0.07098	-1.4954	0.016
0.07485	-1.5734	0.0167
0.07868	-1.6469	0.0175
0.08248	-1.7198	0.0182
0.08624	-1.7882	0.0189
0.08998	-1.8598	0.0196
0.09369	-1.93	0.0203
0.09737	-2	0.021
0.10101	-2.0689	0.0217
0.10463	-2.1359	0.0224
0.10822	-2.2017	0.023
0.11178	-2.2632	0.0236
0.11531	-2.326	0.0243
0.11881	-2.3902	0.0249
0.12229	-2.4495	0.0255
0.12574	-2.5052	0.0261
0.12916	-2.5652	0.0267
0.13593	-2.6805	0.0278
0.14914	-2.8903	0.0299
0.1556	-2.9927	0.0309
0.16196	-3.092	0.0319
0.16823	-3.1874	0.0329
0.1744	-3.2786	0.0338
0.18048	-3.3659	0.0347
0.18648	-3.4502	0.0355
0.19238	-3.5302	0.0363
0.1982	-3.6079	0.0371
0.2096	-3.7612	0.0386
0.21239	-3.7966	0.039
0.21518	-3.8298	0.0393
0.21797	-3.8682	0.0397
0.22076	-3.8991	0.04
0.22634	-3.9647	0.0406
0.2274	-3.9793	0.0408
0.23187	-4.0275	0.0413
0.23417	-4.0549	0.0415
0.24135	-4.136	0.0424
0.24639	-4.1929	0.0429
0.25165	-4.2489	0.0435
0.25713	-4.3053	0.0441
0.26286	-4.3625	0.0446
0.27194	-4.4498	0.0455
0.28508	-4.5772	0.0468
0.29956	-4.6984	0.048
0.30736	-4.76	0.0486
0.31558	-4.8144	0.0491
0.32425	-4.8783	0.0498
0.33342	-4.9352	0.0504
0.34311	-4.9944	0.0509
0.35339	-5.0504	0.0515
0.37001	-5.1213	0.0522
0.3759	-5.1471	0.0525
0.38198	-5.1684	0.0527
0.38827	-5.1884	0.0529
0.39476	-5.2168	0.0532
0.40148	-5.2238	0.0532
0.41562	-5.2502	0.0535
0.42804	-5.2683	0.0537
0.43712	-5.275	0.0538
0.44659	-5.2717	0.0537
0.45648	-5.272	0.0537
0.46159	-5.2721	0.0537
0.46682	-5.2647	0.0536
0.47764	-5.2518	0.0535
0.48324	-5.2426	0.0534
0.49484	-5.2132	0.0531
0.50086	-5.1972	0.053
0.50702	-5.1824	0.0528
0.51981	-5.1359	0.0524
0.52645	-5.1119	0.0521
0.53673	-5.0711	0.0517
0.54025	-5.051	0.0515
0.54381	-5.0368	0.0514
0.54742	-5.0169	0.0512
0.55108	-4.9963	0.051
0.55479	-4.9756	0.0508
0.55855	-4.9573	0.0506
0.56623	-4.9151	0.0502
0.57014	-4.8916	0.0499
0.57411	-4.8725	0.0497
0.57814	-4.8448	0.0494
0.59057	-4.7669	0.0487
0.59915	-4.7051	0.0481
0.60799	-4.64	0.0474
0.61709	-4.5781	0.0468
0.62647	-4.5034	0.046
0.63614	-4.4234	0.0452
0.64109	-4.3837	0.0448
0.64946	-4.3149	0.0441
0.65644	-4.2531	0.0435
0.65998	-4.2211	0.0432
0.66356	-4.1923	0.0429
0.66718	-4.1616	0.0426
0.67084	-4.1286	0.0423
0.67828	-4.0589	0.0416
0.68207	-4.0233	0.0412
0.68589	-3.9858	0.0409
0.68976	-3.9521	0.0405
0.69367	-3.9177	0.0402
0.69763	-3.8821	0.0398
0.70568	-3.8015	0.039
0.71392	-3.7198	0.0382
0.72236	-3.6318	0.0373
0.73099	-3.5378	0.0364
0.74434	-3.3947	0.0349
0.75352	-3.2934	0.0339
0.76771	-3.1338	0.0323
0.77256	-3.0782	0.0318
0.79776	-2.7784	0.0288
0.80831	-2.6522	0.0275
0.81368	-2.5817	0.0268
0.82466	-2.4428	0.0254
0.83026	-2.3722	0.0247
0.83593	-2.3029	0.024
0.84169	-2.2277	0.0233
0.84752	-2.1547	0.0225
0.85344	-2.0783	0.0218
0.85944	-1.9998	0.021
0.86552	-1.9193	0.0202
0.87169	-1.8389	0.0194
0.87795	-1.7519	0.0185
0.8843	-1.6685	0.0177
0.88686	-1.6296	0.0173
0.88944	-1.5934	0.0169
0.89204	-1.5596	0.0166
0.89465	-1.5234	0.0162
0.89727	-1.4873	0.0159
0.89991	-1.4517	0.0155
0.90257	-1.4159	0.0152
0.90524	-1.3773	0.0148
0.90793	-1.3392	0.0144
0.91336	-1.2655	0.0137
0.91609	-1.2257	0.0133
0.91885	-1.1895	0.0129
0.92162	-1.149	0.0125
0.9244	-1.1111	0.0121
0.92721	-1.0725	0.0117
0.93003	-1.0335	0.0113
0.93287	-0.994	0.01094
0.93572	-0.95427	0.01054
0.9386	-0.91457	0.01015
0.94149	-0.87413	0.00974
0.94439	-0.83312	0.00933
0.94732	-0.78875	0.00889
0.95027	-0.74519	0.00845
0.95323	-0.70192	0.00802
0.95621	-0.66054	0.00761
0.95921	-0.61594	0.00716
0.96223	-0.57085	0.00671
0.96657	-0.49888	0.00599
0.96951	-0.45895	0.00559
0.97248	-0.41238	0.00512
0.97546	-0.36976	0.0047
0.97846	-0.32569	0.00426
0.98148	-0.27901	0.00379
0.98452	-0.23482	0.00335
0.98758	-0.18598	0.00286
0.99065	-0.14078	0.00241
0.9935	-0.10197	0.00202
0.99375	-0.09485	0.00195
0.99674	-0.0515	0.00152
0.99687	-0.04745	0.00147

System: 1,2-propanediol + 2-propanamine; phases: Liquid
Fixed: Temperature, K = 298.15
Fixed: Pressure, kPa = 101
Property: Excess molar enthalpy (molar enthalpy of mixing), kJ/mol (Liquid); method: Calvet calorimetry
Mole fraction of 1,2-propanediol	Excess molar enthalpy (molar enthalpy of mixing), kJ/mol	uncertainty
0.00473	-0.11026	0.0021
0.00942	-0.23034	0.0033
0.01406	-0.33434	0.00434
0.01866	-0.43828	0.00538
0.02321	-0.54838	0.00648
0.02773	-0.65494	0.00755
0.0322	-0.75539	0.00855
0.03663	-0.85894	0.00959
0.04102	-0.9618	0.01062
0.04537	-1.0542	0.0115
0.04968	-1.151	0.0125
0.05396	-1.248	0.0135
0.05819	-1.34	0.0144
0.06239	-1.4331	0.0153
0.06655	-1.5275	0.0163
0.07476	-1.6968	0.018
0.07881	-1.7841	0.0188
0.08283	-1.8736	0.0197
0.08681	-1.9598	0.0206
0.09075	-2.0428	0.0214
0.09467	-2.1151	0.0222
0.09855	-2.1937	0.0229
0.10239	-2.2726	0.0237
0.1062	-2.3498	0.0245
0.10999	-2.4258	0.0253
0.11373	-2.494	0.0259
0.12479	-2.7075	0.0281
0.12842	-2.7764	0.0288
0.13202	-2.8418	0.0294
0.13558	-2.9062	0.0301
0.13912	-2.9714	0.0307
0.14956	-3.1529	0.0325
0.15298	-3.2118	0.0331
0.15975	-3.3258	0.0343
0.16309	-3.3845	0.0348
0.16641	-3.4366	0.0354
0.1697	-3.4887	0.0359
0.17296	-3.5422	0.0364
0.1762	-3.5933	0.0369
0.17941	-3.6419	0.0374
0.1826	-3.6902	0.0379
0.18576	-3.7371	0.0384
0.1889	-3.7828	0.0388
0.19202	-3.8296	0.0393
0.19511	-3.8766	0.0398
0.19817	-3.919	0.0402
0.20122	-3.9672	0.0407
0.20589	-4.0314	0.0413
0.20724	-4.0489	0.0415
0.21107	-4.1066	0.0421
0.21317	-4.1336	0.0423
0.21618	-4.1743	0.0427
0.22123	-4.2441	0.0434
0.22622	-4.3107	0.0441
0.23114	-4.3749	0.0447
0.236	-4.4379	0.0454
0.2408	-4.4974	0.046
0.24554	-4.5551	0.0466
0.25022	-4.6111	0.0471
0.25484	-4.6652	0.0477
0.2594	-4.7165	0.0482
0.26391	-4.7664	0.0487
0.26837	-4.8144	0.0491
0.27277	-4.8598	0.0496
0.27712	-4.9042	0.05
0.28142	-4.9459	0.0505
0.28566	-4.9874	0.0509
0.28986	-5.027	0.0513
0.29401	-5.0641	0.0516
0.29811	-5.0991	0.052
0.30216	-5.133	0.0523
0.30616	-5.1659	0.0527
0.31012	-5.1974	0.053
0.31404	-5.2265	0.0533
0.31791	-5.2541	0.0535
0.32174	-5.2803	0.0538
0.32552	-5.3055	0.0541
0.32926	-5.3342	0.0543
0.33296	-5.3571	0.0546
0.33663	-5.3787	0.0548
0.34383	-5.424	0.0552
0.34737	-5.4427	0.0554
0.35087	-5.4654	0.0557
0.35434	-5.4872	0.0559
0.36117	-5.5177	0.0562
0.36452	-5.5367	0.0564
0.36785	-5.5496	0.0565
0.37114	-5.567	0.0567
0.37382	-5.5765	0.0568
0.37761	-5.5946	0.0569
0.38669	-5.6289	0.0573
0.39904	-5.6671	0.0577
0.40503	-5.6855	0.0579
0.41091	-5.7019	0.058
0.41667	-5.7173	0.0582
0.42231	-5.7286	0.0583
0.42785	-5.733	0.0583
0.43328	-5.7361	0.0584
0.43861	-5.7425	0.0584
0.44385	-5.7455	0.0585
0.44898	-5.747	0.0585
0.45402	-5.748	0.0585
0.45897	-5.7419	0.0584
0.46861	-5.7298	0.0583
0.4733	-5.7244	0.0582
0.4779	-5.7176	0.0582
0.48243	-5.7095	0.0581
0.48688	-5.7029	0.058
0.49556	-5.6848	0.0578
0.50629	-5.6562	0.0576
0.51274	-5.6346	0.0573
0.51902	-5.611	0.0571
0.52514	-5.586	0.0569
0.53111	-5.5597	0.0566
0.53693	-5.5376	0.0564
0.54814	-5.4851	0.0559
0.55355	-5.4554	0.0556
0.55883	-5.4253	0.0553
0.56398	-5.3946	0.0549
0.56902	-5.363	0.0546
0.57394	-5.3312	0.0543
0.57875	-5.2991	0.054
0.58345	-5.2668	0.0537
0.58805	-5.2342	0.0533
0.59255	-5.2012	0.053
0.59695	-5.1732	0.0527
0.60125	-5.1401	0.0524
0.60547	-5.107	0.0521
0.6096	-5.0787	0.0518
0.61364	-5.0454	0.0515
0.6176	-5.0114	0.0511
0.62148	-4.977	0.0508
0.62528	-4.9459	0.0505
0.62981	-4.9127	0.0501
0.63266	-4.8848	0.0498
0.63624	-4.8523	0.0495
0.64319	-4.7949	0.0489
0.64709	-4.7568	0.0486
0.66283	-4.6061	0.0471
0.67722	-4.4731	0.0457
0.69044	-4.3354	0.0444
0.70261	-4.2037	0.043
0.71387	-4.078	0.0418
0.7243	-3.9577	0.0406
0.734	-3.8432	0.0394
0.74304	-3.7342	0.0383
0.75149	-3.6302	0.0373
0.75939	-3.5311	0.0363
0.76681	-3.437	0.0354
0.77379	-3.3472	0.0345
0.78036	-3.2617	0.0336
0.78656	-3.1803	0.0328
0.79242	-3.1027	0.032
0.79797	-3.0285	0.0313
0.79798	-3.0338	0.0313
0.80323	-2.9574	0.0306
0.80822	-2.8896	0.0299
0.81501	-2.806	0.0291
0.82939	-2.6084	0.0271
0.8417	-2.4355	0.0254
0.85235	-2.2836	0.0238
0.86166	-2.1488	0.0225
0.86986	-2.0289	0.0213
0.87714	-1.9214	0.0202
0.88361	-1.8314	0.0193
0.88366	-1.8247	0.0192
0.88951	-1.7371	0.0184
0.90053	-1.5772	0.0168
0.91316	-1.3843	0.0148
0.92295	-1.2331	0.0133
0.93075	-1.1116	0.0121
0.93721	-1.0126	0.0111
0.94631	-0.86987	0.0097
0.95311	-0.76221	0.00862
0.95838	-0.67823	0.00778
0.96259	-0.60597	0.00706
0.96732	-0.52843	0.00628
0.97049	-0.48208	0.00582
0.97368	-0.42477	0.00525
0.9769	-0.37482	0.00475
0.98013	-0.32578	0.00426
0.98339	-0.26607	0.00366
0.98667	-0.21733	0.00317
0.98997	-0.15818	0.00258
0.99329	-0.10071	0.00201
0.99663	-0.04727	0.00147

System: 2-propanamine + propan-1,3-diol; phases: Liquid
Fixed: Temperature, K = 298.15
Fixed: Pressure, kPa = 101
Property: Excess molar enthalpy (molar enthalpy of mixing), kJ/mol (Liquid); method: Calvet calorimetry
Mole fraction of propan-1,3-diol	Excess molar enthalpy (molar enthalpy of mixing), kJ/mol	uncertainty
0.00465	-0.1156	0.00216
0.00474	-0.11539	0.00215
0.00926	-0.21946	0.00319
0.00944	-0.22715	0.00327
0.01382	-0.32128	0.00421
0.0141	-0.3266	0.00427
0.01835	-0.42295	0.00523
0.01871	-0.43411	0.00534
0.02283	-0.52364	0.00624
0.0278	-0.63462	0.00735
0.03229	-0.73704	0.00837
0.03673	-0.8314	0.00931
0.04113	-0.93148	0.01031
0.0455	-1.0273	0.0113
0.04982	-1.1234	0.0122
0.0541	-1.2192	0.0132
0.05835	-1.314	0.0141
0.06256	-1.4078	0.0151
0.06673	-1.4975	0.016
0.07086	-1.5915	0.0169
0.07902	-1.7682	0.0187
0.08304	-1.8494	0.0195
0.08703	-1.933	0.0203
0.09099	-2.0218	0.0212
0.09491	-2.1036	0.022
0.0988	-2.1853	0.0229
0.10265	-2.2669	0.0237
0.10648	-2.3428	0.0244
0.11026	-2.4215	0.0252
0.11402	-2.4984	0.026
0.11775	-2.5753	0.0268
0.12144	-2.6493	0.0275
0.12511	-2.7262	0.0283
0.13234	-2.8695	0.0297
0.13592	-2.9397	0.0304
0.14055	-3.0343	0.0313
0.14398	-3.0985	0.032
0.14646	-3.1437	0.0324
0.14739	-3.162	0.0326
0.15078	-3.2302	0.0333
0.15161	-3.2401	0.0334
0.15335	-3.2773	0.0338
0.15547	-3.3164	0.0342
0.15675	-3.3404	0.0344
0.15929	-3.3876	0.0349
0.16308	-3.4562	0.0356
0.16683	-3.5289	0.0363
0.17055	-3.5991	0.037
0.17424	-3.6628	0.0376
0.1779	-3.7296	0.0383
0.18152	-3.7907	0.0389
0.18511	-3.8566	0.0396
0.18867	-3.9144	0.0401
0.1922	-3.9761	0.0408
0.1957	-4.0378	0.0414
0.2026	-4.15	0.0425
0.20601	-4.2067	0.0431
0.20939	-4.2626	0.0436
0.21274	-4.3125	0.0441
0.21607	-4.3664	0.0447
0.21936	-4.4188	0.0452
0.22263	-4.4686	0.0457
0.22587	-4.5179	0.0462
0.22908	-4.5633	0.0466
0.23227	-4.614	0.0471
0.23543	-4.6595	0.0476
0.23856	-4.7056	0.0481
0.24167	-4.7503	0.0485
0.24476	-4.7926	0.0489
0.24781	-4.8363	0.0494
0.25386	-4.9188	0.0502
0.25684	-4.9586	0.0506
0.26274	-5.0352	0.0514
0.26566	-5.0741	0.0517
0.26855	-5.1114	0.0521
0.27142	-5.1461	0.0525
0.27427	-5.1815	0.0528
0.27709	-5.2164	0.0532
0.27989	-5.2477	0.0535
0.28268	-5.279	0.0538
0.28544	-5.3126	0.0541
0.28817	-5.3432	0.0544
0.29089	-5.3725	0.0547
0.29359	-5.4047	0.055
0.29627	-5.432	0.0553
0.29892	-5.4593	0.0556
0.30156	-5.4852	0.0559
0.30418	-5.5147	0.0561
0.30677	-5.5387	0.0564
0.30935	-5.5655	0.0567
0.31191	-5.5899	0.0569
0.31445	-5.6167	0.0572
0.31697	-5.6378	0.0574
0.31947	-5.6638	0.0576
0.32196	-5.6848	0.0578
0.32687	-5.7335	0.0583
0.3293	-5.7527	0.0585
0.33172	-5.7739	0.0587
0.34237	-5.8597	0.0596
0.34584	-5.8904	0.0599
0.35605	-5.961	0.0606
0.35938	-5.9849	0.0608
0.36128	-5.9963	0.061
0.37184	-6.0662	0.0617
0.3762	-6.0917	0.0619
0.38705	-6.1466	0.0625
0.39196	-6.1698	0.0627
0.39679	-6.1908	0.0629
0.40622	-6.2276	0.0633
0.41648	-6.2624	0.0636
0.42203	-6.2798	0.0638
0.42748	-6.2894	0.0639
0.43282	-6.3028	0.064
0.43807	-6.3144	0.0641
0.44827	-6.3261	0.0643
0.45812	-6.3325	0.0643
0.46761	-6.3328	0.0643
0.47678	-6.3259	0.0643
0.48125	-6.3217	0.0642
0.48996	-6.31	0.0641
0.4942	-6.3012	0.064
0.49838	-6.2933	0.0639
0.50653	-6.2742	0.0637
0.5105	-6.2629	0.0636
0.51441	-6.2502	0.0635
0.52205	-6.2218	0.0632
0.52578	-6.2058	0.0631
0.53307	-6.1777	0.0628
0.547	-6.1093	0.0621
0.55365	-6.0737	0.0617
0.56012	-6.0351	0.0614
0.56639	-6.0005	0.061
0.5725	-5.9602	0.0606
0.57843	-5.9184	0.0602
0.5842	-5.8789	0.0598
0.58981	-5.8401	0.0594
0.59528	-5.7981	0.059
0.6006	-5.7565	0.0586
0.60578	-5.7123	0.0581
0.61083	-5.6733	0.0577
0.61575	-5.6281	0.0573
0.62055	-5.5882	0.0569
0.62523	-5.5467	0.0565
0.63426	-5.4587	0.0556
0.63599	-5.4441	0.0554
0.63861	-5.4233	0.0552
0.64637	-5.3437	0.0544
0.65618	-5.2434	0.0534
0.66546	-5.15	0.0525
0.67424	-5.058	0.0516
0.68258	-4.9677	0.0507
0.6905	-4.88	0.0498
0.69804	-4.7889	0.0489
0.70522	-4.707	0.0481
0.71206	-4.6234	0.0472
0.7186	-4.5434	0.0464
0.72484	-4.4625	0.0456
0.73082	-4.3885	0.0449
0.74202	-4.2435	0.0434
0.74727	-4.1734	0.0427
0.7603	-3.9995	0.041
0.77205	-3.8434	0.0394
0.7827	-3.6948	0.0379
0.7924	-3.5571	0.0366
0.80128	-3.4293	0.0353
0.80942	-3.3176	0.0342
0.83183	-2.984	0.0308
0.8563	-2.61	0.0271
0.87456	-2.3245	0.0242
0.8887	-2.0896	0.0219
0.89998	-1.91	0.0201
0.90655	-1.8017	0.019
0.91988	-1.5699	0.0167
0.92988	-1.3902	0.0149
0.93766	-1.252	0.0135
0.94389	-1.1376	0.0124
0.9444	-1.1251	0.0123
0.95196	-0.98584	0.01086
0.95964	-0.83684	0.00937
0.96745	-0.68361	0.00784
0.97539	-0.52378	0.00624
0.98346	-0.3594	0.00459
0.99166	-0.18419	0.00284

System: propan-1-ol + 1,3-propanediamine; phases: Liquid
Fixed: Temperature, K = 298.15
Fixed: Pressure, kPa = 101
Property: Excess molar enthalpy (molar enthalpy of mixing), kJ/mol (Liquid); method: Calvet calorimetry
Mole fraction of propan-1-ol	Excess molar enthalpy (molar enthalpy of mixing), kJ/mol	uncertainty
0.00975	-0.07317	0.00173
0.01932	-0.14477	0.00245
0.0287	-0.21484	0.00315
0.03791	-0.28342	0.00383
0.04694	-0.35056	0.00451
0.05581	-0.41629	0.00516
0.06451	-0.48066	0.00581
0.07305	-0.5437	0.00644
0.08144	-0.60542	0.00705
0.08968	-0.66572	0.00766
0.09777	-0.7249	0.00825
0.10571	-0.78282	0.00883
0.11352	-0.83946	0.00939
0.1212	-0.89532	0.00995
0.12874	-0.94989	0.0105
0.13615	-1.0036	0.011
0.14344	-1.0557	0.0116
0.15061	-1.1071	0.0121
0.15766	-1.1576	0.0126
0.16459	-1.207	0.0131
0.17141	-1.2556	0.0136
0.17812	-1.3029	0.014
0.18472	-1.3496	0.0145
0.19121	-1.3952	0.015
0.19761	-1.4396	0.0154
0.2039	-1.4832	0.0158
0.21009	-1.5261	0.0163
0.21619	-1.568	0.0167
0.2222	-1.6092	0.0171
0.22811	-1.6496	0.0175
0.23394	-1.6894	0.0179
0.23968	-1.7282	0.0183
0.24533	-1.7664	0.0187
0.2509	-1.804	0.019
0.25638	-1.841	0.0194
0.26179	-1.8771	0.0198
0.26317	-1.8866	0.0199
0.26712	-1.9125	0.0201
0.26991	-1.9317	0.0203
0.27238	-1.9472	0.0205
0.27652	-1.9756	0.0208
0.27755	-1.9818	0.0208
0.28266	-2.0156	0.0212
0.28301	-2.0184	0.0212
0.28939	-2.0602	0.0216
0.29565	-2.1009	0.022
0.30181	-2.1405	0.0224
0.30785	-2.1795	0.0228
0.3138	-2.2173	0.0232
0.32539	-2.29	0.0239
0.33103	-2.3251	0.0243
0.33659	-2.359	0.0246
0.34205	-2.3925	0.0249
0.34743	-2.4252	0.0253
0.35271	-2.4569	0.0256
0.35791	-2.4876	0.0259
0.36303	-2.5176	0.0262
0.36807	-2.5473	0.0265
0.37303	-2.576	0.0268
0.37791	-2.6034	0.027
0.38272	-2.6301	0.0273
0.38745	-2.6562	0.0276
0.39211	-2.6816	0.0278
0.3967	-2.7063	0.0281
0.40122	-2.7303	0.0283
0.40568	-2.7559	0.0286
0.41006	-2.7788	0.0288
0.41865	-2.8259	0.0293
0.42699	-2.8677	0.0297
0.43509	-2.9123	0.0301
0.43906	-2.9314	0.0303
0.44682	-2.968	0.0307
0.45296	-2.9965	0.031
0.45438	-3.0026	0.031
0.45975	-3.0281	0.0313
0.46636	-3.0584	0.0316
0.47282	-3.0883	0.0319
0.47912	-3.1174	0.0322
0.48528	-3.1401	0.0324
0.49716	-3.1877	0.0329
0.5029	-3.211	0.0331
0.50851	-3.2312	0.0333
0.51399	-3.2502	0.0335
0.51935	-3.2699	0.0337
0.5246	-3.2883	0.0339
0.52973	-3.3025	0.034
0.53475	-3.3185	0.0342
0.53967	-3.3331	0.0343
0.54448	-3.3451	0.0345
0.54919	-3.3584	0.0346
0.55381	-3.3684	0.0347
0.55833	-3.3803	0.0348
0.56276	-3.3899	0.0349
0.56711	-3.3998	0.035
0.57137	-3.4081	0.0351
0.57554	-3.4159	0.0352
0.57964	-3.4223	0.0352
0.58366	-3.4277	0.0353
0.5876	-3.4328	0.0353
0.59146	-3.4358	0.0354
0.59526	-3.4403	0.0354
0.59899	-3.4415	0.0354
0.60419	-3.4471	0.0355
0.60926	-3.4516	0.0355
0.6142	-3.4548	0.0355
0.61902	-3.4571	0.0356
0.62372	-3.4554	0.0356
0.62831	-3.4538	0.0355
0.63279	-3.4536	0.0355
0.63715	-3.4522	0.0355
0.64142	-3.4503	0.0355
0.64559	-3.4455	0.0355
0.64966	-3.4443	0.0354
0.65364	-3.4342	0.0353
0.66505	-3.4195	0.0352
0.66869	-3.413	0.0351
0.67225	-3.4063	0.0351
0.67574	-3.3995	0.035
0.68249	-3.3839	0.0348
0.68896	-3.3668	0.0347
0.69189	-3.3561	0.0346
0.6921	-3.358	0.0346
0.69518	-3.3487	0.0345
0.6982	-3.3394	0.0344
0.70209	-3.3231	0.0342
0.72059	-3.2534	0.0335
0.72901	-3.2134	0.0331
0.7444	-3.1352	0.0324
0.75147	-3.0925	0.0319
0.75815	-3.0496	0.0315
0.76448	-3.0061	0.0311
0.77619	-2.9283	0.0303
0.7868	-2.8487	0.0295
0.79174	-2.8089	0.0291
0.79645	-2.7715	0.0287
0.80095	-2.7288	0.0283
0.80938	-2.6554	0.0276
0.82077	-2.5461	0.0265
0.82764	-2.4791	0.0258
0.83636	-2.3909	0.0249
0.84658	-2.2784	0.0238
0.85785	-2.1485	0.0225
0.86605	-2.0526	0.0215
0.87436	-1.95	0.0205
0.88742	-1.7763	0.0188
0.89221	-1.7181	0.0182
0.89729	-1.6491	0.0175
0.89803	-1.6384	0.0174
0.89971	-1.6114	0.0171
0.90251	-1.5757	0.0168
0.90274	-1.5719	0.0167
0.90549	-1.5395	0.0164
0.90826	-1.4961	0.016
0.91104	-1.4536	0.0155
0.91384	-1.4115	0.0151
0.91666	-1.3721	0.0147
0.91949	-1.3313	0.0143
0.92235	-1.2892	0.0139
0.92522	-1.2462	0.0135
0.9281	-1.2015	0.013
0.92821	-1.1983	0.013
0.93088	-1.1555	0.0126
0.93357	-1.118	0.0122
0.93628	-1.0787	0.0118
0.939	-1.039	0.0114
0.94173	-0.99333	0.01093
0.94448	-0.95018	0.0105
0.94725	-0.90485	0.01005
0.95004	-0.86261	0.00963
0.95284	-0.81391	0.00914
0.95565	-0.76941	0.00869
0.95849	-0.7186	0.00819
0.96134	-0.67244	0.00772
0.96421	-0.62433	0.00724
0.96709	-0.57501	0.00675
0.96999	-0.52879	0.00629
0.97291	-0.47863	0.00579
0.97585	-0.42806	0.00528
0.9788	-0.37573	0.00476
0.98178	-0.32801	0.00428
0.98477	-0.27399	0.00374
0.98778	-0.21847	0.00318
0.9908	-0.16706	0.00267
0.99385	-0.1122	0.00212
0.99692	-0.0592	0.00159

System: propan-2-ol + 1,3-propanediamine; phases: Liquid
Fixed: Temperature, K = 298.15
Fixed: Pressure, kPa = 101
Property: Excess molar enthalpy (molar enthalpy of mixing), kJ/mol (Liquid); method: Calvet calorimetry
Mole fraction of propan-2-ol	Excess molar enthalpy (molar enthalpy of mixing), kJ/mol	uncertainty
0.01004	-0.05392	0.00154
0.01988	-0.10705	0.00207
0.02953	-0.15888	0.00259
0.03899	-0.20916	0.00309
0.04827	-0.25873	0.00359
0.05737	-0.31284	0.00413
0.06629	-0.3667	0.00467
0.07505	-0.41176	0.00512
0.08365	-0.45963	0.0056
0.09209	-0.5061	0.00606
0.10037	-0.55319	0.00653
0.10851	-0.59953	0.007
0.1165	-0.64556	0.00746
0.12434	-0.6899	0.0079
0.13205	-0.7333	0.00833
0.13963	-0.77595	0.00876
0.14707	-0.81817	0.00918
0.15438	-0.85965	0.0096
0.16158	-0.9002	0.01
0.16865	-0.93909	0.01039
0.1756	-0.97667	0.01077
0.18243	-1.0136	0.0111
0.18916	-1.0495	0.0115
0.19577	-1.0838	0.0118
0.20228	-1.1182	0.0122
0.20868	-1.1519	0.0125
0.21498	-1.1848	0.0128
0.22118	-1.2166	0.0132
0.22729	-1.2486	0.0135
0.2333	-1.2795	0.0138
0.23921	-1.311	0.0141
0.24504	-1.3402	0.0144
0.25077	-1.3693	0.0147
0.25643	-1.3989	0.015
0.26199	-1.4285	0.0153
0.26747	-1.4566	0.0156
0.27288	-1.4856	0.0159
0.2782	-1.5126	0.0161
0.28345	-1.5383	0.0164
0.28976	-1.5688	0.0167
0.29611	-1.5988	0.017
0.30234	-1.6277	0.0173
0.30847	-1.6565	0.0176
0.31449	-1.685	0.0179
0.32041	-1.7127	0.0181
0.32622	-1.7398	0.0184
0.33194	-1.7662	0.0187
0.33756	-1.7915	0.0189
0.34308	-1.8162	0.0192
0.34852	-1.8405	0.0194
0.35387	-1.8643	0.0196
0.35912	-1.8875	0.0199
0.3643	-1.9101	0.0201
0.36939	-1.9313	0.0203
0.3744	-1.9523	0.0205
0.37933	-1.9729	0.0207
0.38419	-1.9934	0.0209
0.38896	-2.0133	0.0211
0.39367	-2.0335	0.0213
0.3983	-2.0525	0.0215
0.40287	-2.0693	0.0217
0.40736	-2.0861	0.0219
0.41179	-2.1024	0.022
0.41615	-2.1192	0.0222
0.42045	-2.1343	0.0223
0.42468	-2.1488	0.0225
0.42885	-2.1631	0.0226
0.43297	-2.1811	0.0228
0.43702	-2.1954	0.023
0.44102	-2.2088	0.0231
0.44496	-2.2227	0.0232
0.44884	-2.2364	0.0234
0.45267	-2.2484	0.0235
0.45645	-2.2596	0.0236
0.46018	-2.2727	0.0237
0.46385	-2.2831	0.0238
0.46748	-2.2956	0.024
0.47564	-2.319	0.0242
0.48496	-2.3436	0.0244
0.49396	-2.3686	0.0247
0.50264	-2.3891	0.0249
0.51104	-2.4101	0.0251
0.51915	-2.4289	0.0253
0.527	-2.4454	0.0255
0.5346	-2.4598	0.0256
0.54195	-2.4732	0.0257
0.54908	-2.4849	0.0258
0.55599	-2.4943	0.0259
0.56269	-2.5026	0.026
0.5692	-2.5097	0.0261
0.57551	-2.5159	0.0262
0.58164	-2.5204	0.0262
0.58759	-2.5238	0.0262
0.59338	-2.5273	0.0263
0.59901	-2.5292	0.0263
0.60448	-2.5306	0.0263
0.6098	-2.5313	0.0263
0.61499	-2.5308	0.0263
0.62004	-2.5298	0.0263
0.62496	-2.5278	0.0263
0.62975	-2.5254	0.0263
0.63442	-2.5224	0.0262
0.63898	-2.5186	0.0262
0.64342	-2.5113	0.0261
0.64775	-2.5047	0.026
0.65198	-2.5015	0.026
0.65611	-2.495	0.026
0.66015	-2.4911	0.0259
0.66409	-2.4838	0.0258
0.66794	-2.4748	0.0257
0.6717	-2.4705	0.0257
0.67538	-2.4617	0.0256
0.67897	-2.4532	0.0255
0.68249	-2.4474	0.0255
0.68593	-2.4389	0.0254
0.6893	-2.4306	0.0253
0.6926	-2.4211	0.0252
0.69582	-2.4124	0.0251
0.69898	-2.4032	0.025
0.70208	-2.3942	0.0249
0.70511	-2.384	0.0248
0.70808	-2.3738	0.0247
0.71099	-2.3671	0.0247
0.71385	-2.3576	0.0246
0.71665	-2.348	0.0245
0.71929	-2.3387	0.0244
0.71939	-2.3372	0.0244
0.72208	-2.3283	0.0243
0.7284	-2.3039	0.024
0.73179	-2.2862	0.0239
0.73599	-2.2704	0.0237
0.73693	-2.2716	0.0237
0.74024	-2.2481	0.0235
0.74454	-2.227	0.0233
0.74495	-2.2367	0.0234
0.74888	-2.2193	0.0232
0.75249	-2.2018	0.023
0.75328	-2.1864	0.0229
0.75773	-2.1658	0.0227
0.7596	-2.1669	0.0227
0.76224	-2.1444	0.0224
0.76631	-2.1321	0.0223
0.7668	-2.1209	0.0222
0.77141	-2.0969	0.022
0.77266	-2.0982	0.022
0.77608	-2.0724	0.0217
0.77867	-2.0646	0.0216
0.7808	-2.0462	0.0215
0.78438	-2.0317	0.0213
0.78559	-2.015	0.0212
0.78979	-1.9993	0.021
0.79043	-1.9858	0.0209
0.79494	-1.9672	0.0207
0.79533	-1.9536	0.0205
0.80029	-1.9203	0.0202
0.80532	-1.8866	0.0199
0.80678	-1.8813	0.0198
0.81041	-1.8559	0.0196
0.81556	-1.8184	0.0192
0.82607	-1.7432	0.0184
0.82677	-1.7376	0.0184
0.83143	-1.7009	0.018
0.8353	-1.6589	0.0176
0.83685	-1.6602	0.0176
0.84235	-1.619	0.0172
0.84302	-1.6161	0.0172
0.84792	-1.5742	0.0167
0.85356	-1.5296	0.0163
0.85928	-1.483	0.0158
0.86508	-1.4334	0.0153
0.87095	-1.3822	0.0148
0.87691	-1.3293	0.0143
0.88295	-1.2718	0.0137
0.88907	-1.2158	0.0132
0.89528	-1.156	0.0126
0.90157	-1.0934	0.0119
0.90796	-1.0293	0.0113
0.91443	-0.96242	0.01062
0.921	-0.89361	0.00994
0.92766	-0.82228	0.00922
0.93392	-0.7546	0.00855
0.93805	-0.71364	0.00814
0.94222	-0.66824	0.00768
0.94643	-0.61925	0.00719
0.95067	-0.57362	0.00674
0.95496	-0.52626	0.00626
0.95928	-0.47748	0.00577
0.96364	-0.42463	0.00525
0.96804	-0.37966	0.0048
0.97248	-0.32454	0.00425
0.97696	-0.27138	0.00371
0.98148	-0.22348	0.00323
0.98605	-0.16988	0.0027
0.99065	-0.11439	0.00214
0.99531	-0.05875	0.00159

System: propan-1-ol + 1,2-propanediamine; phases: Liquid
Fixed: Temperature, K = 298.15
Fixed: Pressure, kPa = 101
Property: Excess molar enthalpy (molar enthalpy of mixing), kJ/mol (Liquid); method: Calvet calorimetry
Mole fraction of propan-1-ol	Excess molar enthalpy (molar enthalpy of mixing), kJ/mol	uncertainty
0.01014	-0.087263	0.001873
0.02008	-0.17203	0.00272
0.02983	-0.25437	0.00354
0.03938	-0.33397	0.00434
0.04874	-0.41118	0.00511
0.05793	-0.4862	0.00586
0.06694	-0.55594	0.00656
0.07577	-0.62939	0.00729
0.08445	-0.69752	0.00798
0.09296	-0.76375	0.00864
0.1013	-0.82885	0.00929
0.1095	-0.89231	0.00992
0.1176	-0.955	0.01055
0.1255	-1.0158	0.0112
0.1332	-1.0758	0.0118
0.1409	-1.1348	0.0123
0.1484	-1.1922	0.0129
0.1557	-1.249	0.0135
0.163	-1.3043	0.014
0.1701	-1.3583	0.0146
0.1771	-1.4056	0.0151
0.184	-1.452	0.0155
0.1908	-1.4974	0.016
0.1974	-1.5419	0.0164
0.204	-1.5855	0.0169
0.2104	-1.6331	0.0173
0.2167	-1.6797	0.0178
0.223	-1.7204	0.0182
0.2291	-1.7607	0.0186
0.232	-1.7867	0.0189
0.2352	-1.8051	0.0191
0.2385	-1.8272	0.0193
0.2454	-1.8849	0.0198
0.247	-1.8864	0.0199
0.2527	-1.9233	0.0202
0.2603	-1.9874	0.0209
0.2685	-2.0326	0.0213
0.2772	-2.1006	0.022
0.2865	-2.1615	0.0226
0.2964	-2.2255	0.0233
0.3071	-2.2928	0.0239
0.3185	-2.3634	0.0246
0.3309	-2.4376	0.0254
0.3442	-2.5152	0.0262
0.3586	-2.5964	0.027
0.3743	-2.687	0.0279
0.3915	-2.7767	0.0288
0.396	-2.7992	0.029
0.4006	-2.8218	0.0292
0.4053	-2.8446	0.0294
0.4102	-2.8674	0.0297
0.4151	-2.8902	0.0299
0.4202	-2.9122	0.0301
0.4254	-2.9359	0.0304
0.4307	-2.9636	0.0306
0.4362	-2.9884	0.0309
0.4418	-3.0142	0.0311
0.4476	-3.0366	0.0314
0.4535	-3.0589	0.0316
0.4595	-3.0809	0.0318
0.4657	-3.1026	0.032
0.4721	-3.1242	0.0322
0.4787	-3.1455	0.0325
0.4855	-3.1661	0.0327
0.4924	-3.1896	0.0329
0.4996	-3.2151	0.0332
0.5069	-3.2323	0.0333
0.5145	-3.2514	0.0335
0.5223	-3.2736	0.0337
0.5304	-3.2887	0.0339
0.5339	-3.3028	0.034
0.5387	-3.3131	0.0341
0.5394	-3.3129	0.0341
0.5451	-3.327	0.0343
0.5509	-3.3306	0.0343
0.5568	-3.3361	0.0344
0.5628	-3.3407	0.0344
0.569	-3.3492	0.0345
0.5753	-3.3567	0.0346
0.5817	-3.3653	0.0347
0.5883	-3.3628	0.0346
0.595	-3.3675	0.0347
0.6019	-3.3656	0.0347
0.609	-3.3641	0.0346
0.6162	-3.3623	0.0346
0.6236	-3.3585	0.0346
0.6312	-3.3523	0.0345
0.6389	-3.3435	0.0344
0.6469	-3.3321	0.0343
0.655	-3.3127	0.0341
0.6634	-3.291	0.0339
0.6719	-3.2692	0.0337
0.6808	-3.2424	0.0334
0.6852	-3.2296	0.0333
0.6898	-3.2144	0.0331
0.6944	-3.1979	0.033
0.6991	-3.1803	0.0328
0.7038	-3.1609	0.0326
0.7086	-3.1402	0.0324
0.7135	-3.1183	0.0322
0.7184	-3.0945	0.0319
0.7234	-3.0695	0.0317
0.7285	-3.0429	0.0314
0.7336	-3.0144	0.0311
0.7388	-2.9846	0.0308
0.7441	-2.9528	0.0305
0.7495	-2.9188	0.0302
0.7549	-2.8878	0.0299
0.7604	-2.8503	0.0295
0.766	-2.8153	0.0292
0.7671	-2.8049	0.029
0.7698	-2.7859	0.0289
0.7717	-2.7735	0.0287
0.7725	-2.7668	0.0287
0.7753	-2.7468	0.0285
0.7775	-2.7293	0.0283
0.778	-2.7259	0.0283
0.7808	-2.7058	0.0281
0.7836	-2.6839	0.0278
0.7864	-2.6624	0.0276
0.7892	-2.6394	0.0274
0.792	-2.6163	0.0272
0.7949	-2.5934	0.0269
0.7978	-2.5686	0.0267
0.8007	-2.5441	0.0264
0.8036	-2.5184	0.0262
0.8066	-2.492	0.0259
0.8096	-2.4648	0.0256
0.8125	-2.4368	0.0254
0.8156	-2.4084	0.0251
0.8186	-2.3793	0.0248
0.8217	-2.3497	0.0245
0.8248	-2.3198	0.0242
0.8279	-2.2893	0.0239
0.831	-2.2574	0.0236
0.8342	-2.2249	0.0232
0.8373	-2.1914	0.0229
0.8405	-2.1564	0.0226
0.8438	-2.1258	0.0223
0.847	-2.0939	0.0219
0.8503	-2.0578	0.0216
0.8536	-2.0209	0.0212
0.8569	-1.9819	0.0208
0.8603	-1.9434	0.0204
0.8637	-1.9107	0.0201
0.8659	-1.8826	0.0198
0.8682	-1.8568	0.0196
0.8705	-1.8303	0.0193
0.8728	-1.8029	0.019
0.8751	-1.7757	0.0188
0.8775	-1.7489	0.0185
0.8798	-1.7198	0.0182
0.8822	-1.6906	0.0179
0.8845	-1.6614	0.0176
0.8869	-1.6326	0.0173
0.8917	-1.5736	0.0167
0.8941	-1.5435	0.0164
0.8966	-1.5084	0.0161
0.899	-1.4778	0.0158
0.9015	-1.4469	0.0155
0.904	-1.4096	0.0151
0.9065	-1.3822	0.0148
0.909	-1.3447	0.0144
0.9115	-1.3118	0.0141
0.914	-1.2808	0.0138
0.9165	-1.2475	0.0135
0.9191	-1.2105	0.0131
0.9217	-1.1758	0.0128
0.9243	-1.1402	0.0124
0.9276	-1.0984	0.012
0.9302	-1.0678	0.0117
0.9328	-1.02337	0.01123
0.9355	-0.9905	0.01091
0.9381	-0.95451	0.01055
0.9407	-0.91761	0.01018
0.9434	-0.87974	0.0098
0.9461	-0.84077	0.00941
0.9488	-0.80125	0.00901
0.9515	-0.76069	0.00861
0.9542	-0.72155	0.00822
0.9569	-0.68169	0.00782
0.9597	-0.64063	0.00741
0.9625	-0.5986	0.00699
0.9653	-0.55567	0.00656
0.9681	-0.51059	0.00611
0.9709	-0.46147	0.00561
0.9737	-0.42569	0.00526
0.9766	-0.38021	0.0048
0.9794	-0.3343	0.00434
0.9823	-0.28823	0.00388
0.9852	-0.24151	0.00342
0.9881	-0.19389	0.00294
0.9911	-0.14854	0.00249
0.994	-0.10401	0.00204
0.997	-0.05362	0.00154

System: propan-2-ol + 1,2-propanediamine; phases: Liquid
Fixed: Temperature, K = 298.15
Fixed: Pressure, kPa = 101
Property: Excess molar enthalpy (molar enthalpy of mixing), kJ/mol (Liquid); method: Calvet calorimetry
Mole fraction of propan-2-ol	Excess molar enthalpy (molar enthalpy of mixing), kJ/mol	uncertainty
0.00947	-0.05594	0.00156
0.016921	-0.11052	0.00211
0.02426	-0.16336	0.00263
0.03149	-0.21563	0.00316
0.03862	-0.26591	0.00366
0.04564	-0.31517	0.00415
0.05256	-0.3634	0.00463
0.05938	-0.41188	0.00512
0.0661	-0.45915	0.00559
0.07272	-0.50545	0.00605
0.07926	-0.5504	0.0065
0.0857	-0.59498	0.00695
0.09205	-0.63864	0.00739
0.09831	-0.68106	0.00781
0.10451	-0.72327	0.00823
0.11059	-0.76432	0.00864
0.11662	-0.80489	0.00905
0.12253	-0.84506	0.00945
0.1284	-0.88401	0.00984
0.13423	-0.92172	0.01022
0.14134	-0.96332	0.01063
0.14689	-0.99869	0.01099
0.15241	-1.0372	0.0114
0.15793	-1.0732	0.0117
0.16332	-1.1054	0.0121
0.16859	-1.1394	0.0124
0.17381	-1.1764	0.0128
0.179	-1.205	0.0131
0.18418	-1.2375	0.0134
0.18919	-1.2692	0.0137
0.19417	-1.3004	0.014
0.1992	-1.3306	0.0143
0.204	-1.3601	0.0146
0.20883	-1.3896	0.0149
0.21359	-1.4178	0.0152
0.21831	-1.4458	0.0155
0.22298	-1.4731	0.0157
0.22761	-1.5003	0.016
0.23208	-1.5266	0.0163
0.23663	-1.5518	0.0165
0.24214	-1.5742	0.0167
0.24649	-1.5995	0.017
0.25078	-1.6235	0.0172
0.25512	-1.6475	0.0175
0.25928	-1.6702	0.0177
0.26353	-1.6931	0.0179
0.26757	-1.7155	0.0182
0.27168	-1.7377	0.0184
0.27569	-1.7595	0.0186
0.27971	-1.7789	0.0188
0.28369	-1.8002	0.019
0.28758	-1.8131	0.0191
0.29141	-1.8339	0.0193
0.29524	-1.8541	0.0195
0.30279	-1.8888	0.0199
0.30651	-1.9052	0.0201
0.3131	-1.9359	0.0204
0.31918	-1.9632	0.0206
0.32527	-1.9906	0.0209
0.33123	-2.0138	0.0211
0.3371	-2.0402	0.0214
0.34279	-2.0609	0.0216
0.34848	-2.0807	0.0218
0.354	-2.1004	0.022
0.35948	-2.1191	0.0222
0.36481	-2.1373	0.0224
0.3701	-2.1547	0.0225
0.37534	-2.1712	0.0227
0.38038	-2.1893	0.0229
0.38539	-2.2079	0.0231
0.39033	-2.2237	0.0232
0.39517	-2.2426	0.0234
0.4	-2.2564	0.0236
0.40471	-2.2699	0.0237
0.40933	-2.2832	0.0238
0.41388	-2.2961	0.024
0.42279	-2.3212	0.0242
0.43151	-2.3446	0.0244
0.43983	-2.3659	0.0247
0.44799	-2.3857	0.0249
0.45591	-2.3984	0.025
0.4636	-2.4188	0.0252
0.47108	-2.4294	0.0253
0.47837	-2.4454	0.0255
0.48541	-2.4564	0.0256
0.49233	-2.4651	0.0257
0.49901	-2.4757	0.0258
0.50547	-2.4849	0.0258
0.51041	-2.4935	0.0259
0.51187	-2.4932	0.0259
0.51811	-2.5006	0.026
0.5242	-2.5073	0.0261
0.528	-2.51088	0.02611
0.53001	-2.5132	0.0261
0.53583	-2.5181	0.0262
0.54142	-2.5226	0.0262
0.54448	-2.5244	0.0262
0.54687	-2.5264	0.0263
0.55221	-2.5292	0.0263
0.55751	-2.5314	0.0263
0.55978	-2.5293	0.0263
0.56263	-2.5331	0.0263
0.56748	-2.5301	0.0263
0.57422	-2.5294	0.0263
0.58757	-2.5271	0.0263
0.60023	-2.5211	0.0262
0.61211	-2.5118	0.0261
0.62333	-2.4992	0.026
0.63382	-2.4841	0.0258
0.64381	-2.468	0.0257
0.65328	-2.4501	0.0255
0.66221	-2.4359	0.0254
0.67072	-2.4157	0.0252
0.67878	-2.3993	0.025
0.68653	-2.3769	0.0248
0.69391	-2.3542	0.0245
0.70088	-2.3312	0.0243
0.70761	-2.3079	0.0241
0.71402	-2.2893	0.0239
0.72008	-2.2706	0.0237
0.726	-2.2467	0.0235
0.73162	-2.2228	0.0232
0.74223	-2.1852	0.0229
0.76778	-2.0694	0.0217
0.78541	-1.9794	0.0208
0.80047	-1.9023	0.02
0.81349	-1.8285	0.0193
0.825	-1.7593	0.0186
0.83521	-1.6931	0.0179
0.84418	-1.6304	0.0173
0.85233	-1.5707	0.0167
0.85957	-1.5144	0.0161
0.87778	-1.3785	0.0148
0.88148	-1.3471	0.0145
0.88521	-1.3168	0.0142
0.889	-1.2852	0.0139
0.89281	-1.2506	0.0135
0.90047	-1.1785	0.0128
0.90451	-1.1443	0.0124
0.90843	-1.1027	0.012
0.91249	-1.0656	0.0117
0.91638	-1.0222	0.0112
0.92041	-0.9778	0.01078
0.92453	-0.93728	0.01037
0.92867	-0.88943	0.00989
0.92867	-0.88943	0.00989
0.93278	-0.84879	0.00949
0.93278	-0.84879	0.00949
0.93702	-0.79987	0.009
0.9412	-0.75664	0.00857
0.94548	-0.70856	0.00809
0.94979	-0.6584	0.00758
0.95419	-0.60689	0.00707
0.95857	-0.55444	0.00654
0.96301	-0.49909	0.00599
0.96747	-0.44345	0.00543
0.97202	-0.38552	0.00486
0.97662	-0.32685	0.00427
0.98118	-0.26137	0.00361
0.98581	-0.19478	0.00295
0.99048	-0.1315	0.00232
0.9952	-0.06671	0.00167
