Measured thermophysical data. Experimental studies on viscosity, thermal and electrical conductivity of aluminum nitride ethylene glycol (AlN-EG) nanofluids
Source: Thermochim. Acta, 2016, 10.1016/j.tca.2016.05.006
Compound 1: 1,2-ethanediol, C2H6O2, InChI=1S/C2H6O2/c3-1-2-4/h3-4H,1-2H2, purity 99%

System: 1,2-ethanediol; phases: Liquid
Property: Thermal conductivity, W/m/K (Liquid); method: Transient line heat source
Temperature, K	Pressure, kPa	Thermal conductivity, W/m/K	uncertainty
298.15	101.325	0.2438	0.0105

System: 1,2-ethanediol; phases: Liquid
Property: Electrical conductivity, S/m (Liquid); method: Alternating current cell with electrodes
Temperature, K	Pressure, kPa	Electrical conductivity, S/m	uncertainty
298.15	101.325	9.2e-05	2e-06
