Measured thermophysical data. Thermodynamic description of the Ga-Li-Zn system
Source: Thermochim. Acta, 2018, 10.1016/j.tca.2017.10.004
Compound 1: gallium, Ga, InChI=1S/Ga, purity 99.9999%
Compound 2: lithium, Li, InChI=1S/Li, purity 99.99%
Compound 3: zinc, Zn, InChI=1S/Zn, purity 99.999%

System: lithium + gallium + zinc; phases: Liquid
Fixed: Temperature, K = 1006
Fixed: Pressure, kPa = 100
Property: Excess molar enthalpy (molar enthalpy of mixing), kJ/mol (Liquid); method: Calvet calorimetry
Mole fraction of gallium	Mole fraction of zinc	Excess molar enthalpy (molar enthalpy of mixing), kJ/mol	uncertainty
0	0.0993	-2.2	1.2
0.0302	0.0962	-4.3	1.2
0.0549	0.0938	-5.4	1.2
0.0777	0.0915	-7.1	1.2
0.0974	0.0896	-7.8	1.2
0.1323	0.0861	-10.6	1.2
0.1536	0.084	-12	1.2
0.1914	0.0802	-14.5	1.2
0.2384	0.0756	-17	1.2
0.2686	0.0726	-18.3	1.2
0.2988	0.0696	-19.7	1.2
0.3345	0.0661	-20.9	1.2
0.365	0.063	-21.7	1.2

System: lithium + gallium + zinc; phases: Liquid
Fixed: Pressure, kPa = 100
Property: Excess molar enthalpy (molar enthalpy of mixing), kJ/mol (Liquid); method: Calvet calorimetry
Temperature, K	Mole fraction of zinc	Mole fraction of lithium	Excess molar enthalpy (molar enthalpy of mixing), kJ/mol	uncertainty
1017	0.0996	0	0.5	0.2
1017	0.0805	0.1918	-10.6	0.2
1017	0.0684	0.3124	-16.2	0.2
1017	0.0586	0.4111	-19.6	0.2
1017	0.0513	0.485	-21	0.3
1017	0.0457	0.5411	-21.4	0.3
1017	0.041	0.5883	-21.1	0.3
1018	0.5	0	1.6	0.4
1018	0.4551	0.0897	-3.8	0.4
1018	0.4154	0.1691	-7.9	0.4
1018	0.3792	0.2415	-11.2	0.4
1018	0.3504	0.2991	-13.3	0.4
1018	0.3202	0.3596	-15.1	0.4
1018	0.2925	0.4149	-16.1	0.4
1018	0.2711	0.4577	-16.6	0.4
813	0.9	0	0.8	0.6
813	0.7421	0.1754	-7.8	0.6
813	0.6256	0.3049	-13.2	0.6

System: lithium + zinc; phases: Liquid
Property: Excess molar enthalpy (molar enthalpy of mixing), kJ/mol (Liquid); method: Calvet calorimetry
Temperature, K	Mole fraction of zinc	Pressure, kPa	Excess molar enthalpy (molar enthalpy of mixing), kJ/mol	uncertainty
1006	0.0993	100	-2.2	1.2

System: gallium + zinc; phases: Liquid
Fixed: Pressure, kPa = 100
Property: Excess molar enthalpy (molar enthalpy of mixing), kJ/mol (Liquid); method: Calvet calorimetry
Temperature, K	Mole fraction of zinc	Excess molar enthalpy (molar enthalpy of mixing), kJ/mol	uncertainty
1017	0.0996	0.5	0.2
1018	0.5	1.6	0.4
813	0.9	0.8	0.6
