Measured thermophysical data. Enthalpy of dilution of aliphatic amides in aqueous solutions at temperatures between 293.15K and 308.15K
Source: Thermochim. Acta, 2009, 10.1016/j.tca.2009.01.021
Compound 1: ethanamide, C2H5NO, InChI=1S/C2H5NO/c1-2(3)4/h1H3,(H2,3,4)
Compound 2: propanamide, C3H7NO, InChI=1S/C3H7NO/c1-2-3(4)5/h2H2,1H3,(H2,4,5)
Compound 3: butanamide, C4H9NO, InChI=1S/C4H9NO/c1-2-3-4(5)6/h2-3H2,1H3,(H2,5,6)
Compound 4: water, H2O, InChI=1S/H2O/h1H2

System: ethanamide + water; phases: Liquid
Fixed: Pressure, kPa = 101.325
Property: Molar enthalpy of dilution, kJ/mol (Liquid); method: Flow calorimetry
Temperature, K	Initial molality of solute, mol/kg	Final molality of solute, mol/kg	Molar enthalpy of dilution, kJ/mol	uncertainty
293.15	0.59992	0.27356	0.006	0.0008
293.15	0.79615	0.36084	0.0099	0.0009
293.15	1.00067	0.4507	0.017	0.001
293.15	1.19891	0.53672	0.021	0.0009
293.15	1.3991	0.62254	0.0254	0.001
293.15	1.59813	0.70684	0.0308	0.0011
293.15	1.79948	0.7911	0.0377	0.0011
293.15	1.99879	0.87352	0.0437	0.0011
293.15	2.50144	1.07708	0.0581	0.0013
293.15	2.99647	1.27179	0.0786	0.0014
298.15	0.59183	0.28804	0.0058	0.0008
298.15	0.79994	0.39515	0.0097	0.0009
298.15	0.9989	0.48042	0.013	0.0009
298.15	1.12499	0.5391	0.018	0.0009
298.15	1.39703	0.66425	0.0232	0.001
298.15	1.59206	0.75278	0.0282	0.001
298.15	1.79159	0.84234	0.034	0.001
298.15	2.01114	0.96026	0.0371	0.0011
298.15	2.50367	1.17941	0.0515	0.0012
298.15	2.99868	1.36329	0.0676	0.0013
303.15	0.60589	0.30096	0.0039	0.0008
303.15	0.79609	0.3933	0.0041	0.0008
303.15	1.00286	0.49254	0.0078	0.0008
303.15	1.21021	0.5909	0.0137	0.0009
303.15	1.40561	0.68254	0.0163	0.0009
303.15	1.60083	0.7731	0.0233	0.001
303.15	1.80351	0.86609	0.0275	0.001
303.15	1.99429	0.95266	0.0334	0.001
303.15	2.49475	1.17549	0.0485	0.0012
303.15	3.0017	1.39511	0.0623	0.0013
308.15	0.59999	0.27359	0.001	0.0008
308.15	0.803	0.36387	0.0022	0.0008
308.15	1.00238	0.45144	0.0058	0.0009
308.15	1.19761	0.53616	0.0107	0.0009
308.15	1.40467	0.62492	0.0166	0.0009
308.15	1.59891	0.70717	0.0208	0.0013
308.15	1.79755	0.7903	0.0286	0.001
308.15	1.98135	0.86634	0.0311	0.001
308.15	2.50057	1.07674	0.0456	0.0011
308.15	3.01075	1.27732	0.06	0.0012

System: propanamide + water; phases: Liquid
Fixed: Pressure, kPa = 101.325
Property: Molar enthalpy of dilution, kJ/mol (Liquid); method: Flow calorimetry
Temperature, K	Initial molality of solute, mol/kg	Final molality of solute, mol/kg	Molar enthalpy of dilution, kJ/mol	uncertainty
293.15	0.19881	0.09166	0.0093	0.0009
293.15	0.39565	0.18104	0.0517	0.0012
293.15	0.59944	0.27214	0.0853	0.0014
293.15	0.79914	0.36006	0.1199	0.0018
293.15	1.00087	0.44752	0.1469	0.0019
293.15	1.20091	0.53295	0.176	0.0025
293.15	1.40036	0.61687	0.2173	0.0033
293.15	1.59868	0.69908	0.2467	0.0027
293.15	1.86498	0.80761	0.2906	0.003
293.15	1.99808	0.86107	0.312	0.0032
293.15	2.49729	1.05705	0.3959	0.0038
293.15	2.99731	1.24648	0.4848	0.0045
298.15	0.19999	0.09833	0.0177	0.0009
298.15	0.39498	0.19281	0.0472	0.0012
298.15	0.59987	0.29067	0.0709	0.0013
298.15	0.79946	0.38461	0.1131	0.0017
298.15	0.97441	0.46585	0.1251	0.0018
298.15	1.18564	0.56261	0.157	0.002
298.15	1.39703	0.67228	0.189	0.0022
298.15	1.58879	0.75955	0.217	0.0025
298.15	1.79515	0.85219	0.2493	0.0027
298.15	2.00072	0.9432	0.282	0.003
298.15	2.50644	1.1618	0.3596	0.0036
298.15	3.00045	1.36838	0.4338	0.0041
303.15	0.20127	0.10101	0.0176	0.0009
303.15	0.40466	0.20162	0.0425	0.0011
303.15	0.5421	0.26878	0.0609	0.0013
303.15	0.79523	0.39077	0.0963	0.0015
303.15	1.01228	0.49367	0.1212	0.0017
303.15	1.19568	0.5794	0.1508	0.002
303.15	1.39984	0.67357	0.1707	0.0021
303.15	1.59787	0.76365	0.2088	0.0024
303.15	1.79662	0.85285	0.2386	0.0026
303.15	2.0019	0.94371	0.2649	0.0028
303.15	2.50329	1.16046	0.3378	0.0034
303.15	2.9268	1.33801	0.3965	0.0039
308.15	0.2002	0.0923	0.011	0.0009
308.15	0.39954	0.18279	0.0433	0.0013
308.15	0.60036	0.27255	0.0633	0.0016
308.15	0.79921	0.36009	0.0967	0.0024
308.15	1.00102	0.44759	0.1109	0.003
308.15	1.1995	0.53235	0.1444	0.0021
308.15	1.3941	0.61425	0.1711	0.0022
308.15	1.59908	0.69925	0.2029	0.0024
308.15	1.7997	0.7812	0.2343	0.0026
308.15	1.99634	0.86037	0.2633	0.0028
308.15	2.49617	1.05662	0.3381	0.0035
308.15	2.99494	1.2456	0.4247	0.0041

System: butanamide + water; phases: Liquid
Fixed: Pressure, kPa = 101.325
Property: Molar enthalpy of dilution, kJ/mol (Liquid); method: Flow calorimetry
Temperature, K	Initial molality of solute, mol/kg	Final molality of solute, mol/kg	Molar enthalpy of dilution, kJ/mol	uncertainty
293.15	0.19966	0.09192	0.0637	0.0013
293.15	0.40225	0.18346	0.1021	0.0016
293.15	0.60003	0.27121	0.1842	0.0022
293.15	0.80005	0.35837	0.2759	0.0029
293.15	1.00205	0.44481	0.3492	0.0035
293.15	1.19966	0.52788	0.4116	0.0067
293.15	1.39878	0.61013	0.5178	0.0048
293.15	1.59992	0.69177	0.5974	0.0054
293.15	1.79434	0.76934	0.6498	0.0074
293.15	1.99506	0.84807	0.7265	0.0064
293.15	2.50067	1.04055	0.9436	0.0081
293.15	2.99953	1.22265	1.1572	0.0097
298.15	0.20002	0.09208	0.039	0.0011
298.15	0.4031	0.18384	0.1155	0.0017
298.15	0.6004	0.27138	0.1878	0.0022
298.15	0.80021	0.35843	0.2723	0.0029
298.15	0.99926	0.44363	0.3423	0.0034
298.15	1.19455	0.57177	0.3968	0.0039
298.15	1.39796	0.60979	0.5014	0.0047
298.15	1.59985	0.69174	0.5831	0.0053
298.15	1.80011	0.84067	0.625	0.0056
298.15	1.99916	0.84967	0.7315	0.0064
298.15	2.49596	1.0388	0.9458	0.0081
298.15	2.99875	1.22238	1.1417	0.0096
303.15	0.20019	0.10042	0.0457	0.0011
303.15	0.39478	0.1964	0.1026	0.0016
303.15	0.59961	0.29573	0.166	0.0021
303.15	0.80364	0.393	0.2332	0.0026
303.15	0.99731	0.4838	0.2984	0.0031
303.15	1.20321	0.57876	0.373	0.0037
303.15	1.40279	0.66929	0.4458	0.0042
303.15	1.60044	0.75751	0.5161	0.0048
303.15	1.80114	0.84566	0.5887	0.0053
303.15	1.99933	0.93134	0.6602	0.0059
303.15	2.43853	1.11648	0.8052	0.007
303.15	2.99873	1.34362	0.9905	0.0085
308.15	0.19962	0.0919	0.0442	0.0011
308.15	0.40081	0.18282	0.1001	0.0017
308.15	0.60133	0.27178	0.1737	0.0021
308.15	0.80096	0.35876	0.2487	0.0029
308.15	0.99908	0.44355	0.3119	0.0034
308.15	1.19734	0.52691	0.3856	0.0038
308.15	1.40013	0.61068	0.46	0.0043
308.15	1.60028	0.69192	0.5323	0.0049
308.15	1.79931	0.77131	0.6038	0.0057
308.15	1.99751	0.84903	0.6679	0.0059
308.15	2.49889	1.03989	0.8485	0.0075
308.15	2.9906	1.21946	0.9964	0.0085
