Measured thermophysical data. Heat capacities and enthalpies of fusion of lithium and rubidium nitrates. Heat capacities,  enthalpies of fusion and enthalpies of formation of the intermediate compounds Ag0.5Rb0.5NO3 and  Li0.5Rb0.5NO3.
Source: Thermochim. Acta, 2013, 10.1016/j.tca.2013.06.040
Compound 1: lithium nitrate, LiNO3, InChI=1S/Li.NO3/c;2-1(3)4/q+1;-1, purity 99.99%
Compound 2: rubidium nitrate, NO3Rb, InChI=1S/NO3.Rb/c2-1(3)4;/q-1;+1, purity 99.99%
Compound 3: rubidium silver nitrate (1:1), AgN2O6Rb, InChI=1S/Ag.2NO3.Rb/c;2*2-1(3)4;/q+1;2*-1;+1, purity 98%
Compound 4: lithium rubidium nitrate, LiN2O6Rb, InChI=1S/Li.2NO3.Rb/c;2*2-1(3)4;/q+1;2*-1;+1, purity 98%

System: lithium nitrate; phases: Crystal, Liquid, Air at 1 atmosphere
Property: Molar enthalpy of transition or fusion, kJ/mol (Crystal); method: DSC
Molar enthalpy of transition or fusion, kJ/mol	uncertainty
24.5	2

System: lithium nitrate; phases: Crystal, Liquid, Air at 1 atmosphere
Property: Triple point temperature, K (Crystal); method: DTA
Triple point temperature, K	uncertainty
525	1

System: lithium nitrate; phases: Crystal
Fixed: Pressure, kPa = 101.325
Property: Molar heat capacity at constant pressure, J/K/mol (Crystal); method: Small sample (50 mg) DSC
Temperature, K	Molar heat capacity at constant pressure, J/K/mol	uncertainty
310.7	63.7	25.5
315.7	56.8	22.7
320.6	117	47
325.6	114	46
330.6	80.3	32.1
335.6	72.2	28.9
340.6	63.4	25.4
345.6	78.2	31.3
350.6	88.7	35.5
355.6	83.5	33.4
360.6	80.8	32.3
365.6	81.5	32.6
370.6	75.6	30.3
375.6	79.1	31.7
380.6	77.3	30.9
385.6	80.7	32.3
390.6	81.1	32.5
395.6	83.9	33.6
400.6	87.5	35
405.5	86.4	34.6
410.5	81.9	32.8
415.5	90.3	36.1
420.5	87.1	34.9
425.5	86.2	34.5
430.5	91.5	36.6
435.6	94.4	37.8
440.6	95.6	38.3
445.5	88.4	35.4
450.5	93.6	37.5
455.4	90.4	36.2
460.3	93.1	37.3
465.4	96.3	38.5
470.5	97.4	39
475.5	91.5	36.6
480.6	94.5	37.8
485.5	95.6	38.3
490.5	99.4	39.8
495.5	102	41
500.5	98.8	39.5
505.5	103	41
510.5	110	44
515.5	125	50
520.5	127	51

System: lithium nitrate; phases: Liquid
Fixed: Pressure, kPa = 101.325
Property: Molar heat capacity at constant pressure, J/K/mol (Liquid); method: Small sample (50 mg) DSC
Temperature, K	Molar heat capacity at constant pressure, J/K/mol	uncertainty
535.5	114	46
540.5	122	49
545.5	122	49
550.5	125	50
555.5	117	47
560.5	121	48
570.5	122	49
575.5	123	49
580.5	116	46
585.5	121	48
590.5	119	48
595.5	122	49
600.5	119	48
610.5	113	45
615.5	120	48
620.5	110	44

System: rubidium nitrate; phases: Crystal 1, Liquid, Air at 1 atmosphere
Property: Triple point temperature, K (Crystal 1); method: DTA
Triple point temperature, K	uncertainty
583	1

System: rubidium nitrate; phases: Crystal 1, Liquid, Air at 1 atmosphere
Property: Molar enthalpy of transition or fusion, kJ/mol (Crystal 1); method: DSC
Molar enthalpy of transition or fusion, kJ/mol	uncertainty
4.7	0.41

System: rubidium nitrate; phases: Crystal 2, Crystal 1, Air at 1 atmosphere
Property: Molar enthalpy of transition or fusion, kJ/mol (Crystal 2); method: DSC
Molar enthalpy of transition or fusion, kJ/mol	uncertainty
1.25	0.14

System: rubidium nitrate; phases: Crystal 2, Crystal 1, Air at 1 atmosphere
Property: Triple point temperature, K (Crystal 2); method: DTA
Triple point temperature, K	uncertainty
555	1

System: rubidium nitrate; phases: Crystal 3, Crystal 2, Air at 1 atmosphere
Property: Triple point temperature, K (Crystal 3); method: DTA
Triple point temperature, K	uncertainty
500	1

System: rubidium nitrate; phases: Crystal 4, Crystal 3, Air at 1 atmosphere
Property: Triple point temperature, K (Crystal 4); method: DTA
Triple point temperature, K	uncertainty
437	1

System: rubidium nitrate; phases: Crystal 3, Crystal 2, Air at 1 atmosphere
Property: Molar enthalpy of transition or fusion, kJ/mol (Crystal 3); method: DSC
Molar enthalpy of transition or fusion, kJ/mol	uncertainty
2.32	0.22

System: rubidium nitrate; phases: Crystal 4, Crystal 3, Air at 1 atmosphere
Property: Molar enthalpy of transition or fusion, kJ/mol (Crystal 4); method: DSC
Molar enthalpy of transition or fusion, kJ/mol	uncertainty
3.72	0.33

System: rubidium nitrate; phases: Crystal 4
Fixed: Pressure, kPa = 101.325
Property: Molar heat capacity at constant pressure, J/K/mol (Crystal 4); method: Small sample (50 mg) DSC
Temperature, K	Molar heat capacity at constant pressure, J/K/mol	uncertainty
325.6	99	2
330.6	99.5	2
335.6	101	2
340.6	102	2
345.6	101	2
350.6	101	2
355.6	102	2
360.6	100	2
365.6	104	2
370.6	104	2
375.6	106	2
380.6	107	2
385.6	109	2
390.6	109	2
395.6	110	2
400.6	111	2
405.6	112	2
410.6	113	2
415.6	113	2
420.6	114	2
425.5	123	3
430.5	118	2
435.5	123	3

System: rubidium nitrate; phases: Crystal 3
Fixed: Pressure, kPa = 101.325
Property: Molar heat capacity at constant pressure, J/K/mol (Crystal 3); method: Small sample (50 mg) DSC
Temperature, K	Molar heat capacity at constant pressure, J/K/mol	uncertainty
440.5	833	17
445.5	134	3
450.5	134	3
455.5	135	3
460.5	136	3
465.5	136	3
470.5	138	3
475.5	138	3
480.5	138	3
485.5	138	3
490.5	139	3
495.5	139	3

System: rubidium nitrate; phases: Crystal 2
Fixed: Pressure, kPa = 101.325
Property: Molar heat capacity at constant pressure, J/K/mol (Crystal 2); method: Small sample (50 mg) DSC
Temperature, K	Molar heat capacity at constant pressure, J/K/mol	uncertainty
500.5	303	6
505.5	368	7
510.5	175	4
515.5	132	3
520.5	134	3
525.5	135	3
530.5	136	3
535.5	136	3
540.5	136	3
545.5	137	3
550.5	161	3

System: rubidium nitrate; phases: Crystal 1
Fixed: Pressure, kPa = 101.325
Property: Molar heat capacity at constant pressure, J/K/mol (Crystal 1); method: Small sample (50 mg) DSC
Temperature, K	Molar heat capacity at constant pressure, J/K/mol	uncertainty
555.5	151	3
560.5	399	8
565.5	112	2
570.5	113	2
575.5	111	2
580.5	115	2

System: rubidium nitrate; phases: Liquid
Fixed: Pressure, kPa = 101.325
Property: Molar heat capacity at constant pressure, J/K/mol (Liquid); method: Small sample (50 mg) DSC
Temperature, K	Molar heat capacity at constant pressure, J/K/mol	uncertainty
585.5	744	15
590.5	249	5
595.5	157	3
600.5	140	3
605.5	138	3
610.5	138	3
615.5	138	3
620.5	137	3

System: rubidium silver nitrate (1:1); phases: Crystal, Liquid, Air at 1 atmosphere
Property: Molar enthalpy of transition or fusion, kJ/mol (Crystal); method: DSC
Molar enthalpy of transition or fusion, kJ/mol	uncertainty
26.4	2.2

System: rubidium silver nitrate (1:1); phases: Crystal, Liquid, Air at 1 atmosphere
Property: Triple point temperature, K (Crystal); method: DTA
Triple point temperature, K	uncertainty
411	1

System: rubidium silver nitrate (1:1); phases: Crystal
Fixed: Pressure, kPa = 101.325
Property: Molar heat capacity at constant pressure, J/K/mol (Crystal); method: Small sample (50 mg) DSC
Temperature, K	Molar heat capacity at constant pressure, J/K/mol	uncertainty
315.6	75.8	1.6
320.6	80	1.6
325.6	85.2	1.8
330.6	96.6	2
335.6	92.8	1.8
340.6	101.6	2
345.6	118.4	2.4
350.6	105.2	2.2
355.6	102	2
360.6	123.2	2.4
365.6	119.2	2.4
370.6	99.6	2
375.6	131.2	2.6
380.6	155	3.2
385.6	107.2	2.2
390.5	126	2.6
395.5	141	2.8
400.5	75.2	1.6
405.5	149	4.8

System: rubidium silver nitrate (1:1); phases: Liquid
Fixed: Pressure, kPa = 101.325
Property: Molar heat capacity at constant pressure, J/K/mol (Liquid); method: Small sample (50 mg) DSC
Temperature, K	Molar heat capacity at constant pressure, J/K/mol	uncertainty
420.5	174.6	8.4
425.5	180.2	3.6
430.5	199.2	4
435.5	204	4
440.5	202	4
445.5	186.6	3.8
450.5	224	4
455.5	220	4
460.5	202	4
465.5	210	4
470.5	250	6
475.5	288	6
480.5	256	6
485.5	272	6
490.5	290	6

System: lithium rubidium nitrate; phases: Crystal, Liquid, Air at 1 atmosphere
Property: Molar enthalpy of transition or fusion, kJ/mol (Crystal); method: DSC
Molar enthalpy of transition or fusion, kJ/mol	uncertainty
22.2	1.8

System: lithium rubidium nitrate; phases: Crystal, Liquid, Air at 1 atmosphere
Property: Triple point temperature, K (Crystal); method: DTA
Triple point temperature, K	uncertainty
460	1

System: lithium rubidium nitrate; phases: Crystal
Fixed: Pressure, kPa = 101.325
Property: Molar heat capacity at constant pressure, J/K/mol (Crystal); method: Small sample (50 mg) DSC
Temperature, K	Molar heat capacity at constant pressure, J/K/mol	uncertainty
315.6	150.8	3
320.6	166.6	3.4
325.6	171.8	3.4
330.6	190.8	3.8
335.6	179.2	3.6
340.6	184.8	3.6
345.6	184	3.6
350.6	200	4
355.6	204	4
360.6	222	4
365.6	222	4
370.6	190.6	3.8
375.6	206	4
380.6	189	3.8
385.6	196.4	4
390.5	206	4
395.5	224	4
400.5	191.4	3.8
405.5	210	4
410.5	195.4	4
420.5	206	4
425.5	224	4
435.5	232	4
445.5	262	6

System: lithium rubidium nitrate; phases: Liquid
Fixed: Pressure, kPa = 101.325
Property: Molar heat capacity at constant pressure, J/K/mol (Liquid); method: Small sample (50 mg) DSC
Temperature, K	Molar heat capacity at constant pressure, J/K/mol	uncertainty
460.5	374	8
470.5	346	8
475.5	342	6
480.5	364	8
485.5	382	8
490.5	384	8
