Measured thermophysical data. Effect of temperature on the process of complex formation crownether 15C5 with Na+in the (water + ethanol) mixture at temperaturesfrom (293.15 to 308.15) K
Source: Thermochim. Acta, 2014, 10.1016/j.tca.2014.01.019
Compound 1: water, H2O, InChI=1S/H2O/h1H2
Compound 2: ethanol, C2H6O, InChI=1S/C2H6O/c1-2-3/h3H,2H2,1H3
Compound 3: 1,4,7,10,13-pentaoxacyclopentadecane, C10H20O5, InChI=1S/C10H20O5/c1-2-12-5-6-14-9-10-15-8-7-13-4-3-11-1/h1-10H2
Compound 4: sodium iodide, INa, InChI=1S/HI.Na/h1H;/q;+1/p-1
Compound 5: potassium chloride, ClK, InChI=1S/ClH.K/h1H;/q;+1/p-1
Compound 6: urea, CH4N2O, InChI=1S/CH4N2O/c2-1(3)4/h(H4,2,3,4)

System: sodium iodide + water + 1,4,7,10,13-pentaoxacyclopentadecane; phases: Liquid
Fixed: Pressure, kPa = 101
Fixed: Solvent: Amount concentration (molarity), mol/dm3 of sodium iodide = 0.05
Property: Molar enthalpy of solution, kJ/mol (Liquid); method: ISOPERIBOL
Temperature, K	Molality, mol/kg of 1,4,7,10,13-pentaoxacyclopentadecane	Molar enthalpy of solution, kJ/mol	uncertainty
293.15	0.00433	-43.26	0.34
298.15	0.00542	-42.37	0.33
303.15	0.0033	-41.13	0.32
308.15	0.0035	-40.11	0.31

System: ethanol + sodium iodide + 1,4,7,10,13-pentaoxacyclopentadecane; phases: Liquid
Fixed: Pressure, kPa = 101
Fixed: Solvent: Amount concentration (molarity), mol/dm3 of sodium iodide = 0.05
Property: Molar enthalpy of solution, kJ/mol (Liquid); method: ISOPERIBOL
Temperature, K	Molality, mol/kg of 1,4,7,10,13-pentaoxacyclopentadecane	Molar enthalpy of solution, kJ/mol	uncertainty
293.15	0.00132	-23.71	0.21
298.15	0.00396	-22.8	0.18
303.15	0.00109	-21.9	0.18
308.15	0.00163	-21	0.18

System: potassium chloride + water; phases: Liquid
Property: Molar enthalpy of solution, kJ/mol (Liquid); method: ISOPERIBOL
Mole fraction of potassium chloride	Pressure, kPa	Temperature, K	Molar enthalpy of solution, kJ/mol	uncertainty
0	101	298.15	17.55	0.16

System: urea + water; phases: Liquid
Property: Molar enthalpy of solution, kJ/mol (Liquid); method: ISOPERIBOL
Mole fraction of urea	Pressure, kPa	Temperature, K	Molar enthalpy of solution, kJ/mol	uncertainty
0	101	298.15	15.31	0.16
