Measured thermophysical data. Experimental thermodynamics, surface and transport properties of liquid Ag-Ge alloys
Source: Thermochim. Acta, 2019, 10.1016/j.tca.2019.178432
Compound 1: silver, Ag, InChI=1S/Ag, purity 99.99%
Compound 2: germanium, Ge, InChI=1S/Ge, purity 99.999%

System: silver + germanium; phases: Crystal, Crystal, Liquid, Air at 1 atmosphere
Property: Eutectic temperature, K (Crystal); method: DTA
Eutectic temperature, K	uncertainty
923.1	0.7

System: silver + germanium; phases: Crystal, Crystal, Liquid, Air at 1 atmosphere
Property: Eutectic composition: mole fraction of germanium (Crystal); method: Derived from phase diagram analysis
Eutectic composition: mole fraction of germanium	uncertainty
0.245	0.006
