Measured thermophysical data. Calorimetric and computational study of (1H-Indol-n-yl)methanol and 2-(1H-Indol-n-yl)ethanol (n=2, 3)
Source: Thermochim. Acta, 2019, 10.1016/j.tca.2019.01.021
Compound 1: carbon dioxide, CO2, InChI=1S/CO2/c2-1-3
Compound 2: nitrogen, N2, InChI=1S/N2/c1-2
Compound 3: water, H2O, InChI=1S/H2O/h1H2
Compound 4: oxygen, O2, InChI=1S/O2/c1-2
Compound 5: 2-(1H-indol-3-yl)ethanol, C10H11NO, InChI=1S/C10H11NO/c12-6-5-8-7-11-10-4-2-1-3-9(8)10/h1-4,7,11-12H,5-6H2, purity 99.7%

System: 2-(1H-indol-3-yl)ethanol; phases: Crystal, Gas
Property: Molar enthalpy of vaporization or sublimation, kJ/mol (Crystal); method: Static calorimetry
Temperature, K	Molar enthalpy of vaporization or sublimation, kJ/mol	uncertainty
298.15	119.8	2.5

System: 2-(1H-indol-3-yl)ethanol; phases: Gas, Liquid
Property: Molar enthalpy, kJ/mol (Gas); method: Drop calorimetry
Temperature, K	Molar enthalpy, kJ/mol	uncertainty
375.8	135.8	3.9

Reaction: -1 2-(1H-indol-3-yl)ethanol + 10 carbon dioxide + .5 nitrogen + 5.5 water + -12.25 oxygen
Property: Specific internal energy of reaction at constant volume, J/g
-33092.6
