Measured thermophysical data. Interfaces in lead-free solder alloys: Enthalpy of formation of binary Ag Sn, Cu Sn and Ni Sn intermetallic compounds
Source: Thermochim. Acta, 2007, 10.1016/j.tca.2007.04.004
Compound 1: copper, Cu, InChI=1S/Cu
Compound 2: nickel, Ni, InChI=1S/Ni
Compound 3: tin, Sn, InChI=1S/Sn
Compound 4: silver, Ag, InChI=1S/Ag

System: silver + tin; phases: Liquid
Fixed: Pressure, kPa = 101
Fixed: Mole fraction of silver = 0
Property: Molar enthalpy of solution, kJ/mol (Liquid); method: Calvet calorimetry
Temperature, K	Molar enthalpy of solution, kJ/mol	uncertainty
773	28.32	0.38
873	30.4	0.39
973	32.53	0.37
1073	35.81	0.37

System: tin + copper; phases: Liquid
Fixed: Pressure, kPa = 101
Fixed: Mole fraction of copper = 0
Property: Molar enthalpy of solution, kJ/mol (Liquid); method: Calvet calorimetry
Temperature, K	Molar enthalpy of solution, kJ/mol	uncertainty
773	24.16	1.15
873	27.39	0.81
973	30.74	0.55
1073	34.45	0.62

System: nickel + tin; phases: Liquid
Fixed: Pressure, kPa = 101
Fixed: Mass fraction of nickel = 0
Property: Molar enthalpy of solution, kJ/mol (Liquid); method: Calvet calorimetry
Temperature, K	Molar enthalpy of solution, kJ/mol	uncertainty
773	-29.39	0.67
873	-22.77	0.67
973	-16.62	0.39
1073	-11.56	0.38
