Measured thermophysical data. Thermodynamic studies on LnCoO3(s) (Ln =Dy, Ho) by solid-state  electrochemical cells
Source: Thermochim. Acta, 2009, 10.1016/j.tca.2008.09.023
Compound 1: holmium, Ho, InChI=1S/Ho
Compound 2: cobalt, Co, InChI=1S/Co
Compound 3: oxygen, O2, InChI=1S/O2/c1-2
Compound 4: dysprosium, Dy, InChI=1S/Dy
Compound 5: cobalt dysprosium oxide, CoDyO3, InChI=1S/Co.Dy.3O/q2*+3;3*-2
Compound 6: cobalt holmium oxide, CoHoO3, InChI=1S/Co.Ho.3O/q2*+3;3*-2

Reaction: -1 cobalt holmium oxide + 1 holmium + 1 cobalt + 1.5 oxygen
Property: Molar Gibbs energy of reaction, kJ/mol
-988.124

Reaction: -1 cobalt holmium oxide + 1 holmium + 1 cobalt + 1.5 oxygen
Property: Molar Gibbs energy of reaction, kJ/mol
-977.764

Reaction: -1 cobalt holmium oxide + 1 holmium + 1 cobalt + 1.5 oxygen
Property: Molar Gibbs energy of reaction, kJ/mol
-972.584

Reaction: -1 cobalt holmium oxide + 1 holmium + 1 cobalt + 1.5 oxygen
Property: Molar Gibbs energy of reaction, kJ/mol
-967.404

Reaction: -1 cobalt holmium oxide + 1 holmium + 1 cobalt + 1.5 oxygen
Property: Molar Gibbs energy of reaction, kJ/mol
-962.224

Reaction: -1 cobalt holmium oxide + 1 holmium + 1 cobalt + 1.5 oxygen
Property: Molar Gibbs energy of reaction, kJ/mol
-957.044

Reaction: -1 cobalt holmium oxide + 1 holmium + 1 cobalt + 1.5 oxygen
Property: Molar Gibbs energy of reaction, kJ/mol
-951.864

Reaction: -1 cobalt dysprosium oxide + 1 dysprosium + 1 cobalt + 1.5 oxygen
Property: Molar Gibbs energy of reaction, kJ/mol
-963.2163

Reaction: -1 cobalt dysprosium oxide + 1 dysprosium + 1 cobalt + 1.5 oxygen
Property: Molar Gibbs energy of reaction, kJ/mol
-958.3183

Reaction: -1 cobalt dysprosium oxide + 1 dysprosium + 1 cobalt + 1.5 oxygen
Property: Molar Gibbs energy of reaction, kJ/mol
-953.4203

Reaction: -1 cobalt dysprosium oxide + 1 dysprosium + 1 cobalt + 1.5 oxygen
Property: Molar Gibbs energy of reaction, kJ/mol
-948.5223

Reaction: -1 cobalt dysprosium oxide + 1 dysprosium + 1 cobalt + 1.5 oxygen
Property: Molar Gibbs energy of reaction, kJ/mol
-946.0733

Reaction: -1 cobalt dysprosium oxide + 1 dysprosium + 1 cobalt + 1.5 oxygen
Property: Molar Gibbs energy of reaction, kJ/mol
-941.1753

Reaction: -1 cobalt dysprosium oxide + 1 dysprosium + 1 cobalt + 1.5 oxygen
Property: Molar Gibbs energy of reaction, kJ/mol
-936.2773

Reaction: -1 cobalt dysprosium oxide + 1 dysprosium + 1 cobalt + 1.5 oxygen
Property: Molar Gibbs energy of reaction, kJ/mol
-931.3793

Reaction: -1 cobalt dysprosium oxide + 1 dysprosium + 1 cobalt + 1.5 oxygen
Property: Molar Gibbs energy of reaction, kJ/mol
-926.4813
