Measured thermophysical data. Kinetic analysis of solids of the quasi-autocatalytic decomposition type: SADT determination of low-temperature polymorph of AIBN
Source: Thermochim. Acta, 2018, 10.1016/j.tca.2018.05.015
Compound 1: 2,2'-dimethyl-2,2'-azodipropionitrile, C8H12N4, InChI=1S/C8H12N4/c1-7(2,5-9)11-12-8(3,4)6-10/h1-4H3

System: 2,2'-dimethyl-2,2'-azodipropionitrile; phases: Crystal 2, Crystal 1, Air at 1 atmosphere
Property: Triple point temperature, K (Crystal 2); method: DSC
Triple point temperature, K	uncertainty
351.15	5

System: 2,2'-dimethyl-2,2'-azodipropionitrile; phases: Crystal 1, Liquid, Air at 1 atmosphere
Property: Triple point temperature, K (Crystal 1); method: DSC
Triple point temperature, K	uncertainty
373.15	5

System: 2,2'-dimethyl-2,2'-azodipropionitrile; phases: Crystal 2
Property: Mass density, kg/m3 (Crystal 2); method: X-ray diffraction
Temperature, K	Pressure, kPa	Mass density, kg/m3	uncertainty
346.15	101.325	1100	22

System: 2,2'-dimethyl-2,2'-azodipropionitrile; phases: Crystal 1
Property: Mass density, kg/m3 (Crystal 1); method: X-ray diffraction
Temperature, K	Pressure, kPa	Mass density, kg/m3	uncertainty
356.15	101.325	1096	22
