Measured thermophysical data. Enthalpic Interaction Coefficients of N,N-Dimethylformamide in Aqueous Ethylene Glycol and Glycerol Solutions at 298.15K
Source: Thermochim. Acta, 2011, 10.1016/j.tca.2011.03.016
Compound 1: dimethylformamide, C3H7NO, InChI=1S/C3H7NO/c1-4(2)3-5/h3H,1-2H3
Compound 2: 1,2-ethanediol, C2H6O2, InChI=1S/C2H6O2/c3-1-2-4/h3-4H,1-2H2
Compound 3: glycerol, C3H8O3, InChI=1S/C3H8O3/c4-1-3(6)2-5/h3-6H,1-2H2
Compound 4: water, H2O, InChI=1S/H2O/h1H2

System: dimethylformamide + water; phases: Liquid
Fixed: Initial molality of solute, mol/kg = 2.0169
Fixed: Temperature, K = 298.15
Fixed: Pressure, kPa = 101.325
Property: Molar enthalpy of dilution, kJ/mol (Liquid); method: ISOPERIBOL
Final molality of solute, mol/kg	Molar enthalpy of dilution, kJ/mol	uncertainty
0.3593	-0.98522	0.00969
0.401	-0.96539	0.0095
0.4523	-0.93643	0.00924
0.5181	-0.88434	0.00875
0.6084	-0.8293	0.00824
0.7388	-0.73891	0.00741
0.9367	-0.61492	0.00626
1.1403	-0.4962	0.00516
1.281	-0.41064	0.00437
1.3817	-0.35467	0.00386
1.4569	-0.31134	0.00346
1.5164	-0.28181	0.00319
1.5655	-0.25072	0.0029

System: dimethylformamide + 1,2-ethanediol + water; phases: Liquid
Fixed: Temperature, K = 298.15
Fixed: Pressure, kPa = 101.325
Property: Molar enthalpy of dilution, kJ/mol (Liquid); method: ISOPERIBOL
Solvent: Molality, mol/kg of 1,2-ethanediol	Initial molality of solute, mol/kg	Final molality of solute, mol/kg	Molar enthalpy of dilution, kJ/mol	uncertainty
0	2.0169	0.3593	-0.98522	0.00969
0	2.0169	0.401	-0.96539	0.0095
0	2.0169	0.4523	-0.93643	0.00924
0	2.0169	0.5181	-0.88434	0.00875
0	2.0169	0.6084	-0.8293	0.00824
0	2.0169	0.7388	-0.73891	0.00741
0	2.0169	1.1403	-0.4962	0.00516
0	2.0169	1.281	-0.41064	0.00437
0	2.0169	1.3817	-0.35467	0.00386
0	2.0169	1.4569	-0.31134	0.00346
0	2.0169	1.5164	-0.28181	0.00319
0	2.0169	1.5655	-0.25072	0.0029
0.5	1.9945	0.3971	-0.91242	0.00901
0.5	1.9945	0.4478	-0.87735	0.00869
0.5	1.9945	0.5129	-0.84181	0.00836
0.5	1.9945	0.6023	-0.78266	0.00781
0.5	1.9945	0.7314	-0.70177	0.00706
0.5	1.9945	0.9271	-0.58577	0.00599
0.5	1.9945	1.1284	-0.46484	0.00487
0.5	1.9945	1.2676	-0.38831	0.00417
0.5	1.9945	1.3671	-0.33494	0.00367
0.5	1.9945	1.4413	-0.29095	0.00327
0.5	1.9945	1.5002	-0.26078	0.00299
0.5	1.9945	1.5487	-0.23369	0.00275
0.9979	1.9768	0.3529	-0.8925	0.00883
0.9979	1.9768	0.3938	-0.86972	0.00862
0.9979	1.9768	0.4441	-0.84039	0.00835
0.9979	1.9768	0.5087	-0.80089	0.00798
0.9979	1.9768	0.5973	-0.74659	0.00748
0.9979	1.9768	0.7253	-0.66708	0.00674
0.9979	1.9768	0.9193	-0.55514	0.00571
0.9979	1.9768	1.1188	-0.44458	0.00469
0.9979	1.9768	1.2567	-0.37007	0.004
0.9979	1.9768	1.3553	-0.31643	0.0035
0.9979	1.9768	1.4289	-0.27699	0.00314
0.9979	1.9768	1.4872	-0.24777	0.00287
0.9979	1.9768	1.5353	-0.22171	0.00264
1.4968	1.9772	0.3539	-0.84186	0.00836
1.4968	1.9772	0.3949	-0.81371	0.0081
1.4968	1.9772	0.4453	-0.79123	0.00789
1.4968	1.9772	0.51	-0.755	0.00756
1.4968	1.9772	0.5988	-0.70277	0.00707
1.4968	1.9772	0.7269	-0.63042	0.0064
1.4968	1.9772	0.9211	-0.52257	0.00541
1.4968	1.9772	1.1206	-0.41984	0.00446
1.4968	1.9772	1.2584	-0.3489	0.0038
1.4968	1.9772	1.357	-0.29852	0.00334
1.4968	1.9772	1.4305	-0.26247	0.00301
1.4968	1.9772	1.4887	-0.23387	0.00275
1.4968	1.9772	1.5367	-0.2096	0.00253
1.8034	1.9785	0.3546	-0.81841	0.00814
1.8034	1.9785	0.3957	-0.78394	0.00782
1.8034	1.9785	0.4462	-0.76772	0.00767
1.8034	1.9785	0.511	-0.72908	0.00732
1.8034	1.9785	0.5999	-0.68408	0.0069
1.8034	1.9785	0.7281	-0.61045	0.00622
1.8034	1.9785	0.9224	-0.51037	0.00529
1.8034	1.9785	1.1221	-0.40625	0.00433
1.8034	1.9785	1.26	-0.33881	0.00371
1.8034	1.9785	1.3585	-0.29037	0.00327
1.8034	1.9785	1.432	-0.25371	0.00293
1.8034	1.9785	1.4903	-0.22691	0.00268
1.8034	1.9785	1.5382	-0.20406	0.00248
2.0628	1.9644	0.3509	-0.78501	0.00783
2.0628	1.9644	0.3915	-0.76156	0.00762
2.0628	1.9644	0.4416	-0.74045	0.00742
2.0628	1.9644	0.5058	-0.7054	0.0071
2.0628	1.9644	0.5939	-0.65986	0.00667
2.0628	1.9644	0.721	-0.58811	0.00601
2.0628	1.9644	0.9138	-0.49068	0.00511
2.0628	1.9644	1.1121	-0.39048	0.00419
2.0628	1.9644	1.2491	-0.32583	0.00359
2.0628	1.9644	1.3471	-0.27996	0.00317
2.0628	1.9644	1.4202	-0.24392	0.00284
2.0628	1.9644	1.4781	-0.2185	0.00261
2.0628	1.9644	1.5259	-0.19604	0.0024
2.4784	1.9847	0.3538	-0.76292	0.00763
2.4784	1.9847	0.3948	-0.7365	0.00738
2.4784	1.9847	0.4453	-0.71304	0.00717
2.4784	1.9847	0.5101	-0.67868	0.00685
2.4784	1.9847	0.599	-0.63821	0.00647
2.4784	1.9847	0.7274	-0.56648	0.00581
2.4784	1.9847	0.9221	-0.4718	0.00494
2.4784	1.9847	1.1224	-0.37823	0.00407
2.4784	1.9847	1.2609	-0.31352	0.00348
2.4784	1.9847	1.36	-0.26823	0.00306
2.4784	1.9847	1.4339	-0.23619	0.00277
2.4784	1.9847	1.4925	-0.20966	0.00253
2.4784	1.9847	1.5408	-0.18879	0.00234
3.0034	1.9779	0.3523	-0.7265	0.00729
3.0034	1.9779	0.3932	-0.70335	0.00708
3.0034	1.9779	0.4434	-0.67732	0.00684
3.0034	1.9779	0.508	-0.64733	0.00656
3.0034	1.9779	0.5966	-0.60122	0.00613
3.0034	1.9779	0.7245	-0.5368	0.00554
3.0034	1.9779	0.9185	-0.44615	0.0047
3.0034	1.9779	1.1181	-0.35758	0.00388
3.0034	1.9779	1.2562	-0.29561	0.00331
3.0034	1.9779	1.355	-0.25236	0.00292
3.0034	1.9779	1.4286	-0.21992	0.00262
3.0034	1.9779	1.4871	-0.1943	0.00239
3.0034	1.9779	1.5352	-0.17452	0.00221
3.9755	1.9784	0.3526	-0.64695	0.00656
3.9755	1.9784	0.3935	-0.63461	0.00644
3.9755	1.9784	0.4438	-0.61376	0.00625
3.9755	1.9784	0.5084	-0.58195	0.00595
3.9755	1.9784	0.597	-0.54392	0.0056
3.9755	1.9784	0.725	-0.48403	0.00505
3.9755	1.9784	0.9191	-0.40136	0.00429
3.9755	1.9784	1.1188	-0.32082	0.00355
3.9755	1.9784	1.2568	-0.26668	0.00305
3.9755	1.9784	1.3556	-0.2269	0.00268
3.9755	1.9784	1.4293	-0.1985	0.00243
3.9755	1.9784	1.4877	-0.17717	0.00223
3.9755	1.9784	1.5359	-0.15818	0.00206
4.9755	1.9986	0.3561	-0.5834	0.00597
4.9755	1.9986	0.3974	-0.57048	0.00585
4.9755	1.9986	0.4482	-0.5545	0.0057
4.9755	1.9986	0.5134	-0.52327	0.00541
4.9755	1.9986	0.6029	-0.49031	0.00511
4.9755	1.9986	0.7321	-0.43681	0.00461
4.9755	1.9986	0.9282	-0.36148	0.00392
4.9755	1.9986	1.1299	-0.28697	0.00323
4.9755	1.9986	1.2694	-0.23878	0.00279
4.9755	1.9986	1.3692	-0.20289	0.00247
4.9755	1.9986	1.4437	-0.17715	0.00223
4.9755	1.9986	1.5027	-0.15792	0.00206
4.9755	1.9986	1.5513	-0.14087	0.0019

System: glycerol + dimethylformamide + water; phases: Liquid
Fixed: Temperature, K = 298.15
Fixed: Pressure, kPa = 101.325
Property: Molar enthalpy of dilution, kJ/mol (Liquid); method: ISOPERIBOL
Solvent: Molality, mol/kg of glycerol	Initial molality of solute, mol/kg	Final molality of solute, mol/kg	Molar enthalpy of dilution, kJ/mol	uncertainty
0	2.0169	0.3593	-0.98522	0.00969
0	2.0169	0.401	-0.96539	0.0095
0	2.0169	0.4523	-0.93643	0.00924
0	2.0169	0.5181	-0.88434	0.00875
0	2.0169	0.6084	-0.8293	0.00824
0	2.0169	0.7388	-0.73891	0.00741
0	2.0169	0.9367	-0.61492	0.00626
0	2.0169	1.1403	-0.4962	0.00516
0	2.0169	1.281	-0.41064	0.00437
0	2.0169	1.3817	-0.35467	0.00386
0	2.0169	1.4569	-0.31134	0.00346
0	2.0169	1.5164	-0.28181	0.00319
0	2.0169	1.5655	-0.25072	0.0029
0.1179	1.9847	0.3548	-0.97636	0.0096
0.1179	1.9847	0.3959	-0.94261	0.00929
0.1179	1.9847	0.4465	-0.90094	0.00891
0.1179	1.9847	0.5114	-0.86425	0.00857
0.1179	1.9847	0.6004	-0.79711	0.00794
0.1179	1.9847	0.729	-0.72182	0.00725
0.1179	1.9847	0.9238	-0.60115	0.00613
0.1179	1.9847	1.1241	-0.48034	0.00502
0.1179	1.9847	1.2625	-0.39667	0.00424
0.1179	1.9847	1.3615	-0.33962	0.00372
0.1179	1.9847	1.4353	-0.29903	0.00334
0.1179	1.9847	1.4938	-0.26628	0.00304
0.1179	1.9847	1.524	-0.23941	0.0028
0.2756	1.9953	0.3571	-0.96265	0.00948
0.2756	1.9953	0.3985	-0.94182	0.00928
0.2756	1.9953	0.4493	-0.8911	0.00882
0.2756	1.9953	0.5146	-0.84656	0.0084
0.2756	1.9953	0.6042	-0.78072	0.00779
0.2756	1.9953	0.7335	-0.7019	0.00706
0.2756	1.9953	0.9294	-0.58278	0.00596
0.2756	1.9953	1.1308	-0.46332	0.00486
0.2756	1.9953	1.2699	-0.38268	0.00411
0.2756	1.9953	1.3693	-0.32656	0.0036
0.2756	1.9953	1.4435	-0.28378	0.0032
0.2756	1.9953	1.5023	-0.25396	0.00293
0.2756	1.9953	1.5507	-0.22716	0.00269
0.5056	1.9904	0.3556	-0.95687	0.00942
0.5056	1.9904	0.3968	-0.93315	0.0092
0.5056	1.9904	0.4475	-0.89896	0.00889
0.5056	1.9904	0.5126	-0.85104	0.00844
0.5056	1.9904	0.6019	-0.79679	0.00794
0.5056	1.9904	0.7308	-0.71204	0.00716
0.5056	1.9904	0.9261	-0.58934	0.00602
0.5056	1.9904	1.127	-0.47354	0.00495
0.5056	1.9904	1.2658	-0.39147	0.0042
0.5056	1.9904	1.3651	-0.33463	0.00367
0.5056	1.9904	1.4391	-0.29527	0.00331
0.5056	1.9904	1.4978	-0.26315	0.00302
0.5056	1.9904	1.5462	-0.23662	0.00277
0.9988	1.9891	0.3544	-0.90357	0.00893
0.9988	1.9891	0.3955	-0.89357	0.00884
0.9988	1.9891	0.446	-0.84848	0.00842
0.9988	1.9891	0.5109	-0.82407	0.00819
0.9988	1.9891	0.6	-0.75564	0.00756
0.9988	1.9891	0.7286	-0.68369	0.0069
0.9988	1.9891	0.9238	-0.566	0.00581
0.9988	1.9891	1.1245	-0.4515	0.00475
0.9988	1.9891	1.2634	-0.37422	0.00404
0.9988	1.9891	1.3627	-0.31959	0.00353
0.9988	1.9891	1.4368	-0.28191	0.00319
0.9988	1.9891	1.4955	-0.24954	0.00289
0.9988	1.9891	1.544	-0.22503	0.00267
1.9992	1.9891	0.3544	-0.83606	0.00831
1.9992	1.9891	0.3955	-0.8109	0.00807
1.9992	1.9891	0.446	-0.78371	0.00782
1.9992	1.9891	0.5109	-0.74542	0.00747
1.9992	1.9891	0.6	-0.69396	0.00699
1.9992	1.9891	0.7287	-0.61667	0.00628
1.9992	1.9891	0.9238	-0.51502	0.00534
1.9992	1.9891	1.1246	-0.40603	0.00433
1.9992	1.9891	1.2634	-0.33895	0.00371
1.9992	1.9891	1.3627	-0.28836	0.00325
1.9992	1.9891	1.4368	-0.25175	0.00291
1.9992	1.9891	1.4956	-0.22302	0.00265
1.9992	1.9891	1.544	-0.20118	0.00245
2.9663	2.0014	0.3556	-0.83809	0.00832
2.9663	2.0014	0.3969	-0.80934	0.00806
2.9663	2.0014	0.4476	-0.77081	0.0077
2.9663	2.0014	0.5128	-0.73211	0.00734
2.9663	2.0014	0.6023	-0.67249	0.00679
2.9663	2.0014	0.7316	-0.58558	0.00599
2.9663	2.0014	0.9278	-0.4894	0.0051
2.9663	2.0014	1.1299	-0.38776	0.00416
2.9663	2.0014	1.2696	-0.3203	0.00354
2.9663	2.0014	1.3697	-0.27486	0.00312
2.9663	2.0014	1.4443	-0.24121	0.00281
2.9663	2.0014	1.5036	-0.21612	0.00259
2.9663	2.0014	1.5524	-0.19426	0.00239
3.9921	1.9887	0.3504	-0.78465	0.00783
3.9921	1.9887	0.3911	-0.76647	0.00766
3.9921	1.9887	0.4413	-0.72598	0.00729
3.9921	1.9887	0.5057	-0.68371	0.0069
3.9921	1.9887	0.5942	-0.6342	0.00644
3.9921	1.9887	0.7223	-0.5637	0.00579
3.9921	1.9887	0.9169	-0.46125	0.00484
3.9921	1.9887	1.1177	-0.3675	0.00397
3.9921	1.9887	1.2569	-0.30286	0.00338
3.9921	1.9887	1.3566	-0.2586	0.00297
3.9921	1.9887	1.4311	-0.22772	0.00269
3.9921	1.9887	1.4902	-0.20195	0.00246
3.9921	1.9887	1.539	-0.18091	0.00227
4.9531	2.0016	0.3558	-0.73626	0.00738
4.9531	2.0016	0.397	-0.72044	0.00724
4.9531	2.0016	0.4478	-0.6862	0.00692
4.9531	2.0016	0.513	-0.64742	0.00656
4.9531	2.0016	0.6026	-0.59932	0.00611
4.9531	2.0016	0.7319	-0.52855	0.00546
4.9531	2.0016	0.9282	-0.43295	0.00458
4.9531	2.0016	1.1302	-0.34381	0.00376
4.9531	2.0016	1.27	-0.28412	0.00321
4.9531	2.0016	1.37	-0.2429	0.00283
4.9531	2.0016	1.4447	-0.21286	0.00256
4.9531	2.0016	1.5039	-0.1895	0.00234
4.9531	2.0016	1.5527	-0.1697	0.00216
