Measured thermophysical data. Thermochemial Properties of 1-Butyl-3-Methylimidazolium Nitrate
Source: Thermochim. Acta, 2008, 10.1016/j.tca.2008.05.002
Compound 1: carbon dioxide, CO2, InChI=1S/CO2/c2-1-3
Compound 2: nitrogen, N2, InChI=1S/N2/c1-2
Compound 3: water, H2O, InChI=1S/H2O/h1H2
Compound 4: oxygen, O2, InChI=1S/O2/c1-2
Compound 5: 1-butyl-3-methylimidazolium nitrate, C8H15N3O3, InChI=1S/C8H15N2.NO3/c1-3-4-5-10-7-6-9(2)8-10;2-1(3)4/h6-8H,3-5H2,1-2H3;/q+1;-1

System: 1-butyl-3-methylimidazolium nitrate; phases: Crystal 1, Liquid, Gas
Property: Molar enthalpy of transition or fusion, kJ/mol (Crystal 1); method: Adiabatic calorimetry
Molar enthalpy of transition or fusion, kJ/mol	uncertainty
17.99	0.21

System: 1-butyl-3-methylimidazolium nitrate; phases: Crystal 2, Crystal 1, Gas
Property: Molar enthalpy of transition or fusion, kJ/mol (Crystal 2); method: Adiabatic calorimetry
Molar enthalpy of transition or fusion, kJ/mol	uncertainty
0.15	0.1

System: 1-butyl-3-methylimidazolium nitrate; phases: Crystal 3, Crystal 2, Gas
Property: Molar enthalpy of transition or fusion, kJ/mol (Crystal 3); method: Adiabatic calorimetry
Molar enthalpy of transition or fusion, kJ/mol	uncertainty
0.36	0.1

System: 1-butyl-3-methylimidazolium nitrate; phases: Crystal 4, Crystal 3, Gas
Property: Molar enthalpy of transition or fusion, kJ/mol (Crystal 4); method: Adiabatic calorimetry
Molar enthalpy of transition or fusion, kJ/mol	uncertainty
2.08	0.1

System: 1-butyl-3-methylimidazolium nitrate; phases: Crystal 4, Crystal 3, Gas
Property: Triple point temperature, K (Crystal 4); method: Adiabatic calorimetry
Triple point temperature, K	uncertainty
278.8	0.1

System: 1-butyl-3-methylimidazolium nitrate; phases: Crystal 3, Crystal 2, Gas
Property: Triple point temperature, K (Crystal 3); method: Adiabatic calorimetry
Triple point temperature, K	uncertainty
288.1	0.1

System: 1-butyl-3-methylimidazolium nitrate; phases: Crystal 2, Crystal 1, Gas
Property: Triple point temperature, K (Crystal 2); method: Adiabatic calorimetry
Triple point temperature, K	uncertainty
292.2	0.1

System: 1-butyl-3-methylimidazolium nitrate; phases: Crystal 1, Liquid, Gas
Property: Triple point temperature, K (Crystal 1); method: Adiabatic calorimetry
Triple point temperature, K	uncertainty
309.16	0.07

System: 1-butyl-3-methylimidazolium nitrate; phases: Crystal 4
Fixed: Pressure, kPa = 101.325
Property: Molar heat capacity at constant pressure, J/K/mol (Crystal 4); method: Small (less than 1 g) adiabatic calorimetry
Temperature, K	Molar heat capacity at constant pressure, J/K/mol	uncertainty
5	0.536	0.033
10	4.46	0.091
15	11.93	0.19
20	21.74	0.28
25	32.7	0.35
30	43.8	0.32
35	54.44	0.37
40	64.5	0.42
45	73.88	0.47
50	82.59	0.52
55	90.63	0.58
60	97.94	0.58
70	111.1	0.67
80	122.4	0.75
90	132.2	0.75
100	141	0.75
110	149.2	0.83
120	156.9	0.83
130	164.4	0.83
140	171.8	0.92
150	179.1	0.92
160	186.5	0.92
170	194.1	1
180	202	1
190	210.1	1.1
200	218.6	1.1
210	227.3	1.1
220	236.2	1.2
230	245.1	1.2
240	254	1.2
250	262.9	1.2
260	271.8	1.2
270	280.7	1.3
278.2	288	1.3

System: 1-butyl-3-methylimidazolium nitrate; phases: Crystal 3
Fixed: Pressure, kPa = 101.325
Property: Molar heat capacity at constant pressure, J/K/mol (Crystal 3); method: Small (less than 1 g) adiabatic calorimetry
Temperature, K	Molar heat capacity at constant pressure, J/K/mol	uncertainty
278.2	288	1.3
280	289.6	1.3
285	294.1	1.4
288.1	296.8	1.4

System: 1-butyl-3-methylimidazolium nitrate; phases: Crystal 2
Fixed: Pressure, kPa = 101.325
Property: Molar heat capacity at constant pressure, J/K/mol (Crystal 2); method: Small (less than 1 g) adiabatic calorimetry
Temperature, K	Molar heat capacity at constant pressure, J/K/mol	uncertainty
288.1	296.8	1.4
290	298.6	1.4
292.2	300.5	1.4

System: 1-butyl-3-methylimidazolium nitrate; phases: Crystal 1
Fixed: Pressure, kPa = 101.325
Property: Molar heat capacity at constant pressure, J/K/mol (Crystal 1); method: Small (less than 1 g) adiabatic calorimetry
Temperature, K	Molar heat capacity at constant pressure, J/K/mol	uncertainty
292.2	300.5	1.4
295	303	1.4
298.15	305.8	1.4
300	307.5	1.4
309.16	315.6	1.5

System: 1-butyl-3-methylimidazolium nitrate; phases: Liquid
Fixed: Pressure, kPa = 101.325
Property: Molar heat capacity at constant pressure, J/K/mol (Liquid); method: Small (less than 1 g) adiabatic calorimetry
Temperature, K	Molar heat capacity at constant pressure, J/K/mol	uncertainty
309.16	357.7	1.7
310	358	1.7
320	361.8	1.7
330	365.8	1.7
340	369.8	1.7
350	374.1	1.7
360	378.5	1.7
370	383	1.7

System: 1-butyl-3-methylimidazolium nitrate; phases: Crystal 4, Gas
Property: Molar heat capacity at saturation pressure, J/K/mol (Crystal 4); method: Small (less than 1 g) adiabatic calorimetry
Temperature, K	Molar heat capacity at saturation pressure, J/K/mol	uncertainty
5.05	0.5513513488	0.0321956992
5.29	0.6499506776	0.0321956992
5.54	0.7586111624	0.0342079304
5.8	0.8833694968	0.0362201616
6.06	1.0242256808	0.040244624
6.36	1.1952653328	0.0422568552
6.69	1.40856184	0.0462813176
7.03	1.6359439656	0.040244624
7.37	1.8955217904	0.0543302424
7.72	2.1691852336	0.0583547048
8.08	2.4730321448	0.0643913984
8.44	2.8030380616	0.0684158608
8.8	3.1451173656	0.0744525544
9.16	3.5254290624	0.080489248
9.53	3.9218386088	0.0865259416
9.91	4.346419392	0.0925626352
10.39	4.9339909024	0.10061156
10.97	5.6604063656	0.110672716
11.56	6.4451765336	0.1227461032
12.15	7.2883014064	0.1328072592
12.75	8.1938054464	0.1448806464
13.35	9.1234562608	0.1569540336
13.96	10.1134740112	0.1690274208
14.57	11.1216018424	0.181100808
15.18	12.2102189216	0.1931741952
15.91	13.6187807616	0.2092720448
16.74	15.2144801032	0.2253698944
17.58	16.8463996064	0.241467744
18.42	18.5044781152	0.2575655936
19.27	20.202801248	0.261590056
20.12	21.953442392	0.281712368
21.25	24.368119832	0.30183468
22.68	27.46695588	0.321956992
24.11	30.6865258	0.342079304
25.54	33.90609572	0.362201616
26.98	37.085421016	0.362201616
28.44	40.365357872	0.362201616
29.9	43.584927792	0.382323928
31.35	46.7843754	0.342079304
32.99	50.285657688	0.362201616
34.79	54.048530032	0.382323928
36.58	57.690668504	0.382323928
38.37	61.252317728	0.40244624
40.17	64.773722328	0.422568552
42.06	68.395738488	0.442690864
44.07	72.178733144	0.462813176
46.09	75.840993928	0.482935488
48.1	79.422765464	0.5030578
50.1	82.763069256	0.523180112
52.11	86.063128424	0.523180112
54.13	89.282698344	0.543302424
56.14	92.321167456	0.563424736
58.16	95.27914732	0.583547048
60.19	98.19688256	0.583547048
62.22	101.034128552	0.60366936
64.26	103.750640672	0.623791672
66.29	106.426908168	0.623791672
68.34	109.042808728	0.643913984
70.38	111.497730792	0.664036296
72.42	113.972775168	0.664036296
74.46	116.387452608	0.684158608
76.5	118.681396176	0.684158608
78.55	120.955217432	0.70428092
80.3	122.585124704	0.70428092
80.56	122.987570944	0.724403232
80.61	123.108304816	0.724403232
82.15	124.416255096	0.724403232
82.41	124.838823648	0.724403232
82.67	125.140658328	0.724403232
84.01	126.227263176	0.724403232
84.27	126.66995404	0.724403232
84.72	127.152889528	0.744525544
85.89	128.018148944	0.744525544
86.14	128.460839808	0.744525544
87.78	129.909646272	0.744525544
88.03	130.271847888	0.744525544
89.67	131.680409728	0.764647856
89.92	132.022489032	0.764647856
91.58	133.451173184	0.724403232
91.83	133.793252488	0.744525544
93.5	135.161569704	0.744525544
93.75	135.503649008	0.744525544
95.43	136.912210848	0.744525544
95.68	137.254290152	0.744525544
97.36	138.622607368	0.764647856
97.62	138.984808984	0.764647856
99.3	140.373248512	0.764647856
99.56	140.675083192	0.764647856
101.25	142.083645032	0.764647856
102.25	142.928782136	0.764647856
103.21	143.753796928	0.784770168
104.22	144.598934032	0.784770168
105.18	145.343459576	0.784770168
106.19	146.248963616	0.784770168
107.15	146.933122224	0.784770168
108.17	147.878870888	0.784770168
109.13	148.522784872	0.784770168
110.16	149.428288912	0.80489248
111.11	150.072202896	0.80489248
112.15	150.977706936	0.80489248
113.1	151.62162092	0.80489248
114.14	152.507002648	0.80489248
115.1	153.150916632	0.80489248
116.14	154.016176048	0.825014792
117.1	154.680212344	0.825014792
118.14	155.525349448	0.825014792
119.11	156.129018808	0.825014792
120.15	157.05464516	0.825014792
121.12	157.678436832	0.825014792
122.17	158.583940872	0.825014792
123.13	159.227854856	0.845137104
124.19	160.07299196	0.845137104
125.15	160.67666132	0.845137104
126.21	161.541920736	0.845137104
127.17	162.145590096	0.845137104
128.23	163.051094136	0.845137104
129.2	163.654763496	0.845137104
130.26	164.540145224	0.865259416
131.23	165.123692272	0.865259416
132.3	166.009074	0.865259416
133.26	166.61274336	0.865259416
134.34	167.498125088	0.865259416
135.3	168.061549824	0.865259416
136.37	168.987176176	0.885381728
137.33	169.590845536	0.885381728
138.41	170.516471888	0.885381728
139.37	171.100018936	0.885381728
140.46	172.0457676	0.885381728
141.42	172.5488254	0.885381728
142.5	173.514696376	0.885381728
143.46	174.118365736	0.90550404
144.54	175.0641144	0.90550404
145.5	175.607416824	0.90550404
146.58	176.593410112	0.90550404
147.55	177.156834848	0.90550404
148.63	178.102583512	0.90550404
149.59	178.68613056	0.90550404
150.67	179.611756912	0.925626352
151.64	180.19530396	0.925626352
152.72	181.141052624	0.925626352
153.69	181.744721984	0.925626352
154.76	182.690470648	0.925626352
155.74	183.233773072	0.925626352
156.81	184.239888672	0.945748664
157.78	184.763068784	0.945748664
158.86	185.749062072	0.945748664
159.83	186.312486808	0.945748664
160.91	187.258235472	0.945748664
161.87	187.84178252	0.945748664
162.96	188.74728656	0.945748664
163.91	189.210099736	0.965870976
165	190.236337648	0.965870976
165.95	190.699150824	0.965870976
167.05	191.846122608	0.965870976
168	192.26869116	0.965870976
169.09	193.355296008	0.965870976
170.04	193.838231496	0.965870976
171.13	194.944958656	0.985993288
172.08	195.38764952	0.985993288
173.17	196.554743616	0.985993288
174.12	196.856578296	0.985993288
175.21	198.144406264	0.985993288
176.16	198.587097128	0.985993288
177.25	199.734068912	1.0061156
178.2	200.156637464	1.0061156
179.28	201.42434312	1.0061156
180.24	201.82678936	1.0061156
181.31	203.03412808	1.0061156
182.28	203.43657432	1.0061156
183.34	204.64391304	1.0061156
184.31	205.04635928	1.0061156
185.37	206.253698	1.0061156
186.34	206.65614424	1.0061156
187.39	207.86348296	1.0061156
188.36	208.46715232	1.0061156
189.42	209.67449104	1.0061156
190.39	210.07693728	1.0061156
191.44	211.284276	1.0061156
192.41	211.88794536	1.0061156
193.45	212.89406096	1.0061156
194.43	213.49773032	1.0061156
195.47	214.70506904	1.0061156
196.44	215.3087384	1.0061156
197.48	216.314854	1.0061156
198.45	216.91852336	1.0061156
199.49	218.12586208	1.0061156
200.46	218.72953144	1.0061156
201.55	219.93687016	1.0061156
202.53	220.54053952	1.0061156
203.67	221.74787824	1.0061156
204.65	222.3515476	1.0061156
205.78	223.55888632	1.0061156
206.76	224.16255568	1.0061156
207.89	225.3698944	1.20733872
208.87	225.97356376	1.20733872
210	227.3821256	1.20733872
210.98	227.78457184	1.20733872
212.11	229.19313368	1.20733872
213.09	229.59557992	1.20733872
214.21	231.00414176	1.20733872
215.19	231.60781112	1.20733872
216.3	232.81514984	1.20733872
217.29	233.62004232	1.20733872
218.4	234.62615792	1.20733872
219.38	235.63227352	1.20733872
220.49	236.437166	1.20733872
221.47	237.4432816	1.20733872
222.58	238.24817408	1.20733872
223.56	239.25428968	1.20733872
224.66	240.26040528	1.20733872
225.64	241.26652088	1.20733872
226.74	242.07141336	1.20733872
227.72	243.27875208	1.20733872
228.81	244.08364456	1.20733872
229.79	245.29098328	1.20733872
230.88	246.09587576	1.20733872
231.86	247.30321448	1.20733872
232.95	248.30933008	1.20733872
233.92	249.31544568	1.20733872
235.01	250.32156128	1.20733872
235.97	251.5289	1.20733872
237.06	252.5350156	1.20733872
238.03	253.5411312	1.20733872
239.1	254.74846992	1.20733872
239.2	254.94969304	1.20733872
240.07	255.5533624	1.20733872
241.14	256.96192424	1.20733872
241.7	257.5655936	1.20733872
242.11	257.76681672	1.20733872
243.17	259.17537856	1.20733872
244.08	260.18149416	1.20733872
244.15	259.98027104	1.20733872
245.2	261.38883288	1.20733872
246.17	262.5961716	1.20733872
246.45	262.79739472	1.20733872
247.22	263.80351032	1.20733872
248.19	265.01084904	1.20733872
248.81	265.6145184	1.20733872
249.23	266.41941088	1.20733872
250.2	267.6267496	1.20733872
251.15	268.43164208	1.20733872
251.23	269.03531144	1.20733872
252.21	270.04142704	1.20733872
253.23	271.44998888	1.20733872
253.48	271.44998888	1.20733872
254.2	272.6573276	1.20733872
255.22	274.26711256	1.20733872
255.8	274.87078192	1.20733872
256.19	275.6756744	1.20733872
257.2	277.28545936	1.40856184
258.1	278.49279808	1.40856184
258.18	278.49279808	1.40856184
259.18	280.30380616	1.40856184
260.15	281.51114488	1.40856184
260.4	282.11481424	1.40856184
261.14	283.32215296	1.40856184
262.11	284.52949168	1.40856184
262.67	286.13927664	1.40856184
263.1	286.54172288	1.40856184
264.07	287.95028472	1.40856184
264.94	289.96251592	1.40856184
265.05	289.56006968	1.40856184
266.02	291.37107776	1.40856184
267	293.7857552	1.40856184
267.19	294.18820144	1.40856184
267.95	295.39554016	1.40856184
268.93	297.8102176	1.40856184
269.43	299.01755632	1.40856184
269.88	299.8224488	1.40856184
270.85	302.43834936	1.40856184
271.65	304.8530268	1.40856184
271.78	304.65180368	1.40856184
272.76	307.46892736	1.40856184
273.68	310.68849728	1.40856184
273.85	312.09705912	1.40856184
274.66	313.70684408	1.40856184
275.56	318.9386452	1.40856184
276.02	318.53619896	1.60978496
276.35	310.08482792	1.40856184
277.33	355.76247616	2.0122312
277.73	345.50009704	2.0122312
277.82	609.7060536	3.62201616
278.14	322.56066136	1.60978496
278.16	408.68415672	2.21345432
278.25	455.56914368	3.0183468

System: 1-butyl-3-methylimidazolium nitrate; phases: Crystal 3, Gas
Property: Molar heat capacity at saturation pressure, J/K/mol (Crystal 3); method: Small (less than 1 g) adiabatic calorimetry
Temperature, K	Molar heat capacity at saturation pressure, J/K/mol	uncertainty
278.82	545.71710144	7.64647856
279.03	470.05720832	5.23180112
279.47	414.92207344	7.24403232
279.88	382.52515112	3.0183468
280.31	308.07259672	1.81100808
280.95	310.08482792	1.40856184
281.84	313.9080672	1.60978496
281.86	314.31051344	1.60978496
282.47	319.54231456	1.40856184
283.34	324.9753388	1.60978496
283.95	333.42670984	1.60978496
284.03	333.22548672	1.60978496
284.81	341.47563464	1.60978496
285.42	355.56125304	1.60978496
286.1	372.262772	2.0122312
286.25	363.40895472	1.81100808
286.8	390.77529904	1.81100808
287.64	372.262772	1.81100808
288.03	432.83093112	3.62201616

System: 1-butyl-3-methylimidazolium nitrate; phases: Crystal 2, Gas
Property: Molar heat capacity at saturation pressure, J/K/mol (Crystal 2); method: Small (less than 1 g) adiabatic calorimetry
Temperature, K	Molar heat capacity at saturation pressure, J/K/mol	uncertainty
288.12	417.537974	2.21345432
289.03	359.38449232	1.81100808
289.45	366.42730152	1.60978496
289.95	362.201616	1.60978496
290.42	367.43341712	1.60978496
290.84	370.2505408	2.0122312
291.75	425.38567568	2.0122312
291.98	378.50068872	1.81100808
292.18	416.33063528	4.22568552

System: 1-butyl-3-methylimidazolium nitrate; phases: Crystal 1, Gas
Property: Molar heat capacity at saturation pressure, J/K/mol (Crystal 1); method: Small (less than 1 g) adiabatic calorimetry
Temperature, K	Molar heat capacity at saturation pressure, J/K/mol	uncertainty
293	432.02603864	2.81712368
293.5	380.51291992	2.0122312
293.98	378.09824248	1.81100808
294.33	377.89701936	1.81100808
294.87	383.53126672	1.81100808
295.97	397.01321576	1.81100808
296.14	399.02544696	1.81100808
296.66	410.29394168	1.81100808
297.89	432.629708	2.0122312
298.32	442.08719464	2.0122312
298.79	458.18504424	2.21345432
299.7	486.35628104	2.21345432
300.51	519.75931896	2.41467744
300.77	538.67429224	2.61590056
301.36	572.07733016	2.81712368
302.38	652.9690244	4.22568552
302.52	675.30479072	3.82323928
302.83	708.50660552	4.22568552
303.87	876.12546448	7.0428092
303.98	909.12605616	6.23791672
304.08	926.83369072	5.23180112

System: 1-butyl-3-methylimidazolium nitrate; phases: Liquid, Gas
Property: Molar heat capacity at saturation pressure, J/K/mol (Liquid); method: Small (less than 1 g) adiabatic calorimetry
Temperature, K	Molar heat capacity at saturation pressure, J/K/mol	uncertainty
271.8	345.0976508	1.60978496
274.46	345.90254328	1.60978496
277.02	346.70743576	1.60978496
279.41	347.51232824	1.60978496
281.81	348.31722072	1.60978496
284.21	349.1221132	1.60978496
286.61	349.92700568	1.60978496
289.01	350.73189816	1.60978496
291.41	351.53679064	1.60978496
293.81	352.34168312	1.60978496
296.21	353.1465756	1.60978496
298.61	353.95146808	1.60978496
301.01	354.75636056	1.60978496
303.42	355.76247616	1.60978496
305.82	356.56736864	1.60978496
308.22	357.37226112	1.60978496
310.14	358.37837672	1.60978496
310.4	358.57959984	1.60978496
310.62	358.37837672	1.60978496
311.19	358.57959984	1.60978496
312.54	359.1832692	1.60978496
313.02	358.98204608	1.60978496
313.34	359.1832692	1.60978496
314.75	359.98816168	1.60978496
315.42	360.1893848	1.60978496
315.54	359.98816168	1.60978496
316.76	360.59183104	1.60978496
317.74	360.99427728	1.60978496
317.82	360.99427728	1.60978496
318.76	361.59794664	1.60978496
319.94	361.79916976	1.60978496
320.21	362.00039288	1.60978496
320.76	362.40283912	1.60978496
322.14	362.80528536	1.60978496
322.61	363.00650848	1.60978496
322.77	363.40895472	1.60978496
324.34	363.61017784	1.60978496
324.77	364.01262408	1.60978496
325.01	363.81140096	1.60978496
326.54	364.61629344	1.60978496
326.77	364.61629344	1.60978496
327.41	365.01873968	1.60978496
328.73	365.2199628	1.60978496
328.78	365.42118592	1.60978496
329.81	365.82363216	1.60978496
330.78	366.42730152	1.60978496
330.93	366.2260784	1.60978496
332.2	366.82974776	1.60978496
332.78	367.232194	1.60978496
333.12	367.03097088	1.60978496
334.6	367.83586336	1.60978496
334.78	368.2383096	1.60978496
335.32	367.83586336	1.60978496
336.78	368.84197896	1.60978496
336.99	368.64075584	1.60978496
337.51	369.04320208	1.60978496
338.78	369.64687144	1.60978496
339.71	369.64687144	1.60978496
340.78	370.45176392	1.60978496
341.9	370.45176392	1.60978496
342.78	371.45787952	1.60978496
344.09	371.45787952	1.60978496
344.78	372.262772	1.60978496
346.29	372.46399512	1.60978496
346.78	373.2688876	1.60978496
348.48	373.47011072	1.60978496
348.78	374.07378008	1.60978496
350.68	374.2750032	1.60978496
350.78	374.87867256	1.60978496
352.78	375.68356504	1.60978496
352.87	375.48234192	1.60978496
354.78	376.68968064	1.81100808
355.06	376.2872344	1.60978496
356.78	377.69579624	1.81100808
357.25	377.49457312	1.81100808
358.78	378.2994656	1.81100808
359.44	378.2994656	1.81100808
360.77	379.3055812	1.81100808
361.63	379.3055812	1.81100808
363.82	380.11047368	1.81100808
366.01	381.11658928	1.81100808
368.19	382.323928	1.81100808

System: 1-butyl-3-methylimidazolium nitrate; phases: Crystal 4
Fixed: Pressure, kPa = 101.325
Property: Molar enthalpy function {Hm(T)-Hm(0)}/T, J/K/mol (Crystal 4); method: Small (less than 1 g) adiabatic calorimetry
Temperature, K	Molar enthalpy function {Hm(T)-Hm(0)}/T, J/K/mol	uncertainty
5	0.135	0.022
10	1.15	0.04
15	3.41	0.07
20	6.73	0.1
25	10.82	0.13
30	15.39	0.17
35	20.22	0.2
40	25.13	0.22
45	30.03	0.25
50	34.86	0.27
55	39.57	0.3
60	44.13	0.32
70	52.78	0.37
80	60.79	0.41
90	68.19	0.47
100	75.04	0.5
110	81.42	0.52
120	87.39	0.58
130	93.04	0.58
140	98.36	0.58
150	103.5	0.58
160	108.5	0.67
170	113.3	0.67
180	118	0.67
190	122.6	0.67
200	127.2	0.75
210	131.8	0.75
220	136.3	0.75
230	140.8	0.75
240	145.4	0.75
250	149.9	0.83
260	154.4	0.83
270	159	0.83
278.2	162.6	0.83

System: 1-butyl-3-methylimidazolium nitrate; phases: Crystal 3
Fixed: Pressure, kPa = 101.325
Property: Molar enthalpy function {Hm(T)-Hm(0)}/T, J/K/mol (Crystal 3); method: Small (less than 1 g) adiabatic calorimetry
Temperature, K	Molar enthalpy function {Hm(T)-Hm(0)}/T, J/K/mol	uncertainty
278.2	170.1	0.92
280	170.9	0.92
285	172.9	0.92
288.1	174.3	0.92

System: 1-butyl-3-methylimidazolium nitrate; phases: Crystal 2
Fixed: Pressure, kPa = 101.325
Property: Molar enthalpy function {Hm(T)-Hm(0)}/T, J/K/mol (Crystal 2); method: Small (less than 1 g) adiabatic calorimetry
Temperature, K	Molar enthalpy function {Hm(T)-Hm(0)}/T, J/K/mol	uncertainty
288.1	175.5	0.92
290	176.4	0.92
292.2	177.3	0.92

System: 1-butyl-3-methylimidazolium nitrate; phases: Crystal 1
Fixed: Pressure, kPa = 101.325
Property: Molar enthalpy function {Hm(T)-Hm(0)}/T, J/K/mol (Crystal 1); method: Small (less than 1 g) adiabatic calorimetry
Temperature, K	Molar enthalpy function {Hm(T)-Hm(0)}/T, J/K/mol	uncertainty
292.2	177.8	0.92
295	179	0.92
298.15	180.3	0.92
300	181.1	0.92
309.16	184.9	0.92

System: 1-butyl-3-methylimidazolium nitrate; phases: Liquid
Fixed: Pressure, kPa = 101.325
Property: Molar enthalpy function {Hm(T)-Hm(0)}/T, J/K/mol (Liquid); method: Small (less than 1 g) adiabatic calorimetry
Temperature, K	Molar enthalpy function {Hm(T)-Hm(0)}/T, J/K/mol	uncertainty
309.16	243.1	1.2
310	243.4	1.2
320	247.1	1.2
330	250.6	1.2
340	254.1	1.2
350	257.4	1.2
360	260.7	1.2
370	264	1.2

System: 1-butyl-3-methylimidazolium nitrate; phases: Crystal 4
Fixed: Pressure, kPa = 101.325
Property: Molar entropy, J/K/mol (Crystal 4); method: Small (less than 1 g) adiabatic calorimetry
Temperature, K	Molar entropy, J/K/mol	uncertainty
5	0.18	0.035
10	1.52	0.07
15	4.64	0.12
20	9.379	0.2
25	15.39	0.27
30	22.34	0.32
35	29.9	0.37
40	37.83	0.43
45	45.98	0.5
50	54.22	0.56
55	62.47	0.61
60	70.67	0.68
70	86.8	0.83
80	102.4	0.92
90	117.4	1
100	131.8	1.1
110	145.6	1.2
120	158.9	1.2
130	171.8	1.3
140	184.2	1.4
150	196.3	1.5
160	208.1	1.6
170	219.7	1.6
180	231	1.7
190	242.1	1.7
200	253.1	1.8
210	264	1.9
220	274.7	1.9
230	285.4	2
240	296.1	2.1
250	306.6	2.2
260	317.1	2.2
270	327.5	2.2
278.2	336	2.3

System: 1-butyl-3-methylimidazolium nitrate; phases: Crystal 3
Fixed: Pressure, kPa = 101.325
Property: Molar entropy, J/K/mol (Crystal 3); method: Small (less than 1 g) adiabatic calorimetry
Temperature, K	Molar entropy, J/K/mol	uncertainty
278.2	343.5	2.3
280	345.3	2.4
285	350.5	2.4
288.1	353.7	2.4

System: 1-butyl-3-methylimidazolium nitrate; phases: Crystal 2
Fixed: Pressure, kPa = 101.325
Property: Molar entropy, J/K/mol (Crystal 2); method: Small (less than 1 g) adiabatic calorimetry
Temperature, K	Molar entropy, J/K/mol	uncertainty
288.1	354.9	2.4
290	356.9	2.4
292.2	359.2	2.5

System: 1-butyl-3-methylimidazolium nitrate; phases: Crystal 1
Fixed: Pressure, kPa = 101.325
Property: Molar entropy, J/K/mol (Crystal 1); method: Small (less than 1 g) adiabatic calorimetry
Temperature, K	Molar entropy, J/K/mol	uncertainty
292.2	359.7	2.5
295	362.6	2.5
298.15	365.8	2.5
300	367.7	2.5
309.16	377.1	2.6

System: 1-butyl-3-methylimidazolium nitrate; phases: Liquid
Fixed: Pressure, kPa = 101.325
Property: Molar entropy, J/K/mol (Liquid); method: Small (less than 1 g) adiabatic calorimetry
Temperature, K	Molar entropy, J/K/mol	uncertainty
309.16	435.3	2.9
310	436.3	2.9
320	447.7	3
330	458.9	3.1
340	469.9	3.2
350	480.7	3.2
360	491.2	3.2
370	501.6	3.3

Reaction: -1 1-butyl-3-methylimidazolium nitrate + 8 carbon dioxide + 1.5 nitrogen + 7.5 water + -10.25 oxygen
Property: Molar internal energy of reaction at constant volume, kJ/mol
-5011.35
