Measured thermophysical data. Thermal conductivity of ammonia borane complex and its composites with aluminum powder
Source: Thermochim. Acta, 2007, 10.1016/j.tca.2006.10.012
Compound 1: ammonia borane, BH6N, InChI=1S/BH6N/c1-2/h1-2H3, purity 99%

System: ammonia borane; phases: Crystal
Property: Thermal conductivity, W/m/K (Crystal); method: Coaxial cylinder method
Temperature, K	Pressure, kPa	Thermal conductivity, W/m/K	uncertainty
300	101.325	15	3
