Measured thermophysical data. Thermochemical properties of rare earth complexes with salicylic acid
Source: Thermochim. Acta, 2007, 10.1016/j.tca.2007.07.006
Compound 1: lanthanum oxide, La2O3, InChI=1S/2La.3O/q2*+3;3*-2
Compound 2: carbon dioxide, CO2, InChI=1S/CO2/c2-1-3
Compound 3: water, H2O, InChI=1S/H2O/h1H2
Compound 4: oxygen, O2, InChI=1S/O2/c1-2
Compound 5: ceric oxide, CeO2, InChI=1S/Ce.2O/q+4;2*-2
Compound 6: praseodymium oxide (Pr2O3), O3Pr2, InChI=1S/3O.2Pr/q3*-2;2*+3
Compound 7: neodymium(III) oxide, Nd2O3, InChI=1S/2Nd.3O/q2*+3;3*-2
Compound 8: samarium oxide (Sm2O3), O3Sm2, InChI=1S/3O.2Sm/q3*-2;2*+3
Compound 9: europium oxide (Eu2O3), Eu2O3, InChI=1S/2Eu.3O/q2*+3;3*-2
Compound 10: gadolinium sesquioxide, Gd2O3, InChI=1S/2Gd.3O/q2*+3;3*-2
Compound 11: terbium oxide (Tb2O3), O3Tb2, InChI=1S/3O.2Tb/q3*-2;2*+3
Compound 12: dysprosium oxide (Dy2O3), Dy2O3, InChI=1S/2Dy.3O/q2*+3;3*-2
Compound 13: holmium oxide (Ho2O3), Ho2O3, InChI=1S/2Ho.3O/q2*+3;3*-2
Compound 14: erbium oxide, Er2O3, InChI=1S/2Er.3O/q2*+3;3*-2
Compound 15: thulium oxide (Tm2O3), O3Tm2, InChI=1S/3O.2Tm/q3*-2;2*+3
Compound 16: ytterbium oxide (Yb2O3), O3Yb2, InChI=1S/3O.2Yb/q3*-2;2*+3
Compound 17: lutetium oxide (Lu2O3), Lu2O3, InChI=1S/2Lu.3O/q2*+3;3*-2
Compound 18: lanthanum trisalicylate dihydrate, C21H19LaO11, InChI=1S/3C7H6O3.La.2H2O/c3*8-6-4-2-1-3-5(6)7(9)10;;;/h3*1-4,8H,(H,9,10);;2*1H2/q;;;+3;;/p-3, purity 99.9%
Compound 19: cerium trisalicylate dihydrate, C21H19CeO11, InChI=1S/3C7H6O3.Ce.2H2O/c3*8-6-4-2-1-3-5(6)7(9)10;;;/h3*1-4,8H,(H,9,10);;2*1H2/q;;;+3;;/p-3, purity 99.9%
Compound 20: praseodymium trisalicylate dihydrate, C21H19O11Pr, InChI=1S/3C7H6O3.2H2O.Pr/c3*8-6-4-2-1-3-5(6)7(9)10;;;/h3*1-4,8H,(H,9,10);2*1H2;/q;;;;;+3/p-3, purity 99.9%
Compound 21: neodymium trisalicylate dihydrate, C21H19NdO11, InChI=1S/3C7H6O3.Nd.2H2O/c3*8-6-4-2-1-3-5(6)7(9)10;;;/h3*1-4,8H,(H,9,10);;2*1H2/q;;;+3;;/p-3, purity 99.9%
Compound 22: samarium trisalicylate dihydrate, C21H19O11Sm, InChI=1S/3C7H6O3.2H2O.Sm/c3*8-6-4-2-1-3-5(6)7(9)10;;;/h3*1-4,8H,(H,9,10);2*1H2;/q;;;;;+3/p-3, purity 99.9%
Compound 23: europium trisalicylate monohydrate, C21H17EuO10, InChI=1S/3C7H6O3.Eu.H2O/c3*8-6-4-2-1-3-5(6)7(9)10;;/h3*1-4,8H,(H,9,10);;1H2/q;;;+3;/p-3, purity 99.9%
Compound 24: gadolinium trisalicylate monohydrate, C21H17GdO10, InChI=1S/3C7H6O3.Gd.H2O/c3*8-6-4-2-1-3-5(6)7(9)10;;/h3*1-4,8H,(H,9,10);;1H2/q;;;+3;/p-3, purity 99.9%
Compound 25: terbium trisalicylate monohydrate, C21H17O10Tb, InChI=1S/3C7H6O3.H2O.Tb/c3*8-6-4-2-1-3-5(6)7(9)10;;/h3*1-4,8H,(H,9,10);1H2;/q;;;;+3/p-3, purity 99.9%
Compound 26: dysprosium trisalicylate monohydrate, C21H17DyO10, InChI=1S/3C7H6O3.Dy.H2O/c3*8-6-4-2-1-3-5(6)7(9)10;;/h3*1-4,8H,(H,9,10);;1H2/q;;;+3;/p-3, purity 99.9%
Compound 27: holmium trisalicylate monohydrate, C21H17HoO10, InChI=1S/3C7H6O3.Ho.H2O/c3*8-6-4-2-1-3-5(6)7(9)10;;/h3*1-4,8H,(H,9,10);;1H2/q;;;+3;/p-3, purity 99.9%
Compound 28: erbium trisalicylate monohydrate, C21H17ErO10, InChI=1S/3C7H6O3.Er.H2O/c3*8-6-4-2-1-3-5(6)7(9)10;;/h3*1-4,8H,(H,9,10);;1H2/q;;;+3;/p-3, purity 99.9%
Compound 29: thulium trisalicylate monohydrate, C21H17O10Tm, InChI=1S/3C7H6O3.H2O.Tm/c3*8-6-4-2-1-3-5(6)7(9)10;;/h3*1-4,8H,(H,9,10);1H2;/q;;;;+3/p-3, purity 99.9%
Compound 30: ytterbium trisalicylate monohydrate, C21H17O10Yb, InChI=1S/3C7H6O3.H2O.Yb/c3*8-6-4-2-1-3-5(6)7(9)10;;/h3*1-4,8H,(H,9,10);1H2;/q;;;;+3/p-3, purity 99.9%
Compound 31: lutetium trisalicylate monohydrate, C21H17LuO10, InChI=1S/3C7H6O3.Lu.H2O/c3*8-6-4-2-1-3-5(6)7(9)10;;/h3*1-4,8H,(H,9,10);;1H2/q;;;+3;/p-3, purity 99.9%

Reaction: .5 lanthanum oxide + -1 lanthanum trisalicylate dihydrate + 21 carbon dioxide + 9.5 water + -21 oxygen
Property: Molar internal energy of reaction at constant volume, kJ/mol
-9521.64

Reaction: 1 ceric oxide + -1 cerium trisalicylate dihydrate + 21 carbon dioxide + 9.5 water + -21.25 oxygen
Property: Molar internal energy of reaction at constant volume, kJ/mol
-9760.57

Reaction: .5 praseodymium oxide (Pr2O3) + -1 praseodymium trisalicylate dihydrate + 21 carbon dioxide + 9.5 water + -21 oxygen
Property: Molar internal energy of reaction at constant volume, kJ/mol
-9334.09

Reaction: .5 neodymium(III) oxide + -1 neodymium trisalicylate dihydrate + 21 carbon dioxide + 9.5 water + -21 oxygen
Property: Molar internal energy of reaction at constant volume, kJ/mol
-9577.31

Reaction: .5 samarium oxide (Sm2O3) + -1 samarium trisalicylate dihydrate + 21 carbon dioxide + 9.5 water + -21 oxygen
Property: Molar internal energy of reaction at constant volume, kJ/mol
-9576.67

Reaction: .5 europium oxide (Eu2O3) + -1 europium trisalicylate monohydrate + 21 carbon dioxide + 8.5 water + -21 oxygen
Property: Molar internal energy of reaction at constant volume, kJ/mol
-9029.5

Reaction: .5 gadolinium sesquioxide + -1 gadolinium trisalicylate monohydrate + 21 carbon dioxide + 8.5 water + -21 oxygen
Property: Molar internal energy of reaction at constant volume, kJ/mol
-8978.06

Reaction: .5 terbium oxide (Tb2O3) + -1 terbium trisalicylate monohydrate + 21 carbon dioxide + 8.5 water + -21 oxygen
Property: Molar internal energy of reaction at constant volume, kJ/mol
-9087.35

Reaction: .5 dysprosium oxide (Dy2O3) + -1 dysprosium trisalicylate monohydrate + 21 carbon dioxide + 8.5 water + -21 oxygen
Property: Molar internal energy of reaction at constant volume, kJ/mol
-8953.87

Reaction: .5 holmium oxide (Ho2O3) + -1 holmium trisalicylate monohydrate + 21 carbon dioxide + 8.5 water + -21 oxygen
Property: Molar internal energy of reaction at constant volume, kJ/mol
-8332.43

Reaction: .5 erbium oxide + -1 erbium trisalicylate monohydrate + 21 carbon dioxide + 8.5 water + -21 oxygen
Property: Molar internal energy of reaction at constant volume, kJ/mol
-8022

Reaction: .5 thulium oxide (Tm2O3) + -1 thulium trisalicylate monohydrate + 21 carbon dioxide + 8.5 water + -21 oxygen
Property: Molar internal energy of reaction at constant volume, kJ/mol
-8361.32

Reaction: .5 ytterbium oxide (Yb2O3) + -1 ytterbium trisalicylate monohydrate + 21 carbon dioxide + 8.5 water + -21 oxygen
Property: Molar internal energy of reaction at constant volume, kJ/mol
-8445.62

Reaction: .5 lutetium oxide (Lu2O3) + -1 lutetium trisalicylate monohydrate + 21 carbon dioxide + 8.5 water + -21 oxygen
Property: Molar internal energy of reaction at constant volume, kJ/mol
-8343
