Measured thermophysical data. Effect of temperature on the solvation of 15-crown-5 ether inwater ethanol and water propan-1-ol mixtures
Source: Thermochim. Acta, 2013, 10.1016/j.tca.2013.06.023
Compound 1: 1,4,7,10,13-pentaoxacyclopentadecane, C10H20O5, InChI=1S/C10H20O5/c1-2-12-5-6-14-9-10-15-8-7-13-4-3-11-1/h1-10H2
Compound 2: water, H2O, InChI=1S/H2O/h1H2
Compound 3: ethanol, C2H6O, InChI=1S/C2H6O/c1-2-3/h3H,2H2,1H3
Compound 4: propan-1-ol, C3H8O, InChI=1S/C3H8O/c1-2-3-4/h4H,2-3H2,1H3

System: ethanol + water + 1,4,7,10,13-pentaoxacyclopentadecane; phases: Liquid
Fixed: Pressure, kPa = 101
Fixed: Mole fraction of 1,4,7,10,13-pentaoxacyclopentadecane = 0
Property: Molar enthalpy of solution, kJ/mol (Liquid); method: ISOPERIBOL
Temperature, K	Solvent: Mole fraction of water	Molar enthalpy of solution, kJ/mol	uncertainty
293.15	0	7.1	0.06
293.15	0.1	2.45	0.02
293.15	0.2	-2.12	0.02
293.15	0.3	-5.57	0.04
293.15	0.4	-8	0.06
293.15	0.5	-9.5	0.07
293.15	0.6	-10.51	0.08
293.15	0.7	-11.8	0.09
293.15	0.8	-13.89	0.11
293.15	0.9	-20.34	0.16
293.15	0.92	-23.39	0.18
293.15	0.94	-27.85	0.22
293.15	0.96	-32.11	0.25
293.15	0.98	-36.47	0.28
298.15	0	7.22	0.06
298.15	0.1	2.82	0.02
298.15	0.2	-1.69	0.01
298.15	0.3	-5.04	0.04
298.15	0.4	-7.33	0.06
298.15	0.5	-9.02	0.07
298.15	0.6	-10.14	0.08
298.15	0.7	-11.41	0.09
298.15	0.8	-13.6	0.11
298.15	0.9	-19.97	0.15
298.15	0.92	-22.89	0.18
298.15	0.94	-26.94	0.21
298.15	0.96	-31.02	0.24
298.15	0.98	-35.24	0.27
303.15	0	7.34	0.06
303.15	0.1	3.14	0.02
303.15	0.2	-1.21	0.01
303.15	0.3	-4.44	0.03
303.15	0.4	-6.81	0.05
303.15	0.5	-8.5	0.07
303.15	0.6	-9.66	0.08
303.15	0.7	-11.06	0.09
303.15	0.8	-13.3	0.1
303.15	0.9	-19.51	0.15
303.15	0.92	-22.32	0.17
303.15	0.94	-26.04	0.2
303.15	0.96	-29.94	0.23
303.15	0.98	-34	0.26
308.15	0	7.48	0.06
308.15	0.1	3.5	0.03
308.15	0.2	-0.74	0.01
308.15	0.3	-3.82	0.03
308.15	0.4	-6.19	0.05
308.15	0.5	-8	0.06
308.15	0.6	-9.28	0.07
308.15	0.7	-10.73	0.08
308.15	0.8	-13	0.1
308.15	0.9	-19.12	0.15
308.15	0.92	-21.8	0.17
308.15	0.94	-25.18	0.2
308.15	0.96	-28.91	0.22
308.15	0.98	-32.83	0.25

System: propan-1-ol + water + 1,4,7,10,13-pentaoxacyclopentadecane; phases: Liquid
Fixed: Pressure, kPa = 101
Fixed: Mole fraction of 1,4,7,10,13-pentaoxacyclopentadecane = 0
Property: Molar enthalpy of solution, kJ/mol (Liquid); method: ISOPERIBOL
Temperature, K	Solvent: Mole fraction of water	Molar enthalpy of solution, kJ/mol	uncertainty
293.15	0	8.7	0.07
293.15	0.1	0.96	0.01
293.15	0.2	-4.75	0.04
293.15	0.3	-9.01	0.07
293.15	0.4	-10.9	0.08
293.15	0.5	-11.95	0.09
293.15	0.6	-13.51	0.1
293.15	0.7	-15.26	0.12
293.15	0.8	-18.05	0.14
293.15	0.9	-21.65	0.17
293.15	0.92	-23.16	0.18
293.15	0.94	-25.61	0.2
293.15	0.96	-30.36	0.24
293.15	0.98	-35.82	0.28
298.15	0	8.85	0.07
298.15	0.1	1.32	0.01
298.15	0.2	-4.26	0.03
298.15	0.3	-8.46	0.07
298.15	0.4	-10.3	0.08
298.15	0.5	-11.37	0.09
298.15	0.6	-12.99	0.1
298.15	0.7	-14.89	0.12
298.15	0.8	-17.65	0.14
298.15	0.9	-21.09	0.16
298.15	0.92	-22.5	0.17
298.15	0.94	-24.61	0.19
298.15	0.96	-28.82	0.22
298.15	0.98	-34.42	0.27
303.15	0	9.01	0.07
303.15	0.1	1.67	0.01
303.15	0.2	-3.78	0.03
303.15	0.3	-7.9	0.06
303.15	0.4	-9.67	0.08
303.15	0.5	-10.84	0.08
303.15	0.6	-12.51	0.1
303.15	0.7	-14.49	0.11
303.15	0.8	-17.25	0.13
303.15	0.9	-20.57	0.16
303.15	0.92	-21.75	0.17
303.15	0.94	-23.68	0.18
303.15	0.96	-27.61	0.21
303.15	0.98	-33.04	0.26
308.15	0	9.16	0.07
308.15	0.1	2.03	0.02
308.15	0.2	-3.25	0.03
308.15	0.3	-7.35	0.06
308.15	0.4	-9.1	0.07
308.15	0.5	-10.3	0.08
308.15	0.6	-11.98	0.09
308.15	0.7	-14.07	0.11
308.15	0.8	-16.85	0.13
308.15	0.9	-20.05	0.16
308.15	0.92	-21.08	0.16
308.15	0.94	-22.69	0.18
308.15	0.96	-26.44	0.2
308.15	0.98	-31.72	0.25
