Measured thermophysical data. Thermochemistry of mixed calcium phosphate Ca8P2O7(PO4)4
Source: Thermochim. Acta, 2008, 10.1016/j.tca.2008.04.021
Compound 1: calcium phosphate, Ca3O8P2, InChI=1S/3Ca.2H3O4P/c;;;2*1-5(2,3)4/h;;;2*(H3,1,2,3,4)/q3*+2;;/p-6, purity 98%
Compound 2: calcium pyrophosphate, Ca2O7P2, InChI=1S/2Ca.H4O7P2/c;;1-8(2,3)7-9(4,5)6/h;;(H2,1,2,3)(H2,4,5,6)/q2*+2;/p-4, purity 98%
Compound 3: calcium (diphosphate) phosphate (Ca8(P2O7)(PO4)4), Ca8O23P6, InChI=1S/8Ca.H4O7P2.4H3O4P/c;;;;;;;;1-8(2,3)7-9(4,5)6;4*1-5(2,3)4/h;;;;;;;;(H2,1,2,3)(H2,4,5,6);4*(H3,1,2,3,4)/q8*+2;;;;;/p-16, purity 98%

Reaction: -1 calcium pyrophosphate + 1 calcium (diphosphate) phosphate (Ca8(P2O7)(PO4)4) + -2 calcium phosphate
Property: Molar enthalpy of reaction, kJ/mol
10.83
