Measured thermophysical data. Effect of properties of the N,N-dimethylformamide-methanol and N,N-dimethylformamide-water mixtures on the solution enthalpy of glymes in these mixtures at 298.15 K
Source: Thermochim. Acta, 2017, 10.1016/j.tca.2017.03.001
Compound 1: 2,5,8-trioxanonane, C6H14O3, InChI=1S/C6H14O3/c1-7-3-5-9-6-4-8-2/h3-6H2,1-2H3, purity 99.5%
Compound 2: 2,5,8,11-tetraoxadodecane, C8H18O4, InChI=1S/C8H18O4/c1-9-3-5-11-7-8-12-6-4-10-2/h3-8H2,1-2H3, purity 99%
Compound 3: 2,5,8,11,14-pentaoxapentadecane, C10H22O5, InChI=1S/C10H22O5/c1-11-3-5-13-7-9-15-10-8-14-6-4-12-2/h3-10H2,1-2H3, purity 99%
Compound 4: 2,5,8,11,14,17-hexaoxaoctadecane, C12H26O6, InChI=1S/C12H26O6/c1-13-3-5-15-7-9-17-11-12-18-10-8-16-6-4-14-2/h3-12H2,1-2H3
Compound 5: 2,5,8,11,14,17,20-heptaoxaheneicosane, C14H30O7, InChI=1S/C14H30O7/c1-15-3-5-17-7-9-19-11-13-21-14-12-20-10-8-18-6-4-16-2/h3-14H2,1-2H3
Compound 6: methanol, CH4O, InChI=1S/CH4O/c1-2/h2H,1H3, purity 99.8%
Compound 7: dimethylformamide, C3H7NO, InChI=1S/C3H7NO/c1-4(2)3-5/h3H,1-2H3, purity 99.8%

System: methanol + dimethylformamide + 2,5,8-trioxanonane; phases: Liquid
Fixed: Pressure, kPa = 100
Fixed: Temperature, K = 298.15
Fixed: Mole fraction of 2,5,8-trioxanonane = 0
Property: Molar enthalpy of solution, kJ/mol (Liquid); method: ISOPERIBOL
Solvent: Mole fraction of methanol	Molar enthalpy of solution, kJ/mol	uncertainty
0	-0.94	0.08
0.1	-0.87	0.07
0.2	-0.78	0.07
0.3	-0.66	0.08
0.4	-0.51	0.09
0.5	-0.31	0.09
0.7	0.22	0.09
0.8	0.51	0.09
0.9	0.8	0.08
1	1.1	0.06

System: methanol + dimethylformamide + 2,5,8,11-tetraoxadodecane; phases: Liquid
Fixed: Pressure, kPa = 100
Fixed: Temperature, K = 298.15
Fixed: Mole fraction of 2,5,8,11-tetraoxadodecane = 0
Property: Molar enthalpy of solution, kJ/mol (Liquid); method: ISOPERIBOL
Solvent: Mole fraction of methanol	Molar enthalpy of solution, kJ/mol	uncertainty
0	-1.55	0.07
0.1	-1.41	0.07
0.2	-1.24	0.08
0.3	-1.04	0.08
0.4	-0.79	0.1
0.5	-0.46	0.11
0.7	0.35	0.11
0.8	0.79	0.11
0.9	1.25	0.11
1	1.71	0.05

System: methanol + dimethylformamide + 2,5,8,11,14-pentaoxapentadecane; phases: Liquid
Fixed: Pressure, kPa = 100
Fixed: Temperature, K = 298.15
Fixed: Mole fraction of 2,5,8,11,14-pentaoxapentadecane = 0
Property: Molar enthalpy of solution, kJ/mol (Liquid); method: ISOPERIBOL
Solvent: Mole fraction of methanol	Molar enthalpy of solution, kJ/mol	uncertainty
0	-2.04	0.05
0.1	-1.81	0.07
0.2	-1.58	0.08
0.3	-1.29	0.09
0.4	-0.92	0.11
0.5	-0.48	0.12
0.7	0.6	0.14
0.8	1.19	0.13
0.9	1.79	0.14
1	2.4	0.05

System: methanol + dimethylformamide + 2,5,8,11,14,17-hexaoxaoctadecane; phases: Liquid
Fixed: Pressure, kPa = 100
Fixed: Temperature, K = 298.15
Fixed: Mole fraction of 2,5,8,11,14,17-hexaoxaoctadecane = 0
Property: Molar enthalpy of solution, kJ/mol (Liquid); method: ISOPERIBOL
Solvent: Mole fraction of methanol	Molar enthalpy of solution, kJ/mol	uncertainty
0	-2.64	0.05
0.1	-2.35	0.08
0.2	-2.04	0.08
0.3	-1.69	0.1
0.4	-1.23	0.12
0.5	-0.69	0.15
0.7	0.6	0.16
0.8	1.32	0.16
0.9	2.05	0.16
1	2.79	0.05

System: methanol + dimethylformamide + 2,5,8,11,14,17,20-heptaoxaheneicosane; phases: Liquid
Fixed: Pressure, kPa = 100
Fixed: Temperature, K = 298.15
Fixed: Mole fraction of 2,5,8,11,14,17,20-heptaoxaheneicosane = 0
Property: Molar enthalpy of solution, kJ/mol (Liquid); method: ISOPERIBOL
Solvent: Mole fraction of methanol	Molar enthalpy of solution, kJ/mol	uncertainty
0	-3.19	0.06
0.1	-2.84	0.09
0.2	-2.46	0.1
0.3	-2.03	0.11
0.4	-1.5	0.13
0.5	-0.87	0.16
0.7	0.66	0.18
0.8	1.49	0.18
0.9	2.34	0.18
1	3.21	0.06

System: methanol + 2,5,8-trioxanonane; phases: Liquid
Property: Molar enthalpy of solution, kJ/mol (Liquid); method: ISOPERIBOL
Pressure, kPa	Temperature, K	Mole fraction of 2,5,8-trioxanonane	Molar enthalpy of solution, kJ/mol	uncertainty
100	298.15	0	1.1	0.06

System: methanol + 2,5,8,11-tetraoxadodecane; phases: Liquid
Property: Molar enthalpy of solution, kJ/mol (Liquid); method: ISOPERIBOL
Pressure, kPa	Temperature, K	Mole fraction of 2,5,8,11-tetraoxadodecane	Molar enthalpy of solution, kJ/mol	uncertainty
100	298.15	0	1.71	0.05

System: methanol + 2,5,8,11,14-pentaoxapentadecane; phases: Liquid
Property: Molar enthalpy of solution, kJ/mol (Liquid); method: ISOPERIBOL
Pressure, kPa	Temperature, K	Mole fraction of 2,5,8,11,14-pentaoxapentadecane	Molar enthalpy of solution, kJ/mol	uncertainty
100	298.15	0	2.4	0.05

System: methanol + 2,5,8,11,14,17-hexaoxaoctadecane; phases: Liquid
Property: Molar enthalpy of solution, kJ/mol (Liquid); method: ISOPERIBOL
Pressure, kPa	Temperature, K	Mole fraction of 2,5,8,11,14,17-hexaoxaoctadecane	Molar enthalpy of solution, kJ/mol	uncertainty
100	298.15	0	2.79	0.05

System: methanol + 2,5,8,11,14,17,20-heptaoxaheneicosane; phases: Liquid
Property: Molar enthalpy of solution, kJ/mol (Liquid); method: ISOPERIBOL
Pressure, kPa	Temperature, K	Mole fraction of 2,5,8,11,14,17,20-heptaoxaheneicosane	Molar enthalpy of solution, kJ/mol	uncertainty
100	298.15	0	3.21	0.06

System: dimethylformamide + 2,5,8-trioxanonane; phases: Liquid
Property: Molar enthalpy of solution, kJ/mol (Liquid); method: ISOPERIBOL
Pressure, kPa	Temperature, K	Mole fraction of 2,5,8-trioxanonane	Molar enthalpy of solution, kJ/mol	uncertainty
100	298.15	0	-0.94	0.08

System: dimethylformamide + 2,5,8,11-tetraoxadodecane; phases: Liquid
Property: Molar enthalpy of solution, kJ/mol (Liquid); method: ISOPERIBOL
Pressure, kPa	Temperature, K	Mole fraction of 2,5,8,11-tetraoxadodecane	Molar enthalpy of solution, kJ/mol	uncertainty
100	298.15	0	-1.55	0.07

System: dimethylformamide + 2,5,8,11,14-pentaoxapentadecane; phases: Liquid
Property: Molar enthalpy of solution, kJ/mol (Liquid); method: ISOPERIBOL
Pressure, kPa	Temperature, K	Mole fraction of 2,5,8,11,14-pentaoxapentadecane	Molar enthalpy of solution, kJ/mol	uncertainty
100	298.15	0	-2.04	0.05

System: dimethylformamide + 2,5,8,11,14,17-hexaoxaoctadecane; phases: Liquid
Property: Molar enthalpy of solution, kJ/mol (Liquid); method: ISOPERIBOL
Pressure, kPa	Temperature, K	Mole fraction of 2,5,8,11,14,17-hexaoxaoctadecane	Molar enthalpy of solution, kJ/mol	uncertainty
100	298.15	0	-2.64	0.05

System: dimethylformamide + 2,5,8,11,14,17,20-heptaoxaheneicosane; phases: Liquid
Property: Molar enthalpy of solution, kJ/mol (Liquid); method: ISOPERIBOL
Pressure, kPa	Temperature, K	Mole fraction of 2,5,8,11,14,17,20-heptaoxaheneicosane	Molar enthalpy of solution, kJ/mol	uncertainty
100	298.15	0	-3.19	0.06
