Measured thermophysical data. Benzoic acid derivatives: Evaluation of thermochemical properties with complementary experimental and computational methods
Source: Thermochim. Acta, 2015, 10.1016/j.tca.2015.03.026
Compound 1: benzoic acid, C7H6O2, InChI=1S/C7H6O2/c8-7(9)6-4-2-1-3-5-6/h1-5H,(H,8,9)
Compound 2: 2-methylbenzoic acid, C8H8O2, InChI=1S/C8H8O2/c1-6-4-2-3-5-7(6)8(9)10/h2-5H,1H3,(H,9,10), purity 99%
Compound 3: 4-methylbenzoic acid, C8H8O2, InChI=1S/C8H8O2/c1-6-2-4-7(5-3-6)8(9)10/h2-5H,1H3,(H,9,10), purity 99%
Compound 4: 2-methoxybenzoic acid, C8H8O3, InChI=1S/C8H8O3/c1-11-7-5-3-2-4-6(7)8(9)10/h2-5H,1H3,(H,9,10), purity 98%
Compound 5: 3-methoxybenzoic acid, C8H8O3, InChI=1S/C8H8O3/c1-11-7-4-2-3-6(5-7)8(9)10/h2-5H,1H3,(H,9,10), purity 99%
Compound 6: 4-methoxybenzoic acid, C8H8O3, InChI=1S/C8H8O3/c1-11-7-4-2-6(3-5-7)8(9)10/h2-5H,1H3,(H,9,10), purity 99%

System: benzoic acid; phases: Crystal, Gas
Property: Vapor or sublimation pressure, kPa (Crystal); method: Transpiration method
Temperature, K	Vapor or sublimation pressure, kPa	uncertainty
316.3	0.00095	7e-05
320.4	0.00147	0.0001
324	0.00214	0.00015
327.4	0.00302	0.0002
332.4	0.00495	0.00033
337.4	0.00809	0.00056
342.3	0.01272	0.00085
347.3	0.01965	0.0013
352.4	0.03114	0.00201
357.4	0.04619	0.00297
362.5	0.06987	0.00448
367.5	0.1076	0.00681

System: benzoic acid; phases: Crystal, Gas
Property: Vapor or sublimation pressure, kPa (Crystal); method: Closed cell (Static) method
Temperature, K	Vapor or sublimation pressure, kPa	uncertainty
297.67	0.000108	4e-06
299.96	0.000142	6e-06
300.03	0.000143	6e-06
302.51	0.000193	8e-06
304.75	0.00025	1e-05
307.27	0.000335	1.3e-05
309.63	0.000436	1.7e-05
312.08	0.000573	2.3e-05
314.4	0.000738	3e-05
314.59	0.000754	3e-05
316.91	0.000969	3.9e-05
319.48	0.00127	5e-05
321.91	0.00164	7e-05
324.39	0.00212	8e-05
326.76	0.00268	0.00011
329.2	0.00343	0.00014
331.62	0.00436	0.00017
334.07	0.00554	0.00022
336.46	0.00693	0.00028
338.98	0.00873	0.00035

System: 2-methylbenzoic acid; phases: Crystal, Gas
Property: Vapor or sublimation pressure, kPa (Crystal); method: Transpiration method
Temperature, K	Vapor or sublimation pressure, kPa	uncertainty
331.2	0.0028	0.00019
335.2	0.00421	0.00028
341.2	0.00767	0.00053
345.2	0.0112	0.00077
348.2	0.01564	0.00104
351.2	0.01962	0.00131
355.4	0.02895	0.00189
358.6	0.0389	0.00255
358.7	0.03932	0.00257
361.2	0.05138	0.00334
364.2	0.06664	0.00425
367.4	0.08391	0.0054
373	0.13387	0.00843

System: 4-methylbenzoic acid; phases: Crystal, Liquid, Air at 1 atmosphere
Property: Normal melting temperature, K (Crystal); method: DTA
Normal melting temperature, K	uncertainty
453.3	1.1

System: 4-methylbenzoic acid; phases: Crystal, Liquid, Air at 1 atmosphere
Property: Molar enthalpy of transition or fusion, kJ/mol (Crystal); method: DSC
Molar enthalpy of transition or fusion, kJ/mol	uncertainty
22.3	0.6

System: 4-methylbenzoic acid; phases: Crystal, Gas
Property: Molar enthalpy of vaporization or sublimation, kJ/mol (Crystal); method: Derived by Second law
Temperature, K	Molar enthalpy of vaporization or sublimation, kJ/mol	uncertainty
377	94.1	2.6

System: 4-methylbenzoic acid; phases: Crystal, Gas
Property: Vapor or sublimation pressure, kPa (Crystal); method: Transpiration method
Temperature, K	Vapor or sublimation pressure, kPa	uncertainty
340.4	0.00123	0.0001
343.3	0.00162	0.00012
348.5	0.00271	0.00018
356.7	0.00558	0.00035
359.3	0.00715	0.0005
363.9	0.01097	0.00074
368.5	0.01623	0.00107
373.7	0.02473	0.00167
374.4	0.02687	0.0018
378.8	0.03813	0.00244
380.1	0.04273	0.00275
384.4	0.05807	0.00372
389.2	0.08453	0.00538
394	0.12135	0.00771
398.8	0.17477	0.01096

System: 2-methoxybenzoic acid; phases: Crystal, Liquid, Air at 1 atmosphere
Property: Molar enthalpy of transition or fusion, kJ/mol (Crystal); method: DSC
Molar enthalpy of transition or fusion, kJ/mol	uncertainty
23.9	0.6

System: 2-methoxybenzoic acid; phases: Crystal, Liquid, Air at 1 atmosphere
Property: Normal melting temperature, K (Crystal); method: DTA
Normal melting temperature, K	uncertainty
374.7	1.1

System: 2-methoxybenzoic acid; phases: Crystal, Gas
Property: Vapor or sublimation pressure, kPa (Crystal); method: Transpiration method
Temperature, K	Vapor or sublimation pressure, kPa	uncertainty
344.3	0.00121	9e-05
345.3	0.00133	0.0001
345.4	0.00133	0.0001
346.4	0.0015	0.0001
347.2	0.00163	0.00012
347.4	0.00164	0.00012
348.4	0.00179	0.00012
349.2	0.00196	0.00013
350.4	0.0023	0.00015
352.4	0.00275	0.00018
353.5	0.00317	0.00021
354.5	0.00349	0.00023
355.5	0.00377	0.00025
356.5	0.00408	0.00028
357.6	0.00472	0.00031
358.4	0.00508	0.00033
359.5	0.00566	0.00038
360.5	0.00637	0.00044
361.6	0.00677	0.00046
362.5	0.00755	0.00052
363.6	0.00827	0.00057
364.5	0.00908	0.00062
366.4	0.0107	0.00072
366.6	0.01098	0.00074
368.6	0.01323	0.00089
369.6	0.01454	0.00097

System: 2-methoxybenzoic acid; phases: Crystal, Gas
Property: Vapor or sublimation pressure, kPa (Crystal); method: Closed cell (Static) method
Temperature, K	Vapor or sublimation pressure, kPa	uncertainty
318.25	6.16e-05	1.2e-06
320.73	8.28e-05	1.7e-06
323.21	0.0001133	2.3e-06
325.68	0.0001504	3e-06
328.17	0.0002043	4.1e-06
330.65	0.0002676	5.4e-06
333.12	0.0003567	7.1e-06
335.61	0.0004802	9.6e-06
335.62	0.0004752	9.5e-06
338.08	0.0006182	1.24e-05
340.58	0.000822	1.64e-05
340.58	0.0008262	1.65e-05
343.05	0.001076	2.2e-05
345.54	0.001402	2.8e-05
348.02	0.001813	3.6e-05
348.34	0.001883	3.8e-05
350.5	0.002351	4.7e-05
350.82	0.002438	4.9e-05
353.3	0.003074	6.1e-05
355.78	0.003984	8e-05
358.26	0.005029	0.000101
360.75	0.006481	0.00013
363.23	0.008104	0.000162
365.71	0.01039	0.00021
368.19	0.01325	0.00027

System: 2-methoxybenzoic acid; phases: Liquid, Gas
Property: Vapor or sublimation pressure, kPa (Liquid); method: Closed cell (Static) method
Temperature, K	Vapor or sublimation pressure, kPa	uncertainty
378.32	0.0318	0.0009
378.33	0.0318	0.0009
380.81	0.0371	0.0009
380.82	0.0371	0.0009
383.29	0.0435	0.0011
383.32	0.0435	0.0011
385.78	0.0507	0.0012
385.78	0.0504	0.0012
388.26	0.0588	0.0013
388.29	0.0585	0.0013
390.97	0.0691	0.0015
390.98	0.0695	0.0016
393.47	0.0797	0.0017
393.47	0.0801	0.0018
395.94	0.0929	0.002
395.95	0.0933	0.002
398.44	0.1072	0.0022
398.44	0.1071	0.0022
400.91	0.1239	0.0026
400.94	0.1244	0.0026
403.41	0.1413	0.0026
403.44	0.1428	0.0026
405.88	0.1621	0.0029
405.89	0.1621	0.0029
408.38	0.1849	0.0032
408.39	0.1865	0.0032
410.85	0.2113	0.0034
410.87	0.2131	0.0034
413.34	0.2389	0.0037
413.38	0.242	0.0039

System: 3-methoxybenzoic acid; phases: Crystal, Liquid, Air at 1 atmosphere
Property: Molar enthalpy of transition or fusion, kJ/mol (Crystal); method: DSC
Molar enthalpy of transition or fusion, kJ/mol	uncertainty
21.9	0.6

System: 3-methoxybenzoic acid; phases: Crystal, Liquid, Air at 1 atmosphere
Property: Normal melting temperature, K (Crystal); method: DTA
Normal melting temperature, K	uncertainty
382.1	1.1

System: 4-methoxybenzoic acid; phases: Crystal, Gas
Property: Vapor or sublimation pressure, kPa (Crystal); method: Transpiration method
Temperature, K	Vapor or sublimation pressure, kPa	uncertainty
363.3	0.00117	8e-05
368.2	0.0019	0.00013
374.9	0.00353	0.00023
383.2	0.00753	0.00052
384.5	0.0085	0.0006
388.3	0.01217	0.00082
391.1	0.01556	0.00102
394.2	0.01971	0.0013
397.2	0.0267	0.00172
400.3	0.03247	0.00211
403.4	0.04422	0.00284
406.2	0.05311	0.00335
