Measured thermophysical data. An influence of Al2O3 nanoparticles on the caloric properties and parameters of the phase transition of isopropyl alcohol in solid phase
Source: Thermochim. Acta, 2019, 10.1016/j.tca.2018.11.020
Compound 1: propan-2-ol, C3H8O, InChI=1S/C3H8O/c1-3(2)4/h3-4H,1-2H3, purity 98%

System: propan-2-ol; phases: Crystal, Liquid, Gas
Property: Triple point temperature, K (Crystal); method: Adiabatic calorimetry
Triple point temperature, K	uncertainty
184.7	0.4

System: propan-2-ol; phases: Glass, Liquid, Gas
Property: Triple point temperature, K (Glass); method: Adiabatic calorimetry
Triple point temperature, K	uncertainty
117.1	0.4

System: propan-2-ol; phases: Crystal, Liquid, Gas
Property: Molar enthalpy of transition or fusion, kJ/mol (Crystal); method: Adiabatic calorimetry
Molar enthalpy of transition or fusion, kJ/mol	uncertainty
5.327423523	0.1003586834

System: propan-2-ol; phases: Crystal
Fixed: Pressure, kPa = 101.325
Property: Molar heat capacity at constant pressure, J/K/mol (Crystal); method: Vacuum adiabatic calorimetry
Temperature, K	Molar heat capacity at constant pressure, J/K/mol	uncertainty
100	54.181670032	0.919453806
105	56.1888437	0.919453806
110	58.208036372	0.919453806
115	60.233238546	0.919453806
120	62.270459724	0.919453806
125	64.313690404	0.919453806
130	66.356921084	0.919453806
135	68.412170768	0.919453806
140	70.473429954	0.919453806
145	72.546708144	0.919453806
150	74.619986334	0.919453806
155	76.699274026	0.919453806
160	78.790580722	0.925463308
165	80.881887418	0.925463308

System: propan-2-ol; phases: Glass
Fixed: Pressure, kPa = 101.325
Property: Molar heat capacity at constant pressure, J/K/mol (Glass); method: Vacuum adiabatic calorimetry
Temperature, K	Molar heat capacity at constant pressure, J/K/mol	uncertainty
85	51.122833514	0.907434802
90	53.51461531	0.919453806
95	56.00855864	0.919453806
100	58.628701512	0.919453806
105	61.363024922	0.919453806
110	64.235566878	0.919453806

System: propan-2-ol; phases: Metastable liquid
Fixed: Pressure, kPa = 101.325
Property: Molar heat capacity at constant pressure, J/K/mol (Metastable liquid); method: Vacuum adiabatic calorimetry
Temperature, K	Molar heat capacity at constant pressure, J/K/mol	uncertainty
120	103.93433709	0.925463308
125	103.760061532	0.925463308
130	103.507662448	0.925463308
135	103.255263364	0.925463308
