Measured thermophysical data. Volumetric properties of the isopropanolamine water mixture at atmospheric pressure from 283.15 to 353.15K
Source: Thermochim. Acta, 2006, 10.1016/j.tca.2005.10.007
Compound 1: water, H2O, InChI=1S/H2O/h1H2
Compound 2: 1-amino-2-propanol, C3H9NO, InChI=1S/C3H9NO/c1-3(5)2-4/h3,5H,2,4H2,1H3

System: 1-amino-2-propanol; phases: Liquid
Fixed: Pressure, kPa = 101.325
Property: Mass density, kg/m3 (Liquid); method: Vibrating tube method
Temperature, K	Mass density, kg/m3	uncertainty
278.16	972.17	0.49
278.65	971.79	0.49
279.14	971.4	0.49
279.65	971.01	0.49
280.15	970.62	0.49
280.65	970.23	0.49
281.15	969.84	0.49
281.65	969.45	0.49
282.15	969.05	0.49
282.65	968.66	0.49
283.15	968.27	0.49
283.65	967.88	0.49
284.15	967.49	0.49
284.65	967.1	0.49
285.15	966.7	0.49
285.65	966.31	0.49
286.15	965.92	0.49
286.64	965.52	0.49
287.15	965.13	0.49
287.65	964.73	0.49
288.15	964.34	0.49
288.65	963.95	0.49
289.15	963.55	0.49
289.65	963.15	0.49
290.15	962.76	0.49
290.65	962.36	0.49
291.15	961.97	0.49
291.64	961.57	0.49
292.15	961.18	0.49
292.65	960.78	0.49
293.15	960.38	0.49
293.64	959.99	0.49
294.14	959.59	0.49
294.64	959.19	0.49
295.15	958.79	0.49
295.65	958.39	0.49
296.15	957.99	0.49
296.65	957.6	0.49
297.15	957.2	0.49
297.64	956.8	0.49
298.15	956.4	0.49
298.65	956	0.49
299.15	955.6	0.49
299.64	955.2	0.49
300.14	954.8	0.49
300.64	954.4	0.49
301.15	954	0.49
301.65	953.59	0.49
302.14	953.2	0.5
302.65	952.79	0.49
303.15	952.39	0.49
303.64	951.99	0.49
304.15	951.59	0.49
304.65	951.18	0.49
305.15	950.78	0.48
305.64	950.38	0.48
306.15	949.98	0.48
306.65	949.57	0.48
307.15	949.17	0.48
307.64	948.77	0.48
308.15	948.36	0.48
308.65	947.95	0.48
309.15	947.55	0.48
309.65	947.14	0.48
310.15	946.74	0.48
310.65	946.33	0.48
311.15	945.92	0.48
311.64	945.52	0.48
312.15	945.11	0.48
312.64	944.7	0.5
313.15	944.3	0.48
313.65	943.89	0.48
314.15	943.48	0.48
314.65	943.07	0.48
315.15	942.66	0.48
315.65	942.25	0.48
316.15	941.84	0.48
316.65	941.43	0.48
317.15	941.03	0.48
317.65	940.61	0.48
318.15	940.2	0.48
318.65	939.79	0.48
319.14	939.38	0.48
319.65	938.96	0.48
320.15	938.55	0.48
320.64	938.14	0.48
321.15	937.72	0.48
321.65	937.31	0.48
322.15	936.9	0.48
322.65	936.49	0.48
323.15	936.08	0.48
323.65	935.66	0.48
324.15	935.25	0.48
324.65	934.83	0.48
325.15	934.42	0.48
325.65	934.01	0.48
326.15	933.59	0.48
326.65	933.18	0.48
327.15	932.76	0.48
327.65	932.35	0.48
328.15	931.93	0.48
328.66	931.51	0.48
329.15	931.09	0.48
329.66	930.68	0.48
330.16	930.26	0.48
330.66	929.84	0.48
331.15	929.42	0.48
331.66	929	0.48
332.16	928.58	0.48
332.66	928.16	0.48
333.16	927.74	0.48
333.66	927.31	0.48
334.16	926.89	0.47
334.66	926.47	0.47
335.16	926.05	0.47
335.66	925.63	0.47
336.16	925.2	0.47
336.66	924.78	0.47
337.16	924.36	0.47
337.66	923.93	0.47
338.16	923.5	0.47
338.66	923.08	0.47
339.16	922.65	0.47
339.66	922.23	0.47
340.16	921.8	0.47
340.66	921.38	0.47
341.16	920.95	0.47
341.66	920.52	0.47
342.16	920.09	0.47
342.66	919.66	0.47
343.16	919.23	0.47
343.66	918.8	0.5
344.16	918.37	0.47
344.66	917.94	0.47
345.16	917.51	0.47
345.66	917.08	0.47
346.16	916.65	0.47
346.66	916.21	0.47
347.16	915.78	0.47
347.66	915.35	0.47
348.16	914.92	0.47
348.66	914.48	0.47
349.16	914.05	0.47
349.66	913.61	0.47
350.16	913.18	0.47
350.66	912.74	0.47
351.16	912.3	0.5
351.66	911.87	0.47
352.16	911.43	0.47
352.66	910.99	0.47
353.16	910.55	0.47
353.66	910.12	0.47
354.16	909.68	0.47
354.66	909.23	0.47
355.16	908.8	0.5
355.66	908.35	0.47
356.16	907.91	0.47
356.66	907.47	0.47
357.16	907.03	0.47
357.66	906.59	0.47
358.16	906.14	0.47
358.66	905.7	0.5
359.16	905.26	0.47
359.66	904.81	0.47
360.16	904.36	0.47
360.65	903.92	0.47
361.16	903.47	0.47
361.66	903.03	0.47
362.16	902.58	0.47
362.66	902.13	0.47
363.15	901.68	0.46
363.16	901.69	0.46

System: 1-amino-2-propanol + water; phases: Liquid
Fixed: Pressure, kPa = 101
Property: Mass density, kg/m3 (Liquid); method: Vibrating tube method
Mole fraction of water	Temperature, K	Mass density, kg/m3	uncertainty
0.0438	283.15	970.22	0.47
0.0438	288.15	966.31	0.47
0.0438	293.15	962.38	0.47
0.0438	298.15	958.41	0.47
0.0438	303.15	954.42	0.47
0.0438	308.15	950.39	0.46
0.0438	313.15	946.34	0.46
0.0438	318.15	942.26	0.46
0.0438	323.15	938.15	0.46
0.0438	328.15	934	0.46
0.0438	333.15	929.82	0.46
0.0438	338.15	925.59	0.45
0.0438	343.15	921.33	0.45
0.0438	348.15	917.02	0.45
0.0438	353.15	912.66	0.45
0.0801	283.15	971.77	0.46
0.0801	288.15	967.87	0.45
0.0801	293.15	963.94	0.45
0.0801	298.15	959.99	0.45
0.0801	303.15	956.01	0.45
0.0801	308.15	952	0.45
0.0801	313.15	947.96	0.45
0.0801	318.15	943.89	0.45
0.0801	323.15	939.79	0.44
0.0801	328.15	935.65	0.44
0.0801	333.15	931.47	0.44
0.0801	338.15	927.26	0.44
0.0801	343.15	923	0.44
0.0801	348.15	918.7	0.44
0.0801	353.15	914.34	0.43
0.1269	283.15	974.08	0.43
0.1269	288.15	970.22	0.43
0.1269	293.15	966.31	0.43
0.1269	298.15	962.38	0.43
0.1269	303.15	958.41	0.43
0.1269	308.15	954.42	0.43
0.1269	313.15	950.39	0.43
0.1269	318.15	946.33	0.42
0.1269	323.15	942.24	0.42
0.1269	328.15	938.11	0.42
0.1269	333.15	933.95	0.42
0.1269	338.15	929.74	0.42
0.1269	343.15	925.48	0.42
0.1269	348.15	921.19	0.42
0.1269	353.15	916.84	0.41
0.1584	283.15	975.52	0.42
0.1584	288.15	971.66	0.42
0.1584	293.15	967.77	0.42
0.1584	298.15	963.84	0.42
0.1584	303.15	959.89	0.41
0.1584	308.15	955.9	0.41
0.1584	313.15	951.88	0.41
0.1584	318.15	947.83	0.41
0.1584	323.15	943.75	0.41
0.1584	328.15	939.62	0.41
0.1584	333.15	935.46	0.41
0.1584	338.15	931.25	0.4
0.1584	343.15	927	0.4
0.1584	348.15	922.71	0.4
0.1584	353.15	918.36	0.4
0.2003	283.15	977.67	0.4
0.2003	288.15	973.82	0.4
0.2003	293.15	969.94	0.4
0.2003	298.15	966.03	0.4
0.2003	303.15	962.09	0.4
0.2003	308.15	958.11	0.39
0.2003	313.15	954.1	0.39
0.2003	318.15	950.06	0.39
0.2003	323.15	945.98	0.39
0.2003	328.15	941.87	0.39
0.2003	333.15	937.7	0.39
0.2003	338.15	933.51	0.39
0.2003	343.15	929.26	0.39
0.2003	348.15	924.97	0.38
0.2003	353.15	920.63	0.38
0.2999	283.15	983.38	0.35
0.2999	288.15	979.58	0.35
0.2999	293.15	975.73	0.35
0.2999	298.15	971.85	0.35
0.2999	303.15	967.94	0.35
0.2999	308.15	963.99	0.35
0.2999	313.15	960	0.35
0.2999	318.15	955.98	0.35
0.2999	323.15	951.92	0.35
0.2999	328.15	947.82	0.34
0.2999	333.15	943.67	0.34
0.2999	338.15	939.48	0.34
0.2999	343.15	935.23	0.34
0.2999	348.15	930.93	0.34
0.2999	353.15	926.59	0.34
0.3498	283.15	986.51	0.33
0.3498	288.15	982.72	0.33
0.3498	293.15	978.89	0.33
0.3498	298.15	975.02	0.33
0.3498	303.15	971.12	0.33
0.3498	308.15	967.18	0.33
0.3498	313.15	963.21	0.32
0.3498	318.15	959.19	0.32
0.3498	323.15	955.13	0.32
0.3498	328.15	951.03	0.32
0.3498	333.15	946.88	0.32
0.3498	338.15	942.69	0.32
0.3498	343.15	938.45	0.32
0.3498	348.15	934.15	0.32
0.3498	353.15	929.81	0.32
0.3999	283.15	989.63	0.31
0.3999	288.15	985.84	0.31
0.3999	293.15	982.02	0.31
0.3999	298.15	978.16	0.3
0.3999	303.15	974.27	0.3
0.3999	308.15	970.34	0.3
0.3999	313.15	966.36	0.3
0.3999	318.15	962.35	0.3
0.3999	323.15	958.3	0.3
0.3999	328.15	954.21	0.3
0.3999	333.15	950.06	0.3
0.3999	338.15	945.87	0.3
0.3999	343.15	941.62	0.3
0.3999	348.15	937.32	0.3
0.3999	353.15	932.97	0.3
0.4499	283.15	993.04	0.28
0.4499	288.15	989.26	0.28
0.4499	293.15	985.45	0.28
0.4499	298.15	981.59	0.28
0.4499	303.15	977.71	0.28
0.4499	308.15	973.78	0.28
0.4499	313.15	969.81	0.28
0.4499	318.15	965.8	0.28
0.4499	323.15	961.75	0.28
0.4499	328.15	957.65	0.28
0.4499	333.15	953.5	0.28
0.4499	338.15	949.31	0.28
0.4499	343.15	945.06	0.28
0.4499	348.15	940.76	0.28
0.4499	353.15	936.4	0.27
0.4968	283.15	996.4	0.26
0.4968	288.15	992.66	0.26
0.4968	293.15	988.85	0.26
0.4968	298.15	985	0.26
0.4968	303.15	981.12	0.26
0.4968	308.15	977.19	0.26
0.4968	313.15	973.23	0.26
0.4968	318.15	969.22	0.26
0.4968	323.15	965.17	0.26
0.4968	328.15	961.07	0.26
0.4968	333.15	956.92	0.26
0.4968	338.15	952.72	0.26
0.4968	343.15	948.47	0.26
0.4968	348.15	944.16	0.26
0.4968	353.15	939.8	0.25
0.5122	283.15	997.62	0.25
0.5122	288.15	993.86	0.25
0.5122	293.15	990.05	0.25
0.5122	298.15	986.21	0.25
0.5122	303.15	982.33	0.25
0.5122	308.15	978.4	0.25
0.5122	313.15	974.44	0.25
0.5122	318.15	970.43	0.25
0.5122	323.15	966.38	0.25
0.5122	328.15	962.28	0.25
0.5122	333.15	958.13	0.25
0.5122	338.15	953.93	0.25
0.5122	343.15	949.68	0.25
0.5122	348.15	945.37	0.25
0.5122	353.15	941.01	0.25
0.5501	283.15	1000.3	0.24
0.5501	288.15	996.55	0.24
0.5501	293.15	992.74	0.24
0.5501	298.15	988.89	0.24
0.5501	303.15	985.01	0.24
0.5501	308.15	981.09	0.23
0.5501	313.15	977.12	0.23
0.5501	318.15	973.11	0.23
0.5501	323.15	969.05	0.23
0.5501	328.15	964.95	0.23
0.5501	333.15	960.8	0.23
0.5501	338.15	956.6	0.23
0.5501	343.15	952.34	0.23
0.5501	348.15	948.03	0.23
0.5501	353.15	943.66	0.23
0.6001	283.15	1004.18	0.21
0.6001	288.15	1000.45	0.21
0.6001	293.15	996.65	0.21
0.6001	298.15	992.81	0.21
0.6001	303.15	988.93	0.21
0.6001	308.15	985.01	0.21
0.6001	313.15	981.05	0.21
0.6001	318.15	977.04	0.21
0.6001	323.15	972.99	0.21
0.6001	328.15	968.89	0.21
0.6001	333.15	964.74	0.21
0.6001	338.15	960.54	0.21
0.6001	343.15	956.29	0.21
0.6001	348.15	951.98	0.21
0.6001	353.15	947.61	0.21
0.6501	283.15	1007.83	0.19
0.6501	288.15	1004.09	0.19
0.6501	293.15	1000.3	0.19
0.6501	298.15	996.47	0.19
0.6501	303.15	992.61	0.19
0.6501	308.15	988.7	0.19
0.6501	313.15	984.75	0.19
0.6501	318.15	980.76	0.19
0.6501	323.15	976.72	0.19
0.6501	328.15	972.63	0.19
0.6501	333.15	968.49	0.19
0.6501	338.15	964.3	0.19
0.6501	343.15	960.06	0.19
0.6501	348.15	955.76	0.19
0.6501	353.15	951.4	0.19
0.7	283.15	1011.17	0.17
0.7	288.15	1007.46	0.17
0.7	293.15	1003.71	0.17
0.7	298.15	999.92	0.16
0.7	303.15	996.09	0.16
0.7	308.15	992.22	0.16
0.7	313.15	988.3	0.16
0.7	318.15	984.34	0.17
0.7	323.15	980.34	0.17
0.7	328.15	976.28	0.17
0.7	333.15	972.17	0.17
0.7	338.15	968.01	0.17
0.7	343.15	963.8	0.17
0.7	348.15	959.53	0.17
0.7	353.15	955.2	0.17
0.7501	283.15	1013.81	0.14
0.7501	288.15	1010.2	0.14
0.7501	293.15	1006.54	0.14
0.7501	298.15	1002.84	0.14
0.7501	303.15	999.1	0.14
0.7501	308.15	995.31	0.14
0.7501	313.15	991.48	0.14
0.7501	318.15	987.6	0.14
0.7501	323.15	983.67	0.14
0.7501	328.15	979.68	0.14
0.7501	333.15	975.64	0.14
0.7501	338.15	971.55	0.14
0.7501	343.15	967.4	0.14
0.7501	348.15	963.19	0.14
0.7501	353.15	958.92	0.15
0.8	283.15	1014.93	0.12
0.8	288.15	1011.54	0.12
0.8	293.15	1008.08	0.12
0.8	298.15	1004.58	0.11
0.8	303.15	1001.02	0.11
0.8	308.15	997.41	0.11
0.8	313.15	993.74	0.12
0.8	318.15	990.02	0.12
0.8	323.15	986.23	0.12
0.8	328.15	982.39	0.12
0.8	333.15	978.48	0.12
0.8	338.15	974.51	0.12
0.8	343.15	970.48	0.12
0.8	348.15	966.38	0.12
0.8	353.15	962.22	0.12
0.84	283.15	1014.28	0.1
0.84	288.15	1011.22	0.1
0.84	293.15	1008.08	0.1
0.84	298.15	1004.86	0.1
0.84	303.15	1001.58	0.09
0.84	308.15	998.22	0.09
0.84	313.15	994.79	0.1
0.84	318.15	991.29	0.1
0.84	323.15	987.71	0.1
0.84	328.15	984.06	0.1
0.84	333.15	980.33	0.1
0.84	338.15	976.53	0.1
0.84	343.15	972.66	0.1
0.84	348.15	968.72	0.11
0.84	353.15	964.71	0.1
0.88	283.15	1011.59	0.1
0.88	288.15	1009.04	0.09
0.88	293.15	1006.38	0.09
0.88	298.15	1003.61	0.08
0.88	303.15	1000.73	0.08
0.88	308.15	997.76	0.08
0.88	313.15	994.67	0.08
0.88	318.15	991.5	0.08
0.88	323.15	988.22	0.08
0.88	328.15	984.85	0.08
0.88	333.15	981.39	0.08
0.88	338.15	977.84	0.08
0.88	343.15	974.2	0.09
0.88	348.15	970.47	0.09
0.88	353.15	966.66	0.09
0.92	283.15	1007.29	0.09
0.92	288.15	1005.41	0.09
0.92	293.15	1003.37	0.08
0.92	298.15	1001.17	0.07
0.92	303.15	998.83	0.07
0.92	308.15	996.33	0.07
0.92	313.15	993.7	0.07
0.92	318.15	990.94	0.07
0.92	323.15	988.05	0.07
0.92	328.15	985.04	0.07
0.92	333.15	981.92	0.07
0.92	338.15	978.68	0.07
0.92	343.15	975.33	0.07
0.92	348.15	971.88	0.07
0.92	353.15	968.33	0.08
0.96	283.15	1002.39	0.09
0.96	288.15	1001.24	0.08
0.96	293.15	999.86	0.07
0.96	298.15	998.26	0.07
0.96	303.15	996.47	0.06
0.96	308.15	994.49	0.06
0.96	313.15	992.33	0.06
0.96	318.15	990.01	0.05
0.96	323.15	987.53	0.05
0.96	328.15	984.91	0.05
0.96	333.15	982.14	0.06
0.96	338.15	979.24	0.06
0.96	343.15	976.22	0.06
0.96	348.15	973.07	0.06
0.96	353.15	969.81	0.07
