Measured thermophysical data. Vapor pressure of aqueous choline chloride-based deep eutectic solvents (ethaline, glyceline,  maline and reline) at 30 to 70 deg C
Source: Thermochim. Acta, 2012, 10.1016/j.tca.2012.05.031
Compound 1: water, H2O, InChI=1S/H2O/h1H2, purity 99.8%
Compound 2: 1,2-ethanediol, C2H6O2, InChI=1S/C2H6O2/c3-1-2-4/h3-4H,1-2H2, purity 98%
Compound 3: choline chloride, C5H14ClNO, InChI=1S/C5H14NO.ClH/c1-6(2,3)4-5-7;/h7H,4-5H2,1-3H3;1H/q+1;/p-1, purity 98%
Compound 4: glycerol, C3H8O3, InChI=1S/C3H8O3/c4-1-3(6)2-5/h3-6H,1-2H2, purity 98%
Compound 5: propanedioic acid, C3H4O4, InChI=1S/C3H4O4/c4-2(5)1-3(6)7/h1H2,(H,4,5)(H,6,7), purity 98%
Compound 6: urea, CH4N2O, InChI=1S/CH4N2O/c2-1(3)4/h(H4,2,3,4), purity 98%

System: choline chloride + 1,2-ethanediol + water; phases: Gas, Liquid
Fixed: Solvent: Mole fraction of 1,2-ethanediol = 0.667
Property: Vapor or sublimation pressure, kPa (Gas); method: Closed cell (Static) method
Mole fraction of water	Temperature, K	Vapor or sublimation pressure, kPa	uncertainty
0.5495	303.15	1.5999	0.0267
0.5495	313.15	2.9464	0.04
0.5495	323.15	5.1729	0.0533
0.5495	333.15	8.4393	0.0667
0.5495	343.15	13.0656	0.0933
0.7649	303.15	2.9198	0.04
0.7649	313.15	5.0129	0.0533
0.7649	323.15	8.3193	0.0667
0.7649	333.15	13.3589	0.11066
0.7649	343.15	20.9449	0.14665
0.8798	303.15	3.6664	0.04
0.8798	313.15	6.2928	0.0533
0.8798	323.15	10.4258	0.08
0.8798	333.15	16.7053	0.11999
0.8798	343.15	26.0112	0.17332
0.9513	303.15	3.9863	0.0533
0.9513	313.15	6.9328	0.0667
0.9513	323.15	11.6257	0.0933
0.9513	333.15	18.7051	0.133056
0.9513	343.15	29.2376	0.18665

System: glycerol + choline chloride + water; phases: Gas, Liquid
Fixed: Solvent: Mole fraction of glycerol = 0.667
Property: Vapor or sublimation pressure, kPa (Gas); method: Closed cell (Static) method
Mole fraction of water	Temperature, K	Vapor or sublimation pressure, kPa	uncertainty
0.5996	303.15	1.7865	0.0267
0.5996	313.15	3.1997	0.04
0.5996	323.15	5.3729	0.0533
0.5996	333.15	8.6926	0.0667
0.5996	343.15	13.6255	0.0933
0.7997	303.15	2.9064	0.04
0.7997	313.15	5.1462	0.0533
0.7997	323.15	8.7326	0.08
0.7997	333.15	14.3055	0.11066
0.7997	343.15	22.6781	0.14665
0.8998	303.15	3.4664	0.04
0.8998	313.15	6.1862	0.0533
0.8998	323.15	10.5058	0.0933
0.8998	333.15	17.1186	0.133056
0.8998	343.15	27.0511	0.17332
0.9599	303.15	3.7197	0.0533
0.9599	313.15	6.7061	0.0667
0.9599	323.15	11.3857	0.0933
0.9599	333.15	18.5718	0.14665
0.9599	343.15	29.2776	0.18665

System: urea + choline chloride + water; phases: Gas, Liquid
Fixed: Solvent: Mole fraction of urea = 0.667
Property: Vapor or sublimation pressure, kPa (Gas); method: Closed cell (Static) method
Mole fraction of water	Temperature, K	Vapor or sublimation pressure, kPa	uncertainty
0.5457	303.15	1.8932	0.0267
0.5457	313.15	3.3331	0.04
0.5457	323.15	5.5462	0.0533
0.5457	333.15	8.8526	0.08
0.5457	343.15	13.6789	0.0933
0.7621	303.15	2.9998	0.04
0.7621	313.15	5.2396	0.0533
0.7621	323.15	8.8126	0.08
0.7621	333.15	14.1322	0.11066
0.7621	343.15	21.9182	0.14665
0.8782	303.15	3.693	0.04
0.8782	313.15	6.3461	0.0667
0.8782	323.15	10.5858	0.0933
0.8782	333.15	17.0386	0.133056
0.8782	343.15	26.5178	0.17332
0.9505	303.15	4.0797	0.0533
0.9505	313.15	7.0661	0.0667
0.9505	323.15	11.7324	0.0933
0.9505	333.15	18.8918	0.14665
0.9505	343.15	29.3976	0.18665

System: choline chloride + propanedioic acid + water; phases: Gas, Liquid
Fixed: Solvent: Mole fraction of propanedioic acid = 0.5
Property: Vapor or sublimation pressure, kPa (Gas); method: Closed cell (Static) method
Mole fraction of water	Temperature, K	Vapor or sublimation pressure, kPa	uncertainty
0.6283	303.15	1.9998	0.04
0.6283	313.15	3.5597	0.04
0.6283	323.15	5.9995	0.0533
0.6283	333.15	9.9192	0.08
0.6283	343.15	16.1187	0.11999
0.8184	303.15	3.0531	0.04
0.8184	313.15	5.3462	0.0533
0.8184	323.15	8.9726	0.08
0.8184	333.15	15.0254	0.11999
0.8184	343.15	24.0514	0.16
0.9103	303.15	3.6797	0.04
0.9103	313.15	6.3995	0.0667
0.9103	323.15	10.8124	0.0933
0.9103	333.15	17.6119	0.133056
0.9103	343.15	27.8777	0.18665
0.9643	303.15	3.9063	0.0533
0.9643	313.15	6.8528	0.0667
0.9643	323.15	11.6924	0.0933
0.9643	333.15	19.0918	0.14665
0.9643	343.15	30.0642	0.267
