Measured thermophysical data. Synthesis, heat capacity and enthalpy of formation of [Ho2(l-Glu)2(H2O)8](ClO4)4*H2O
Source: Thermochim. Acta, 2006, 10.1016/j.tca.2005.11.021
Compound 1: L-glutamic acid, C5H9NO4, InChI=1S/C5H9NO4/c6-3(5(9)10)1-2-4(7)8/h3H,1-2,6H2,(H,7,8)(H,9,10)/t3-/m0/s1
Compound 2: perchloric acid, ClHO4, InChI=1S/ClHO4/c2-1(3,4)5/h(H,2,3,4,5)
Compound 3: sodium chloride, ClNa, InChI=1S/ClH.Na/h1H;/q;+1/p-1
Compound 4: sodium perchlorate monohydrate, ClH2NaO5, InChI=1S/ClHO4.Na.H2O/c2-1(3,4)5;;/h(H,2,3,4,5);;1H2/q;+1;/p-1
Compound 5: water, H2O, InChI=1S/H2O/h1H2
Compound 6: diholmium tetraperchlorate bis-l-glutamate nonahydrate, C10H34Cl4Ho2N2O33, InChI=1S/2C5H9NO4.4ClHO4.2Ho.9H2O/c2*6-3(5(9)10)1-2-4(7)8;4*2-1(3,4)5;;;;;;;;;;;/h2*3H,1-2,6H2,(H,7,8)(H,9,10);4*(H,2,3,4,5);;;9*1H2/q;;;;;;2*+3;;;;;;;;;/p-6/t2*3-;;;;;;;;;;;;;;;/m00.............../s1
Compound 7: holmium (III) chloride hexahydrate, Cl3H12HoO6, InChI=1S/3ClH.Ho.6H2O/h3*1H;;6*1H2/q;;;+3;;;;;;/p-3

System: diholmium tetraperchlorate bis-l-glutamate nonahydrate; phases: Crystal
Fixed: Pressure, kPa = 101.325
Property: Molar heat capacity at constant pressure, J/K/mol (Crystal); method: Small (less than 1 g) adiabatic calorimetry
Temperature, K	Molar heat capacity at constant pressure, J/K/mol	uncertainty
78.472	416.36	1.76
79.947	427.06	1.81
81.579	448.95	1.9
83.144	457.5	1.92
84.689	466.74	1.96
86.437	480.65	2.02
88.373	490.26	2.06
90.581	502.33	1.86
93.049	521.47	1.93
95.511	537.31	1.98
97.871	558.72	2.06
100.231	562.37	2.07
102.524	570.54	2.09
104.788	579.03	2.12
107.01	584.28	2.14
109.193	599.35	2.2
111.536	612.05	2.24
114.012	619.47	2.26
116.685	633.45	2.31
119.55	640.47	2.34
122.359	656.69	2.39
125.121	670.24	2.44
127.838	678.7	2.47
130.517	691.49	2.51
133.165	703.15	2.55
136.415	717.73	2.6
140.253	728.41	2.64
144.034	745.38	2.7
147.753	759.44	2.75
151.876	781.07	2.82
156.389	802.41	2.9
160.819	822.03	2.97
165.173	841.38	3.03
169.462	860.32	3.1
173.689	880.13	3.17
177.85	903.04	3.25
181.909	962.58	3.47
185.819	1035.91	3.71
189.624	1053.75	3.77
193.38	1067.99	3.82
197.093	1084.52	3.87
200.764	1104.66	3.94
204.398	1116.61	3.99
207.999	1131.46	4.04
211.567	1149.25	4.1
215.095	1170.11	4.17
218.581	1180.34	4.21
222.036	1197.96	4.27
225.466	1211.61	4.31
228.864	1235.13	4.4
232.192	1241.59	4.42
235.573	1256.32	4.47
239.347	1265.14	4.5
243.625	1286.54	4.57
247.829	1297.25	4.61
252.024	1318.09	4.68
256.167	1324.03	4.7
260.277	1339.5	4.76
264.347	1355.8	4.81
268.376	1368.18	4.86
272.363	1390.09	4.93
276.301	1406.8	4.99
280.211	1418.2	5.03
284.858	1435.32	5.09
290.095	1457.8	5.17
295.357	1477.13	5.23
300.495	1498.95	5.31
305.572	1521.1	5.39
310.606	1529.15	5.41
315.595	1558.34	5.52
320.535	1577.56	5.58
325.427	1599.08	5.66
330.296	1607.02	5.68
335.016	1641.9	5.8
339.663	1649.39	5.83
344.136	1668.31	5.9

Reaction: -2 L-glutamic acid + 2 perchloric acid + 6 sodium chloride + -6 sodium perchlorate monohydrate + -2 holmium (III) chloride hexahydrate + 1 diholmium tetraperchlorate bis-l-glutamate nonahydrate + 9 water
Property: Molar enthalpy of reaction, kJ/mol
247.3
