Measured thermophysical data. Density, viscosity, surface tension, and spectroscopic properties for binary system of 1,2-ethanediamine + diethylene glycol
Source: Thermochim. Acta, 2014, 10.1016/j.tca.2014.05.034
Compound 1: ethane-1,2-diamine, C2H8N2, InChI=1S/C2H8N2/c3-1-2-4/h1-4H2, purity 98%
Compound 2: diethylene glycol, C4H10O3, InChI=1S/C4H10O3/c5-1-3-7-4-2-6/h5-6H,1-4H2, purity 98%

System: ethane-1,2-diamine; phases: Liquid
Fixed: Pressure, kPa = 100
Property: Mass density, kg/m3 (Liquid); method: Pycnometric method
Temperature, K	Mass density, kg/m3	uncertainty
298.15	893.3	0.7
303.15	888.8	0.7
308.15	884.9	0.7
313.15	880	0.7
318.15	875.2	0.7

System: ethane-1,2-diamine; phases: Liquid
Fixed: Pressure, kPa = 100
Property: Kinematic viscosity, m2/s (Liquid); method: Capillary tube (Ostwald; Ubbelohde) method
Temperature, K	Kinematic viscosity, m2/s	uncertainty
298.15	1.56e-06	1e-08
303.15	1.39e-06	1e-08
308.15	1.27e-06	1e-08
313.15	1.17e-06	1e-08
318.15	1.08e-06	1e-08

System: diethylene glycol; phases: Liquid
Fixed: Pressure, kPa = 100
Property: Mass density, kg/m3 (Liquid); method: Pycnometric method
Temperature, K	Mass density, kg/m3	uncertainty
298.15	1112.8	0.7
303.15	1109.2	0.7
308.15	1105.6	0.7
313.15	1102.3	0.7
318.15	1099.2	0.7

System: diethylene glycol; phases: Liquid
Fixed: Pressure, kPa = 100
Property: Kinematic viscosity, m2/s (Liquid); method: Capillary tube (Ostwald; Ubbelohde) method
Temperature, K	Kinematic viscosity, m2/s	uncertainty
298.15	2.47e-05	2e-07
303.15	1.96e-05	2e-07
308.15	1.53e-05	1e-07
313.15	1.29e-05	1e-07
318.15	1.1e-05	1e-07

System: ethane-1,2-diamine + diethylene glycol; phases: Liquid
Fixed: Pressure, kPa = 100
Property: Mass density, kg/m3 (Liquid); method: Pycnometric method
Mole fraction of ethane-1,2-diamine	Temperature, K	Mass density, kg/m3	uncertainty
0	298.15	1112.8	0.7
0.085	298.15	1104.7	0.7
0.164	298.15	1096.3	0.7
0.2376	298.15	1087.5	0.7
0.3062	298.15	1078.1	0.7
0.3705	298.15	1068.3	0.7
0.4308	298.15	1057.7	0.7
0.4874	298.15	1046.5	0.7
0.5407	298.15	1034.6	0.7
0.5909	298.15	1022.5	0.7
0.6384	298.15	1010.7	0.7
0.6834	298.15	997.9	0.7
0.7259	298.15	986.3	0.7
0.7663	298.15	973.7	0.7
0.8047	298.15	961.5	0.7
0.876	298.15	938.1	0.7
0.9408	298.15	916.1	0.7
1	298.15	893.3	0.7
0	303.15	1109.2	0.7
0.085	303.15	1101.3	0.7
0.164	303.15	1092.8	0.7
0.2376	303.15	1083.9	0.7
0.3062	303.15	1074.5	0.7
0.3705	303.15	1064.5	0.7
0.4308	303.15	1053.8	0.7
0.4874	303.15	1042.7	0.7
0.5407	303.15	1030.8	0.7
0.5909	303.15	1018.7	0.7
0.6384	303.15	1006.8	0.7
0.6834	303.15	994	0.7
0.7259	303.15	982.6	0.7
0.7663	303.15	970.1	0.7
0.8047	303.15	957.5	0.7
0.876	303.15	934.4	0.7
0.9408	303.15	912.8	0.7
1	303.15	888.8	0.7
0	308.15	1105.6	0.7
0.085	308.15	1097.7	0.7
0.164	308.15	1089.4	0.7
0.2376	308.15	1080.3	0.7
0.3062	308.15	1070.8	0.7
0.3705	308.15	1060.8	0.7
0.4308	308.15	1050.1	0.7
0.4874	308.15	1039.1	0.7
0.5407	308.15	1027	0.7
0.5909	308.15	1015	0.7
0.6384	308.15	1003.1	0.7
0.6834	308.15	990	0.7
0.7259	308.15	978.9	0.7
0.7663	308.15	966	0.7
0.8047	308.15	953.3	0.7
0.876	308.15	930.4	0.7
0.9408	308.15	908.5	0.7
1	308.15	884.9	0.7
0	313.15	1102.3	0.7
0.085	313.15	1094.3	0.7
0.164	313.15	1085.8	0.7
0.2376	313.15	1076.8	0.7
0.3062	313.15	1067.2	0.7
0.3705	313.15	1057.1	0.7
0.4308	313.15	1046.4	0.7
0.4874	313.15	1035.3	0.7
0.5407	313.15	1023.1	0.7
0.5909	313.15	1011.1	0.7
0.6384	313.15	999.3	0.7
0.6834	313.15	986.2	0.7
0.7259	313.15	975	0.7
0.7663	313.15	962.4	0.7
0.8047	313.15	949.5	0.7
0.876	313.15	926.6	0.7
0.9408	313.15	904.8	0.7
1	313.15	880	0.7
0	318.15	1099.2	0.7
0.085	318.15	1091	0.7
0.164	318.15	1082.5	0.7
0.2376	318.15	1073.4	0.7
0.3062	318.15	1063.6	0.7
0.3705	318.15	1053.4	0.7
0.4308	318.15	1042.8	0.7
0.4874	318.15	1031.7	0.7
0.5407	318.15	1019.5	0.7
0.5909	318.15	1007.4	0.7
0.6384	318.15	995.4	0.7
0.6834	318.15	982.5	0.7
0.7259	318.15	971.2	0.7
0.7663	318.15	958.5	0.7
0.8047	318.15	945.9	0.7
0.876	318.15	922.9	0.7
0.9408	318.15	901.2	0.7
1	318.15	875.2	0.7

System: ethane-1,2-diamine + diethylene glycol; phases: Liquid
Fixed: Pressure, kPa = 100
Property: Kinematic viscosity, m2/s (Liquid); method: Capillary tube (Ostwald; Ubbelohde) method
Mole fraction of ethane-1,2-diamine	Temperature, K	Kinematic viscosity, m2/s	uncertainty
0	298.15	2.47e-05	2e-07
0.085	298.15	2.94e-05	2e-07
0.164	298.15	3.37e-05	3e-07
0.2376	298.15	3.68e-05	3e-07
0.3062	298.15	3.81e-05	3e-07
0.3705	298.15	3.7e-05	3e-07
0.4308	298.15	3.36e-05	3e-07
0.4874	298.15	2.87e-05	2e-07
0.5407	298.15	2.31e-05	2e-07
0.5909	298.15	1.81e-05	2e-07
0.6384	298.15	1.4e-05	1e-07
0.6834	298.15	1.06e-05	1e-07
0.7259	298.15	8.32e-06	7e-08
0.7663	298.15	6.39e-06	5e-08
0.8047	298.15	4.97e-06	4e-08
0.876	298.15	3.22e-06	3e-08
0.9408	298.15	2.23e-06	2e-08
1	298.15	1.56e-06	1e-08
0	303.15	1.96e-05	2e-07
0.085	303.15	2.32e-05	2e-07
0.164	303.15	2.62e-05	2e-07
0.2376	303.15	2.84e-05	2e-07
0.3062	303.15	2.92e-05	2e-07
0.3705	303.15	2.82e-05	2e-07
0.4308	303.15	2.57e-05	2e-07
0.4874	303.15	2.22e-05	2e-07
0.5407	303.15	1.8e-05	2e-07
0.5909	303.15	1.44e-05	1e-07
0.6384	303.15	1.13e-05	1e-07
0.6834	303.15	8.7e-06	7e-08
0.7259	303.15	6.95e-06	6e-08
0.7663	303.15	5.42e-06	5e-08
0.8047	303.15	4.27e-06	4e-08
0.876	303.15	2.84e-06	3e-08
0.9408	303.15	1.99e-06	2e-08
1	303.15	1.39e-06	1e-08
0	308.15	1.53e-05	1e-07
0.085	308.15	1.85e-05	2e-07
0.164	308.15	2.07e-05	2e-07
0.2376	308.15	2.22e-05	2e-07
0.3062	308.15	2.27e-05	2e-07
0.3705	308.15	2.19e-05	2e-07
0.4308	308.15	2e-05	2e-07
0.4874	308.15	1.74e-05	1e-07
0.5407	308.15	1.44e-05	1e-07
0.5909	308.15	1.15e-05	1e-07
0.6384	308.15	9.35e-06	8e-08
0.6834	308.15	7.27e-06	6e-08
0.7259	308.15	5.89e-06	5e-08
0.7663	308.15	4.66e-06	4e-08
0.8047	308.15	3.71e-06	3e-08
0.876	308.15	2.52e-06	2e-08
0.9408	308.15	1.8e-06	2e-08
1	308.15	1.27e-06	1e-08
0	313.15	1.29e-05	1e-07
0.085	313.15	1.54e-05	1e-07
0.164	313.15	1.71e-05	1e-07
0.2376	313.15	1.82e-05	2e-07
0.3062	313.15	1.85e-05	2e-07
0.3705	313.15	1.78e-05	2e-07
0.4308	313.15	1.64e-05	1e-07
0.4874	313.15	1.43e-05	1e-07
0.5407	313.15	1.19e-05	1e-07
0.5909	313.15	9.68e-06	8e-08
0.6384	313.15	7.83e-06	6e-08
0.6834	313.15	6.21e-06	5e-08
0.7259	313.15	5.07e-06	4e-08
0.7663	313.15	4.05e-06	4e-08
0.8047	313.15	3.28e-06	3e-08
0.876	313.15	2.26e-06	2e-08
0.9408	313.15	1.63e-06	2e-08
1	313.15	1.17e-06	1e-08
0	318.15	1.1e-05	1e-07
0.085	318.15	1.3e-05	1e-07
0.164	318.15	1.43e-05	1e-07
0.2376	318.15	1.51e-05	1e-07
0.3062	318.15	1.53e-05	1e-07
0.3705	318.15	1.47e-05	1e-07
0.4308	318.15	1.35e-05	1e-07
0.4874	318.15	1.19e-05	1e-07
0.5407	318.15	1e-05	1e-07
0.5909	318.15	8.16e-06	7e-08
0.6384	318.15	6.79e-06	6e-08
0.6834	318.15	5.45e-06	5e-08
0.7259	318.15	4.5e-06	4e-08
0.7663	318.15	3.65e-06	3e-08
0.8047	318.15	2.96e-06	3e-08
0.876	318.15	2.08e-06	2e-08
0.9408	318.15	1.52e-06	1e-08
1	318.15	1.08e-06	1e-08
