Measured thermophysical data. Measurement of enthalpy curves of phase change materials via DSC and T-History: When are both methods needed to estimate the behaviour of the bulk material in applications?
Source: Thermochim. Acta, 2014, 10.1016/j.tca.2014.09.022
Compound 1: octacosane, C28H58, InChI=1S/C28H58/c1-3-5-7-9-11-13-15-17-19-21-23-25-27-28-26-24-22-20-18-16-14-12-10-8-6-4-2/h3-28H2,1-2H3
Compound 2: 1,10-decanediol, C10H22O2, InChI=1S/C10H22O2/c11-9-7-5-3-1-2-4-6-8-10-12/h11-12H,1-10H2
Compound 3: methylurea, C2H6N2O, InChI=1S/C2H6N2O/c1-4-2(3)5/h1H3,(H3,3,4,5)
Compound 4: 1,5-pentanedioic acid, C5H8O4, InChI=1S/C5H8O4/c6-4(7)2-1-3-5(8)9/h1-3H2,(H,6,7)(H,8,9)
Compound 5: meso-1,2,3,4-butanetetrol, C4H10O4, InChI=1S/C4H10O4/c5-1-3(7)4(8)2-6/h3-8H,1-2H2/t3-,4+
Compound 6: 1,10-decanedioic acid, C10H18O4, InChI=1S/C10H18O4/c11-9(12)7-5-3-1-2-4-6-8-10(13)14/h1-8H2,(H,11,12)(H,13,14)
Compound 7: 1,4-benzenediol, C6H6O2, InChI=1S/C6H6O2/c7-5-1-2-6(8)4-3-5/h1-4,7-8H

System: octacosane; phases: Crystal 2, Crystal 1, Air at 1 atmosphere
Property: Molar enthalpy of transition or fusion, kJ/mol (Crystal 2); method: DSC
Molar enthalpy of transition or fusion, kJ/mol	uncertainty
35.5284108	1.9738006

System: octacosane; phases: Crystal 1, Liquid, Air at 1 atmosphere
Property: Molar enthalpy of transition or fusion, kJ/mol (Crystal 1); method: DSC
Molar enthalpy of transition or fusion, kJ/mol	uncertainty
63.95113944	3.55284108

System: octacosane; phases: Crystal 2, Crystal 1, Air at 1 atmosphere
Property: Triple point temperature, K (Crystal 2); method: DTA
Triple point temperature, K	uncertainty
330.65	2.5

System: octacosane; phases: Crystal 1, Liquid, Air at 1 atmosphere
Property: Triple point temperature, K (Crystal 1); method: DTA
Triple point temperature, K	uncertainty
335.65	2.5

System: 1,10-decanediol; phases: Crystal, Liquid, Air at 1 atmosphere
Property: Molar enthalpy of transition or fusion, kJ/mol (Crystal); method: DSC
Molar enthalpy of transition or fusion, kJ/mol	uncertainty
44.96436384	2.43992672

System: 1,10-decanediol; phases: Crystal, Liquid, Air at 1 atmosphere
Property: Triple point temperature, K (Crystal); method: DTA
Triple point temperature, K	uncertainty
344.65	2.5

System: methylurea; phases: Crystal, Liquid, Air at 1 atmosphere
Property: Molar enthalpy of transition or fusion, kJ/mol (Crystal); method: DSC
Molar enthalpy of transition or fusion, kJ/mol	uncertainty
12.74209024	0.7408192

System: methylurea; phases: Crystal, Liquid, Air at 1 atmosphere
Property: Triple point temperature, K (Crystal); method: DTA
Triple point temperature, K	uncertainty
368.15	5

System: 1,5-pentanedioic acid; phases: Crystal, Liquid, Air at 1 atmosphere
Property: Molar enthalpy of transition or fusion, kJ/mol (Crystal); method: DSC
Molar enthalpy of transition or fusion, kJ/mol	uncertainty
21.00622458	1.18903158

System: 1,5-pentanedioic acid; phases: Crystal, Liquid, Air at 1 atmosphere
Property: Triple point temperature, K (Crystal); method: DTA
Triple point temperature, K	uncertainty
369.65	2.5

System: meso-1,2,3,4-butanetetrol; phases: Crystal, Liquid, Air at 1 atmosphere
Property: Molar enthalpy of transition or fusion, kJ/mol (Crystal); method: DSC
Molar enthalpy of transition or fusion, kJ/mol	uncertainty
39.9331746	2.0760366

System: meso-1,2,3,4-butanetetrol; phases: Crystal, Liquid, Air at 1 atmosphere
Property: Triple point temperature, K (Crystal); method: DTA
Triple point temperature, K	uncertainty
390.15	3

System: 1,10-decanedioic acid; phases: Crystal, Liquid, Air at 1 atmosphere
Property: Molar enthalpy of transition or fusion, kJ/mol (Crystal); method: DSC
Molar enthalpy of transition or fusion, kJ/mol	uncertainty
44.89894944	2.42697024

System: 1,10-decanedioic acid; phases: Crystal, Liquid, Air at 1 atmosphere
Property: Triple point temperature, K (Crystal); method: DTA
Triple point temperature, K	uncertainty
405.65	2.5

System: 1,4-benzenediol; phases: Crystal, Liquid, Air at 1 atmosphere
Property: Molar enthalpy of transition or fusion, kJ/mol (Crystal); method: DSC
Molar enthalpy of transition or fusion, kJ/mol	uncertainty
23.78389824	1.32132768

System: 1,4-benzenediol; phases: Crystal, Liquid, Air at 1 atmosphere
Property: Triple point temperature, K (Crystal); method: DTA
Triple point temperature, K	uncertainty
445.65	2.5
