Measured thermophysical data. Thermal diffusivity of eutectic of alkali chloride and ice in the freezing thawing process by temperature wave analysis
Source: Thermochim. Acta, 2005, 10.1016/j.tca.2004.11.010
Compound 1: cesium chloride, ClCs, InChI=1S/ClH.Cs/h1H;/q;+1/p-1
Compound 2: water, H2O, InChI=1S/H2O/h1H2, purity 99.99%
Compound 3: sodium chloride, ClNa, InChI=1S/ClH.Na/h1H;/q;+1/p-1
Compound 4: potassium chloride, ClK, InChI=1S/ClH.K/h1H;/q;+1/p-1
Compound 5: rubidium chloride, ClRb, InChI=1S/ClH.Rb/h1H;/q;+1/p-1

System: cesium chloride + water; phases: Crystal, Crystal, Liquid, Air at 1 atmosphere
Property: Eutectic temperature, K (Crystal); method: DIROBS
Eutectic temperature, K	uncertainty
249.85	0.5

System: sodium chloride + water; phases: Crystal of intercomponent compound 1, Crystal, Liquid, Air at 1 atmosphere
Property: Eutectic temperature, K (Crystal of intercomponent compound 1); method: DIROBS
Eutectic temperature, K	uncertainty
251.05	0.5

System: potassium chloride + water; phases: Crystal, Crystal, Liquid, Air at 1 atmosphere
Property: Eutectic temperature, K (Crystal); method: DIROBS
Eutectic temperature, K	uncertainty
262.35	0.5

System: water + rubidium chloride; phases: Crystal, Crystal, Liquid, Air at 1 atmosphere
Property: Eutectic temperature, K (Crystal); method: DIROBS
Eutectic temperature, K	uncertainty
256.75	0.5
