Measured thermophysical data. Heat capacities of RCoO3(s) (R = La, Nd, Sm Eu, Gd, Tb, Dy and Ho) by differential scanning calorimetry
Source: Thermochim. Acta, 2007, 10.1016/j.tca.2007.09.001
Compound 1: cobalt lanthanum oxide, CoLaO3, InChI=1S/Co.La.3O/q2*+3;3*-2, purity 98%
Compound 2: cobalt(III) neodymium(III) oxide, CoNdO3, InChI=1S/Co.Nd.3O/q2*+3;3*-2, purity 98%
Compound 3: cobalt samarium oxide, CoO3Sm, InChI=1S/Co.3O.Sm/q+3;3*-2;+3, purity 98%
Compound 4: cobalt europium oxide, CoEuO3, InChI=1S/Co.Eu.3O/q2*+3;3*-2, purity 98%
Compound 5: cobalt gadolinium oxide, CoGdO3, InChI=1S/Co.Gd.3O/q2*+3;3*-2, purity 98%
Compound 6: cobalt terbium oxide CoTbO3, CoO3Tb, InChI=1S/Co.3O.Tb/q+3;3*-2;+3, purity 98%
Compound 7: cobalt dysprosium oxide, CoDyO3, InChI=1S/Co.Dy.3O/q2*+3;3*-2, purity 98%
Compound 8: cobalt holmium oxide, CoHoO3, InChI=1S/Co.Ho.3O/q2*+3;3*-2, purity 98%

System: cobalt lanthanum oxide; phases: Crystal
Fixed: Pressure, kPa = 101.325
Property: Molar heat capacity at constant pressure, J/K/mol (Crystal); method: Large sample (1 g) DSC
Temperature, K	Molar heat capacity at constant pressure, J/K/mol	uncertainty
130	56.9	1.1
140	62	1.2
150	69.3	1.4
160	73.8	1.5
170	79.9	1.6
180	83.6	1.7
190	87.1	1.7
200	91.9	1.8
210	94.7	1.9
220	97.4	1.9
230	99.9	2
240	103.3	2.1
250	105.5	2.1
260	107.4	2.1
270	110.2	2.2
280	112	2.2
290	113.7	2.3
298.15	122.5	2.5
300	122.6	2.5
325	124.8	2.5
350	128.4	2.6
375	131	2.6
400	133.9	2.7
425	137.7	2.8
450	142.3	2.8
475	146.9	2.9
500	150.8	3
525	153.5	3.1
550	154.7	3.1
575	154.6	3.1
600	153.6	3.1
625	151.9	3
650	150.2	3
675	148.7	3
700	147.7	3
725	146.7	2.9
750	146.2	2.9
775	146	2.9
800	145.9	2.9
825	146.2	2.9
850	147.6	3

System: cobalt(III) neodymium(III) oxide; phases: Crystal
Fixed: Pressure, kPa = 101.325
Property: Molar heat capacity at constant pressure, J/K/mol (Crystal); method: Large sample (1 g) DSC
Temperature, K	Molar heat capacity at constant pressure, J/K/mol	uncertainty
130	57.2	1.1
140	62.7	1.3
150	67.7	1.4
160	72.3	1.4
170	76.4	1.5
180	80.2	1.6
190	83.5	1.7
200	86.5	1.7
210	89.2	1.8
220	91.6	1.8
230	93.8	1.9
240	95.8	1.9
250	97.8	2
260	98.7	2
270	100.5	2
280	102.3	2
290	104.1	2.1
298.15	105.8	2.1
300	105.9	2.1
325	110.3	2.2
350	116	2.3
375	120.4	2.4
400	122.9	2.5
425	124.8	2.5
450	127.1	2.5
475	130.3	2.6
500	134.5	2.7
525	139.2	2.8
550	144.1	2.9
575	148.3	3
600	151.4	3
625	153.2	3.1
650	153.3	3.1
675	152.1	3
700	149.9	3
725	147.1	2.9
750	144.3	2.9
775	141.9	2.8
800	140.3	2.8
825	139.4	2.8
850	138.5	2.8

System: cobalt samarium oxide; phases: Crystal
Fixed: Pressure, kPa = 101.325
Property: Molar heat capacity at constant pressure, J/K/mol (Crystal); method: Large sample (1 g) DSC
Temperature, K	Molar heat capacity at constant pressure, J/K/mol	uncertainty
130	58.4	1.2
140	67.7	1.4
150	75.6	1.5
160	79.9	1.6
170	84.4	1.7
180	87.6	1.8
190	91.1	1.8
200	94.7	1.9
210	98.5	2
220	101.3	2
230	105	2.1
240	107.6	2.2
250	110.9	2.2
260	114.2	2.3
270	117.1	2.3
280	119.7	2.4
290	122.6	2.5
298.15	124.4	2.5
300	124.6	2.5
325	129.2	2.6
350	134.7	2.7
375	138.7	2.8
400	142.5	2.9
425	146	2.9
450	152.5	3.1
475	155.6	3.1
500	158.9	3.2
525	162.3	3.2
550	165.6	3.3
575	165.7	3.3
600	171.3	3.4
625	173.3	3.5
650	173.3	3.5
675	174.7	3.5
700	175.3	3.5
725	175.2	3.5
750	175.4	3.5
775	173.1	3.5
800	171.1	3.4
825	168.1	3.4
850	163.4	3.3

System: cobalt europium oxide; phases: Crystal
Fixed: Pressure, kPa = 101.325
Property: Molar heat capacity at constant pressure, J/K/mol (Crystal); method: Large sample (1 g) DSC
Temperature, K	Molar heat capacity at constant pressure, J/K/mol	uncertainty
130	60.5	1.2
140	64.6	1.3
150	69.9	1.4
160	73.7	1.5
170	78.5	1.6
180	81.9	1.6
190	85.2	1.7
200	88.4	1.8
210	91.3	1.8
220	95	1.9
230	97.6	2
240	100.1	2
250	102.4	2
260	105.1	2.1
270	107.1	2.1
280	108.3	2.2
290	110.4	2.2
298.15	111.7	2.2
300	112	2.2
325	115.7	2.3
350	117.6	2.4
375	120	2.4
400	122.7	2.5
425	125.5	2.5
450	128.5	2.6
475	131.8	2.6
500	135.7	2.7
525	140.1	2.8
550	144.9	2.9
575	150.1	3
600	155.1	3.1
625	159.7	3.2
650	163.4	3.3
675	166.1	3.3
700	167.4	3.3
725	167.5	3.4
750	166.4	3.3
775	164.5	3.3
800	162.3	3.2
825	160.7	3.2
850	160.3	3.2

System: cobalt gadolinium oxide; phases: Crystal
Fixed: Pressure, kPa = 101.325
Property: Molar heat capacity at constant pressure, J/K/mol (Crystal); method: Large sample (1 g) DSC
Temperature, K	Molar heat capacity at constant pressure, J/K/mol	uncertainty
130	46.4	0.9
140	48.7	1
150	51.2	1
160	53.6	1.1
170	56.1	1.1
180	58.7	1.2
190	61.3	1.2
200	63.9	1.3
210	66.8	1.3
220	69.6	1.4
230	72.6	1.5
240	75.3	1.5
250	77.9	1.6
260	80	1.6
270	83.7	1.7
280	86.9	1.7
290	89.7	1.8
298.15	92.1	1.8
300	92.4	1.8
325	99.8	2
350	106.7	2.1
375	112.6	2.3
400	119.8	2.4
425	126.8	2.5
450	129.4	2.6
475	135.3	2.7
500	144.5	2.9
525	150	3
550	158.6	3.2
575	168.4	3.4
600	178.2	3.6
625	184.6	3.7
650	190.1	3.8
675	195.2	3.9
700	197.1	3.9
725	197.2	3.9
750	194.4	3.9
775	188.5	3.8
800	183.8	3.7
825	176.4	3.5
850	170	3.4

System: cobalt terbium oxide CoTbO3; phases: Crystal
Fixed: Pressure, kPa = 101.325
Property: Molar heat capacity at constant pressure, J/K/mol (Crystal); method: Large sample (1 g) DSC
Temperature, K	Molar heat capacity at constant pressure, J/K/mol	uncertainty
130	63.2	1.3
140	71.4	1.4
150	74.2	1.5
160	77.6	1.6
170	82.1	1.6
180	84.6	1.7
190	88	1.8
200	90.5	1.8
210	92.7	1.9
220	94.7	1.9
230	97.1	1.9
240	98.6	2
250	100.4	2
260	102.1	2
270	103.5	2.1
280	105	2.1
290	106.4	2.1
298.15	107.1	2.1
300	107.4	2.1
325	110.1	2.2
350	112.8	2.3
375	115.8	2.3
400	118.5	2.4
425	120.5	2.4
450	123.1	2.5
475	124.5	2.5
500	126.3	2.5
525	128.6	2.6
550	131.4	2.6
575	134	2.7
600	137.3	2.7
625	140.4	2.8
650	143.2	2.9
675	146	2.9
700	148	3
725	149.1	3
750	150.1	3
775	149.5	3
800	148.2	3
825	148.2	3
850	148	3

System: cobalt dysprosium oxide; phases: Crystal
Fixed: Pressure, kPa = 101.325
Property: Molar heat capacity at constant pressure, J/K/mol (Crystal); method: Large sample (1 g) DSC
Temperature, K	Molar heat capacity at constant pressure, J/K/mol	uncertainty
130	55.8	1.1
140	59.8	1.2
150	63.4	1.3
160	65.8	1.3
170	69	1.4
180	72.2	1.4
190	75.3	1.5
200	77.3	1.5
210	80.4	1.6
220	83.7	1.7
230	85.9	1.7
240	89.6	1.8
250	93.6	1.9
260	96.5	1.9
270	101.7	2
280	106.3	2.1
290	109.1	2.2
298.15	112.5	2.3
300	112.8	2.3
325	120.5	2.4
350	124	2.5
375	120.5	2.4
400	132.4	2.6
425	135.8	2.7
450	138.6	2.8
475	139.8	2.8
500	142.8	2.9
525	146.4	2.9
550	148.8	3
575	151.8	3
600	158.2	3.2
625	165.9	3.3
650	169.9	3.4
675	177.8	3.6
700	184.9	3.7
725	188.2	3.8
750	191.5	3.8
775	192.6	3.9
800	191.6	3.8
825	190.4	3.8
850	189.9	3.8

System: cobalt holmium oxide; phases: Crystal
Fixed: Pressure, kPa = 101.325
Property: Molar heat capacity at constant pressure, J/K/mol (Crystal); method: Large sample (1 g) DSC
Temperature, K	Molar heat capacity at constant pressure, J/K/mol	uncertainty
130	56.9	1.1
140	67.3	1.3
150	72.9	1.5
160	77.1	1.5
170	81.4	1.6
180	84.5	1.7
190	87.6	1.8
200	90.7	1.8
210	93.8	1.9
220	97.5	2
230	100.1	2
240	102.5	2.1
250	104.8	2.1
260	107.4	2.1
270	109.8	2.2
280	112	2.2
290	114.1	2.3
298.15	116.1	2.3
300	116.7	2.3
325	121.5	2.4
350	125.5	2.5
375	127	2.5
400	129.8	2.6
425	131.9	2.6
450	133.5	2.7
475	134.2	2.7
500	135.7	2.7
525	136.6	2.7
550	137.9	2.8
575	140.1	2.8
600	142.9	2.9
625	145.3	2.9
650	148.7	3
675	152.2	3
700	156.4	3.1
725	159.5	3.2
750	162.4	3.2
775	164.7	3.3
800	167.9	3.4
825	170.8	3.4
850	173.4	3.5
