Measured thermophysical data. Effect of different excipients on aqueous solubility of leflunomide.Thermodynamic study
Source: Thermochim. Acta, 2016, 10.1016/j.tca.2016.08.010
Compound 1: 5-methyl-N-(4-(trifluoromethyl)phenyl)-4-isoxazolecarboxamide, C12H9F3N2O2, InChI=1S/C12H9F3N2O2/c1-7-10(6-16-19-7)11(18)17-9-4-2-8(3-5-9)12(13,14)15/h2-6H,1H3,(H,17,18), purity 98%
Compound 2: water, H2O, InChI=1S/H2O/h1H2
Compound 3: hydrogen chloride, ClH, InChI=1S/ClH/h1H, purity 98%
Compound 4: .alpha.-cyclodextrin, C36H60O30, InChI=1S/C36H60O30/c37-1-7-25-13(43)19(49)31(55-7)62-26-8(2-38)57-33(21(51)15(26)45)64-28-10(4-40)59-35(23(53)17(28)47)66-30-12(6-42)60-36(24(54)18(30)48)65-29-11(5-41)58-34(22(52)16(29)46)63-27-9(3-39)56-32(61-25)20(50)14(27)44/h7-54H,1-6H2/t7-,8-,9-,10-,11-,12-,13-,14-,15-,16-,17-,18-,19-,20-,21-,22-,23-,24-,25-,26-,27-,28-,29-,30-,31-,32-,33-,34-,35-,36-/m1/s1, purity 98%
Compound 5: .beta.-cyclodextrin, C42H70O35, InChI=1S/C42H70O35/c43-1-8-29-15(50)22(57)36(64-8)72-30-9(2-44)66-38(24(59)17(30)52)74-32-11(4-46)68-40(26(61)19(32)54)76-34-13(6-48)70-42(28(63)21(34)56)77-35-14(7-49)69-41(27(62)20(35)55)75-33-12(5-47)67-39(25(60)18(33)53)73-31-10(3-45)65-37(71-29)23(58)16(31)51/h8-63H,1-7H2/t8-,9-,10-,11-,12-,13-,14-,15-,16-,17-,18-,19-,20-,21-,22-,23-,24-,25-,26-,27-,28-,29-,30-,31-,32-,33-,34-,35-,36-,37-,38-,39-,40-,41-,42-/m1/s1, purity 99%
Compound 6: .gamma.-cyclodextrin, C48H80O40, InChI=1S/C48H80O40/c49-1-9-33-17(57)25(65)41(73-9)82-34-10(2-50)75-43(27(67)19(34)59)84-36-12(4-52)77-45(29(69)21(36)61)86-38-14(6-54)79-47(31(71)23(38)63)88-40-16(8-56)80-48(32(72)24(40)64)87-39-15(7-55)78-46(30(70)22(39)62)85-37-13(5-53)76-44(28(68)20(37)60)83-35-11(3-51)74-42(81-33)26(66)18(35)58/h9-72H,1-8H2/t9-,10-,11-,12-,13-,14-,15-,16-,17-,18-,19-,20-,21-,22-,23-,24-,25-,26-,27-,28-,29-,30-,31-,32-,33-,34-,35-,36-,37-,38-,39-,40-,41-,42-,43-,44-,45-,46-,47-,48-/m1/s1, purity 90%

System: water + 5-methyl-N-(4-(trifluoromethyl)phenyl)-4-isoxazolecarboxamide; phases: Liquid, Crystal
Property: Molality, mol/kg of 5-methyl-N-(4-(trifluoromethyl)phenyl)-4-isoxazolecarboxamide (Liquid); method: spectrophotometry
Temperature, K	Pressure, kPa	Molality, mol/kg of 5-methyl-N-(4-(trifluoromethyl)phenyl)-4-isoxazolecarboxamide	uncertainty
298.15	100	0.000146	6e-06

System: hydrogen chloride + water + 5-methyl-N-(4-(trifluoromethyl)phenyl)-4-isoxazolecarboxamide; phases: Liquid, Crystal
Property: Molality, mol/kg of 5-methyl-N-(4-(trifluoromethyl)phenyl)-4-isoxazolecarboxamide (Liquid); method: spectrophotometry
Solvent: Molality, mol/kg of hydrogen chloride	Pressure, kPa	Temperature, K	Molality, mol/kg of 5-methyl-N-(4-(trifluoromethyl)phenyl)-4-isoxazolecarboxamide	uncertainty
0.01	100	298.15	0.00011	6e-06

System: water + .alpha.-cyclodextrin + 5-methyl-N-(4-(trifluoromethyl)phenyl)-4-isoxazolecarboxamide; phases: Liquid, Crystal
Property: Molality, mol/kg of 5-methyl-N-(4-(trifluoromethyl)phenyl)-4-isoxazolecarboxamide (Liquid); method: spectrophotometry
Solvent: Mass fraction of .alpha.-cyclodextrin	Pressure, kPa	Temperature, K	Molality, mol/kg of 5-methyl-N-(4-(trifluoromethyl)phenyl)-4-isoxazolecarboxamide	uncertainty
0.005	100	298.15	0.000167	6e-06

System: .beta.-cyclodextrin + water + 5-methyl-N-(4-(trifluoromethyl)phenyl)-4-isoxazolecarboxamide; phases: Liquid, Crystal
Property: Molality, mol/kg of 5-methyl-N-(4-(trifluoromethyl)phenyl)-4-isoxazolecarboxamide (Liquid); method: spectrophotometry
Solvent: Mass fraction of .beta.-cyclodextrin	Pressure, kPa	Temperature, K	Molality, mol/kg of 5-methyl-N-(4-(trifluoromethyl)phenyl)-4-isoxazolecarboxamide	uncertainty
0.006	100	298.15	0.00047	1.4e-05

System: water + .gamma.-cyclodextrin + 5-methyl-N-(4-(trifluoromethyl)phenyl)-4-isoxazolecarboxamide; phases: Liquid, Crystal
Property: Molality, mol/kg of 5-methyl-N-(4-(trifluoromethyl)phenyl)-4-isoxazolecarboxamide (Liquid); method: spectrophotometry
Solvent: Mass fraction of .gamma.-cyclodextrin	Pressure, kPa	Temperature, K	Molality, mol/kg of 5-methyl-N-(4-(trifluoromethyl)phenyl)-4-isoxazolecarboxamide	uncertainty
0.007	100	298.15	0.000155	6e-06
