Measured thermophysical data. DSC study and calculation of metronidazole and clarithromycinthermodynamic melting parameters for individual substances and foreutectic mixture
Source: Thermochim. Acta, 2014, 10.1016/j.tca.2014.01.018
Compound 1: 2-methyl-5-nitro-1H-imidazole-1-ethanol, C6H9N3O3, InChI=1S/C6H9N3O3/c1-5-7-4-6(9(11)12)8(5)2-3-10/h4,10H,2-3H2,1H3, purity 99.985%
Compound 2: Clarithromycin, C38H69NO13, InChI=1S/C38H69NO13/c1-15-26-38(10,45)31(42)21(4)28(40)19(2)17-37(9,47-14)33(52-35-29(41)25(39(11)12)16-20(3)48-35)22(5)30(23(6)34(44)50-26)51-27-18-36(8,46-13)32(43)24(7)49-27/h19-27,29-33,35,41-43,45H,15-18H2,1-14H3/t19-,20-,21+,22+,23-,24+,25+,26-,27+,29-,30+,31-,32+,33-,35+,36-,37-,38-/m1/s1, purity 99.978%

System: 2-methyl-5-nitro-1H-imidazole-1-ethanol; phases: Crystal, Liquid, Air at 1 atmosphere
Property: Normal melting temperature, K (Crystal); method: DTA
Normal melting temperature, K	uncertainty
432.65	0.5

System: 2-methyl-5-nitro-1H-imidazole-1-ethanol; phases: Crystal, Liquid, Air at 1 atmosphere
Property: Molar enthalpy of transition or fusion, kJ/mol (Crystal); method: DSC
Molar enthalpy of transition or fusion, kJ/mol	uncertainty
36.130626288	1.215193968

System: Clarithromycin; phases: Crystal, Liquid, Air at 1 atmosphere
Property: Normal melting temperature, K (Crystal); method: DTA
Normal melting temperature, K	uncertainty
498.85	0.9

System: Clarithromycin; phases: Crystal, Liquid, Air at 1 atmosphere
Property: Molar enthalpy of transition or fusion, kJ/mol (Crystal); method: DSC
Molar enthalpy of transition or fusion, kJ/mol	uncertainty
45.47556672	4.41292506

System: 2-methyl-5-nitro-1H-imidazole-1-ethanol + Clarithromycin; phases: Crystal, Crystal, Liquid, Air at 1 atmosphere
Property: Eutectic composition: mole fraction of 2-methyl-5-nitro-1H-imidazole-1-ethanol (Crystal); method: Derived from phase diagram analysis
Eutectic composition: mole fraction of 2-methyl-5-nitro-1H-imidazole-1-ethanol	uncertainty
0.89	0.01

System: 2-methyl-5-nitro-1H-imidazole-1-ethanol + Clarithromycin; phases: Crystal, Crystal, Liquid, Air at 1 atmosphere
Property: Eutectic temperature, K (Crystal); method: DTA
Eutectic temperature, K	uncertainty
428.35	0.1

System: 2-methyl-5-nitro-1H-imidazole-1-ethanol + Clarithromycin; phases: Liquid, Crystal
Fixed: Pressure, kPa = 101
Property: Solid-liquid equilibrium temperature, K (Liquid); method: DTA
Mole fraction of 2-methyl-5-nitro-1H-imidazole-1-ethanol	Solid-liquid equilibrium temperature, K	uncertainty
0.1	494.2	0.5
0.2	490.2	0.5
0.3	485.1	0.5
0.4	477.1	0.5
0.5	470.2	0.5
0.6	463.1	0.5
0.7	454.3	0.5
0.75	449.2	0.5
0.8	443.1	0.5
0.84	436.1	0.5
0.86	434.1	0.5
0.89	428.3	0.5

System: 2-methyl-5-nitro-1H-imidazole-1-ethanol + Clarithromycin; phases: Liquid, Crystal
Property: Solid-liquid equilibrium temperature, K (Liquid); method: DTA
Mole fraction of 2-methyl-5-nitro-1H-imidazole-1-ethanol	Pressure, kPa	Solid-liquid equilibrium temperature, K	uncertainty
0.9	101	429	0.5
