Measured thermophysical data. Synthesis, characterization and thermochemistry of K2B5O8(OH)*2H2O
Source: Thermochim. Acta, 2007, 10.1016/j.tca.2006.12.008
Compound 1: potassium chloride, ClK, InChI=1S/ClH.K/h1H;/q;+1/p-1
Compound 2: hydrogen chloride, ClH, InChI=1S/ClH/h1H, purity 99.9%
Compound 3: boric acid, BH3O3, InChI=1S/BH3O3/c2-1(3)4/h2-4H, purity 99%
Compound 4: water, H2O, InChI=1S/H2O/h1H2, purity 99.99%
Compound 5: boron potassium hydroxide oxide (B5K2(OH)O8), hydrate (1:2), B5H5K2O11, InChI=1S/2B2O3.BO2.2K.3H2O/c2*3-1-5-2-4;2-1-3;;;;;/h;;;;;3*1H2/q;;-1;2*+1;;;/p-1, purity 98%

System: boron potassium hydroxide oxide (B5K2(OH)O8), hydrate (1:2); phases: Crystal
Property: Mass density, kg/m3 (Crystal); method: X-ray diffraction
Temperature, K	Pressure, kPa	Mass density, kg/m3	uncertainty
298.15	101.325	2158	

System: hydrogen chloride + water + boric acid; phases: Liquid
Property: Molar enthalpy of solution, kJ/mol (Liquid); method: Calvet calorimetry
Mole fraction of boric acid	Temperature, K	Pressure, kPa	Solvent: Amount ratio of component to other component of binary solvent of water	Molar enthalpy of solution, kJ/mol	uncertainty
0.000611	298.15	101	54.506	109.15	

Reaction: 2 potassium chloride + -2 hydrogen chloride + 5 boric acid + -1 boron potassium hydroxide oxide (B5K2(OH)O8), hydrate (1:2) + -4 water
Property: Molar enthalpy of reaction, kJ/mol
-100.75
