Measured thermophysical data. The hydrogen bonding enthalpies of water and methanol in ionic liquids
Source: Thermochim. Acta, 2018, 10.1016/j.tca.2018.07.023
Compound 1: water, H2O, InChI=1S/H2O/h1H2
Compound 2: 1-butyl-3-methylimidazolium tetrafluoroborate, C8H15BF4N2, InChI=1S/C8H15N2.BF4/c1-3-4-5-10-7-6-9(2)8-10;2-1(3,4)5/h6-8H,3-5H2,1-2H3;/q+1;-1, purity 98%
Compound 3: 1-butyl-3-methylimidazolium trifluoromethanesulfonate, C9H15F3N2O3S, InChI=1S/C8H15N2.CHF3O3S/c1-3-4-5-10-7-6-9(2)8-10;2-1(3,4)8(5,6)7/h6-8H,3-5H2,1-2H3;(H,5,6,7)/q+1;/p-1, purity 99%
Compound 4: 1-butyl-3-methylimidazolium hexafluorophosphate, C8H15F6N2P, InChI=1S/C8H15N2.F6P/c1-3-4-5-10-7-6-9(2)8-10;1-7(2,3,4,5)6/h6-8H,3-5H2,1-2H3;/q+1;-1, purity 98%

System: water + 1-butyl-3-methylimidazolium tetrafluoroborate; phases: Liquid
Property: Molar enthalpy of solution, kJ/mol (Liquid); method: Titration calorimetry
Temperature, K	Pressure, kPa	Mole fraction of water	Molar enthalpy of solution, kJ/mol	uncertainty
298.15	100	0	12.25	0.32

System: water + 1-butyl-3-methylimidazolium trifluoromethanesulfonate; phases: Liquid
Property: Molar enthalpy of solution, kJ/mol (Liquid); method: Titration calorimetry
Temperature, K	Pressure, kPa	Mole fraction of water	Molar enthalpy of solution, kJ/mol	uncertainty
298.15	100	0	6.1	0.21

System: water + 1-butyl-3-methylimidazolium hexafluorophosphate; phases: Liquid
Property: Molar enthalpy of solution, kJ/mol (Liquid); method: Titration calorimetry
Temperature, K	Pressure, kPa	Mole fraction of water	Molar enthalpy of solution, kJ/mol	uncertainty
298.15	100	0	9.8	0.29
