Measured thermophysical data. Combined experiments to measure low sublimation pressures and diffusion coefficients of organometallic compounds
Source: Thermochim. Acta, 2007, 10.1016/j.tca.2006.10.021
Compound 1: phenanthrene, C14H10, InChI=1S/C14H10/c1-3-7-13-11(5-1)9-10-12-6-2-4-8-14(12)13/h1-10H
Compound 2: naphthalene, C10H8, InChI=1S/C10H8/c1-2-6-10-8-4-3-7-9(10)5-1/h1-8H
Compound 3: ferrocene, C10H10Fe, InChI=1S/2C5H5.Fe/c2*1-2-4-5-3-1;/h2*1-5H;
Compound 4: nitrogen, N2, InChI=1S/N2/c1-2
Compound 5: helium, He, InChI=1S/He

System: phenanthrene + nitrogen; phases: Gas
Fixed: Pressure, kPa = 101
Fixed: Mole fraction of phenanthrene = 0
Property: Binary diffusion coefficient, m2/s (Gas); method: Open capillary
Temperature, K	Binary diffusion coefficient, m2/s	uncertainty
325	7.5e-06	800
342	7.8e-06	800
360	8.3e-06	800

System: phenanthrene + helium; phases: Gas
Fixed: Pressure, kPa = 101
Fixed: Mole fraction of phenanthrene = 0
Property: Binary diffusion coefficient, m2/s (Gas); method: Open capillary
Temperature, K	Binary diffusion coefficient, m2/s	uncertainty
330	2.76e-05	2800
349	3.14e-05	3100
368	3.55e-05	3600

System: naphthalene + nitrogen; phases: Gas
Fixed: Pressure, kPa = 101
Fixed: Mole fraction of naphthalene = 0
Property: Binary diffusion coefficient, m2/s (Gas); method: Open capillary
Temperature, K	Binary diffusion coefficient, m2/s	uncertainty
307	8.5e-06	900
324.4	1.03e-05	1000
341.5	1.11e-05	1100

System: naphthalene + helium; phases: Gas
Fixed: Pressure, kPa = 101
Fixed: Mole fraction of naphthalene = 0
Property: Binary diffusion coefficient, m2/s (Gas); method: Open capillary
Temperature, K	Binary diffusion coefficient, m2/s	uncertainty
310.5	2.8e-05	2800
329.7	3e-05	3000
349.3	3.31e-05	3300

System: ferrocene + nitrogen; phases: Gas
Fixed: Pressure, kPa = 101
Fixed: Mole fraction of ferrocene = 0
Property: Binary diffusion coefficient, m2/s (Gas); method: Open capillary
Temperature, K	Binary diffusion coefficient, m2/s	uncertainty
308.2	7.9e-06	800
325	8.8e-06	900
341	9.7e-06	1000
359	1.06e-05	1100
376	1.19e-05	1200
392.9	1.28e-05	1300

System: ferrocene + helium; phases: Gas
Fixed: Pressure, kPa = 101
Fixed: Mole fraction of ferrocene = 0
Property: Binary diffusion coefficient, m2/s (Gas); method: Open capillary
Temperature, K	Binary diffusion coefficient, m2/s	uncertainty
329.5	2.54e-05	2500
348.8	2.83e-05	2800
368	3.15e-05	3200
387.5	3.59e-05	3600
