Measured thermophysical data. Volumetric properties of the water + ethylenediamine mixture at atmospheric pressure from 288.15 to 353.15K
Source: Thermochim. Acta, 2006, 10.1016/j.tca.2006.01.013
Compound 1: water, H2O, InChI=1S/H2O/h1H2
Compound 2: ethane-1,2-diamine, C2H8N2, InChI=1S/C2H8N2/c3-1-2-4/h1-4H2, purity 99%

System: ethane-1,2-diamine; phases: Liquid
Fixed: Pressure, kPa = 101.325
Property: Mass density, kg/m3 (Liquid); method: Vibrating tube method
Temperature, K	Mass density, kg/m3	uncertainty
285.15	904.27	0.47
285.65	903.81	0.47
286.15	903.34	0.47
286.65	902.87	0.47
287.15	902.41	0.47
287.65	901.94	0.47
288.15	901.47	0.47
288.65	901	0.47
289.15	900.53	0.47
289.65	900.07	0.47
290.15	899.6	0.47
290.65	899.13	0.47
291.15	898.66	0.46
291.65	898.19	0.46
292.15	897.72	0.46
292.65	897.25	0.46
293.15	896.78	0.46
293.65	896.31	0.46
294.15	895.85	0.46
294.65	895.38	0.46
295.15	894.91	0.46
295.65	894.44	0.46
296.15	893.97	0.46
296.65	893.5	0.46
297.15	893.03	0.46
297.65	892.56	0.46
298.15	892.09	0.46
298.65	891.62	0.46
299.15	891.14	0.46
299.65	890.67	0.46
300.15	890.2	0.46
300.65	889.73	0.46
301.15	889.26	0.46
301.65	888.79	0.46
302.15	888.32	0.46
302.65	887.85	0.46
303.15	887.38	0.46
303.65	886.9	0.46
304.15	886.43	0.46
304.65	885.96	0.46
305.15	885.49	0.46
305.65	885.02	0.46
306.15	884.54	0.46
306.65	884.07	0.46
307.15	883.6	0.46
307.65	883.12	0.46
308.15	882.65	0.46
308.65	882.18	0.46
309.15	881.7	0.46
309.65	881.23	0.46
310.15	880.76	0.46
310.65	880.28	0.46
311.15	879.81	0.46
311.65	879.33	0.46
312.15	878.86	0.46
312.65	878.38	0.46
313.15	877.91	0.46
313.65	877.44	0.46
314.15	876.96	0.46
314.65	876.48	0.46
315.15	876.01	0.46
315.65	875.53	0.46
316.15	875.06	0.46
316.65	874.58	0.46
317.15	874.11	0.46
317.65	873.63	0.46
318.15	873.15	0.46
318.65	872.68	0.46
319.15	872.2	0.46
319.65	871.72	0.46
320.15	871.25	0.45
320.65	870.77	0.45
321.15	870.29	0.45
321.65	869.81	0.45
322.15	869.34	0.45
322.65	868.86	0.45
323.15	868.38	0.45
323.65	867.9	0.45
324.15	867.42	0.45
324.65	866.94	0.45
325.15	866.47	0.45
325.65	865.99	0.45
326.15	865.51	0.45
326.65	865.03	0.45
327.15	864.55	0.45
327.65	864.07	0.45
328.15	863.59	0.45
328.65	863.11	0.45
329.15	862.63	0.45
329.65	862.14	0.45
330.15	861.66	0.45
330.65	861.18	0.45
331.15	860.7	0.45
331.65	860.22	0.45
332.15	859.74	0.45
332.65	859.25	0.45
333.15	858.77	0.45
333.65	858.29	0.45
334.15	857.81	0.45
334.65	857.32	0.45
335.15	856.84	0.45
335.65	856.36	0.45
336.15	855.87	0.45
336.65	855.39	0.45
337.15	854.91	0.45
337.65	854.42	0.45
338.15	853.93	0.45
338.65	853.45	0.45
339.15	852.96	0.45
339.65	852.48	0.45
340.15	851.99	0.45
340.65	851.51	0.45
341.15	851.02	0.45
341.65	850.53	0.45
342.15	850.05	0.45
342.65	849.56	0.45
343.15	849.07	0.45
343.65	848.58	0.45
344.15	848.1	0.45
344.65	847.61	0.45
345.15	847.12	0.45
345.65	846.63	0.45
346.15	846.14	0.45
346.65	845.66	0.45
347.15	845.17	0.45
347.65	844.68	0.45
348.15	844.19	0.45
348.65	843.7	0.45
349.15	843.21	0.45
349.65	842.72	0.45
350.15	842.23	0.45
350.65	841.75	0.45
351.15	841.26	0.45
351.65	840.76	0.44
352.15	840.27	0.44
352.65	839.78	0.44
353.15	839.29	0.44
353.65	838.8	0.44
354.15	838.31	0.44
354.65	837.81	0.44
355.14	837.32	0.44
355.65	836.83	0.44
356.15	836.33	0.44
356.64	835.84	0.44
357.15	835.35	0.44
357.65	834.85	0.44
358.14	834.36	0.44
358.64	833.86	0.44
359.14	833.37	0.44
359.64	832.87	0.44
360.14	832.38	0.44
360.64	831.88	0.44
361.14	831.38	0.44
361.65	830.89	0.44
362.15	830.39	0.44
362.65	829.89	0.44
363.15	829.4	0.44

System: ethane-1,2-diamine + water; phases: Liquid
Fixed: Pressure, kPa = 101
Property: Mass density, kg/m3 (Liquid); method: Vibrating tube method
Temperature, K	Mole fraction of water	Mass density, kg/m3	uncertainty
288.15	0.0401	905.79	0.45
288.15	0.0797	909.79	0.43
288.15	0.1199	914.18	0.42
288.15	0.1598	918.88	0.4
288.15	0.2003	923.88	0.38
288.15	0.25	930.08	0.36
288.15	0.2999	936.78	0.34
288.15	0.3497	944.11	0.32
288.15	0.3998	951.74	0.31
288.15	0.4504	959.71	0.29
288.15	0.5001	967.93	0.27
288.15	0.5499	976.43	0.24
288.15	0.5998	984.56	0.22
288.15	0.6499	991.92	0.19
288.15	0.7004	998.03	0.16
288.15	0.7499	1001.68	0.14
288.15	0.8	1002.5	0.12
288.15	0.84	1001.38	0.1
288.15	0.88	999.21	0.08
288.15	0.9193	997.06	0.07
288.15	0.9599	996.39	0.05
293.15	0.0401	901.13	0.45
293.15	0.0797	905.15	0.43
293.15	0.1199	909.56	0.42
293.15	0.1598	914.28	0.4
293.15	0.2003	919.29	0.38
293.15	0.25	925.52	0.36
293.15	0.2999	932.23	0.34
293.15	0.3497	939.57	0.32
293.15	0.3998	947.2	0.3
293.15	0.4504	955.18	0.29
293.15	0.5001	963.41	0.27
293.15	0.5499	971.92	0.24
293.15	0.5998	980.1	0.22
293.15	0.6499	987.54	0.19
293.15	0.7004	993.83	0.17
293.15	0.7499	997.76	0.14
293.15	0.8	999	0.12
293.15	0.84	998.31	0.1
293.15	0.88	996.66	0.08
293.15	0.9193	995.08	0.06
293.15	0.9599	995.01	0.05
298.15	0.0401	896.45	0.45
298.15	0.0797	900.49	0.43
298.15	0.1199	904.92	0.41
298.15	0.1598	909.66	0.4
298.15	0.2003	914.69	0.38
298.15	0.25	920.93	0.36
298.15	0.2999	927.67	0.34
298.15	0.3497	935.02	0.32
298.15	0.3998	942.65	0.3
298.15	0.4504	950.64	0.29
298.15	0.5001	958.87	0.27
298.15	0.5499	967.39	0.24
298.15	0.5998	975.61	0.22
298.15	0.6499	983.14	0.19
298.15	0.7004	989.6	0.17
298.15	0.7499	993.81	0.14
298.15	0.8	995.45	0.12
298.15	0.84	995.17	0.1
298.15	0.88	994.01	0.08
298.15	0.9193	992.96	0.07
298.15	0.9599	993.42	0.05
303.15	0.0401	891.76	0.44
303.15	0.0797	895.82	0.43
303.15	0.1199	900.27	0.41
303.15	0.1598	905.03	0.4
303.15	0.2003	910.07	0.38
303.15	0.25	916.33	0.36
303.15	0.2999	923.08	0.34
303.15	0.3497	930.44	0.32
303.15	0.3998	938.08	0.3
303.15	0.4504	946.07	0.28
303.15	0.5001	954.3	0.27
303.15	0.5499	962.83	0.24
303.15	0.5998	971.09	0.22
303.15	0.6499	978.72	0.19
303.15	0.7004	985.34	0.17
303.15	0.7499	989.81	0.14
303.15	0.8	991.83	0.12
303.15	0.84	991.96	0.1
303.15	0.88	991.27	0.08
303.15	0.9193	990.71	0.07
303.15	0.9599	991.65	0.05
308.15	0.0401	887.06	0.44
308.15	0.0797	891.14	0.43
308.15	0.1199	895.6	0.41
308.15	0.1598	900.38	0.4
308.15	0.2003	905.43	0.38
308.15	0.25	911.71	0.36
308.15	0.2999	918.47	0.34
308.15	0.3497	925.84	0.32
308.15	0.3998	933.48	0.3
308.15	0.4504	941.48	0.28
308.15	0.5001	949.72	0.27
308.15	0.5499	958.26	0.24
308.15	0.5998	966.55	0.22
308.15	0.6499	974.26	0.19
308.15	0.7004	981.04	0.17
308.15	0.7499	985.76	0.14
308.15	0.8	988.16	0.12
308.15	0.84	988.67	0.1
308.15	0.88	988.42	0.08
308.15	0.9193	988.32	0.07
308.15	0.9599	989.7	0.05
313.15	0.0401	882.34	0.44
313.15	0.0797	886.43	0.43
313.15	0.1199	890.91	0.41
313.15	0.1598	895.71	0.39
313.15	0.2003	900.77	0.38
313.15	0.25	907.07	0.36
313.15	0.2999	913.84	0.34
313.15	0.3497	921.21	0.32
313.15	0.3998	928.86	0.3
313.15	0.4504	936.86	0.28
313.15	0.5001	945.1	0.27
313.15	0.5499	953.66	0.24
313.15	0.5998	961.99	0.22
313.15	0.6499	969.77	0.19
313.15	0.7004	976.7	0.17
313.15	0.7499	981.67	0.14
313.15	0.8	984.43	0.12
313.15	0.84	985.31	0.1
313.15	0.88	985.47	0.08
313.15	0.9193	985.81	0.07
313.15	0.9599	987.59	0.06
318.15	0.0401	877.6	0.44
318.15	0.0797	881.71	0.42
318.15	0.1199	886.2	0.41
318.15	0.1598	891.01	0.39
318.15	0.2003	896.09	0.38
318.15	0.25	902.4	0.36
318.15	0.2999	909.18	0.34
318.15	0.3497	916.56	0.32
318.15	0.3998	924.21	0.3
318.15	0.4504	932.22	0.28
318.15	0.5001	940.46	0.27
318.15	0.5499	949.04	0.24
318.15	0.5998	957.4	0.22
318.15	0.6499	965.25	0.19
318.15	0.7004	972.33	0.17
318.15	0.7499	977.53	0.14
318.15	0.8	980.63	0.12
318.15	0.84	981.87	0.1
318.15	0.88	982.43	0.09
318.15	0.9193	983.17	0.07
318.15	0.9599	985.32	0.06
323.15	0.0401	872.83	0.44
323.15	0.0797	876.97	0.42
323.15	0.1199	881.48	0.41
323.15	0.1598	886.3	0.39
323.15	0.2003	891.39	0.38
323.15	0.25	897.71	0.36
323.15	0.2999	904.5	0.34
323.15	0.3497	911.88	0.32
323.15	0.3998	919.54	0.3
323.15	0.4504	927.55	0.28
323.15	0.5001	935.8	0.27
323.15	0.5499	944.38	0.24
323.15	0.5998	952.77	0.22
323.15	0.6499	960.7	0.19
323.15	0.7004	967.91	0.17
323.15	0.7499	973.34	0.14
323.15	0.8	976.78	0.12
323.15	0.84	978.35	0.1
323.15	0.88	979.3	0.09
323.15	0.9193	980.41	0.07
323.15	0.9599	982.91	0.06
328.15	0.0401	868.06	0.44
328.15	0.0797	872.2	0.42
328.15	0.1199	876.73	0.41
328.15	0.1598	881.56	0.39
328.15	0.2003	886.66	0.37
328.15	0.25	892.99	0.36
328.15	0.2999	899.79	0.34
328.15	0.3497	907.18	0.32
328.15	0.3998	914.84	0.3
328.15	0.4504	922.85	0.28
328.15	0.5001	931.11	0.27
328.15	0.5499	939.7	0.24
328.15	0.5998	948.12	0.22
328.15	0.6499	956.11	0.19
328.15	0.7004	963.45	0.17
328.15	0.7499	969.1	0.15
328.15	0.8	972.86	0.12
328.15	0.84	974.76	0.1
328.15	0.88	976.06	0.09
328.15	0.9193	977.53	0.07
328.15	0.9599	980.35	0.06
333.15	0.0401	863.25	0.44
333.15	0.0797	867.42	0.42
333.15	0.1199	871.95	0.4
333.15	0.1598	876.8	0.39
333.15	0.2003	881.91	0.37
333.15	0.25	888.25	0.35
333.15	0.2999	895.05	0.34
333.15	0.3497	902.45	0.32
333.15	0.3998	910.11	0.3
333.15	0.4504	918.12	0.28
333.15	0.5001	926.38	0.27
333.15	0.5499	934.98	0.24
333.15	0.5998	943.43	0.22
333.15	0.6499	951.49	0.2
333.15	0.7004	958.96	0.17
333.15	0.7499	964.81	0.15
333.15	0.8	968.88	0.12
333.15	0.84	971.09	0.11
333.15	0.88	972.74	0.09
333.15	0.9193	974.54	0.08
333.15	0.9599	977.65	0.06
338.15	0.0401	858.43	0.43
338.15	0.0797	862.6	0.42
338.15	0.1199	867.15	0.4
338.15	0.1598	872.01	0.39
338.15	0.2003	877.13	0.37
338.15	0.25	883.48	0.35
338.15	0.2999	890.29	0.34
338.15	0.3497	897.69	0.32
338.15	0.3998	905.35	0.3
338.15	0.4504	913.36	0.28
338.15	0.5001	921.62	0.27
338.15	0.5499	930.23	0.24
338.15	0.5998	938.7	0.22
338.15	0.6499	946.83	0.2
338.15	0.7004	954.42	0.17
338.15	0.7499	960.46	0.15
338.15	0.8	964.84	0.12
338.15	0.84	967.34	0.11
338.15	0.88	969.32	0.09
338.15	0.9193	971.43	0.08
338.15	0.9599	974.83	0.07
343.15	0.0401	853.59	0.43
343.15	0.0797	857.77	0.42
343.15	0.1199	862.33	0.4
343.15	0.1598	867.2	0.39
343.15	0.2003	872.32	0.37
343.15	0.25	878.68	0.35
343.15	0.2999	885.49	0.33
343.15	0.3497	892.89	0.32
343.15	0.3998	900.55	0.3
343.15	0.4504	908.57	0.28
343.15	0.5001	916.83	0.27
343.15	0.5499	925.44	0.24
343.15	0.5998	933.95	0.22
343.15	0.6499	942.13	0.2
343.15	0.7004	949.83	0.17
343.15	0.7499	956.08	0.15
343.15	0.8	960.73	0.13
343.15	0.84	963.52	0.11
343.15	0.88	965.81	0.09
343.15	0.9193	968.22	0.08
343.15	0.9599	971.88	0.07
348.15	0.0401	848.71	0.43
348.15	0.0797	852.91	0.42
348.15	0.1199	857.47	0.4
348.15	0.1598	862.35	0.39
348.15	0.2003	867.48	0.37
348.15	0.25	873.85	0.35
348.15	0.2999	880.67	0.33
348.15	0.3497	888.07	0.32
348.15	0.3998	895.73	0.3
348.15	0.4504	903.74	0.28
348.15	0.5001	912	0.27
348.15	0.5499	920.62	0.24
348.15	0.5998	929.15	0.22
348.15	0.6499	937.39	0.2
348.15	0.7004	945.19	0.17
348.15	0.7499	951.64	0.15
348.15	0.8	956.56	0.13
348.15	0.84	959.62	0.11
348.15	0.88	962.21	0.09
348.15	0.9193	964.91	0.08
348.15	0.9599	968.82	0.07
353.15	0.0401	843.82	0.43
353.15	0.0797	848.01	0.41
353.15	0.1199	852.59	0.4
353.15	0.1598	857.48	0.38
353.15	0.2003	862.61	0.37
353.15	0.25	868.98	0.35
353.15	0.2999	875.81	0.33
353.15	0.3497	883.2	0.32
353.15	0.3998	890.86	0.3
353.15	0.4504	898.87	0.28
353.15	0.5001	907.14	0.26
353.15	0.5499	915.76	0.24
353.15	0.5998	924.32	0.22
353.15	0.6499	932.61	0.2
353.15	0.7004	940.53	0.17
353.15	0.7499	947.14	0.15
353.15	0.8	952.33	0.13
353.15	0.84	955.65	0.11
353.15	0.88	958.53	0.1
353.15	0.9193	961.5	0.08
353.15	0.9599	965.65	0.07
