Measured thermophysical data. Thermogravimetric measurement of the equilibrium vapour pressure:  Application to water and triethanolamine
Source: Thermochim. Acta, 2018, 10.1016/j.tca.2018.05.007
Compound 1: triethanolamine, C6H15NO3, InChI=1S/C6H15NO3/c8-4-1-7(2-5-9)3-6-10/h8-10H,1-6H2, purity 99%

System: triethanolamine; phases: Liquid, Gas
Property: Vapor or sublimation pressure, kPa (Liquid); method: Rate of evaporation
Temperature, K	Vapor or sublimation pressure, kPa	uncertainty
365	0.000835	0.000339
375	0.002129	0.000865
385	0.005005	0.002033
395	0.01093	0.00444
405	0.02229	0.00905
415	0.04274	0.01736
425	0.07739	0.03144
435	0.133	0.054
445	0.2176	0.0884
455	0.3407	0.1384
465	0.5116	0.2078

System: triethanolamine; phases: Liquid, Gas
Property: Vapor or sublimation pressure, kPa (Liquid); method: Rate of evaporation
Temperature, K	Vapor or sublimation pressure, kPa	uncertainty
375	0.002041	0.000829
385	0.004526	0.001838
395	0.009521	0.003867
405	0.01908	0.00775
415	0.03658	0.01486
425	0.06729	0.02733
435	0.1191	0.0484
445	0.2036	0.0827
455	0.3368	0.1368
460	0.4282	0.1739

System: triethanolamine; phases: Liquid, Gas
Property: Vapor or sublimation pressure, kPa (Liquid); method: Rate of evaporation
Temperature, K	Vapor or sublimation pressure, kPa	uncertainty
400	0.01404	0.0057
410	0.02726	0.01107
420	0.05078	0.02063
430	0.09108	0.037
440	0.1577	0.0641
450	0.2644	0.1074
460	0.4299	0.1746
465	0.5424	0.2203

System: triethanolamine; phases: Liquid, Gas
Property: Vapor or sublimation pressure, kPa (Liquid); method: Rate of evaporation
Temperature, K	Vapor or sublimation pressure, kPa	uncertainty
405	0.01908	0.00775
415	0.03733	0.01516
425	0.06993	0.02841
435	0.1259	0.0511
445	0.2184	0.0887
455	0.3662	0.1488
465	0.5946	0.2415
475	0.9374	0.3808
480	1.165	0.473

System: triethanolamine; phases: Liquid, Gas
Property: Vapor or sublimation pressure, kPa (Liquid); method: Rate of evaporation
Temperature, K	Vapor or sublimation pressure, kPa	uncertainty
430	0.0987	0.04009
440	0.1715	0.0697
450	0.2908	0.1181
460	0.4817	0.1957
470	0.7812	0.3173
480	1.242	0.505
490	1.936	0.786

System: triethanolamine; phases: Liquid, Gas
Property: Vapor or sublimation pressure, kPa (Liquid); method: Rate of evaporation
Temperature, K	Vapor or sublimation pressure, kPa	uncertainty
430	0.0881	0.03579
440	0.1578	0.0641
450	0.2755	0.1119
460	0.4694	0.1907
470	0.7818	0.3176
480	1.275	0.518
490	2.038	0.828
500	3.196	1.298
510	4.926	2.001
515	6.077	2.469
