Measured thermophysical data. Microscale calorimetric device for determining reaction parameters
Source: Thermochim. Acta, 2017, 10.1016/j.tca.2017.05.023
Compound 1: water, H2O, InChI=1S/H2O/h1H2
Compound 2: ethanol, C2H6O, InChI=1S/C2H6O/c1-2-3/h3H,2H2,1H3

System: ethanol + water; phases: Liquid
Property: Excess molar enthalpy (molar enthalpy of mixing), kJ/mol (Liquid); method: Flow calorimetry
Mole fraction of ethanol	Pressure, kPa	Temperature, K	Excess molar enthalpy (molar enthalpy of mixing), kJ/mol	uncertainty
0.102	100	298.15	-0.70659	0.00807
