Measured thermophysical data. Solid-phase transitions of polymorphs of 4-(4-N,N-dialkylaminophenyl)azobiphenyl-2,3',4'-tricarbonitriles and their analogues
Source: Thermochim. Acta, 2018, 10.1016/j.tca.2018.08.022
Compound 1: 4-((4-(diethylamino)phenyl)diazenyl)-[1,1'-biphenyl]-2,3',4'-tricarbonitrile, C25H20N6, InChI=1S/C25H20N6/c1-3-31(4-2)24-10-7-22(8-11-24)29-30-23-9-12-25(21(14-23)17-28)18-5-6-19(15-26)20(13-18)16-27/h5-14H,3-4H2,1-2H3
Compound 2: 4-((4-(dioctylamino)phenyl)diazenyl)-[1,1'-biphenyl]-2,3',4'-tricarbonitrile, C37H44N6, InChI=1S/C37H44N6/c1-3-5-7-9-11-13-23-43(24-14-12-10-8-6-4-2)36-20-17-34(18-21-36)41-42-35-19-22-37(33(26-35)29-40)30-15-16-31(27-38)32(25-30)28-39/h15-22,25-26H,3-14,23-24H2,1-2H3
Compound 3: 4-((4-(dibutylamino)phenyl)diazenyl)-[1,1'-biphenyl]-2,3',4'-tricarbonitrile, C29H28N6, InChI=1S/C29H28N6/c1-3-5-15-35(16-6-4-2)28-12-9-26(10-13-28)33-34-27-11-14-29(25(18-27)21-32)22-7-8-23(19-30)24(17-22)20-31/h7-14,17-18H,3-6,15-16H2,1-2H3
Compound 4: 6-((4-(dibutylamino)phenyl)diazenyl)-[1,1'-biphenyl]-2,3',4'-tricarbonitrile, C29H28N6, InChI=1S/C29H28N6/c1-3-5-16-35(17-6-4-2)27-14-12-26(13-15-27)33-34-28-9-7-8-24(20-31)29(28)22-10-11-23(19-30)25(18-22)21-32/h7-15,18H,3-6,16-17H2,1-2H3
Compound 5: 5-((4-(dibutylamino)phenyl)diazenyl)-2-(1,3-dioxoisoindolin-5-yl)benzonitrile, C29H29N5O2, InChI=1S/C29H29N5O2/c1-3-5-15-34(16-6-4-2)24-11-8-22(9-12-24)32-33-23-10-14-25(21(17-23)19-30)20-7-13-26-27(18-20)29(36)31-28(26)35/h7-14,17-18H,3-6,15-16H2,1-2H3,(H,31,35,36)
Compound 6: 4-amino-[1,1'-biphenyl]-2,3',4'-tricarbonitrile, C15H8N4, InChI=1S/C15H8N4/c16-7-11-2-1-10(5-12(11)8-17)15-4-3-14(19)6-13(15)9-18/h1-6H,19H2
Compound 7: 4-nitro-[1,1'-biphenyl]-2,3',4'-tricarbonitrile, C15H6N4O2, InChI=1S/C15H6N4O2/c16-7-11-2-1-10(5-12(11)8-17)15-4-3-14(19(20)21)6-13(15)9-18/h1-6H
Compound 8: 2-(1,3-dioxoisoindolin-5-yl)-5-nitrobenzonitrile, C15H7N3O4, InChI=1S/C15H7N3O4/c16-7-9-5-10(18(21)22)2-4-11(9)8-1-3-12-13(6-8)15(20)17-14(12)19/h1-6H,(H,17,19,20)
Compound 9: 5-amino-2-(1,3-dioxoisoindolin-5-yl)benzonitrile, C15H9N3O2, InChI=1S/C15H9N3O2/c16-7-9-5-10(17)2-4-11(9)8-1-3-12-13(6-8)15(20)18-14(12)19/h1-6H,17H2,(H,18,19,20)

System: 4-((4-(diethylamino)phenyl)diazenyl)-[1,1'-biphenyl]-2,3',4'-tricarbonitrile; phases: Crystal 2
Property: Mass density, kg/m3 (Crystal 2); method: X-ray diffraction
Temperature, K	Pressure, kPa	Mass density, kg/m3	uncertainty
296	101.325	1217	8

System: 4-((4-(diethylamino)phenyl)diazenyl)-[1,1'-biphenyl]-2,3',4'-tricarbonitrile; phases: Crystal 2, Crystal 1, Air at 1 atmosphere
Property: Triple point temperature, K (Crystal 2); method: DSC
Triple point temperature, K	uncertainty
487.95	0.8

System: 4-((4-(diethylamino)phenyl)diazenyl)-[1,1'-biphenyl]-2,3',4'-tricarbonitrile; phases: Crystal 1, Liquid, Air at 1 atmosphere
Property: Triple point temperature, K (Crystal 1); method: DSC
Triple point temperature, K	uncertainty
503.45	0.8

System: 4-((4-(diethylamino)phenyl)diazenyl)-[1,1'-biphenyl]-2,3',4'-tricarbonitrile; phases: Crystal 2, Crystal 1, Air at 1 atmosphere
Property: Molar enthalpy of transition or fusion, kJ/mol (Crystal 2); method: DSC
Molar enthalpy of transition or fusion, kJ/mol	uncertainty
5.5	0.3

System: 4-((4-(diethylamino)phenyl)diazenyl)-[1,1'-biphenyl]-2,3',4'-tricarbonitrile; phases: Crystal 1, Liquid, Air at 1 atmosphere
Property: Molar enthalpy of transition or fusion, kJ/mol (Crystal 1); method: DSC
Molar enthalpy of transition or fusion, kJ/mol	uncertainty
34	1.2

System: 4-((4-(diethylamino)phenyl)diazenyl)-[1,1'-biphenyl]-2,3',4'-tricarbonitrile; phases: Metastable crystal, Liquid, Air at 1 atmosphere
Property: Triple point temperature, K (Metastable crystal); method: DSC
Triple point temperature, K	uncertainty
489.35	0.8

System: 4-((4-(dioctylamino)phenyl)diazenyl)-[1,1'-biphenyl]-2,3',4'-tricarbonitrile; phases: Metastable crystal
Property: Mass density, kg/m3 (Metastable crystal); method: X-ray diffraction
Temperature, K	Pressure, kPa	Mass density, kg/m3	uncertainty
296	101.325	1124	7

System: 4-((4-(dioctylamino)phenyl)diazenyl)-[1,1'-biphenyl]-2,3',4'-tricarbonitrile; phases: Crystal 1, Liquid, Air at 1 atmosphere
Property: Triple point temperature, K (Crystal 1); method: DSC
Triple point temperature, K	uncertainty
368.35	0.8

System: 4-((4-(dioctylamino)phenyl)diazenyl)-[1,1'-biphenyl]-2,3',4'-tricarbonitrile; phases: Metastable crystal, Liquid, Air at 1 atmosphere
Property: Triple point temperature, K (Metastable crystal); method: DSC
Triple point temperature, K	uncertainty
365.05	0.8

System: 4-((4-(dibutylamino)phenyl)diazenyl)-[1,1'-biphenyl]-2,3',4'-tricarbonitrile; phases: Crystal 1
Property: Mass density, kg/m3 (Crystal 1); method: X-ray diffraction
Temperature, K	Pressure, kPa	Mass density, kg/m3	uncertainty
296	101.325	1165	6

System: 4-((4-(dibutylamino)phenyl)diazenyl)-[1,1'-biphenyl]-2,3',4'-tricarbonitrile; phases: Crystal 1, Liquid, Air at 1 atmosphere
Property: Triple point temperature, K (Crystal 1); method: DSC
Triple point temperature, K	uncertainty
427.35	0.8

System: 4-((4-(dibutylamino)phenyl)diazenyl)-[1,1'-biphenyl]-2,3',4'-tricarbonitrile; phases: Crystal 1, Liquid, Air at 1 atmosphere
Property: Molar enthalpy of transition or fusion, kJ/mol (Crystal 1); method: DSC
Molar enthalpy of transition or fusion, kJ/mol	uncertainty
35.1	1.3

System: 4-((4-(dibutylamino)phenyl)diazenyl)-[1,1'-biphenyl]-2,3',4'-tricarbonitrile; phases: Metastable crystal, Liquid, Air at 1 atmosphere
Property: Triple point temperature, K (Metastable crystal); method: DSC
Triple point temperature, K	uncertainty
403.45	0.8

System: 4-((4-(dibutylamino)phenyl)diazenyl)-[1,1'-biphenyl]-2,3',4'-tricarbonitrile; phases: Glass, Liquid, Air at 1 atmosphere
Property: Triple point temperature, K (Glass); method: DSC
Triple point temperature, K	uncertainty
315.15	0.8

System: 6-((4-(dibutylamino)phenyl)diazenyl)-[1,1'-biphenyl]-2,3',4'-tricarbonitrile; phases: Crystal 2
Property: Mass density, kg/m3 (Crystal 2); method: X-ray diffraction
Temperature, K	Pressure, kPa	Mass density, kg/m3	uncertainty
296	101.325	1180	6

System: 6-((4-(dibutylamino)phenyl)diazenyl)-[1,1'-biphenyl]-2,3',4'-tricarbonitrile; phases: Crystal 2, Crystal 1, Air at 1 atmosphere
Property: Triple point temperature, K (Crystal 2); method: DSC
Triple point temperature, K	uncertainty
386.25	0.8

System: 6-((4-(dibutylamino)phenyl)diazenyl)-[1,1'-biphenyl]-2,3',4'-tricarbonitrile; phases: Crystal 1, Liquid, Air at 1 atmosphere
Property: Triple point temperature, K (Crystal 1); method: DSC
Triple point temperature, K	uncertainty
469.05	0.8

System: 6-((4-(dibutylamino)phenyl)diazenyl)-[1,1'-biphenyl]-2,3',4'-tricarbonitrile; phases: Crystal 2, Crystal 1, Air at 1 atmosphere
Property: Molar enthalpy of transition or fusion, kJ/mol (Crystal 2); method: DSC
Molar enthalpy of transition or fusion, kJ/mol	uncertainty
2.7	0.2

System: 6-((4-(dibutylamino)phenyl)diazenyl)-[1,1'-biphenyl]-2,3',4'-tricarbonitrile; phases: Crystal 1, Liquid, Air at 1 atmosphere
Property: Molar enthalpy of transition or fusion, kJ/mol (Crystal 1); method: DSC
Molar enthalpy of transition or fusion, kJ/mol	uncertainty
35.5	1.3

System: 5-((4-(dibutylamino)phenyl)diazenyl)-2-(1,3-dioxoisoindolin-5-yl)benzonitrile; phases: Crystal 2
Property: Mass density, kg/m3 (Crystal 2); method: X-ray diffraction
Temperature, K	Pressure, kPa	Mass density, kg/m3	uncertainty
200	101.325	1262	7

System: 5-((4-(dibutylamino)phenyl)diazenyl)-2-(1,3-dioxoisoindolin-5-yl)benzonitrile; phases: Crystal 2, Crystal 1, Air at 1 atmosphere
Property: Triple point temperature, K (Crystal 2); method: DSC
Triple point temperature, K	uncertainty
436.45	0.8

System: 5-((4-(dibutylamino)phenyl)diazenyl)-2-(1,3-dioxoisoindolin-5-yl)benzonitrile; phases: Crystal 1, Liquid, Air at 1 atmosphere
Property: Triple point temperature, K (Crystal 1); method: DSC
Triple point temperature, K	uncertainty
456.85	0.8

System: 5-((4-(dibutylamino)phenyl)diazenyl)-2-(1,3-dioxoisoindolin-5-yl)benzonitrile; phases: Crystal 2, Crystal 1, Air at 1 atmosphere
Property: Molar enthalpy of transition or fusion, kJ/mol (Crystal 2); method: DSC
Molar enthalpy of transition or fusion, kJ/mol	uncertainty
2.6	0.2

System: 5-((4-(dibutylamino)phenyl)diazenyl)-2-(1,3-dioxoisoindolin-5-yl)benzonitrile; phases: Crystal 1, Liquid, Air at 1 atmosphere
Property: Molar enthalpy of transition or fusion, kJ/mol (Crystal 1); method: DSC
Molar enthalpy of transition or fusion, kJ/mol	uncertainty
28.1	1

System: 4-amino-[1,1'-biphenyl]-2,3',4'-tricarbonitrile; phases: Crystal, Liquid, Air at 1 atmosphere
Property: Triple point temperature, K (Crystal); method: VISOBS
Triple point temperature, K	uncertainty
558.15	3

System: 4-nitro-[1,1'-biphenyl]-2,3',4'-tricarbonitrile; phases: Crystal, Liquid, Air at 1 atmosphere
Property: Triple point temperature, K (Crystal); method: VISOBS
Triple point temperature, K	uncertainty
472.15	3

System: 2-(1,3-dioxoisoindolin-5-yl)-5-nitrobenzonitrile; phases: Crystal, Liquid, Air at 1 atmosphere
Property: Triple point temperature, K (Crystal); method: VISOBS
Triple point temperature, K	uncertainty
567.15	3

System: 5-amino-2-(1,3-dioxoisoindolin-5-yl)benzonitrile; phases: Crystal, Liquid, Air at 1 atmosphere
Property: Triple point temperature, K (Crystal); method: VISOBS
Triple point temperature, K	uncertainty
589.15	3
