Measured thermophysical data. The thermochemistry of threonine stereoisomers
Source: Thermochim. Acta, 2013, 10.1016/j.tca.2013.04.001
Compound 1: carbon dioxide, CO2, InChI=1S/CO2/c2-1-3
Compound 2: nitrogen, N2, InChI=1S/N2/c1-2
Compound 3: water, H2O, InChI=1S/H2O/h1H2
Compound 4: oxygen, O2, InChI=1S/O2/c1-2
Compound 5: L-threonine, C4H9NO3, InChI=1S/C4H9NO3/c1-2(6)3(5)4(7)8/h2-3,6H,5H2,1H3,(H,7,8)/t2-,3+/m1/s1
Compound 6: D-threonine, C4H9NO3, InChI=1S/C4H9NO3/c1-2(6)3(5)4(7)8/h2-3,6H,5H2,1H3,(H,7,8)/t2-,3+/m0/s1
Compound 7: 2-amino-3-hydroxybutanoic acid, C4H9NO3, InChI=1S/C4H9NO3/c1-2(6)3(5)4(7)8/h2-3,6H,5H2,1H3,(H,7,8)

Reaction: -1 L-threonine + 4 carbon dioxide + .5 nitrogen + 4.5 water + -4.75 oxygen
Property: Molar internal energy of reaction at constant volume, kJ/mol
-2070.74

Reaction: -1 D-threonine + 4 carbon dioxide + .5 nitrogen + 4.5 water + -4.75 oxygen
Property: Molar internal energy of reaction at constant volume, kJ/mol
-2072.97

Reaction: -1 2-amino-3-hydroxybutanoic acid + 4 carbon dioxide + .5 nitrogen + 4.5 water + -4.75 oxygen
Property: Molar internal energy of reaction at constant volume, kJ/mol
-2082.71
