Measured thermophysical data. Densities, isobaric thermal compressibilities and derived thermodynamic properties of the binary systems of cyclohexane with allyl methacrylate, butyl methacrylate, methacrylic acid, and vinyl acetate at t = (298.15 and 308.15)K
Source: Thermochim. Acta, 2005, 10.1016/j.tca.2005.06.007
Compound 1: cyclohexane, C6H12, InChI=1S/C6H12/c1-2-4-6-5-3-1/h1-6H2, purity 99.94%
Compound 2: 2-propenyl 2-methylpropenoate, C7H10O2, InChI=1S/C7H10O2/c1-4-5-9-7(8)6(2)3/h4H,1-2,5H2,3H3, purity 99.5%
Compound 3: butyl 2-methyl-2-propenoate, C8H14O2, InChI=1S/C8H14O2/c1-4-5-6-10-8(9)7(2)3/h2,4-6H2,1,3H3, purity 99.5%
Compound 4: 2-methyl-2-propenoic acid, C4H6O2, InChI=1S/C4H6O2/c1-3(2)4(5)6/h1H2,2H3,(H,5,6), purity 99.99%
Compound 5: vinyl acetate, C4H6O2, InChI=1S/C4H6O2/c1-3-6-4(2)5/h3H,1H2,2H3, purity 99.8%

System: cyclohexane; phases: Liquid
Fixed: Pressure, kPa = 101.325
Property: Mass density, kg/m3 (Liquid); method: Vibrating tube method
Temperature, K	Mass density, kg/m3	uncertainty
298.15	773.78	0.158
308.15	764.303	0.163

System: 2-propenyl 2-methylpropenoate; phases: Liquid
Fixed: Pressure, kPa = 101.325
Property: Mass density, kg/m3 (Liquid); method: Vibrating tube method
Temperature, K	Mass density, kg/m3	uncertainty
298.15	927.997	0.246
308.15	917.423	0.245

System: butyl 2-methyl-2-propenoate; phases: Liquid
Fixed: Pressure, kPa = 101.325
Property: Mass density, kg/m3 (Liquid); method: Vibrating tube method
Temperature, K	Mass density, kg/m3	uncertainty
298.15	890.438	0.244
308.15	880.857	0.243

System: 2-methyl-2-propenoic acid; phases: Liquid
Fixed: Pressure, kPa = 101.325
Property: Mass density, kg/m3 (Liquid); method: Vibrating tube method
Temperature, K	Mass density, kg/m3	uncertainty
298.15	1009.127	0.045
308.15	998.641	0.041

System: vinyl acetate; phases: Liquid
Fixed: Pressure, kPa = 101.325
Property: Mass density, kg/m3 (Liquid); method: Vibrating tube method
Temperature, K	Mass density, kg/m3	uncertainty
298.15	925.775	0.121
308.15	913.134	0.125

System: 2-propenyl 2-methylpropenoate + cyclohexane; phases: Liquid
Fixed: Pressure, kPa = 101
Property: Mass density, kg/m3 (Liquid); method: Vibrating tube method
Temperature, K	Mole fraction of cyclohexane	Mass density, kg/m3	uncertainty
298.15	0	927.997	0.245
298.15	0.0249	924.357	0.241
298.15	0.0501	920.633	0.236
298.15	0.1	913.396	0.226
298.15	0.15	906.133	0.216
298.15	0.2002	898.79	0.208
298.15	0.2501	891.304	0.199
298.15	0.2982	884.002	0.192
298.15	0.3495	876.08	0.184
298.15	0.3999	868.405	0.178
298.15	0.4499	860.523	0.172
298.15	0.4916	854.041	0.167
298.15	0.5495	844.929	0.162
298.15	0.5994	836.977	0.158
298.15	0.6497	829.055	0.155
298.15	0.7001	820.994	0.153
298.15	0.75	812.994	0.152
298.15	0.7995	805.076	0.152
298.15	0.8497	797.158	0.152
298.15	0.8996	789.207	0.153
298.15	0.9491	781.578	0.155
298.15	0.9746	777.535	0.156
298.15	1	773.78	0.156
308.15	0	917.423	0.245
308.15	0.0247	914.004	0.24
308.15	0.0502	910.154	0.235
308.15	0.1001	903.089	0.226
308.15	0.15	895.757	0.217
308.15	0.1996	888.544	0.208
308.15	0.2498	881.106	0.2
308.15	0.2995	873.625	0.193
308.15	0.3501	865.845	0.186
308.15	0.3999	858.29	0.179
308.15	0.45	850.634	0.174
308.15	0.5	842.727	0.169
308.15	0.5497	834.942	0.165
308.15	0.5993	827.118	0.161
308.15	0.6497	819.121	0.159
308.15	0.6991	811.294	0.157
308.15	0.75	803.225	0.156
308.15	0.8	795.299	0.156
308.15	0.85	787.374	0.156
308.15	0.8999	779.549	0.158
308.15	0.9501	771.844	0.159
308.15	0.9749	768.047	0.16
308.15	1	764.303	0.161

System: butyl 2-methyl-2-propenoate + cyclohexane; phases: Liquid
Fixed: Pressure, kPa = 101
Property: Mass density, kg/m3 (Liquid); method: Vibrating tube method
Temperature, K	Mole fraction of cyclohexane	Mass density, kg/m3	uncertainty
298.15	0	890.438	0.243
298.15	0.0252	888.145	0.239
298.15	0.0499	885.898	0.234
298.15	0.1004	881.157	0.225
298.15	0.1507	876.331	0.217
298.15	0.2006	871.388	0.209
298.15	0.2497	866.421	0.201
298.15	0.2998	861.187	0.194
298.15	0.3508	855.754	0.187
298.15	0.4021	850.158	0.18
298.15	0.4549	844.187	0.174
298.15	0.5004	838.931	0.17
298.15	0.5501	833.097	0.165
298.15	0.6002	827.013	0.161
298.15	0.65	820.787	0.158
298.15	0.7006	814.347	0.156
298.15	0.7503	807.917	0.154
298.15	0.8	801.277	0.153
298.15	0.8501	794.487	0.153
298.15	0.9	787.697	0.153
298.15	0.9501	780.727	0.155
298.15	0.975	777.254	0.156
298.15	1	773.78	0.156
308.15	0	880.857	0.243
308.15	0.0258	878.521	0.239
308.15	0.0532	876.051	0.234
308.15	0.1069	871.02	0.225
308.15	0.1508	866.825	0.217
308.15	0.2032	861.657	0.209
308.15	0.2591	855.967	0.201
308.15	0.3003	851.651	0.195
308.15	0.3507	846.3	0.188
308.15	0.4146	839.235	0.181
308.15	0.4496	835.332	0.177
308.15	0.5005	829.439	0.172
308.15	0.5507	823.5	0.168
308.15	0.6004	817.476	0.164
308.15	0.6502	811.284	0.161
308.15	0.6999	804.958	0.159
308.15	0.7503	798.408	0.158
308.15	0.8002	791.785	0.157
308.15	0.85	785.043	0.157
308.15	0.8999	778.211	0.158
308.15	0.95	771.242	0.159
308.15	0.9749	767.772	0.16
308.15	1	764.303	0.161

System: 2-methyl-2-propenoic acid + cyclohexane; phases: Liquid
Fixed: Pressure, kPa = 101
Property: Mass density, kg/m3 (Liquid); method: Vibrating tube method
Temperature, K	Mole fraction of cyclohexane	Mass density, kg/m3	uncertainty
298.15	0	1009.127	0.045
298.15	0.025	1000.47	0.053
298.15	0.0522	991.175	0.056
298.15	0.1002	975.683	0.062
298.15	0.1506	959.897	0.068
298.15	0.2005	944.731	0.075
298.15	0.2501	930.788	0.081
298.15	0.2999	917.295	0.087
298.15	0.3498	904.465	0.093
298.15	0.4002	891.497	0.099
298.15	0.45	879.227	0.105
298.15	0.5007	867.411	0.11
298.15	0.5505	856.333	0.116
298.15	0.6005	845.675	0.121
298.15	0.6505	835.287	0.126
298.15	0.6999	825.541	0.131
298.15	0.75	816.082	0.136
298.15	0.7999	806.654	0.14
298.15	0.8501	797.705	0.145
298.15	0.9002	789.592	0.149
298.15	0.9507	781.432	0.153
298.15	0.975	777.633	0.155
298.15	1	773.78	0.156
308.15	0	998.641	0.041
308.15	0.0252	989.976	0.057
308.15	0.0499	981.654	0.06
308.15	0.1007	965.145	0.066
308.15	0.15	949.792	0.073
308.15	0.201	934.604	0.079
308.15	0.2501	920.695	0.085
308.15	0.3002	907.042	0.092
308.15	0.3501	893.92	0.098
308.15	0.4008	881.231	0.104
308.15	0.4502	869.335	0.11
308.15	0.4998	857.846	0.115
308.15	0.5499	846.684	0.121
308.15	0.6001	835.983	0.126
308.15	0.6499	825.716	0.131
308.15	0.7012	815.604	0.136
308.15	0.75	806.315	0.14
308.15	0.7998	797.215	0.145
308.15	0.85	788.429	0.149
308.15	0.9	780.038	0.154
308.15	0.9503	771.936	0.158
308.15	0.9748	768.148	0.16
308.15	1	764.303	0.161

System: vinyl acetate + cyclohexane; phases: Liquid
Fixed: Pressure, kPa = 101
Property: Mass density, kg/m3 (Liquid); method: Vibrating tube method
Temperature, K	Mole fraction of cyclohexane	Mass density, kg/m3	uncertainty
298.15	0	925.775	0.121
298.15	0.0249	920.245	0.123
298.15	0.0501	914.707	0.123
298.15	0.1002	904.006	0.124
298.15	0.1496	893.952	0.125
298.15	0.2001	883.983	0.126
298.15	0.2498	874.513	0.128
298.15	0.3001	865.376	0.129
298.15	0.35	856.697	0.131
298.15	0.384	850.943	0.132
298.15	0.4499	840.271	0.135
298.15	0.4998	832.532	0.137
298.15	0.5501	825.128	0.139
298.15	0.5996	818.123	0.141
298.15	0.6498	811.306	0.143
298.15	0.6998	804.902	0.145
298.15	0.7501	798.807	0.147
298.15	0.7998	793.016	0.149
298.15	0.8488	787.739	0.151
298.15	0.8999	782.597	0.153
298.15	0.9492	778.076	0.155
298.15	0.9751	775.803	0.155
298.15	1	773.78	0.156
308.15	0	913.134	0.124
308.15	0.025	907.635	0.127
308.15	0.0499	902.03	0.127
308.15	0.0997	891.787	0.128
308.15	0.1498	881.399	0.129
308.15	0.1998	871.645	0.13
308.15	0.2495	862.072	0.132
308.15	0.2999	853.34	0.134
308.15	0.3489	845.023	0.136
308.15	0.3999	836.561	0.138
308.15	0.4493	828.944	0.14
308.15	0.4985	821.551	0.142
308.15	0.5495	814.219	0.144
308.15	0.5997	807.273	0.146
308.15	0.6494	800.772	0.148
308.15	0.7001	794.444	0.15
308.15	0.7496	788.583	0.152
308.15	0.7997	782.909	0.154
308.15	0.8498	777.657	0.156
308.15	0.8996	772.784	0.158
308.15	0.9498	768.329	0.159
308.15	0.9751	766.258	0.16
308.15	1	764.303	0.161
