Measured thermophysical data. Volumetric properties of the water + 3-(dimethylamino) propylamine (DMAPA) mixture at atmospheric pressure from 283.15 to 353.15K
Source: Thermochim. Acta, 2006, 10.1016/j.tca.2006.04.016
Compound 1: N,N-dimethyl-1,3-propanediamine, C5H14N2, InChI=1S/C5H14N2/c1-7(2)5-3-4-6/h3-6H2,1-2H3, purity 99%
Compound 2: water, H2O, InChI=1S/H2O/h1H2

System: N,N-dimethyl-1,3-propanediamine; phases: Liquid
Fixed: Pressure, kPa = 101.325
Property: Mass density, kg/m3 (Liquid); method: Vibrating tube method
Temperature, K	Mass density, kg/m3	uncertainty
278.15	830.37	0.44
278.65	829.93	0.44
279.15	829.49	0.44
279.65	829.05	0.44
280.15	828.61	0.44
280.65	828.17	0.44
281.15	827.73	0.44
281.65	827.29	0.44
282.15	826.84	0.44
282.65	826.4	0.44
283.15	825.96	0.44
283.65	825.52	0.44
284.15	825.08	0.44
284.65	824.64	0.44
285.15	824.2	0.44
285.65	823.76	0.44
286.15	823.32	0.44
286.65	822.88	0.44
287.15	822.44	0.44
287.65	822	0.44
288.15	821.56	0.44
288.65	821.12	0.44
289.15	820.67	0.44
289.65	820.23	0.44
290.15	819.79	0.44
290.65	819.35	0.44
291.15	818.91	0.44
291.65	818.47	0.44
292.15	818.03	0.44
292.65	817.58	0.44
293.15	817.14	0.44
293.65	816.7	0.44
294.15	816.26	0.44
294.65	815.82	0.44
295.15	815.37	0.44
295.65	814.93	0.43
296.15	814.49	0.43
296.65	814.05	0.43
297.15	813.6	0.43
297.65	813.16	0.43
298.15	812.72	0.43
298.65	812.27	0.43
299.15	811.83	0.43
299.65	811.39	0.43
300.15	810.94	0.43
300.65	810.5	0.43
301.15	810.06	0.43
301.65	809.61	0.43
302.15	809.17	0.43
302.65	808.72	0.43
303.15	808.28	0.43
303.65	807.84	0.43
304.15	807.39	0.43
304.65	806.95	0.43
305.15	806.5	0.43
305.65	806.06	0.43
306.15	805.61	0.43
306.65	805.17	0.43
307.15	804.72	0.43
307.65	804.28	0.43
308.15	803.83	0.43
308.65	803.39	0.43
309.15	802.94	0.43
309.65	802.5	0.43
310.15	802.05	0.43
310.65	801.61	0.43
311.15	801.16	0.43
311.65	800.72	0.43
312.15	800.27	0.43
312.65	799.82	0.43
313.15	799.38	0.43
313.65	798.93	0.43
314.15	798.48	0.43
314.65	798.04	0.43
315.15	797.59	0.43
315.65	797.14	0.43
316.15	796.69	0.43
316.65	796.25	0.43
317.15	795.8	0.43
317.65	795.35	0.43
318.15	794.9	0.43
318.65	794.45	0.43
319.15	794.01	0.43
319.65	793.56	0.43
320.15	793.11	0.43
320.65	792.66	0.43
321.15	792.21	0.43
321.65	791.76	0.43
322.15	791.31	0.43
322.65	790.86	0.43
323.15	790.41	0.43
323.65	789.96	0.43
324.15	789.52	0.43
324.65	789.06	0.43
325.15	788.62	0.43
325.65	788.17	0.43
326.15	787.72	0.43
326.65	787.26	0.43
327.15	786.81	0.43
327.65	786.36	0.43
328.15	785.91	0.43
328.65	785.46	0.43
329.15	785.01	0.43
329.65	784.56	0.43
330.15	784.11	0.43
330.65	783.65	0.43
331.15	783.2	0.43
331.65	782.75	0.43
332.15	782.3	0.43
332.65	781.84	0.43
333.15	781.39	0.43
333.65	780.94	0.43
334.15	780.49	0.43
334.65	780.03	0.43
335.15	779.58	0.43
335.65	779.12	0.43
336.15	778.67	0.42
336.65	778.22	0.42
337.15	777.76	0.42
337.65	777.31	0.42
338.15	776.85	0.42
338.65	776.4	0.42
339.15	775.94	0.42
339.65	775.49	0.42
340.15	775.03	0.42
340.65	774.57	0.42
341.15	774.11	0.42
341.65	773.66	0.42
342.15	773.2	0.42
342.65	772.74	0.42
343.15	772.29	0.42
343.65	771.83	0.42
344.15	771.37	0.42
344.65	770.91	0.42
345.15	770.45	0.42
345.65	769.99	0.42
346.15	769.53	0.42
346.65	769.08	0.42
347.15	768.62	0.42
347.65	768.16	0.42
348.15	767.7	0.42
348.65	767.24	0.42
349.15	766.78	0.42
349.65	766.32	0.42
350.15	765.86	0.42
350.65	765.4	0.42
351.15	764.94	0.42
351.65	764.48	0.42
352.15	764.02	0.42
352.65	763.56	0.42
353.15	763.1	0.42
353.65	762.64	0.42
354.15	762.17	0.42
354.65	761.71	0.42
355.15	761.25	0.42
355.65	760.79	0.42
356.15	760.33	0.42
356.65	759.86	0.42
357.15	759.4	0.42
357.65	758.94	0.42
358.15	758.48	0.42
358.65	758.01	0.42
359.15	757.55	0.42
359.65	757.08	0.42
360.15	756.62	0.42
360.65	756.15	0.42
361.15	755.69	0.42
361.65	755.22	0.42
362.15	754.75	0.42
362.65	754.28	0.42
363.15	753.82	0.42

System: N,N-dimethyl-1,3-propanediamine + water; phases: Liquid
Fixed: Pressure, kPa = 101
Property: Mass density, kg/m3 (Liquid); method: Vibrating tube method
Temperature, K	Mole fraction of water	Mass density, kg/m3	uncertainty
283.15	0	825.96	0.13
283.15	0.0403	829.01	0.13
283.15	0.0811	832.1	0.14
283.15	0.1198	835.2	0.14
283.15	0.16	838.61	0.15
283.15	0.1996	842.14	0.15
283.15	0.2498	846.96	0.17
283.15	0.2998	852.16	0.18
283.15	0.3499	857.74	0.2
283.15	0.3997	863.92	0.22
283.15	0.4501	870.78	0.24
283.15	0.4998	878.37	0.26
283.15	0.5501	886.96	0.28
283.15	0.5999	896.46	0.3
283.15	0.6498	907.17	0.32
283.15	0.7	919.35	0.35
283.15	0.7499	932.79	0.37
283.15	0.8	947.49	0.4
283.15	0.84	959.97	0.42
283.15	0.8799	972.18	0.44
283.15	0.9	977.57	0.45
283.15	0.92	981.9	0.46
283.15	0.94	984.99	0.47
283.15	0.9597	987.53	0.48
283.15	0.975	990.28	0.49
283.15	0.99	994.84	0.5
283.15	1	999.7	0.51
288.15	0	821.56	0.14
288.15	0.0403	824.62	0.14
288.15	0.0811	827.73	0.14
288.15	0.1198	830.84	0.14
288.15	0.16	834.27	0.15
288.15	0.1996	837.81	0.16
288.15	0.2498	842.65	0.17
288.15	0.2998	847.87	0.18
288.15	0.3499	853.47	0.2
288.15	0.3997	859.67	0.22
288.15	0.4501	866.55	0.24
288.15	0.4998	874.15	0.26
288.15	0.5501	882.76	0.28
288.15	0.5999	892.27	0.3
288.15	0.6498	902.99	0.32
288.15	0.7	915.19	0.35
288.15	0.7499	928.64	0.37
288.15	0.8	943.36	0.39
288.15	0.84	955.86	0.41
288.15	0.8799	968.2	0.44
288.15	0.9	973.8	0.45
288.15	0.92	978.55	0.46
288.15	0.94	982.31	0.47
288.15	0.9597	985.64	0.48
288.15	0.975	988.99	0.49
288.15	0.99	994.04	0.5
288.15	1	999.1	0.51
293.15	0	817.14	0.14
293.15	0.0403	820.21	0.14
293.15	0.0811	823.33	0.14
293.15	0.1198	826.46	0.14
293.15	0.16	829.9	0.15
293.15	0.1996	833.45	0.16
293.15	0.2498	838.31	0.17
293.15	0.2998	843.54	0.18
293.15	0.3499	849.16	0.2
293.15	0.3997	855.38	0.22
293.15	0.4501	862.28	0.24
293.15	0.4998	869.89	0.26
293.15	0.5501	878.51	0.28
293.15	0.5999	888.05	0.3
293.15	0.6498	898.77	0.32
293.15	0.7	910.98	0.34
293.15	0.7499	924.44	0.37
293.15	0.8	939.18	0.39
293.15	0.84	951.72	0.41
293.15	0.8799	964.2	0.44
293.15	0.9	970	0.45
293.15	0.92	975.13	0.46
293.15	0.94	979.51	0.47
293.15	0.9597	983.57	0.48
293.15	0.975	987.47	0.49
293.15	0.99	992.95	0.5
293.15	1	998.2	0.51
298.15	0	812.72	0.14
298.15	0.0403	815.8	0.14
298.15	0.0811	818.92	0.14
298.15	0.1198	822.07	0.15
298.15	0.16	825.51	0.15
298.15	0.1996	829.08	0.16
298.15	0.2498	833.95	0.17
298.15	0.2998	839.2	0.18
298.15	0.3499	844.84	0.2
298.15	0.3997	851.07	0.22
298.15	0.4501	857.98	0.24
298.15	0.4998	865.61	0.26
298.15	0.5501	874.24	0.28
298.15	0.5999	883.78	0.3
298.15	0.6498	894.51	0.32
298.15	0.7	906.73	0.34
298.15	0.7499	920.2	0.37
298.15	0.8	934.96	0.39
298.15	0.84	947.55	0.41
298.15	0.8799	960.18	0.43
298.15	0.9	966.18	0.45
298.15	0.92	971.67	0.46
298.15	0.94	976.61	0.47
298.15	0.9597	981.34	0.48
298.15	0.975	985.74	0.49
298.15	0.99	991.63	0.5
298.15	1	997.04	0.51
303.15	0	808.28	0.14
303.15	0.0403	811.37	0.14
303.15	0.0811	814.5	0.14
303.15	0.1198	817.65	0.15
303.15	0.16	821.11	0.15
303.15	0.1996	824.69	0.16
303.15	0.2498	829.57	0.17
303.15	0.2998	834.84	0.19
303.15	0.3499	840.49	0.2
303.15	0.3997	846.73	0.22
303.15	0.4501	853.66	0.24
303.15	0.4998	861.29	0.26
303.15	0.5501	869.93	0.28
303.15	0.5999	879.48	0.3
303.15	0.6498	890.21	0.32
303.15	0.7	902.43	0.34
303.15	0.7499	915.92	0.37
303.15	0.8	930.71	0.39
303.15	0.84	943.35	0.41
303.15	0.8799	956.14	0.43
303.15	0.9	962.33	0.44
303.15	0.92	968.16	0.46
303.15	0.94	973.6	0.47
303.15	0.9597	978.95	0.48
303.15	0.975	983.82	0.49
303.15	0.99	990.07	0.5
303.15	1	995.65	0.5
308.15	0	803.83	0.15
308.15	0.0403	806.92	0.14
308.15	0.0811	810.07	0.15
308.15	0.1198	813.22	0.15
308.15	0.16	816.69	0.16
308.15	0.1996	820.27	0.16
308.15	0.2498	825.17	0.17
308.15	0.2998	830.45	0.19
308.15	0.3499	836.11	0.2
308.15	0.3997	842.37	0.22
308.15	0.4501	849.3	0.24
308.15	0.4998	856.94	0.26
308.15	0.5501	865.59	0.28
308.15	0.5999	875.14	0.3
308.15	0.6498	885.88	0.32
308.15	0.7	898.1	0.34
308.15	0.7499	911.6	0.36
308.15	0.8	926.42	0.39
308.15	0.84	939.13	0.41
308.15	0.8799	952.08	0.43
308.15	0.9	958.45	0.44
308.15	0.92	964.59	0.45
308.15	0.94	970.49	0.47
308.15	0.9597	976.4	0.48
308.15	0.975	981.71	0.49
308.15	0.99	988.31	0.5
308.15	1	994.03	0.5
313.15	0	799.38	0.15
313.15	0.0403	802.47	0.15
313.15	0.0811	805.61	0.15
313.15	0.1198	808.78	0.15
313.15	0.16	812.24	0.16
313.15	0.1996	815.84	0.16
313.15	0.2498	820.74	0.17
313.15	0.2998	826.04	0.19
313.15	0.3499	831.71	0.2
313.15	0.3997	837.97	0.22
313.15	0.4501	844.91	0.24
313.15	0.4998	852.56	0.26
313.15	0.5501	861.21	0.28
313.15	0.5999	870.76	0.3
313.15	0.6498	881.5	0.32
313.15	0.7	893.72	0.34
313.15	0.7499	907.23	0.36
313.15	0.8	922.09	0.39
313.15	0.84	934.86	0.41
313.15	0.8799	947.99	0.43
313.15	0.9	954.54	0.44
313.15	0.92	960.96	0.45
313.15	0.94	967.29	0.46
313.15	0.9597	973.72	0.48
313.15	0.975	979.42	0.49
313.15	0.99	986.35	0.5
313.15	1	992.21	0.5
318.15	0	794.9	0.15
318.15	0.0403	797.99	0.15
318.15	0.0811	801.14	0.15
318.15	0.1198	804.31	0.15
318.15	0.16	807.78	0.16
318.15	0.1996	811.38	0.17
318.15	0.2498	816.29	0.18
318.15	0.2998	821.59	0.19
318.15	0.3499	827.27	0.2
318.15	0.3997	833.54	0.22
318.15	0.4501	840.49	0.24
318.15	0.4998	848.14	0.26
318.15	0.5501	856.79	0.28
318.15	0.5999	866.35	0.3
318.15	0.6498	877.08	0.32
318.15	0.7	889.3	0.34
318.15	0.7499	902.82	0.36
318.15	0.8	917.71	0.39
318.15	0.84	930.55	0.41
318.15	0.8799	943.86	0.43
318.15	0.9	950.58	0.44
318.15	0.92	957.27	0.45
318.15	0.94	963.99	0.46
318.15	0.9597	970.89	0.47
318.15	0.975	976.98	0.48
318.15	0.99	984.22	0.49
318.15	1	990.21	0.5
323.15	0	790.41	0.15
323.15	0.0403	793.5	0.15
323.15	0.0811	796.65	0.15
323.15	0.1198	799.82	0.16
323.15	0.16	803.3	0.16
323.15	0.1996	806.9	0.17
323.15	0.2498	811.82	0.18
323.15	0.2998	817.12	0.19
323.15	0.3499	822.81	0.2
323.15	0.3997	829.08	0.22
323.15	0.4501	836.03	0.24
323.15	0.4998	843.68	0.26
323.15	0.5501	852.33	0.28
323.15	0.5999	861.89	0.3
323.15	0.6498	872.61	0.32
323.15	0.7	884.83	0.34
323.15	0.7499	898.36	0.36
323.15	0.8	913.29	0.39
323.15	0.84	926.21	0.41
323.15	0.8799	939.69	0.43
323.15	0.9	946.58	0.44
323.15	0.92	953.52	0.45
323.15	0.94	960.6	0.46
323.15	0.9597	967.94	0.47
323.15	0.975	974.39	0.48
323.15	0.99	981.91	0.49
323.15	1	988.03	0.5
328.15	0	785.91	0.15
328.15	0.0403	789	0.15
328.15	0.0811	792.14	0.16
328.15	0.1198	795.31	0.16
328.15	0.16	798.79	0.16
328.15	0.1996	802.39	0.17
328.15	0.2498	807.31	0.18
328.15	0.2998	812.62	0.19
328.15	0.3499	818.31	0.21
328.15	0.3997	824.59	0.22
328.15	0.4501	831.54	0.24
328.15	0.4998	839.19	0.26
328.15	0.5501	847.84	0.28
328.15	0.5999	857.39	0.3
328.15	0.6498	868.1	0.32
328.15	0.7	880.31	0.34
328.15	0.7499	893.85	0.36
328.15	0.8	908.82	0.38
328.15	0.84	921.82	0.41
328.15	0.8799	935.48	0.43
328.15	0.9	942.52	0.44
328.15	0.92	949.71	0.45
328.15	0.94	957.12	0.46
328.15	0.9597	964.87	0.47
328.15	0.975	971.65	0.48
328.15	0.99	979.45	0.49
328.15	1	985.69	0.5
333.15	0	781.39	0.16
333.15	0.0403	784.47	0.16
333.15	0.0811	787.61	0.16
333.15	0.1198	790.78	0.16
333.15	0.16	794.25	0.17
333.15	0.1996	797.86	0.17
333.15	0.2498	802.78	0.18
333.15	0.2998	808.09	0.19
333.15	0.3499	813.78	0.21
333.15	0.3997	820.06	0.22
333.15	0.4501	827.01	0.24
333.15	0.4998	834.65	0.26
333.15	0.5501	843.3	0.3
333.15	0.5999	852.84	0.3
333.15	0.6498	863.55	0.32
333.15	0.7	875.74	0.34
333.15	0.7499	889.3	0.4
333.15	0.8	904.3	0.4
333.15	0.84	917.39	0.4
333.15	0.8799	931.22	0.42
333.15	0.9	938.42	0.44
333.15	0.92	945.84	0.45
333.15	0.94	953.56	0.46
333.15	0.9597	961.68	0.47
333.15	0.975	968.78	0.48
333.15	0.99	976.83	0.49
333.15	1	983.191	0.5
338.15	0	776.85	0.16
338.15	0.0403	779.92	0.16
338.15	0.0811	783.06	0.16
338.15	0.1198	786.22	0.16
338.15	0.16	789.69	0.17
338.15	0.1996	793.3	0.17
338.15	0.2498	798.22	0.18
338.15	0.2998	803.53	0.19
338.15	0.3499	809.21	0.21
338.15	0.3997	815.49	0.22
338.15	0.4501	822.44	0.24
338.15	0.4998	830.08	0.26
338.15	0.5501	838.71	0.28
338.15	0.5999	848.24	0.3
338.15	0.6498	858.94	0.32
338.15	0.7	871.13	0.34
338.15	0.7499	884.69	0.36
338.15	0.8	899.72	0.38
338.15	0.84	912.9	0.4
338.15	0.8799	926.91	0.42
338.15	0.9	934.27	0.43
338.15	0.92	941.89	0.45
338.15	0.94	949.91	0.46
338.15	0.9597	958.38	0.47
338.15	0.975	965.78	0.48
338.15	0.99	974.07	0.49
338.15	1	980.55	0.5
343.15	0	772.29	0.16
343.15	0.0403	775.35	0.16
343.15	0.0811	778.48	0.16
343.15	0.1198	781.64	0.17
343.15	0.16	785.1	0.17
343.15	0.1996	788.71	0.18
343.15	0.2498	793.62	0.18
343.15	0.2998	798.93	0.2
343.15	0.3499	804.61	0.21
343.15	0.3997	810.89	0.23
343.15	0.4501	817.83	0.24
343.15	0.4998	825.45	0.26
343.15	0.5501	834.08	0.28
343.15	0.5999	843.6	0.3
343.15	0.6498	854.29	0.32
343.15	0.7	866.47	0.34
343.15	0.7499	880.03	0.36
343.15	0.8	895.11	0.38
343.15	0.84	908.37	0.4
343.15	0.8799	922.56	0.42
343.15	0.9	930.05	0.43
343.15	0.92	937.89	0.44
343.15	0.94	946.17	0.46
343.15	0.9597	954.98	0.47
343.15	0.975	962.66	0.48
343.15	0.99	971.18	0.49
343.15	1	977.76	0.5
348.15	0	767.7	0.16
348.15	0.0403	770.76	0.16
348.15	0.0811	773.88	0.17
348.15	0.1198	777.03	0.17
348.15	0.16	780.49	0.17
348.15	0.1996	784.09	0.18
348.15	0.2498	788.99	0.19
348.15	0.2998	794.3	0.2
348.15	0.3499	799.97	0.21
348.15	0.3997	806.24	0.23
348.15	0.4501	813.18	0.24
348.15	0.4998	820.79	0.26
348.15	0.5501	829.41	0.28
348.15	0.5999	838.92	0.3
348.15	0.6498	849.59	0.32
348.15	0.7	861.76	0.34
348.15	0.7499	875.32	0.36
348.15	0.8	890.44	0.38
348.15	0.84	903.78	0.4
348.15	0.8799	918.14	0.42
348.15	0.9	925.79	0.43
348.15	0.92	933.81	0.44
348.15	0.94	942.35	0.46
348.15	0.9597	951.46	0.47
348.15	0.975	959.41	0.48
348.15	0.99	968.15	0.49
348.15	1	974.84	0.5
353.15	0	763.1	0.17
353.15	0.0403	766.14	0.17
353.15	0.0811	769.25	0.17
353.15	0.1198	772.39	0.17
353.15	0.16	775.84	0.17
353.15	0.1996	779.43	0.18
353.15	0.2498	784.32	0.19
353.15	0.2998	789.63	0.2
353.15	0.3499	795.29	0.21
353.15	0.3997	801.55	0.23
353.15	0.4501	808.48	0.24
353.15	0.4998	816.07	0.26
353.15	0.5501	824.69	0.28
353.15	0.5999	834.17	0.3
353.15	0.6498	844.83	0.32
353.15	0.7	857	0.34
353.15	0.7499	870.56	0.36
353.15	0.8	885.71	0.38
353.15	0.84	899.14	0.4
353.15	0.8799	913.67	0.42
353.15	0.9	921.45	0.43
353.15	0.92	929.67	0.44
353.15	0.94	938.45	0.45
353.15	0.9597	947.86	0.47
353.15	0.975	956.07	0.48
353.15	0.99	965.01	0.49
353.15	1	971.79	0.49
