Measured thermophysical data. Synthesis and thermodynamic properties of a metal organic framework: [LaCu6(|I-OH)3(Gly)6im6](ClO4)6
Source: Thermochim. Acta, 2006, 10.1016/j.tca.2006.07.025
Compound 1: LaCu6(OH)3(ClO4)6*3 Glycine*6 Imidazole, C30H51Cl6Cu6LaN18O39, InChI=1S/6C3H4N2.6C2H5NO2.6ClHO4.6Cu.La.3H2O/c6*1-2-5-3-4-1;6*3-1-2(4)5;6*2-1(3,4)5;;;;;;;;;;/h6*1-3H,(H,4,5);6*1,3H2,(H,4,5);6*(H,2,3,4,5);;;;;;;;3*1H2/q;;;;;;;;;;;;;;;;;;6*+2;+3;;;/p-15, purity 99.33%

System: LaCu6(OH)3(ClO4)6*3 Glycine*6 Imidazole; phases: Crystal
Fixed: Pressure, kPa = 101.325
Property: Molar heat capacity at constant pressure, J/K/mol (Crystal); method: VADIAC:UFactor:2
Temperature, K	Molar heat capacity at constant pressure, J/K/mol	uncertainty
81.574	701.04	2.89
85.813	737.26	3.03
88.754	759.96	3.12
91.782	781.73	1.97
94.896	805.9	2.02
97.924	828.6	2.06
100.87	849.56	2.1
103.81	870.07	2.14
106.83	892.04	2.19
109.95	912.81	2.23
112.93	937.95	2.28
115.92	957.75	2.32
118.84	977.12	2.36
121.71	996.54	2.4
124.7	1016	2.4
127.81	1037.1	2.5
130.86	1055.2	2.5
133.86	1074.5	2.6
136.82	1093.2	2.6
139.74	1112.1	2.6
142.65	1135.5	2.7
145.5	1154.9	2.7
148.44	1170.8	2.7
151.56	1190.8	2.8
154.54	1212.7	2.8
157.53	1236.1	2.9
160.47	1257.5	2.9
163.41	1275	3
166.31	1295.5	3
169.2	1315.5	3
172.06	1338.3	3.1
175.01	1360.6	3.1
178.06	1383.7	3.2
181.08	1402.2	3.2
184.09	1422.1	3.2
187.05	1444.5	3.3
190	1466.9	3.3
192.92	1489.2	3.4
195.8	1511.1	3.4
198.69	1531.9	3.5
201.53	1556.6	3.5
204.36	1581	3.6
207.33	1601.1	3.6
210.33	1627.4	3.7
213.33	1647.6	3.7
216.34	1669	3.7
219.32	1691.6	3.8
222.32	1707.5	3.8
225.26	1734.6	3.9
228.11	1755.1	3.9
231.01	1779.4	4
234.09	1803.2	4
237.01	1823.4	4
240.01	1843.6	4.1
243.04	1869.2	4.1
246.06	1887.5	4.2
249.1	1908.4	4.2
252.12	1931.1	4.3
255.15	1952.9	4.3
258.16	1974.1	4.4
261.15	1992.3	4.4
264.18	2016.2	4.4
267.1	2033	4.5
270.12	2052.4	4.5
273.04	2067.8	4.5
275.96	2087.2	4.6
278.88	2108.6	4.6
281.8	2123.4	4.6
284.72	2143.4	4.7
287.64	2160.3	4.7
290.56	2184.5	4.8
293.64	2203.9	4.8
296.62	2221.8	4.8
299.66	2243.6	4.9
302.72	2260.8	4.9
305.7	2279.4	5
308.7	2293.5	5
311.62	2313.7	5
314.63	2330.8	5.1
317.59	2350.4	5.1
320.57	2365.9	5.1
323.49	2385	5.2
326.41	2400	5.2
329.38	2415.1	5.2
332.3	2432.3	5.3
335.16	2446.4	5.3
338.06	2468.4	5.3
340.92	2485.2	5.4
343.69	2493.3	5.4
346.54	2515.2	5.4
349.31	2522.6	5.4
352.25	2546	5.5
355.19	2556.2	5.5
357.09	2569.4	5.5
358.56	2575.3	5.6
360.12	2584.8	5.6
361.94	2594.3	5.6
363.71	2593.3	5.6
365.66	2605.6	5.6
367.66	2615.1	5.6
369.77	2627.8	5.7
371.88	2640.8	5.7
374.09	2651.7	5.7
376.36	2666.1	5.7
378.63	2675.2	5.8
381.06	2678.5	5.8
383.39	2693.2	5.8
385.9	2706.4	5.8
388.32	2717.3	5.8

System: LaCu6(OH)3(ClO4)6*3 Glycine*6 Imidazole; phases: Crystal
Fixed: Pressure, kPa = 101.325
Property: Molar heat capacity at constant pressure, J/K/mol (Crystal); method: VADIAC:UFactor:2
Temperature, K	Molar heat capacity at constant pressure, J/K/mol	uncertainty
80	684.3	2.82
85	728.49	3
90	769.76	1.95
95	808.66	2.02
100	845.67	2.1
105	881.23	2.17
110	915.72	2.24
115	949.45	2.3
120	982.71	2.37
125	1015.7	2.4
130	1048.7	2.5
135	1081.8	2.6
140	1115.1	2.6
145	1148.7	2.7
150	1182.7	2.8
155	1217.1	2.8
160	1252	2.9
165	1287.4	3
170	1323.2	3.1
175	1359.4	3.1
180	1396	3.2
185	1432.9	3.3
190	1470.1	3.3
195	1507.5	3.4
200	1545	3.5
205	1582.7	3.6
210	1620.3	3.6
215	1657.9	3.7
220	1695.3	3.8
225	1732.6	3.9
230	1769.7	3.9
235	1806.4	4
240	1842.8	4.1
245	1878.8	4.2
250	1914.4	4.2
255	1949.5	4.3
260	1984.2	4.4
265	2018.3	4.4
270	2052	4.5
275	2085.1	4.6
280	2117.7	4.6
285	2149.9	4.7
290	2181.5	4.8
295	2212.7	4.8
298.15	2232.1	4.9
300	2243.4	4.9
305	2273.7	4.9
310	2303.5	5
315	2333	5.1
320	2362.1	5.1
325	2390.9	5.2
330	2419.3	5.2
335	2447.3	5.3
340	2475	5.4
345	2502.4	5.4
350	2529.3	5.5
355	2555.9	5.5
360	2581.9	5.6
365	2607.3	5.6
370	2632	5.7
375	2655.9	5.7
380	2678.8	5.8
385	2700.6	5.8

System: LaCu6(OH)3(ClO4)6*3 Glycine*6 Imidazole; phases: Crystal
Fixed: Pressure, kPa = 101.325
Property: Molar enthalpy, kJ/mol (Crystal); method: VADIAC:UFactor:2
Temperature, K	Molar enthalpy, kJ/mol	uncertainty
80	-320.77	1.28
85	-317.24	1.26
90	-313.49	0.59
95	-309.54	0.58
100	-305.41	0.57
105	-301.09	0.56
110	-296.59	0.55
115	-291.93	0.54
120	-287.1	0.53
125	-282.1	0.51
130	-276.94	0.5
135	-271.62	0.49
140	-266.13	0.48
145	-260.47	0.46
150	-254.64	0.45
155	-248.64	0.44
160	-242.47	0.42
165	-236.12	0.41
170	-229.59	0.39
175	-222.89	0.38
180	-216	0.36
185	-208.93	0.35
190	-201.67	0.33
195	-194.22	0.31
200	-186.59	0.29
205	-178.77	0.28
210	-170.77	0.26
215	-162.57	0.24
220	-154.19	0.22
225	-145.62	0.2
230	-136.86	0.19
235	-127.92	0.17
240	-118.8	0.15
245	-109.49	0.13
250	-100.01	0.11
255	-90.35	0.09
260	-80.516	0.069
265	-70.51	0.053
270	-60.334	0.043
275	-49.991	0.043
280	-39.484	0.054
285	-28.815	0.071
290	-17.986	0.091
295	-7.0005	0.113
298.15	0	0.1273
300	4.1398	0.136
305	15.433	0.159
310	26.876	0.184
315	38.467	0.208
320	50.205	0.233
325	62.087	0.259
330	74.113	0.284
335	86.28	0.31
340	98.59	0.34
345	111.03	0.36
350	123.61	0.39
355	136.32	0.42
360	149.17	0.45
365	162.14	0.47
370	175.24	0.5
375	188.46	0.53
380	201.8	0.56
385	215.25	0.59

System: LaCu6(OH)3(ClO4)6*3 Glycine*6 Imidazole; phases: Crystal
Fixed: Pressure, kPa = 101.325
Property: Molar entropy, J/K/mol (Crystal); method: Vacuum adiabatic calorimetry
Temperature, K	Molar entropy, J/K/mol	uncertainty
80	-1716.9	5.1
85	-1673.9	5
90	-1631.1	2.2
95	-1588.5	2.1
100	-1546.2	2
105	-1504.1	2
110	-1462.4	1.9
115	-1421	1.8
120	-1379.9	1.8
125	-1339.1	1.7
130	-1298.5	1.7
135	-1258.3	1.6
140	-1218.3	1.5
145	-1178.5	1.5
150	-1138.9	1.4
155	-1099.6	1.4
160	-1060.3	1.3
165	-1021.3	1.2
170	-982.3	1.18
175	-943.44	1.13
180	-904.65	1.07
185	-865.94	1.01
190	-827.27	0.95
195	-788.65	0.9
200	-750.05	0.84
205	-711.48	0.78
210	-672.93	0.73
215	-634.39	0.67
220	-595.87	0.61
225	-557.37	0.56
230	-518.89	0.5
235	-480.43	0.45
240	-442	0.39
245	-403.61	0.34
250	-365.27	0.29
255	-326.97	0.24
260	-288.75	0.2
265	-250.59	0.17
270	-212.51	0.15
275	-174.52	0.16
280	-136.63	0.18
285	-98.841	0.214
290	-61.164	0.257
295	-23.602	0.304
298.15	0	0.335
300	13.839	0.354
305	51.156	0.405
310	88.346	0.457
315	125.41	0.51
320	162.35	0.56
325	199.15	0.62
330	235.84	0.67
335	272.39	0.72
340	308.83	0.78
345	345.15	0.83
350	381.34	0.88
355	417.41	0.94
360	453.36	0.99
365	489.18	1.04
370	524.85	1.1
375	560.38	1.15
380	595.73	1.2
385	630.88	1.25
