Measured thermophysical data. Heat capacity measurements on sodium alkoxides
Source: Thermochim. Acta, 2005, 10.1016/j.tca.2005.06.044
Compound 1: methanol, sodium salt, CH3NaO, InChI=1S/CH3O.Na/c1-2;/h1H3;/q-1;+1, purity 99%
Compound 2: sodium ethoxide, C2H5NaO, InChI=1S/C2H5O.Na/c1-2-3;/h2H2,1H3;/q-1;+1, purity 99%
Compound 3: sodium 1-propanolate, C3H7NaO, InChI=1S/C3H7O.Na/c1-2-3-4;/h2-3H2,1H3;/q-1;+1, purity 99%
Compound 4: sodium 2-propanolate, C3H7NaO, InChI=1S/C3H7O.Na/c1-3(2)4;/h3H,1-2H3;/q-1;+1, purity 99%

System: methanol, sodium salt; phases: Crystal
Fixed: Pressure, kPa = 101.325
Property: Molar heat capacity at constant pressure, J/K/mol (Crystal); method: Small sample (50 mg) DSC
Temperature, K	Molar heat capacity at constant pressure, J/K/mol	uncertainty
250	59.26	1.19
298.15	65.05	1.3
300	65.37	1.31
350	71.2	1.42
400	76.37	1.53
450	81.66	1.63
500	87.57	1.75
550	91.56	1.83

System: sodium ethoxide; phases: Crystal
Fixed: Pressure, kPa = 101.325
Property: Molar heat capacity at constant pressure, J/K/mol (Crystal); method: Small sample (50 mg) DSC
Temperature, K	Molar heat capacity at constant pressure, J/K/mol	uncertainty
250	82.33	1.65
298.15	90.9	1.82
300	90.96	1.82
350	99.5	1.99
400	107.46	2.15
450	112.82	2.26
500	119.67	2.39
550	126.9	2.54

System: sodium 1-propanolate; phases: Crystal
Fixed: Pressure, kPa = 101.325
Property: Molar heat capacity at constant pressure, J/K/mol (Crystal); method: Small sample (50 mg) DSC
Temperature, K	Molar heat capacity at constant pressure, J/K/mol	uncertainty
250	102.17	2.04
298.15	113.52	2.27
300	113.57	2.27
350	125.35	2.51
400	136.15	2.72
450	147.68	2.95
500	156.64	3.13
550	169.36	3.39

System: sodium 2-propanolate; phases: Crystal
Fixed: Pressure, kPa = 101.325
Property: Molar heat capacity at constant pressure, J/K/mol (Crystal); method: Small sample (50 mg) DSC
Temperature, K	Molar heat capacity at constant pressure, J/K/mol	uncertainty
250	109.29	2.19
298.15	121.2	2.42
300	121.72	2.43
350	134.73	2.69
400	146.57	2.93
450	157.76	3.16
500	170.73	3.41
550	182.51	3.65
