Measured thermophysical data. THE LIMITING PARTIAL MOLAR VOLUME AND APPARENT MOLAR VOLUME OF GLYCYLGLYCINE IN AQUEOUS KCl SOLUTION AT 298.15 AND 308.15K
Source: Thermochim. Acta, 2005, 10.1016/j.tca.2004.12.008
Compound 1: glycylglycine, C4H8N2O3, InChI=1S/C4H8N2O3/c5-1-3(7)6-2-4(8)9/h1-2,5H2,(H,6,7)(H,8,9), purity 98%
Compound 2: potassium chloride, ClK, InChI=1S/ClH.K/h1H;/q;+1/p-1, purity 99.5%
Compound 3: water, H2O, InChI=1S/H2O/h1H2, purity 100%

System: glycylglycine + water; phases: Liquid
Fixed: Pressure, kPa = 101.3
Property: Mass density, kg/m3 (Liquid); method: Vibrating tube method
Temperature, K	Molality, mol/kg of glycylglycine	Mass density, kg/m3	uncertainty
298.15	0.0949	1002.54	0.07
298.15	0.2052	1008.5	0.07
298.15	0.2997	1013.49	0.08
298.15	0.4062	1018.99	0.09
298.15	0.5069	1024.06	0.1
308.15	0.0949	999.21	0.07
308.15	0.2052	1005.1	0.07
308.15	0.2997	1010.03	0.08
308.15	0.4062	1015.47	0.09
308.15	0.5069	1020.5	0.1

System: glycylglycine + potassium chloride + water; phases: Liquid
Fixed: Pressure, kPa = 101
Property: Mass density, kg/m3 (Liquid); method: Vibrating tube method
Temperature, K	Solvent: Molality, mol/kg of potassium chloride	Molality, mol/kg of glycylglycine	Mass density, kg/m3	uncertainty
298.15	0.102	0.0944	1007.23	0.43
298.15	0.102	0.1877	1012.23	0.43
298.15	0.102	0.2977	1017.99	0.43
298.15	0.102	0.3837	1022.42	0.44
298.15	0.102	0.473	1026.9	0.44
298.15	0.4941	0.091	1024.69	0.44
298.15	0.4941	0.1929	1030	0.44
298.15	0.4941	0.284	1034.66	0.44
298.15	0.4941	0.3859	1039.76	0.44
298.15	0.4941	0.4836	1044.54	0.45
298.15	1.0204	0.0983	1047.59	0.45
298.15	1.0204	0.1975	1052.54	0.45
298.15	1.0204	0.2855	1056.85	0.45
298.15	1.0204	0.3942	1062.07	0.45
298.15	1.0204	0.4762	1065.92	0.46
298.15	2.0117	0.0835	1086.28	0.47
298.15	2.0117	0.1821	1090.93	0.47
298.15	2.0117	0.2747	1095.18	0.47
298.15	2.0117	0.3687	1099.42	0.47
298.15	2.0117	0.454	1103.17	0.48
298.15	2.7822	0.0875	1121.3	0.48
298.15	2.7822	0.178	1125.3	0.49
298.15	2.7822	0.2556	1128.63	0.49
298.15	2.7822	0.346	1132.45	0.49
298.15	2.7822	0.4419	1136.4	0.49
308.15	0.102	0.0944	1003.89	0.43
308.15	0.102	0.1877	1008.83	0.43
308.15	0.102	0.2977	1014.53	0.43
308.15	0.102	0.3837	1018.89	0.43
308.15	0.102	0.473	1023.33	0.44
308.15	0.4941	0.091	1021.07	0.44
308.15	0.4941	0.1929	1026.31	0.44
308.15	0.4941	0.284	1030.91	0.44
308.15	0.4941	0.3859	1035.94	0.44
308.15	0.4941	0.4836	1040.66	0.44
308.15	1.0204	0.0983	1043.67	0.45
308.15	1.0204	0.1975	1048.6	0.45
308.15	1.0204	0.2855	1052.89	0.45
308.15	1.0204	0.3942	1058.09	0.45
308.15	1.0204	0.4762	1061.93	0.45
308.15	2.0117	0.0835	1082.21	0.46
308.15	2.0117	0.1821	1086.77	0.47
308.15	2.0117	0.2747	1090.96	0.47
308.15	2.0117	0.3687	1095.11	0.47
308.15	2.0117	0.454	1098.83	0.47
308.15	2.7822	0.0875	1116.75	0.48
308.15	2.7822	0.178	1120.73	0.48
308.15	2.7822	0.2556	1124.06	0.49
308.15	2.7822	0.346	1127.87	0.49
308.15	2.7822	0.4419	1131.8	0.49
