Measured thermophysical data. Volumetric and transport properties of ternary mixtures containing 1-alkanol + ethyl ethanoate + cyclohexane at 303.15 K: Experimental data, correlation and prediction by ERAS model
Source: Thermochim. Acta, 2009, 10.1016/j.tca.2009.02.022
Compound 1: cyclohexane, C6H12, InChI=1S/C6H12/c1-2-4-6-5-3-1/h1-6H2
Compound 2: butan-1-ol, C4H10O, InChI=1S/C4H10O/c1-2-3-4-5/h5H,2-4H2,1H3
Compound 3: pentan-1-ol, C5H12O, InChI=1S/C5H12O/c1-2-3-4-5-6/h6H,2-5H2,1H3, purity 99.3%
Compound 4: octan-1-ol, C8H18O, InChI=1S/C8H18O/c1-2-3-4-5-6-7-8-9/h9H,2-8H2,1H3, purity 99.3%
Compound 5: ethyl acetate, C4H8O2, InChI=1S/C4H8O2/c1-3-6-4(2)5/h3H2,1-2H3

System: cyclohexane; phases: Liquid
Property: Mass density, kg/m3 (Liquid); method: Vibrating tube method
Temperature, K	Pressure, kPa	Mass density, kg/m3	uncertainty
303.15	101.325	769.12	0.13

System: cyclohexane; phases: Liquid
Property: Viscosity, Pa*s (Liquid); method: Capillary tube (Ostwald; Ubbelohde) method
Temperature, K	Pressure, kPa	Viscosity, Pa*s	uncertainty
303.15	101.325	0.000821	6e-06

System: butan-1-ol; phases: Liquid
Property: Mass density, kg/m3 (Liquid); method: Vibrating tube method
Temperature, K	Pressure, kPa	Mass density, kg/m3	uncertainty
303.15	101.325	801.9	0.17

System: butan-1-ol; phases: Liquid
Property: Viscosity, Pa*s (Liquid); method: Capillary tube (Ostwald; Ubbelohde) method
Temperature, K	Pressure, kPa	Viscosity, Pa*s	uncertainty
303.15	101.325	0.00225	1.5e-05

System: pentan-1-ol; phases: Liquid
Property: Mass density, kg/m3 (Liquid); method: Vibrating tube method
Temperature, K	Pressure, kPa	Mass density, kg/m3	uncertainty
303.15	101.325	807.11	0.17

System: pentan-1-ol; phases: Liquid
Property: Viscosity, Pa*s (Liquid); method: Capillary tube (Ostwald; Ubbelohde) method
Temperature, K	Pressure, kPa	Viscosity, Pa*s	uncertainty
303.15	101.325	0.002839	1.9e-05

System: octan-1-ol; phases: Liquid
Property: Mass density, kg/m3 (Liquid); method: Vibrating tube method
Temperature, K	Pressure, kPa	Mass density, kg/m3	uncertainty
303.15	101.325	817.52	0.17

System: octan-1-ol; phases: Liquid
Property: Viscosity, Pa*s (Liquid); method: Capillary tube (Ostwald; Ubbelohde) method
Temperature, K	Pressure, kPa	Viscosity, Pa*s	uncertainty
303.15	101.325	0.00619	3.9e-05

System: ethyl acetate; phases: Liquid
Property: Mass density, kg/m3 (Liquid); method: Vibrating tube method
Temperature, K	Pressure, kPa	Mass density, kg/m3	uncertainty
303.15	101.325	888.5	0.08

System: ethyl acetate; phases: Liquid
Property: Viscosity, Pa*s (Liquid); method: Capillary tube (Ostwald; Ubbelohde) method
Temperature, K	Pressure, kPa	Viscosity, Pa*s	uncertainty
303.15	101.325	0.0004	5e-06

System: cyclohexane + octan-1-ol; phases: Liquid
Fixed: Temperature, K = 303.15
Fixed: Pressure, kPa = 101
Property: Viscosity, Pa*s (Liquid); method: Capillary tube (Ostwald; Ubbelohde) method
Mole fraction of octan-1-ol	Viscosity, Pa*s	uncertainty
0.2008	0.001242	8e-06
0.3755	0.001792	1.1e-05
0.5205	0.0024	1.5e-05
0.6054	0.002847	1.7e-05
0.7044	0.00346	2.1e-05
0.7758	0.003983	2.5e-05
0.8541	0.004633	2.9e-05
0.901	0.005089	3.2e-05
0.9553	0.005664	3.6e-05

System: cyclohexane + octan-1-ol; phases: Liquid
Fixed: Temperature, K = 303.15
Fixed: Pressure, kPa = 101
Property: Mass density, kg/m3 (Liquid); method: Vibrating tube method
Mole fraction of octan-1-ol	Mass density, kg/m3	uncertainty
0.2008	780.75	0.12
0.3755	789.9	0.13
0.5205	796.98	0.13
0.6054	800.89	0.14
0.7044	805.34	0.14
0.7758	808.38	0.15
0.8541	811.63	0.15
0.901	813.56	0.16
0.9553	815.75	0.16

System: butan-1-ol + ethyl acetate; phases: Liquid
Fixed: Temperature, K = 303.15
Fixed: Pressure, kPa = 101
Property: Viscosity, Pa*s (Liquid); method: Capillary tube (Ostwald; Ubbelohde) method
Mole fraction of butan-1-ol	Viscosity, Pa*s	uncertainty
0.1411	0.000467	5e-06
0.3184	0.000563	5e-06
0.3797	0.000609	6e-06
0.4659	0.000673	6e-06
0.5634	0.000766	6e-06
0.6782	0.00092	7e-06
0.7595	0.001076	8e-06
0.8312	0.001287	9e-06
0.9291	0.001736	1.2e-05

System: butan-1-ol + ethyl acetate; phases: Liquid
Fixed: Temperature, K = 303.15
Fixed: Pressure, kPa = 101
Property: Mass density, kg/m3 (Liquid); method: Vibrating tube method
Mole fraction of butan-1-ol	Mass density, kg/m3	uncertainty
0.1411	875.69	0.14
0.3184	859.95	0.13
0.3797	854.67	0.12
0.4659	847.1	0.12
0.5634	838.65	0.12
0.6782	828.8	0.11
0.7595	821.86	0.11
0.8312	815.82	0.11
0.9291	807.64	0.11

System: pentan-1-ol + ethyl acetate; phases: Liquid
Fixed: Temperature, K = 303.15
Fixed: Pressure, kPa = 101
Property: Viscosity, Pa*s (Liquid); method: Capillary tube (Ostwald; Ubbelohde) method
Mole fraction of pentan-1-ol	Viscosity, Pa*s	uncertainty
0.1095	0.000474	5e-06
0.2164	0.000541	5e-06
0.3291	0.000626	6e-06
0.4303	0.000722	6e-06
0.5202	0.000829	7e-06
0.6103	0.00097	7e-06
0.7187	0.001211	8e-06
0.8051	0.001508	1e-05
0.9009	0.002017	1.3e-05

System: pentan-1-ol + ethyl acetate; phases: Liquid
Fixed: Temperature, K = 303.15
Fixed: Pressure, kPa = 101
Property: Mass density, kg/m3 (Liquid); method: Vibrating tube method
Mole fraction of pentan-1-ol	Mass density, kg/m3	uncertainty
0.1095	877.42	0.14
0.2164	867.46	0.13
0.3291	857.43	0.13
0.4303	848.83	0.12
0.5202	841.5	0.12
0.6103	834.44	0.11
0.7187	826.3	0.11
0.8051	820.09	0.11
0.9009	813.46	0.11

System: octan-1-ol + ethyl acetate; phases: Liquid
Fixed: Temperature, K = 303.15
Fixed: Pressure, kPa = 101
Property: Viscosity, Pa*s (Liquid); method: Capillary tube (Ostwald; Ubbelohde) method
Mole fraction of octan-1-ol	Viscosity, Pa*s	uncertainty
0.0809	0.000537	5e-06
0.162	0.00068	6e-06
0.3257	0.001028	7e-06
0.4413	0.001314	9e-06
0.5431	0.001596	1e-05
0.6637	0.00204	1.3e-05
0.7062	0.00226	1.4e-05
0.8574	0.003545	2.3e-05
0.9251	0.004563	2.9e-05

System: octan-1-ol + ethyl acetate; phases: Liquid
Fixed: Temperature, K = 303.15
Fixed: Pressure, kPa = 101
Property: Mass density, kg/m3 (Liquid); method: Vibrating tube method
Mole fraction of octan-1-ol	Mass density, kg/m3	uncertainty
0.0809	878.16	0.15
0.162	869.16	0.14
0.3257	854.09	0.13
0.4413	845.4	0.12
0.5431	838.72	0.12
0.6637	831.83	0.11
0.7062	829.6	0.11
0.8574	822.7	0.11
0.9251	820.07	0.11

System: butan-1-ol + cyclohexane + ethyl acetate; phases: Liquid
Fixed: Temperature, K = 303.15
Fixed: Pressure, kPa = 101
Property: Viscosity, Pa*s (Liquid); method: Capillary tube (Ostwald; Ubbelohde) method
Mole fraction of butan-1-ol	Mole fraction of ethyl acetate	Viscosity, Pa*s	uncertainty
0.0538	0.4748	0.000476	5e-06
0.0544	0.7088	0.00045	5e-06
0.0611	0.2246	0.000602	5e-06
0.0901	0.2177	0.000615	6e-06
0.103	0.6723	0.000475	5e-06
0.1047	0.4493	0.000498	5e-06
0.1535	0.6345	0.000503	5e-06
0.1692	0.1988	0.000665	6e-06
0.1959	0.6027	0.000514	5e-06
0.2088	0.1893	0.000703	6e-06
0.2584	0.5559	0.000564	5e-06
0.2632	0.3697	0.000611	6e-06
0.2866	0.1707	0.00077	6e-06
0.2883	0.3571	0.000629	6e-06
0.3127	0.3449	0.000647	6e-06
0.3146	0.3439	0.000648	6e-06
0.3258	0.1613	0.000788	6e-06
0.3313	0.5012	0.00061	6e-06
0.3935	0.4546	0.000665	6e-06
0.3954	0.3034	0.000729	6e-06
0.4021	0.143	0.000862	7e-06
0.4272	0.4293	0.000695	6e-06
0.4473	0.2773	0.000778	6e-06
0.4658	0.1278	0.00094	7e-06
0.4856	0.2581	0.000819	6e-06
0.4883	0.3835	0.000763	6e-06
0.5008	0.1194	0.00098	7e-06
0.6281	0.2788	0.000938	7e-06
0.6393	0.181	0.001047	8e-06
0.6417	0.0857	0.001198	8e-06
0.822	0.0426	0.001616	1.1e-05
0.8268	0.1298	0.001385	9e-06
0.8282	0.0862	0.001489	1e-05

System: butan-1-ol + cyclohexane + ethyl acetate; phases: Liquid
Fixed: Temperature, K = 303.15
Fixed: Pressure, kPa = 101
Property: Mass density, kg/m3 (Liquid); method: Vibrating tube method
Mole fraction of butan-1-ol	Mole fraction of ethyl acetate	Mass density, kg/m3	uncertainty
0.1247	0.2223	791.53	0.12
0.1291	0.4112	811.53	0.11
0.1612	0.6177	839.26	0.1
0.2325	0.3624	810.38	0.12
0.2423	0.1925	792.48	0.12
0.2896	0.5231	833.58	0.11
0.3371	0.313	809.2	0.12
0.3404	0.4858	831.33	0.11
0.3414	0.1673	793.38	0.13
0.3445	0.1665	793.37	0.13
0.4191	0.4278	827.91	0.12
0.4306	0.2688	808.19	0.13
0.4599	0.3977	826.17	0.12
0.5268	0.2234	807.09	0.13
0.5343	0.343	822.88	0.13
0.5728	0.1085	795.62	0.14
0.6281	0.2739	818.76	0.14
0.6393	0.1703	805.81	0.14
0.6417	0.091	796.36	0.14
0.7255	0.2021	814.41	0.15
0.7291	0.1279	804.82	0.15
0.7356	0.0672	797.62	0.15
0.822	0.0452	798.85	0.16
0.8268	0.1275	809.75	0.16
0.8282	0.0811	803.7	0.16
0.9029	0.0458	802.88	0.16
0.9169	0.0211	800.42	0.17

System: pentan-1-ol + cyclohexane + ethyl acetate; phases: Liquid
Fixed: Temperature, K = 303.15
Fixed: Pressure, kPa = 101
Property: Viscosity, Pa*s (Liquid); method: Capillary tube (Ostwald; Ubbelohde) method
Mole fraction of pentan-1-ol	Mole fraction of ethyl acetate	Viscosity, Pa*s	uncertainty
0.0525	0.7158	0.000483	5e-06
0.0561	0.2271	0.000628	6e-06
0.0612	0.4683	0.000531	5e-06
0.0837	0.4571	0.000556	5e-06
0.09	0.2189	0.000653	6e-06
0.0909	0.6868	0.000522	5e-06
0.1348	0.6536	0.000562	5e-06
0.1442	0.4269	0.000601	5e-06
0.1623	0.2015	0.000711	6e-06
0.1673	0.6291	0.00059	5e-06
0.1853	0.4064	0.000631	6e-06
0.2114	0.1897	0.000757	6e-06
0.2403	0.5739	0.000633	6e-06
0.2642	0.3671	0.000692	6e-06
0.2759	0.1742	0.000806	6e-06
0.2964	0.5316	0.000673	6e-06
0.3012	0.3486	0.000715	6e-06
0.3187	0.1639	0.000854	6e-06
0.3373	0.5007	0.000698	6e-06
0.3621	0.3182	0.000757	6e-06
0.3886	0.1471	0.000932	7e-06
0.3958	0.4565	0.000743	6e-06
0.4028	0.1437	0.000952	7e-06
0.4036	0.2975	0.000818	6e-06
0.4588	0.27	0.000882	7e-06
0.4593	0.1301	0.001033	7e-06
0.4658	0.4036	0.000814	6e-06
0.5511	0.2239	0.001023	7e-06
0.5986	0.0966	0.001295	9e-06
0.6871	0.2364	0.001209	8e-06
0.7892	0.1052	0.001679	1.1e-05
0.7947	0.0494	0.001875	1.2e-05
0.8818	0.0893	0.001994	1.3e-05

System: pentan-1-ol + cyclohexane + ethyl acetate; phases: Liquid
Fixed: Temperature, K = 303.15
Fixed: Pressure, kPa = 101
Property: Mass density, kg/m3 (Liquid); method: Vibrating tube method
Mole fraction of pentan-1-ol	Mole fraction of ethyl acetate	Mass density, kg/m3	uncertainty
0.1104	0.4407	813.97	0.11
0.1139	0.6683	843.03	0.1
0.1212	0.2236	791.67	0.12
0.1868	0.2069	792.18	0.12
0.1941	0.6078	838.89	0.11
0.1998	0.397	812.77	0.11
0.2907	0.3519	811.45	0.12
0.2979	0.1786	793.27	0.13
0.2987	0.5289	833.66	0.11
0.37	0.3125	810.26	0.12
0.3878	0.1557	794.18	0.13
0.3929	0.4579	829.09	0.12
0.4327	0.2404	804.86	0.13
0.4612	0.4064	825.79	0.12
0.5186	0.1225	795.59	0.14
0.5435	0.2265	807.81	0.13
0.5511	0.2227	807.69	0.13
0.5869	0.3116	819.81	0.13
0.592	0.1038	796.43	0.14
0.6871	0.236	815.12	0.14
0.7022	0.0758	797.74	0.15
0.7053	0.1447	805.34	0.15
0.7892	0.1046	804.39	0.15
0.7932	0.156	810.37	0.15
0.7947	0.0522	798.83	0.15
0.8818	0.0891	806.51	0.16
0.8837	0.0577	803.09	0.16
0.8908	0.0278	800.14	0.16

System: cyclohexane + octan-1-ol + ethyl acetate; phases: Liquid
Fixed: Temperature, K = 303.15
Fixed: Pressure, kPa = 101
Property: Viscosity, Pa*s (Liquid); method: Capillary tube (Ostwald; Ubbelohde) method
Mole fraction of octan-1-ol	Mole fraction of ethyl acetate	Viscosity, Pa*s	uncertainty
0.0325	0.2481	0.00064	6e-06
0.0342	0.7271	0.000473	5e-06
0.0359	0.48	0.000544	5e-06
0.059	0.7084	0.000514	5e-06
0.0648	0.2398	0.000717	6e-06
0.0728	0.4616	0.000617	6e-06
0.0784	0.6939	0.000542	5e-06
0.1037	0.2298	0.000807	6e-06
0.1059	0.6731	0.00059	5e-06
0.1094	0.4434	0.00069	6e-06
0.1297	0.2231	0.000866	6e-06
0.1471	0.6421	0.000661	6e-06
0.1735	0.2119	0.000967	7e-06
0.1751	0.4107	0.000828	6e-06
0.1814	0.6163	0.000725	6e-06
0.2314	0.3827	0.000953	7e-06
0.3555	0.3209	0.00124	8e-06
0.4111	0.2932	0.001391	9e-06
0.4142	0.1502	0.001621	1e-05
0.4489	0.4149	0.001357	9e-06
0.4533	0.2722	0.001516	1e-05
0.462	0.1379	0.001784	1.1e-05
0.5087	0.126	0.001966	1.2e-05
0.512	0.243	0.001716	1.1e-05
0.5248	0.3578	0.001584	1e-05
0.5622	0.1123	0.002196	1.3e-05
0.5869	0.1059	0.002315	1.4e-05
0.6836	0.2382	0.002281	1.4e-05
0.6888	0.0798	0.002901	1.8e-05
0.7523	0.1233	0.003016	1.9e-05
0.7523	0.1865	0.002741	1.7e-05
0.8613	0.0691	0.004082	2.6e-05
0.8617	0.1041	0.003824	2.4e-05
0.873	0.0326	0.004491	2.8e-05

System: cyclohexane + octan-1-ol + ethyl acetate; phases: Liquid
Fixed: Temperature, K = 303.15
Fixed: Pressure, kPa = 101
Property: Mass density, kg/m3 (Liquid); method: Vibrating tube method
Mole fraction of octan-1-ol	Mole fraction of ethyl acetate	Mass density, kg/m3	uncertainty
0.0325	0.2481	792.08	0.12
0.0342	0.7271	847.16	0.1
0.0359	0.48	816.04	0.11
0.059	0.7084	845.9	0.1
0.0648	0.2398	793.2	0.12
0.0728	0.4616	816.13	0.11
0.0784	0.6939	844.97	0.1
0.1037	0.2298	794.55	0.12
0.1059	0.6731	843.62	0.1
0.1094	0.4434	816.18	0.11
0.1297	0.2231	795.35	0.12
0.1471	0.6421	841.78	0.1
0.1735	0.2119	796.83	0.12
0.1751	0.4107	816.32	0.11
0.1814	0.6163	840.32	0.1
0.2314	0.3827	816.44	0.11
0.3555	0.3209	816.69	0.12
0.4111	0.2932	816.81	0.12
0.4142	0.1502	804.06	0.13
0.4489	0.4149	830.61	0.12
0.4533	0.2722	816.91	0.12
0.462	0.1379	805.35	0.13
0.5087	0.126	806.59	0.13
0.512	0.243	816.93	0.13
0.5248	0.3578	828.27	0.12
0.5622	0.1123	807.91	0.13
0.5869	0.1059	808.51	0.13
0.6628	0.1679	817.02	0.14
0.6836	0.2382	823.9	0.14
0.6888	0.0798	810.88	0.14
0.7452	0.0653	812.13	0.15
0.7523	0.1233	817.04	0.14
0.7523	0.1865	822.24	0.14
0.8613	0.0691	817.11	0.15
0.8613	0.1044	819.9	0.15
0.873	0.0326	814.85	0.16
