Measured thermophysical data. Thermophysical properties of sulfur heterocycles: Thiane and thiophene derivatives
Source: Thermochim. Acta, 2006, 10.1016/j.tca.2005.11.024
Compound 1: 2,2'-bithienyl, C8H6S2, InChI=1S/C8H6S2/c1-3-7(9-5-1)8-4-2-6-10-8/h1-6H
Compound 2: 2,5-thiophenedicarboxylic acid, C6H4O4S, InChI=1S/C6H4O4S/c7-5(8)3-1-2-4(11-3)6(9)10/h1-2H,(H,7,8)(H,9,10)
Compound 3: 3-acetylthiophene, C6H6OS, InChI=1S/C6H6OS/c1-5(7)6-2-3-8-4-6/h2-4H,1H3
Compound 4: 2-thiopheneacetic acid, C6H6O2S, InChI=1S/C6H6O2S/c7-6(8)4-5-2-1-3-9-5/h1-3H,4H2,(H,7,8)
Compound 5: 3-thiopheneacetic acid, C6H6O2S, InChI=1S/C6H6O2S/c7-6(8)3-5-1-2-9-4-5/h1-2,4H,3H2,(H,7,8)
Compound 6: 1,4-dithiane sulfone, C4H8O2S2, InChI=1S/C4H8O2S2/c5-8(6)3-1-7-2-4-8/h1-4H2
Compound 7: 1,3-oxathiane-3,3-dioxide, C4H8O3S, InChI=1S/C4H8O3S/c5-8(6)3-1-2-7-4-8/h1-4H2
Compound 8: 1,4-oxathiane 4,4-dioxide, C4H8O3S, InChI=1S/C4H8O3S/c5-8(6)3-1-7-2-4-8/h1-4H2
Compound 9: methyl 2-thiopheneacetate, C7H8O2S, InChI=1S/C7H8O2S/c1-9-7(8)5-6-3-2-4-10-6/h2-4H,5H2,1H3
Compound 10: methyl 3-thiopheneacetate, C7H8O2S, InChI=1S/C7H8O2S/c1-9-7(8)4-6-2-3-10-5-6/h2-3,5H,4H2,1H3
Compound 11: 1,3-thiazole, C3H3NS, InChI=1S/C3H3NS/c1-2-5-3-4-1/h1-3H
Compound 12: 2-acetylthiophene, C6H6OS, InChI=1S/C6H6OS/c1-5(7)6-3-2-4-8-6/h2-4H,1H3

System: 2,2'-bithienyl; phases: Crystal, Liquid, Air at 1 atmosphere
Property: Molar enthalpy of transition or fusion, kJ/mol (Crystal); method: DSC
Molar enthalpy of transition or fusion, kJ/mol	uncertainty
16.5	0.5

System: 2,2'-bithienyl; phases: Crystal, Liquid, Air at 1 atmosphere
Property: Normal melting temperature, K (Crystal); method: DTA:corrimp
Normal melting temperature, K	uncertainty
304.2	0.5

System: 2,2'-bithienyl; phases: Crystal
Fixed: Pressure, kPa = 101.325
Property: Molar heat capacity at constant pressure, J/K/mol (Crystal); method: Small sample (50 mg) DSC
Temperature, K	Molar heat capacity at constant pressure, J/K/mol	uncertainty
263.15	175.4	3.5
265.15	176.2	3.5
270.15	178.3	3.6
275.15	182.4	3.6
280.15	185.6	3.7
285.15	189.3	3.8
290.15	192.9	3.9
291.15	193.6	3.9
295.15	198.5	4
298.15	205.5	4.1
300.15	218.1	4.4

System: 2,5-thiophenedicarboxylic acid; phases: Crystal
Fixed: Pressure, kPa = 101.325
Property: Molar heat capacity at constant pressure, J/K/mol (Crystal); method: Small sample (50 mg) DSC
Temperature, K	Molar heat capacity at constant pressure, J/K/mol	uncertainty
277.15	161.4	3.2
280.15	162.7	3.3
285.15	163.7	3.3
290.15	164.7	3.3
295.15	166.4	3.3
298.15	167.1	3.3
300.15	167.7	3.4
305.15	169.5	3.4
310.15	171	3.4
315.15	173.1	3.5
320.15	175.1	3.5
325.15	177	3.5
330.15	178.1	3.6
335.15	179.7	3.6
340.15	180.8	3.6
345.15	182.3	3.6
350.15	184	3.7
355.15	186.1	3.7
360.15	186.4	3.7
365.15	190.1	3.8
370.15	192.4	3.8
375.15	194.2	3.9
380.15	196.7	3.9
385.15	198.7	4
390.15	200.9	4
395.15	203.3	4.1
400.15	206.1	4.1
405.15	209.6	4.2
410.15	210.9	4.2
415.15	213.7	4.3
420.15	216.3	4.3
425.15	219.4	4.4
430.15	223.1	4.5
435.15	225.5	4.5
440.15	228.1	4.6
445.15	229.8	4.6

System: 3-acetylthiophene; phases: Crystal, Liquid, Air at 1 atmosphere
Property: Molar enthalpy of transition or fusion, kJ/mol (Crystal); method: DSC
Molar enthalpy of transition or fusion, kJ/mol	uncertainty
18.9	0.4

System: 3-acetylthiophene; phases: Crystal, Liquid, Air at 1 atmosphere
Property: Normal melting temperature, K (Crystal); method: DTA:corrimp
Normal melting temperature, K	uncertainty
333.6	0.5

System: 3-acetylthiophene; phases: Crystal
Fixed: Pressure, kPa = 101.325
Property: Molar heat capacity at constant pressure, J/K/mol (Crystal); method: Small sample (50 mg) DSC
Temperature, K	Molar heat capacity at constant pressure, J/K/mol	uncertainty
268.15	134	2.7
270.15	134.9	2.7
275.15	136.7	2.7
280.15	138.7	2.8
285.15	140.3	2.8
290.15	142.4	2.8
295.15	145	2.9
298.15	146.1	2.9
300.15	147.5	3

System: 2-thiopheneacetic acid; phases: Crystal, Liquid, Air at 1 atmosphere
Property: Molar enthalpy of transition or fusion, kJ/mol (Crystal); method: DSC
Molar enthalpy of transition or fusion, kJ/mol	uncertainty
14	0.5

System: 2-thiopheneacetic acid; phases: Crystal, Liquid, Air at 1 atmosphere
Property: Normal melting temperature, K (Crystal); method: DTA:corrimp
Normal melting temperature, K	uncertainty
337.4	0.5

System: 2-thiopheneacetic acid; phases: Crystal
Fixed: Pressure, kPa = 101.325
Property: Molar heat capacity at constant pressure, J/K/mol (Crystal); method: Small sample (50 mg) DSC
Temperature, K	Molar heat capacity at constant pressure, J/K/mol	uncertainty
268.15	146.3	2.9
270.15	147.2	2.9
275.15	149.6	3
280.15	150.9	3
285.15	153.4	3.1
290.15	155.2	3.1
295.15	157.6	3.2
298.15	159.2	3.2
300.15	160.3	3.2
305.15	163.9	3.3
310.15	166.1	3.3
315.15	168.5	3.4
320.15	170.5	3.4
325.15	173.6	3.5

System: 3-thiopheneacetic acid; phases: Crystal, Liquid, Air at 1 atmosphere
Property: Molar enthalpy of transition or fusion, kJ/mol (Crystal); method: DSC
Molar enthalpy of transition or fusion, kJ/mol	uncertainty
18.8	0.6

System: 3-thiopheneacetic acid; phases: Crystal, Liquid, Air at 1 atmosphere
Property: Normal melting temperature, K (Crystal); method: DTA:corrimp
Normal melting temperature, K	uncertainty
353.3	0.5

System: 3-thiopheneacetic acid; phases: Crystal
Fixed: Pressure, kPa = 101.325
Property: Molar heat capacity at constant pressure, J/K/mol (Crystal); method: Small sample (50 mg) DSC
Temperature, K	Molar heat capacity at constant pressure, J/K/mol	uncertainty
268.15	151.1	3
270.15	152.6	3.1
275.15	155.6	3.1
280.15	158.5	3.2
285.15	160.8	3.2
290.15	163.6	3.3
295.15	166.6	3.3
298.15	168.4	3.4
300.15	169.8	3.4
305.15	172.7	3.5
310.15	175.3	3.5
315.15	178.8	3.6
320.15	182.7	3.7
325.15	186.8	3.7
330.15	190.6	3.8
335.15	193.9	3.9
340.15	198.7	4

System: 1,4-dithiane sulfone; phases: Crystal, Liquid, Air at 1 atmosphere
Property: Molar enthalpy of transition or fusion, kJ/mol (Crystal); method: DSC
Molar enthalpy of transition or fusion, kJ/mol	uncertainty
26	0.4

System: 1,4-dithiane sulfone; phases: Crystal, Liquid, Air at 1 atmosphere
Property: Normal melting temperature, K (Crystal); method: DTA:corrimp
Normal melting temperature, K	uncertainty
474.2	0.5

System: 1,4-dithiane sulfone; phases: Crystal
Fixed: Pressure, kPa = 101.325
Property: Molar heat capacity at constant pressure, J/K/mol (Crystal); method: Small sample (50 mg) DSC
Temperature, K	Molar heat capacity at constant pressure, J/K/mol	uncertainty
268.15	141	2.8
270.15	141.7	2.8
275.15	143.8	2.9
280.15	145.9	2.9
285.15	148.1	3
290.15	149.8	3
295.15	151.8	3
298.15	152.7	3.1
300.15	153.5	3.1
305.15	155.6	3.1
310.15	158.1	3.2
315.15	160.5	3.2
320.15	163	3.3
325.15	165.5	3.3
330.15	167.5	3.4
335.15	168.9	3.4
340.15	171	3.4
345.15	173	3.5
350.15	175.1	3.5
355.15	177.4	3.5
360.15	179.5	3.6
365.15	181.6	3.6
370.15	184.4	3.7
375.15	186.2	3.7
380.15	189.1	3.8
385.15	191.2	3.8
390.15	195.1	3.9
395.15	199.6	4
400.15	203.3	4.1
405.15	205.7	4.1
410.15	209.1	4.2
415.15	212.2	4.2
420.15	215.5	4.3
425.15	218.8	4.4
430.15	222.8	4.5
435.15	226.2	4.5
440.15	230.2	4.6
445.15	234.7	4.7
450.15	239.4	4.8
454.15	243.2	4.9

System: 1,3-oxathiane-3,3-dioxide; phases: Crystal, Liquid, Air at 1 atmosphere
Property: Molar enthalpy of transition or fusion, kJ/mol (Crystal); method: DSC
Molar enthalpy of transition or fusion, kJ/mol	uncertainty
15.2	0.5

System: 1,3-oxathiane-3,3-dioxide; phases: Crystal, Liquid, Air at 1 atmosphere
Property: Normal melting temperature, K (Crystal); method: DTA:corrimp
Normal melting temperature, K	uncertainty
352.9	2

System: 1,3-oxathiane-3,3-dioxide; phases: Crystal
Fixed: Pressure, kPa = 101.325
Property: Molar heat capacity at constant pressure, J/K/mol (Crystal); method: Small sample (50 mg) DSC
Temperature, K	Molar heat capacity at constant pressure, J/K/mol	uncertainty
268.15	133.2	2.7
270.15	134.5	2.7
275.15	136.5	2.7
280.15	138.6	2.8
285.15	140.6	2.8
290.15	143.3	2.9
295.15	146.3	2.9
298.15	148.1	3
300.15	149.6	3
305.15	153.8	3.1
310.15	158.6	3.2
315.15	161.5	3.2
320.15	164.8	3.3
325.15	168.3	3.4
330.15	171.7	3.4
335.15	176.3	3.5

System: 1,4-oxathiane 4,4-dioxide; phases: Crystal 2, Liquid, Air at 1 atmosphere
Property: Molar enthalpy of transition or fusion, kJ/mol (Crystal 2); method: DSC
Molar enthalpy of transition or fusion, kJ/mol	uncertainty
20.2	0.5

System: 1,4-oxathiane 4,4-dioxide; phases: Crystal 1, Liquid, Air at 1 atmosphere
Property: Normal melting temperature, K (Crystal 1); method: DTA:corrimp
Normal melting temperature, K	uncertainty
403.3	0.4

System: 1,4-oxathiane 4,4-dioxide; phases: Crystal 2
Fixed: Pressure, kPa = 101.325
Property: Molar heat capacity at constant pressure, J/K/mol (Crystal 2); method: Small sample (50 mg) DSC
Temperature, K	Molar heat capacity at constant pressure, J/K/mol	uncertainty
268.15	134.2	2.7
270.15	135.4	2.7
275.15	137.3	2.7
280.15	139.3	2.8
285.15	141.7	2.8
290.15	144.2	2.9
295.15	146.6	2.9
298.15	147.9	3
300.15	148.9	3
305.15	151.2	3
310.15	153.1	3.1
315.15	155.3	3.1
320.15	157.6	3.2
325.15	159.9	3.2
330.15	162	3.2
335.15	164.1	3.3
340.15	166.9	3.3
345.15	170.3	3.4
350.15	172.8	3.5
355.15	175.5	3.5
360.15	177.7	3.6
365.15	180.1	3.6
370.15	182.5	3.7
375.15	185.6	3.7
380.15	188.6	3.8
385.15	191.5	3.8
390.15	194.7	3.9

System: methyl 2-thiopheneacetate; phases: Liquid
Property: Molar heat capacity at constant pressure, J/K/mol (Liquid); method: Small sample (50 mg) DSC
Temperature, K	Pressure, kPa	Molar heat capacity at constant pressure, J/K/mol	uncertainty
298.15	101.325	249.8	3.9

System: methyl 3-thiopheneacetate; phases: Liquid
Property: Molar heat capacity at constant pressure, J/K/mol (Liquid); method: Small sample (50 mg) DSC
Temperature, K	Pressure, kPa	Molar heat capacity at constant pressure, J/K/mol	uncertainty
298.15	101.325	250.6	4.9

System: 1,3-thiazole; phases: Liquid
Property: Molar heat capacity at constant pressure, J/K/mol (Liquid); method: Small sample (50 mg) DSC
Temperature, K	Pressure, kPa	Molar heat capacity at constant pressure, J/K/mol	uncertainty
298.15	101.325	122.1	2.2

System: 2-acetylthiophene; phases: Liquid
Property: Molar heat capacity at constant pressure, J/K/mol (Liquid); method: Small sample (50 mg) DSC
Temperature, K	Pressure, kPa	Molar heat capacity at constant pressure, J/K/mol	uncertainty
298.15	101.325	205.7	4.2
