Measured thermophysical data. Low-temperature Heat Capacities and Thermochemistry on the Complex  of Erbium Perchlorate with L-alpha-Glutamic Acid  [Er2(L-Glu)2(H2O)8](ClO4)4*3H2O(s)
Source: Thermochim. Acta, 2007, 10.1016/j.tca.2007.05.002
Compound 1: erbium (II) perchlorate, L-glutamic acid complex, hydrate, C10H42Cl4Er2N2O36, InChI=1S/2C5H9NO4.4ClHO4.2Er.12H2O/c2*6-3(5(9)10)1-2-4(7)8;4*2-1(3,4)5;;;;;;;;;;;;;;/h2*3H,1-2,6H2,(H,7,8)(H,9,10);4*(H,2,3,4,5);;;12*1H2/q;;;;;;2*+2;;;;;;;;;;;;/p-4/t2*3-;;;;;;;;;;;;;;;;;;/m00................../s1, purity 99%

System: erbium (II) perchlorate, L-glutamic acid complex, hydrate; phases: Crystal 2, Crystal 1, Gas
Property: Triple point temperature, K (Crystal 2); method: Adiabatic calorimetry
Triple point temperature, K	uncertainty
308.73	1.06

System: erbium (II) perchlorate, L-glutamic acid complex, hydrate; phases: Crystal 2, Crystal 1, Gas
Property: Molar enthalpy of transition or fusion, kJ/mol (Crystal 2); method: Adiabatic calorimetry
Molar enthalpy of transition or fusion, kJ/mol	uncertainty
10.49	0.12

System: erbium (II) perchlorate, L-glutamic acid complex, hydrate; phases: Crystal 2
Fixed: Pressure, kPa = 101.325
Property: Molar heat capacity at constant pressure, J/K/mol (Crystal 2); method: Small (less than 1 g) adiabatic calorimetry
Temperature, K	Molar heat capacity at constant pressure, J/K/mol	uncertainty
78.643	413.89	2.93
80.992	438.16	3.09
83.406	462.07	3.26
85.689	483.53	3.41
88.299	506.62	3.57
91.301	528.49	3.57
94.041	551.8	3.73
96.781	573.26	3.87
99.522	590.42	3.98
102.131	607.59	4.09
104.676	625.78	4.22
107.155	642.74	4.33
109.699	658.07	4.43
112.049	672.99	4.53
114.724	691.38	4.65
117.464	708.15	4.76
120.139	722.45	4.86
123.011	738.19	4.96
126.207	752.49	5.05
129.274	769.46	5.17
132.601	783.56	5.26
136.255	800.32	5.37
139.778	816.79	5.48
143.367	833.75	5.59
146.629	849.98	5.7
150.087	864.23	5.79
153.479	878.59	5.89
156.677	892.96	5.99
160.004	908.26	6.09
163.201	924.15	6.19
166.268	937.69	6.28
169.465	952.29	6.38
172.532	966.19	6.47
175.663	979.85	6.56
178.599	991.07	6.64
181.666	1005.2	6.7
184.667	1020.9	6.8
188.256	1037.1	6.9
191.127	1049.7	7
193.997	1064.5	7.1
196.738	1077.7	7.2
199.478	1092.1	7.3
202.283	1105.6	7.4
205.024	1120.1	7.5
207.635	1134.1	7.6
210.374	1149.9	7.7
213.116	1165.7	7.8
215.789	1180.9	7.9
218.268	1194.1	8
220.944	1208.7	8.1
223.553	1223.8	8.2
226.098	1237.5	8.3
228.969	1252.7	8.4
231.71	1268.8	8.5
234.449	1283.9	8.6
237.321	1303.1	8.7
239.93	1322.2	8.8
243.388	1341.3	9
246.585	1362.1	9.1
249.783	1381.6	9.2
252.914	1401.3	9.4
256.111	1423	9.5
259.178	1446.7	9.7
262.309	1468.6	9.8
265.311	1489.9	9.9
268.834	1510.7	10.1
272.749	1543.3	10.3
276.598	1577.2	10.5
280.318	1615.5	10.8
284.102	1670.8	11.1
287.495	1725.4	11.5
290.953	1766.2	11.8
294.411	1829.6	12.2
297.738	1927.3	12.9
300.478	2046.1	13.7
302.436	2202.5	14.8
304.132	2437.1	16.6
305.502	2754.3	19.3
306.351	3139.3	22.8
307.199	3527.2	26.9
308.047	4254.9	40.9
308.381	4753.8	82.4
308.634	5716.5	62.6

System: erbium (II) perchlorate, L-glutamic acid complex, hydrate; phases: Crystal 1
Fixed: Pressure, kPa = 101.325
Property: Molar heat capacity at constant pressure, J/K/mol (Crystal 1); method: Small (less than 1 g) adiabatic calorimetry
Temperature, K	Molar heat capacity at constant pressure, J/K/mol	uncertainty
308.895	5175.2	46.2
309.743	3870	31.3
311.244	2982.8	21
313.788	2441.6	16.7
316.594	2016	13.5
319.399	2043.1	13.6
