Measured thermophysical data. Measurement of zinc activity in the ternary In Zn Sn alloys by EMFmethod
Source: Thermochim. Acta, 2013, 10.1016/j.tca.2013.06.039
Compound 1: zinc, Zn, InChI=1S/Zn
Compound 2: tin, Sn, InChI=1S/Sn
Compound 3: indium, In, InChI=1S/In

System: tin + zinc + indium; phases: Liquid
Fixed: Pressure, kPa = 101
Property: (Relative) activity of zinc (Liquid); method: Calculated from EMF cell potential
Solvent: Mole fraction of indium	Temperature, K	Mole fraction of zinc	(Relative) activity of zinc	uncertainty
0.67	753	0.1	0.262	0.024
0.67	753	0.3	0.574	0.02
0.67	753	0.5	0.754	0.014
0.67	753	0.7	0.86	0.014
0.67	753	0.9	0.955	0.002
0.67	773	0.1	0.233	0.026
0.67	773	0.3	0.537	0.026
0.67	773	0.5	0.727	0.022
0.67	773	0.7	0.857	0.01
0.67	773	0.9	0.952	0.004
0.67	793	0.1	0.241	0.02
0.67	793	0.3	0.543	0.034
0.67	793	0.5	0.731	0.024
0.67	793	0.7	0.843	0.012
0.67	793	0.9	0.949	0.004
0.67	813	0.1	0.219	0.024
0.67	813	0.3	0.524	0.036
0.67	813	0.5	0.716	0.024
0.67	813	0.7	0.841	0.016
0.67	813	0.9	0.932	0.006
0.67	833	0.1	0.225	0.024
0.67	833	0.3	0.516	0.028
0.67	833	0.5	0.706	0.03
0.67	833	0.7	0.791	0.018
0.67	833	0.9	0.921	0.008
0.67	853	0.1	0.221	0.022
0.67	853	0.3	0.498	0.04
0.67	853	0.5	0.692	0.03
0.67	853	0.7	0.786	0.02
0.67	853	0.9	0.918	0.008
0.5	753	0.1	0.229	0.022
0.5	753	0.3	0.538	0.038
0.5	753	0.5	0.74	0.02
0.5	753	0.7	0.853	0.014
0.5	753	0.9	0.938	0.006
0.5	773	0.1	0.22	0.026
0.5	773	0.3	0.521	0.032
0.5	773	0.5	0.727	0.028
0.5	773	0.7	0.849	0.018
0.5	773	0.9	0.936	0.008
0.5	793	0.1	0.215	0.02
0.5	793	0.3	0.513	0.04
0.5	793	0.5	0.72	0.034
0.5	793	0.7	0.845	0.02
0.5	793	0.9	0.932	0.01
0.5	813	0.1	0.21	0.02
0.5	813	0.3	0.513	0.036
0.5	813	0.5	0.713	0.028
0.5	813	0.7	0.835	0.024
0.5	813	0.9	0.932	0.008
0.5	833	0.1	0.202	0.018
0.5	833	0.3	0.492	0.046
0.5	833	0.5	0.703	0.034
0.5	833	0.7	0.837	0.022
0.5	833	0.9	0.927	0.01
0.5	853	0.1	0.195	0.024
0.5	853	0.3	0.477	0.04
0.5	853	0.5	0.695	0.026
0.5	853	0.7	0.837	0.018
0.5	853	0.9	0.922	0.01
0.33	753	0.1	0.203	0.018
0.33	753	0.3	0.545	0.032
0.33	753	0.5	0.726	0.022
0.33	753	0.7	0.836	0.012
0.33	753	0.9	0.934	0.004
0.33	773	0.1	0.194	0.02
0.33	773	0.3	0.521	0.034
0.33	773	0.5	0.716	0.024
0.33	773	0.7	0.827	0.01
0.33	773	0.9	0.933	0.006
0.33	793	0.1	0.19	0.022
0.33	793	0.3	0.519	0.038
0.33	793	0.5	0.695	0.018
0.33	793	0.7	0.828	0.016
0.33	793	0.9	0.931	0.006
0.33	813	0.1	0.183	0.024
0.33	813	0.3	0.503	0.034
0.33	813	0.5	0.692	0.028
0.33	813	0.7	0.821	0.018
0.33	813	0.9	0.931	0.008
0.33	833	0.1	0.179	0.026
0.33	833	0.3	0.493	0.044
0.33	833	0.5	0.684	0.032
0.33	833	0.7	0.816	0.012
0.33	833	0.9	0.929	0.008
0.33	853	0.1	0.173	0.026
0.33	853	0.3	0.484	0.038
0.33	853	0.5	0.676	0.024
0.33	853	0.7	0.811	0.014
0.33	853	0.9	0.929	0.01
