Measured thermophysical data. Measurement and correlation of vapor-liquid equilibrium data for binary systems composed of camphene, (+)-3-carene, (-)-beta-caryophyllene, p-cymene, and alpha-pinene at 101.33 kPa
Source: Thermochim. Acta, 2019, 10.1016/j.tca.2019.178318
Compound 1: 2,2-dimethyl-3-methylenebicyclo[2.2.1]heptane, C10H16, InChI=1S/C10H16/c1-7-8-4-5-9(6-8)10(7,2)3/h8-9H,1,4-6H2,2-3H3, purity 97.68%
Compound 2: (+)-3-carene, C10H16, InChI=1S/C10H16/c1-7-4-5-8-9(6-7)10(8,2)3/h4,8-9H,5-6H2,1-3H3/t8-,9+/m1/s1, purity 97.69%
Compound 3: [1R-(1R*,4E,9S*)]-4,11,11-trimethyl-8-methylene-bicyclo[7.2.0]-4-undecene, C15H24, InChI=1S/C15H24/c1-11-6-5-7-12(2)13-10-15(3,4)14(13)9-8-11/h6,13-14H,2,5,7-10H2,1,3-4H3/b11-6+/t13-,14-/m1/s1, purity 98.31%
Compound 4: 1-(1-methylethyl)-4-methylbenzene, C10H14, InChI=1S/C10H14/c1-8(2)10-6-4-9(3)5-7-10/h4-8H,1-3H3, purity 97.88%
Compound 5: 2-pinene, C10H16, InChI=1S/C10H16/c1-7-4-5-8-6-9(7)10(8,2)3/h4,8-9H,5-6H2,1-3H3, purity 98.68%

System: 2,2-dimethyl-3-methylenebicyclo[2.2.1]heptane; phases: Liquid, Gas
Property: Vapor or sublimation pressure, kPa (Liquid); method: Ebulliometric method (Recirculating still)
Temperature, K	Vapor or sublimation pressure, kPa	uncertainty
432.8	101.33	4.1
432.73	101.33	4.1
432.74	101.33	4.1
432.76	101.33	4.1

System: (+)-3-carene; phases: Liquid, Gas
Property: Vapor or sublimation pressure, kPa (Liquid); method: Ebulliometric method (Recirculating still)
Temperature, K	Vapor or sublimation pressure, kPa	uncertainty
442.63	101.33	4.1

System: [1R-(1R*,4E,9S*)]-4,11,11-trimethyl-8-methylene-bicyclo[7.2.0]-4-undecene; phases: Liquid, Gas
Property: Vapor or sublimation pressure, kPa (Liquid); method: Ebulliometric method (Recirculating still)
Temperature, K	Vapor or sublimation pressure, kPa	uncertainty
526.4	101.33	4.1
526.53	101.33	4.1
526.47	101.33	4.1

System: 1-(1-methylethyl)-4-methylbenzene; phases: Liquid, Gas
Property: Vapor or sublimation pressure, kPa (Liquid); method: Ebulliometric method (Recirculating still)
Temperature, K	Vapor or sublimation pressure, kPa	uncertainty
449.7	101.33	4.1

System: 2-pinene; phases: Liquid, Gas
Property: Vapor or sublimation pressure, kPa (Liquid); method: Ebulliometric method (Recirculating still)
Temperature, K	Vapor or sublimation pressure, kPa	uncertainty
428.64	101.33	4.1
428.65	101.33	4.1

System: 2,2-dimethyl-3-methylenebicyclo[2.2.1]heptane + 1-(1-methylethyl)-4-methylbenzene; phases: Liquid, Gas
Fixed: Pressure, kPa = 101.33
Property: Boiling temperature at pressure P, K (Liquid); method: Ebulliometric method (Recirculating still)
Mole fraction of 2,2-dimethyl-3-methylenebicyclo[2.2.1]heptane	Boiling temperature at pressure P, K	uncertainty
0	449.7	0.81
0.0501	448.81	0.82
0.1	447.92	0.82
0.1249	447.48	0.82
0.1501	447.04	0.82
0.2	446.16	0.82
0.2501	445.28	0.82
0.3001	444.4	0.82
0.3499	443.53	0.82
0.3751	443.09	0.82
0.4249	442.23	0.82
0.4749	441.37	0.82
0.525	440.52	0.82
0.5749	439.67	0.82
0.5999	439.25	0.82
0.6499	438.41	0.82
0.6749	438	0.82
0.7499	436.76	0.82
0.7749	436.36	0.82
0.8249	435.55	0.82
0.925	433.97	0.82
1	432.8	0.81

System: 2,2-dimethyl-3-methylenebicyclo[2.2.1]heptane + 1-(1-methylethyl)-4-methylbenzene; phases: Gas, Liquid
Fixed: Pressure, kPa = 101.33
Property: Mole fraction of 2,2-dimethyl-3-methylenebicyclo[2.2.1]heptane (Gas); method: Chromatography
Mole fraction of 2,2-dimethyl-3-methylenebicyclo[2.2.1]heptane	Mole fraction of 2,2-dimethyl-3-methylenebicyclo[2.2.1]heptane	uncertainty
0	0	
0.0501	0.0705	0.0069
0.1	0.1386	0.0068
0.1249	0.1718	0.0068
0.1501	0.2045	0.0067
0.2	0.268	0.0068
0.2501	0.3293	0.0069
0.3001	0.3884	0.007
0.3499	0.4452	0.0072
0.3751	0.4728	0.0072
0.4249	0.5264	0.0072
0.4749	0.5778	0.0069
0.525	0.6271	0.0065
0.5749	0.6744	0.0063
0.5999	0.6973	0.0061
0.6499	0.7416	0.0059
0.6749	0.7631	0.0057
0.7499	0.8245	0.0054
0.7749	0.844	0.0053
0.8249	0.8817	0.0051
0.925	0.9518	0.0049
1	1	

System: 2,2-dimethyl-3-methylenebicyclo[2.2.1]heptane + 2-pinene; phases: Liquid, Gas
Fixed: Pressure, kPa = 101.33
Property: Boiling temperature at pressure P, K (Liquid); method: Ebulliometric method (Recirculating still)
Mole fraction of 2,2-dimethyl-3-methylenebicyclo[2.2.1]heptane	Boiling temperature at pressure P, K	uncertainty
0	428.64	0.81
0.0476	428.78	0.81
0.1489	429.1	0.81
0.1989	429.26	0.81
0.2288	429.35	0.81
0.2763	429.51	0.81
0.3503	429.77	0.81
0.3992	429.95	0.81
0.4505	430.14	0.81
0.5009	430.33	0.81
0.5511	430.53	0.81
0.6	430.74	0.81
0.6252	430.84	0.81
0.6754	431.06	0.81
0.725	431.29	0.81
0.8003	431.65	0.81
0.8503	431.9	0.81
0.8756	432.03	0.81
0.9252	432.3	0.81
0.9749	432.58	0.81
1	432.73	0.81

System: 2,2-dimethyl-3-methylenebicyclo[2.2.1]heptane + 2-pinene; phases: Gas, Liquid
Fixed: Pressure, kPa = 101.33
Property: Mole fraction of 2,2-dimethyl-3-methylenebicyclo[2.2.1]heptane (Gas); method: Chromatography
Mole fraction of 2,2-dimethyl-3-methylenebicyclo[2.2.1]heptane	Mole fraction of 2,2-dimethyl-3-methylenebicyclo[2.2.1]heptane	uncertainty
0	0	
0.0476	0.0441	0.0055
0.1489	0.1386	0.0056
0.1989	0.1856	0.0057
0.2288	0.2138	0.0058
0.2763	0.2589	0.006
0.3503	0.3296	0.0062
0.3992	0.3767	0.0065
0.4505	0.4265	0.0067
0.5009	0.4758	0.007
0.5511	0.5254	0.0071
0.6	0.5742	0.0069
0.6252	0.5996	0.0068
0.6754	0.6506	0.0066
0.725	0.7016	0.0064
0.8003	0.7804	0.0062
0.8503	0.8338	0.0061
0.8756	0.8612	0.0061
0.9252	0.9156	0.006
0.9749	0.9713	0.006
1	1	

System: 2,2-dimethyl-3-methylenebicyclo[2.2.1]heptane + [1R-(1R*,4E,9S*)]-4,11,11-trimethyl-8-methylene-bicyclo[7.2.0]-4-undecene; phases: Liquid, Gas
Fixed: Pressure, kPa = 101.33
Property: Boiling temperature at pressure P, K (Liquid); method: Ebulliometric method (Recirculating still)
Mole fraction of 2,2-dimethyl-3-methylenebicyclo[2.2.1]heptane	Boiling temperature at pressure P, K	uncertainty
0	526.4	0.81
0.0468	520.09	0.98
0.0758	516.1	0.99
0.1235	509.36	0.99
0.1577	504.56	0.99
0.2143	496.63	0.98
0.2758	488.2	0.97
0.3508	478.57	0.95
0.4045	472.19	0.94
0.4491	467.19	0.92
0.5064	461.32	0.91
0.5489	457.25	0.89
0.6025	452.63	0.88
0.6483	449.05	0.86
0.7112	444.8	0.85
0.7481	442.54	0.84
0.8556	437.49	0.83
0.9453	434.21	0.82
1	432.74	0.81

System: 2,2-dimethyl-3-methylenebicyclo[2.2.1]heptane + [1R-(1R*,4E,9S*)]-4,11,11-trimethyl-8-methylene-bicyclo[7.2.0]-4-undecene; phases: Gas, Liquid
Fixed: Pressure, kPa = 101.33
Property: Mole fraction of 2,2-dimethyl-3-methylenebicyclo[2.2.1]heptane (Gas); method: Chromatography
Mole fraction of 2,2-dimethyl-3-methylenebicyclo[2.2.1]heptane	Mole fraction of 2,2-dimethyl-3-methylenebicyclo[2.2.1]heptane	uncertainty
0	0	
0.0468	0.1661	0.0144
0.0758	0.2606	0.013
0.1235	0.4004	0.0123
0.1577	0.4879	0.0109
0.2143	0.6102	0.0093
0.2758	0.714	0.0075
0.3508	0.8067	0.0062
0.4045	0.855	0.0053
0.4491	0.8864	0.0048
0.5064	0.9175	0.0045
0.5489	0.9353	0.0043
0.6025	0.9526	0.0042
0.6483	0.964	0.0041
0.7112	0.9755	0.0041
0.7481	0.9807	0.004
0.8556	0.9909	0.004
0.9453	0.997	0.003
1	1	

System: 2-pinene + (+)-3-carene; phases: Liquid, Gas
Fixed: Pressure, kPa = 101.33
Property: Boiling temperature at pressure P, K (Liquid); method: Ebulliometric method (Recirculating still)
Mole fraction of (+)-3-carene	Boiling temperature at pressure P, K	uncertainty
0	428.65	0.81
0.0179	428.88	0.81
0.0545	429.34	0.81
0.0732	429.58	0.81
0.1308	430.35	0.81
0.1707	430.89	0.81
0.212	431.47	0.81
0.2763	432.38	0.81
0.2985	432.7	0.81
0.3439	433.36	0.81
0.3909	434.05	0.81
0.4393	434.77	0.81
0.4896	435.52	0.81
0.544	436.33	0.81
0.5996	437.15	0.81
0.6521	437.93	0.81
0.7098	438.76	0.81
0.7699	439.61	0.81
0.8007	440.04	0.81
0.8322	440.47	0.81
0.8972	441.34	0.81
0.965	442.2	0.81
1	442.63	0.81

System: 2-pinene + (+)-3-carene; phases: Gas, Liquid
Fixed: Pressure, kPa = 101.33
Property: Mole fraction of (+)-3-carene (Gas); method: Chromatography
Mole fraction of (+)-3-carene	Mole fraction of (+)-3-carene	uncertainty
0	0	
0.0179	0.0119	0.0048
0.0545	0.0368	0.0049
0.0732	0.0498	0.0049
0.1308	0.0915	0.005
0.1707	0.1216	0.0051
0.212	0.1538	0.0053
0.2763	0.2065	0.0055
0.2985	0.2253	0.0056
0.3439	0.2649	0.0058
0.3909	0.3075	0.0061
0.4393	0.3531	0.0063
0.4896	0.4022	0.0067
0.544	0.4576	0.007
0.5996	0.5163	0.0073
0.6521	0.5739	0.0071
0.7098	0.6393	0.007
0.7699	0.7098	0.0068
0.8007	0.7469	0.0067
0.8322	0.7855	0.0067
0.8972	0.8668	0.0066
0.965	0.9542	0.0066
1	1	

System: 2-pinene + [1R-(1R*,4E,9S*)]-4,11,11-trimethyl-8-methylene-bicyclo[7.2.0]-4-undecene; phases: Liquid, Gas
Fixed: Pressure, kPa = 101.33
Property: Boiling temperature at pressure P, K (Liquid); method: Ebulliometric method (Recirculating still)
Mole fraction of 2-pinene	Boiling temperature at pressure P, K	uncertainty
0	526.53	0.81
0.0204	518.78	1.53
0.0609	506.54	1.34
0.1138	493.65	1.19
0.1632	484.44	1.07
0.2013	478.45	0.98
0.2514	472.15	0.93
0.3402	462.82	0.9
0.3789	460.07	0.87
0.4211	456.72	0.86
0.4709	453.28	0.85
0.5246	449.99	0.85
0.5787	446.88	0.84
0.6321	444.06	0.84
0.7084	440.36	0.83
0.7665	437.76	0.83
0.8114	435.85	0.83
0.8348	434.89	0.83
0.9184	431.62	0.83
1	428.64	0.81

System: 2-pinene + [1R-(1R*,4E,9S*)]-4,11,11-trimethyl-8-methylene-bicyclo[7.2.0]-4-undecene; phases: Gas, Liquid
Fixed: Pressure, kPa = 101.33
Property: Mole fraction of 2-pinene (Gas); method: Chromatography
Mole fraction of 2-pinene	Mole fraction of 2-pinene	uncertainty
0	0	
0.0204	0.1651	0.0258
0.0609	0.3943	0.0181
0.1138	0.575	0.0125
0.1632	0.6785	0.0089
0.2013	0.7343	0.0068
0.2514	0.7879	0.0056
0.3402	0.8516	0.005
0.3789	0.8712	0.0046
0.4211	0.8895	0.0044
0.4709	0.9075	0.0043
0.5246	0.9236	0.0042
0.5787	0.9374	0.0042
0.6321	0.9491	0.0041
0.7084	0.9632	0.0041
0.7665	0.9724	0.0041
0.8114	0.9788	0.004
0.8348	0.9819	0.004
0.9184	0.9918	0.004
1	1	
