Measured thermophysical data. Correlation of normal boiling points of dialkylalkyl phosphonates with topological indices on the gas chromatographic retention data
Source: Thermochim. Acta, 2015, 10.1016/j.tca.2014.11.027
Compound 1: dibutyl propylphosphonate, C11H25O3P, InChI=1S/C11H25O3P/c1-4-7-9-13-15(12,11-6-3)14-10-8-5-2/h4-11H2,1-3H3
Compound 2: dibutyl butanephosphonate, C12H27O3P, InChI=1S/C12H27O3P/c1-4-7-10-14-16(13,12-9-6-3)15-11-8-5-2/h4-12H2,1-3H3
Compound 3: dibutyl pentylphosphonate, C13H29O3P, InChI=1S/C13H29O3P/c1-4-7-10-13-17(14,15-11-8-5-2)16-12-9-6-3/h4-13H2,1-3H3
Compound 4: dibutyl hexylphosphonate, C14H31O3P, InChI=1S/C14H31O3P/c1-4-7-10-11-14-18(15,16-12-8-5-2)17-13-9-6-3/h4-14H2,1-3H3
Compound 5: dipentyl pentylphosphonate, C15H33O3P, InChI=1S/C15H33O3P/c1-4-7-10-13-17-19(16,15-12-9-6-3)18-14-11-8-5-2/h4-15H2,1-3H3
Compound 6: dipentyl hexylphosphonate, C16H35O3P, InChI=1S/C16H35O3P/c1-4-7-10-13-16-20(17,18-14-11-8-5-2)19-15-12-9-6-3/h4-16H2,1-3H3
Compound 7: diisopentyl butylphosphonate, C14H31O3P, InChI=1S/C14H31O3P/c1-6-7-12-18(15,16-10-8-13(2)3)17-11-9-14(4)5/h13-14H,6-12H2,1-5H3
Compound 8: dipentyl butylphosphonate, C14H31O3P, InChI=1S/C14H31O3P/c1-4-7-10-12-16-18(15,14-9-6-3)17-13-11-8-5-2/h4-14H2,1-3H3
Compound 9: diisopentyl pentylphosphonate, C15H33O3P, InChI=1S/C15H33O3P/c1-6-7-8-13-19(16,17-11-9-14(2)3)18-12-10-15(4)5/h14-15H,6-13H2,1-5H3
Compound 10: diisopentyl hexylphosphonate, C16H35O3P, InChI=1S/C16H35O3P/c1-6-7-8-9-14-20(17,18-12-10-15(2)3)19-13-11-16(4)5/h15-16H,6-14H2,1-5H3
Compound 11: dibutyl octylphosphonate, C16H35O3P, InChI=1S/C16H35O3P/c1-4-7-10-11-12-13-16-20(17,18-14-8-5-2)19-15-9-6-3/h4-16H2,1-3H3
Compound 12: dibutyl phosphonate, C8H19O3P, InChI=1S/C8H19O3P/c1-3-5-7-10-12(9)11-8-6-4-2/h12H,3-8H2,1-2H3

System: dibutyl propylphosphonate; phases: Liquid, Gas
Property: Normal boiling temperature, K (Liquid); method: Gas Chromatography
Normal boiling temperature, K	uncertainty
552.27	2

System: dibutyl butanephosphonate; phases: Liquid, Gas
Property: Normal boiling temperature, K (Liquid); method: Gas Chromatography
Normal boiling temperature, K	uncertainty
566.07	2

System: dibutyl pentylphosphonate; phases: Liquid, Gas
Property: Normal boiling temperature, K (Liquid); method: Gas Chromatography
Normal boiling temperature, K	uncertainty
579.85	2

System: dibutyl hexylphosphonate; phases: Liquid, Gas
Property: Normal boiling temperature, K (Liquid); method: Gas Chromatography
Normal boiling temperature, K	uncertainty
593.07	2

System: dipentyl pentylphosphonate; phases: Liquid, Gas
Property: Normal boiling temperature, K (Liquid); method: Gas Chromatography
Normal boiling temperature, K	uncertainty
605.79	2

System: dipentyl hexylphosphonate; phases: Liquid, Gas
Property: Normal boiling temperature, K (Liquid); method: Gas Chromatography
Normal boiling temperature, K	uncertainty
617.58	2

System: diisopentyl butylphosphonate; phases: Liquid, Gas
Property: Normal boiling temperature, K (Liquid); method: Gas Chromatography
Normal boiling temperature, K	uncertainty
580.05	2

System: dipentyl butylphosphonate; phases: Liquid, Gas
Property: Normal boiling temperature, K (Liquid); method: Gas Chromatography
Normal boiling temperature, K	uncertainty
592.99	2

System: diisopentyl pentylphosphonate; phases: Liquid, Gas
Property: Normal boiling temperature, K (Liquid); method: Gas Chromatography
Normal boiling temperature, K	uncertainty
594.67	2

System: diisopentyl hexylphosphonate; phases: Liquid, Gas
Property: Normal boiling temperature, K (Liquid); method: Gas Chromatography
Normal boiling temperature, K	uncertainty
605.48	2

System: dibutyl octylphosphonate; phases: Liquid, Gas
Property: Normal boiling temperature, K (Liquid); method: Gas Chromatography
Normal boiling temperature, K	uncertainty
606.11	2

System: dibutyl phosphonate; phases: Liquid, Gas
Property: Normal boiling temperature, K (Liquid); method: Gas Chromatography
Normal boiling temperature, K	uncertainty
546.08	2
