Measured thermophysical data. Thermochemistry of hydrogen bonding of linear and cyclic amides inproton acceptors media
Source: Thermochim. Acta, 2017, 10.1016/j.tca.2017.03.016
Compound 1: ethanamide, C2H5NO, InChI=1S/C2H5NO/c1-2(3)4/h1H3,(H2,3,4), purity 99%
Compound 2: acetonitrile, C2H3N, InChI=1S/C2H3N/c1-2-3/h1H3, purity 99%
Compound 3: acetone, C3H6O, InChI=1S/C3H6O/c1-3(2)4/h1-2H3, purity 99%
Compound 4: 1,4-dioxane, C4H8O2, InChI=1S/C4H8O2/c1-2-6-4-3-5-1/h1-4H2, purity 98%
Compound 5: dimethylformamide, C3H7NO, InChI=1S/C3H7NO/c1-4(2)3-5/h3H,1-2H3, purity 98%
Compound 6: ethyl acetate, C4H8O2, InChI=1S/C4H8O2/c1-3-6-4(2)5/h3H2,1-2H3, purity 98%
Compound 7: 3-methylpyridine, C6H7N, InChI=1S/C6H7N/c1-6-3-2-4-7-5-6/h2-5H,1H3, purity 99%
Compound 8: propanenitrile, C3H5N, InChI=1S/C3H5N/c1-2-3-4/h2H2,1H3, purity 98%
Compound 9: pyridine, C5H5N, InChI=1S/C5H5N/c1-2-4-6-5-3-1/h1-5H, purity 98%
Compound 10: tetrahydrofuran, C4H8O, InChI=1S/C4H8O/c1-2-4-5-3-1/h1-4H2, purity 98%
Compound 11: N-methylacetamide, C3H7NO, InChI=1S/C3H7NO/c1-3(5)4-2/h1-2H3,(H,4,5), purity 99%
Compound 12: N,N-dimethylethanamide, C4H9NO, InChI=1S/C4H9NO/c1-4(6)5(2)3/h1-3H3, purity 99%
Compound 13: 2-pyrrolidinone, C4H7NO, InChI=1S/C4H7NO/c6-4-2-1-3-5-4/h1-3H2,(H,5,6), purity 99%
Compound 14: N-methylpyrrolidone, C5H9NO, InChI=1S/C5H9NO/c1-6-4-2-3-5(6)7/h2-4H2,1H3, purity 99%
Compound 15: benzene, C6H6, InChI=1S/C6H6/c1-2-4-6-5-3-1/h1-6H, purity 98%
Compound 16: cyclohexane, C6H12, InChI=1S/C6H12/c1-2-4-6-5-3-1/h1-6H2, purity 99%

System: ethanamide + acetonitrile; phases: Liquid
Property: Molar enthalpy of solution, kJ/mol (Liquid); method: Power-compensation calorimetry
Mole fraction of ethanamide	Temperature, K	Pressure, kPa	Molar enthalpy of solution, kJ/mol	uncertainty
0	298.15	100	21.52	0.59

System: ethanamide + acetone; phases: Liquid
Property: Molar enthalpy of solution, kJ/mol (Liquid); method: Power-compensation calorimetry
Mole fraction of ethanamide	Temperature, K	Pressure, kPa	Molar enthalpy of solution, kJ/mol	uncertainty
0	298.15	100	18.89	0.21

System: ethanamide + 1,4-dioxane; phases: Liquid
Property: Molar enthalpy of solution, kJ/mol (Liquid); method: Power-compensation calorimetry
Mole fraction of ethanamide	Temperature, K	Pressure, kPa	Molar enthalpy of solution, kJ/mol	uncertainty
0	298.15	100	20.8	0.16

System: ethanamide + dimethylformamide; phases: Liquid
Property: Molar enthalpy of solution, kJ/mol (Liquid); method: Power-compensation calorimetry
Mole fraction of ethanamide	Temperature, K	Pressure, kPa	Molar enthalpy of solution, kJ/mol	uncertainty
0	298.15	100	11.61	0.1

System: ethanamide + ethyl acetate; phases: Liquid
Property: Molar enthalpy of solution, kJ/mol (Liquid); method: Power-compensation calorimetry
Mole fraction of ethanamide	Temperature, K	Pressure, kPa	Molar enthalpy of solution, kJ/mol	uncertainty
0	298.15	100	21.02	0.38

System: ethanamide + 3-methylpyridine; phases: Liquid
Property: Molar enthalpy of solution, kJ/mol (Liquid); method: Power-compensation calorimetry
Mole fraction of ethanamide	Temperature, K	Pressure, kPa	Molar enthalpy of solution, kJ/mol	uncertainty
0	298.15	100	10.5	0.12

System: ethanamide + propanenitrile; phases: Liquid
Property: Molar enthalpy of solution, kJ/mol (Liquid); method: Power-compensation calorimetry
Mole fraction of ethanamide	Temperature, K	Pressure, kPa	Molar enthalpy of solution, kJ/mol	uncertainty
0	298.15	100	22.89	0.18

System: ethanamide + pyridine; phases: Liquid
Property: Molar enthalpy of solution, kJ/mol (Liquid); method: Power-compensation calorimetry
Mole fraction of ethanamide	Temperature, K	Pressure, kPa	Molar enthalpy of solution, kJ/mol	uncertainty
0	298.15	100	12	0.09

System: ethanamide + tetrahydrofuran; phases: Liquid
Property: Molar enthalpy of solution, kJ/mol (Liquid); method: Power-compensation calorimetry
Mole fraction of ethanamide	Temperature, K	Pressure, kPa	Molar enthalpy of solution, kJ/mol	uncertainty
0	298.15	100	18.54	0.5

System: acetonitrile + N-methylacetamide; phases: Liquid
Property: Molar enthalpy of solution, kJ/mol (Liquid); method: Power-compensation calorimetry
Mole fraction of N-methylacetamide	Temperature, K	Pressure, kPa	Molar enthalpy of solution, kJ/mol	uncertainty
0	303.15	100	6.03	0.05

System: acetone + N-methylacetamide; phases: Liquid
Property: Molar enthalpy of solution, kJ/mol (Liquid); method: Power-compensation calorimetry
Mole fraction of N-methylacetamide	Temperature, K	Pressure, kPa	Molar enthalpy of solution, kJ/mol	uncertainty
0	303.15	100	4.81	0.05

System: N-methylacetamide + 1,4-dioxane; phases: Liquid
Property: Molar enthalpy of solution, kJ/mol (Liquid); method: Power-compensation calorimetry
Mole fraction of N-methylacetamide	Temperature, K	Pressure, kPa	Molar enthalpy of solution, kJ/mol	uncertainty
0	303.15	100	6.11	0.08

System: N-methylacetamide + 3-methylpyridine; phases: Liquid
Property: Molar enthalpy of solution, kJ/mol (Liquid); method: Power-compensation calorimetry
Mole fraction of N-methylacetamide	Temperature, K	Pressure, kPa	Molar enthalpy of solution, kJ/mol	uncertainty
0	303.15	100	0.9	0.03

System: N-methylacetamide + propanenitrile; phases: Liquid
Property: Molar enthalpy of solution, kJ/mol (Liquid); method: Power-compensation calorimetry
Mole fraction of N-methylacetamide	Temperature, K	Pressure, kPa	Molar enthalpy of solution, kJ/mol	uncertainty
0	303.15	100	6.49	0.14

System: N-methylacetamide + pyridine; phases: Liquid
Property: Molar enthalpy of solution, kJ/mol (Liquid); method: Power-compensation calorimetry
Mole fraction of N-methylacetamide	Temperature, K	Pressure, kPa	Molar enthalpy of solution, kJ/mol	uncertainty
0	303.15	100	0.88	0.16

System: N-methylacetamide + tetrahydrofuran; phases: Liquid
Property: Molar enthalpy of solution, kJ/mol (Liquid); method: Power-compensation calorimetry
Mole fraction of N-methylacetamide	Temperature, K	Pressure, kPa	Molar enthalpy of solution, kJ/mol	uncertainty
0	303.15	100	5.64	0.08

System: acetonitrile + N,N-dimethylethanamide; phases: Liquid
Property: Molar enthalpy of solution, kJ/mol (Liquid); method: Power-compensation calorimetry
Mole fraction of N,N-dimethylethanamide	Temperature, K	Pressure, kPa	Molar enthalpy of solution, kJ/mol	uncertainty
0	298.15	100	-2.01	0.02

System: acetone + N,N-dimethylethanamide; phases: Liquid
Property: Molar enthalpy of solution, kJ/mol (Liquid); method: Power-compensation calorimetry
Mole fraction of N,N-dimethylethanamide	Temperature, K	Pressure, kPa	Molar enthalpy of solution, kJ/mol	uncertainty
0	298.15	100	-0.54	0.03

System: 1,4-dioxane + N,N-dimethylethanamide; phases: Liquid
Property: Molar enthalpy of solution, kJ/mol (Liquid); method: Power-compensation calorimetry
Mole fraction of N,N-dimethylethanamide	Temperature, K	Pressure, kPa	Molar enthalpy of solution, kJ/mol	uncertainty
0	298.15	100	-1.95	0.22

System: N,N-dimethylethanamide + ethyl acetate; phases: Liquid
Property: Molar enthalpy of solution, kJ/mol (Liquid); method: Power-compensation calorimetry
Mole fraction of N,N-dimethylethanamide	Temperature, K	Pressure, kPa	Molar enthalpy of solution, kJ/mol	uncertainty
0	298.15	100	-0.51	0.03

System: 3-methylpyridine + N,N-dimethylethanamide; phases: Liquid
Property: Molar enthalpy of solution, kJ/mol (Liquid); method: Power-compensation calorimetry
Mole fraction of N,N-dimethylethanamide	Temperature, K	Pressure, kPa	Molar enthalpy of solution, kJ/mol	uncertainty
0	298.15	100	-1	0.03

System: propanenitrile + N,N-dimethylethanamide; phases: Liquid
Property: Molar enthalpy of solution, kJ/mol (Liquid); method: Power-compensation calorimetry
Mole fraction of N,N-dimethylethanamide	Temperature, K	Pressure, kPa	Molar enthalpy of solution, kJ/mol	uncertainty
0	298.15	100	-1.62	0.06

System: pyridine + N,N-dimethylethanamide; phases: Liquid
Property: Molar enthalpy of solution, kJ/mol (Liquid); method: Power-compensation calorimetry
Mole fraction of N,N-dimethylethanamide	Temperature, K	Pressure, kPa	Molar enthalpy of solution, kJ/mol	uncertainty
0	298.15	100	-1.52	0.03

System: tetrahydrofuran + N,N-dimethylethanamide; phases: Liquid
Property: Molar enthalpy of solution, kJ/mol (Liquid); method: Power-compensation calorimetry
Mole fraction of N,N-dimethylethanamide	Temperature, K	Pressure, kPa	Molar enthalpy of solution, kJ/mol	uncertainty
0	298.15	100	0.8	0.03

System: acetonitrile + 2-pyrrolidinone; phases: Liquid
Property: Molar enthalpy of solution, kJ/mol (Liquid); method: Power-compensation calorimetry
Mole fraction of 2-pyrrolidinone	Temperature, K	Pressure, kPa	Molar enthalpy of solution, kJ/mol	uncertainty
0	298.15	100	5.44	0.05

System: 1,4-dioxane + 2-pyrrolidinone; phases: Liquid
Property: Molar enthalpy of solution, kJ/mol (Liquid); method: Power-compensation calorimetry
Mole fraction of 2-pyrrolidinone	Temperature, K	Pressure, kPa	Molar enthalpy of solution, kJ/mol	uncertainty
0	298.15	100	5.72	0.23

System: N,N-dimethylethanamide + 2-pyrrolidinone; phases: Liquid
Property: Molar enthalpy of solution, kJ/mol (Liquid); method: Power-compensation calorimetry
Mole fraction of 2-pyrrolidinone	Temperature, K	Pressure, kPa	Molar enthalpy of solution, kJ/mol	uncertainty
0	298.15	100	-1.5	0.03

System: dimethylformamide + 2-pyrrolidinone; phases: Liquid
Property: Molar enthalpy of solution, kJ/mol (Liquid); method: Power-compensation calorimetry
Mole fraction of 2-pyrrolidinone	Temperature, K	Pressure, kPa	Molar enthalpy of solution, kJ/mol	uncertainty
0	298.15	100	-0.8	0.03

System: ethyl acetate + 2-pyrrolidinone; phases: Liquid
Property: Molar enthalpy of solution, kJ/mol (Liquid); method: Power-compensation calorimetry
Mole fraction of 2-pyrrolidinone	Temperature, K	Pressure, kPa	Molar enthalpy of solution, kJ/mol	uncertainty
0	298.15	100	5.92	0.23

System: 3-methylpyridine + 2-pyrrolidinone; phases: Liquid
Property: Molar enthalpy of solution, kJ/mol (Liquid); method: Power-compensation calorimetry
Mole fraction of 2-pyrrolidinone	Temperature, K	Pressure, kPa	Molar enthalpy of solution, kJ/mol	uncertainty
0	298.15	100	-0.38	0.01

System: propanenitrile + 2-pyrrolidinone; phases: Liquid
Property: Molar enthalpy of solution, kJ/mol (Liquid); method: Power-compensation calorimetry
Mole fraction of 2-pyrrolidinone	Temperature, K	Pressure, kPa	Molar enthalpy of solution, kJ/mol	uncertainty
0	298.15	100	5.7	0.05

System: pyridine + 2-pyrrolidinone; phases: Liquid
Property: Molar enthalpy of solution, kJ/mol (Liquid); method: Power-compensation calorimetry
Mole fraction of 2-pyrrolidinone	Temperature, K	Pressure, kPa	Molar enthalpy of solution, kJ/mol	uncertainty
0	298.15	100	-0.29	0.1

System: tetrahydrofuran + 2-pyrrolidinone; phases: Liquid
Property: Molar enthalpy of solution, kJ/mol (Liquid); method: Power-compensation calorimetry
Mole fraction of 2-pyrrolidinone	Temperature, K	Pressure, kPa	Molar enthalpy of solution, kJ/mol	uncertainty
0	298.15	100	5.1	0.16

System: acetonitrile + N-methylpyrrolidone; phases: Liquid
Property: Molar enthalpy of solution, kJ/mol (Liquid); method: Power-compensation calorimetry
Mole fraction of N-methylpyrrolidone	Temperature, K	Pressure, kPa	Molar enthalpy of solution, kJ/mol	uncertainty
0	298.15	100	-1.68	0.02

System: acetone + N-methylpyrrolidone; phases: Liquid
Property: Molar enthalpy of solution, kJ/mol (Liquid); method: Power-compensation calorimetry
Mole fraction of N-methylpyrrolidone	Temperature, K	Pressure, kPa	Molar enthalpy of solution, kJ/mol	uncertainty
0	298.15	100	-1.19	0.16

System: 1,4-dioxane + N-methylpyrrolidone; phases: Liquid
Property: Molar enthalpy of solution, kJ/mol (Liquid); method: Power-compensation calorimetry
Mole fraction of N-methylpyrrolidone	Temperature, K	Pressure, kPa	Molar enthalpy of solution, kJ/mol	uncertainty
0	298.15	100	-2.5	0.1

System: N,N-dimethylethanamide + N-methylpyrrolidone; phases: Liquid
Property: Molar enthalpy of solution, kJ/mol (Liquid); method: Power-compensation calorimetry
Mole fraction of N-methylpyrrolidone	Temperature, K	Pressure, kPa	Molar enthalpy of solution, kJ/mol	uncertainty
0	298.15	100	-2.5	0.13

System: dimethylformamide + N-methylpyrrolidone; phases: Liquid
Property: Molar enthalpy of solution, kJ/mol (Liquid); method: Power-compensation calorimetry
Mole fraction of N-methylpyrrolidone	Temperature, K	Pressure, kPa	Molar enthalpy of solution, kJ/mol	uncertainty
0	298.15	100	-1.99	0.13

System: ethyl acetate + N-methylpyrrolidone; phases: Liquid
Property: Molar enthalpy of solution, kJ/mol (Liquid); method: Power-compensation calorimetry
Mole fraction of N-methylpyrrolidone	Temperature, K	Pressure, kPa	Molar enthalpy of solution, kJ/mol	uncertainty
0	298.15	100	-0.97	0.1

System: 3-methylpyridine + N-methylpyrrolidone; phases: Liquid
Property: Molar enthalpy of solution, kJ/mol (Liquid); method: Power-compensation calorimetry
Mole fraction of N-methylpyrrolidone	Temperature, K	Pressure, kPa	Molar enthalpy of solution, kJ/mol	uncertainty
0	298.15	100	-2.01	0.1

System: propanenitrile + N-methylpyrrolidone; phases: Liquid
Property: Molar enthalpy of solution, kJ/mol (Liquid); method: Power-compensation calorimetry
Mole fraction of N-methylpyrrolidone	Temperature, K	Pressure, kPa	Molar enthalpy of solution, kJ/mol	uncertainty
0	298.15	100	-1.98	0.04

System: pyridine + N-methylpyrrolidone; phases: Liquid
Property: Molar enthalpy of solution, kJ/mol (Liquid); method: Power-compensation calorimetry
Mole fraction of N-methylpyrrolidone	Temperature, K	Pressure, kPa	Molar enthalpy of solution, kJ/mol	uncertainty
0	298.15	100	-2.18	0.1

System: tetrahydrofuran + N-methylpyrrolidone; phases: Liquid
Property: Molar enthalpy of solution, kJ/mol (Liquid); method: Power-compensation calorimetry
Mole fraction of N-methylpyrrolidone	Temperature, K	Pressure, kPa	Molar enthalpy of solution, kJ/mol	uncertainty
0	298.15	100	1.58	0.03

System: benzene + N-methylpyrrolidone; phases: Liquid
Property: Molar enthalpy of solution, kJ/mol (Liquid); method: Power-compensation calorimetry
Mole fraction of N-methylpyrrolidone	Temperature, K	Pressure, kPa	Molar enthalpy of solution, kJ/mol	uncertainty
0	298.15	100	-1.69	0.05

System: cyclohexane + N-methylpyrrolidone; phases: Liquid
Property: Molar enthalpy of solution, kJ/mol (Liquid); method: Power-compensation calorimetry
Mole fraction of N-methylpyrrolidone	Temperature, K	Pressure, kPa	Molar enthalpy of solution, kJ/mol	uncertainty
0	298.15	100	12.29	0.25
