Measured thermophysical data. Densities, speed of sound, and IR studies of Ethyl lactate with 2-alkoxyethanols at different temperatures
Source: Thermochim. Acta, 2015, 10.1016/j.tca.2015.09.021
Compound 1: DL-ethyl lactate, C5H10O3, InChI=1S/C5H10O3/c1-3-8-5(7)4(2)6/h4,6H,3H2,1-2H3, purity 98%
Compound 2: 2-methoxyethan-1-ol, C3H8O2, InChI=1S/C3H8O2/c1-5-3-2-4/h4H,2-3H2,1H3
Compound 3: 2-ethoxyethan-1-ol, C4H10O2, InChI=1S/C4H10O2/c1-2-6-4-3-5/h5H,2-4H2,1H3
Compound 4: 2-butoxyethan-1-ol, C6H14O2, InChI=1S/C6H14O2/c1-2-3-5-8-6-4-7/h7H,2-6H2,1H3

System: DL-ethyl lactate; phases: Liquid
Fixed: Pressure, kPa = 100
Fixed: Frequency, MHz = 2
Property: Speed of sound, m/s (Liquid); method: Linear variable-path acoustic interferometer
Temperature, K	Speed of sound, m/s	uncertainty
303.15	1261.1	2.5
308.15	1243.8	2.5
313.15	1224.8	2.5
318.15	1206.9	2.5

System: DL-ethyl lactate; phases: Liquid
Fixed: Pressure, kPa = 100
Property: Mass density, kg/m3 (Liquid); method: Vibrating tube method
Temperature, K	Mass density, kg/m3	uncertainty
303.15	1022.88	2.16
308.15	1017.39	2.15
313.15	1011.83	2.15
318.15	1006.31	2.15

System: 2-methoxyethan-1-ol; phases: Liquid
Fixed: Pressure, kPa = 100
Fixed: Frequency, MHz = 2
Property: Speed of sound, m/s (Liquid); method: Linear variable-path acoustic interferometer
Temperature, K	Speed of sound, m/s	uncertainty
303.15	1324.5	1.6
308.15	1312.6	1.6
313.15	1299.6	1.6
318.15	1287.2	1.6

System: 2-methoxyethan-1-ol; phases: Liquid
Fixed: Pressure, kPa = 100
Property: Mass density, kg/m3 (Liquid); method: Vibrating tube method
Temperature, K	Mass density, kg/m3	uncertainty
303.15	955.64	2
308.15	950.51	2
313.15	945.31	2
318.15	941.01	2

System: 2-ethoxyethan-1-ol; phases: Liquid
Fixed: Pressure, kPa = 100
Fixed: Frequency, MHz = 2
Property: Speed of sound, m/s (Liquid); method: Linear variable-path acoustic interferometer
Temperature, K	Speed of sound, m/s	uncertainty
303.15	1287.1	1.6
308.15	1268	1.6
313.15	1252	1.6
318.15	1235.1	1.6

System: 2-ethoxyethan-1-ol; phases: Liquid
Fixed: Pressure, kPa = 100
Property: Mass density, kg/m3 (Liquid); method: Vibrating tube method
Temperature, K	Mass density, kg/m3	uncertainty
303.15	921.21	2
308.15	916.48	2
313.15	911.88	2
318.15	907.79	2

System: 2-butoxyethan-1-ol; phases: Liquid
Fixed: Pressure, kPa = 100
Fixed: Frequency, MHz = 2
Property: Speed of sound, m/s (Liquid); method: Linear variable-path acoustic interferometer
Temperature, K	Speed of sound, m/s	uncertainty
303.15	1288.5	1.6
308.15	1275	1.6
313.15	1259	2
318.15	1242.1	1.6

System: 2-butoxyethan-1-ol; phases: Liquid
Fixed: Pressure, kPa = 100
Property: Mass density, kg/m3 (Liquid); method: Vibrating tube method
Temperature, K	Mass density, kg/m3	uncertainty
303.15	892.28	2
308.15	887.38	2
313.15	882.6	2
318.15	877.81	2

System: DL-ethyl lactate + 2-methoxyethan-1-ol; phases: Liquid
Fixed: Pressure, kPa = 100
Fixed: Frequency, MHz = 2
Property: Speed of sound, m/s (Liquid); method: Linear variable-path acoustic interferometer
Mole fraction of DL-ethyl lactate	Temperature, K	Speed of sound, m/s	uncertainty
0	303.15	1324.5	1.6
0.0627	303.15	1321.5	1.6
0.13	303.15	1318.2	1.7
0.199	303.15	1314.4	1.8
0.2807	303.15	1309.7	1.9
0.3664	303.15	1304.5	2
0.4746	303.15	1297.8	2.3
0.5902	303.15	1290.3	2.6
0.7011	303.15	1282.8	2.9
0.8461	303.15	1272.5	3.4
1	303.15	1261.1	2.5
0	308.15	1312.6	1.6
0.0627	308.15	1309.9	1.6
0.13	308.15	1306.1	1.7
0.199	308.15	1301.9	1.8
0.2807	308.15	1296.8	1.9
0.3664	308.15	1291.2	2.1
0.4746	308.15	1283.9	2.3
0.5902	308.15	1275.7	2.7
0.7011	308.15	1267.6	3
0.8461	308.15	1256.5	3.5
1	308.15	1243.8	2.5
0	313.15	1299.6	1.6
0.0627	313.15	1296.8	1.6
0.13	313.15	1292.8	1.7
0.199	313.15	1288.3	1.8
0.2807	313.15	1282.6	1.9
0.3664	313.15	1276.5	2.1
0.4746	313.15	1268.6	2.4
0.5902	313.15	1259.7	2.7
0.7011	313.15	1250.9	3.1
0.8461	313.15	1238.8	3.7
1	313.15	1224.8	2.5
0	318.15	1287.2	1.6
0.0627	318.15	1284.5	1.6
0.13	318.15	1280.1	1.7
0.199	318.15	1275.2	1.8
0.2807	318.15	1269.1	1.9
0.3664	318.15	1262.5	2.2
0.4746	318.15	1253.9	2.4
0.5902	318.15	1244.5	2.8
0.7011	318.15	1235.1	3.3
0.8461	318.15	1222.1	3.9
1	318.15	1206.9	2.5

System: DL-ethyl lactate + 2-methoxyethan-1-ol; phases: Liquid
Fixed: Pressure, kPa = 100
Property: Mass density, kg/m3 (Liquid); method: Vibrating tube method
Mole fraction of DL-ethyl lactate	Temperature, K	Mass density, kg/m3	uncertainty
0	303.15	955.64	2
0.0627	303.15	963.11	2.02
0.13	303.15	970.19	2.07
0.199	303.15	976.68	2.13
0.2807	303.15	983.87	2.22
0.3664	303.15	990.68	2.29
0.4746	303.15	998.28	2.35
0.5902	303.15	1004.92	2.4
0.7011	303.15	1010.47	2.42
0.8461	303.15	1016.65	2.52
1	303.15	1022.88	2.16
0	308.15	950.51	2
0.0627	308.15	958.54	2.02
0.13	308.15	965.78	2.07
0.199	308.15	972.36	2.13
0.2807	308.15	979.38	2.21
0.3664	308.15	986.05	2.27
0.4746	308.15	993.33	2.34
0.5902	308.15	999.964	2.402
0.7011	308.15	1005.54	2.42
0.8461	308.15	1011.61	2.49
1	308.15	1017.39	2.15
0	313.15	945.31	2
0.0627	313.15	953.89	2.03
0.13	313.15	961.08	2.07
0.199	313.15	967.65	2.13
0.2807	313.15	974.64	2.21
0.3664	313.15	981.29	2.27
0.4746	313.15	988.56	2.34
0.5902	313.15	995.11	2.38
0.7011	313.15	1000.39	2.4
0.8461	313.15	1006.47	2.46
1	313.15	1011.83	2.15
0	318.15	941.01	2
0.0627	318.15	949.81	2.03
0.13	318.15	956.99	2.07
0.199	318.15	963.39	2.12
0.2807	318.15	970.22	2.2
0.3664	318.15	976.63	2.26
0.4746	318.15	983.72	2.33
0.5902	318.15	990.21	2.37
0.7011	318.15	995.43	2.39
0.8461	318.15	1001.32	2.43
1	318.15	1006.31	2.15

System: DL-ethyl lactate + 2-ethoxyethan-1-ol; phases: Liquid
Fixed: Pressure, kPa = 100
Fixed: Frequency, MHz = 2
Property: Speed of sound, m/s (Liquid); method: Linear variable-path acoustic interferometer
Mole fraction of DL-ethyl lactate	Temperature, K	Speed of sound, m/s	uncertainty
0	303.15	1287.1	1.6
0.0878	303.15	1285.8	1.6
0.1752	303.15	1284.7	1.7
0.2672	303.15	1283.5	1.8
0.3566	303.15	1282.2	1.8
0.458	303.15	1280	2
0.5743	303.15	1276.6	2.1
0.6702	303.15	1273.3	2.3
0.7723	303.15	1269.5	2.5
0.8771	303.15	1265.5	2.7
1	303.15	1261.1	2.5
0	308.15	1268	1.6
0.0878	308.15	1267.3	1.6
0.1752	308.15	1266.5	1.7
0.2672	308.15	1265.7	1.7
0.3566	308.15	1264.3	1.8
0.458	308.15	1262.2	2
0.5743	308.15	1259.1	2.1
0.6702	308.15	1256.1	2.3
0.7723	308.15	1252.4	2.5
0.8771	308.15	1248.6	2.7
1	308.15	1243.8	2.5
0	313.15	1252	1.6
0.0878	313.15	1251.4	1.6
0.1752	313.15	1250.7	1.7
0.2672	313.15	1249.6	1.7
0.3566	313.15	1247.8	1.8
0.458	313.15	1245.3	2
0.5743	313.15	1241.9	2.1
0.6702	313.15	1238.7	2.3
0.7723	313.15	1234.9	2.5
0.8771	313.15	1230.4	2.8
1	313.15	1224.8	2.5
0	318.15	1235.1	1.6
0.0878	318.15	1234.7	1.6
0.1752	318.15	1234.1	1.7
0.2672	318.15	1232.8	1.7
0.3566	318.15	1230.9	1.8
0.458	318.15	1228.3	2
0.5743	318.15	1224.8	2.1
0.6702	318.15	1221.6	2.3
0.7723	318.15	1217.6	2.6
0.8771	318.15	1212.9	2.9
1	318.15	1206.9	2.5

System: DL-ethyl lactate + 2-ethoxyethan-1-ol; phases: Liquid
Fixed: Pressure, kPa = 100
Property: Mass density, kg/m3 (Liquid); method: Vibrating tube method
Mole fraction of DL-ethyl lactate	Temperature, K	Mass density, kg/m3	uncertainty
0	303.15	921.21	2
0.0878	303.15	934.05	2.06
0.1752	303.15	946.02	2.21
0.2672	303.15	957.79	2.4
0.3566	303.15	968.46	2.59
0.458	303.15	979.53	2.76
0.5743	303.15	990.8	2.9
0.6702	303.15	998.81	2.97
0.7723	303.15	1006.64	3.07
0.8771	303.15	1013.99	3.27
1	303.15	1022.88	2.16
0	308.15	916.48	2
0.0878	308.15	929.81	2.07
0.1752	308.15	941.89	2.21
0.2672	308.15	953.61	2.4
0.3566	308.15	964.19	2.57
0.458	308.15	975.04	2.73
0.5743	308.15	986.14	2.91
0.6702	308.15	994.19	2.96
0.7723	308.15	1001.96	3.05
0.8771	308.15	1009.15	3.17
1	308.15	1017.39	2.15
0	313.15	911.88	2
0.0878	313.15	926.21	2.07
0.1752	313.15	938.15	2.2
0.2672	313.15	949.53	2.38
0.3566	313.15	959.88	2.56
0.458	313.15	970.63	2.72
0.5743	313.15	981.54	2.9
0.6702	313.15	989.69	2.97
0.7723	313.15	997.41	3.01
0.8771	313.15	1004.31	3.05
1	313.15	1011.83	2.15
0	318.15	907.79	2
0.0878	318.15	922.51	2.07
0.1752	318.15	934.35	2.2
0.2672	318.15	945.49	2.37
0.3566	318.15	955.69	2.54
0.458	318.15	966.19	2.69
0.5743	318.15	976.91	2.88
0.6702	318.15	985.01	2.96
0.7723	318.15	992.73	2.99
0.8771	318.15	999.51	2.96
1	318.15	1006.31	2.15

System: DL-ethyl lactate + 2-butoxyethan-1-ol; phases: Liquid
Fixed: Pressure, kPa = 100
Fixed: Frequency, MHz = 2
Property: Speed of sound, m/s (Liquid); method: Linear variable-path acoustic interferometer
Mole fraction of DL-ethyl lactate	Temperature, K	Speed of sound, m/s	uncertainty
0	303.15	1288.5	1.6
0.1113	303.15	1287.6	1.6
0.2323	303.15	1286.6	1.7
0.3343	303.15	1285.4	1.8
0.4359	303.15	1283.7	1.9
0.5407	303.15	1281.1	2.1
0.6389	303.15	1277.9	2.3
0.7323	303.15	1274.3	2.5
0.8317	303.15	1269.8	2.8
0.902	303.15	1266.2	3
1	303.15	1261.1	2.5
0	308.15	1275	1.6
0.1113	308.15	1274.3	1.6
0.2323	308.15	1272.9	1.7
0.3343	308.15	1271.3	1.8
0.4359	308.15	1269.1	1.9
0.5407	308.15	1266.1	2.1
0.6389	308.15	1262.5	2.3
0.7323	308.15	1258.6	2.6
0.8317	308.15	1253.6	2.9
0.902	308.15	1249.7	3.2
1	308.15	1243.8	2.5
0	313.15	1259	2
0.1113	313.15	1258.4	1.6
0.2323	313.15	1256.9	1.7
0.3343	313.15	1254.9	1.8
0.4359	313.15	1252.4	1.9
0.5407	313.15	1249.1	2.1
0.6389	313.15	1245.4	2.3
0.7323	313.15	1241.1	2.6
0.8317	313.15	1235.8	2.9
0.902	313.15	1231.6	3.4
1	313.15	1224.8	2.5
0	318.15	1242.1	1.6
0.1113	318.15	1241.8	1.6
0.2323	318.15	1240.3	1.7
0.3343	318.15	1238.1	1.8
0.4359	318.15	1235.5	1.9
0.5407	318.15	1232.1	2.1
0.6389	318.15	1228.3	2.3
0.7323	318.15	1224.1	2.6
0.8317	318.15	1218.8	3
0.902	318.15	1214.4	3.5
1	318.15	1206.9	2.5

System: DL-ethyl lactate + 2-butoxyethan-1-ol; phases: Liquid
Fixed: Pressure, kPa = 100
Property: Mass density, kg/m3 (Liquid); method: Vibrating tube method
Mole fraction of DL-ethyl lactate	Temperature, K	Mass density, kg/m3	uncertainty
0	303.15	892.28	2
0.1113	303.15	908.92	2.11
0.2323	303.15	925.92	2.39
0.3343	303.15	940.12	2.75
0.4359	303.15	954.39	3.16
0.5407	303.15	968.84	3.52
0.6389	303.15	981.36	3.73
0.7323	303.15	992.25	3.98
0.8317	303.15	1003.74	4.29
0.902	303.15	1011.32	4.62
1	303.15	1022.88	2.16
0	308.15	887.38	2
0.1113	308.15	904.52	2.11
0.2323	308.15	921.66	2.4
0.3343	308.15	935.87	2.74
0.4359	308.15	950.06	3.15
0.5407	308.15	964.55	3.53
0.6389	308.15	977.15	3.73
0.7323	308.15	987.94	3.95
0.8317	308.15	999.38	4.26
0.902	308.15	1006.77	4.4
1	308.15	1017.39	2.15
0	313.15	882.6	2
0.1113	313.15	900.41	2.11
0.2323	313.15	917.54	2.4
0.3343	313.15	931.81	2.75
0.4359	313.15	946.06	3.15
0.5407	313.15	960.42	3.53
0.6389	313.15	973.23	3.79
0.7323	313.15	984.36	3.95
0.8317	313.15	995.46	4.16
0.902	313.15	1002.66	4.09
1	313.15	1011.83	2.15
0	318.15	877.81	2
0.1113	318.15	896.118	2.118
0.2323	318.15	913.38	2.4
0.3343	318.15	927.62	2.74
0.4359	318.15	941.67	3.13
0.5407	318.15	955.89	3.53
0.6389	318.15	968.79	3.83
0.7323	318.15	980.16	3.97
0.8317	318.15	991.113	4.073
0.902	318.15	997.95	3.87
1	318.15	1006.31	2.15
