Measured thermophysical data. Densities of CO2/N2/O2 ternary mixtures at temperatures from (300.15 to 353.15) K and pressures from (5 to 18) MPa
Source: Thermochim. Acta, 2019, 10.1016/j.tca.2019.03.032
Compound 1: carbon dioxide, CO2, InChI=1S/CO2/c2-1-3, purity 99.999%
Compound 2: nitrogen, N2, InChI=1S/N2/c1-2, purity 99.999%
Compound 3: oxygen, O2, InChI=1S/O2/c1-2, purity 99.999%

System: carbon dioxide + nitrogen + oxygen; phases: Fluid (supercritical or subcritical phases)
Property: Mass density, kg/m3 (Fluid (supercritical or subcritical phases)); method: Buoyancy - hydrostatic balance with magnetic suspension - one sinker
Mole fraction of carbon dioxide	Mole fraction of nitrogen	Temperature, K	Pressure, kPa	Mass density, kg/m3	uncertainty
0.8997	0.05	300.89	4893	109.778	2.262
0.8997	0.05	300.5	5924	146.495	3.163
0.8997	0.05	300.5	7050	199.929	2.22
0.8997	0.05	300.5	7958	264.804	6.976
0.8997	0.05	300.52	9035	394.453	13.599
0.8997	0.05	300.58	9923	509.302	17.131
0.8997	0.05	300.56	11902	643.277	16.611
0.8997	0.05	300.63	14004	707.042	16.557
0.8997	0.05	300.52	15674	741.194	16.761
0.8997	0.05	300.51	17993	775.791	16.925
0.8997	0.05	303.58	5025	109.758	2.328
0.8997	0.05	303.72	6080	144.374	3.168
0.8997	0.05	303.81	6934	178.691	4.099
0.8997	0.05	303.47	8081	241.966	6.22
0.8997	0.05	303.59	9022	317.311	10.062
0.8997	0.05	303.78	9963	459.944	14.656
0.8997	0.05	303.56	12044	618.131	16.208
0.8997	0.05	303.45	14006	683.689	16.283
0.8997	0.05	303.55	16026	726.618	16.431
0.8997	0.05	303.63	18016	757.614	16.676
0.8997	0.05	305.33	5042	108.79	2.31
0.8997	0.05	305.43	6014	141.237	3.044
0.8997	0.05	305.54	6932	178.662	3.994
0.8997	0.05	305.55	8064	241.523	5.82
0.8997	0.05	305.58	9027	310.243	8.779
0.8997	0.05	305.49	9976	417.409	13.236
0.8997	0.05	305.44	12049	585.6	15.831
0.8997	0.05	305.59	14035	661.733	15.894
0.8997	0.05	305.59	16068	710.138	16.201
0.8997	0.05	305.58	18063	744.478	16.537
0.8997	0.05	313.64	4950	100.903	2.077
0.8997	0.05	313.35	5981	130.769	2.738
0.8997	0.05	313.43	7019	165.917	3.603
0.8997	0.05	313.39	7987	205.918	4.634
0.8997	0.05	313.6	8984	257.193	6.143
0.8997	0.05	313.57	9984	321.1	8.309
0.8997	0.05	313.55	12043	476.635	5.1
0.8997	0.05	313.58	14035	582.123	14.567
0.8997	0.05	313.58	16044	647.459	15.291
0.8997	0.05	313.55	18071	692.384	15.657
0.8997	0.05	333.45	4907	88.584	1.802
0.8997	0.05	333.48	5927	111.857	2.295
0.8997	0.05	333.51	7027	139.501	2.916
0.8997	0.05	333.4	7997	166.929	3.522
0.8997	0.05	333.54	8986	197.525	4.246
0.8997	0.05	333.34	9971	232.218	5.128
0.8997	0.05	333.39	12008	314.456	7.316
0.8997	0.05	333.39	14004	403.743	9.706
0.8997	0.05	333.52	15987	478.191	11.871
0.8997	0.05	333.5	17996	549.581	12.651
0.8997	0.05	353.7	4948	81.278	1.639
0.8997	0.05	353.73	5923	100.31	2.036
0.8997	0.05	353.6	6932	121.419	2.463
0.8997	0.05	353.41	7918	143.358	2.935
0.8997	0.05	353.64	9057	170.263	3.553
0.8997	0.05	353.57	9959	193.35	4.072
0.8997	0.05	353.7	11972	249.755	5.357
0.8997	0.05	353.64	13928	309.768	6.766
0.8997	0.05	353.7	16003	374.87	8.333
0.8997	0.05	353.69	18023	435.411	9.764
0.9494	0.0404	300.96	5055	121.159	0.589
0.9494	0.0404	300.58	6075	165.529	0.905
0.9494	0.0404	300.58	7011	226.645	2.823
0.9494	0.0404	300.6	7987	373.879	17.19
0.9494	0.0404	300.56	8971	612.217	10.182
0.9494	0.0404	300.6	9886	674.246	9.25
0.9494	0.0404	300.69	11981	741.359	9.801
0.9494	0.0404	300.8	13957	778.106	10.967
0.9494	0.0404	300.58	15905	806.698	11.656
0.9494	0.0404	300.61	18097	830.651	11.931
0.9494	0.0404	303.48	4922	114.85	1.639
0.9494	0.0404	303.46	5988	155.195	0.748
0.9494	0.0404	303.48	6930	205.771	1.816
0.9494	0.0404	303.66	8063	325.257	7.734
0.9494	0.0404	303.62	9021	548.36	15.035
0.9494	0.0404	303.55	10090	639.418	8.942
0.9494	0.0404	303.54	12002	713.001	9.482
0.9494	0.0404	303.63	14036	757.377	10.603
0.9494	0.0404	303.55	16036	788.955	11.331
0.9494	0.0404	303.59	18053	813.136	11.716
0.9494	0.0404	305.46	4981	113.661	0.51
0.9494	0.0404	305.47	5950	149.336	0.696
0.9494	0.0404	305.67	7012	202.141	1.312
0.9494	0.0404	305.7	7961	276.662	4.395
0.9494	0.0404	305.56	9009	455.343	10.959
0.9494	0.0404	305.62	9921	580.972	9.223
0.9494	0.0404	305.6	11968	689.449	8.367
0.9494	0.0404	305.67	13979	739.379	10.314
0.9494	0.0404	305.55	15987	774.381	11.184
0.9494	0.0404	305.58	18022	800.637	11.49
0.9494	0.0404	313.73	5002	107.391	0.44
0.9494	0.0404	313.71	6035	140.429	0.591
0.9494	0.0404	313.64	7095	182.157	0.862
0.9494	0.0404	313.62	8076	234.441	1.582
0.9494	0.0404	313.4	8868	294.655	3.003
0.9494	0.0404	313.58	9999	411.587	5.836
0.9494	0.0404	313.48	11885	582.917	6.486
0.9494	0.0404	313.59	14063	669.327	8.657
0.9494	0.0404	313.63	16021	715.935	10.22
0.9494	0.0404	313.61	17987	749.793	10.919
0.9494	0.0404	333.6	4902	91.719	0.323
0.9494	0.0404	333.49	5958	118.094	0.446
0.9494	0.0404	333.58	6924	144.834	0.678
0.9494	0.0404	333.51	7962	175.311	1.032
0.9494	0.0404	333.65	8954	209.166	1.501
0.9494	0.0404	333.48	9926	248.429	2.651
0.9494	0.0404	333.44	12000	352.578	4.074
0.9494	0.0404	333.36	13956	460.737	4.885
0.9494	0.0404	333.5	16009	549.303	6.569
0.9494	0.0404	333.51	18029	610	7.151
0.9494	0.0404	353.87	4989	85.527	0.311
0.9494	0.0404	353.47	5953	105.6	0.362
0.9494	0.0404	354.02	7043	126.185	0.573
0.9494	0.0404	353.69	8075	152.813	0.747
0.9494	0.0404	353.9	9004	176.658	1.072
0.9494	0.0404	353.6	9903	202.049	1.369
0.9494	0.0404	353.62	12027	268.154	3.08
0.9494	0.0404	353.87	13990	335.522	4.922
0.9494	0.0404	353.57	16005	408.606	6.265
0.9494	0.0404	353.51	18053	475.88	6.302
