Measured thermophysical data. Studies of homogeneous interactions of N-acetyl-N-methyl-l-amino acid  amides in water at 298.15
Source: Thermochim. Acta, 2009, 10.1016/j.tca.2008.12.015
Compound 1: (S)-2-acetamido-N-methylpropanamide, C6H12N2O2, InChI=1S/C6H12N2O2/c1-4(6(10)7-3)8-5(2)9/h4H,1-3H3,(H,7,10)(H,8,9)/t4-/m0/s1
Compound 2: 2-acetamido-N-methylacetamide, C5H10N2O2, InChI=1S/C5H10N2O2/c1-4(8)7-3-5(9)6-2/h3H2,1-2H3,(H,6,9)(H,7,8)
Compound 3: N-acetyl-N'-methylvalinamide, C8H16N2O2, InChI=1S/C8H16N2O2/c1-5(2)7(8(12)9-4)10-6(3)11/h5,7H,1-4H3,(H,9,12)(H,10,11)/t7-/m0/s1
Compound 4: (S)-2-acetamido-N,4-dimethylpentanamide, C9H18N2O2, InChI=1S/C9H18N2O2/c1-6(2)5-8(9(13)10-4)11-7(3)12/h6,8H,5H2,1-4H3,(H,10,13)(H,11,12)/t8-/m0/s1
Compound 5: N-acetyl-N'-methyl-l-alpha-serinamide, C6H12N2O3, InChI=1S/C6H12N2O3/c1-4(10)8-5(3-9)6(11)7-2/h5,9H,3H2,1-2H3,(H,7,11)(H,8,10)/t5-/m0/s1
Compound 6: N-acetyl-N'-methyl-L-alpha-threoninamide, C7H14N2O3, InChI=1S/C7H14N2O3/c1-4(10)6(7(12)8-3)9-5(2)11/h4,6,10H,1-3H3,(H,8,12)(H,9,11)/t4-,6+/m1/s1
Compound 7: water, H2O, InChI=1S/H2O/h1H2

System: N-acetyl-N'-methyl-l-alpha-serinamide; phases: Crystal, Liquid, Air at 1 atmosphere
Property: Normal melting temperature, K (Crystal); method: Resistive pulse heating
Normal melting temperature, K	uncertainty
395.15	3

System: N-acetyl-N'-methyl-L-alpha-threoninamide; phases: Crystal, Liquid, Air at 1 atmosphere
Property: Normal melting temperature, K (Crystal); method: Resistive pulse heating
Normal melting temperature, K	uncertainty
440.15	3

System: water + (S)-2-acetamido-N-methylpropanamide; phases: Liquid
Fixed: Temperature, K = 298.15
Fixed: Pressure, kPa = 101.325
Property: Molar enthalpy of dilution, kJ/mol (Liquid); method: Isothermal calorimeter
Initial molality of solute, mol/kg	Final molality of solute, mol/kg	Molar enthalpy of dilution, kJ/mol	uncertainty
0.4671	0.0456	-0.4732	0.0057
0.4671	0.1159	-0.4169	0.0052
0.4671	0.225	-0.2601	0.0036
0.4671	0.3114	-0.1675	0.0027
0.8049	0.1494	-0.7865	0.0089
0.8049	0.3782	-0.4578	0.0056
0.9175	0.4365	-0.5176	0.00618
0.957	0.1816	-0.9072	0.01007
0.9703	0.0763	-1.0144	0.0111
0.9703	0.4311	-0.5775	0.00678
0.9703	0.4586	-0.5909	0.00691

System: 2-acetamido-N-methylacetamide + water; phases: Liquid
Fixed: Temperature, K = 298.15
Fixed: Pressure, kPa = 101.325
Property: Molar enthalpy of dilution, kJ/mol (Liquid); method: Isothermal calorimeter
Initial molality of solute, mol/kg	Final molality of solute, mol/kg	Molar enthalpy of dilution, kJ/mol	uncertainty
0.3963	0.0159	-0.227	0.0033
0.3963	0.1399	-0.1487	0.0025
0.3963	0.1473	-0.1461	0.0025
0.4933	0.0259	-0.2681	0.0037
0.4933	0.0316	-0.2745	0.0037
0.4933	0.048	-0.2565	0.0036
0.4933	0.0574	-0.2661	0.0037
0.5871	0.0297	-0.3651	0.0047
0.5871	0.0386	-0.3407	0.0044
0.7804	0.5277	-0.1408	0.0024
1.5617	0.153	-0.7403	0.0084
1.5617	0.9011	-0.3481	0.0045
1.5617	1.138	-0.2191	0.0032

System: water + N-acetyl-N'-methylvalinamide; phases: Liquid
Fixed: Temperature, K = 298.15
Fixed: Pressure, kPa = 101.325
Property: Molar enthalpy of dilution, kJ/mol (Liquid); method: Isothermal calorimeter
Initial molality of solute, mol/kg	Final molality of solute, mol/kg	Molar enthalpy of dilution, kJ/mol	uncertainty
0.1026	0.00484	-0.2303	0.0033
0.1026	0.0157	-0.2004	0.003
0.103	0.00417	-0.2318	0.0033
0.103	0.00818	-0.2219	0.0032
0.103	0.01204	-0.2102	0.0031
0.103	0.01575	-0.2008	0.003
0.103	0.01815	-0.1951	0.003
0.103	0.00417	-0.2322	0.0033
0.103	0.00818	-0.2219	0.0032
0.103	0.01575	-0.201	0.003
0.103	0.01815	-0.1949	0.003
0.1311	0.00701	-0.2823	0.0038
0.1311	0.01366	-0.2652	0.0037
0.1311	0.01998	-0.249	0.0035

System: water + (S)-2-acetamido-N,4-dimethylpentanamide; phases: Liquid
Fixed: Temperature, K = 298.15
Fixed: Pressure, kPa = 101.325
Property: Molar enthalpy of dilution, kJ/mol (Liquid); method: Isothermal calorimeter
Initial molality of solute, mol/kg	Final molality of solute, mol/kg	Molar enthalpy of dilution, kJ/mol	uncertainty
0.34412	0.047	-0.9847	0.0108
0.34412	0.0653	-0.9228	0.0102
0.34412	0.0667	-0.9734	0.0107
0.34412	0.0684	-0.9251	0.0103
0.34412	0.0871	-0.745	0.0085
0.34412	0.0967	-0.8178	0.0092
0.46981	0.0579	-1.3593	0.0146
0.46981	0.0896	-1.2937	0.0139
0.53346	0.0343	-1.8375	0.0194
0.53346	0.0899	-1.2954	0.014
0.53346	0.1275	-1.4159	0.0152
0.53346	0.1963	-1.0978	0.012
0.53346	0.2338	-0.9505	0.0105

System: water + N-acetyl-N'-methyl-l-alpha-serinamide; phases: Liquid
Fixed: Temperature, K = 298.15
Fixed: Pressure, kPa = 101.325
Property: Molar enthalpy of dilution, kJ/mol (Liquid); method: Isothermal calorimeter
Initial molality of solute, mol/kg	Final molality of solute, mol/kg	Molar enthalpy of dilution, kJ/mol	uncertainty
0.2506	0.1026	-0.1156	0.0022
0.2949	0.1279	-0.1213	0.0022
0.3415	0.0822	-0.18	0.0028
0.3415	0.1005	-0.1856	0.0029
0.3415	0.1585	-0.1529	0.0025
0.5722	0.3701	-0.1479	0.0025
0.6254	0.144	-0.383	0.0048
0.6254	0.2403	-0.3017	0.004
0.6254	0.2816	-0.2646	0.0036
0.7007	0.4537	-0.1892	0.0029
0.9523	0.2529	-0.5476	0.0065
0.9523	0.2701	-0.4458	0.0055
0.9523	0.358	-0.3959	0.005

System: water + N-acetyl-N'-methyl-L-alpha-threoninamide; phases: Liquid
Fixed: Temperature, K = 298.15
Fixed: Pressure, kPa = 101.325
Property: Molar enthalpy of dilution, kJ/mol (Liquid); method: Isothermal calorimeter
Initial molality of solute, mol/kg	Final molality of solute, mol/kg	Molar enthalpy of dilution, kJ/mol	uncertainty
0.1279	0.0649	-0.0785	0.00179
0.1907	0.0779	-0.1328	0.0023
0.2254	0.0729	-0.1761	0.0028
0.2254	0.1123	-0.1319	0.0023
0.2329	0.098	-0.1539	0.0025
0.2814	0.0978	-0.2249	0.0033
0.2814	0.1366	-0.168	0.0027
0.3103	0.1357	-0.211	0.0031
0.3433	0.1136	-0.2628	0.0036
0.3585	0.2027	-0.1669	0.0027
0.3585	0.1427	-0.2405	0.0034
0.3684	0.2193	-0.1541	0.0025
0.3959	0.2171	-0.211	0.0031
