Measured thermophysical data. Thermodynamic properties of 2-adamantanone in the condensed and ideal gaseous states
Source: Thermochim. Acta, 2006, 10.1016/j.tca.2006.08.018
Compound 1: 2-adamantanone, C10H14O, InChI=1S/C10H14O/c11-10-8-2-6-1-7(4-8)5-9(10)3-6/h6-9H,1-5H2, purity 99%
Compound 2: benzoic acid, C7H6O2, InChI=1S/C7H6O2/c8-7(9)6-4-2-1-3-5-6/h1-5H,(H,8,9), purity 99.995%

System: 2-adamantanone; phases: Crystal 2, Crystal 1, Gas
Property: Molar enthalpy of transition or fusion, kJ/mol (Crystal 2); method: Adiabatic calorimetry
Molar enthalpy of transition or fusion, kJ/mol	uncertainty
7.627	0.225

System: 2-adamantanone; phases: Crystal 1, Liquid, Gas
Property: Molar enthalpy of transition or fusion, kJ/mol (Crystal 1); method: DSC
Molar enthalpy of transition or fusion, kJ/mol	uncertainty
11.77	0.24

System: 2-adamantanone; phases: Crystal 1, Liquid, Gas
Property: Triple point temperature, K (Crystal 1); method: DTA:corrimp
Triple point temperature, K	uncertainty
557.5	0.4

System: 2-adamantanone; phases: Crystal 2, Crystal 1, Gas
Property: Triple point temperature, K (Crystal 2); method: DTA:corrimp
Triple point temperature, K	uncertainty
216.4	0.1

System: 2-adamantanone; phases: Crystal 1, Gas
Property: Molar enthalpy of vaporization or sublimation, kJ/mol (Crystal 1); method: Flow calorimetry
Temperature, K	Molar enthalpy of vaporization or sublimation, kJ/mol	uncertainty
313.7	65.8	0.24

System: 2-adamantanone; phases: Crystal 2
Fixed: Pressure, kPa = 101.325
Property: Molar heat capacity at constant pressure, J/K/mol (Crystal 2); method: Small (less than 1 g) adiabatic calorimetry
Temperature, K	Molar heat capacity at constant pressure, J/K/mol	uncertainty
5	0.1823	0.019
10	1.656	0.045
15	5.822	0.117
20	11.78	0.19
25	18.17	0.25
30	24.08	0.26
35	29.25	0.25
40	33.72	0.23
45	37.58	0.25
50	40.93	0.27
60	46.54	0.3
70	51.4	0.33
80	56.13	0.35
90	60.88	0.4
100	65.7	0.42
110	70.62	0.44
120	75.56	0.47
130	80.56	0.49
140	85.65	0.51
150	90.88	0.54
160	96.28	0.57
170	101.9	0.6
180	107.7	0.6
190	113.9	0.7
200	120.5	0.7
210	127.7	0.7
216.4	132.6	0.7

System: 2-adamantanone; phases: Crystal 1
Fixed: Pressure, kPa = 101.325
Property: Molar heat capacity at constant pressure, J/K/mol (Crystal 1); method: Small (less than 1 g) adiabatic calorimetry
Temperature, K	Molar heat capacity at constant pressure, J/K/mol	uncertainty
216.4	144	0.8
220	146.2	0.8
230	152.3	0.8
240	158.5	0.8
250	164.8	0.9
260	171.2	0.9
270	177.7	1
280	184.3	1
290	191	1.1
298.15	196.6	1.1
300	197.8	1.1

System: 2-adamantanone; phases: Liquid
Fixed: Pressure, kPa = 101.325
Property: Molar heat capacity at constant pressure, J/K/mol (Liquid); method: Large sample (1 g) DSC
Temperature, K	Molar heat capacity at constant pressure, J/K/mol	uncertainty
557.5	359	9
570	367	9
590	381	10
610	394	10

System: 2-adamantanone; phases: Crystal 1
Fixed: Pressure, kPa = 101.325
Property: Molar heat capacity at constant pressure, J/K/mol (Crystal 1); method: Large sample (1 g) DSC
Temperature, K	Molar heat capacity at constant pressure, J/K/mol	uncertainty
320	211	5
340	224	5
360	236	6
380	248	6
400	260	6
420	272	6
440	285	7
460	297	7
480	309	7
500	322	8
520	334	8
540	347	9
557.5	359	9

System: 2-adamantanone; phases: Crystal 2, Gas
Property: Molar heat capacity at saturation pressure, J/K/mol (Crystal 2); method: Small (less than 1 g) adiabatic calorimetry
Temperature, K	Molar heat capacity at saturation pressure, J/K/mol	uncertainty
5.06	0.1887	0.0183
5.39	0.2287	0.0189
5.74	0.2752	0.0195
6.08	0.3274	0.0202
6.44	0.3848	0.021
6.81	0.4573	0.022
7.17	0.5364	0.0236
7.55	0.6382	0.0255
7.96	0.7608	0.028
8.38	0.9026	0.0308
8.84	1.096	0.034
9.31	1.296	0.038
9.79	1.531	0.043
10.31	1.842	0.049
10.85	2.172	0.055
11.38	2.546	0.062
11.95	3.002	0.071
12.55	3.489	0.079
13.16	3.994	0.088
13.78	4.61	0.098
14.44	5.258	0.108
15.13	5.965	0.119
15.86	6.777	0.131
16.63	7.601	0.143
17.42	8.548	0.155
18.23	9.511	0.168
19.08	10.63	0.18
19.99	11.79	0.2
20.96	13.03	0.21
21.97	14.29	0.21
23.01	15.64	0.23
24.1	17.01	0.24
25.24	18.42	0.25
26.46	20.01	0.25
27.76	21.59	0.26
29.1	23.09	0.26
30.48	24.64	0.26
31.89	26.07	0.26
33.39	27.65	0.25
34.95	29.16	0.25
36.57	30.71	0.25
38.34	32.28	0.24
40.2	33.91	0.24
42.08	35.43	0.24
44	36.97	0.25
46.02	38.34	0.26
48.07	39.62	0.26
50.05	40.89	0.27
52.08	42.32	0.28
54.07	43.25	0.28
56.21	44.46	0.29
58.66	45.81	0.29
61.22	47.21	0.3
63.47	48.36	0.31
65.79	49.34	0.32
68.43	50.62	0.32
71	51.93	0.33
73.52	53.09	0.33
76.03	54.22	0.34
78.63	55.59	0.35
81.25	56.63	0.36
83.83	57.85	0.36
86.4	59.12	0.37
88.96	60.39	0.37
91.59	61.58	0.4
94.33	62.88	0.41
97.1	64.39	0.42
99.79	65.61	0.42
100.56	66.14	0.42
102.42	66.84	0.43
103.26	67.4	0.43
105.03	68.27	0.43
106.01	68.59	0.43
108.69	69.98	0.44
111.44	71.29	0.45
114.13	72.5	0.45
116.77	73.89	0.46
119.41	75.25	0.46
122.06	76.73	0.47
124.67	77.91	0.48
127.23	79.21	0.49
129.82	80.38	0.49
132.42	81.72	0.5
134.99	83.02	0.5
137.68	84.48	0.51
140.49	85.99	0.51
143.26	87.32	0.52
146	88.74	0.53
148.69	90.29	0.54
151.36	91.71	0.55
153.99	93.03	0.55
156.6	94.6	0.56
159.17	95.94	0.56
161.74	97.13	0.57
164.32	98.6	0.57
166.87	99.96	0.58
167.31	100.3	0.6
170.03	102	0.6
172.77	103.6	0.6
175.6	105.1	0.6
178.53	106.6	0.6
181.45	108.3	0.6
184.34	110.4	0.6
187.22	112.3	0.6
190.11	113.8	0.7
192.97	115.8	0.7
195.85	117.9	0.7
198.76	119.5	0.7
201.65	121.6	0.7
201.66	121.8	0.7
204.4	124.3	0.7
207.21	127	0.7
209.99	129.7	0.7
212.73	134.4	0.7
215.28	172.6	2
216.2	503.2	7.6
216.35	654.5	9.6

System: 2-adamantanone; phases: Crystal 1, Gas
Property: Molar heat capacity at saturation pressure, J/K/mol (Crystal 1); method: Small (less than 1 g) adiabatic calorimetry
Temperature, K	Molar heat capacity at saturation pressure, J/K/mol	uncertainty
216.57	648	4.8
217.37	507.6	3.9
218.13	417.5	2.9
219.75	271.9	2.2
220.45	222.1	1.8
223.67	164.5	0.9
227.13	152.5	0.8
230.52	152.7	0.8
233.88	154.7	0.8
237.23	157	0.9
240.55	158.8	0.9
243.85	160.7	0.9
247.11	162.7	0.9
250.36	165.2	0.9
253.63	167.3	0.9
256.92	169.1	0.9
260.19	171.6	0.9
263.43	173.4	0.9
266.64	175.7	1
267.64	176.2	1
269.83	177.5	1
270.85	178.1	1
274.04	180.1	1
277.21	182.5	1
278.97	183.5	1
280.34	184.9	1
282.89	186.4	1
285.79	188.1	1
286.79	189.2	1
290.64	191.4	1
292.5	192.7	1
294.58	194	1
296	195.2	1
298.6	197.2	1.1
299.58	197.8	1.1
302.59	199.3	1.1
303.12	199.8	1.1
306.53	202.3	1.1
306.63	202.4	1.1
310.13	204.6	1.1
310.45	205.4	1.1

System: 2-adamantanone; phases: Crystal 2
Fixed: Pressure, kPa = 101.325
Property: Molar enthalpy function {Hm(T)-Hm(0)}/T, J/K/mol (Crystal 2); method: Small (less than 1 g) adiabatic calorimetry
Temperature, K	Molar enthalpy function {Hm(T)-Hm(0)}/T, J/K/mol	uncertainty
5	0.04553	0.01618
10	0.385	0.0205
15	1.436	0.038
20	3.253	0.065
25	5.601	0.093
30	8.198	0.14
35	10.84	0.16
40	13.43	0.17
45	15.9	0.18
50	18.24	0.18
60	22.51	0.2
70	26.29	0.22
80	29.73	0.23
90	32.92	0.28
100	35.96	0.3
110	38.89	0.31
120	41.74	0.32
130	44.53	0.33
140	47.29	0.35
150	50.02	0.36
160	52.74	0.37
170	55.46	0.38
180	58.2	0.4
190	60.97	0.41
200	63.78	0.42
210	66.65	0.43
216.4	68.53	0.44

System: 2-adamantanone; phases: Crystal 1
Fixed: Pressure, kPa = 101.325
Property: Molar enthalpy function {Hm(T)-Hm(0)}/T, J/K/mol (Crystal 1); method: Small (less than 1 g) adiabatic calorimetry
Temperature, K	Molar enthalpy function {Hm(T)-Hm(0)}/T, J/K/mol	uncertainty
216.4	103.8	0.6
220	104.4	0.6
230	106.4	0.6
240	108.4	0.6
250	110.6	0.6
260	112.8	0.6
270	115.1	0.6
280	117.4	0.6
290	119.8	0.6
298.15	121.9	0.6
300	122.3	0.6

System: 2-adamantanone; phases: Liquid
Fixed: Pressure, kPa = 101.325
Property: Molar enthalpy function {Hm(T)-Hm(0)}/T, J/K/mol (Liquid); method: Large sample (1 g) DSC
Temperature, K	Molar enthalpy function {Hm(T)-Hm(0)}/T, J/K/mol	uncertainty
557.5	215	4
570	219	4
590	224	4
610	229	5

System: 2-adamantanone; phases: Crystal 1
Fixed: Pressure, kPa = 101.325
Property: Molar enthalpy function {Hm(T)-Hm(0)}/T, J/K/mol (Crystal 1); method: Large sample (1 g) DSC
Temperature, K	Molar enthalpy function {Hm(T)-Hm(0)}/T, J/K/mol	uncertainty
320	127.5	2
340	132.7	2.1
360	138.1	2.2
380	143.6	2.4
400	149.1	2.5
420	155	3
440	160	3
460	166	3
480	172	3
500	178	3
520	183	3
540	189	4
557.5	194	4

System: 2-adamantanone; phases: Crystal 1, Gas
Property: Vapor or sublimation pressure, kPa (Crystal 1); method: KNUDSEN:flow
Temperature, K	Vapor or sublimation pressure, kPa	uncertainty
280	0.0002919	1.79e-05
283.47	0.0004184	2.56e-05
288.42	0.000686	4.2e-05
293.34	0.001098	6.7e-05
293.48	0.00111	6.8e-05
295.9	0.001393	8.5e-05
295.94	0.001433	8.8e-05
298.39	0.001751	0.000107
303.32	0.002648	0.000162
308.33	0.004107	0.000252
310.8	0.00522	0.00032
310.8	0.004989	0.000306
313.24	0.006074	0.000372
313.26	0.006089	0.000373
315.71	0.007669	0.00047
315.72	0.007396	0.000453
318.18	0.008981	0.00055
323.06	0.01286	0.00079
327.99	0.01874	0.00115
332.9	0.02699	0.00165

System: 2-adamantanone; phases: Crystal 2
Fixed: Pressure, kPa = 101.325
Property: Molar entropy, J/K/mol (Crystal 2); method: Small (less than 1 g) adiabatic calorimetry
Temperature, K	Molar entropy, J/K/mol	uncertainty
5	0.0607	0.02457
10	0.5082	0.0336
15	1.885	0.07
20	4.349	0.128
25	7.667	0.191
30	11.51	0.28
35	15.62	0.32
40	19.83	0.37
45	24.03	0.39
50	28.16	0.43
60	36.14	0.49
70	43.68	0.55
80	50.86	0.61
90	57.74	0.7
100	64.4	0.74
110	70.9	0.79
120	77.25	0.84
130	83.5	0.88
140	89.65	0.92
150	95.74	0.97
160	101.8	1
170	107.8	1
180	113.8	1.1
190	119.8	1.2
200	125.8	1.2
210	131.8	1.2
216.4	135.7	1.3

System: 2-adamantanone; phases: Crystal 1
Fixed: Pressure, kPa = 101.325
Property: Molar entropy, J/K/mol (Crystal 1); method: Small (less than 1 g) adiabatic calorimetry
Temperature, K	Molar entropy, J/K/mol	uncertainty
216.4	171	1.4
220	173.4	1.4
230	180	1.5
240	186.6	1.6
250	193.2	1.6
260	199.8	1.6
270	206.4	1.7
280	213	1.8
290	219.5	1.8
298.15	224.9	1.8
300	226.1	1.8

System: 2-adamantanone; phases: Liquid
Fixed: Pressure, kPa = 101.325
Property: Molar entropy, J/K/mol (Liquid); method: Large sample (1 g) DSC
Temperature, K	Molar entropy, J/K/mol	uncertainty
557.5	414	12
570	423	12
590	435	12
610	448	12

System: 2-adamantanone; phases: Crystal 1
Fixed: Pressure, kPa = 101.325
Property: Molar entropy, J/K/mol (Crystal 1); method: Large sample (1 g) DSC
Temperature, K	Molar entropy, J/K/mol	uncertainty
320	239.3	5.6
340	252.5	5.9
360	265.6	6.2
380	278.7	6.6
400	291.8	6.9
420	305	7
440	318	8
460	331	8
480	344	9
500	356	9
520	369	10
540	382	10
557.5	393	10

System: benzoic acid; phases: Crystal, Gas
Property: Vapor or sublimation pressure, kPa (Crystal); method: KNUDSEN:flow
Temperature, K	Vapor or sublimation pressure, kPa	uncertainty
302.99	0.0002046	1.26e-05
308	0.0003782	2.32e-05
312.86	0.000643	3.94e-05
313.19	0.0006612	4.05e-05
317.89	0.001071	6.6e-05
317.91	0.001095	6.7e-05
318.02	0.001135	7e-05
318.02	0.001101	6.7e-05
322.7	0.001826	0.000112
322.95	0.001824	0.000115
322.99	0.001881	0.000119
327.63	0.002983	0.000183
327.88	0.003101	0.00019
327.9	0.003125	0.000192
332.6	0.00495	0.000303
332.8	0.004824	0.000295
332.85	0.004889	0.000301
337.71	0.007791	0.000477
