Measured thermophysical data. High temperature enthalpy increments and thermodynamic functions of ZrCo: An experimental and theoretical study
Source: Thermochim. Acta, 2015, 10.1016/j.tca.2015.05.024
Compound 1: zirconium, Zr, InChI=1S/Zr, purity 99.98%
Compound 2: cobalt, Co, InChI=1S/Co, purity 99.95%

System: cobalt + zirconium; phases: Crystal of intercomponent compound 1
Fixed: Pressure, kPa = 100
Fixed: Mole fraction of cobalt = 0.5
Property: Molar enthalpy, kJ/mol (Crystal of intercomponent compound 1); method: Drop calorimetry
Temperature, K	Molar enthalpy, kJ/mol	uncertainty
642	9.369	0.19
693	10.809	0.239
743	12.304	0.251
794	13.858	0.279
844	15.409	0.31
894	16.99	0.666
943	18.57	0.373
994	20.196	0.405
1044	21.764	0.436
1096	23.399	0.474
1144	24.991	0.501
1195	26.555	0.667
1245	28.227	2.731
1295	29.772	2.005
1345	31.408	2.759
1397	32.98	2.132
1447	34.645	1.245
1497	36.371	1.535
