Measured thermophysical data. Solubility, dissolution enthalpy and entropy of L-Glutamine in mixed solvents of ethanol+water  and acetone+water
Source: Thermochim. Acta, 2013, 10.1016/j.tca.2013.02.007
Compound 1: L-glutamine, C5H10N2O3, InChI=1S/C5H10N2O3/c6-3(5(9)10)1-2-4(7)8/h3H,1-2,6H2,(H2,7,8)(H,9,10)/t3-/m0/s1, purity 99%
Compound 2: ethanol, C2H6O, InChI=1S/C2H6O/c1-2-3/h3H,2H2,1H3, purity 99%
Compound 3: water, H2O, InChI=1S/H2O/h1H2
Compound 4: acetone, C3H6O, InChI=1S/C3H6O/c1-3(2)4/h1-2H3, purity 99%

System: L-glutamine + acetone + water; phases: Liquid, Crystal
Fixed: Pressure, kPa = 100
Property: Mole fraction of L-glutamine (Liquid); method: Phase equilibration
Solvent: Amount ratio of component to other component of binary solvent of water	Temperature, K	Mole fraction of L-glutamine	uncertainty
10	278.15	0.00079	0.00079
10	283.15	0.00104	0.00104
10	288.15	0.00127	0.00127
10	293.15	0.00157	0.00157
10	298.15	0.00185	0.00185
10	303.15	0.00223	0.00223
10	308.15	0.00264	0.00264
10	312.95	0.00318	0.00318
20	277.95	0.00146	0.00146
20	282.95	0.00171	0.00171
20	287.95	0.00207	0.00207
20	292.65	0.00242	0.00242
20	297.55	0.0029	0.0029
20	302.65	0.00331	0.00331
20	307.75	0.00406	0.00406
20	312.65	0.00474	0.00474
40	277.95	0.00182	0.00182
40	282.95	0.00223	0.00223
40	287.85	0.0027	0.0027
40	292.75	0.00318	0.00318
40	297.65	0.0037	0.0037
40	302.85	0.00436	0.00436
40	307.73	0.00526	0.00526
40	312.65	0.006	0.006

System: L-glutamine + ethanol + water; phases: Liquid, Crystal
Fixed: Pressure, kPa = 100
Property: Mole fraction of L-glutamine (Liquid); method: Phase equilibration
Solvent: Amount ratio of component to other component of binary solvent of water	Temperature, K	Mole fraction of L-glutamine	uncertainty
10	278.15	0.00084	0.00084
10	283.15	0.00105	0.00105
10	288.15	0.00131	0.00131
10	293.15	0.00162	0.00162
10	298.15	0.002	0.002
10	303.15	0.00244	0.00244
10	308.15	0.00297	0.00297
10	313.15	0.0036	0.0036
20	278.15	0.00133	0.00133
20	283.15	0.00165	0.00165
20	288.15	0.00206	0.00206
20	293.15	0.0025	0.0025
20	298.15	0.0031	0.0031
20	303.15	0.00359	0.00359
20	308.15	0.00428	0.00428
20	313.15	0.00509	0.00509
40	278.15	0.00182	0.00182
40	283.15	0.0022	0.0022
40	288.15	0.00266	0.00266
40	293.15	0.00326	0.00326
40	298.15	0.00379	0.00379
40	303.15	0.00455	0.00455
40	308.15	0.00536	0.00536
40	313.15	0.0063	0.0063

System: L-glutamine + water; phases: Liquid, Crystal
Fixed: Pressure, kPa = 100
Property: Mole fraction of L-glutamine (Liquid); method: Phase equilibration
Temperature, K	Mole fraction of L-glutamine	uncertainty
278.15	0.00254	0.00254
283.15	0.00305	0.00305
288.35	0.00368	0.00368
293.15	0.00425	0.00425
298.15	0.00514	0.00514
303.15	0.00602	0.00602
308.15	0.00662	0.00662
313.15	0.00795	0.00795
