Measured thermophysical data. Enthalpies of solution of tetramethyl-bis-urea (Mebicarum) in amides and acetone at 298.15 K
Source: Thermochim. Acta, 2007, 10.1016/j.tca.2007.07.008
Compound 1: 1,3,4,6-tetramethylglycoluril, C8H14N4O2, InChI=1S/C8H14N4O2/c1-9-5-6(11(3)7(9)13)12(4)8(14)10(5)2/h5-6H,1-4H3
Compound 2: formamide, CH3NO, InChI=1S/CH3NO/c2-1-3/h1H,(H2,2,3), purity 99.5%
Compound 3: N-methylformamide, C2H5NO, InChI=1S/C2H5NO/c1-3-2-4/h2H,1H3,(H,3,4)
Compound 4: dimethylformamide, C3H7NO, InChI=1S/C3H7NO/c1-4(2)3-5/h3H,1-2H3, purity 99.5%
Compound 5: N,N-dimethylethanamide, C4H9NO, InChI=1S/C4H9NO/c1-4(6)5(2)3/h1-3H3, purity 99.8%
Compound 6: tetramethylurea, C5H12N2O, InChI=1S/C5H12N2O/c1-6(2)5(8)7(3)4/h1-4H3
Compound 7: acetone, C3H6O, InChI=1S/C3H6O/c1-3(2)4/h1-2H3, purity 99.9%

System: 1,3,4,6-tetramethylglycoluril; phases: Crystal, Liquid, Air at 1 atmosphere
Property: Normal melting temperature, K (Crystal); method: UNKNOWN
Normal melting temperature, K	uncertainty
501	4

System: formamide; phases: Liquid
Property: Refractive index (Na D-line) (Liquid); method: Standard Abbe refractometry
Temperature, K	Pressure, kPa	Refractive index (Na D-line)	uncertainty
298.15	101.325	1.4465	0.0007

System: formamide; phases: Liquid
Property: Mass density, kg/m3 (Liquid); method: Vibrating tube method
Temperature, K	Pressure, kPa	Mass density, kg/m3	uncertainty
298.15	101.325	1129.15	0.2

System: N-methylformamide; phases: Liquid
Property: Refractive index (Na D-line) (Liquid); method: Standard Abbe refractometry
Temperature, K	Pressure, kPa	Refractive index (Na D-line)	uncertainty
298.15	101.325	1.4308	0.0008

System: N-methylformamide; phases: Liquid
Property: Mass density, kg/m3 (Liquid); method: Vibrating tube method
Temperature, K	Pressure, kPa	Mass density, kg/m3	uncertainty
298.15	101.325	998.92	0.3

System: dimethylformamide; phases: Liquid
Property: Refractive index (Na D-line) (Liquid); method: Standard Abbe refractometry
Temperature, K	Pressure, kPa	Refractive index (Na D-line)	uncertainty
298.15	101.325	1.4276	0.0007

System: dimethylformamide; phases: Liquid
Property: Mass density, kg/m3 (Liquid); method: Vibrating tube method
Temperature, K	Pressure, kPa	Mass density, kg/m3	uncertainty
298.15	101.325	943.93	0.13

System: N,N-dimethylethanamide; phases: Liquid
Property: Refractive index (Na D-line) (Liquid); method: Standard Abbe refractometry
Temperature, K	Pressure, kPa	Refractive index (Na D-line)	uncertainty
298.15	101.325	1.436	0.0007

System: N,N-dimethylethanamide; phases: Liquid
Property: Mass density, kg/m3 (Liquid); method: Vibrating tube method
Temperature, K	Pressure, kPa	Mass density, kg/m3	uncertainty
298.15	101.325	936.5	0.1

System: tetramethylurea; phases: Liquid
Property: Refractive index (Na D-line) (Liquid); method: Standard Abbe refractometry
Temperature, K	Pressure, kPa	Refractive index (Na D-line)	uncertainty
298.15	101.325	1.4494	0.0008

System: tetramethylurea; phases: Liquid
Property: Mass density, kg/m3 (Liquid); method: Vibrating tube method
Temperature, K	Pressure, kPa	Mass density, kg/m3	uncertainty
298.15	101.325	962.11	0.3

System: acetone; phases: Liquid
Property: Refractive index (Na D-line) (Liquid); method: Standard Abbe refractometry
Temperature, K	Pressure, kPa	Refractive index (Na D-line)	uncertainty
298.15	101.325	1.3563	0.0007

System: acetone; phases: Liquid
Property: Mass density, kg/m3 (Liquid); method: Vibrating tube method
Temperature, K	Pressure, kPa	Mass density, kg/m3	uncertainty
298.15	101.325	784.65	0.16

System: formamide + 1,3,4,6-tetramethylglycoluril; phases: Liquid
Property: Molar enthalpy of solution, kJ/mol (Liquid); method: ISOPERIBOL
Molality, mol/kg of 1,3,4,6-tetramethylglycoluril	Temperature, K	Pressure, kPa	Molar enthalpy of solution, kJ/mol	uncertainty
0.000486	298.15	101	7.88	0.12

System: N-methylformamide + 1,3,4,6-tetramethylglycoluril; phases: Liquid
Property: Molar enthalpy of solution, kJ/mol (Liquid); method: ISOPERIBOL
Molality, mol/kg of 1,3,4,6-tetramethylglycoluril	Temperature, K	Pressure, kPa	Molar enthalpy of solution, kJ/mol	uncertainty
0.000504	298.15	101	17.45	0.22

System: dimethylformamide + 1,3,4,6-tetramethylglycoluril; phases: Liquid
Property: Molar enthalpy of solution, kJ/mol (Liquid); method: ISOPERIBOL
Molality, mol/kg of 1,3,4,6-tetramethylglycoluril	Temperature, K	Pressure, kPa	Molar enthalpy of solution, kJ/mol	uncertainty
0.000488	298.15	101	14.69	0.18

System: N,N-dimethylethanamide + 1,3,4,6-tetramethylglycoluril; phases: Liquid
Property: Molar enthalpy of solution, kJ/mol (Liquid); method: ISOPERIBOL
Molality, mol/kg of 1,3,4,6-tetramethylglycoluril	Temperature, K	Pressure, kPa	Molar enthalpy of solution, kJ/mol	uncertainty
0.000599	298.15	101	15.49	0.19

System: tetramethylurea + 1,3,4,6-tetramethylglycoluril; phases: Liquid
Property: Molar enthalpy of solution, kJ/mol (Liquid); method: ISOPERIBOL
Molality, mol/kg of 1,3,4,6-tetramethylglycoluril	Temperature, K	Pressure, kPa	Molar enthalpy of solution, kJ/mol	uncertainty
0.000522	298.15	101	15.61	0.2

System: acetone + 1,3,4,6-tetramethylglycoluril; phases: Liquid
Property: Molar enthalpy of solution, kJ/mol (Liquid); method: ISOPERIBOL
Molality, mol/kg of 1,3,4,6-tetramethylglycoluril	Temperature, K	Pressure, kPa	Molar enthalpy of solution, kJ/mol	uncertainty
0.000688	298.15	101	17.87	0.22
