Measured thermophysical data. Reactivity of ZnSb2O6 with ZnTa2O6 and some properties of new limited ZnSb2-xTaxO6 solid solution with tri-rutile structure
Source: Thermochim. Acta, 2015, 10.1016/j.tca.2015.05.017
Compound 1: antimony zinc oxide (Sb2ZnO6), O6Sb2Zn, InChI=1S/6O.2Sb.Zn/q6*-2;2*+5;+2, purity 97%
Compound 2: zinc tantalate(V) (ZnTa2O6), O6Ta2Zn, InChI=1S/6O.2Ta.Zn/q6*-2;2*+5;+2, purity 97%

System: antimony zinc oxide (Sb2ZnO6); phases: Crystal
Property: Mass density, kg/m3 (Crystal); method: Pycnometric method
Temperature, K	Pressure, kPa	Mass density, kg/m3	uncertainty
298	101.325	6700	110

System: antimony zinc oxide (Sb2ZnO6); phases: Crystal
Property: Mass density, kg/m3 (Crystal); method: X-ray diffraction
Temperature, K	Pressure, kPa	Mass density, kg/m3	uncertainty
298	101.325	6640	110

System: zinc tantalate(V) (ZnTa2O6); phases: Crystal
Property: Mass density, kg/m3 (Crystal); method: Pycnometric method
Temperature, K	Pressure, kPa	Mass density, kg/m3	uncertainty
298	101.325	8610	180

System: zinc tantalate(V) (ZnTa2O6) + antimony zinc oxide (Sb2ZnO6); phases: Crystal
Fixed: Pressure, kPa = 101
Fixed: Temperature, K = 298
Property: Mass density, kg/m3 (Crystal); method: Pycnometric method
Mole fraction of zinc tantalate(V) (ZnTa2O6)	Mass density, kg/m3	uncertainty
0	6700	110
0.125	6830	110
0.25	7020	120
0.375	7270	130
0.5	7490	140
0.75	7890	150

System: zinc tantalate(V) (ZnTa2O6) + antimony zinc oxide (Sb2ZnO6); phases: Crystal
Fixed: Pressure, kPa = 101
Fixed: Temperature, K = 298
Property: Mass density, kg/m3 (Crystal); method: X-ray diffraction
Mole fraction of zinc tantalate(V) (ZnTa2O6)	Mass density, kg/m3	uncertainty
0	6640	110
0.125	6870	110
0.25	7100	120
0.375	7330	130
0.5	7540	140
0.75	7970	150
