Measured thermophysical data. Solid-liquid phase equilibrium in the water-Zn(II) methanesulfonate and water-Cu(II) methanesulfonate systems
Source: Thermochim. Acta, 2018, 10.1016/j.tca.2018.08.004
Compound 1: zinc(II) methanesulfonate dodecahydrate, C2H30O18S2Zn, InChI=1S/2CH4O3S.12H2O.Zn/c2*1-5(2,3)4;;;;;;;;;;;;;/h2*1H3,(H,2,3,4);12*1H2;/q;;;;;;;;;;;;;;+2/p-2
Compound 2: water, H2O, InChI=1S/H2O/h1H2
Compound 3: zinc(II) methanesulfonate, C2H6O6S2Zn, InChI=1S/2CH4O3S.Zn/c2*1-5(2,3)4;/h2*1H3,(H,2,3,4);/q;;+2/p-2
Compound 4: copper(II) methanesulfonate, C2H6CuO6S2, InChI=1S/2CH4O3S.Cu/c2*1-5(2,3)4;/h2*1H3,(H,2,3,4);/q;;+2/p-2

System: zinc(II) methanesulfonate dodecahydrate; phases: Crystal
Property: Mass density, kg/m3 (Crystal); method: X-ray diffraction
Temperature, K	Pressure, kPa	Mass density, kg/m3	uncertainty
100	101.325	1501.24	1.17

System: zinc(II) methanesulfonate dodecahydrate; phases: Crystal, Liquid, Air at 1 atmosphere
Property: Normal melting temperature, K (Crystal); method: DTA
Normal melting temperature, K	uncertainty
299.35	0.4

System: zinc(II) methanesulfonate dodecahydrate; phases: Crystal, Liquid, Air at 1 atmosphere
Property: Molar enthalpy of transition or fusion, kJ/mol (Crystal); method: DSC
Molar enthalpy of transition or fusion, kJ/mol	uncertainty
78.9	1.6

System: zinc(II) methanesulfonate; phases: Crystal, Liquid, Air at 1 atmosphere
Property: Normal melting temperature, K (Crystal); method: DTA
Normal melting temperature, K	uncertainty
566.65	0.7

System: zinc(II) methanesulfonate; phases: Crystal, Liquid, Air at 1 atmosphere
Property: Molar enthalpy of transition or fusion, kJ/mol (Crystal); method: DSC
Molar enthalpy of transition or fusion, kJ/mol	uncertainty
33.4	1.4

System: zinc(II) methanesulfonate + water; phases: Liquid, Crystal, Crystal of intercomponent compound 1, Air at 1 atmosphere
Property: Eutectic temperature, K (Liquid); method: DTA
Eutectic temperature, K	uncertainty
263.6	0.5

System: zinc(II) methanesulfonate + water; phases: Liquid, Crystal of intercomponent compound 1, Crystal of intercomponent compound 2, Air at 1 atmosphere
Property: Eutectic temperature, K (Liquid); method: DTA
Eutectic temperature, K	uncertainty
295.9	0.5

System: zinc(II) methanesulfonate + water; phases: Liquid, Crystal of intercomponent compound 1
Fixed: Pressure, kPa = 101
Property: Mass fraction of zinc(II) methanesulfonate (Liquid); method: Titration method
Temperature, K	Mass fraction of zinc(II) methanesulfonate	uncertainty
268.15	0.2497	0.005
272.85	0.2491	0.0055
278.15	0.2716	0.006
283.15	0.3116	0.0073
288.25	0.3668	0.0089
291.15	0.411	0.0099
294.15	0.448	0.0117
298.15	0.5388	0.013

System: zinc(II) methanesulfonate + water; phases: Liquid, Crystal of intercomponent compound 2
Fixed: Pressure, kPa = 101
Property: Mass fraction of zinc(II) methanesulfonate (Liquid); method: Titration method
Temperature, K	Mass fraction of zinc(II) methanesulfonate	uncertainty
298.15	0.5417	0.0093
298.35	0.5531	0.0091
300.15	0.548	0.0092
308.15	0.5574	0.0089
313.15	0.5537	0.009
323.15	0.5631	0.0088
338.15	0.5839	0.0084
343.15	0.595	0.0082

System: zinc(II) methanesulfonate + water; phases: Liquid, Crystal
Fixed: Pressure, kPa = 101
Property: Solid-liquid equilibrium temperature, K (Liquid); method: DTA
Mass fraction of zinc(II) methanesulfonate	Solid-liquid equilibrium temperature, K	uncertainty
0.0421	271.3	2
0.0734	269.5	2
0.079	270.4	2
0.1013	269.9	2
0.1361	266.6	2

System: zinc(II) methanesulfonate + water; phases: Liquid, Crystal of intercomponent compound 1
Property: Solid-liquid equilibrium temperature, K (Liquid); method: DTA
Mass fraction of zinc(II) methanesulfonate	Pressure, kPa	Solid-liquid equilibrium temperature, K	uncertainty
0.4084	101	288.8	2

System: zinc(II) methanesulfonate + water; phases: Liquid, Crystal of intercomponent compound 2
Fixed: Pressure, kPa = 101
Property: Solid-liquid equilibrium temperature, K (Liquid); method: DTA
Mass fraction of zinc(II) methanesulfonate	Solid-liquid equilibrium temperature, K	uncertainty
0.564	337.7	2.1
0.6168	353.2	2.1

System: zinc(II) methanesulfonate + water; phases: Liquid
Fixed: Pressure, kPa = 100
Property: Mass density, kg/m3 (Liquid); method: Vibrating tube method
Temperature, K	Mass fraction of zinc(II) methanesulfonate	Mass density, kg/m3	uncertainty
298.15	0.0512	1033.5	4.1
298.15	0.1051	1074.5	4.3
298.15	0.1531	1113.2	4.5
298.15	0.2537	1202.4	4.9
298.15	0.3045	1250.5	5.1
298.15	0.375	1327.1	5.6
323.15	0.0512	1024	4.1
323.15	0.1051	1064.1	4.3
323.15	0.1531	1103	4.4
323.15	0.2537	1191.1	4.9
323.15	0.375	1314.6	5.5

System: copper(II) methanesulfonate + water; phases: Liquid, Crystal, Crystal of intercomponent compound 2, Air at 1 atmosphere
Property: Eutectic temperature, K (Liquid); method: DTA
Eutectic temperature, K	uncertainty
252.05	0.53

System: copper(II) methanesulfonate + water; phases: Liquid, Crystal of intercomponent compound 1, Crystal of intercomponent compound 2, Air at 1 atmosphere
Property: Peritectic temperature, K (Liquid); method: DTA
Peritectic temperature, K	uncertainty
254.9	0.5

System: copper(II) methanesulfonate + water; phases: Liquid, Crystal of intercomponent compound 1
Fixed: Pressure, kPa = 101
Property: Mass fraction of copper(II) methanesulfonate (Liquid); method: Titration method
Temperature, K	Mass fraction of copper(II) methanesulfonate	uncertainty
343.15	0.4757	0.0096
333.15	0.4575	0.0092
333.15	0.461	0.009
323.15	0.449	0.009
313.15	0.4198	0.0085
308.15	0.4008	0.0081
298.15	0.3905	0.0079
288.15	0.3788	0.0076
281.15	0.3663	0.0074
273.15	0.3668	0.0074
262.35	0.3514	0.0072

System: copper(II) methanesulfonate + water; phases: Liquid, Crystal
Fixed: Pressure, kPa = 101
Property: Solid-liquid equilibrium temperature, K (Liquid); method: DTA
Mass fraction of copper(II) methanesulfonate	Solid-liquid equilibrium temperature, K	uncertainty
0.035	272.3	2
0.0932	271.1	2
0.1525	269.3	2
0.193	266.9	2
0.245	262.3	2
0.2713	260.4	2

System: copper(II) methanesulfonate + water; phases: Liquid
Fixed: Pressure, kPa = 100
Property: Mass density, kg/m3 (Liquid); method: Vibrating tube method
Temperature, K	Mass fraction of copper(II) methanesulfonate	Mass density, kg/m3	uncertainty
298.15	0.1292	1089.8	4.4
298.15	0.1752	1130.2	4.6
298.15	0.2185	1164.4	4.7
298.15	0.2648	1212.1	4.9
298.15	0.307	1248.8	5.1
298.15	0.3505	1289.2	5.3
308.15	0.0449	1022.8	4.1
308.15	0.0938	1055.2	4.2
308.15	0.1453	1098.2	4.4
308.15	0.1975	1137	4.6
308.15	0.2368	1177.7	4.8
308.15	0.2978	1227.8	5
