Measured thermophysical data. Enthalpies and heat capacities of solution of methylpheophorbide, dioxidine and their conjugate in DMF at 298-318 K
Source: Thermochim. Acta, 2018, 10.1016/j.tca.2018.09.022
Compound 1: 3-Phorbinepropanoic acid, 9-ethenyl-14-ethyl-21-(methoxycarbonyl)-4,8,13,18-tetramethyl-20-oxo-, methyl ester, (3S,4S,21R)-, C36H38N4O5, InChI=1S/C36H38N4O5/c1-9-20-16(3)23-13-25-18(5)22(11-12-29(41)44-7)33(39-25)31-32(36(43)45-8)35(42)30-19(6)26(40-34(30)31)15-28-21(10-2)17(4)24(38-28)14-27(20)37-23/h9,13-15,18,22,32,37,40H,1,10-12H2,2-8H3/b23-13-,24-14-,25-13-,26-15-,27-14-,28-15-,33-31-/t18-,22-,32+/m0/s1, purity 98%
Compound 2: Dioxidine, C10H10N2O4, InChI=1S/C10H10N2O4/c13-5-9-10(6-14)12(16)8-4-2-1-3-7(8)11(9)15/h1-4,13-14H,5-6H2, purity 99%
Compound 3: (3S,4S)-9-ethenyl-14-ethyl-3-(2-((3-hydroxymethyl-1,4-dioxido-quinoxalin-2-yl)methylcarboxy)ethyl)-4,8,13,18-tetramethyl-20-oxo-phorbine, C43H42N6O6, InChI=1S/C43H42N6O6/c1-7-25-21(3)29-16-31-23(5)27(13-14-40(52)55-20-38-37(19-50)48(53)35-11-9-10-12-36(35)49(38)54)42(46-31)28-15-39(51)41-24(6)32(47-43(28)41)18-34-26(8-2)22(4)30(45-34)17-33(25)44-29/h7,9-12,16-18,23,27,44,47,50H,1,8,13-15,19-20H2,2-6H3/b29-16-,30-17-,31-16-,32-18-,33-17-,34-18-,42-28-/t23-,27-/m0/s1
Compound 4: dimethylformamide, C3H7NO, InChI=1S/C3H7NO/c1-4(2)3-5/h3H,1-2H3, purity 99%
Compound 5: water, H2O, InChI=1S/H2O/h1H2
Compound 6: propan-1-ol, C3H8O, InChI=1S/C3H8O/c1-2-3-4/h4H,2-3H2,1H3, purity 99.5%

System: 3-Phorbinepropanoic acid, 9-ethenyl-14-ethyl-21-(methoxycarbonyl)-4,8,13,18-tetramethyl-20-oxo-, methyl ester, (3S,4S,21R)- + dimethylformamide; phases: Liquid
Fixed: Pressure, kPa = 101.33
Fixed: Mole fraction of 3-Phorbinepropanoic acid, 9-ethenyl-14-ethyl-21-(methoxycarbonyl)-4,8,13,18-tetramethyl-20-oxo-, methyl ester, (3S,4S,21R)- = 0
Property: Molar enthalpy of solution, kJ/mol (Liquid); method: ISOPERIBOL
Temperature, K	Molar enthalpy of solution, kJ/mol	uncertainty
298.15	18.34	0.17
308.15	21.67	0.26
318.15	25.43	0.31

System: Dioxidine + dimethylformamide; phases: Liquid
Fixed: Pressure, kPa = 101.33
Fixed: Mole fraction of Dioxidine = 0
Property: Molar enthalpy of solution, kJ/mol (Liquid); method: ISOPERIBOL
Temperature, K	Molar enthalpy of solution, kJ/mol	uncertainty
298.15	18.11	0.16
308.15	19.01	0.16
318.15	19.98	0.21

System: (3S,4S)-9-ethenyl-14-ethyl-3-(2-((3-hydroxymethyl-1,4-dioxido-quinoxalin-2-yl)methylcarboxy)ethyl)-4,8,13,18-tetramethyl-20-oxo-phorbine + dimethylformamide; phases: Liquid
Fixed: Pressure, kPa = 101.33
Fixed: Mole fraction of (3S,4S)-9-ethenyl-14-ethyl-3-(2-((3-hydroxymethyl-1,4-dioxido-quinoxalin-2-yl)methylcarboxy)ethyl)-4,8,13,18-tetramethyl-20-oxo-phorbine = 0
Property: Molar enthalpy of solution, kJ/mol (Liquid); method: ISOPERIBOL
Temperature, K	Molar enthalpy of solution, kJ/mol	uncertainty
298.15	-9.41	0.14
308.15	-6.16	0.2
318.15	-3.07	0.19

System: dimethylformamide + water; phases: Liquid
Property: Molar enthalpy of solution, kJ/mol (Liquid); method: ISOPERIBOL
Mole fraction of dimethylformamide	Pressure, kPa	Temperature, K	Molar enthalpy of solution, kJ/mol	uncertainty
0	101.33	298	-15.25	0.13

System: propan-1-ol + water; phases: Liquid
Property: Molar enthalpy of solution, kJ/mol (Liquid); method: ISOPERIBOL
Mole fraction of propan-1-ol	Pressure, kPa	Temperature, K	Molar enthalpy of solution, kJ/mol	uncertainty
0	101.33	298	-10.2	0.1
