Measured thermophysical data. Measurement of solubility of mitomycin C in ethanol-water solutions at different temperatures
Source: Thermochim. Acta, 2012, 10.1016/j.tca.2012.07.014
Compound 1: ametycine, C15H18N4O5, InChI=1S/C15H18N4O5/c1-5-9(16)12(21)8-6(4-24-14(17)22)15(23-2)13-7(18-13)3-19(15)10(8)11(5)20/h6-7,13,18H,3-4,16H2,1-2H3,(H2,17,22)/t6-,7+,13+,15-/m1/s1, purity 97.8%
Compound 2: ethanol, C2H6O, InChI=1S/C2H6O/c1-2-3/h3H,2H2,1H3, purity 99%
Compound 3: water, H2O, InChI=1S/H2O/h1H2, purity 99.8%

System: ametycine; phases: Crystal, Liquid, Air at 1 atmosphere
Property: Normal melting temperature, K (Crystal); method: VISOBS
Normal melting temperature, K	uncertainty
633.15	1

System: ametycine + water; phases: Liquid, Crystal
Fixed: Pressure, kPa = 101
Property: Molality, mol/kg (Liquid); method: HPLC
Temperature, K	Molality, mol/kg	uncertainty
273.1	9.7e-06	1e-07
283.1	1.27e-05	1e-07
293.15	1.41e-05	1e-07
303.15	2.07e-05	1e-07
313.15	2.84e-05	1e-07
323.15	3.21e-05	1e-07

System: ametycine + ethanol; phases: Liquid, Crystal
Fixed: Pressure, kPa = 101
Property: Molality, mol/kg (Liquid); method: HPLC
Temperature, K	Molality, mol/kg	uncertainty
273.1	0.00514	4e-05
283.1	0.00867	5e-05
293.15	0.01418	8e-05
303.15	0.0232	0.0001
313.15	0.03011	0.00011
323.15	0.03927	0.00013

System: ametycine + ethanol + water; phases: Liquid, Crystal
Fixed: Pressure, kPa = 101
Property: Molality, mol/kg of ametycine (Liquid); method: HPLC
Temperature, K	Solvent: Mole fraction of ethanol	Molality, mol/kg of ametycine	uncertainty
273.1	0	9.7e-06	1e-07
273.1	0.1	0.000129	2e-06
273.1	0.2	0.00037	1e-05
273.1	0.3	0.00297	4e-05
273.1	0.4	0.00924	6e-05
273.1	0.5	0.01514	0.00011
273.1	0.6	0.03417	0.00018
273.1	0.7	0.04598	0.00024
273.1	0.8	0.02217	0.00016
273.1	0.9	0.01104	8e-05
273.1	1	0.00514	4e-05
283.1	0	1.27e-05	1e-07
283.1	0.1	0.000172	3e-06
283.1	0.2	0.00082	2e-05
283.1	0.3	0.00594	5e-05
283.1	0.4	0.01117	7e-05
283.1	0.5	0.02119	0.00015
283.1	0.6	0.04263	0.00018
283.1	0.7	0.05522	0.00016
283.1	0.8	0.03067	0.00019
283.1	0.9	0.01572	0.0001
283.1	1	0.00867	5e-05
293.15	0	1.41e-05	1e-07
293.15	0.1	0.000211	7e-06
293.15	0.2	0.00178	3e-05
293.15	0.3	0.00766	6e-05
293.15	0.4	0.01562	0.00011
293.15	0.5	0.03028	0.00017
293.15	0.6	0.04822	0.00019
293.15	0.7	0.06322	0.00018
293.15	0.8	0.03729	0.00021
293.15	0.9	0.01855	0.00013
293.15	1	0.01418	8e-05
303.15	0	2.07e-05	1e-07
303.15	0.1	0.000287	1e-05
303.15	0.2	0.00258	4e-05
303.15	0.3	0.01067	8e-05
303.15	0.4	0.02155	0.00014
303.15	0.5	0.03732	0.00018
303.15	0.6	0.05791	0.00022
303.15	0.7	0.0758	0.00021
303.15	0.8	0.04471	0.00022
303.15	0.9	0.03107	0.00015
303.15	1	0.0232	0.0001
313.15	0	2.84e-05	1e-07
313.15	0.1	0.000374	1.9e-05
313.15	0.2	0.00469	5e-05
313.15	0.3	0.01311	0.00011
313.15	0.4	0.02905	0.00016
313.15	0.5	0.04189	0.00019
313.15	0.6	0.06524	0.00024
313.15	0.7	0.08328	0.00023
313.15	0.8	0.05228	0.00023
313.15	0.9	0.0394	0.00014
313.15	1	0.03011	0.00011
323.15	0	3.21e-05	1e-07
323.15	0.1	0.000452	2.8e-05
323.15	0.2	0.00574	8e-05
323.15	0.3	0.01724	0.00016
323.15	0.4	0.0384	0.00018
323.15	0.5	0.05257	0.00023
323.15	0.6	0.07388	0.00026
323.15	0.7	0.09725	0.00024
323.15	0.8	0.06108	0.0003
323.15	0.9	0.04277	0.00016
323.15	1	0.03927	0.00013
