Measured thermophysical data. Thermodynamic investigation of the moderately dilute liquid Bi Fe Sb alloys
Source: Thermochim. Acta, 2006, 10.1016/j.tca.2006.02.029
Compound 1: iron, Fe, InChI=1S/Fe, purity 99.9%
Compound 2: bismuth, Bi, InChI=1S/Bi, purity 99.9%
Compound 3: antimony, Sb, InChI=1S/Sb, purity 99.9%

System: iron + antimony; phases: Liquid
Fixed: Pressure, kPa = 101
Fixed: Temperature, K = 1065
Property: Excess molar enthalpy (molar enthalpy of mixing), kJ/mol (Liquid); method: Drop calorimetry
Mole fraction of iron	Excess molar enthalpy (molar enthalpy of mixing), kJ/mol	uncertainty
0.0023	0.0489	0.00149
0.0025	0.03903	0.00139
0.0049	0.07384	0.00174
0.0055	0.0974	0.00197
0.0075	0.1169	0.00217
0.008	0.13249	0.00232
0.0102	0.15008	0.0025
0.0114	0.17882	0.00279
0.0129	0.19051	0.00291
0.0135	0.1986	0.00299
0.0144	0.2239	0.00324
0.0148	0.20028	0.003
0.0157	0.22514	0.00325
0.0187	0.2821	0.00382
0.0188	0.26092	0.00361
0.0232	0.33046	0.0043
0.0271	0.38321	0.00483
0.029	0.37142	0.00471
0.0292	0.38215	0.00482
0.0316	0.43912	0.00539
0.0359	0.49196	0.00592
0.0407	0.54804	0.00648
0.0442	0.54606	0.00646
0.0445	0.53562	0.00636
0.0455	0.60659	0.00707
0.0591	0.69175	0.00792
0.0609	0.70488	0.00805
0.0762	0.84155	0.00942
0.0765	0.85231	0.00952
0.0942	0.96012	0.0106
0.096	1.01706	0.01117
0.1139	1.08193	0.01182
0.1167	1.18469	0.01285
0.1336	1.31129	0.01411
0.1353	1.25049	0.0135

System: iron + antimony + bismuth; phases: Liquid
Fixed: Pressure, kPa = 101
Fixed: Temperature, K = 1065
Property: Excess molar enthalpy (molar enthalpy of mixing), kJ/mol (Liquid); method: Drop calorimetry
Mole fraction of iron	Mole fraction of bismuth	Excess molar enthalpy (molar enthalpy of mixing), kJ/mol	uncertainty
0	0.1	0.21724	0.00317
0.0118	0.19764	0.5736	0.00674
0.013	0.1974	0.62369	0.00724
0.0189	0.19622	0.71018	0.0081
0.0193	0.09807	0.51572	0.00616
0.0208	0.09792	0.55389	0.00654
0.0231	0.09769	0.5517	0.00652
0.0245	0.1951	0.75878	0.00859
0.0263	0.19474	0.83852	0.00939
0.0304	0.09696	0.61397	0.00714
0.0353	0.19294	0.90051	0.01001
0.0357	0.19286	0.94518	0.01045
0.0387	0.19226	1.0029	0.01103
0.0394	0.09606	0.79609	0.00896
0.0437	0.19126	0.99391	0.01094
0.0445	0.09555	0.85512	0.00955
0.0478	0.09522	0.91393	0.01014
0.0487	0.19026	1.11544	0.01215
0.05	0.19	1.12331	0.01223
0.0539	0.18922	1.19013	0.0129
0.054	0.1892	1.15446	0.01254
0.0548	0.09452	0.90462	0.01005
0.0572	0.09428	1.00922	0.01109
0.0603	0.18794	1.29224	0.01392
0.0627	0.18746	1.30384	0.01404
0.0637	0.18726	1.26751	0.01368
0.0662	0.18676	1.28484	0.01385
0.0694	0.09306	1.13465	0.01235
0.0725	0.09275	1.20344	0.01303
0.0808	0.09192	1.17876	0.01279
0.088	0.0912	1.31554	0.01416
0.0925	0.09075	1.35387	0.01454
0.0955	0.09045	1.3881	0.01488
0.1068	0.08932	1.45559	0.01556
0.1106	0.08894	1.36348	0.01463
