Measured thermophysical data. Volumetric studies and thermodynamics of viscous flow of hydroxamic acids in acetone +water solvent at temperatures 303.15 and 313.15K
Source: Thermochim. Acta, 2006, 10.1016/j.tca.2006.01.019
Compound 1: N-Phenyl-2-chlorobenzohydroxamic acid, C13H10ClNO2, InChI=1S/C13H10ClNO2/c14-12-9-5-4-8-11(12)13(16)15(17)10-6-2-1-3-7-10/h1-9,17H
Compound 2: N-o-Tolyl-4-chlorobenzohydroxamic acid, C14H12ClNO2, InChI=1S/C14H12ClNO2/c1-10-4-2-3-5-13(10)16(18)14(17)11-6-8-12(15)9-7-11/h2-9,18H,1H3
Compound 3: acetone, C3H6O, InChI=1S/C3H6O/c1-3(2)4/h1-2H3, purity 99%
Compound 4: water, H2O, InChI=1S/H2O/h1H2, purity 99.99%

System: acetone + water + N-Phenyl-2-chlorobenzohydroxamic acid; phases: Liquid
Fixed: Pressure, kPa = 101
Fixed: Solvent: Volume fraction of acetone = 0.4
Property: Viscosity, Pa*s (Liquid); method: Capillary tube (Ostwald; Ubbelohde) method
Temperature, K	Amount concentration (molarity), mol/dm3 of N-Phenyl-2-chlorobenzohydroxamic acid	Viscosity, Pa*s	uncertainty
303.15	0	0.0010602	7.4e-06
303.15	0.01	0.0010636	7.4e-06
303.15	0.02	0.0010759	7.5e-06
303.15	0.03	0.0010883	7.6e-06
303.15	0.035	0.0010928	7.6e-06
303.15	0.04	0.0011069	7.7e-06
303.15	0.05	0.0011226	7.8e-06
313.15	0	0.0008967	6.4e-06
313.15	0.01	0.0009094	6.5e-06
313.15	0.02	0.0009163	6.5e-06
313.15	0.03	0.0009253	6.6e-06
313.15	0.035	0.0009315	6.6e-06
313.15	0.04	0.0009387	6.6e-06
313.15	0.05	0.0009504	6.7e-06

System: acetone + water + N-Phenyl-2-chlorobenzohydroxamic acid; phases: Liquid
Fixed: Pressure, kPa = 101
Fixed: Solvent: Volume fraction of acetone = 0.4
Property: Mass density, kg/m3 (Liquid); method: Pycnometric method
Temperature, K	Amount concentration (molarity), mol/dm3 of N-Phenyl-2-chlorobenzohydroxamic acid	Mass density, kg/m3	uncertainty
303.15	0	940.6	0.4
303.15	0.01	941.6	0.4
303.15	0.02	943.3	0.4
303.15	0.03	944.6	0.4
303.15	0.035	945.2	0.4
303.15	0.04	945.8	0.4
303.15	0.05	947.1	0.4
313.15	0	938.4	0.4
313.15	0.01	939.3	0.4
313.15	0.02	940.8	0.4
313.15	0.03	942.1	0.4
313.15	0.035	942.7	0.4
313.15	0.04	943.3	0.4
313.15	0.05	944.6	0.4

System: acetone + water + N-o-Tolyl-4-chlorobenzohydroxamic acid; phases: Liquid
Fixed: Pressure, kPa = 101
Fixed: Solvent: Volume fraction of acetone = 0.4
Property: Viscosity, Pa*s (Liquid); method: Capillary tube (Ostwald; Ubbelohde) method
Temperature, K	Amount concentration (molarity), mol/dm3 of N-o-Tolyl-4-chlorobenzohydroxamic acid	Viscosity, Pa*s	uncertainty
303.15	0	0.0010602	7.4e-06
303.15	0.01	0.001069	7.5e-06
303.15	0.02	0.0010789	7.5e-06
303.15	0.03	0.0010897	7.6e-06
303.15	0.035	0.0010972	7.6e-06
303.15	0.04	0.0011058	7.7e-06
303.15	0.05	0.0011201	7.8e-06
313.15	0	0.0008967	6.4e-06
313.15	0.01	0.0009055	6.4e-06
313.15	0.02	0.000907	6.4e-06
313.15	0.03	0.000907	6.4e-06
313.15	0.035	0.0009136	6.5e-06
313.15	0.04	0.0009159	6.5e-06
313.15	0.05	0.0009256	6.6e-06

System: acetone + water + N-o-Tolyl-4-chlorobenzohydroxamic acid; phases: Liquid
Fixed: Pressure, kPa = 101
Fixed: Solvent: Volume fraction of acetone = 0.4
Property: Mass density, kg/m3 (Liquid); method: Pycnometric method
Temperature, K	Amount concentration (molarity), mol/dm3 of N-o-Tolyl-4-chlorobenzohydroxamic acid	Mass density, kg/m3	uncertainty
303.15	0	940.6	0.4
303.15	0.01	941.4	0.4
303.15	0.02	943	0.4
303.15	0.03	944.3	0.4
303.15	0.035	944.9	0.4
303.15	0.04	945.6	0.4
303.15	0.05	946.8	0.4
313.15	0	938.4	0.4
313.15	0.01	939	0.4
313.15	0.02	940.7	0.4
313.15	0.03	941.9	0.4
313.15	0.035	942.6	0.4
313.15	0.04	943.1	0.4
313.15	0.05	944.2	0.4
