Measured thermophysical data. Tie-line data for water- formic acid-1-decanol ternary system at T = (298.2, 303.2, 313.2, 323.2)  K
Source: Thermochim. Acta, 2012, 10.1016/j.tca.2012.08.001
Compound 1: decan-1-ol, C10H22O, InChI=1S/C10H22O/c1-2-3-4-5-6-7-8-9-10-11/h11H,2-10H2,1H3, purity 99%
Compound 2: water, H2O, InChI=1S/H2O/h1H2, purity 99.9%
Compound 3: formic acid, CH2O2, InChI=1S/CH2O2/c2-1-3/h1H,(H,2,3), purity 99%

System: decan-1-ol; phases: Liquid
Property: Refractive index (Na D-line) (Liquid); method: Standard Abbe refractometry
Temperature, K	Pressure, kPa	Refractive index (Na D-line)	uncertainty
298.2	101.325	1.4344	0.2

System: decan-1-ol; phases: Liquid
Property: Mass density, kg/m3 (Liquid); method: Vibrating tube method
Temperature, K	Pressure, kPa	Mass density, kg/m3	uncertainty
298.2	101.325	826.8	0.36

System: water; phases: Liquid
Property: Refractive index (Na D-line) (Liquid); method: Standard Abbe refractometry
Temperature, K	Pressure, kPa	Refractive index (Na D-line)	uncertainty
298.2	101.325	1.3324	0.2

System: water; phases: Liquid
Property: Mass density, kg/m3 (Liquid); method: Vibrating tube method
Temperature, K	Pressure, kPa	Mass density, kg/m3	uncertainty
298.2	101.325	997.07	0.24

System: formic acid; phases: Liquid
Property: Refractive index (Na D-line) (Liquid); method: Standard Abbe refractometry
Temperature, K	Pressure, kPa	Refractive index (Na D-line)	uncertainty
298.2	101.325	1.3713	0.2

System: formic acid; phases: Liquid
Property: Mass density, kg/m3 (Liquid); method: Vibrating tube method
Temperature, K	Pressure, kPa	Mass density, kg/m3	uncertainty
298.2	101.325	1219.32	0.61

System: decan-1-ol + water; phases: Liquid mixture 1, Liquid mixture 2
Fixed: Pressure, kPa = 101
Property: Mass fraction of water (Liquid mixture 1); method: Titration method
Temperature, K	Mass fraction of water	uncertainty
298.2	0.02	0.02
303.2	0.02	0.004
313.2	0.022	0.002
323.2	0.022	0.02

System: formic acid + decan-1-ol; phases: Liquid mixture 1, Liquid mixture 2
Fixed: Pressure, kPa = 101
Property: Mass fraction of formic acid (Liquid mixture 1); method: Titration method
Temperature, K	Mass fraction of formic acid	uncertainty
298.2	0.05	
298.2	0.796	
303.2	0.052	
303.2	0.784	
313.2	0.059	
313.2	0.769	
323.2	0.064	
323.2	0.762	

System: formic acid + decan-1-ol + water; phases: Liquid mixture 1, Liquid mixture 2
Fixed: Pressure, kPa = 101
Property: Mass fraction of water (Liquid mixture 1); method: Titration method
Temperature, K	Mass fraction of formic acid	Mass fraction of water	uncertainty
298.2	0	1	
298.2	0.024	0.022	0.022
298.2	0.05	0	
298.2	0.117	0.883	0.018
298.2	0.206	0.794	0.007
298.2	0.295	0.705	0.009
298.2	0.421	0.579	0.013
298.2	0.505	0.494	0.015
298.2	0.605	0.392	0.012
298.2	0.697	0.299	0.01
298.2	0.745	0.248	0.008
298.2	0.785	0.196	0.01
298.2	0.796	0	
298.2	0.818	0.144	0.014
298.2	0.82	0.07	0.007
298.2	0	0.02	0.02
303.2	0	1	
303.2	0.026	0.023	0.023
303.2	0.052	0	
303.2	0.117	0.883	0.01
303.2	0.206	0.794	0.007
303.2	0.295	0.705	0.009
303.2	0.421	0.579	0.013
303.2	0.504	0.494	0.015
303.2	0.605	0.392	0.012
303.2	0.697	0.299	0.01
303.2	0.744	0.248	0.008
303.2	0.784	0.196	0.007
303.2	0.817	0.144	0.047
303.2	0.82	0.074	0.044
303.2	0	0.02	0.004
303.2	0.784	0	
313.2	0	1	
313.2	0.039	0.023	0.023
313.2	0.059	0	
313.2	0.101	0.899	0.009
313.2	0.206	0.794	0.007
313.2	0.295	0.705	0.009
313.2	0.421	0.579	0.013
313.2	0.504	0.494	0.015
313.2	0.605	0.392	0.012
313.2	0.697	0.299	0.01
313.2	0.743	0.248	0.01
313.2	0.769	0	
313.2	0.782	0.197	0.007
313.2	0.815	0.144	0.019
313.2	0.821	0.077	0.025
313.2	0	0.022	0.002
323.2	0	1	
323.2	0.04	0.024	0.024
323.2	0.064	0	
323.2	0.117	0.883	0.015
323.2	0.2	0.8	0.007
323.2	0.295	0.705	0.009
323.2	0.421	0.578	0.013
323.2	0.504	0.493	0.015
323.2	0.604	0.392	0.012
323.2	0.696	0.298	0.009
323.2	0.742	0.247	0.011
323.2	0.762	0	
323.2	0.779	0.196	0.008
323.2	0.81	0.143	0.007
323.2	0.82	0.079	0.013
323.2	0	0.022	0.02

System: formic acid + decan-1-ol + water; phases: Liquid mixture 1, Liquid mixture 2
Fixed: Pressure, kPa = 101
Property: Mass fraction of water (Liquid mixture 1); method: Titration method
Property: Mass fraction of water (Liquid mixture 2); method: Titration method
Property: Mass fraction of formic acid (Liquid mixture 2); method: Titration method
Temperature, K	Mass fraction of formic acid	Mass fraction of water	uncertainty	Mass fraction of water	uncertainty	Mass fraction of formic acid	uncertainty
298.2	0.191	0.804	0.006	0.021	0.002	0.016	
298.2	0.318	0.679	0.01	0.021	0.002	0.019	
298.2	0.418	0.58	0.013	0.022	0.002	0.022	
298.2	0.497	0.501	0.016	0.023	0.002	0.025	
298.2	0.554	0.444	0.014	0.023	0.002	0.026	
298.2	0.598	0.401	0.013	0.023	0.002	0.028	
308.2	0.186	0.81	0.006	0.02	0.002	0.017	
308.2	0.317	0.68	0.01	0.021	0.002	0.021	
308.2	0.425	0.573	0.013	0.022	0.002	0.023	
308.2	0.495	0.503	0.016	0.023	0.002	0.026	
308.2	0.551	0.447	0.014	0.023	0.002	0.028	
308.2	0.6	0.399	0.013	0.024	0.002	0.03	
318.2	0.183	0.813	0.006	0.021	0.002	0.023	
318.2	0.314	0.683	0.01	0.021	0.002	0.029	
318.2	0.418	0.58	0.013	0.022	0.002	0.034	
318.2	0.492	0.506	0.015	0.023	0.002	0.038	
318.2	0.552	0.447	0.014	0.023	0.002	0.041	
318.2	0.596	0.403	0.013	0.024	0.002	0.044	
328.2	0.178	0.817	0.006	0.021	0.002	0.023	
328.2	0.315	0.681	0.01	0.022	0.002	0.029	
328.2	0.434	0.564	0.014	0.022	0.002	0.036	
328.2	0.494	0.505	0.015	0.024	0.002	0.041	
328.2	0.549	0.449	0.014	0.025	0.002	0.045	
328.2	0.593	0.406	0.013	0.026	0.002	0.048	
