Measured thermophysical data. Thermochemistry of Zn(AA)SO4*H2O(s) (AA = l-?-valine and methionine)
Source: Thermochim. Acta, 2005, 10.1016/j.tca.2005.04.031
Compound 1: water, H2O, InChI=1S/H2O/h1H2
Compound 2: zinc sulphate L-valine hydrate, C5H13NO7SZn, InChI=1S/C5H11NO2.H2O4S.H2O.Zn/c1-3(2)4(6)5(7)8;1-5(2,3)4;;/h3-4H,6H2,1-2H3,(H,7,8);(H2,1,2,3,4);1H2;/q;;;+2/p-2/t4-;;;/m0.../s1
Compound 3: zinc sulphate L-methionine hydrate, C5H13NO7S2Zn, InChI=1S/C5H11NO2S.H2O4S.H2O.Zn/c1-9-3-2-4(6)5(7)8;1-5(2,3)4;;/h4H,2-3,6H2,1H3,(H,7,8);(H2,1,2,3,4);1H2;/q;;;+2/p-2/t4-;;;/m0.../s1
Compound 4: zinc sulphate heptahydrate, H14O11SZn, InChI=1S/H2O4S.7H2O.Zn/c1-5(2,3)4;;;;;;;;/h(H2,1,2,3,4);7*1H2;/q;;;;;;;;+2/p-2, purity 99%
Compound 5: L-valine, C5H11NO2, InChI=1S/C5H11NO2/c1-3(2)4(6)5(7)8/h3-4H,6H2,1-2H3,(H,7,8)/t4-/m0/s1, purity 99%
Compound 6: L-methionine, C5H11NO2S, InChI=1S/C5H11NO2S/c1-9-3-2-4(6)5(7)8/h4H,2-3,6H2,1H3,(H,7,8)/t4-/m0/s1, purity 99%

Reaction: -1 L-valine + 1 zinc sulphate L-valine hydrate + -1 zinc sulphate heptahydrate + 6 water
Property: Molar enthalpy of reaction, kJ/mol
140.71

Reaction: -1 L-methionine + 1 zinc sulphate L-methionine hydrate + -1 zinc sulphate heptahydrate + 6 water
Property: Molar enthalpy of reaction, kJ/mol
-129.03
