Measured thermophysical data. Isothermal vapor-liquid equilibrium of binary and ternary systems of anisole, hexane, and toluene and ternary system of methyl tert-butyl ether, hexane, and toluene
Source: Thermochim. Acta, 2019, 10.1016/j.tca.2019.178413
Compound 1: anisole, C7H8O, InChI=1S/C7H8O/c1-8-7-5-3-2-4-6-7/h2-6H,1H3, purity 99%
Compound 2: hexane, C6H14, InChI=1S/C6H14/c1-3-5-6-4-2/h3-6H2,1-2H3, purity 98.5%
Compound 3: toluene, C7H8, InChI=1S/C7H8/c1-7-5-3-2-4-6-7/h2-6H,1H3, purity 99.8%
Compound 4: 2-methoxy-2-methylpropane, C5H12O, InChI=1S/C5H12O/c1-5(2,3)6-4/h1-4H3, purity 99%

System: anisole; phases: Liquid, Gas
Property: Vapor or sublimation pressure, kPa (Liquid); method: Ebulliometric method (Recirculating still)
Temperature, K	Vapor or sublimation pressure, kPa	uncertainty
313.2	1.4	1.2

System: hexane; phases: Liquid, Gas
Property: Vapor or sublimation pressure, kPa (Liquid); method: Ebulliometric method (Recirculating still)
Temperature, K	Vapor or sublimation pressure, kPa	uncertainty
313.2	37.9	1.3

System: toluene; phases: Liquid, Gas
Property: Vapor or sublimation pressure, kPa (Liquid); method: Ebulliometric method (Recirculating still)
Temperature, K	Vapor or sublimation pressure, kPa	uncertainty
313.2	8.1	1.2

System: 2-methoxy-2-methylpropane; phases: Liquid, Gas
Property: Vapor or sublimation pressure, kPa (Liquid); method: Ebulliometric method (Recirculating still)
Temperature, K	Vapor or sublimation pressure, kPa	uncertainty
313.2	62.4	1.4

System: hexane + anisole; phases: Liquid, Gas
Fixed: Temperature, K = 313.2
Property: Vapor or sublimation pressure, kPa (Liquid); method: Ebulliometric method (Recirculating still)
Mole fraction of hexane	Vapor or sublimation pressure, kPa	uncertainty
0.063	4.4	1.2
0.138	8.2	1.2
0.195	10.9	1.2
0.238	13.1	1.2
0.284	15.3	1.2
0.328	17.3	1.2
0.388	20.1	1.3
0.45	22.6	1.3
0.546	26.8	1.3
0.622	29.9	1.3
0.681	31.4	1.3
0.729	34.4	1.3
0.812	35.5	1.3
0.849	35.9	1.3
0.901	37.2	1.3
0.935	37.6	1.3
1	37.9	1.3
0	1.4	1.2

System: hexane + anisole; phases: Gas, Liquid
Fixed: Temperature, K = 313.2
Property: Mole fraction of hexane (Gas); method: Chromatography
Mole fraction of hexane	Mole fraction of hexane	uncertainty
0.063	0.74	0.013
0.138	0.867	0.01
0.195	0.905	0.007
0.238	0.923	0.007
0.284	0.936	0.006
0.328	0.945	0.006
0.388	0.955	0.006
0.45	0.968	0.006
0.546	0.973	0.006
0.622	0.979	0.006
0.681	0.983	0.006
0.729	0.988	0.006
0.812	0.991	0.006
0.849	0.992	0.006
0.901	0.995	0.005
0.935	0.997	0.003

System: toluene + anisole; phases: Liquid, Gas
Fixed: Temperature, K = 313.2
Property: Vapor or sublimation pressure, kPa (Liquid); method: Ebulliometric method (Recirculating still)
Mole fraction of toluene	Vapor or sublimation pressure, kPa	uncertainty
0.155	3	1.2
0.201	3.5	1.2
0.25	3.9	1.2
0.303	4.3	1.2
0.372	4.8	1.2
0.408	5.1	1.2
0.474	5.6	1.2
0.526	5.8	1.2
0.615	6.4	1.2
0.704	7	1.2
0.763	7.2	1.2
0.813	7.5	1.2
0.854	7.7	1.2
0.873	7.6	1.2
0.922	7.7	1.2
0.974	8	1.2
1	8.1	1.2
0	1.4	1.2

System: toluene + anisole; phases: Gas, Liquid
Fixed: Temperature, K = 313.2
Property: Mole fraction of toluene (Gas); method: Chromatography
Mole fraction of toluene	Mole fraction of toluene	uncertainty
0.155	0.647	0.011
0.201	0.708	0.01
0.25	0.757	0.008
0.303	0.792	0.007
0.372	0.83	0.007
0.408	0.843	0.007
0.474	0.867	0.006
0.526	0.883	0.006
0.615	0.911	0.006
0.704	0.933	0.006
0.763	0.94	0.006
0.813	0.95	0.006
0.854	0.959	0.006
0.873	0.962	0.006
0.922	0.976	0.006
0.974	0.992	0.006

System: hexane + toluene; phases: Liquid, Gas
Fixed: Temperature, K = 313.2
Property: Vapor or sublimation pressure, kPa (Liquid); method: Ebulliometric method (Recirculating still)
Mole fraction of hexane	Vapor or sublimation pressure, kPa	uncertainty
0.009	8.3	1.2
0.023	9.2	1.3
0.106	13.6	1.2
0.118	14.1	1.2
0.207	18.1	1.2
0.305	22.2	1.3
0.417	26.8	1.3
0.505	29.3	1.3
0.592	32.1	1.3
0.653	33	1.3
0.717	34.4	1.3
0.77	35.9	1.3
0.816	36.7	1.3
0.853	37.1	1.3
0.887	37.9	1.3
0.902	37.5	1.3
0.934	37.6	1.3
0.974	38	1.3
0	8.1	1.2
1	37.9	1.3

System: hexane + toluene; phases: Gas, Liquid
Fixed: Temperature, K = 313.2
Property: Mole fraction of hexane (Gas); method: Chromatography
Mole fraction of hexane	Mole fraction of hexane	uncertainty
0.009	0.058	0.037
0.023	0.142	0.037
0.106	0.428	0.012
0.118	0.447	0.012
0.207	0.6	0.011
0.305	0.705	0.009
0.417	0.791	0.008
0.505	0.837	0.007
0.592	0.87	0.007
0.653	0.888	0.007
0.717	0.907	0.007
0.77	0.922	0.006
0.816	0.937	0.007
0.853	0.951	0.006
0.887	0.963	0.006
0.902	0.967	0.006
0.934	0.978	0.006
0.974	0.991	0.006

System: hexane + toluene + anisole; phases: Liquid, Gas
Fixed: Temperature, K = 313.2
Property: Mole fraction of toluene (Liquid); method: Chromatography
Property: Mole fraction of toluene (Gas); method: Chromatography
Property: Mole fraction of hexane (Gas); method: Chromatography
Pressure, kPa	Mole fraction of hexane	Mole fraction of toluene	uncertainty	Mole fraction of toluene	uncertainty	Mole fraction of hexane	uncertainty
7	0.049	0.17	0.006	0.178	0.006	0.707	
7.4	0.072	0.223	0.006	0.229	0.006	0.671	
9.2	0.113	0.192	0.006	0.132	0.006	0.789	
10.4	0.142	0.168	0.006	0.104	0.006	0.83	
15	0.216	0.134	0.006	0.064	0.006	0.891	
15.2	0.218	0.22	0.006	0.094	0.006	0.871	
16.7	0.227	0.367	0.007	0.156	0.006	0.818	
28	0.392	0.4	0.007	0.097	0.006	0.896	
29.5	0.417	0.402	0.007	0.076	0.006	0.916	
32.5	0.488	0.45	0.007	0.084	0.006	0.914	

System: 2-methoxy-2-methylpropane + hexane + toluene; phases: Liquid, Gas
Fixed: Temperature, K = 313.2
Property: Mole fraction of hexane (Liquid); method: Chromatography
Property: Mole fraction of hexane (Gas); method: Chromatography
Property: Mole fraction of 2-methoxy-2-methylpropane (Gas); method: Chromatography
Pressure, kPa	Mole fraction of 2-methoxy-2-methylpropane	Mole fraction of hexane	uncertainty	Mole fraction of hexane	uncertainty	Mole fraction of 2-methoxy-2-methylpropane	uncertainty
19.1	0.032	0.126	0.006	0.346	0.007	0.178	
23.9	0.078	0.157	0.006	0.374	0.007	0.275	
28.8	0.107	0.255	0.006	0.461	0.008	0.297	
32.6	0.128	0.346	0.007	0.508	0.008	0.318	
40.7	0.242	0.45	0.007	0.501	0.008	0.42	
45.8	0.453	0.285	0.006	0.253	0.006	0.686	
53.5	0.66	0.223	0.006	0.153	0.006	0.824	
