Measured thermophysical data. Synthesis, crystal structure and thermochemistry of nickel hydrogen  pyridine-2,6-dicarboxylate
Source: Thermochim. Acta, 2013, 10.1016/j.tca.2013.03.007
Compound 1: nickel, Ni, InChI=1S/Ni
Compound 2: hydrogen, H2, InChI=1S/H2/h1H
Compound 3: nitrogen, N2, InChI=1S/N2/c1-2
Compound 4: graphite, C
Compound 5: oxygen, O2, InChI=1S/O2/c1-2
Compound 6: acetic acid, C2H4O2, InChI=1S/C2H4O2/c1-2(3)4/h1H3,(H,3,4)
Compound 7: pyridine-2,6-dicarboxylic acid, C7H5NO4, InChI=1S/C7H5NO4/c9-6(10)4-2-1-3-5(8-4)7(11)12/h1-3H,(H,9,10)(H,11,12)
Compound 8: nickel diacetate tetrahydrate, C4H14NiO8, InChI=1S/2C2H4O2.Ni.4H2O/c2*1-2(3)4;;;;;/h2*1H3,(H,3,4);;4*1H2/q;;+2;;;;/p-2
Compound 9: water, H2O, InChI=1S/H2O/h1H2
Compound 10: nickel bis[hydrogen pyridine-2,6-dicarboxylate] trihydrate, C14H14N2NiO11, InChI=1S/2C7H5NO4.Ni.3H2O/c2*9-6(10)4-2-1-3-5(8-4)7(11)12;;;;/h2*1-3H,(H,9,10)(H,11,12);;3*1H2/q;;+2;;;/p-2

System: nickel bis[hydrogen pyridine-2,6-dicarboxylate] trihydrate; phases: Crystal
Property: Mass density, kg/m3 (Crystal); method: X-ray diffraction
Temperature, K	Pressure, kPa	Mass density, kg/m3	uncertainty
298	101.325	1721	8

System: nickel bis[hydrogen pyridine-2,6-dicarboxylate] trihydrate; phases: Crystal
Fixed: Pressure, kPa = 101.325
Property: Molar heat capacity at constant pressure, J/K/mol (Crystal); method: Vacuum adiabatic calorimetry
Temperature, K	Molar heat capacity at constant pressure, J/K/mol	uncertainty
78.16	230.8	7.6
79.773	234.2	7.3
82.138	238.9	6.5
84.49	242.8	6.7
86.864	246.5	6.4
89.096	249.8	6.6
91.244	253.4	6.5
93.477	257.5	6.7
95.568	260.7	6.7
97.659	264.1	6.6
99.665	267.4	6.5
101.67	271	6.4
103.76	274	6.4
105.66	277	6.4
107.61	280.1	6.3
109.47	283	6.5
111.51	286.2	7.1
113.31	289.4	7.2
115.12	292.5	7.2
117.55	298	6.9
119.99	301.9	6.9
122.43	305.2	6.5
124.65	309	6.8
126.79	312.9	7.3
129.38	317.9	7.4
131.97	322.6	7.1
134.63	327.5	6.8
137.22	331.3	6.4
139.88	335.7	6.1
142.47	339.3	6.2
145.05	343.4	6.2
147.64	347.3	6.6
150.23	351.8	6.5
152.89	356.5	6.7
155.48	360.4	6.4
157.99	364.6	6.1
160.58	368.2	6.5
163.1	372	6.1
165.69	377	6
168.27	380.3	6.5
170.94	383.8	5.8
173.45	388.7	5.8
175.96	391.8	5.8
178.63	395.3	5.2
181.88	399.6	5.4
185.87	404.8	5.5
189.13	409.3	5.6
191.79	413.2	5.9
194.75	417.6	5.4
197.48	421.7	5.5
200.22	424.2	5.2
203.02	428.6	4.7
205.6	431.6	5.5
208.5	434.4	5
211.15	439.1	4.9
213.74	441.8	4.8
216.32	444.6	4.3
218.91	446.9	5
221.43	450.1	5
223.83	454.3	5
226.48	457.1	4.7
229	459.4	4.2
231.52	461.8	4.5
234.55	465.5	4.4
236.51	468.2	4.4
239.79	471.2	4.1
243.13	474.4	3.9
246.35	477.5	4
249.25	480.3	4.1
251.9	483.1	4.1
254.8	486.2	4
257.51	488.8	4.1
260.47	491.4	4
263.31	494.6	4.1
266.28	497.6	4.3
269.18	500.5	4
272.02	503.6	3.8
274.92	505.9	3.7
277.76	508.3	3.6
280.59	510.8	3.6
283.62	513.8	3.8
286.71	516.2	4.1
289.23	519	3.9
291.82	522.1	4.3
295.1	524.7	3.9
297.75	527.8	3.7
301.03	530.4	3.9
303.68	533	3.8
306.26	535.3	3.9
309.61	538.8	3.8
312.07	541	4
314.53	543	3.8
316.73	545.5	3.9
318.75	547.3	4.1
321.4	549.9	4.3
324.74	553.3	4
326.64	555.9	4.1
329.98	558.2	4
332.56	561.1	3.9
335.21	563.5	4.1
337.93	566.6	4.3
340.51	568.9	4.3
342.47	571.5	4.1
345.05	573.8	4.1
347.76	576.4	3.8
350.41	578.9	3.9
353	581.2	3.7

Reaction: -1 nickel + 1 nickel bis[hydrogen pyridine-2,6-dicarboxylate] trihydrate + -7 hydrogen + -1 nitrogen + -14 graphite + -5.5 oxygen
Property: Molar enthalpy of reaction, kJ/mol
-2467.9

Reaction: -2 acetic acid + 2 pyridine-2,6-dicarboxylic acid + 1 nickel diacetate tetrahydrate + -1 nickel bis[hydrogen pyridine-2,6-dicarboxylate] trihydrate + -1 water
Property: Molar enthalpy of reaction, kJ/mol
22.93
