Measured thermophysical data. Effect of chain length of alcohol on thermodynamic properties of their binary mixtures with  benzylalcohol
Source: Thermochim. Acta, 2014, 10.1016/j.tca.2014.01.027
Compound 1: benzenemethanol, C7H8O, InChI=1S/C7H8O/c8-6-7-4-2-1-3-5-7/h1-5,8H,6H2, purity 99.5%
Compound 2: heptan-1-ol, C7H16O, InChI=1S/C7H16O/c1-2-3-4-5-6-7-8/h8H,2-7H2,1H3, purity 99.5%
Compound 3: octan-1-ol, C8H18O, InChI=1S/C8H18O/c1-2-3-4-5-6-7-8-9/h9H,2-8H2,1H3, purity 99.5%
Compound 4: nonan-1-ol, C9H20O, InChI=1S/C9H20O/c1-2-3-4-5-6-7-8-9-10/h10H,2-9H2,1H3, purity 99.6%
Compound 5: decan-1-ol, C10H22O, InChI=1S/C10H22O/c1-2-3-4-5-6-7-8-9-10-11/h11H,2-10H2,1H3, purity 99.5%

System: benzenemethanol; phases: Liquid
Fixed: Pressure, kPa = 101.325
Property: Mass density, kg/m3 (Liquid); method: Vibrating tube method
Temperature, K	Mass density, kg/m3	uncertainty
298.15	1041.56	0.14
303.15	1037.6	0.14
308.15	1033.3	0.13
313.15	1029.12	0.13

System: benzenemethanol; phases: Liquid
Fixed: Pressure, kPa = 101.325
Property: Speed of sound, m/s (Liquid); method: Linear variable-path acoustic interferometer
Temperature, K	Speed of sound, m/s	uncertainty
303.15	1514	9
313.15	1519	9

System: heptan-1-ol; phases: Liquid
Fixed: Pressure, kPa = 101.325
Property: Mass density, kg/m3 (Liquid); method: Vibrating tube method
Temperature, K	Mass density, kg/m3	uncertainty
298.15	818.79	0.18
303.15	815.21	0.18
308.15	811.69	0.18
313.15	808.12	0.19

System: heptan-1-ol; phases: Liquid
Fixed: Pressure, kPa = 101
Property: Speed of sound, m/s (Liquid); method: Linear variable-path acoustic interferometer
Temperature, K	Speed of sound, m/s	uncertainty
313.15	1277	8
303.15	1314	8
313.15	1279	8

System: octan-1-ol; phases: Liquid
Fixed: Pressure, kPa = 101.325
Property: Mass density, kg/m3 (Liquid); method: Vibrating tube method
Temperature, K	Mass density, kg/m3	uncertainty
298.15	821.87	0.18
303.15	818.27	0.18
308.15	814.68	0.18
313.15	811.04	0.18

System: octan-1-ol; phases: Liquid
Fixed: Pressure, kPa = 101
Property: Speed of sound, m/s (Liquid); method: Linear variable-path acoustic interferometer
Temperature, K	Speed of sound, m/s	uncertainty
303.15	1338	8
303.15	1335	8
313.15	1297	8

System: nonan-1-ol; phases: Liquid
Fixed: Pressure, kPa = 101.325
Property: Mass density, kg/m3 (Liquid); method: Vibrating tube method
Temperature, K	Mass density, kg/m3	uncertainty
298.15	824.51	0.16
303.15	821.07	0.16
308.15	817.51	0.17
313.15	814.04	0.17

System: nonan-1-ol; phases: Liquid
Fixed: Pressure, kPa = 101
Property: Speed of sound, m/s (Liquid); method: Linear variable-path acoustic interferometer
Temperature, K	Speed of sound, m/s	uncertainty
303.15	1356	8
313.15	1315	8

System: decan-1-ol; phases: Liquid
Fixed: Pressure, kPa = 101.325
Property: Mass density, kg/m3 (Liquid); method: Vibrating tube method
Temperature, K	Mass density, kg/m3	uncertainty
298.15	826.74	0.18
303.15	822.89	0.18
308.15	819.51	0.18
313.15	815.95	0.18

System: decan-1-ol; phases: Liquid
Fixed: Pressure, kPa = 101
Property: Speed of sound, m/s (Liquid); method: Linear variable-path acoustic interferometer
Temperature, K	Speed of sound, m/s	uncertainty
313.15	1329	8
303.15	1365	8
313.15	1331	8

System: benzenemethanol + heptan-1-ol; phases: Liquid
Fixed: Pressure, kPa = 101
Property: Mass density, kg/m3 (Liquid); method: Vibrating tube method
Temperature, K	Mole fraction of benzenemethanol	Mass density, kg/m3	uncertainty
298.15	0.1196	838.67	0.18
298.15	0.1623	846.08	0.17
298.15	0.2321	858.58	0.17
298.15	0.2837	868.16	0.17
298.15	0.3566	882.22	0.16
298.15	0.4829	908.15	0.15
298.15	0.5905	932	0.15
298.15	0.6785	952.85	0.14
298.15	0.739	967.95	0.14
298.15	0.7999	983.87	0.13
298.15	0.8573	999.51	0.13
298.15	0.8937	1009.82	0.13
298.15	0.9364	1022.28	0.14
298.15	0.9586	1028.92	0.14
298.15	0.9715	1032.81	0.14
303.15	0.1196	835.02	0.18
303.15	0.1623	842.42	0.17
303.15	0.2321	854.88	0.17
303.15	0.2836	864.43	0.17
303.15	0.3566	878.44	0.16
303.15	0.4828	904.3	0.15
303.15	0.5904	928.1	0.15
303.15	0.6785	948.87	0.14
303.15	0.739	964.03	0.14
303.15	0.7999	979.94	0.13
303.15	0.8573	995.57	0.13
303.15	0.8937	1005.94	0.13
303.15	0.9364	1018.34	0.14
303.15	0.9587	1025.06	0.14
303.15	0.9715	1029.31	0.14
308.15	0.1196	831.43	0.18
308.15	0.1623	838.76	0.18
308.15	0.2321	851.19	0.17
308.15	0.2837	860.68	0.17
308.15	0.3566	874.67	0.16
308.15	0.4828	900.45	0.15
308.15	0.5905	924.2	0.15
308.15	0.6785	945.02	0.14
308.15	0.739	960.09	0.14
308.15	0.7999	975.99	0.13
308.15	0.8573	991.65	0.13
308.15	0.8937	1002.02	0.13
308.15	0.9364	1014.49	0.14
308.15	0.9586	1021.17	0.14
308.15	0.9715	1025.14	0.14
313.15	0.1196	827.72	0.18
313.15	0.1623	835.02	0.18
313.15	0.2321	847.4	0.17
313.15	0.2837	856.88	0.17
313.15	0.3566	870.8	0.16
313.15	0.4828	896.55	0.15
313.15	0.5905	920.29	0.15
313.15	0.6785	941.07	0.14
313.15	0.739	956.19	0.14
313.15	0.7999	972.11	0.13
313.15	0.8573	987.75	0.13
313.15	0.8937	998.03	0.13
313.15	0.9364	1010.54	0.13
313.15	0.9586	1017.22	0.14
313.15	0.9715	1021.19	0.14

System: benzenemethanol + heptan-1-ol; phases: Liquid
Fixed: Pressure, kPa = 101
Property: Speed of sound, m/s (Liquid); method: Linear variable-path acoustic interferometer
Temperature, K	Mole fraction of benzenemethanol	Speed of sound, m/s	uncertainty
303.15	0.1196	1334	8
303.15	0.1623	1342	8
303.15	0.2321	1354	8
303.15	0.2837	1364	8
303.15	0.3566	1378	8
303.15	0.4829	1403	9
303.15	0.5905	1425	9
303.15	0.6785	1444	9
303.15	0.739	1457	9
303.15	0.7999	1470	9
303.15	0.8573	1483	9
303.15	0.8937	1491	9
303.15	0.9364	1502	9
303.15	0.9586	1506	9
303.15	0.9715	1508	9
313.15	0.1196	1300	8
313.15	0.1623	1308	8
313.15	0.2321	1321	8
313.15	0.2837	1331	8
313.15	0.3566	1345	8
313.15	0.4829	1369	8
313.15	0.5905	1390	8
313.15	0.6785	1408	9
313.15	0.739	1421	9
313.15	0.7999	1434	9
313.15	0.8573	1447	9
313.15	0.8937	1456	9
313.15	0.9364	1468	9
313.15	0.9586	1473	9
313.15	0.9715	1475	9

System: benzenemethanol + octan-1-ol; phases: Liquid
Fixed: Pressure, kPa = 101
Property: Mass density, kg/m3 (Liquid); method: Vibrating tube method
Temperature, K	Mole fraction of benzenemethanol	Mass density, kg/m3	uncertainty
298.15	0.0511	829.32	0.18
298.15	0.1165	839.15	0.17
298.15	0.1405	842.86	0.17
298.15	0.2205	855.78	0.17
298.15	0.2561	861.75	0.17
298.15	0.3646	881.08	0.16
298.15	0.4682	901.21	0.16
298.15	0.5256	913.15	0.15
298.15	0.5923	927.8	0.15
298.15	0.6599	943.61	0.14
298.15	0.7394	963.56	0.14
298.15	0.7937	978.08	0.13
298.15	0.8417	991.61	0.13
298.15	0.8968	1008.05	0.14
298.15	0.9667	1030.27	0.15
303.15	0.0511	825.68	0.18
303.15	0.1165	835.46	0.18
303.15	0.1405	839.15	0.17
303.15	0.2205	852	0.17
303.15	0.2561	857.96	0.17
303.15	0.3646	877.23	0.16
303.15	0.4682	897.31	0.16
303.15	0.5256	909.2	0.15
303.15	0.5923	923.84	0.15
303.15	0.6599	939.61	0.14
303.15	0.7394	959.57	0.14
303.15	0.7937	974.09	0.13
303.15	0.8417	987.66	0.13
303.15	0.8968	1004.1	0.13
303.15	0.9667	1026.37	0.14
308.15	0.0511	822.07	0.18
308.15	0.1165	831.79	0.18
308.15	0.1405	835.47	0.18
308.15	0.2205	848.28	0.17
308.15	0.2561	854.19	0.17
308.15	0.3646	873.41	0.16
308.15	0.4682	893.43	0.16
308.15	0.5256	905.32	0.15
308.15	0.5923	919.94	0.15
308.15	0.6599	935.71	0.15
308.15	0.7394	955.66	0.14
308.15	0.7937	970.2	0.14
308.15	0.8417	983.77	0.13
308.15	0.8968	1000.23	0.13
308.15	0.9667	1022.54	0.14
313.15	0.0511	817.37	0.19
313.15	0.1165	827.12	0.18
313.15	0.1405	830.76	0.18
313.15	0.2205	843.58	0.18
313.15	0.2561	849.48	0.17
313.15	0.3646	868.75	0.17
313.15	0.4682	888.86	0.16
313.15	0.5256	900.78	0.16
313.15	0.5923	915.46	0.15
313.15	0.6599	931.31	0.15
313.15	0.7394	951.28	0.14
313.15	0.7937	965.91	0.14
313.15	0.8417	979.57	0.13
313.15	0.8968	996.01	0.13
313.15	0.9667	1018.52	0.14

System: benzenemethanol + octan-1-ol; phases: Liquid
Fixed: Pressure, kPa = 101
Property: Speed of sound, m/s (Liquid); method: Linear variable-path acoustic interferometer
Temperature, K	Mole fraction of benzenemethanol	Speed of sound, m/s	uncertainty
303.15	0.0511	1345	8
303.15	0.1165	1354	8
303.15	0.1405	1358	8
303.15	0.2205	1376	8
303.15	0.2561	1381	8
303.15	0.3646	1400	9
303.15	0.4682	1419	9
303.15	0.5256	1432	9
303.15	0.5923	1445	9
303.15	0.6599	1457	9
303.15	0.7394	1471	9
303.15	0.7937	1478	9
303.15	0.8417	1489	9
303.15	0.8968	1496	9
303.15	0.9667	1506	9
313.15	0.0511	1307	8
313.15	0.1165	1320	8
313.15	0.1405	1327	8
313.15	0.2205	1340	8
313.15	0.2561	1344	8
313.15	0.3646	1362	8
313.15	0.4682	1383	8
313.15	0.5256	1393	8
313.15	0.5923	1406	9
313.15	0.6599	1415	9
313.15	0.7394	1430	9
313.15	0.7937	1444	9
313.15	0.8417	1451	9
313.15	0.8968	1464	9
313.15	0.9667	1475	9

System: benzenemethanol + nonan-1-ol; phases: Liquid
Fixed: Pressure, kPa = 101
Property: Mass density, kg/m3 (Liquid); method: Vibrating tube method
Temperature, K	Mole fraction of benzenemethanol	Mass density, kg/m3	uncertainty
298.15	0.0534	831.42	0.16
298.15	0.1227	840.76	0.16
298.15	0.1912	850.61	0.16
298.15	0.2352	857.28	0.16
298.15	0.2997	867.56	0.15
298.15	0.3713	879.78	0.15
298.15	0.4567	895.56	0.15
298.15	0.5416	912.72	0.14
298.15	0.6038	926.35	0.14
298.15	0.6599	939.48	0.14
298.15	0.7025	950.03	0.14
298.15	0.743	960.55	0.14
298.15	0.8128	980.5	0.14
298.15	0.8551	992.6	0.14
298.15	0.9351	1018.45	0.14
303.15	0.0534	827.89	0.16
303.15	0.1227	837.21	0.16
303.15	0.1912	847.02	0.16
303.15	0.2352	853.67	0.16
303.15	0.2997	863.92	0.15
303.15	0.3713	876.1	0.15
303.15	0.4567	891.83	0.15
303.15	0.5416	908.97	0.14
303.15	0.6038	922.57	0.14
303.15	0.6599	935.66	0.14
303.15	0.7025	946.09	0.14
303.15	0.743	956.74	0.13
303.15	0.8128	976.01	0.14
303.15	0.8551	988.75	0.13
303.15	0.9351	1014.6	0.14
308.15	0.0534	824.28	0.16
308.15	0.1227	833.54	0.16
308.15	0.1912	843.29	0.16
308.15	0.2352	849.9	0.16
308.15	0.2997	860.15	0.16
308.15	0.3713	872.27	0.15
308.15	0.4567	888.4	0.15
308.15	0.5416	905.1	0.14
308.15	0.6038	918.67	0.14
308.15	0.6599	931.75	0.14
308.15	0.7025	942.32	0.14
308.15	0.743	952.81	0.14
308.15	0.8128	972.18	0.13
308.15	0.8551	984.83	0.13
308.15	0.9351	1010.63	0.13
313.15	0.0534	820.71	0.17
313.15	0.1227	829.92	0.16
313.15	0.1912	839.63	0.16
313.15	0.2352	846.22	0.16
313.15	0.2997	856.41	0.16
313.15	0.3713	868.54	0.15
313.15	0.4567	884.21	0.15
313.15	0.5416	901.28	0.14
313.15	0.6038	914.85	0.14
313.15	0.6599	927.9	0.14
313.15	0.7025	938.43	0.14
313.15	0.743	948.98	0.14
313.15	0.8128	968.31	0.13
313.15	0.8551	980.92	0.13
313.15	0.9351	1006.78	0.13

System: benzenemethanol + nonan-1-ol; phases: Liquid
Fixed: Pressure, kPa = 101
Property: Speed of sound, m/s (Liquid); method: Linear variable-path acoustic interferometer
Temperature, K	Mole fraction of benzenemethanol	Speed of sound, m/s	uncertainty
303.15	0.0534	1364	8
303.15	0.1227	1373	8
303.15	0.1912	1382	8
303.15	0.2352	1391	8
303.15	0.2997	1403	9
303.15	0.3713	1416	9
303.15	0.4567	1432	9
303.15	0.5416	1442	9
303.15	0.6038	1450	9
303.15	0.6599	1460	9
303.15	0.7025	1465	9
303.15	0.743	1474	9
303.15	0.8128	1485	9
303.15	0.8551	1492	9
303.15	0.9351	1505	9
313.15	0.0534	1323	8
313.15	0.1227	1335	8
313.15	0.1912	1347	8
313.15	0.2352	1353	8
313.15	0.2997	1366	8
313.15	0.3713	1378	8
313.15	0.4567	1392	8
313.15	0.5416	1408	9
313.15	0.6038	1418	9
313.15	0.6599	1428	9
313.15	0.7025	1437	9
313.15	0.743	1442	9
313.15	0.8128	1457	9
313.15	0.8551	1463	9
313.15	0.9351	1478	9

System: benzenemethanol + decan-1-ol; phases: Liquid
Fixed: Pressure, kPa = 101
Property: Mass density, kg/m3 (Liquid); method: Vibrating tube method
Temperature, K	Mole fraction of benzenemethanol	Mass density, kg/m3	uncertainty
298.15	0.0538	832.95	0.18
298.15	0.1227	841.39	0.17
298.15	0.197	851.19	0.17
298.15	0.2357	856.6	0.17
298.15	0.2979	865.83	0.17
298.15	0.3717	877.68	0.16
298.15	0.4535	892.05	0.16
298.15	0.5411	909.1	0.15
298.15	0.6034	922.45	0.15
298.15	0.6527	933.83	0.15
298.15	0.7052	946.74	0.14
298.15	0.7439	956.94	0.14
298.15	0.8119	976.23	0.14
298.15	0.8555	989.68	0.14
298.15	0.9355	1016.92	0.14
303.15	0.0538	829.04	0.18
303.15	0.1227	837.45	0.17
303.15	0.197	847.23	0.17
303.15	0.2357	852.64	0.17
303.15	0.2979	861.85	0.17
303.15	0.3717	873.67	0.16
303.15	0.4535	888.03	0.16
303.15	0.5411	905.07	0.15
303.15	0.6034	918.39	0.15
303.15	0.6527	929.77	0.15
303.15	0.7052	942.71	0.14
303.15	0.7439	952.88	0.14
303.15	0.8119	972.2	0.14
303.15	0.8555	985.67	0.14
303.15	0.9355	1012.91	0.14
308.15	0.0538	825.61	0.18
308.15	0.1227	833.97	0.18
308.15	0.197	843.72	0.17
308.15	0.2357	849.1	0.17
308.15	0.2979	858.3	0.17
308.15	0.3717	870.06	0.16
308.15	0.4535	884.35	0.16
308.15	0.5411	901.37	0.15
308.15	0.6034	914.62	0.15
308.15	0.6527	925.97	0.15
308.15	0.7052	938.9	0.14
308.15	0.7439	949.07	0.14
308.15	0.8119	968.36	0.14
308.15	0.8555	981.81	0.14
308.15	0.9355	1009.04	0.14
313.15	0.0538	821.96	0.18
313.15	0.1227	830.3	0.18
313.15	0.197	840.02	0.17
313.15	0.2357	845.39	0.17
313.15	0.2979	854.54	0.17
313.15	0.3717	866.29	0.16
313.15	0.4535	880.56	0.16
313.15	0.5411	897.52	0.15
313.15	0.6034	910.8	0.15
313.15	0.6527	922.13	0.15
313.15	0.7052	935.02	0.14
313.15	0.7439	945.18	0.14
313.15	0.8119	964.47	0.14
313.15	0.8555	977.92	0.14
313.15	0.9355	1005.11	0.13

System: benzenemethanol + decan-1-ol; phases: Liquid
Fixed: Pressure, kPa = 101
Property: Speed of sound, m/s (Liquid); method: Linear variable-path acoustic interferometer
Temperature, K	Mole fraction of benzenemethanol	Speed of sound, m/s	uncertainty
303.15	0.0538	1375	8
303.15	0.1227	1384	8
303.15	0.197	1396	9
303.15	0.2357	1400	9
303.15	0.2979	1409	9
303.15	0.3717	1421	9
303.15	0.4535	1431	9
303.15	0.5411	1443	9
303.15	0.6034	1455	9
303.15	0.6527	1460	9
303.15	0.7052	1469	9
303.15	0.7439	1474	9
303.15	0.8119	1485	9
303.15	0.8555	1489	9
303.15	0.9355	1501	9
313.15	0.0538	1341	8
313.15	0.1227	1350	8
313.15	0.197	1362	8
313.15	0.2357	1370	8
313.15	0.2979	1376	8
313.15	0.3717	1388	8
313.15	0.4535	1400	9
313.15	0.5411	1414	9
313.15	0.6034	1423	9
313.15	0.6527	1431	9
313.15	0.7052	1440	9
313.15	0.7439	1446	9
313.15	0.8119	1456	9
313.15	0.8555	1463	9
313.15	0.9355	1475	9
