Measured thermophysical data. Volume-related interaction parameters for dilute solutions  of 1,3-dimethylpropyleneurea in normal and heavy water  between 278.15 K and 318.15 K
Source: Thermochim. Acta, 2011, 10.1016/j.tca.2010.11.002
Compound 1: 1,3-dimethyl-3,4,5,6-tetrahydro-2(1H)-pyrimidinone, C6H12N2O, InChI=1S/C6H12N2O/c1-7-4-3-5-8(2)6(7)9/h3-5H2,1-2H3, purity 99%
Compound 2: water, H2O, InChI=1S/H2O/h1H2
Compound 3: water-d2, D2O, InChI=1S/H2O/h1H2/i/hD2

System: 1,3-dimethyl-3,4,5,6-tetrahydro-2(1H)-pyrimidinone; phases: Liquid
Fixed: Pressure, kPa = 101.325
Property: Mass density, kg/m3 (Liquid); method: Vibrating tube method
Temperature, K	Mass density, kg/m3	uncertainty
278.15	1076.18	0.09
288.15	1067.81	0.09
298.15	1059.46	0.08
308.15	1051.12	0.08
313.15	1046.95	0.08
318.15	1042.78	0.08

System: water-d2; phases: Liquid
Fixed: Pressure, kPa = 101
Property: Mass density, kg/m3 (Liquid); method: Vibrating tube method
Temperature, K	Mass density, kg/m3	uncertainty
278.15	1105.59	0.09
288.15	1105.85	0.09
298.15	1104.43	0.09
308.15	1101.72	0.09
313.15	1099.93	0.09
318.15	1097.92	0.09

System: 1,3-dimethyl-3,4,5,6-tetrahydro-2(1H)-pyrimidinone + water; phases: Liquid
Fixed: Pressure, kPa = 101
Property: Mass density, kg/m3 (Liquid); method: Vibrating tube method
Molality, mol/kg of 1,3-dimethyl-3,4,5,6-tetrahydro-2(1H)-pyrimidinone	Temperature, K	Mass density, kg/m3	uncertainty
0.03864	278.15	1000.41	0.04
0.03864	288.15	999.51	0.05
0.03864	298.15	997.43	0.05
0.03864	308.15	994.38	0.05
0.03864	313.15	992.55	0.05
0.03864	318.15	990.54	0.05
0.07586	278.15	1000.85	0.05
0.07586	288.15	999.91	0.04
0.07586	298.15	997.79	0.05
0.07586	308.15	994.72	0.05
0.07586	313.15	992.88	0.05
0.07586	318.15	990.86	0.05
0.1037	278.15	1001.18	0.05
0.1037	288.15	1000.21	0.05
0.1037	298.15	998.07	0.05
0.1037	308.15	994.98	0.05
0.1037	313.15	993.12	0.05
0.1037	318.15	991.09	0.05
0.1575	278.15	1001.83	0.05
0.1575	288.15	1000.8	0.05
0.1575	298.15	998.61	0.05
0.1575	308.15	995.48	0.05
0.1575	313.15	993.6	0.05
0.1575	318.15	991.55	0.05
0.2215	278.15	1002.6	0.05
0.2215	288.15	1001.51	0.05
0.2215	298.15	999.26	0.05
0.2215	308.15	996.08	0.05
0.2215	313.15	994.18	0.05
0.2215	318.15	992.11	0.05
0.2812	278.15	1003.34	0.05
0.2812	288.15	1002.17	0.05
0.2812	298.15	999.87	0.05
0.2812	308.15	996.64	0.05
0.2812	313.15	994.72	0.05
0.2812	318.15	992.63	0.05
0.407	278.15	1004.9	0.05
0.407	288.15	1003.6	0.05
0.407	298.15	1001.17	0.05
0.407	308.15	997.84	0.05
0.407	313.15	995.87	0.05
0.407	318.15	993.74	0.05
0.5303	278.15	1006.46	0.05
0.5303	288.15	1005.01	0.05
0.5303	298.15	1002.46	0.05
0.5303	308.15	999.04	0.05
0.5303	313.15	997.02	0.05
0.5303	318.15	994.85	0.05
0.6771	278.15	1008.32	0.05
0.6771	288.15	1006.7	0.05
0.6771	298.15	1004.01	0.05
0.6771	308.15	1000.47	0.05
0.6771	313.15	998.39	0.05
0.6771	318.15	996.17	0.05
0.8298	278.15	1010.25	0.05
0.8298	288.15	1008.46	0.05
0.8298	298.15	1005.62	0.05
0.8298	308.15	1001.96	0.05
0.8298	313.15	999.83	0.05
0.8298	318.15	997.56	0.05
0.9878	278.15	1012.23	0.05
0.9878	288.15	1010.27	0.05
0.9878	298.15	1007.28	0.05
0.9878	308.15	1003.5	0.05
0.9878	313.15	1001.31	0.05
0.9878	318.15	998.99	0.05

System: 1,3-dimethyl-3,4,5,6-tetrahydro-2(1H)-pyrimidinone + water-d2; phases: Liquid
Fixed: Pressure, kPa = 101
Property: Mass density, kg/m3 (Liquid); method: Vibrating tube method
Molality, mol/kg of 1,3-dimethyl-3,4,5,6-tetrahydro-2(1H)-pyrimidinone	Temperature, K	Mass density, kg/m3	uncertainty
0	278.15	1105.59	0.09
0	288.15	1105.85	0.09
0	298.15	1104.43	0.09
0	308.15	1101.72	0.09
0	313.15	1099.93	0.09
0	318.15	1097.92	0.09
0.0599	278.15	1105.6	0.09
0.0599	288.15	1105.78	0.09
0.0599	298.15	1104.3	0.09
0.0599	308.15	1101.53	0.09
0.0599	313.15	1099.72	0.09
0.0599	318.15	1097.69	0.09
0.08344	278.15	1105.61	0.09
0.08344	288.15	1105.76	0.09
0.08344	298.15	1104.25	0.09
0.08344	308.15	1101.47	0.09
0.08344	313.15	1099.64	0.09
0.08344	318.15	1097.6	0.09
0.1212	278.15	1105.63	0.09
0.1212	288.15	1105.73	0.09
0.1212	298.15	1104.18	0.09
0.1212	308.15	1101.36	0.09
0.1212	313.15	1099.52	0.09
0.1212	318.15	1097.47	0.09
0.1641	278.15	1105.66	0.09
0.1641	288.15	1105.71	0.09
0.1641	298.15	1104.11	0.09
0.1641	308.15	1101.25	0.09
0.1641	313.15	1099.39	0.09
0.1641	318.15	1097.32	0.09
0.2214	278.15	1105.72	0.09
0.2214	288.15	1105.69	0.09
0.2214	298.15	1104.03	0.09
0.2214	308.15	1101.11	0.09
0.2214	313.15	1099.23	0.09
0.2214	318.15	1097.13	0.09
0.3291	278.15	1105.85	0.09
0.3291	288.15	1105.68	0.09
0.3291	298.15	1103.9	0.09
0.3291	308.15	1100.88	0.09
0.3291	313.15	1098.96	0.09
0.3291	318.15	1096.82	0.09
0.5024	278.15	1106.17	0.09
0.5024	288.15	1105.76	0.09
0.5024	298.15	1103.77	0.09
0.5024	308.15	1100.59	0.09
0.5024	313.15	1098.6	0.09
0.5024	318.15	1096.39	0.09
0.6557	278.15	1106.53	0.09
0.6557	288.15	1105.89	0.09
0.6557	298.15	1103.73	0.09
0.6557	308.15	1100.4	0.09
0.6557	313.15	1098.34	0.09
0.6557	318.15	1096.07	0.09
0.7789	278.15	1106.85	0.1
0.7789	288.15	1106.03	0.09
0.7789	298.15	1103.73	0.09
0.7789	308.15	1100.28	0.09
0.7789	313.15	1098.17	0.09
0.7789	318.15	1095.85	0.09
0.9405	278.15	1107.31	0.1
0.9405	288.15	1106.25	0.1
0.9405	298.15	1103.76	0.09
0.9405	308.15	1100.16	0.09
0.9405	313.15	1097.99	0.09
0.9405	318.15	1095.61	0.09
1.0736	278.15	1107.69	0.1
1.0736	288.15	1106.44	0.1
1.0736	298.15	1103.81	0.09
1.0736	308.15	1100.09	0.09
1.0736	313.15	1097.86	0.09
1.0736	318.15	1095.43	0.09
