Measured thermophysical data. Characterization of thermal performance of a solid solid phase change material,  di-n-hexylammonium bromide, for potential integration in building materials
Source: Thermochim. Acta, 2012, 10.1016/j.tca.2011.12.024
Compound 1: dihexylammonium bromide, C12H28BrN, InChI=1S/C12H27N.BrH/c1-3-5-7-9-11-13-12-10-8-6-4-2;/h13H,3-12H2,1-2H3;1H

System: dihexylammonium bromide; phases: Crystal 2, Crystal 1, Air at 1 atmosphere
Property: Triple point temperature, K (Crystal 2); method: DTA
Triple point temperature, K	uncertainty
293.75	0.5

System: dihexylammonium bromide; phases: Crystal 2, Crystal 1, Air at 1 atmosphere
Property: Molar enthalpy of transition or fusion, kJ/mol (Crystal 2); method: DSC
Molar enthalpy of transition or fusion, kJ/mol	uncertainty
22.6322241	0.79878438
