Measured thermophysical data. Enthalpies and heat capacities of solution of racemic N-methyl-substituted glycolurils in water at T = (278.15 to 313.15) K
Source: Thermochim. Acta, 2015, 10.1016/j.tca.2015.09.023
Compound 1: rac-(3aS,6aR)-1-methyltetrahydroimidazo[4,5-d]imidazole-2,5(1H,3H)-dione, C5H8N4O2, InChI=1S/C5H8N4O2/c1-9-3-2(7-5(9)11)6-4(10)8-3/h2-3H,1H3,(H,7,11)(H2,6,8,10)/t2-,3+/m0/s1
Compound 2: rac-(3aR,6aR)-1,4-dimethyltetrahydroimidazo[4,5-d]imidazole-2,5(1H,3H)-dione, C6H10N4O2, InChI=1S/C6H10N4O2/c1-9-3-4(8-5(9)11)10(2)6(12)7-3/h3-4H,1-2H3,(H,7,12)(H,8,11)/t3-,4-/m1/s1
Compound 3: rac-(3aS,6aR)-1,3,4-trimethyltetrahydroimidazo[4,5-d]imidazole-2,5(1H,3H)-dione, C7H12N4O2, InChI=1S/C7H12N4O2/c1-9-4-5(11(3)7(9)13)10(2)6(12)8-4/h4-5H,1-3H3,(H,8,12)/t4-,5+/m1/s1
Compound 4: water, H2O, InChI=1S/H2O/h1H2, purity 99.8%

System: rac-(3aS,6aR)-1-methyltetrahydroimidazo[4,5-d]imidazole-2,5(1H,3H)-dione; phases: Crystal, Liquid, Air at 1 atmosphere
Property: Normal melting temperature, K (Crystal); method: DTA
Normal melting temperature, K	uncertainty
534.8	0.4

System: rac-(3aS,6aR)-1-methyltetrahydroimidazo[4,5-d]imidazole-2,5(1H,3H)-dione; phases: Crystal, Liquid, Air at 1 atmosphere
Property: Molar enthalpy of transition or fusion, kJ/mol (Crystal); method: DSC
Molar enthalpy of transition or fusion, kJ/mol	uncertainty
34.1	0.8

System: rac-(3aR,6aR)-1,4-dimethyltetrahydroimidazo[4,5-d]imidazole-2,5(1H,3H)-dione; phases: Crystal, Liquid, Air at 1 atmosphere
Property: Normal melting temperature, K (Crystal); method: DTA
Normal melting temperature, K	uncertainty
550.2	0.4

System: rac-(3aR,6aR)-1,4-dimethyltetrahydroimidazo[4,5-d]imidazole-2,5(1H,3H)-dione; phases: Crystal, Liquid, Air at 1 atmosphere
Property: Molar enthalpy of transition or fusion, kJ/mol (Crystal); method: DSC
Molar enthalpy of transition or fusion, kJ/mol	uncertainty
24.4	0.7

System: rac-(3aS,6aR)-1,3,4-trimethyltetrahydroimidazo[4,5-d]imidazole-2,5(1H,3H)-dione; phases: Crystal, Liquid, Air at 1 atmosphere
Property: Normal melting temperature, K (Crystal); method: DTA
Normal melting temperature, K	uncertainty
365.7	0.4

System: rac-(3aS,6aR)-1,3,4-trimethyltetrahydroimidazo[4,5-d]imidazole-2,5(1H,3H)-dione; phases: Crystal, Liquid, Air at 1 atmosphere
Property: Molar enthalpy of transition or fusion, kJ/mol (Crystal); method: DSC
Molar enthalpy of transition or fusion, kJ/mol	uncertainty
20.1	0.7

System: water + rac-(3aS,6aR)-1-methyltetrahydroimidazo[4,5-d]imidazole-2,5(1H,3H)-dione; phases: Liquid
Fixed: Pressure, kPa = 99.6
Fixed: Mole fraction of rac-(3aS,6aR)-1-methyltetrahydroimidazo[4,5-d]imidazole-2,5(1H,3H)-dione = 0
Property: Molar enthalpy of solution, kJ/mol (Liquid); method: ISOPERIBOL
Temperature, K	Molar enthalpy of solution, kJ/mol	uncertainty
278.15	23	0.18
279.15	23.05	0.18
288.15	23.44	0.18
298.15	24	0.19
308.15	24.76	0.19
313.15	25.19	0.2

System: water + rac-(3aR,6aR)-1,4-dimethyltetrahydroimidazo[4,5-d]imidazole-2,5(1H,3H)-dione; phases: Liquid
Fixed: Pressure, kPa = 99.6
Fixed: Mole fraction of rac-(3aR,6aR)-1,4-dimethyltetrahydroimidazo[4,5-d]imidazole-2,5(1H,3H)-dione = 0
Property: Molar enthalpy of solution, kJ/mol (Liquid); method: ISOPERIBOL
Temperature, K	Molar enthalpy of solution, kJ/mol	uncertainty
278.15	11.92	0.09
279.15	12.02	0.09
288.15	12.94	0.15
298.15	13.88	0.12
308.15	14.93	0.12
313.15	15.4	0.14

System: water + rac-(3aS,6aR)-1,3,4-trimethyltetrahydroimidazo[4,5-d]imidazole-2,5(1H,3H)-dione; phases: Liquid
Fixed: Pressure, kPa = 99.6
Fixed: Mole fraction of rac-(3aS,6aR)-1,3,4-trimethyltetrahydroimidazo[4,5-d]imidazole-2,5(1H,3H)-dione = 0
Property: Molar enthalpy of solution, kJ/mol (Liquid); method: ISOPERIBOL
Temperature, K	Molar enthalpy of solution, kJ/mol	uncertainty
278.15	3.28	0.06
279.15	3.4	0.06
288.15	4.63	0.1
298.15	5.91	0.14
308.15	7.32	0.1
313.15	7.98	0.08
