Measured thermophysical data. Stearyl alcohol/palm triple pressed acid-graphite nanocomposites as phase change materials
Source: Thermochim. Acta, 2018, 10.1016/j.tca.2018.03.014
Compound 1: 1-octadecanol, C18H38O, InChI=1S/C18H38O/c1-2-3-4-5-6-7-8-9-10-11-12-13-14-15-16-17-18-19/h19H,2-18H2,1H3

System: 1-octadecanol; phases: Crystal, Liquid, Air at 1 atmosphere
Property: Normal melting temperature, K (Crystal); method: DTA:corrimp
Normal melting temperature, K	uncertainty
331.25	4

System: 1-octadecanol; phases: Crystal 2, Liquid, Air at 1 atmosphere
Property: Molar enthalpy of transition or fusion, kJ/mol (Crystal 2); method: DSC
Molar enthalpy of transition or fusion, kJ/mol	uncertainty
67.08244256	1.3524686
