Measured thermophysical data. Phase transition of the novel hydrogen bonded ferroelectric (NH4)2H2P2O6  studied by specific heat measurements
Source: Thermochim. Acta, 2012, 10.1016/j.tca.2011.09.016
Compound 1: diammonium hypodiphosphate, H10N2O6P2, InChI=1S/2H3N.H4O6P2/c;;1-7(2,3)8(4,5)6/h2*1H3;(H2,1,2,3)(H2,4,5,6)

System: diammonium hypodiphosphate; phases: Crystal 2, Crystal 1, Gas
Property: Triple point temperature, K (Crystal 2); method: AC calorimetry
Triple point temperature, K	uncertainty
177.5	0.1
