Measured thermophysical data. Temperature dependence of the pair interaction between hydrophobic and hydrophilic solutes: A calorimetric study
Source: Thermochim. Acta, 2005, 10.1016/j.tca.2005.05.012
Compound 1: water, H2O, InChI=1S/H2O/h1H2
Compound 2: formamide, CH3NO, InChI=1S/CH3NO/c2-1-3/h1H,(H2,2,3)
Compound 3: tetraethylammonium bromide, C8H20BrN, InChI=1S/C8H20N.BrH/c1-5-9(6-2,7-3)8-4;/h5-8H2,1-4H3;1H/q+1;/p-1
Compound 4: tetrabutylammonium bromide, C16H36BrN, InChI=1S/C16H36N.BrH/c1-5-9-13-17(14-10-6-2,15-11-7-3)16-12-8-4;/h5-16H2,1-4H3;1H/q+1;/p-1

System: tetraethylammonium bromide + formamide + water; phases: Liquid
Fixed: Pressure, kPa = 101
Fixed: Mole fraction of tetraethylammonium bromide = 0
Property: Molar enthalpy of solution, kJ/mol (Liquid); method: ISOPERIBOL:solid
Temperature, K	Solvent: Mole fraction of formamide	Molar enthalpy of solution, kJ/mol	uncertainty
277.15	0.01	3.68	0.14
277.15	0.02	3.86	0.14
277.15	0.03	3.96	0.14
277.15	0.05	4.22	0.14
277.15	0.06	4.36	0.14
277.15	0.07	4.66	0.15
288.15	0.00501	4.73	0.15
288.15	0.00884	4.82	0.15
288.15	0.01	4.8	0.15
288.15	0.02	4.95	0.15
288.15	0.02946	5.09	0.15
288.15	0.03	5	0.15
288.15	0.04998	5.1	0.15
288.15	0.05	5.12	0.15
288.15	0.0699	5.32	0.15
288.15	0.07	5.27	0.15
313.15	0.005	8.08	0.18
313.15	0.00998	8.07	0.18
313.15	0.02	8.02	0.18
313.15	0.03	8	0.18
313.15	0.04991	7.93	0.18
313.15	0.07	7.85	0.18
319.15	0.003397	8.94	0.19
319.15	0.01152	8.9	0.19
319.15	0.03006	8.83	0.19
319.15	0.04777	8.6	0.19
319.15	0.06544	8.69	0.19
328.15	0.00313	10.1	0.2
328.15	0.01272	10	0.2
328.15	0.01824	9.95	0.2
328.15	0.02821	9.98	0.2
328.15	0.03282	9.89	0.2
328.15	0.04706	9.7	0.2
328.15	0.06719	9.84	0.2

System: formamide + tetrabutylammonium bromide + water; phases: Liquid
Fixed: Pressure, kPa = 101
Fixed: Mole fraction of tetrabutylammonium bromide = 0
Property: Molar enthalpy of solution, kJ/mol (Liquid); method: ISOPERIBOL:solid
Temperature, K	Solvent: Mole fraction of formamide	Molar enthalpy of solution, kJ/mol	uncertainty
277.15	0.01037	-20.32	0.3
277.15	0.01892	-20.23	0.3
277.15	0.02953	-17.81	0.28
277.15	0.04956	-14.53	0.25
277.15	0.06844	-11.47	0.21
288.15	0.005	-15.1	0.25
288.15	0.01001	-14.43	0.24
288.15	0.02	-11.9	0.22
288.15	0.03	-10.79	0.21
288.15	0.05	-7.23	0.17
288.15	0.06998	-5.2	0.15
313.15	0.005	3.38	0.13
313.15	0.00501	3.41	0.13
313.15	0.01001	3.82	0.14
313.15	0.02002	5.02	0.15
313.15	0.02998	6.09	0.16
313.15	0.05	7.84	0.18
313.15	0.07	8.9	0.19
319.15	0.00503	7.33	0.17
319.15	0.0122	8.05	0.18
319.15	0.02358	9.33	0.19
319.15	0.0381	9.92	0.2
319.15	0.04485	10.6	0.21
319.15	0.06389	11.5	0.22
328.15	0.0052	12.84	0.23
328.15	0.01415	13.5	0.24
328.15	0.0345	15.17	0.25
328.15	0.04662	15.66	0.26
328.15	0.0563	16.12	0.26
328.15	0.07718	16.58	0.27
