Measured thermophysical data. Heat capacities of the mixed-solvents desiccants (glycols +water + salts)
Source: Thermochim. Acta, 2009, 10.1016/j.tca.2009.01.008
Compound 1: diethylene glycol, C4H10O3, InChI=1S/C4H10O3/c5-1-3-7-4-2-6/h5-6H,1-4H2
Compound 2: triethylene glycol, C6H14O4, InChI=1S/C6H14O4/c7-1-3-9-5-6-10-4-2-8/h7-8H,1-6H2
Compound 3: tetraethylene glycol, C8H18O5, InChI=1S/C8H18O5/c9-1-3-11-5-7-13-8-6-12-4-2-10/h9-10H,1-8H2
Compound 4: 1,2-propanediol, C3H8O2, InChI=1S/C3H8O2/c1-3(5)2-4/h3-5H,2H2,1H3
Compound 5: 4-oxa-1,7-heptanediol, C6H14O3, InChI=1S/C6H14O3/c7-3-1-5-9-6-2-4-8/h7-8H,1-6H2
Compound 6: lithium chloride, ClLi, InChI=1S/ClH.Li/h1H;/q;+1/p-1
Compound 7: lithium bromide, BrLi, InChI=1S/BrH.Li/h1H;/q;+1/p-1
Compound 8: water, H2O, InChI=1S/H2O/h1H2

System: diethylene glycol; phases: Liquid
Fixed: Pressure, kPa = 101.325
Property: Molar heat capacity at constant pressure, J/K/mol (Liquid); method: Vacuum adiabatic calorimetry
Temperature, K	Molar heat capacity at constant pressure, J/K/mol	uncertainty
303.15	248.2	0.4
313.15	251.3	0.4
323.15	255	0.4
333.15	259.2	0.4
343.15	263.8	0.4
353.15	266.8	0.4

System: triethylene glycol; phases: Liquid
Fixed: Pressure, kPa = 101.325
Property: Molar heat capacity at constant pressure, J/K/mol (Liquid); method: Vacuum adiabatic calorimetry
Temperature, K	Molar heat capacity at constant pressure, J/K/mol	uncertainty
303.15	336.3	0.4
313.15	339.5	0.4
323.15	343.1	0.4
333.15	347.9	0.4
343.15	353.7	0.4
353.15	359.3	0.4

System: tetraethylene glycol; phases: Liquid
Fixed: Pressure, kPa = 101.325
Property: Molar heat capacity at constant pressure, J/K/mol (Liquid); method: Vacuum adiabatic calorimetry
Temperature, K	Molar heat capacity at constant pressure, J/K/mol	uncertainty
303.15	428.5	0.5
313.15	430.9	0.5
323.15	434.7	0.5
333.15	438.5	0.5
343.15	443.6	0.5
353.15	449.1	0.5

System: 1,2-propanediol; phases: Liquid
Fixed: Pressure, kPa = 101.325
Property: Molar heat capacity at constant pressure, J/K/mol (Liquid); method: Vacuum adiabatic calorimetry
Temperature, K	Molar heat capacity at constant pressure, J/K/mol	uncertainty
303.15	192.8	0.3
313.15	197	0.3
323.15	201.3	0.3
333.15	206	0.3
343.15	210.6	0.3
353.15	215.3	0.3

System: 4-oxa-1,7-heptanediol; phases: Liquid
Fixed: Pressure, kPa = 101.325
Property: Molar heat capacity at constant pressure, J/K/mol (Liquid); method: Vacuum adiabatic calorimetry
Temperature, K	Molar heat capacity at constant pressure, J/K/mol	uncertainty
303.15	329	0.4
313.15	335.3	0.4
323.15	341.5	0.4
333.15	348.8	0.4
343.15	355.8	0.4
353.15	363.8	0.4

System: diethylene glycol + water; phases: Liquid
Fixed: Pressure, kPa = 101
Property: Molar heat capacity at constant pressure, J/K/mol (Liquid); method: Vacuum adiabatic calorimetry
Mole fraction of diethylene glycol	Temperature, K	Molar heat capacity at constant pressure, J/K/mol	uncertainty
0.2	303.15	111.8	0.3
0.2	313.15	113.5	0.3
0.2	323.15	115.3	0.3
0.2	333.15	117.4	0.3
0.2	343.15	119.3	0.3
0.2	353.15	121.7	0.3
0.4	303.15	148.7	0.3
0.4	313.15	150.7	0.3
0.4	323.15	153.3	0.3
0.4	333.15	155.9	0.3
0.4	343.15	158.7	0.3
0.4	353.15	161.8	0.3
0.5	303.15	167.6	0.3
0.5	313.15	169.9	0.3
0.5	323.15	172.6	0.3
0.5	333.15	175.5	0.3
0.5	343.15	178.7	0.3
0.5	353.15	182.2	0.3
0.6	303.15	184.5	0.3
0.6	313.15	187.1	0.3
0.6	323.15	190.3	0.3
0.6	333.15	193.6	0.3
0.6	343.15	197.3	0.3
0.6	353.15	201.2	0.3
0.8	303.15	217.9	0.3
0.8	313.15	221.2	0.3
0.8	323.15	225	0.3
0.8	333.15	229.1	0.4
0.8	343.15	233.6	0.4
0.8	353.15	238.5	0.4

System: triethylene glycol + water; phases: Liquid
Fixed: Pressure, kPa = 101
Property: Molar heat capacity at constant pressure, J/K/mol (Liquid); method: Vacuum adiabatic calorimetry
Mole fraction of triethylene glycol	Temperature, K	Molar heat capacity at constant pressure, J/K/mol	uncertainty
0.2	303.15	129.3	0.3
0.2	313.15	131	0.3
0.2	323.15	132.9	0.3
0.2	333.15	135.1	0.3
0.2	343.15	137.2	0.3
0.2	353.15	139.7	0.3
0.4	303.15	184.1	0.3
0.4	313.15	186.3	0.3
0.4	323.15	189	0.3
0.4	333.15	192.1	0.3
0.4	343.15	195.2	0.3
0.4	353.15	198.7	0.3
0.5	303.15	211.3	0.3
0.5	313.15	213.6	0.3
0.5	323.15	216.5	0.3
0.5	333.15	219.8	0.3
0.5	343.15	223.4	0.4
0.5	353.15	227.3	0.4
0.6	303.15	237.8	0.4
0.6	313.15	240.5	0.4
0.6	323.15	243.7	0.4
0.6	333.15	249.7	0.4
0.6	343.15	251.8	0.4
0.6	353.15	256.1	0.4
0.8	303.15	288.3	0.4
0.8	313.15	291.8	0.4
0.8	323.15	295.7	0.4
0.8	333.15	300.3	0.4
0.8	343.15	306	0.4
0.8	353.15	311.3	0.4

System: tetraethylene glycol + water; phases: Liquid
Fixed: Pressure, kPa = 101
Property: Molar heat capacity at constant pressure, J/K/mol (Liquid); method: Vacuum adiabatic calorimetry
Mole fraction of tetraethylene glycol	Temperature, K	Molar heat capacity at constant pressure, J/K/mol	uncertainty
0.2	303.15	156	0.3
0.2	313.15	157.2	0.3
0.2	323.15	158.9	0.3
0.2	333.15	161	0.3
0.2	343.15	163	0.3
0.2	353.15	165.4	0.3
0.4	303.15	230.6	0.4
0.4	313.15	232.4	0.4
0.4	323.15	234.9	0.4
0.4	333.15	237.5	0.4
0.4	343.15	240.5	0.4
0.4	353.15	243.7	0.4
0.5	303.15	266	0.4
0.5	313.15	267.9	0.4
0.5	323.15	270.4	0.4
0.5	333.15	273.4	0.4
0.5	343.15	277.1	0.4
0.5	353.15	280.9	0.4
0.6	303.15	300.5	0.4
0.6	313.15	302.4	0.4
0.6	323.15	305.3	0.4
0.6	333.15	308.6	0.4
0.6	343.15	312.4	0.4
0.6	353.15	316.5	0.4
0.8	303.15	366.5	0.5
0.8	313.15	369.5	0.5
0.8	323.15	373.5	0.5
0.8	333.15	377.5	0.5
0.8	343.15	382.6	0.5
0.8	353.15	388	0.5

System: 1,2-propanediol + water; phases: Liquid
Fixed: Pressure, kPa = 101
Property: Molar heat capacity at constant pressure, J/K/mol (Liquid); method: Vacuum adiabatic calorimetry
Mole fraction of 1,2-propanediol	Temperature, K	Molar heat capacity at constant pressure, J/K/mol	uncertainty
0.2	303.15	101.9	0.2
0.2	313.15	103	0.2
0.2	323.15	104.3	0.2
0.2	333.15	105.8	0.2
0.2	343.15	107.2	0.3
0.2	353.15	108.8	0.3
0.4	303.15	127	0.3
0.4	313.15	129.4	0.3
0.4	323.15	132.1	0.3
0.4	333.15	134.9	0.3
0.4	343.15	137.7	0.3
0.4	353.15	140.7	0.3
0.5	303.15	138.9	0.3
0.5	313.15	141.9	0.3
0.5	323.15	145.1	0.3
0.5	333.15	148.7	0.3
0.5	343.15	152.1	0.3
0.5	353.15	155.6	0.3
0.6	303.15	150.3	0.3
0.6	313.15	153.9	0.3
0.6	323.15	157.7	0.3
0.6	333.15	161.8	0.3
0.6	343.15	165.8	0.3
0.6	353.15	169.9	0.3
0.8	303.15	172.1	0.3
0.8	313.15	176.4	0.3
0.8	323.15	180.9	0.3
0.8	333.15	185.8	0.3
0.8	343.15	190.6	0.3
0.8	353.15	195.5	0.3

System: water + 4-oxa-1,7-heptanediol; phases: Liquid
Fixed: Pressure, kPa = 101
Property: Molar heat capacity at constant pressure, J/K/mol (Liquid); method: Vacuum adiabatic calorimetry
Mole fraction of 4-oxa-1,7-heptanediol	Temperature, K	Molar heat capacity at constant pressure, J/K/mol	uncertainty
0.2	303.15	129.1	0.3
0.2	313.15	130.8	0.3
0.2	323.15	132.7	0.3
0.2	333.15	135	0.3
0.2	343.15	137.1	0.3
0.2	353.15	139.5	0.3
0.4	303.15	181.8	0.3
0.4	313.15	184.9	0.3
0.4	323.15	188.2	0.3
0.4	333.15	191.9	0.3
0.4	343.15	195.5	0.3
0.4	353.15	199.6	0.3
0.5	303.15	207.2	0.3
0.5	313.15	210.9	0.3
0.5	323.15	214.7	0.3
0.5	333.15	219.3	0.4
0.5	343.15	223.5	0.4
0.5	353.15	228.3	0.4
0.6	303.15	231.9	0.4
0.6	313.15	236.2	0.4
0.6	323.15	240.7	0.4
0.6	333.15	245.8	0.4
0.6	343.15	250.8	0.4
0.6	353.15	256.3	0.4
0.8	303.15	279.7	0.4
0.8	313.15	285	0.4
0.8	323.15	290.4	0.4
0.8	333.15	296.6	0.4
0.8	343.15	302.7	0.4
0.8	353.15	309.4	0.4

System: diethylene glycol + lithium chloride + water; phases: Liquid
Fixed: Pressure, kPa = 101
Property: Molar heat capacity at constant pressure, J/K/mol (Liquid); method: Vacuum adiabatic calorimetry
Mass fraction of diethylene glycol	Mass fraction of water	Temperature, K	Molar heat capacity at constant pressure, J/K/mol	uncertainty
0.5	0.25	303.15	96.4	0.2
0.5	0.25	313.15	97.6	0.2
0.5	0.25	323.15	98.8	0.2
0.5	0.25	333.15	100.2	0.2
0.5	0.25	343.15	101.7	0.2
0.5	0.25	353.15	103.3	0.2
0.6	0.24	303.15	106	0.2
0.6	0.24	313.15	107.3	0.2
0.6	0.24	323.15	108.8	0.2
0.6	0.24	333.15	110.5	0.2
0.6	0.24	343.15	112.2	0.2
0.6	0.24	353.15	114.1	0.2
0.7	0.21	303.15	126.2	0.3
0.7	0.21	313.15	127.9	0.3
0.7	0.21	323.15	129.5	0.3
0.7	0.21	333.15	131.4	0.3
0.7	0.21	343.15	133.3	0.3
0.7	0.21	353.15	135.3	0.3
0.8	0.16	303.15	152.5	0.3
0.8	0.16	313.15	154.8	0.3
0.8	0.16	323.15	157.1	0.3
0.8	0.16	333.15	159.6	0.3
0.8	0.16	343.15	162.1	0.3
0.8	0.16	353.15	164.5	0.3

System: triethylene glycol + lithium chloride + water; phases: Liquid
Fixed: Pressure, kPa = 101
Property: Molar heat capacity at constant pressure, J/K/mol (Liquid); method: Vacuum adiabatic calorimetry
Mass fraction of triethylene glycol	Mass fraction of water	Temperature, K	Molar heat capacity at constant pressure, J/K/mol	uncertainty
0.5	0.25	303.15	109.9	0.2
0.5	0.25	313.15	111.2	0.2
0.5	0.25	323.15	112.6	0.2
0.5	0.25	333.15	114.1	0.2
0.5	0.25	343.15	115.9	0.3
0.5	0.25	353.15	117.7	0.3
0.6	0.24	303.15	124.5	0.3
0.6	0.24	313.15	126.1	0.3
0.6	0.24	323.15	127.8	0.3
0.6	0.24	333.15	129.6	0.3
0.6	0.24	343.15	131.5	0.3
0.6	0.24	353.15	133.7	0.3
0.7	0.21	303.15	144.6	0.3
0.7	0.21	313.15	146.4	0.3
0.7	0.21	323.15	148.1	0.3
0.7	0.21	333.15	150	0.3
0.7	0.21	343.15	152.1	0.3
0.7	0.21	353.15	154.6	0.3
0.8	0.16	303.15	170.3	0.3
0.8	0.16	313.15	174.1	0.3
0.8	0.16	323.15	176.2	0.3
0.8	0.16	333.15	178.7	0.3
0.8	0.16	343.15	181.3	0.3
0.8	0.16	353.15	184	0.3

System: tetraethylene glycol + lithium chloride + water; phases: Liquid
Fixed: Pressure, kPa = 101
Property: Molar heat capacity at constant pressure, J/K/mol (Liquid); method: Vacuum adiabatic calorimetry
Mass fraction of tetraethylene glycol	Mass fraction of water	Temperature, K	Molar heat capacity at constant pressure, J/K/mol	uncertainty
0.6	0.24	303.15	114.5	0.2
0.6	0.24	313.15	116	0.3
0.6	0.24	323.15	117.5	0.3
0.6	0.24	333.15	119.2	0.3
0.6	0.24	343.15	120.8	0.3
0.6	0.24	353.15	122.5	0.3
0.7	0.21	303.15	137.3	0.3
0.7	0.21	313.15	138.9	0.3
0.7	0.21	323.15	140.5	0.3
0.7	0.21	333.15	142.4	0.3
0.7	0.21	343.15	144.3	0.3
0.7	0.21	353.15	146.3	0.3
0.8	0.16	303.15	182.6	0.3
0.8	0.16	313.15	184.2	0.3
0.8	0.16	323.15	185.5	0.3
0.8	0.16	333.15	187.5	0.3
0.8	0.16	343.15	189.6	0.3
0.8	0.16	353.15	191.9	0.3

System: 1,2-propanediol + lithium chloride + water; phases: Liquid
Fixed: Pressure, kPa = 101
Property: Molar heat capacity at constant pressure, J/K/mol (Liquid); method: Vacuum adiabatic calorimetry
Mass fraction of 1,2-propanediol	Mass fraction of water	Temperature, K	Molar heat capacity at constant pressure, J/K/mol	uncertainty
0.5	0.25	303.15	96.6	0.2
0.5	0.25	313.15	98.1	0.2
0.5	0.25	323.15	99.6	0.2
0.5	0.25	333.15	101.2	0.2
0.5	0.25	343.15	102.8	0.2
0.5	0.25	353.15	104.6	0.2
0.6	0.24	303.15	104.5	0.2
0.6	0.24	313.15	106.3	0.2
0.6	0.24	323.15	108	0.2
0.6	0.24	333.15	109.8	0.2
0.6	0.24	343.15	111.7	0.2
0.6	0.24	353.15	113.6	0.2
0.7	0.21	303.15	119.9	0.3
0.7	0.21	313.15	122.1	0.3
0.7	0.21	323.15	124.3	0.3
0.7	0.21	333.15	126.6	0.3
0.7	0.21	343.15	128.9	0.3
0.7	0.21	353.15	131.2	0.3
0.8	0.16	303.15	136.7	0.3
0.8	0.16	313.15	139.8	0.3
0.8	0.16	323.15	142.8	0.3
0.8	0.16	333.15	146	0.3
0.8	0.16	343.15	149.2	0.3
0.8	0.16	353.15	152.3	0.3

System: lithium chloride + water + 4-oxa-1,7-heptanediol; phases: Liquid
Fixed: Pressure, kPa = 101
Property: Molar heat capacity at constant pressure, J/K/mol (Liquid); method: Vacuum adiabatic calorimetry
Mass fraction of 4-oxa-1,7-heptanediol	Mass fraction of water	Temperature, K	Molar heat capacity at constant pressure, J/K/mol	uncertainty
0.5	0.25	303.15	106.5	0.2
0.5	0.25	313.15	107.8	0.2
0.5	0.25	323.15	109.1	0.2
0.5	0.25	333.15	110.5	0.2
0.5	0.25	343.15	112.1	0.2
0.5	0.25	353.15	113.7	0.2
0.6	0.24	303.15	119.7	0.3
0.6	0.24	313.15	121.4	0.3
0.6	0.24	323.15	123.2	0.3
0.6	0.24	333.15	125.3	0.3
0.6	0.24	343.15	127.3	0.3
0.6	0.24	353.15	129.5	0.3
0.7	0.21	303.15	140.9	0.3
0.7	0.21	313.15	143	0.3
0.7	0.21	323.15	145.2	0.3
0.7	0.21	333.15	147.6	0.3
0.7	0.21	343.15	149.8	0.3
0.7	0.21	353.15	152.6	0.3
0.8	0.16	303.15	172.8	0.3
0.8	0.16	313.15	175.6	0.3
0.8	0.16	323.15	178.5	0.3
0.8	0.16	333.15	181.7	0.3
0.8	0.16	343.15	184.7	0.3
0.8	0.16	353.15	188	0.3

System: diethylene glycol + lithium bromide + water; phases: Liquid
Fixed: Pressure, kPa = 101
Property: Molar heat capacity at constant pressure, J/K/mol (Liquid); method: Vacuum adiabatic calorimetry
Mass fraction of diethylene glycol	Mass fraction of water	Temperature, K	Molar heat capacity at constant pressure, J/K/mol	uncertainty
0.5	0.25	303.15	100.5	0.2
0.5	0.25	313.15	101.6	0.2
0.5	0.25	323.15	102.8	0.2
0.5	0.25	333.15	104.2	0.2
0.5	0.25	343.15	105.5	0.2
0.5	0.25	353.15	107.1	0.2
0.6	0.24	303.15	110.5	0.2
0.6	0.24	313.15	112.3	0.2
0.6	0.24	323.15	113.9	0.2
0.6	0.24	333.15	115.7	0.3
0.6	0.24	343.15	117.6	0.3
0.6	0.24	353.15	119.6	0.3
0.7	0.21	303.15	125.3	0.3
0.7	0.21	313.15	127.4	0.3
0.7	0.21	323.15	129.4	0.3
0.7	0.21	333.15	131.5	0.3
0.7	0.21	343.15	133.6	0.3
0.7	0.21	353.15	135.7	0.3
0.8	0.16	303.15	150.2	0.3
0.8	0.16	313.15	152.3	0.3
0.8	0.16	323.15	154.6	0.3
0.8	0.16	333.15	157.2	0.3
0.8	0.16	343.15	159.6	0.3
0.8	0.16	353.15	162.1	0.3

System: triethylene glycol + lithium bromide + water; phases: Liquid
Fixed: Pressure, kPa = 101
Property: Molar heat capacity at constant pressure, J/K/mol (Liquid); method: Vacuum adiabatic calorimetry
Mass fraction of triethylene glycol	Mass fraction of water	Temperature, K	Molar heat capacity at constant pressure, J/K/mol	uncertainty
0.5	0.25	303.15	116.7	0.3
0.5	0.25	313.15	118.1	0.3
0.5	0.25	323.15	119.4	0.3
0.5	0.25	333.15	121.1	0.3
0.5	0.25	343.15	122.7	0.3
0.5	0.25	353.15	124.4	0.3
0.6	0.24	303.15	133	0.3
0.6	0.24	313.15	134.6	0.3
0.6	0.24	323.15	136.2	0.3
0.6	0.24	333.15	137.9	0.3
0.6	0.24	343.15	139.8	0.3
0.6	0.24	353.15	141.9	0.3
0.7	0.21	303.15	148.8	0.3
0.7	0.21	313.15	150.8	0.3
0.7	0.21	323.15	152.8	0.3
0.7	0.21	333.15	155.1	0.3
0.7	0.21	343.15	157.3	0.3
0.7	0.21	353.15	159.6	0.3
0.8	0.16	303.15	174.4	0.3
0.8	0.16	313.15	176.8	0.3
0.8	0.16	323.15	179.2	0.3
0.8	0.16	333.15	181.8	0.3
0.8	0.16	343.15	184.3	0.3
0.8	0.16	353.15	186.8	0.3

System: tetraethylene glycol + lithium bromide + water; phases: Liquid
Fixed: Pressure, kPa = 101
Property: Molar heat capacity at constant pressure, J/K/mol (Liquid); method: Vacuum adiabatic calorimetry
Mass fraction of tetraethylene glycol	Mass fraction of water	Temperature, K	Molar heat capacity at constant pressure, J/K/mol	uncertainty
0.5	0.25	303.15	109.5	0.2
0.5	0.25	313.15	110.7	0.2
0.5	0.25	323.15	111.8	0.2
0.5	0.25	333.15	113.2	0.2
0.5	0.25	343.15	114.6	0.2
0.5	0.25	353.15	116	0.3
0.6	0.24	303.15	122.7	0.3
0.6	0.24	313.15	124.2	0.3
0.6	0.24	323.15	125.7	0.3
0.6	0.24	333.15	127.2	0.3
0.6	0.24	343.15	128.7	0.3
0.6	0.24	353.15	130.4	0.3
0.7	0.21	303.15	148.8	0.3
0.7	0.21	313.15	150.6	0.3
0.7	0.21	323.15	152.4	0.3
0.7	0.21	333.15	154.3	0.3
0.7	0.21	343.15	156.2	0.3
0.7	0.21	353.15	158.3	0.3
0.8	0.16	303.15	187.9	0.3
0.8	0.16	313.15	190	0.3
0.8	0.16	323.15	192.3	0.3
0.8	0.16	333.15	194.5	0.3
0.8	0.16	343.15	196.7	0.3
0.8	0.16	353.15	198.9	0.3

System: 1,2-propanediol + lithium bromide + water; phases: Liquid
Fixed: Pressure, kPa = 101
Property: Molar heat capacity at constant pressure, J/K/mol (Liquid); method: Vacuum adiabatic calorimetry
Mass fraction of 1,2-propanediol	Mass fraction of water	Temperature, K	Molar heat capacity at constant pressure, J/K/mol	uncertainty
0.5	0.25	303.15	104.5	0.2
0.5	0.25	313.15	105.8	0.2
0.5	0.25	323.15	107	0.2
0.5	0.25	333.15	108.6	0.2
0.5	0.25	343.15	110	0.2
0.5	0.25	353.15	111.8	0.2
0.6	0.24	303.15	115.5	0.3
0.6	0.24	313.15	117.2	0.3
0.6	0.24	323.15	118.9	0.3
0.6	0.24	333.15	120.7	0.3
0.6	0.24	343.15	122.5	0.3
0.6	0.24	353.15	124.5	0.3
0.7	0.21	303.15	125.2	0.3
0.7	0.21	313.15	127.5	0.3
0.7	0.21	323.15	129.7	0.3
0.7	0.21	333.15	132	0.3
0.7	0.21	343.15	134.2	0.3
0.7	0.21	353.15	136.4	0.3
0.8	0.16	303.15	139.7	0.3
0.8	0.16	313.15	142.8	0.3
0.8	0.16	323.15	145.9	0.3
0.8	0.16	333.15	149.2	0.3
0.8	0.16	343.15	152.4	0.3
0.8	0.16	353.15	155.5	0.3

System: lithium bromide + water + 4-oxa-1,7-heptanediol; phases: Liquid
Fixed: Pressure, kPa = 101
Property: Molar heat capacity at constant pressure, J/K/mol (Liquid); method: Vacuum adiabatic calorimetry
Mass fraction of 4-oxa-1,7-heptanediol	Mass fraction of water	Temperature, K	Molar heat capacity at constant pressure, J/K/mol	uncertainty
0.5	0.25	303.15	104.3	0.2
0.5	0.25	313.15	105.4	0.2
0.5	0.25	323.15	106.7	0.2
0.5	0.25	333.15	108	0.2
0.5	0.25	343.15	109.3	0.2
0.5	0.25	353.15	110.9	0.2
0.6	0.24	303.15	121.3	0.3
0.6	0.24	313.15	122.8	0.3
0.6	0.24	323.15	124.3	0.3
0.6	0.24	333.15	126	0.3
0.6	0.24	343.15	127.7	0.3
0.6	0.24	353.15	129.4	0.3
0.7	0.21	303.15	137.4	0.3
0.7	0.21	313.15	139.7	0.3
0.7	0.21	323.15	141.8	0.3
0.7	0.21	333.15	144.4	0.3
0.7	0.21	343.15	147	0.3
0.7	0.21	353.15	149.7	0.3
0.8	0.16	303.15	170	0.3
0.8	0.16	313.15	173.1	0.3
0.8	0.16	323.15	176.2	0.3
0.8	0.16	333.15	179.3	0.3
0.8	0.16	343.15	182.7	0.3
0.8	0.16	353.15	186.1	0.3
