Measured thermophysical data. Thermochemistry of adducts of some bivalent transition metal bromides with pyridine
Source: Thermochim. Acta, 2007, 10.1016/j.tca.2007.01.034
Compound 1: pyridine, C5H5N, InChI=1S/C5H5N/c1-2-4-6-5-3-1/h1-5H
Compound 2: manganese(II) bromide, Br2Mn, InChI=1S/2BrH.Mn/h2*1H;/q;;+2/p-2
Compound 3: cobalt(II) bromide, Br2Co, InChI=1S/2BrH.Co/h2*1H;/q;;+2/p-2
Compound 4: nickel bromide, Br2Ni, InChI=1S/2BrH.Ni/h2*1H;/q;;+2/p-2
Compound 5: copper dibromide, Br2Cu, InChI=1S/2BrH.Cu/h2*1H;/q;;+2/p-2
Compound 6: zinc bromide, Br2Zn, InChI=1S/2BrH.Zn/h2*1H;/q;;+2/p-2
Compound 7: manganese, dibromobis(pyridine)-, C10H10Br2MnN2, InChI=1S/2C5H5N.2BrH.Mn/c2*1-2-4-6-5-3-1;;;/h2*1-5H;2*1H;/q;;;;+2/p-2
Compound 8: cobalt, dibromobis(pyridine)-, C10H10Br2CoN2, InChI=1S/2C5H5N.2BrH.Co/c2*1-2-4-6-5-3-1;;;/h2*1-5H;2*1H;/q;;;;+2/p-2
Compound 9: nickel, dibromobis(pyridine)-, C10H10Br2N2Ni, InChI=1S/2C5H5N.2BrH.Ni/c2*1-2-4-6-5-3-1;;;/h2*1-5H;2*1H;/q;;;;+2/p-2
Compound 10: copper, dibromobis(pyridine)-, C10H10Br2CuN2, InChI=1S/2C5H5N.2BrH.Cu/c2*1-2-4-6-5-3-1;;;/h2*1-5H;2*1H;/q;;;;+2/p-2
Compound 11: dibromobis(pyridine)zinc, C10H10Br2N2Zn, InChI=1S/2C5H5N.2BrH.Zn/c2*1-2-4-6-5-3-1;;;/h2*1-5H;2*1H;/q;;;;+2/p-2

Reaction: -2 pyridine + -1 manganese(II) bromide + 1 manganese, dibromobis(pyridine)-
Property: Molar enthalpy of reaction, kJ/mol
-110.72

Reaction: -2 pyridine + -1 cobalt(II) bromide + 1 cobalt, dibromobis(pyridine)-
Property: Molar enthalpy of reaction, kJ/mol
-117.41

Reaction: -2 pyridine + -1 nickel bromide + 1 nickel, dibromobis(pyridine)-
Property: Molar enthalpy of reaction, kJ/mol
-114.37

Reaction: -2 pyridine + -1 copper dibromide + 1 copper, dibromobis(pyridine)-
Property: Molar enthalpy of reaction, kJ/mol
-100.55

Reaction: -2 pyridine + -1 zinc bromide + 1 dibromobis(pyridine)zinc
Property: Molar enthalpy of reaction, kJ/mol
-79.68
