Measured thermophysical data. Binodal Curves and Tie Line Data of the Water - Propionic Acid - Isobutyl  Acetate at T = (298.2, 308.2, 318.2, and 328.2) K
Source: Thermochim. Acta, 2012, 10.1016/j.tca.2012.04.020
Compound 1: water, H2O, InChI=1S/H2O/h1H2
Compound 2: 2-methylpropyl ethanoate, C6H12O2, InChI=1S/C6H12O2/c1-5(2)4-8-6(3)7/h5H,4H2,1-3H3, purity 99%
Compound 3: propanoic acid, C3H6O2, InChI=1S/C3H6O2/c1-2-3(4)5/h2H2,1H3,(H,4,5), purity 99%

System: 2-methylpropyl ethanoate + water; phases: Liquid mixture 1, Liquid mixture 2
Fixed: Pressure, kPa = 101
Property: Mass fraction of water (Liquid mixture 1); method: Cloud-point method
Temperature, K	Mass fraction of water	uncertainty
298.2	0.014	0.002
308.2	0.016	0.002
318.2	0.018	0.002
328.2	0.021	0.002

System: 2-methylpropyl ethanoate + water; phases: Liquid mixture 2, Liquid mixture 1
Fixed: Pressure, kPa = 101
Property: Mass fraction of water (Liquid mixture 2); method: Cloud-point method
Temperature, K	Mass fraction of water	uncertainty
298.2	0.992	0.008
308.2	0.991	0.002
318.2	0.99	0.002
328.2	0.988	0.012

System: propanoic acid + 2-methylpropyl ethanoate + water; phases: Liquid mixture 1, Liquid mixture 2
Fixed: Pressure, kPa = 101
Property: Mass fraction of propanoic acid (Liquid mixture 1); method: Cloud-point method
Temperature, K	Mass fraction of water	Mass fraction of propanoic acid	uncertainty
298.2	0.014	0	
298.2	0.022	0.052	0.012
298.2	0.031	0.097	0.01
298.2	0.041	0.145	0.009
298.2	0.052	0.19	0.008
298.2	0.063	0.234	0.008
298.2	0.076	0.277	0.006
298.2	0.093	0.318	0.005
298.2	0.113	0.355	0.004
298.2	0.133	0.39	0.003
298.2	0.161	0.417	0.003
298.2	0.186	0.433	0.002
298.2	0.241	0.448	0.002
298.2	0.298	0.445	0.002
298.2	0.355	0.433	0.002
298.2	0.413	0.413	0.002
298.2	0.475	0.39	0.002
298.2	0.54	0.361	0.002
298.2	0.607	0.326	0.002
298.2	0.67	0.289	0.002
298.2	0.73	0.245	0.003
298.2	0.785	0.198	0.003
298.2	0.839	0.148	0.003
298.2	0.89	0.099	0.003
298.2	0.941	0.05	0.003
298.2	0.992	0	
308.2	0.016	0	
308.2	0.025	0.05	0.01
308.2	0.035	0.097	0.01
308.2	0.045	0.144	0.009
308.2	0.056	0.19	0.008
308.2	0.068	0.233	0.007
308.2	0.082	0.276	0.006
308.2	0.099	0.316	0.004
308.2	0.12	0.352	0.004
308.2	0.145	0.385	0.003
308.2	0.177	0.411	0.002
308.2	0.218	0.43	0.002
308.2	0.235	0.433	0.002
308.2	0.29	0.436	0.002
308.2	0.347	0.422	0.002
308.2	0.406	0.406	0.002
308.2	0.469	0.383	0.002
308.2	0.534	0.356	0.002
308.2	0.601	0.325	0.002
308.2	0.666	0.287	0.002
308.2	0.728	0.243	0.003
308.2	0.784	0.197	0.003
308.2	0.838	0.149	0.003
308.2	0.889	0.099	0.003
308.2	0.94	0.05	0.003
308.2	0.991	0	
318.2	0.018	0	
318.2	0.029	0.049	0.009
318.2	0.039	0.097	0.01
318.2	0.049	0.143	0.008
318.2	0.061	0.188	0.007
318.2	0.074	0.232	0.006
318.2	0.089	0.274	0.005
318.2	0.108	0.313	0.004
318.2	0.13	0.348	0.003
318.2	0.157	0.38	0.003
318.2	0.191	0.404	0.002
318.2	0.224	0.417	0.002
318.2	0.235	0.421	0.002
318.2	0.284	0.423	0.002
318.2	0.339	0.414	0.002
318.2	0.398	0.399	0.002
318.2	0.462	0.378	0.002
318.2	0.528	0.352	0.002
318.2	0.597	0.322	0.002
318.2	0.663	0.284	0.002
318.2	0.724	0.242	0.003
318.2	0.782	0.196	0.003
318.2	0.844	0.142	0.003
318.2	0.887	0.1	0.003
318.2	0.94	0.05	0.003
318.2	0.99	0	
328.2	0.021	0	
328.2	0.031	0.049	0.009
328.2	0.042	0.096	0.009
328.2	0.052	0.143	0.009
328.2	0.064	0.188	0.007
328.2	0.078	0.232	0.006
328.2	0.094	0.272	0.005
328.2	0.113	0.31	0.004
328.2	0.137	0.346	0.003
328.2	0.166	0.375	0.003
328.2	0.2	0.398	0.002
328.2	0.22	0.407	0.002
328.2	0.251	0.411	0.002
328.2	0.276	0.414	0.002
328.2	0.335	0.41	0.002
328.2	0.395	0.395	0.002
328.2	0.458	0.375	0.002
328.2	0.525	0.348	0.002
328.2	0.591	0.319	0.002
328.2	0.66	0.282	0.002
328.2	0.723	0.241	0.003
328.2	0.78	0.196	0.003
328.2	0.836	0.148	0.003
328.2	0.887	0.099	0.003
328.2	0.937	0.05	0.003
328.2	0.988	0	

System: propanoic acid + 2-methylpropyl ethanoate + water; phases: Liquid mixture 1, Liquid mixture 2
Fixed: Pressure, kPa = 101.3
Property: Mass fraction of propanoic acid (Liquid mixture 1); method: Titration method
Property: Mass fraction of water (Liquid mixture 2); method: Titration method
Property: Mass fraction of propanoic acid (Liquid mixture 2); method: Titration method
Temperature, K	Mass fraction of water	Mass fraction of propanoic acid	uncertainty	Mass fraction of water	uncertainty	Mass fraction of propanoic acid	uncertainty
298.2	0.919	0.072	0.003	0.041	0.002	0.147	
298.2	0.864	0.125	0.005	0.068	0.003	0.253	
298.2	0.811	0.175	0.006	0.101	0.004	0.331	
298.2	0.764	0.217	0.007	0.135	0.005	0.388	
298.2	0.715	0.256	0.008	0.173	0.006	0.425	
298.2	0.677	0.285	0.009	0.233	0.009	0.446	
308.2	0.927	0.064	0.003	0.046	0.003	0.151	
308.2	0.868	0.119	0.004	0.077	0.003	0.258	
308.2	0.814	0.171	0.006	0.109	0.004	0.334	
308.2	0.764	0.214	0.007	0.145	0.005	0.385	
308.2	0.724	0.246	0.008	0.171	0.006	0.407	
308.2	0.687	0.271	0.009	0.206	0.007	0.426	
318.2	0.932	0.057	0.003	0.044	0.002	0.119	
318.2	0.876	0.11	0.004	0.068	0.003	0.212	
318.2	0.833	0.151	0.005	0.093	0.003	0.283	
318.2	0.791	0.189	0.006	0.124	0.004	0.339	
318.2	0.744	0.227	0.007	0.157	0.005	0.379	
318.2	0.698	0.26	0.008	0.197	0.007	0.407	
328.2	0.931	0.056	0.003	0.048	0.003	0.121	
328.2	0.877	0.109	0.004	0.071	0.003	0.214	
328.2	0.834	0.15	0.005	0.101	0.004	0.286	
328.2	0.79	0.188	0.006	0.134	0.005	0.341	
328.2	0.747	0.222	0.007	0.173	0.006	0.38	
328.2	0.704	0.254	0.008	0.218	0.008	0.407	
