Measured thermophysical data. DSC determination of partial ternary phase diagrams of methanol/sodium chloride/water and propylene glycol/sodium chloride/water and their applications for synthesized diagrams
Source: Thermochim. Acta, 2011, 10.1016/j.tca.2010.10.012
Compound 1: methanol, CH4O, InChI=1S/CH4O/c1-2/h2H,1H3, purity 99.5%
Compound 2: water, H2O, InChI=1S/H2O/h1H2, purity 99.9%
Compound 3: 1,2-propanediol, C3H8O2, InChI=1S/C3H8O2/c1-3(5)2-4/h3-5H,2H2,1H3, purity 99.5%
Compound 4: sodium chloride, ClNa, InChI=1S/ClH.Na/h1H;/q;+1/p-1, purity 99.5%

System: methanol + water; phases: Liquid, Crystal
Fixed: Pressure, kPa = 101.3
Property: Solid-liquid equilibrium temperature, K (Liquid); method: DTA
Molality, mol/kg of methanol	Solid-liquid equilibrium temperature, K	uncertainty
1	270.86	0.39
2	268.695	0.387
3	266.855	0.387
4	265.355	0.387
5	263.345	0.387

System: 1,2-propanediol + water; phases: Liquid, Crystal
Fixed: Pressure, kPa = 101.3
Property: Solid-liquid equilibrium temperature, K (Liquid); method: DTA
Molality, mol/kg of 1,2-propanediol	Solid-liquid equilibrium temperature, K	uncertainty
1	271.015	0.387
2	268.725	0.387
3	266.13	0.39
4	263.845	0.387
5	261.245	0.387

System: methanol + sodium chloride + water; phases: Liquid, Crystal
Fixed: Pressure, kPa = 101.3
Property: Solid-liquid equilibrium temperature, K (Liquid); method: DTA
Mass fraction of water	Solvent: Mass ratio of component to other component of binary solvent of methanol	Solid-liquid equilibrium temperature, K	uncertainty
0.8	15	258.325	0.388
0.81	10	259.305	0.388
0.82	5	260.05	0.4
0.84	15	262	0.39
0.85	10	262.665	0.388
0.88	5	264.2	0.39
0.88	15	265.02	0.39
0.89	10	265.11	0.39
0.91	5	266.38	0.39
0.92	15	267.865	0.388
0.93	10	268.135	0.388
0.94	5	268.8	0.39
0.97	5	270.685	0.388

System: 1,2-propanediol + sodium chloride + water; phases: Liquid, Crystal
Fixed: Pressure, kPa = 101.3
Property: Solid-liquid equilibrium temperature, K (Liquid); method: DTA
Mass fraction of water	Solvent: Mass ratio of component to other component of binary solvent of 1,2-propanediol	Solid-liquid equilibrium temperature, K	uncertainty
0.67	10	255.65	0.4
0.7	5	256.845	0.388
0.8	15	265.035	0.387
0.81	10	265.365	0.388
0.82	5	265.035	0.388
0.84	15	267.125	0.387
0.85	10	267.05	0.4
0.88	5	268.365	0.387
0.88	15	268.63	0.39
0.89	10	269.045	0.387
0.91	5	269.635	0.387
0.92	15	270.55	0.4
0.93	10	270.56	0.39
0.94	5	270.81	0.39
0.97	5	272.305	0.387
