Measured thermophysical data. Vapor pressure and thermal stability of ionic liquid 1-butyl-3-methylimidazolium bis(trifluoromethylsulfonyl)imide
Source: Thermochim. Acta, 2005, 10.1016/j.tca.2005.08.035
Compound 1: 1-butyl-3-methylimidazolium bis(trifluoromethylsulfonyl)imide, C10H15F6N3O4S2, InChI=1S/C8H15N2.C2F6NO4S2/c1-3-4-5-10-7-6-9(2)8-10;3-1(4,5)14(10,11)9-15(12,13)2(6,7)8/h6-8H,3-5H2,1-2H3;/q+1;-1, purity 98%

System: 1-butyl-3-methylimidazolium bis(trifluoromethylsulfonyl)imide; phases: Liquid, Gas
Property: Vapor or sublimation pressure, kPa (Liquid); method: Calculated from knudsen effusion weight loss
Temperature, K	Vapor or sublimation pressure, kPa	uncertainty
457.66	1.22e-05	1.3e-06
467.52	2.29e-05	2.4e-06
477.68	5.07e-05	5.4e-06
487.54	8.74e-05	9.3e-06
497.53	0.000152	1.6e-05
507.54	0.000274	2.9e-05
517.45	0.000466	4.9e-05
