Measured thermophysical data. Densities and viscosities of binary mixtures of ethylmethylketone  and 2-alkanols; application of the ERAS model and cubic EOS
Source: Thermochim. Acta, 2013, 10.1016/j.tca.2012.12.008
Compound 1: butanone, C4H8O, InChI=1S/C4H8O/c1-3-4(2)5/h3H2,1-2H3, purity 99%
Compound 2: propan-2-ol, C3H8O, InChI=1S/C3H8O/c1-3(2)4/h3-4H,1-2H3, purity 99%
Compound 3: butan-2-ol, C4H10O, InChI=1S/C4H10O/c1-3-4(2)5/h4-5H,3H2,1-2H3, purity 99%
Compound 4: pentan-2-ol, C5H12O, InChI=1S/C5H12O/c1-3-4-5(2)6/h5-6H,3-4H2,1-2H3, purity 99%
Compound 5: 2-heptanol, C7H16O, InChI=1S/C7H16O/c1-3-4-5-6-7(2)8/h7-8H,3-6H2,1-2H3, purity 99%
Compound 6: 2-hexanol, C6H14O, InChI=1S/C6H14O/c1-3-4-5-6(2)7/h6-7H,3-5H2,1-2H3, purity 99%

System: butanone; phases: Liquid
Fixed: Pressure, kPa = 101
Property: Viscosity, Pa*s (Liquid); method: Capillary tube (Ostwald; Ubbelohde) method
Temperature, K	Viscosity, Pa*s	uncertainty
298.15	0.000381	4e-06
303.15	0.000368	4e-06
308.15	0.000352	4e-06
313.15	0.000339	4e-06

System: butanone; phases: Liquid
Fixed: Pressure, kPa = 101
Property: Mass density, kg/m3 (Liquid); method: Vibrating tube method
Temperature, K	Mass density, kg/m3	uncertainty
298.15	799.48	0.24
303.15	794.63	0.24
308.15	789.9	0.24
313.15	785.52	0.24

System: propan-2-ol; phases: Liquid
Fixed: Pressure, kPa = 101
Property: Viscosity, Pa*s (Liquid); method: Capillary tube (Ostwald; Ubbelohde) method
Temperature, K	Viscosity, Pa*s	uncertainty
298.15	0.002055	1.6e-05
303.15	0.001788	1.4e-05
308.15	0.001563	1.2e-05
313.15	0.001379	1.1e-05

System: propan-2-ol; phases: Liquid
Fixed: Pressure, kPa = 101
Property: Mass density, kg/m3 (Liquid); method: Vibrating tube method
Temperature, K	Mass density, kg/m3	uncertainty
298.15	781.09	0.24
303.15	776.77	0.24
308.15	771.87	0.24
313.15	767.37	0.24

System: butan-2-ol; phases: Liquid
Fixed: Pressure, kPa = 101
Property: Viscosity, Pa*s (Liquid); method: Capillary tube (Ostwald; Ubbelohde) method
Temperature, K	Viscosity, Pa*s	uncertainty
298.15	0.003105	2.3e-05
303.15	0.002597	2e-05
308.15	0.002153	1.6e-05
313.15	0.001734	1.3e-05

System: butan-2-ol; phases: Liquid
Fixed: Pressure, kPa = 101
Property: Mass density, kg/m3 (Liquid); method: Vibrating tube method
Temperature, K	Mass density, kg/m3	uncertainty
298.15	802.7	0.24
303.15	798.3	0.24
308.15	793.57	0.24
313.15	789.15	0.24

System: pentan-2-ol; phases: Liquid
Fixed: Pressure, kPa = 101
Property: Viscosity, Pa*s (Liquid); method: Capillary tube (Ostwald; Ubbelohde) method
Temperature, K	Viscosity, Pa*s	uncertainty
298.15	0.003478	2.6e-05
303.15	0.002801	2.1e-05
308.15	0.002335	1.8e-05
313.15	0.001993	1.5e-05

System: pentan-2-ol; phases: Liquid
Fixed: Pressure, kPa = 101
Property: Mass density, kg/m3 (Liquid); method: Vibrating tube method
Temperature, K	Mass density, kg/m3	uncertainty
298.15	805.41	0.24
303.15	801.21	0.24
308.15	796.64	0.24
313.15	792.51	0.24

System: 2-heptanol; phases: Liquid
Fixed: Pressure, kPa = 101
Property: Viscosity, Pa*s (Liquid); method: Capillary tube (Ostwald; Ubbelohde) method
Temperature, K	Viscosity, Pa*s	uncertainty
298.15	0.005003	3.7e-05
303.15	0.004152	3.1e-05
308.15	0.003478	2.6e-05
313.15	0.002853	2.2e-05

System: 2-heptanol; phases: Liquid
Fixed: Pressure, kPa = 101
Property: Mass density, kg/m3 (Liquid); method: Vibrating tube method
Temperature, K	Mass density, kg/m3	uncertainty
298.15	813.18	0.24
303.15	809.26	0.24
308.15	805.01	0.24
313.15	801.14	0.24

System: 2-hexanol; phases: Liquid
Fixed: Pressure, kPa = 101
Property: Viscosity, Pa*s (Liquid); method: Capillary tube (Ostwald; Ubbelohde) method
Temperature, K	Viscosity, Pa*s	uncertainty
298.15	0.004101	3.1e-05
303.15	0.003411	2.6e-05
308.15	0.002819	2.1e-05
313.15	0.002219	1.7e-05

System: 2-hexanol; phases: Liquid
Fixed: Pressure, kPa = 101
Property: Mass density, kg/m3 (Liquid); method: Vibrating tube method
Temperature, K	Mass density, kg/m3	uncertainty
298.15	810.14	0.24
303.15	806.13	0.24
308.15	802.06	0.24
313.15	797.96	0.24

System: butan-2-ol + butanone; phases: Liquid
Fixed: Pressure, kPa = 101
Property: Viscosity, Pa*s (Liquid); method: Capillary tube (Ostwald; Ubbelohde) method
Temperature, K	Mole fraction of butanone	Viscosity, Pa*s	uncertainty
298.15	0	0.003105	2.3e-05
298.15	0.0833	0.002502	1.9e-05
298.15	0.161	0.002081	1.6e-05
298.15	0.2402	0.001749	1.3e-05
298.15	0.3498	0.001428	1.1e-05
298.15	0.441	0.001213	1e-05
298.15	0.5609	0.000981	8e-06
298.15	0.6498	0.000824	7e-06
298.15	0.7398	0.000671	6e-06
298.15	0.8501	0.000528	5e-06
298.15	0.9405	0.000434	4e-06
298.15	1	0.000381	4e-06
303.15	0	0.002597	2e-05
303.15	0.0833	0.002135	1.6e-05
303.15	0.161	0.001791	1.4e-05
303.15	0.2402	0.001533	1.2e-05
303.15	0.3498	0.001284	1e-05
303.15	0.441	0.001078	9e-06
303.15	0.5609	0.000886	7e-06
303.15	0.6498	0.000768	6e-06
303.15	0.7398	0.000638	5e-06
303.15	0.8501	0.000506	5e-06
303.15	0.9405	0.000417	4e-06
303.15	1	0.000368	4e-06
308.15	0	0.002153	1.6e-05
308.15	0.0833	0.001832	1.4e-05
308.15	0.161	0.001571	1.2e-05
308.15	0.2402	0.001355	1.1e-05
308.15	0.3498	0.001143	9e-06
308.15	0.441	0.000976	8e-06
308.15	0.5609	0.00082	7e-06
308.15	0.6498	0.000706	6e-06
308.15	0.7398	0.000603	5e-06
308.15	0.8501	0.000486	4e-06
308.15	0.9405	0.000397	4e-06
308.15	1	0.000352	4e-06
313.15	0	0.001734	1.3e-05
313.15	0.0833	0.001525	1.2e-05
313.15	0.161	0.001359	1.1e-05
313.15	0.2402	0.001206	9e-06
313.15	0.3498	0.001018	8e-06
313.15	0.441	0.000895	7e-06
313.15	0.5609	0.00076	1e-05
313.15	0.6498	0.000664	6e-06
313.15	0.7398	0.000572	5e-06
313.15	0.8501	0.000465	4e-06
313.15	0.9405	0.00038	4e-06
313.15	1	0.000339	4e-06

System: butan-2-ol + butanone; phases: Liquid
Fixed: Pressure, kPa = 101
Property: Mass density, kg/m3 (Liquid); method: Vibrating tube method
Temperature, K	Mole fraction of butanone	Mass density, kg/m3	uncertainty
298.15	0	802.7	0.24
298.15	0.0833	801.7	0.24
298.15	0.161	800.91	0.24
298.15	0.2402	800.19	0.24
298.15	0.3498	799.4	0.24
298.15	0.441	798.92	0.24
298.15	0.5609	798.55	0.24
298.15	0.6498	798.44	0.24
298.15	0.7398	798.47	0.24
298.15	0.8501	798.73	0.24
298.15	0.9405	799.06	0.24
298.15	1	799.48	0.24
303.15	0	798.3	0.24
303.15	0.0833	797.1	0.24
303.15	0.161	796.26	0.24
303.15	0.2402	795.56	0.24
303.15	0.3498	794.77	0.24
303.15	0.441	794.27	0.24
303.15	0.5609	793.86	0.24
303.15	0.6498	793.74	0.24
303.15	0.7398	793.74	0.24
303.15	0.8501	793.92	0.24
303.15	0.9405	794.23	0.24
303.15	1	794.63	0.24
308.15	0	793.57	0.24
308.15	0.0833	792.46	0.24
308.15	0.161	791.63	0.24
308.15	0.2402	790.81	0.24
308.15	0.3498	789.93	0.24
308.15	0.441	789.42	0.24
308.15	0.5609	789.01	0.24
308.15	0.6498	788.83	0.24
308.15	0.7398	788.83	0.24
308.15	0.8501	789.09	0.24
308.15	0.9405	789.47	0.24
308.15	1	789.9	0.24
313.15	0	789.15	0.24
313.15	0.0833	788.12	0.24
313.15	0.161	787.2	0.24
313.15	0.2402	786.44	0.24
313.15	0.3498	785.56	0.24
313.15	0.441	785.03	0.24
313.15	0.5609	784.61	0.24
313.15	0.6498	784.44	0.24
313.15	0.7398	784.43	0.24
313.15	0.8501	784.68	0.24
313.15	0.9405	785.05	0.24
313.15	1	785.52	0.24

System: butanone + pentan-2-ol; phases: Liquid
Fixed: Pressure, kPa = 101
Property: Viscosity, Pa*s (Liquid); method: Capillary tube (Ostwald; Ubbelohde) method
Temperature, K	Mole fraction of butanone	Viscosity, Pa*s	uncertainty
298.15	0	0.003478	2.6e-05
298.15	0.0852	0.002516	1.9e-05
298.15	0.1643	0.002008	1.5e-05
298.15	0.2456	0.001592	1.2e-05
298.15	0.3511	0.001183	9e-06
298.15	0.4422	0.00092	1e-05
298.15	0.5632	0.000702	6e-06
298.15	0.6508	0.00062	1e-05
298.15	0.7416	0.000569	5e-06
298.15	0.8512	0.00048	1e-05
298.15	0.941	0.000428	4e-06
298.15	1	0.000381	4e-06
303.15	0	0.002801	2.1e-05
303.15	0.0852	0.002204	1.7e-05
303.15	0.1643	0.001786	1.4e-05
303.15	0.2456	0.001439	1.1e-05
303.15	0.3511	0.001103	9e-06
303.15	0.4422	0.000891	7e-06
303.15	0.5632	0.000693	6e-06
303.15	0.6508	0.000608	5e-06
303.15	0.7416	0.000548	5e-06
303.15	0.8512	0.000463	4e-06
303.15	0.941	0.000407	4e-06
303.15	1	0.000368	4e-06
308.15	0	0.002335	1.8e-05
308.15	0.0852	0.001894	1.5e-05
308.15	0.1643	0.001581	1.2e-05
308.15	0.2456	0.001316	1e-05
308.15	0.3511	0.001038	8e-06
308.15	0.4422	0.00086	1e-05
308.15	0.5632	0.000683	6e-06
308.15	0.6508	0.000595	5e-06
308.15	0.7416	0.000528	5e-06
308.15	0.8512	0.000445	4e-06
308.15	0.941	0.000385	4e-06
308.15	1	0.000352	4e-06
313.15	0	0.001993	1.5e-05
313.15	0.0852	0.001662	1.3e-05
313.15	0.1643	0.001429	1.1e-05
313.15	0.2456	0.001217	1e-05
313.15	0.3511	0.000992	8e-06
313.15	0.4422	0.000832	7e-06
313.15	0.5632	0.000673	6e-06
313.15	0.6508	0.000583	5e-06
313.15	0.7416	0.000507	5e-06
313.15	0.8512	0.000427	4e-06
313.15	0.941	0.000364	4e-06
313.15	1	0.000339	4e-06

System: butanone + pentan-2-ol; phases: Liquid
Fixed: Pressure, kPa = 101
Property: Mass density, kg/m3 (Liquid); method: Vibrating tube method
Temperature, K	Mole fraction of butanone	Mass density, kg/m3	uncertainty
298.15	0	805.41	0.24
298.15	0.0852	804.2	0.24
298.15	0.1643	803.1	0.24
298.15	0.2456	802.1	0.24
298.15	0.3511	801	0.24
298.15	0.4422	800.24	0.24
298.15	0.5632	799.6	0.24
298.15	0.6508	799.3	0.24
298.15	0.7416	799.14	0.24
298.15	0.8512	799.2	0.24
298.15	0.941	799.31	0.24
298.15	1	799.48	0.24
303.15	0	801.21	0.24
303.15	0.0852	799.84	0.24
303.15	0.1643	798.76	0.24
303.15	0.2456	797.76	0.24
303.15	0.3511	796.62	0.24
303.15	0.4422	795.77	0.24
303.15	0.5632	794.94	0.24
303.15	0.6508	794.56	0.24
303.15	0.7416	794.34	0.24
303.15	0.8512	794.26	0.24
303.15	0.941	794.39	0.24
303.15	1	794.63	0.24
308.15	0	796.64	0.24
308.15	0.0852	795.37	0.24
308.15	0.1643	794.25	0.24
308.15	0.2456	793.2	0.24
308.15	0.3511	791.97	0.24
308.15	0.4422	791.11	0.24
308.15	0.5632	790.27	0.24
308.15	0.6508	789.87	0.24
308.15	0.7416	789.63	0.24
308.15	0.8512	789.56	0.24
308.15	0.941	789.76	0.24
308.15	1	789.9	0.24
313.15	0	792.51	0.24
313.15	0.0852	791.21	0.24
313.15	0.1643	790.05	0.24
313.15	0.2456	788.94	0.24
313.15	0.3511	787.7	0.24
313.15	0.4422	786.83	0.24
313.15	0.5632	785.94	0.24
313.15	0.6508	785.47	0.24
313.15	0.7416	785.18	0.24
313.15	0.8512	785.05	0.24
313.15	0.941	785.17	0.24
313.15	1	785.52	0.24

System: butanone + 2-hexanol; phases: Liquid
Fixed: Pressure, kPa = 101
Property: Viscosity, Pa*s (Liquid); method: Capillary tube (Ostwald; Ubbelohde) method
Temperature, K	Mole fraction of butanone	Viscosity, Pa*s	uncertainty
298.15	0	0.004101	3.1e-05
298.15	0.0874	0.003085	2.3e-05
298.15	0.1661	0.002413	1.8e-05
298.15	0.2482	0.001909	1.5e-05
298.15	0.355	0.001454	1.1e-05
298.15	0.4463	0.001178	9e-06
298.15	0.5671	0.000889	7e-06
298.15	0.6534	0.000718	6e-06
298.15	0.7422	0.000603	5e-06
298.15	0.8547	0.000505	5e-06
298.15	0.942	0.000429	4e-06
298.15	1	0.000381	4e-06
303.15	0	0.003411	2.6e-05
303.15	0.0874	0.002587	2e-05
303.15	0.1661	0.002035	1.6e-05
303.15	0.2482	0.00163	1.3e-05
303.15	0.355	0.001232	1e-05
303.15	0.4463	0.000998	8e-06
303.15	0.5671	0.000775	6e-06
303.15	0.6534	0.000647	5e-06
303.15	0.7422	0.000564	5e-06
303.15	0.8547	0.000479	4e-06
303.15	0.942	0.00041	4e-06
303.15	1	0.000368	4e-06
308.15	0	0.002819	2.1e-05
308.15	0.0874	0.002145	1.6e-05
308.15	0.1661	0.001684	1.3e-05
308.15	0.2482	0.001361	1.1e-05
308.15	0.355	0.001027	8e-06
308.15	0.4463	0.000831	7e-06
308.15	0.5671	0.000678	6e-06
308.15	0.6534	0.000587	5e-06
308.15	0.7422	0.000525	5e-06
308.15	0.8547	0.000449	4e-06
308.15	0.942	0.000388	4e-06
308.15	1	0.000352	4e-06
313.15	0	0.002219	1.7e-05
313.15	0.0874	0.001714	1.3e-05
313.15	0.1661	0.001358	1.1e-05
313.15	0.2482	0.001086	9e-06
313.15	0.355	0.000826	7e-06
313.15	0.4463	0.000692	6e-06
313.15	0.5671	0.000592	5e-06
313.15	0.6534	0.000536	5e-06
313.15	0.7422	0.000487	4e-06
313.15	0.8547	0.000419	4e-06
313.15	0.942	0.000366	4e-06
313.15	1	0.000339	4e-06

System: butanone + 2-hexanol; phases: Liquid
Fixed: Pressure, kPa = 101
Property: Mass density, kg/m3 (Liquid); method: Vibrating tube method
Temperature, K	Mole fraction of butanone	Mass density, kg/m3	uncertainty
298.15	0	810.14	0.24
298.15	0.0874	808.49	0.24
298.15	0.1661	807.21	0.24
298.15	0.2482	805.92	0.24
298.15	0.355	804.36	0.24
298.15	0.4463	803.2	0.24
298.15	0.5671	801.84	0.24
298.15	0.6534	801.04	0.24
298.15	0.7422	800.4	0.24
298.15	0.8547	799.91	0.24
298.15	0.942	799.62	0.24
298.15	1	799.48	0.24
303.15	0	806.13	0.24
303.15	0.0874	804.57	0.24
303.15	0.1661	803.17	0.24
303.15	0.2482	801.8	0.24
303.15	0.355	800.03	0.24
303.15	0.4463	798.8	0.24
303.15	0.5671	797.36	0.24
303.15	0.6534	796.47	0.24
303.15	0.7422	795.74	0.24
303.15	0.8547	795.09	0.24
303.15	0.942	794.76	0.24
303.15	1	794.63	0.24
308.15	0	802.06	0.24
308.15	0.0874	800.48	0.24
308.15	0.1661	799.05	0.24
308.15	0.2482	797.59	0.24
308.15	0.355	795.83	0.24
308.15	0.4463	794.5	0.24
308.15	0.5671	792.94	0.24
308.15	0.6534	792.02	0.24
308.15	0.7422	791.22	0.24
308.15	0.8547	790.45	0.24
308.15	0.942	790.06	0.24
308.15	1	789.9	0.24
313.15	0	797.96	0.24
313.15	0.0874	796.34	0.24
313.15	0.1661	794.87	0.24
313.15	0.2482	793.4	0.24
313.15	0.355	791.6	0.24
313.15	0.4463	790.25	0.24
313.15	0.5671	788.71	0.24
313.15	0.6534	787.75	0.24
313.15	0.7422	786.94	0.24
313.15	0.8547	786.14	0.24
313.15	0.942	785.68	0.24
313.15	1	785.52	0.24

System: propan-2-ol + butanone; phases: Liquid
Fixed: Pressure, kPa = 101
Property: Viscosity, Pa*s (Liquid); method: Capillary tube (Ostwald; Ubbelohde) method
Temperature, K	Mole fraction of butanone	Viscosity, Pa*s	uncertainty
298.15	0	0.002055	1.6e-05
298.15	0.0819	0.001657	1.3e-05
298.15	0.1607	0.001358	1.1e-05
298.15	0.24	0.001142	9e-06
298.15	0.349	0.000939	8e-06
298.15	0.4405	0.000818	7e-06
298.15	0.5593	0.000702	6e-06
298.15	0.6511	0.000626	5e-06
298.15	0.7392	0.000551	5e-06
298.15	0.8496	0.000465	4e-06
298.15	0.937	0.000417	4e-06
298.15	1	0.000381	4e-06
303.15	0	0.001788	1.4e-05
303.15	0.0819	0.001503	1.2e-05
303.15	0.1607	0.001286	1e-05
303.15	0.24	0.00111	9e-06
303.15	0.349	0.000924	7e-06
303.15	0.4405	0.000807	7e-06
303.15	0.5593	0.000686	6e-06
303.15	0.6511	0.000607	5e-06
303.15	0.7392	0.000539	5e-06
303.15	0.8496	0.000456	4e-06
303.15	0.937	0.000406	4e-06
303.15	1	0.000368	4e-06
308.15	0	0.001563	1.2e-05
308.15	0.0819	0.001371	1.1e-05
308.15	0.1607	0.001208	9e-06
308.15	0.24	0.001077	9e-06
308.15	0.349	0.000909	7e-06
308.15	0.4405	0.000795	6e-06
308.15	0.5593	0.000669	6e-06
308.15	0.6511	0.000587	5e-06
308.15	0.7392	0.000527	5e-06
308.15	0.8496	0.000448	4e-06
308.15	0.937	0.000396	4e-06
308.15	1	0.000352	4e-06
313.15	0	0.001379	1.1e-05
313.15	0.0819	0.001245	1e-05
313.15	0.1607	0.001139	9e-06
313.15	0.24	0.001041	8e-06
313.15	0.349	0.000895	7e-06
313.15	0.4405	0.000784	6e-06
313.15	0.5593	0.000654	6e-06
313.15	0.6511	0.000569	5e-06
313.15	0.7392	0.000515	5e-06
313.15	0.8496	0.00044	4e-06
313.15	0.937	0.000386	4e-06
313.15	1	0.000339	4e-06

System: propan-2-ol + butanone; phases: Liquid
Fixed: Pressure, kPa = 101
Property: Mass density, kg/m3 (Liquid); method: Vibrating tube method
Temperature, K	Mole fraction of butanone	Mass density, kg/m3	uncertainty
298.15	0	781.09	0.24
298.15	0.0819	782.25	0.24
298.15	0.1607	783.38	0.24
298.15	0.24	784.62	0.24
298.15	0.349	786.42	0.24
298.15	0.4405	788.05	0.24
298.15	0.5593	790.28	0.24
298.15	0.6511	792.07	0.24
298.15	0.7392	793.87	0.24
298.15	0.8496	796.19	0.24
298.15	0.937	798.09	0.24
298.15	1	799.48	0.24
303.15	0	776.77	0.24
303.15	0.0819	777.85	0.24
303.15	0.1607	778.97	0.24
303.15	0.24	780.11	0.24
303.15	0.349	781.79	0.24
303.15	0.4405	783.31	0.24
303.15	0.5593	785.48	0.24
303.15	0.6511	787.24	0.24
303.15	0.7392	789.03	0.24
303.15	0.8496	791.36	0.24
303.15	0.937	793.22	0.24
303.15	1	794.63	0.24
308.15	0	771.87	0.24
308.15	0.0819	772.94	0.24
308.15	0.1607	774.09	0.24
308.15	0.24	775.17	0.24
308.15	0.349	776.85	0.24
308.15	0.4405	778.38	0.24
308.15	0.5593	780.55	0.24
308.15	0.6511	782.38	0.24
308.15	0.7392	784.21	0.24
308.15	0.8496	786.58	0.24
308.15	0.937	788.46	0.24
308.15	1	789.9	0.24
313.15	0	767.37	0.24
313.15	0.0819	768.48	0.24
313.15	0.1607	769.53	0.24
313.15	0.24	770.66	0.24
313.15	0.349	772.33	0.24
313.15	0.4405	773.86	0.24
313.15	0.5593	776.07	0.24
313.15	0.6511	777.9	0.24
313.15	0.7392	779.74	0.24
313.15	0.8496	782.16	0.24
313.15	0.937	784.11	0.24
313.15	1	785.52	0.24

System: butanone + 2-heptanol; phases: Liquid
Fixed: Pressure, kPa = 101
Property: Viscosity, Pa*s (Liquid); method: Capillary tube (Ostwald; Ubbelohde) method
Temperature, K	Mole fraction of butanone	Viscosity, Pa*s	uncertainty
298.15	0	0.005003	3.7e-05
298.15	0.0834	0.00389	2.9e-05
298.15	0.1619	0.003091	2.3e-05
298.15	0.2426	0.002441	1.9e-05
298.15	0.3491	0.001793	1.4e-05
298.15	0.4375	0.001367	1.1e-05
298.15	0.5661	0.000901	7e-06
298.15	0.6502	0.000712	6e-06
298.15	0.7371	0.000592	5e-06
298.15	0.8498	0.000451	4e-06
298.15	0.9401	0.000398	4e-06
298.15	1	0.000381	4e-06
303.15	0	0.004152	3.1e-05
303.15	0.0834	0.003282	2.5e-05
303.15	0.1619	0.002614	2e-05
303.15	0.2426	0.002083	1.6e-05
303.15	0.3491	0.001528	1.2e-05
303.15	0.4375	0.001184	9e-06
303.15	0.5661	0.000818	7e-06
303.15	0.6502	0.000659	6e-06
303.15	0.7371	0.000552	5e-06
303.15	0.8498	0.000434	4e-06
303.15	0.9401	0.000386	4e-06
303.15	1	0.000368	4e-06
308.15	0	0.003478	2.6e-05
308.15	0.0834	0.002749	2.1e-05
308.15	0.1619	0.00221	1.7e-05
308.15	0.2426	0.001758	1.4e-05
308.15	0.3491	0.001303	1e-05
308.15	0.4375	0.001021	8e-06
308.15	0.5661	0.000746	6e-06
308.15	0.6502	0.000613	5e-06
308.15	0.7371	0.000513	5e-06
308.15	0.8498	0.000416	4e-06
308.15	0.9401	0.000373	4e-06
308.15	1	0.000352	4e-06
313.15	0	0.002853	2.2e-05
313.15	0.0834	0.002282	1.7e-05
313.15	0.1619	0.001846	1.4e-05
313.15	0.2426	0.001478	1.2e-05
313.15	0.3491	0.001095	9e-06
313.15	0.4375	0.000895	7e-06
313.15	0.5661	0.000684	6e-06
313.15	0.6502	0.000581	5e-06
313.15	0.7371	0.000481	4e-06
313.15	0.8498	0.000399	4e-06
313.15	0.9401	0.000361	4e-06
313.15	1	0.000339	4e-06

System: butanone + 2-heptanol; phases: Liquid
Fixed: Pressure, kPa = 101
Property: Mass density, kg/m3 (Liquid); method: Vibrating tube method
Temperature, K	Mole fraction of butanone	Mass density, kg/m3	uncertainty
298.15	0	813.18	0.24
298.15	0.0834	811.4	0.24
298.15	0.1619	809.92	0.24
298.15	0.2426	808.4	0.24
298.15	0.3491	806.63	0.24
298.15	0.4375	805.3	0.24
298.15	0.5661	803.5	0.24
298.15	0.6502	802.41	0.24
298.15	0.7371	801.4	0.24
298.15	0.8498	800.4	0.24
298.15	0.9401	799.73	0.24
298.15	1	799.48	0.24
303.15	0	809.26	0.24
303.15	0.0834	807.5	0.24
303.15	0.1619	805.97	0.24
303.15	0.2426	804.47	0.24
303.15	0.3491	802.53	0.24
303.15	0.4375	801.03	0.24
303.15	0.5661	799.1	0.24
303.15	0.6502	797.92	0.24
303.15	0.7371	796.84	0.24
303.15	0.8498	795.59	0.24
303.15	0.9401	794.95	0.24
303.15	1	794.63	0.24
308.15	0	805.01	0.24
308.15	0.0834	803.22	0.24
308.15	0.1619	801.7	0.24
308.15	0.2426	800.16	0.24
308.15	0.3491	798.16	0.24
308.15	0.4375	796.6	0.24
308.15	0.5661	794.57	0.24
308.15	0.6502	793.35	0.24
308.15	0.7371	792.26	0.24
308.15	0.8498	790.95	0.24
308.15	0.9401	790.35	0.24
308.15	1	789.9	0.24
313.15	0	801.14	0.24
313.15	0.0834	799.4	0.24
313.15	0.1619	797.73	0.24
313.15	0.2426	796.12	0.24
313.15	0.3491	794.11	0.24
313.15	0.4375	792.53	0.24
313.15	0.5661	790.44	0.24
313.15	0.6502	789.19	0.24
313.15	0.7371	788.05	0.24
313.15	0.8498	786.69	0.24
313.15	0.9401	786	0.24
313.15	1	785.52	0.24
