Measured thermophysical data. Standard enthalpies and heat capacities of ethyl acetate and deuteroporphyrin  dimethylester solution in N,N-dimethylformamide at 298 318 K
Source: Thermochim. Acta, 2011, 10.1016/j.tca.2011.02.020
Compound 1: ethyl acetate, C4H8O2, InChI=1S/C4H8O2/c1-3-6-4(2)5/h3H2,1-2H3, purity 98%
Compound 2: dimethylformamide, C3H7NO, InChI=1S/C3H7NO/c1-4(2)3-5/h3H,1-2H3, purity 98%
Compound 3: dimethyl 3,3'-(3,7,12,17-tetramethylporphyrin-2,18-diyl)dipropanoate, C32H34N4O4, InChI=1S/C32H34N4O4/c1-17-11-22-14-27-19(3)23(7-9-31(37)39-5)29(35-27)16-30-24(8-10-32(38)40-6)20(4)28(36-30)15-26-18(2)12-21(34-26)13-25(17)33-22/h11-16,33,36H,7-10H2,1-6H3/b21-13-,22-14-,25-13-,26-15-,27-14-,28-15-,29-16-,30-16-, purity 99.5%

System: ethyl acetate + dimethyl 3,3'-(3,7,12,17-tetramethylporphyrin-2,18-diyl)dipropanoate; phases: Liquid
Fixed: Pressure, kPa = 101
Property: Molar enthalpy of solution, kJ/mol (Liquid); method: ISOPERIBOL
Temperature, K	Molality, mol/kg of dimethyl 3,3'-(3,7,12,17-tetramethylporphyrin-2,18-diyl)dipropanoate	Molar enthalpy of solution, kJ/mol	uncertainty
298.15	0.04348	0.83	0.01
298.15	0.08007	0.83	0.01
298.15	0.113	0.84	0.01
298.15	0.1581	0.84	0.01
298.15	0.2002	0.84	0.01
308.15	0.038	0.82	0.01
308.15	0.07854	0.83	0.01
308.15	0.1164	0.83	0.01
308.15	0.1539	0.83	0.01
308.15	0.1886	0.83	0.01
318.15	0.04288	0.82	0.01
318.15	0.0825	0.82	0.01
318.15	0.12825	0.82	0.01
318.15	0.1667	0.83	0.01
318.15	0.2064	0.83	0.01

System: dimethylformamide + dimethyl 3,3'-(3,7,12,17-tetramethylporphyrin-2,18-diyl)dipropanoate; phases: Liquid
Fixed: Pressure, kPa = 101
Property: Molar enthalpy of solution, kJ/mol (Liquid); method: ISOPERIBOL
Temperature, K	Molality, mol/kg of dimethyl 3,3'-(3,7,12,17-tetramethylporphyrin-2,18-diyl)dipropanoate	Molar enthalpy of solution, kJ/mol	uncertainty
298.15	0.0001138	24.38	0.24
298.15	0.0002081	24.59	0.25
298.15	0.0002586	24.48	0.24
298.15	0.0004117	24.94	0.25
298.15	0.0006538	24.6	0.25
298.15	0.0006611	24.9	0.25
298.15	0.0008046	24.77	0.25
298.15	0.001048	24.77	0.25
308.15	0.0002754	26.25	0.26
308.15	0.0004045	26.31	0.26
308.15	0.0007626	25.84	0.26
308.15	0.000993	25.92	0.26
308.15	0.001087	25.88	0.26
308.15	0.001312	26.08	0.26
318.15	0.0002283	27.46	0.27
318.15	0.0003207	27.5	0.28
318.15	0.0004693	27.47	0.27
318.15	0.001243	27.69	0.28
318.15	0.001274	27.18	0.27
318.15	0.001444	27.39	0.27
