Measured thermophysical data. Experimental and predicted viscosities of binary mixtures of cyclic ethers with 1-chloropentane or 1-chlorohexane at 283.15, 298.15, and 313.15K
Source: Thermochim. Acta, 2009, 10.1016/j.tca.2008.11.009
Compound 1: tetrahydrofuran, C4H8O, InChI=1S/C4H8O/c1-2-4-5-3-1/h1-4H2
Compound 2: 1,3-dioxolane, C3H6O2, InChI=1S/C3H6O2/c1-2-5-3-4-1/h1-3H2
Compound 3: 1-chloropentane, C5H11Cl, InChI=1S/C5H11Cl/c1-2-3-4-5-6/h2-5H2,1H3
Compound 4: 1-chlorohexane, C6H13Cl, InChI=1S/C6H13Cl/c1-2-3-4-5-6-7/h2-6H2,1H3
Compound 5: tetrahydropyran, C5H10O, InChI=1S/C5H10O/c1-2-4-6-5-3-1/h1-5H2
Compound 6: 1,4-dioxane, C4H8O2, InChI=1S/C4H8O2/c1-2-6-4-3-5-1/h1-4H2

System: tetrahydrofuran; phases: Liquid
Fixed: Pressure, kPa = 101
Property: Kinematic viscosity, m2/s (Liquid); method: Capillary tube (Ostwald; Ubbelohde) method
Temperature, K	Kinematic viscosity, m2/s	uncertainty
283.15	6.077e-07	4.3e-09
298.15	5.251e-07	3.8e-09
313.15	4.598e-07	3.5e-09

System: tetrahydrofuran; phases: Liquid
Fixed: Pressure, kPa = 101
Property: Mass density, kg/m3 (Liquid); method: Vibrating tube method
Temperature, K	Mass density, kg/m3	uncertainty
283.15	897.98	0.15
298.15	881.93	0.16
313.15	865.38	0.16

System: 1,3-dioxolane; phases: Liquid
Fixed: Pressure, kPa = 101
Property: Kinematic viscosity, m2/s (Liquid); method: Capillary tube (Ostwald; Ubbelohde) method
Temperature, K	Kinematic viscosity, m2/s	uncertainty
283.15	6.529e-07	5.4e-09
298.15	5.559e-07	4.7e-09
313.15	4.784e-07	4.1e-09

System: 1,3-dioxolane; phases: Liquid
Fixed: Pressure, kPa = 101
Property: Mass density, kg/m3 (Liquid); method: Vibrating tube method
Temperature, K	Mass density, kg/m3	uncertainty
283.15	1077.65	0.38
298.15	1058.64	0.36
313.15	1039.92	0.34

System: 1-chloropentane; phases: Liquid
Fixed: Pressure, kPa = 101
Property: Kinematic viscosity, m2/s (Liquid); method: Capillary tube (Ostwald; Ubbelohde) method
Temperature, K	Kinematic viscosity, m2/s	uncertainty
283.15	7.316e-07	6e-09
298.15	6.279e-07	5.2e-09
313.15	5.421e-07	4.6e-09

System: 1-chloropentane; phases: Liquid
Fixed: Pressure, kPa = 101
Property: Mass density, kg/m3 (Liquid); method: Vibrating tube method
Temperature, K	Mass density, kg/m3	uncertainty
283.15	892.29	0.3
298.15	877.05	0.3
313.15	861.46	0.3

System: 1-chlorohexane; phases: Liquid
Fixed: Pressure, kPa = 101
Property: Kinematic viscosity, m2/s (Liquid); method: Capillary tube (Ostwald; Ubbelohde) method
Temperature, K	Kinematic viscosity, m2/s	uncertainty
283.15	9.478e-07	7.6e-09
298.15	7.948e-07	6.4e-09
313.15	6.766e-07	5.6e-09

System: 1-chlorohexane; phases: Liquid
Fixed: Pressure, kPa = 101
Property: Mass density, kg/m3 (Liquid); method: Vibrating tube method
Temperature, K	Mass density, kg/m3	uncertainty
283.15	887.11	0.3
298.15	873.55	0.3
313.15	859	0.3

System: tetrahydropyran; phases: Liquid
Fixed: Pressure, kPa = 101
Property: Kinematic viscosity, m2/s (Liquid); method: Capillary tube (Ostwald; Ubbelohde) method
Temperature, K	Kinematic viscosity, m2/s	uncertainty
283.15	1.1205e-06	8.8e-09
298.15	9.1e-07	7.3e-09
313.15	7.571e-07	6.2e-09

System: tetrahydropyran; phases: Liquid
Fixed: Pressure, kPa = 101
Property: Mass density, kg/m3 (Liquid); method: Vibrating tube method
Temperature, K	Mass density, kg/m3	uncertainty
283.15	893.62	0.3
298.15	878.79	0.3
313.15	863.69	0.3

System: 1,4-dioxane; phases: Liquid
Fixed: Pressure, kPa = 101
Property: Kinematic viscosity, m2/s (Liquid); method: Capillary tube (Ostwald; Ubbelohde) method
Temperature, K	Kinematic viscosity, m2/s	uncertainty
298.15	1.1487e-06	7.5e-09
313.15	9.2e-07	6.2e-09

System: 1,4-dioxane; phases: Liquid
Fixed: Pressure, kPa = 101
Property: Mass density, kg/m3 (Liquid); method: Vibrating tube method
Temperature, K	Mass density, kg/m3	uncertainty
298.15	1027.86	0.13
313.15	1010.65	0.12

System: tetrahydrofuran + 1-chlorohexane; phases: Liquid
Fixed: Pressure, kPa = 101
Property: Kinematic viscosity, m2/s (Liquid); method: Capillary tube (Ostwald; Ubbelohde) method
Temperature, K	Mole fraction of tetrahydrofuran	Kinematic viscosity, m2/s	uncertainty
283.15	0	9.478e-07	7.6e-09
283.15	0.0571	9.336e-07	7.4e-09
283.15	0.1017	9.226e-07	7.2e-09
283.15	0.2025	8.953e-07	6.9e-09
283.15	0.2991	8.67e-07	6.6e-09
283.15	0.3981	8.376e-07	6.3e-09
283.15	0.499	8.054e-07	6e-09
283.15	0.6041	7.694e-07	5.6e-09
283.15	0.6992	7.344e-07	5.3e-09
283.15	0.7977	6.954e-07	5e-09
283.15	0.8975	6.534e-07	4.7e-09
283.15	0.9497	6.303e-07	4.5e-09
283.15	1	6.077e-07	4.3e-09
298.15	0	7.948e-07	6.4e-09
298.15	0.0571	7.84e-07	6.3e-09
298.15	0.1017	7.751e-07	6.2e-09
298.15	0.2025	7.534e-07	5.9e-09
298.15	0.2991	7.323e-07	5.7e-09
298.15	0.3981	7.088e-07	5.4e-09
298.15	0.499	6.831e-07	5.2e-09
298.15	0.6041	6.546e-07	4.9e-09
298.15	0.6992	6.264e-07	4.6e-09
298.15	0.7977	5.959e-07	4.4e-09
298.15	0.8975	5.62e-07	4.1e-09
298.15	0.9497	5.431e-07	4e-09
298.15	1	5.251e-07	3.8e-09
313.15	0	6.766e-07	5.6e-09
313.15	0.0571	6.678e-07	5.5e-09
313.15	0.1017	6.607e-07	5.4e-09
313.15	0.2025	6.435e-07	5.1e-09
313.15	0.2991	6.267e-07	4.9e-09
313.15	0.3981	6.08e-07	4.7e-09
313.15	0.499	5.871e-07	4.5e-09
313.15	0.6041	5.64e-07	4.3e-09
313.15	0.6992	5.412e-07	4.1e-09
313.15	0.7977	5.162e-07	3.9e-09
313.15	0.8975	4.885e-07	3.7e-09
313.15	0.9497	4.739e-07	3.6e-09
313.15	1	4.598e-07	3.5e-09

System: tetrahydrofuran + 1-chlorohexane; phases: Liquid
Fixed: Pressure, kPa = 101
Property: Mass density, kg/m3 (Liquid); method: Vibrating tube method
Temperature, K	Mole fraction of tetrahydrofuran	Mass density, kg/m3	uncertainty
283.15	0	887.11	0.3
283.15	0.0571	887.43	0.29
283.15	0.1017	887.71	0.28
283.15	0.2025	888.42	0.26
283.15	0.2991	889.16	0.24
283.15	0.3981	889.92	0.23
283.15	0.499	890.86	0.21
283.15	0.6041	891.99	0.2
283.15	0.6992	893.11	0.18
283.15	0.7977	894.45	0.17
283.15	0.8975	896.08	0.16
283.15	0.9497	897.03	0.15
283.15	1	897.98	0.15
298.15	0	873.55	0.3
298.15	0.0571	873.72	0.29
298.15	0.1017	873.95	0.28
298.15	0.2025	874.44	0.26
298.15	0.2991	874.91	0.25
298.15	0.3981	875.56	0.23
298.15	0.499	876.3	0.22
298.15	0.6041	877.18	0.2
298.15	0.6992	878.19	0.19
298.15	0.7977	879.17	0.18
298.15	0.8975	880.43	0.17
298.15	0.9497	881.24	0.16
298.15	1	881.93	0.16
313.15	0	859	0.3
313.15	0.0571	859.09	0.29
313.15	0.1017	859.24	0.28
313.15	0.2025	859.52	0.27
313.15	0.2991	859.9	0.25
313.15	0.3981	860.36	0.24
313.15	0.499	861.01	0.22
313.15	0.6041	861.7	0.21
313.15	0.6992	862.34	0.2
313.15	0.7977	863.23	0.18
313.15	0.8975	864.28	0.17
313.15	0.9497	864.74	0.17
313.15	1	865.38	0.16

System: tetrahydrofuran + 1-chloropentane; phases: Liquid
Fixed: Pressure, kPa = 101
Property: Kinematic viscosity, m2/s (Liquid); method: Capillary tube (Ostwald; Ubbelohde) method
Temperature, K	Mole fraction of tetrahydrofuran	Kinematic viscosity, m2/s	uncertainty
283.15	0	7.316e-07	6e-09
283.15	0.0628	7.261e-07	5.9e-09
283.15	0.1041	7.223e-07	5.8e-09
283.15	0.2093	7.126e-07	5.6e-09
283.15	0.3101	7.029e-07	5.5e-09
283.15	0.3988	6.935e-07	5.3e-09
283.15	0.4742	6.848e-07	5.2e-09
283.15	0.5957	6.704e-07	5e-09
283.15	0.6958	6.571e-07	4.8e-09
283.15	0.8013	6.419e-07	4.7e-09
283.15	0.8982	6.267e-07	4.5e-09
283.15	0.9456	6.181e-07	4.4e-09
283.15	1	6.077e-07	4.3e-09
298.15	0	6.279e-07	5.2e-09
298.15	0.0628	6.231e-07	5.1e-09
298.15	0.1041	6.2e-07	5.1e-09
298.15	0.2093	6.124e-07	4.9e-09
298.15	0.3101	6.037e-07	4.8e-09
298.15	0.3988	5.958e-07	4.7e-09
298.15	0.4742	5.887e-07	4.6e-09
298.15	0.5957	5.763e-07	4.4e-09
298.15	0.6958	5.654e-07	4.3e-09
298.15	0.8013	5.532e-07	4.1e-09
298.15	0.8982	5.399e-07	4e-09
298.15	0.9456	5.335e-07	3.9e-09
298.15	1	5.251e-07	3.8e-09
313.15	0	5.421e-07	4.6e-09
313.15	0.0628	5.386e-07	4.5e-09
313.15	0.1041	5.359e-07	4.5e-09
313.15	0.2093	5.293e-07	4.3e-09
313.15	0.3101	5.223e-07	4.2e-09
313.15	0.3988	5.158e-07	4.1e-09
313.15	0.4742	5.1e-07	4e-09
313.15	0.5957	4.998e-07	3.9e-09
313.15	0.6958	4.91e-07	3.8e-09
313.15	0.8013	4.808e-07	3.7e-09
313.15	0.8982	4.706e-07	3.6e-09
313.15	0.9456	4.653e-07	3.5e-09
313.15	1	4.598e-07	3.5e-09

System: tetrahydrofuran + 1-chloropentane; phases: Liquid
Fixed: Pressure, kPa = 101
Property: Mass density, kg/m3 (Liquid); method: Vibrating tube method
Temperature, K	Mole fraction of tetrahydrofuran	Mass density, kg/m3	uncertainty
283.15	0	892.29	0.3
283.15	0.0628	892.58	0.29
283.15	0.1041	892.84	0.28
283.15	0.2093	893.49	0.26
283.15	0.3101	894.01	0.24
283.15	0.3988	894.45	0.23
283.15	0.4742	895.01	0.22
283.15	0.5957	895.73	0.2
283.15	0.6958	896.36	0.18
283.15	0.8013	896.87	0.17
283.15	0.8982	897.4	0.16
283.15	0.9456	897.75	0.16
283.15	1	897.98	0.15
298.15	0	877.05	0.3
298.15	0.0628	877.23	0.29
298.15	0.1041	877.42	0.28
298.15	0.2093	877.86	0.26
298.15	0.3101	878.25	0.25
298.15	0.3988	878.65	0.23
298.15	0.4742	878.89	0.22
298.15	0.5957	879.58	0.2
298.15	0.6958	880.08	0.19
298.15	0.8013	880.69	0.18
298.15	0.8982	881.27	0.17
298.15	0.9456	881.54	0.16
298.15	1	881.93	0.16
313.15	0	861.46	0.3
313.15	0.0628	861.68	0.29
313.15	0.1041	861.73	0.28
313.15	0.2093	862.08	0.27
313.15	0.3101	862.34	0.25
313.15	0.3988	862.54	0.24
313.15	0.4742	862.94	0.22
313.15	0.5957	863.35	0.21
313.15	0.6958	863.75	0.2
313.15	0.8013	864.18	0.18
313.15	0.8982	864.85	0.17
313.15	0.9456	865.03	0.17
313.15	1	865.38	0.16

System: tetrahydropyran + 1-chloropentane; phases: Liquid
Fixed: Pressure, kPa = 101
Property: Kinematic viscosity, m2/s (Liquid); method: Capillary tube (Ostwald; Ubbelohde) method
Temperature, K	Mole fraction of tetrahydropyran	Kinematic viscosity, m2/s	uncertainty
283.15	0	7.316e-07	6e-09
283.15	0.0539	7.418e-07	6.1e-09
283.15	0.103	7.518e-07	6.1e-09
283.15	0.2061	7.747e-07	6.3e-09
283.15	0.3009	7.98e-07	6.5e-09
283.15	0.4041	8.261e-07	6.7e-09
283.15	0.5077	8.58e-07	7e-09
283.15	0.6028	8.923e-07	7.2e-09
283.15	0.6732	9.208e-07	7.4e-09
283.15	0.7873	9.758e-07	7.8e-09
283.15	0.9004	1.0441e-06	8.3e-09
283.15	0.9488	1.0789e-06	8.5e-09
283.15	1	1.1205e-06	8.8e-09
298.15	0	6.279e-07	5.2e-09
298.15	0.0539	6.355e-07	5.3e-09
298.15	0.103	6.424e-07	5.3e-09
298.15	0.2061	6.599e-07	5.5e-09
298.15	0.3009	6.772e-07	5.6e-09
298.15	0.4041	6.985e-07	5.7e-09
298.15	0.5077	7.222e-07	5.9e-09
298.15	0.6028	7.473e-07	6.1e-09
298.15	0.6732	7.679e-07	6.2e-09
298.15	0.7873	8.074e-07	6.5e-09
298.15	0.9004	8.556e-07	6.9e-09
298.15	0.9488	8.806e-07	7.1e-09
298.15	1	9.1e-07	7.3e-09
313.15	0	5.421e-07	4.6e-09
313.15	0.0539	5.486e-07	4.6e-09
313.15	0.103	5.542e-07	4.7e-09
313.15	0.2061	5.68e-07	4.8e-09
313.15	0.3009	5.815e-07	4.9e-09
313.15	0.4041	5.981e-07	5e-09
313.15	0.5077	6.169e-07	5.1e-09
313.15	0.6028	6.364e-07	5.3e-09
313.15	0.6732	6.525e-07	5.4e-09
313.15	0.7873	6.816e-07	5.6e-09
313.15	0.9004	7.184e-07	5.9e-09
313.15	0.9488	7.358e-07	6e-09
313.15	1	7.571e-07	6.2e-09

System: tetrahydropyran + 1-chloropentane; phases: Liquid
Fixed: Pressure, kPa = 101
Property: Mass density, kg/m3 (Liquid); method: Vibrating tube method
Temperature, K	Mole fraction of tetrahydropyran	Mass density, kg/m3	uncertainty
283.15	0	892.29	0.3
283.15	0.0539	892.29	0.3
283.15	0.103	892.39	0.3
283.15	0.2061	892.47	0.3
283.15	0.3009	892.73	0.3
283.15	0.4041	892.75	0.3
283.15	0.5077	893.01	0.3
283.15	0.6028	893.09	0.3
283.15	0.6732	893.25	0.3
283.15	0.7873	893.32	0.3
283.15	0.9004	893.5	0.3
283.15	0.9488	893.6	0.3
283.15	1	893.62	0.3
298.15	0	877.05	0.3
298.15	0.0539	877.1	0.3
298.15	0.103	877.18	0.3
298.15	0.2061	877.41	0.3
298.15	0.3009	877.44	0.3
298.15	0.4041	877.59	0.3
298.15	0.5077	877.73	0.3
298.15	0.6028	877.83	0.3
298.15	0.6732	877.98	0.3
298.15	0.7873	878.13	0.3
298.15	0.9004	878.33	0.3
298.15	0.9488	878.49	0.3
298.15	1	878.79	0.3
313.15	0	861.46	0.3
313.15	0.0539	861.65	0.3
313.15	0.103	861.78	0.3
313.15	0.2061	861.97	0.3
313.15	0.3009	862.25	0.3
313.15	0.4041	862.4	0.3
313.15	0.5077	862.7	0.3
313.15	0.6028	862.82	0.3
313.15	0.6732	862.99	0.3
313.15	0.7873	863.26	0.3
313.15	0.9004	863.45	0.3
313.15	0.9488	863.55	0.3
313.15	1	863.69	0.3

System: tetrahydropyran + 1-chlorohexane; phases: Liquid
Fixed: Pressure, kPa = 101
Property: Kinematic viscosity, m2/s (Liquid); method: Capillary tube (Ostwald; Ubbelohde) method
Temperature, K	Mole fraction of tetrahydropyran	Kinematic viscosity, m2/s	uncertainty
283.15	0	9.478e-07	7.6e-09
283.15	0.0501	9.513e-07	7.6e-09
283.15	0.1152	9.573e-07	7.6e-09
283.15	0.209	9.671e-07	7.7e-09
283.15	0.2924	9.764e-07	7.8e-09
283.15	0.4074	9.9e-07	7.9e-09
283.15	0.4975	1.0009e-06	7.9e-09
283.15	0.5988	1.015e-06	8.1e-09
283.15	0.6961	1.0313e-06	8.2e-09
283.15	0.7996	1.0536e-06	8.3e-09
283.15	0.8975	1.0815e-06	8.5e-09
283.15	0.9493	1.0999e-06	8.7e-09
283.15	1	1.1205e-06	8.8e-09
298.15	0	7.948e-07	6.4e-09
298.15	0.0501	7.979e-07	6.5e-09
298.15	0.1152	8.022e-07	6.5e-09
298.15	0.209	8.08e-07	6.5e-09
298.15	0.2924	8.138e-07	6.6e-09
298.15	0.4074	8.225e-07	6.6e-09
298.15	0.4975	8.306e-07	6.7e-09
298.15	0.5988	8.4e-07	6.8e-09
298.15	0.6961	8.515e-07	6.9e-09
298.15	0.7996	8.662e-07	7e-09
298.15	0.8975	8.852e-07	7.1e-09
298.15	0.9493	8.963e-07	7.2e-09
298.15	1	9.1e-07	7.3e-09
313.15	0	6.766e-07	5.6e-09
313.15	0.0501	6.786e-07	5.6e-09
313.15	0.1152	6.817e-07	5.6e-09
313.15	0.209	6.863e-07	5.6e-09
313.15	0.2924	6.906e-07	5.7e-09
313.15	0.4074	6.966e-07	5.7e-09
313.15	0.4975	7.023e-07	5.8e-09
313.15	0.5988	7.092e-07	5.8e-09
313.15	0.6961	7.168e-07	5.9e-09
313.15	0.7996	7.276e-07	5.9e-09
313.15	0.8975	7.397e-07	6e-09
313.15	0.9493	7.475e-07	6.1e-09
313.15	1	7.571e-07	6.2e-09

System: tetrahydropyran + 1-chlorohexane; phases: Liquid
Fixed: Pressure, kPa = 101
Property: Mass density, kg/m3 (Liquid); method: Vibrating tube method
Temperature, K	Mole fraction of tetrahydropyran	Mass density, kg/m3	uncertainty
283.15	0	887.11	0.3
283.15	0.0501	887.31	0.3
283.15	0.1152	887.6	0.3
283.15	0.209	888.02	0.3
283.15	0.2924	888.37	0.3
283.15	0.4074	888.89	0.3
283.15	0.4975	889.4	0.3
283.15	0.5988	889.95	0.3
283.15	0.6961	890.62	0.3
283.15	0.7996	891.42	0.3
283.15	0.8975	892.37	0.3
283.15	0.9493	892.99	0.3
283.15	1	893.62	0.3
298.15	0	873.55	0.3
298.15	0.0501	873.67	0.3
298.15	0.1152	873.97	0.3
298.15	0.209	874.26	0.3
298.15	0.2924	874.54	0.3
298.15	0.4074	875.02	0.3
298.15	0.4975	875.39	0.3
298.15	0.5988	875.83	0.3
298.15	0.6961	876.34	0.3
298.15	0.7996	876.93	0.3
298.15	0.8975	877.77	0.3
298.15	0.9493	878.28	0.3
298.15	1	878.79	0.3
313.15	0	859	0.3
313.15	0.0501	859.12	0.3
313.15	0.1152	859.32	0.3
313.15	0.209	859.68	0.3
313.15	0.2924	859.83	0.3
313.15	0.4074	860.32	0.3
313.15	0.4975	860.6	0.3
313.15	0.5988	860.97	0.3
313.15	0.6961	861.47	0.3
313.15	0.7996	862.01	0.3
313.15	0.8975	862.78	0.3
313.15	0.9493	863.14	0.3
313.15	1	863.69	0.3

System: 1-chloropentane + 1,3-dioxolane; phases: Liquid
Fixed: Pressure, kPa = 101
Property: Kinematic viscosity, m2/s (Liquid); method: Capillary tube (Ostwald; Ubbelohde) method
Temperature, K	Mole fraction of 1,3-dioxolane	Kinematic viscosity, m2/s	uncertainty
283.15	0	7.316e-07	6e-09
283.15	0.0503	7.241e-07	5.9e-09
283.15	0.1013	7.19e-07	5.9e-09
283.15	0.1939	7.087e-07	5.8e-09
283.15	0.2965	6.985e-07	5.7e-09
283.15	0.3968	6.894e-07	5.7e-09
283.15	0.4993	6.813e-07	5.6e-09
283.15	0.5995	6.745e-07	5.6e-09
283.15	0.6973	6.676e-07	5.5e-09
283.15	0.7986	6.622e-07	5.5e-09
283.15	0.8997	6.571e-07	5.4e-09
283.15	0.9498	6.555e-07	5.4e-09
283.15	1	6.529e-07	5.4e-09
298.15	0	6.279e-07	5.2e-09
298.15	0.0503	6.218e-07	5.2e-09
298.15	0.1013	6.167e-07	5.1e-09
298.15	0.1939	6.072e-07	5.1e-09
298.15	0.2965	5.975e-07	5e-09
298.15	0.3968	5.893e-07	4.9e-09
298.15	0.4993	5.817e-07	4.9e-09
298.15	0.5995	5.749e-07	4.8e-09
298.15	0.6973	5.686e-07	4.8e-09
298.15	0.7986	5.638e-07	4.8e-09
298.15	0.8997	5.587e-07	4.7e-09
298.15	0.9498	5.582e-07	4.7e-09
298.15	1	5.559e-07	4.7e-09
313.15	0	5.421e-07	4.6e-09
313.15	0.0503	5.367e-07	4.6e-09
313.15	0.1013	5.317e-07	4.5e-09
313.15	0.1939	5.235e-07	4.5e-09
313.15	0.2965	5.154e-07	4.4e-09
313.15	0.3968	5.074e-07	4.3e-09
313.15	0.4993	5.005e-07	4.3e-09
313.15	0.5995	4.943e-07	4.2e-09
313.15	0.6973	4.898e-07	4.2e-09
313.15	0.7986	4.851e-07	4.2e-09
313.15	0.8997	4.812e-07	4.1e-09
313.15	0.9498	4.8e-07	4.1e-09
313.15	1	4.784e-07	4.1e-09

System: 1-chloropentane + 1,3-dioxolane; phases: Liquid
Fixed: Pressure, kPa = 101
Property: Mass density, kg/m3 (Liquid); method: Vibrating tube method
Temperature, K	Mole fraction of 1,3-dioxolane	Mass density, kg/m3	uncertainty
283.15	0	892.29	0.3
283.15	0.0503	897.25	0.3
283.15	0.1013	902.36	0.3
283.15	0.1939	913.36	0.3
283.15	0.2965	925.84	0.3
283.15	0.3968	940.53	0.31
283.15	0.4993	956.85	0.31
283.15	0.5995	975.09	0.31
283.15	0.6973	995.06	0.31
283.15	0.7986	1018.88	0.32
283.15	0.8997	1045.96	0.35
283.15	0.9498	1061.33	0.36
283.15	1	1077.65	0.38
298.15	0	877.05	0.3
298.15	0.0503	881.96	0.3
298.15	0.1013	887.14	0.3
298.15	0.1939	897.4	0.3
298.15	0.2965	910.13	0.3
298.15	0.3968	924.15	0.31
298.15	0.4993	940.35	0.31
298.15	0.5995	958.08	0.31
298.15	0.6973	977.84	0.31
298.15	0.7986	1000.89	0.3
298.15	0.8997	1027.56	0.33
298.15	0.9498	1042.46	0.34
298.15	1	1058.64	0.36
313.15	0	861.46	0.3
313.15	0.0503	866.22	0.3
313.15	0.1013	871.36	0.3
313.15	0.1939	881.57	0.3
313.15	0.2965	893.87	0.3
313.15	0.3968	907.37	0.31
313.15	0.4993	922.88	0.31
313.15	0.5995	940.32	0.31
313.15	0.6973	959.58	0.31
313.15	0.7986	982.68	0.3
313.15	0.8997	1009.56	0.31
313.15	0.9498	1024.17	0.32
313.15	1	1039.92	0.34

System: 1-chlorohexane + 1,3-dioxolane; phases: Liquid
Fixed: Pressure, kPa = 101
Property: Kinematic viscosity, m2/s (Liquid); method: Capillary tube (Ostwald; Ubbelohde) method
Temperature, K	Mole fraction of 1,3-dioxolane	Kinematic viscosity, m2/s	uncertainty
283.15	0	9.478e-07	7.6e-09
283.15	0.0584	9.301e-07	7.4e-09
283.15	0.1044	9.165e-07	7.3e-09
283.15	0.2045	8.881e-07	7.1e-09
283.15	0.3055	8.591e-07	6.9e-09
283.15	0.4039	8.315e-07	6.7e-09
283.15	0.502	8.039e-07	6.5e-09
283.15	0.6018	7.755e-07	6.3e-09
283.15	0.7009	7.462e-07	6.1e-09
283.15	0.8019	7.161e-07	5.9e-09
283.15	0.9017	6.85e-07	5.6e-09
283.15	0.9507	6.69e-07	5.5e-09
283.15	1	6.529e-07	5.4e-09
298.15	0	7.948e-07	6.4e-09
298.15	0.0584	7.812e-07	6.3e-09
298.15	0.1044	7.732e-07	6.3e-09
298.15	0.2045	7.494e-07	6.1e-09
298.15	0.3055	7.261e-07	5.9e-09
298.15	0.4039	7.036e-07	5.8e-09
298.15	0.502	6.805e-07	5.6e-09
298.15	0.6018	6.565e-07	5.4e-09
298.15	0.7009	6.328e-07	5.3e-09
298.15	0.8019	6.088e-07	5.1e-09
298.15	0.9017	5.829e-07	4.9e-09
298.15	0.9507	5.678e-07	4.8e-09
298.15	1	5.559e-07	4.7e-09
313.15	0	6.766e-07	5.6e-09
313.15	0.0584	6.654e-07	5.5e-09
313.15	0.1044	6.588e-07	5.4e-09
313.15	0.2045	6.394e-07	5.3e-09
313.15	0.3055	6.205e-07	5.2e-09
313.15	0.4039	6.018e-07	5e-09
313.15	0.502	5.829e-07	4.9e-09
313.15	0.6018	5.629e-07	4.7e-09
313.15	0.7009	5.437e-07	4.6e-09
313.15	0.8019	5.231e-07	4.5e-09
313.15	0.9017	5.016e-07	4.3e-09
313.15	0.9507	4.888e-07	4.2e-09
313.15	1	4.784e-07	4.1e-09

System: 1-chlorohexane + 1,3-dioxolane; phases: Liquid
Fixed: Pressure, kPa = 101
Property: Mass density, kg/m3 (Liquid); method: Vibrating tube method
Temperature, K	Mole fraction of 1,3-dioxolane	Mass density, kg/m3	uncertainty
283.15	0	887.11	0.3
283.15	0.0584	892.59	0.3
283.15	0.1044	896.89	0.3
283.15	0.2045	907.33	0.3
283.15	0.3055	919.33	0.3
283.15	0.4039	932.65	0.31
283.15	0.502	948	0.31
283.15	0.6018	965.83	0.31
283.15	0.7009	986.87	0.31
283.15	0.8019	1012.01	0.32
283.15	0.9017	1041.75	0.34
283.15	0.9507	1058.59	0.36
283.15	1	1077.65	0.38
298.15	0	873.55	0.3
298.15	0.0578	878.52	0.3
298.15	0.0916	881.66	0.3
298.15	0.1946	891.91	0.3
298.15	0.2978	903.59	0.3
298.15	0.3974	916.57	0.31
298.15	0.498	931.67	0.31
298.15	0.6013	949.73	0.31
298.15	0.7003	969.97	0.31
298.15	0.8003	994.09	0.3
298.15	0.9018	1023.67	0.33
298.15	0.9565	1042.27	0.34
298.15	1	1058.64	0.36
313.15	0	859	0.3
313.15	0.0578	864.14	0.3
313.15	0.0916	867.18	0.3
313.15	0.1946	877.07	0.3
313.15	0.2978	888.32	0.3
313.15	0.3974	900.8	0.31
313.15	0.498	915.42	0.31
313.15	0.6013	933.03	0.31
313.15	0.7003	952.92	0.31
313.15	0.8003	976.49	0.3
313.15	0.9018	1005.38	0.31
313.15	0.9565	1023.53	0.32
313.15	1	1039.92	0.34

System: 1,4-dioxane + 1-chloropentane; phases: Liquid
Fixed: Pressure, kPa = 101
Property: Kinematic viscosity, m2/s (Liquid); method: Capillary tube (Ostwald; Ubbelohde) method
Temperature, K	Mole fraction of 1,4-dioxane	Kinematic viscosity, m2/s	uncertainty
298.15	0	6.279e-07	5.2e-09
298.15	0.0533	6.371e-07	5.2e-09
298.15	0.0964	6.448e-07	5.3e-09
298.15	0.1997	6.649e-07	5.3e-09
298.15	0.2758	6.818e-07	5.3e-09
298.15	0.3815	7.099e-07	5.4e-09
298.15	0.4966	7.491e-07	5.6e-09
298.15	0.6003	7.95e-07	5.8e-09
298.15	0.7046	8.549e-07	6.1e-09
298.15	0.7615	8.95e-07	6.3e-09
298.15	0.8986	1.0206e-06	6.9e-09
298.15	0.952	1.0835e-06	7.2e-09
298.15	1	1.1487e-06	7.5e-09
313.15	0	5.421e-07	4.6e-09
313.15	0.0533	5.497e-07	4.6e-09
313.15	0.0964	5.566e-07	4.6e-09
313.15	0.1997	5.76e-07	4.7e-09
313.15	0.2758	5.93e-07	4.7e-09
313.15	0.3815	6.209e-07	4.8e-09
313.15	0.4966	6.565e-07	5e-09
313.15	0.6003	6.957e-07	5.1e-09
313.15	0.7046	7.428e-07	5.4e-09
313.15	0.7615	7.712e-07	5.5e-09
313.15	0.8986	8.504e-07	5.9e-09
313.15	0.952	8.857e-07	6e-09
313.15	1	9.2e-07	6.2e-09

System: 1,4-dioxane + 1-chloropentane; phases: Liquid
Fixed: Pressure, kPa = 101
Property: Mass density, kg/m3 (Liquid); method: Vibrating tube method
Temperature, K	Mass fraction of 1,4-dioxane	Mass density, kg/m3	uncertainty
298.15	0	877.05	0.3
298.15	0.0533	882.28	0.29
298.15	0.0964	886.79	0.28
298.15	0.1997	898.03	0.26
298.15	0.2758	906.86	0.25
298.15	0.3815	920.13	0.23
298.15	0.4966	935.79	0.22
298.15	0.6003	951.45	0.19
298.15	0.7046	968.65	0.17
298.15	0.7615	978.66	0.16
298.15	0.8986	1005.49	0.13
298.15	0.952	1016.89	0.13
298.15	1	1027.86	0.13
313.15	0	861.46	0.3
313.15	0.0533	866.84	0.29
313.15	0.0964	871.18	0.28
313.15	0.1997	882.29	0.27
313.15	0.2758	891.06	0.25
313.15	0.3815	904.17	0.23
313.15	0.4966	919.73	0.22
313.15	0.6003	935.17	0.2
313.15	0.7046	952.34	0.18
313.15	0.7615	962.27	0.16
313.15	0.8986	988.71	0.13
313.15	0.952	1000	0.12
313.15	1	1010.65	0.12

System: 1,4-dioxane + 1-chlorohexane; phases: Liquid
Fixed: Pressure, kPa = 101
Property: Kinematic viscosity, m2/s (Liquid); method: Capillary tube (Ostwald; Ubbelohde) method
Temperature, K	Mole fraction of 1,4-dioxane	Kinematic viscosity, m2/s	uncertainty
298.15	0	7.948e-07	6.4e-09
298.15	0.0469	8.002e-07	6.4e-09
298.15	0.1078	8.1e-07	6.4e-09
298.15	0.2033	8.156e-07	6.3e-09
298.15	0.301	8.277e-07	6.3e-09
298.15	0.3944	8.44e-07	6.3e-09
298.15	0.5216	8.727e-07	6.4e-09
298.15	0.5965	8.968e-07	6.4e-09
298.15	0.7642	9.667e-07	6.7e-09
298.15	0.8007	9.853e-07	6.8e-09
298.15	0.9006	1.0538e-06	7.1e-09
298.15	0.9527	1.1002e-06	7.3e-09
298.15	1	1.1487e-06	7.5e-09
313.15	0	6.766e-07	5.6e-09
313.15	0.0469	6.804e-07	5.6e-09
313.15	0.1078	6.872e-07	5.5e-09
313.15	0.2033	6.899e-07	5.5e-09
313.15	0.301	6.984e-07	5.4e-09
313.15	0.3944	7.088e-07	5.4e-09
313.15	0.5216	7.289e-07	5.4e-09
313.15	0.5965	7.458e-07	5.5e-09
313.15	0.7642	7.936e-07	5.6e-09
313.15	0.8007	8.07e-07	5.7e-09
313.15	0.9006	8.566e-07	5.9e-09
313.15	0.9527	8.859e-07	6e-09
313.15	1	9.2e-07	6.2e-09

System: 1,4-dioxane + 1-chlorohexane; phases: Liquid
Fixed: Pressure, kPa = 101
Property: Mass density, kg/m3 (Liquid); method: Vibrating tube method
Temperature, K	Mass fraction of 1,4-dioxane	Mass density, kg/m3	uncertainty
298.15	0	873.55	0.3
298.15	0.0469	877.66	0.29
298.15	0.1078	883.21	0.28
298.15	0.2033	892.72	0.26
298.15	0.301	903.47	0.25
298.15	0.3944	914.69	0.23
298.15	0.5216	931.94	0.21
298.15	0.5965	943.35	0.2
298.15	0.7642	973	0.16
298.15	0.8007	980.31	0.15
298.15	0.9006	1002.47	0.13
298.15	0.9527	1015.27	0.13
298.15	1	1027.86	0.13
313.15	0	859	0.3
313.15	0.0469	863.17	0.29
313.15	0.1078	868.6	0.28
313.15	0.2033	877.95	0.26
313.15	0.301	888.46	0.25
313.15	0.3944	899.55	0.23
313.15	0.5216	916.72	0.21
313.15	0.5965	928	0.2
313.15	0.7642	957.16	0.16
313.15	0.8007	964.44	0.16
313.15	0.9006	985.99	0.13
313.15	0.9527	998.53	0.12
313.15	1	1010.65	0.12
