Measured thermophysical data. Thermochemistry of hydrated ammonium borates
Source: Thermochim. Acta, 2005, 10.1016/j.tca.2004.04.027
Compound 1: hydrogen chloride, ClH, InChI=1S/ClH/h1H
Compound 2: water, H2O, InChI=1S/H2O/h1H2
Compound 3: boric acid, BH3O3, InChI=1S/BH3O3/c2-1(3)4/h2-4H, purity 99.99%
Compound 4: ammonium chloride (NH4Cl), ClH4N, InChI=1S/ClH.H3N/h1H;1H3, purity 99%
Compound 5: ammonium pentaborate tetrahydrate, B5H12NO12, InChI=1S/B5O8.H3N.4H2O/c6-1-8-3-11-4-9-2(7)10-5(12-3)13-4;;;;;/h;1H3;4*1H2/q-1;;;;;/p+1
Compound 6: bis-ammonium tetraborate tetrahydrate, B4H16N2O11, InChI=1S/B4O7.2H3N.4H2O/c5-1-7-3-9-2(6)10-4(8-1)11-3;;;;;;/h;2*1H3;4*1H2/q-2;;;;;;/p+2

Reaction: 1 hydrogen chloride + -5 boric acid + -1 ammonium chloride (NH4Cl) + 1 ammonium pentaborate tetrahydrate + 3 water
Property: Molar enthalpy of reaction, kJ/mol
62.86

Reaction: 2 hydrogen chloride + -4 boric acid + -2 ammonium chloride (NH4Cl) + 1 bis-ammonium tetraborate tetrahydrate + 1 water
Property: Molar enthalpy of reaction, kJ/mol
77.56
