Measured thermophysical data. Topological and thermodynamic investigations of molecular interactions of aniline and o-toluidine with chloroform
Source: Thermochim. Acta, 2008, 10.1016/j.tca.2008.02.022
Compound 1: trichloromethane, CHCl3, InChI=1S/CHCl3/c2-1(3)4/h1H, purity 99%
Compound 2: aniline, C6H7N, InChI=1S/C6H7N/c7-6-4-2-1-3-5-6/h1-5H,7H2, purity 98%
Compound 3: 2-methylaniline, C7H9N, InChI=1S/C7H9N/c1-6-4-2-3-5-7(6)8/h2-5H,8H2,1H3, purity 98%

System: aniline + trichloromethane; phases: Liquid
Fixed: Temperature, K = 308.15
Fixed: Pressure, kPa = 101
Property: Excess molar enthalpy (molar enthalpy of mixing), kJ/mol (Liquid); method: Calvet calorimetry
Mole fraction of trichloromethane	Excess molar enthalpy (molar enthalpy of mixing), kJ/mol	uncertainty
0.0847	0.06	0.0017
0.1397	0.09	0.0023
0.2098	0.1154	0.0028
0.2736	0.1424	0.0033
0.3397	0.1678	0.0039
0.3868	0.1778	0.0041
0.4555	0.1889	0.0043
0.5017	0.1899	0.0043
0.5697	0.1909	0.0043
0.6319	0.1811	0.0041
0.7002	0.1693	0.0039
0.7644	0.1381	0.0032
0.8259	0.1067	0.0026
0.922	0.0526	0.0015

System: aniline + trichloromethane; phases: Liquid
Fixed: Temperature, K = 308.15
Fixed: Pressure, kPa = 101
Property: Speed of sound, m/s (Liquid); method: Linear variable-path acoustic interferometer
Mole fraction of trichloromethane	Speed of sound, m/s	uncertainty
0.0663	1542	3
0.1393	1482	3
0.1763	1454	3
0.2454	1402	3
0.2968	1365	3
0.3563	1322	3
0.4003	1292	3
0.4774	1240	3
0.5337	1203	3
0.5987	1163	3
0.6673	1122	3
0.7501	1076	3
0.8493	1026	3
0.9222	993	3

System: aniline + trichloromethane; phases: Liquid
Fixed: Temperature, K = 308.15
Fixed: Pressure, kPa = 101
Property: Excess molar volume, m3/mol (Liquid); method: Direct dilatometry
Mole fraction of trichloromethane	Excess molar volume, m3/mol	uncertainty
0.0875	-6.1e-08	2e-09
0.1596	-9.1e-08	2e-09
0.2007	-1.02e-07	2e-09
0.2674	-1.12e-07	3e-09
0.3248	-1.15e-07	3e-09
0.3974	-1.12e-07	3e-09
0.4897	-1.03e-07	2e-09
0.5507	-9.5e-08	2e-09
0.6219	-8.5e-08	2e-09
0.6872	-7.4e-08	2e-09
0.7748	-5.9e-08	2e-09
0.8254	-4.8e-08	2e-09
0.8887	-3.3e-08	2e-09
0.9414	-2e-08	2e-09

System: trichloromethane + 2-methylaniline; phases: Liquid
Fixed: Temperature, K = 308.15
Fixed: Pressure, kPa = 101
Property: Excess molar enthalpy (molar enthalpy of mixing), kJ/mol (Liquid); method: Calvet calorimetry
Mole fraction of trichloromethane	Excess molar enthalpy (molar enthalpy of mixing), kJ/mol	uncertainty
0.0666	-0.0734	0.0019
0.1233	-0.1316	0.0031
0.1888	-0.1924	0.0044
0.2447	-0.2382	0.0053
0.2988	-0.2762	0.0061
0.349	-0.3054	0.0067
0.4007	-0.329	0.0072
0.4593	-0.3471	0.0076
0.5006	-0.3541	0.0078
0.6161	-0.3462	0.0076
0.6889	-0.3194	0.007
0.7661	-0.2717	0.006
0.8208	-0.2254	0.0051
0.9307	-0.1007	0.0025

System: trichloromethane + 2-methylaniline; phases: Liquid
Fixed: Temperature, K = 308.15
Fixed: Pressure, kPa = 101
Property: Speed of sound, m/s (Liquid); method: Linear variable-path acoustic interferometer
Mole fraction of trichloromethane	Speed of sound, m/s	uncertainty
0.0446	1575	3
0.1017	1537	3
0.1723	1487	3
0.2354	1440	3
0.2997	1391	3
0.3781	1332	3
0.4465	1281	3
0.5069	1237	3
0.5783	1188	3
0.6347	1151	3
0.7003	1111	3
0.7767	1067	3
0.8645	1022	3
0.9279	992	3

System: trichloromethane + 2-methylaniline; phases: Liquid
Fixed: Temperature, K = 308.15
Fixed: Pressure, kPa = 101
Property: Excess molar volume, m3/mol (Liquid); method: Direct dilatometry
Mole fraction of trichloromethane	Excess molar volume, m3/mol	uncertainty
0.0774	-2.1e-08	2e-09
0.1494	-3.9e-08	2e-09
0.207	-4.8e-08	2e-09
0.2874	-6.4e-08	2e-09
0.3423	-7.1e-08	2e-09
0.415	-7.6e-08	2e-09
0.4891	-7.7e-08	2e-09
0.5657	-7.3e-08	2e-09
0.6192	-6.8e-08	2e-09
0.6904	-5.8e-08	2e-09
0.7454	-4.9e-08	2e-09
0.8001	-3.9e-08	2e-09
0.8647	-2.6e-08	2e-09
0.9324	-1.3e-08	2e-09
