Measured thermophysical data. Volume properties of liquid mixture of {water (1) + ethylenediamine(2)} over the temperature range from 274.15 to 333.15 K at atmospheric pressure
Source: Thermochim. Acta, 2016, 10.1016/j.tca.2016.06.022
Compound 1: ethane-1,2-diamine, C2H8N2, InChI=1S/C2H8N2/c3-1-2-4/h1-4H2, purity 99.5%
Compound 2: water, H2O, InChI=1S/H2O/h1H2

System: ethane-1,2-diamine; phases: Liquid
Fixed: Pressure, kPa = 101
Property: Mass density, kg/m3 (Liquid); method: Vibrating tube method
Temperature, K	Mass density, kg/m3	uncertainty
288.15	901.26	0.51
298.15	891.9	0.51
308.15	882.49	0.51
323.15	868.23	0.51
333.15	858.6	0.52

System: water; phases: Liquid
Fixed: Pressure, kPa = 101
Property: Mass density, kg/m3 (Liquid); method: Vibrating tube method
Temperature, K	Mass density, kg/m3	uncertainty
274.15	999.899	0.501
275.15	999.94	0.501
276.15	999.964	0.501
277.15	999.972	0.506
278.15	999.964	0.501
279.15	999.94	0.501
280.15	999.901	0.501
281.15	999.848	0.501
282.15	999.781	0.501
283.15	999.699	0.501
288.15	999.09	0.501
298.15	997.043	0.502
308.15	994.029	0.502
323.15	988.03	0.502
333.15	983.191	0.503

System: ethane-1,2-diamine + water; phases: Liquid
Fixed: Pressure, kPa = 101
Property: Mass density, kg/m3 (Liquid); method: Vibrating tube method
Temperature, K	Mole fraction of ethane-1,2-diamine	Mass density, kg/m3	uncertainty
274.15	0	999.899	0.501
274.15	0.002	999.81	0.5
274.15	0.0033	999.71	0.5
274.15	0.0047	999.62	0.5
274.15	0.0072	999.47	0.5
274.15	0.009	999.38	0.5
274.15	0.0123	999.18	0.5
274.15	0.0222	998.88	0.5
274.15	0.0436	999.22	0.5
274.15	0.0609	1000.11	0.5
274.15	0.0827	1002.02	0.5
275.15	0	999.94	0.501
275.15	0.002	999.85	0.5
275.15	0.0033	999.74	0.5
275.15	0.0047	999.65	0.5
275.15	0.0072	999.48	0.5
275.15	0.009	999.37	0.5
275.15	0.0123	999.18	0.5
275.15	0.0222	998.82	0.5
275.15	0.0436	999.08	0.5
275.15	0.0609	999.93	0.5
275.15	0.0827	1001.75	0.5
276.15	0	999.964	0.501
276.15	0.002	999.87	0.5
276.15	0.0033	999.75	0.5
276.15	0.0047	999.66	0.51
276.15	0.0072	999.48	0.5
276.15	0.009	999.37	0.5
276.15	0.0123	999.16	0.5
276.15	0.0222	998.79	0.5
276.15	0.0436	998.93	0.5
276.15	0.0609	999.69	0.5
276.15	0.0827	1001.43	0.5
277.15	0	999.972	0.506
277.15	0.002	999.87	0.5
277.15	0.0033	999.75	0.5
277.15	0.0047	999.65	0.5
277.15	0.0072	999.47	0.5
277.15	0.009	999.35	0.5
277.15	0.0123	999.12	0.5
277.15	0.0222	998.71	0.5
277.15	0.0436	998.76	0.5
277.15	0.0609	999.54	0.5
277.15	0.0827	1001.13	0.5
278.15	0	999.964	0.501
278.15	0.002	999.85	0.5
278.15	0.0033	999.73	0.5
278.15	0.0047	999.62	0.5
278.15	0.0072	999.43	0.5
278.15	0.009	999.3	0.5
278.15	0.0123	999.07	0.5
278.15	0.0222	998.62	0.5
278.15	0.0436	998.59	0.5
278.15	0.0609	999.31	0.5
278.15	0.0827	1000.79	0.5
278.15	0.106	1002.72	0.5
278.15	0.1481	1006.44	0.5
278.15	0.2063	1009.32	0.5
278.15	0.2513	1008.93	0.5
278.15	0.3148	1002.73	0.5
278.15	0.3258	1002.11	0.5
278.15	0.3316	1001.85	0.5
278.15	0.341	1001.4	0.5
278.15	0.4038	992.34	0.51
278.15	0.4489	985.23	0.51
278.15	0.4928	977.8	0.51
278.15	0.5468	968.88	0.51
278.15	0.5907	961.76	0.51
278.15	0.6361	954.59	0.51
278.15	0.6843	947.87	0.51
278.15	0.7386	940.37	0.51
278.15	0.7954	933.17	0.51
278.15	0.81	931.24	0.51
278.15	0.8505	926.49	0.51
278.15	0.898	921.18	0.51
278.15	0.9282	917.97	0.51
278.15	0.9584	914.9	0.51
278.15	0.9678	913.98	0.51
279.15	0	999.94	0.501
279.15	0.002	999.82	0.5
279.15	0.0033	999.7	0.5
279.15	0.0047	999.59	0.5
279.15	0.0072	999.38	0.5
279.15	0.009	999.26	0.5
279.15	0.0123	999.01	0.5
279.15	0.0222	998.54	0.5
279.15	0.0436	998.41	0.5
279.15	0.0609	999.05	0.5
279.15	0.0827	1000.47	0.5
280.15	0	999.901	0.501
280.15	0.002	999.78	0.5
280.15	0.0033	999.65	0.5
280.15	0.0047	999.54	0.5
280.15	0.0072	999.33	0.5
280.15	0.009	999.2	0.5
280.15	0.0123	998.93	0.5
280.15	0.0222	998.41	0.5
280.15	0.0436	998.21	0.5
280.15	0.0609	998.8	0.5
280.15	0.0827	1000.14	0.5
281.15	0	999.848	0.501
281.15	0.002	999.72	0.5
281.15	0.0033	999.59	0.5
281.15	0.0047	999.47	0.5
281.15	0.0072	999.25	0.5
281.15	0.009	999.12	0.5
281.15	0.0123	998.84	0.5
281.15	0.0222	998.29	0.5
281.15	0.0436	998.03	0.5
281.15	0.0609	998.53	0.5
281.15	0.0827	999.78	0.5
282.15	0	999.781	0.501
282.15	0.002	999.65	0.5
282.15	0.0033	999.52	0.5
282.15	0.0047	999.39	0.5
282.15	0.0072	999.17	0.5
282.15	0.009	999.04	0.5
282.15	0.0123	998.74	0.5
282.15	0.0222	998.17	0.5
282.15	0.0436	997.81	0.5
282.15	0.0609	998.25	0.5
282.15	0.0827	999.43	0.5
283.15	0	999.699	0.501
283.15	0.002	999.56	0.5
283.15	0.0033	999.43	0.5
283.15	0.0047	999.3	0.5
283.15	0.0072	999.07	0.5
283.15	0.009	998.92	0.5
283.15	0.0123	998.62	0.5
283.15	0.0222	998.01	0.5
283.15	0.0436	997.6	0.5
283.15	0.0609	997.98	0.5
283.15	0.0827	999.09	0.5
288.15	0	999.09	0.501
288.15	0.002	998.94	0.5
288.15	0.0033	998.79	0.5
288.15	0.0047	998.64	0.5
288.15	0.0072	998.38	0.5
288.15	0.009	998.21	0.5
288.15	0.0123	997.87	0.5
288.15	0.0222	997.12	0.5
288.15	0.0436	996.36	0.5
288.15	0.0609	996.47	0.5
288.15	0.0827	997.2	0.5
288.15	0.106	998.37	0.5
288.15	0.1481	1000.83	0.5
288.15	0.2063	1002.48	0.5
288.15	0.2513	1001.08	0.5
288.15	0.3148	995	0.5
288.15	0.3316	993.72	0.5
288.15	0.341	992.78	0.5
288.15	0.3316	993.72	0.5
288.15	0.341	992.78	0.5
288.15	0.4038	983.69	0.51
288.15	0.4489	976.15	0.51
288.15	0.4928	968.71	0.51
288.15	0.5468	959.92	0.51
288.15	0.5907	952.42	0.51
288.15	0.6361	945.77	0.51
288.15	0.6843	938.88	0.51
288.15	0.7386	931.34	0.51
288.15	0.7954	924.08	0.51
288.15	0.81	922.08	0.51
288.15	0.8505	917.35	0.51
288.15	0.898	912.03	0.51
288.15	0.9282	908.76	0.51
288.15	0.9584	905.56	0.51
288.15	0.9678	904.59	0.51
288.15	0.9793	903.4	0.51
288.15	1	901.26	0.51
298.15	0	997.043	0.502
298.15	0.002	996.85	0.5
298.15	0.0033	996.68	0.5
298.15	0.0047	996.5	0.5
298.15	0.0072	996.2	0.5
298.15	0.009	995.97	0.5
298.15	0.0123	995.55	0.5
298.15	0.0222	994.61	0.5
298.15	0.0436	993.31	0.5
298.15	0.0609	992.96	0.5
298.15	0.0827	993.06	0.5
298.15	0.106	993.56	0.5
298.15	0.1481	994.9	0.5
298.15	0.2063	995.33	0.5
298.15	0.2513	993.49	0.5
298.15	0.3148	985.82	0.5
298.15	0.3258	985.17	0.5
298.15	0.341	984.26	0.51
298.15	0.4038	974.96	0.51
298.15	0.4489	967.22	0.51
298.15	0.4928	959.94	0.51
298.15	0.5468	950.96	0.51
298.15	0.5907	943.88	0.51
298.15	0.6361	936.87	0.51
298.15	0.6843	929.8	0.51
298.15	0.7386	922.53	0.51
298.15	0.7954	914.93	0.51
298.15	0.81	912.91	0.51
298.15	0.8505	908.14	0.51
298.15	0.898	902.85	0.51
298.15	0.9282	899.58	0.51
298.15	0.9584	896.29	0.51
298.15	0.9678	895.3	0.51
298.15	0.9793	894.08	0.51
298.15	1	891.9	0.51
308.15	0	994.029	0.502
308.15	0.002	993.82	0.5
308.15	0.0033	993.64	0.5
308.15	0.0047	993.43	0.5
308.15	0.0072	993.09	0.5
308.15	0.009	992.86	0.5
308.15	0.0123	992.39	0.5
308.15	0.0222	991.25	0.5
308.15	0.0436	989.53	0.5
308.15	0.0609	988.77	0.5
308.15	0.0827	988.38	0.5
308.15	0.106	988.34	0.5
308.15	0.1481	988.68	0.5
308.15	0.2063	987.95	0.5
308.15	0.2513	985.55	0.5
308.15	0.3148	978.7	0.51
308.15	0.341	975.15	0.51
308.15	0.4038	965.9	0.51
308.15	0.4489	958.22	0.51
308.15	0.4928	950.76	0.51
308.15	0.5468	942.44	0.51
308.15	0.5907	934.72	0.51
308.15	0.6361	927.73	0.51
308.15	0.6843	920.72	0.51
308.15	0.7386	913.33	0.51
308.15	0.7954	905.7	0.51
308.15	0.81	903.69	0.51
308.15	0.8505	898.88	0.51
308.15	0.898	893.62	0.51
308.15	0.9282	890.26	0.51
308.15	0.9584	886.94	0.51
308.15	0.9678	885.94	0.51
308.15	0.9793	884.7	0.51
308.15	1	882.49	0.51
323.15	0	988.03	0.502
323.15	0.002	987.81	0.5
323.15	0.0033	987.61	0.5
323.15	0.0047	987.39	0.5
323.15	0.0072	987	0.5
323.15	0.009	986.75	0.5
323.15	0.0123	986.24	0.5
323.15	0.0222	984.89	0.5
323.15	0.0436	982.66	0.5
323.15	0.0609	981.44	0.5
323.15	0.0827	980.39	0.5
323.15	0.106	979.64	0.5
323.15	0.1481	978.7	0.5
323.15	0.2063	976.41	0.5
323.15	0.2513	973.14	0.51
323.15	0.3148	964.84	0.51
323.15	0.341	961.96	0.51
323.15	0.4038	952.12	0.51
323.15	0.4489	944.49	0.51
323.15	0.4928	936.96	0.51
323.15	0.5468	928.02	0.51
323.15	0.5907	920.79	0.51
323.15	0.6361	913.79	0.51
323.15	0.6843	906.8	0.51
323.15	0.7386	899.31	0.51
323.15	0.7954	891.79	0.51
323.15	0.81	889.66	0.51
323.15	0.8505	884.84	0.51
323.15	0.898	879.53	0.51
323.15	0.9282	876.1	0.51
323.15	0.9584	872.76	0.51
323.15	0.9678	871.75	0.51
323.15	0.9793	870.49	0.52
323.15	1	868.23	0.51
333.15	0	983.191	0.503
333.15	0.002	982.96	0.5
333.15	0.0033	982.75	0.5
333.15	0.0047	982.53	0.5
333.15	0.0072	982.12	0.5
333.15	0.009	981.85	0.5
333.15	0.0123	981.3	0.5
333.15	0.0222	979.82	0.5
333.15	0.0436	977.37	0.5
333.15	0.0609	975.89	0.5
333.15	0.0827	974.47	0.5
333.15	0.106	973.29	0.5
333.15	0.1481	971.62	0.5
333.15	0.2063	968.4	0.51
333.15	0.2513	964.58	0.51
333.15	0.3148	956.48	0.51
333.15	0.341	952.88	0.51
333.15	0.4038	942.8	0.51
333.15	0.4489	935.14	0.51
333.15	0.4928	927.53	0.51
333.15	0.5468	918.58	0.51
333.15	0.5907	911.42	0.51
333.15	0.6361	904.37	0.51
333.15	0.6843	897.38	0.51
333.15	0.7386	889.84	0.51
333.15	0.7954	882.31	0.51
333.15	0.81	880.16	0.51
333.15	0.8505	875.33	0.51
333.15	0.898	870.05	0.51
333.15	0.9282	866.59	0.51
333.15	0.9584	863.2	0.52
333.15	0.9678	862.17	0.52
333.15	0.9793	860.9	0.52
333.15	1	858.6	0.52
