Measured thermophysical data. Application of the Eotvos and Guggenheim empirical rules for predicting the density and surface tension of ionic liquids analogues
Source: Thermochim. Acta, 2014, 10.1016/j.tca.2013.10.017
Compound 1: choline chloride, C5H14ClNO, InChI=1S/C5H14NO.ClH/c1-6(2,3)4-5-7;/h7H,4-5H2,1-3H3;1H/q+1;/p-1
Compound 2: methyltriphenylphosphonium bromide, C19H18BrP, InChI=1S/C19H18P.BrH/c1-20(17-11-5-2-6-12-17,18-13-7-3-8-14-18)19-15-9-4-10-16-19;/h2-16H,1H3;1H/q+1;/p-1
Compound 3: 2-(diethylamino)ethanol hydrochloride, C6H16ClNO, InChI=1S/C6H15NO.ClH/c1-3-7(4-2)5-6-8;/h8H,3-6H2,1-2H3;1H
Compound 4: glycerol, C3H8O3, InChI=1S/C3H8O3/c4-1-3(6)2-5/h3-6H,1-2H2
Compound 5: 1,2-ethanediol, C2H6O2, InChI=1S/C2H6O2/c3-1-2-4/h3-4H,1-2H2
Compound 6: D-glucose, C6H12O6, InChI=1S/C6H12O6/c7-1-3(9)5(11)6(12)4(10)2-8/h1,3-6,8-12H,2H2/t3-,4+,5+,6+/m0/s1
Compound 7: D-fructose, C6H12O6, InChI=1S/C6H12O6/c7-1-3(9)5(11)6(12)4(10)2-8/h3,5-9,11-12H,1-2H2/t3-,5-,6-/m1/s1

System: glycerol + choline chloride; phases: Liquid, Air at 1 atmosphere
Fixed: Mole fraction of choline chloride = 0.33
Property: Surface tension liquid-gas, N/m (Liquid); method: Ring tensiometer
Temperature, K	Surface tension liquid-gas, N/m	uncertainty
298.15	0.05724	0.00103
303.15	0.05685	0.00103
308.15	0.05643	0.00102
313.15	0.05593	0.00101
318.15	0.05545	0.001
323.15	0.05503	0.001
328.15	0.05455	0.00099

System: choline chloride + 1,2-ethanediol; phases: Liquid
Fixed: Pressure, kPa = 101
Fixed: Mole fraction of choline chloride = 0.33
Property: Mass density, kg/m3 (Liquid); method: Vibrating tube method
Temperature, K	Mass density, kg/m3	uncertainty
298.15	1118	1
303.15	1116	1
308.15	1112	1
313.15	1110	1
318.15	1106	1
323.15	1104	1
328.15	1101	1

System: choline chloride + 1,2-ethanediol; phases: Liquid, Air at 1 atmosphere
Fixed: Mole fraction of choline chloride = 0.33
Property: Surface tension liquid-gas, N/m (Liquid); method: Ring tensiometer
Temperature, K	Surface tension liquid-gas, N/m	uncertainty
298.15	0.04891	0.0009
303.15	0.04843	0.00089
308.15	0.04797	0.00088
313.15	0.0475	0.00087
318.15	0.04703	0.00086
323.15	0.04667	0.00086
328.15	0.04611	0.00085

System: D-glucose + choline chloride; phases: Liquid, Air at 1 atmosphere
Fixed: Mole fraction of choline chloride = 0.67
Property: Surface tension liquid-gas, N/m (Liquid); method: Ring tensiometer
Temperature, K	Surface tension liquid-gas, N/m	uncertainty
298.15	0.07171	0.00132
308.15	0.07111	0.00131
318.15	0.07042	0.0013
328.15	0.06995	0.00129
338.15	0.06944	0.00128
348.15	0.06891	0.00127
358.15	0.06861	0.00127

System: D-fructose + choline chloride; phases: Liquid, Air at 1 atmosphere
Fixed: Mole fraction of choline chloride = 0.67
Property: Surface tension liquid-gas, N/m (Liquid); method: Ring tensiometer
Temperature, K	Surface tension liquid-gas, N/m	uncertainty
298.15	0.07401	0.00142
308.15	0.07198	0.00138
318.15	0.07002	0.00135
328.15	0.06803	0.00131
338.15	0.06598	0.00127
348.15	0.06402	0.00124
358.15	0.06205	0.0012

System: glycerol + methyltriphenylphosphonium bromide; phases: Liquid, Air at 1 atmosphere
Fixed: Mole fraction of methyltriphenylphosphonium bromide = 0.25
Property: Surface tension liquid-gas, N/m (Liquid); method: Ring tensiometer
Temperature, K	Surface tension liquid-gas, N/m	uncertainty
298.15	0.05935	0.00103
303.15	0.05881	0.00103
308.15	0.0582	0.00102
313.15	0.05768	0.00101
318.15	0.05706	0.001
323.15	0.05645	0.00099
328.15	0.05595	0.00098

System: 1,2-ethanediol + methyltriphenylphosphonium bromide; phases: Liquid
Fixed: Pressure, kPa = 101
Fixed: Mole fraction of methyltriphenylphosphonium bromide = 0.2
Property: Mass density, kg/m3 (Liquid); method: Vibrating tube method
Temperature, K	Mass density, kg/m3	uncertainty
298.15	1289	1
303.15	1286	1
308.15	1282	1
313.15	1278	1
318.15	1275	1
323.15	1271	1
328.15	1267	1

System: 1,2-ethanediol + methyltriphenylphosphonium bromide; phases: Liquid, Air at 1 atmosphere
Fixed: Mole fraction of methyltriphenylphosphonium bromide = 0.2
Property: Surface tension liquid-gas, N/m (Liquid); method: Ring tensiometer
Temperature, K	Surface tension liquid-gas, N/m	uncertainty
298.15	0.04751	0.00085
303.15	0.04706	0.00084
308.15	0.04657	0.00083
313.15	0.04612	0.00082
318.15	0.04559	0.00082
323.15	0.04512	0.00081
328.15	0.04464	0.0008

System: glycerol + 2-(diethylamino)ethanol hydrochloride; phases: Liquid
Fixed: Pressure, kPa = 101
Fixed: Mole fraction of 2-(diethylamino)ethanol hydrochloride = 0.2
Property: Mass density, kg/m3 (Liquid); method: Vibrating tube method
Temperature, K	Mass density, kg/m3	uncertainty
298.15	1205	1
303.15	1202	1
308.15	1199	1
313.15	1196	1
318.15	1193	1
323.15	1188	1
328.15	1187	1

System: glycerol + 2-(diethylamino)ethanol hydrochloride; phases: Liquid, Air at 1 atmosphere
Fixed: Mole fraction of 2-(diethylamino)ethanol hydrochloride = 0.2
Property: Surface tension liquid-gas, N/m (Liquid); method: Ring tensiometer
Temperature, K	Surface tension liquid-gas, N/m	uncertainty
298.15	0.05894	0.00103
303.15	0.05833	0.00102
308.15	0.05763	0.00101
313.15	0.05699	0.001
318.15	0.05639	0.00099
323.15	0.05573	0.00098
328.15	0.05516	0.00097

System: 1,2-ethanediol + 2-(diethylamino)ethanol hydrochloride; phases: Liquid
Fixed: Pressure, kPa = 101
Fixed: Mole fraction of 2-(diethylamino)ethanol hydrochloride = 0.25
Property: Mass density, kg/m3 (Liquid); method: Vibrating tube method
Temperature, K	Mass density, kg/m3	uncertainty
298.15	1100	1
303.15	1097	1
308.15	1093	1
313.15	1090	1
318.15	1087	1
323.15	1084	1
328.15	1081	1

System: 1,2-ethanediol + 2-(diethylamino)ethanol hydrochloride; phases: Liquid, Air at 1 atmosphere
Fixed: Mole fraction of 2-(diethylamino)ethanol hydrochloride = 0.25
Property: Surface tension liquid-gas, N/m (Liquid); method: Ring tensiometer
Temperature, K	Surface tension liquid-gas, N/m	uncertainty
298.15	0.05129	0.00091
303.15	0.05074	0.0009
308.15	0.05017	0.00089
313.15	0.04963	0.00088
318.15	0.04914	0.00087
323.15	0.04867	0.00087
328.15	0.04812	0.00086
