Measured thermophysical data. Nanocalorimetry study of the evolution of melting characteristics of single layer silver alkanethiolate lamella: Fast heating/cooling and electrical annealing
Source: Thermochim. Acta, 2015, 10.1016/j.tca.2014.09.001
Compound 1: silver(I) pentadecane-1-thiolate, C15H31AgS, InChI=1S/C15H32S.Ag/c1-2-3-4-5-6-7-8-9-10-11-12-13-14-15-16;/h16H,2-15H2,1H3;/q;+1/p-1

System: silver(I) pentadecane-1-thiolate; phases: Crystal, Liquid, Air at 1 atmosphere
Property: Normal melting temperature, K (Crystal); method: DTA
Normal melting temperature, K	uncertainty
409.65	0.5

System: silver(I) pentadecane-1-thiolate; phases: Crystal, Liquid, Air at 1 atmosphere
Property: Molar enthalpy of transition or fusion, kJ/mol (Crystal); method: DSC
Molar enthalpy of transition or fusion, kJ/mol	uncertainty
52.3	10.5
