Measured thermophysical data. Ternary excess molar enthalpies of (1-propanol + 2-propanol + 1,4-dioxane) mixture at 298.15 K
Source: Thermochim. Acta, 2005, 10.1016/j.tca.2005.06.011
Compound 1: propan-1-ol, C3H8O, InChI=1S/C3H8O/c1-2-3-4/h4H,2-3H2,1H3
Compound 2: propan-2-ol, C3H8O, InChI=1S/C3H8O/c1-3(2)4/h3-4H,1-2H3
Compound 3: 1,4-dioxane, C4H8O2, InChI=1S/C4H8O2/c1-2-6-4-3-5-1/h1-4H2, purity 99.8%

System: propan-2-ol + propan-1-ol; phases: Liquid
Fixed: Temperature, K = 298.15
Fixed: Pressure, kPa = 101
Property: Excess molar enthalpy (molar enthalpy of mixing), kJ/mol (Liquid); method: Flow calorimetry
Mole fraction of propan-1-ol	Excess molar enthalpy (molar enthalpy of mixing), kJ/mol	uncertainty
0.2499	-0.0379	0.0011
0.5	-0.045	0.0011
0.75	-0.035	0.001

System: propan-2-ol + propan-1-ol + 1,4-dioxane; phases: Liquid
Fixed: Temperature, K = 298.15
Fixed: Pressure, kPa = 101
Property: Excess molar enthalpy (molar enthalpy of mixing), kJ/mol (Liquid); method: Flow calorimetry
Solvent: Mole fraction of propan-1-ol	Mole fraction of propan-1-ol	Excess molar enthalpy (molar enthalpy of mixing), kJ/mol	uncertainty
0.2499	0.0125	0.3892	0.004
0.2499	0.025	0.7152	0.0068
0.2499	0.0375	1.0013	0.0093
0.2499	0.05	1.2389	0.0113
0.2499	0.0625	1.4463	0.0131
0.2499	0.075	1.6183	0.0146
0.2499	0.0875	1.7471	0.0157
0.2499	0.1	1.8413	0.0165
0.2499	0.1125	1.9054	0.0171
0.2499	0.125	1.9374	0.0174
0.2499	0.1375	1.928	0.0173
0.2499	0.15	1.8836	0.0169
0.2499	0.1625	1.8012	0.0162
0.2499	0.175	1.6828	0.0152
0.2499	0.1875	1.529	0.0138
0.2499	0.2	1.3322	0.0121
0.2499	0.2125	1.0898	0.01
0.2499	0.2249	0.7958	0.0075
0.2499	0.2374	0.4151	0.0042
0.5	0.025	0.3737	0.0038
0.5	0.05	0.6898	0.0066
0.5	0.075	0.9709	0.009
0.5	0.1	1.2106	0.0111
0.5	0.125	1.4115	0.0128
0.5	0.15	1.5754	0.0142
0.5	0.175	1.7014	0.0153
0.5	0.2	1.792	0.0161
0.5	0.225	1.8491	0.0166
0.5	0.25	1.8787	0.0169
0.5	0.275	1.8714	0.0168
0.5	0.3	1.8174	0.0163
0.5	0.325	1.7414	0.0157
0.5	0.35	1.6209	0.0146
0.5	0.375	1.4696	0.0133
0.5	0.4	1.2765	0.0116
0.5	0.425	1.045	0.0096
0.5	0.45	0.766	0.0072
0.5	0.475	0.3953	0.004
0.75	0.0375	0.3657	0.0038
0.75	0.075	0.6825	0.0065
0.75	0.1125	0.946	0.0088
0.75	0.15	1.1824	0.0108
0.75	0.1875	1.376	0.0125
0.75	0.225	1.5377	0.0139
0.75	0.2625	1.6584	0.0149
0.75	0.3	1.7445	0.0157
0.75	0.3375	1.7978	0.0162
0.75	0.375	1.8212	0.0164
0.75	0.4125	1.8064	0.0162
0.75	0.45	1.7595	0.0158
0.75	0.4875	1.6834	0.0152
0.75	0.525	1.5657	0.0141
0.75	0.5625	1.4127	0.0128
0.75	0.6	1.2241	0.0112
0.75	0.6375	0.9963	0.0092
0.75	0.675	0.723	0.0069
0.75	0.7125	0.3741	0.0038
