Measured thermophysical data. Thermodynamic behaviour of the binary systems dimethyl carbonate + n-octane or n-nonane
Source: Thermochim. Acta, 2005, 10.1016/j.tca.2004.11.022
Compound 1: dimethyl carbonate, C3H6O3, InChI=1S/C3H6O3/c1-5-3(4)6-2/h1-2H3, purity 99%
Compound 2: octane, C8H18, InChI=1S/C8H18/c1-3-5-7-8-6-4-2/h3-8H2,1-2H3
Compound 3: nonane, C9H20, InChI=1S/C9H20/c1-3-5-7-9-8-6-4-2/h3-9H2,1-2H3

System: dimethyl carbonate; phases: Liquid
Fixed: Pressure, kPa = 101.325
Property: Molar heat capacity at constant pressure, J/K/mol (Liquid); method: Small sample (50 mg) DSC
Temperature, K	Molar heat capacity at constant pressure, J/K/mol	uncertainty
288.15	164.03	3.28
298.15	165.02	3.3
308.15	166.3	3.3

System: dimethyl carbonate; phases: Liquid
Property: Speed of sound, m/s (Liquid); method: Pulse-echo method
Temperature, K	Pressure, kPa	Speed of sound, m/s	uncertainty
298.15	101.325	1197.06	1.6

System: dimethyl carbonate; phases: Liquid
Fixed: Pressure, kPa = 101.325
Property: Mass density, kg/m3 (Liquid); method: Vibrating tube method
Temperature, K	Mass density, kg/m3	uncertainty
288.15	1076.56	0.55
293.15	1070.02	0.55
298.15	1063.42	0.55
308.15	1050.11	0.54

System: octane; phases: Liquid
Fixed: Pressure, kPa = 101.325
Property: Molar heat capacity at constant pressure, J/K/mol (Liquid); method: Small sample (50 mg) DSC
Temperature, K	Molar heat capacity at constant pressure, J/K/mol	uncertainty
288.15	250.12	5
298.15	253.94	5.08
308.15	258.03	5.16

System: octane; phases: Liquid
Property: Speed of sound, m/s (Liquid); method: Pulse-echo method
Temperature, K	Pressure, kPa	Speed of sound, m/s	uncertainty
298.15	101.325	1172.09	1.34

System: octane; phases: Liquid
Fixed: Pressure, kPa = 101.325
Property: Mass density, kg/m3 (Liquid); method: Vibrating tube method
Temperature, K	Mass density, kg/m3	uncertainty
288.15	706.54	0.26
293.15	702.53	0.26
298.15	698.5	0.27
308.15	690.34	0.27

System: nonane; phases: Liquid
Fixed: Pressure, kPa = 101.325
Property: Molar heat capacity at constant pressure, J/K/mol (Liquid); method: Small sample (50 mg) DSC
Temperature, K	Molar heat capacity at constant pressure, J/K/mol	uncertainty
288.15	280.13	5.6
298.15	284.23	5.68
308.15	288.8	5.8

System: nonane; phases: Liquid
Property: Speed of sound, m/s (Liquid); method: Pulse-echo method
Temperature, K	Pressure, kPa	Speed of sound, m/s	uncertainty
298.15	101.325	1206.35	1.6

System: nonane; phases: Liquid
Fixed: Pressure, kPa = 101.325
Property: Mass density, kg/m3 (Liquid); method: Vibrating tube method
Temperature, K	Mass density, kg/m3	uncertainty
288.15	721.66	0.41
293.15	717.75	0.41
298.15	713.85	0.41
308.15	706.05	0.41

System: octane + dimethyl carbonate; phases: Liquid
Fixed: Pressure, kPa = 101
Fixed: Temperature, K = 298.15
Property: Speed of sound, m/s (Liquid); method: Pulse-echo method
Mole fraction of dimethyl carbonate	Speed of sound, m/s	uncertainty
0.05047	1164.98	1.35
0.10722	1158.1	1.36
0.19692	1148.9	1.38
0.29575	1141.5	1.4
0.40177	1136.06	1.43
0.50113	1133.74	1.45
0.59737	1134.25	1.48
0.69901	1138.73	1.51
0.79823	1149.09	1.54
0.89916	1167.73	1.57
0.94899	1180.93	1.59

System: octane + dimethyl carbonate; phases: Liquid
Fixed: Pressure, kPa = 101
Property: Molar heat capacity at constant pressure, J/K/mol (Liquid); method: Small sample (50 mg) DSC
Temperature, K	Mole fraction of dimethyl carbonate	Molar heat capacity at constant pressure, J/K/mol	uncertainty
288.15	0.05306	245.12	4.9
288.15	0.10162	240.86	4.82
288.15	0.2012	232.99	4.66
288.15	0.29994	225.81	4.52
288.15	0.40121	219.02	4.38
288.15	0.45492	215.27	4.31
288.15	0.50368	211.61	4.23
288.15	0.5561	207.58	4.15
288.15	0.64825	199.24	3.98
288.15	0.70753	192.93	3.86
288.15	0.79818	182.94	3.66
288.15	0.84841	177.49	3.55
288.15	0.94934	167.98	3.36
298.15	0.05306	248.71	4.97
298.15	0.10162	244.21	4.88
298.15	0.14956	240.18	4.8
298.15	0.2012	235.89	4.72
298.15	0.29994	228.26	4.57
298.15	0.40121	220.47	4.41
298.15	0.45492	216.32	4.33
298.15	0.50368	212.23	4.24
298.15	0.5561	207.88	4.16
298.15	0.64825	199.37	3.99
298.15	0.79818	183.94	3.68
298.15	0.84841	178.74	3.57
298.15	0.94934	169.06	3.38
308.15	0.05306	252.62	5.05
308.15	0.10162	248.11	4.96
308.15	0.14956	243.91	4.88
308.15	0.2012	239.35	4.79
308.15	0.29994	231.22	4.62
308.15	0.40121	222.77	4.46
308.15	0.45492	218.33	4.37
308.15	0.50368	213.92	4.28
308.15	0.5561	209.21	4.18
308.15	0.5998	205.31	4.11
308.15	0.64825	200.7	4.01
308.15	0.79818	185.39	3.71
308.15	0.84841	180.34	3.61
308.15	0.89685	175.52	3.51
308.15	0.94934	170.5	3.41

System: octane + dimethyl carbonate; phases: Liquid
Fixed: Pressure, kPa = 101
Property: Mass density, kg/m3 (Liquid); method: Vibrating tube method
Temperature, K	Mole fraction of dimethyl carbonate	Mass density, kg/m3	uncertainty
288.15	0.05047	715.14	0.27
288.15	0.10722	725.36	0.27
288.15	0.19692	743.56	0.29
288.15	0.29575	766.42	0.31
288.15	0.40177	794.6	0.34
288.15	0.50113	825	0.38
288.15	0.59737	858.8	0.4
288.15	0.69901	900.18	0.42
288.15	0.79823	947.83	0.45
288.15	0.89916	1005.83	0.49
288.15	0.94899	1038.95	0.52
293.15	0.05047	710.88	0.27
293.15	0.10722	721.13	0.27
293.15	0.19692	739.1	0.29
293.15	0.29575	761.79	0.31
293.15	0.40177	789.7	0.34
293.15	0.50113	819.9	0.38
293.15	0.59737	853.5	0.4
293.15	0.69901	894.47	0.42
293.15	0.79823	941.92	0.45
293.15	0.89916	999.55	0.49
293.15	0.94899	1032.56	0.52
298.15	0.05047	706.69	0.27
298.15	0.10722	716.89	0.27
298.15	0.19692	734.68	0.29
298.15	0.29575	757.15	0.31
298.15	0.40177	784.9	0.34
298.15	0.50113	814.8	0.38
298.15	0.59737	848.1	0.39
298.15	0.69901	888.77	0.42
298.15	0.79823	935.98	0.45
298.15	0.89916	993.3	0.49
298.15	0.94899	1026.12	0.51
308.15	0.05047	698.46	0.27
308.15	0.10722	708.37	0.28
308.15	0.19692	725.85	0.29
308.15	0.29575	747.86	0.31
308.15	0.40177	775.1	0.33
308.15	0.50113	804.5	0.37
308.15	0.59737	837.3	0.39
308.15	0.69901	877.52	0.41
308.15	0.79823	924.07	0.44
308.15	0.89916	980.86	0.48
308.15	0.94899	1013.24	0.51

System: nonane + dimethyl carbonate; phases: Liquid
Fixed: Pressure, kPa = 101
Fixed: Temperature, K = 298.15
Property: Speed of sound, m/s (Liquid); method: Pulse-echo method
Mole fraction of dimethyl carbonate	Speed of sound, m/s	uncertainty
0.05335	1198.49	1.6
0.1009	1191.76	1.6
0.19983	1180	1.6
0.29629	1170.49	1.6
0.39646	1162.42	1.6
0.49777	1156.83	1.6
0.59827	1153.43	1.6
0.69763	1153.52	1.6
0.79818	1158.15	1.6
0.8985	1171.2	1.6

System: nonane + dimethyl carbonate; phases: Liquid
Fixed: Pressure, kPa = 101
Property: Molar heat capacity at constant pressure, J/K/mol (Liquid); method: Small sample (50 mg) DSC
Temperature, K	Mole fraction of dimethyl carbonate	Molar heat capacity at constant pressure, J/K/mol	uncertainty
288.15	0.05262	273.59	5.47
288.15	0.10119	267.97	5.36
288.15	0.15139	262.27	5.25
288.15	0.20012	256.97	5.14
288.15	0.29702	247.1	4.94
288.15	0.40176	237.24	4.74
288.15	0.45197	232.75	4.66
288.15	0.50142	228.4	4.57
288.15	0.55135	223.85	4.48
288.15	0.60237	218.72	4.37
288.15	0.6477	213.45	4.27
288.15	0.69785	206.69	4.13
288.15	0.79444	191.68	3.83
288.15	0.84499	183.74	3.67
288.15	0.90159	175.65	3.51
288.15	0.94857	169.8	3.4
298.15	0.05262	277.51	5.55
298.15	0.10119	271.68	5.43
298.15	0.15139	265.73	5.31
298.15	0.20012	260.11	5.2
298.15	0.29702	249.53	4.99
298.15	0.40176	238.51	4.77
298.15	0.45197	233.42	4.67
298.15	0.50142	228.22	4.56
298.15	0.55135	222.78	4.46
298.15	0.60237	217.1	4.34
298.15	0.6477	211.64	4.23
298.15	0.69785	205.13	4.1
298.15	0.79444	191.78	3.84
298.15	0.84499	184.48	3.69
298.15	0.90159	176.75	3.54
298.15	0.94857	170.87	3.42
308.15	0.05262	281.91	5.64
308.15	0.10119	275.81	5.52
308.15	0.15139	269.66	5.39
308.15	0.20012	263.87	5.28
308.15	0.29702	252.77	5.06
308.15	0.40176	241.06	4.82
308.15	0.45197	235.55	4.71
308.15	0.50142	230.02	4.6
308.15	0.55135	224.27	4.49
308.15	0.60237	218.19	4.36
308.15	0.6477	212.66	4.25
308.15	0.69785	206.01	4.12
308.15	0.79444	192.97	3.86
308.15	0.84499	185.93	3.72
308.15	0.90159	178.33	3.57
308.15	0.94857	172.4	3.45

System: nonane + dimethyl carbonate; phases: Liquid
Fixed: Pressure, kPa = 101
Property: Mass density, kg/m3 (Liquid); method: Vibrating tube method
Temperature, K	Mole fraction of dimethyl carbonate	Mass density, kg/m3	uncertainty
288.15	0.05335	729.39	0.41
288.15	0.1009	736.94	0.41
288.15	0.19983	754.47	0.42
288.15	0.29629	774.22	0.43
288.15	0.39646	798.13	0.44
288.15	0.49777	826.3	0.47
288.15	0.59827	859.19	0.47
288.15	0.69763	897.72	0.49
288.15	0.79818	944.58	0.5
288.15	0.8985	1002.3	0.51
293.15	0.05335	725.45	0.41
293.15	0.1009	732.86	0.41
293.15	0.19983	750.26	0.42
293.15	0.29629	769.82	0.43
293.15	0.39646	793.41	0.44
293.15	0.49777	821.39	0.46
293.15	0.59827	853.92	0.47
293.15	0.69763	892.23	0.48
293.15	0.79818	938.72	0.49
293.15	0.8985	996.2	0.51
298.15	0.05335	721.48	0.41
298.15	0.1009	728.79	0.41
298.15	0.19983	746.03	0.42
298.15	0.29629	765.4	0.42
298.15	0.39646	788.73	0.44
298.15	0.49777	816.45	0.46
298.15	0.59827	848.67	0.47
298.15	0.69763	886.73	0.48
298.15	0.79818	932.9	0.49
298.15	0.8985	990.1	0.51
308.15	0.05335	713.45	0.41
308.15	0.1009	720.68	0.41
308.15	0.19983	737.48	0.41
308.15	0.29629	756.46	0.42
308.15	0.39646	779.36	0.43
308.15	0.49777	806.49	0.46
308.15	0.59827	838.24	0.46
308.15	0.69763	875.62	0.47
308.15	0.79818	921.26	0.48
308.15	0.8985	977.7	0.5
