Measured thermophysical data. Excess molar enthalpies and heat capacities of dimethyl sulfoxide + seven normal alkanols at 303.15K and atmospheric pressure
Source: Thermochim. Acta, 2007, 10.1016/j.tca.2006.10.025
Compound 1: dimethyl sulfoxide, C2H6OS, InChI=1S/C2H6OS/c1-4(2)3/h1-2H3
Compound 2: methanol, CH4O, InChI=1S/CH4O/c1-2/h2H,1H3
Compound 3: ethanol, C2H6O, InChI=1S/C2H6O/c1-2-3/h3H,2H2,1H3
Compound 4: propan-1-ol, C3H8O, InChI=1S/C3H8O/c1-2-3-4/h4H,2-3H2,1H3
Compound 5: butan-1-ol, C4H10O, InChI=1S/C4H10O/c1-2-3-4-5/h5H,2-4H2,1H3
Compound 6: hexan-1-ol, C6H14O, InChI=1S/C6H14O/c1-2-3-4-5-6-7/h7H,2-6H2,1H3
Compound 7: octan-1-ol, C8H18O, InChI=1S/C8H18O/c1-2-3-4-5-6-7-8-9/h9H,2-8H2,1H3
Compound 8: decan-1-ol, C10H22O, InChI=1S/C10H22O/c1-2-3-4-5-6-7-8-9-10-11/h11H,2-10H2,1H3

System: dimethyl sulfoxide; phases: Liquid
Property: Mass density, kg/m3 (Liquid); method: Vibrating tube method
Temperature, K	Pressure, kPa	Mass density, kg/m3	uncertainty
303.15	101.325	1090.45	0.11

System: dimethyl sulfoxide; phases: Liquid
Fixed: Pressure, kPa = 101.325
Property: Molar heat capacity at constant pressure, J/K/mol (Liquid); method: Small sample (50 mg) DSC
Temperature, K	Molar heat capacity at constant pressure, J/K/mol	uncertainty
288.15	147.8	2.3
293.15	149.4	2.3
298.15	151.5	2.3
303.15	152.4	2.4
308.15	153.4	2.4
313.15	155.4	2.4
318.15	155.6	2.4
323.15	156.6	2.4

System: methanol; phases: Liquid
Property: Mass density, kg/m3 (Liquid); method: Vibrating tube method
Temperature, K	Pressure, kPa	Mass density, kg/m3	uncertainty
303.15	101.325	781.81	0.16

System: methanol; phases: Liquid
Fixed: Pressure, kPa = 101.325
Property: Molar heat capacity at constant pressure, J/K/mol (Liquid); method: Small sample (50 mg) DSC
Temperature, K	Molar heat capacity at constant pressure, J/K/mol	uncertainty
288.15	78.1	1.2
293.15	79.3	1.2
298.15	81	1.3
303.15	82.2	1.3
308.15	83.4	1.3
313.15	85.6	1.3
318.15	87.5	1.4
323.15	89.5	1.4

System: ethanol; phases: Liquid
Property: Mass density, kg/m3 (Liquid); method: Vibrating tube method
Temperature, K	Pressure, kPa	Mass density, kg/m3	uncertainty
303.15	101.325	780.79	0.16

System: ethanol; phases: Liquid
Fixed: Pressure, kPa = 101.325
Property: Molar heat capacity at constant pressure, J/K/mol (Liquid); method: Small sample (50 mg) DSC
Temperature, K	Molar heat capacity at constant pressure, J/K/mol	uncertainty
288.15	108.8	1.7
293.15	111	1.7
298.15	113.5	1.8
303.15	115.7	1.8
308.15	118.6	1.8
313.15	121.6	1.9
318.15	125.1	1.9
323.15	128.2	2

System: propan-1-ol; phases: Liquid
Property: Mass density, kg/m3 (Liquid); method: Vibrating tube method
Temperature, K	Pressure, kPa	Mass density, kg/m3	uncertainty
303.15	101.325	795.48	0.15

System: propan-1-ol; phases: Liquid
Fixed: Pressure, kPa = 101.325
Property: Molar heat capacity at constant pressure, J/K/mol (Liquid); method: Small sample (50 mg) DSC
Temperature, K	Molar heat capacity at constant pressure, J/K/mol	uncertainty
288.15	139	2.2
293.15	142.3	2.2
298.15	144.9	2.2
303.15	148.3	2.3
308.15	151	2.3
313.15	153.7	2.4
318.15	157.1	2.4
323.15	160.1	2.5

System: butan-1-ol; phases: Liquid
Property: Mass density, kg/m3 (Liquid); method: Vibrating tube method
Temperature, K	Pressure, kPa	Mass density, kg/m3	uncertainty
303.15	101.325	801.98	0.21

System: butan-1-ol; phases: Liquid
Fixed: Pressure, kPa = 101.325
Property: Molar heat capacity at constant pressure, J/K/mol (Liquid); method: Small sample (50 mg) DSC
Temperature, K	Molar heat capacity at constant pressure, J/K/mol	uncertainty
288.15	166.2	2.6
293.15	171.8	2.7
298.15	175.3	2.7
303.15	178.9	2.8
308.15	182.8	2.8
313.15	186.6	2.9
318.15	190.8	3
323.15	194.7	3

System: hexan-1-ol; phases: Liquid
Property: Mass density, kg/m3 (Liquid); method: Vibrating tube method
Temperature, K	Pressure, kPa	Mass density, kg/m3	uncertainty
303.15	101.325	811.39	0.31

System: hexan-1-ol; phases: Liquid
Fixed: Pressure, kPa = 101.325
Property: Molar heat capacity at constant pressure, J/K/mol (Liquid); method: Small sample (50 mg) DSC
Temperature, K	Molar heat capacity at constant pressure, J/K/mol	uncertainty
288.15	231.6	3.6
293.15	237.5	3.7
298.15	241.3	3.7
303.15	246	3.8
308.15	251	3.9
313.15	256.2	4
318.15	262.5	4.1
323.15	268.9	4.2

System: octan-1-ol; phases: Liquid
Property: Mass density, kg/m3 (Liquid); method: Vibrating tube method
Temperature, K	Pressure, kPa	Mass density, kg/m3	uncertainty
303.15	101.325	818.24	0.18

System: octan-1-ol; phases: Liquid
Fixed: Pressure, kPa = 101.325
Property: Molar heat capacity at constant pressure, J/K/mol (Liquid); method: Small sample (50 mg) DSC
Temperature, K	Molar heat capacity at constant pressure, J/K/mol	uncertainty
288.15	294.2	4.6
293.15	300.3	4.7
298.15	304.4	4.7
303.15	309.2	4.8
308.15	314.4	4.9
313.15	319.5	5
318.15	326.2	5.1
323.15	332.7	5.2

System: decan-1-ol; phases: Liquid
Property: Mass density, kg/m3 (Liquid); method: Vibrating tube method
Temperature, K	Pressure, kPa	Mass density, kg/m3	uncertainty
303.15	101.325	822.95	0.31

System: decan-1-ol; phases: Liquid
Fixed: Pressure, kPa = 101.325
Property: Molar heat capacity at constant pressure, J/K/mol (Liquid); method: Small sample (50 mg) DSC
Temperature, K	Molar heat capacity at constant pressure, J/K/mol	uncertainty
288.15	360.1	5.6
293.15	368.5	5.7
298.15	373.9	5.8
303.15	379.3	5.9
308.15	385.3	6
313.15	390.6	6.1
318.15	395.9	6.1
323.15	401.3	6.2

System: methanol + dimethyl sulfoxide; phases: Liquid
Fixed: Temperature, K = 303.15
Fixed: Pressure, kPa = 101
Property: Molar heat capacity at constant pressure, J/K/mol (Liquid); method: Small sample (50 mg) DSC
Mole fraction of dimethyl sulfoxide	Molar heat capacity at constant pressure, J/K/mol	uncertainty
0.0308	84	1.3
0.061	85.8	1.3
0.1103	88.3	1.4
0.197	93.9	1.5
0.2818	97.8	1.5
0.3571	102.3	1.6
0.4676	109.7	1.7
0.5886	116.1	1.8
0.6833	124.6	1.9
0.8398	137.5	2.1
0.9068	142.5	2.2
0.923	144.6	2.2

System: methanol + dimethyl sulfoxide; phases: Liquid
Fixed: Temperature, K = 303.15
Fixed: Pressure, kPa = 101
Property: Excess molar enthalpy (molar enthalpy of mixing), kJ/mol (Liquid); method: Flow calorimetry
Mole fraction of dimethyl sulfoxide	Excess molar enthalpy (molar enthalpy of mixing), kJ/mol	uncertainty
0.0176	0.008	0.001
0.0233	0.009	0.001
0.0455	0.003	0.001
0.0667	-0.011	0.001
0.087	-0.032	0.002
0.1251	-0.081	0.002
0.1601	-0.133	0.003
0.2223	-0.227	0.004
0.276	-0.298	0.004
0.3639	-0.38	0.005
0.4619	-0.428	0.006
0.5336	-0.433	0.006
0.6318	-0.412	0.006
0.6959	-0.373	0.005
0.7744	-0.317	0.004
0.8207	-0.253	0.004
0.8728	-0.185	0.003
0.9321	-0.097	0.002

System: ethanol + dimethyl sulfoxide; phases: Liquid
Fixed: Temperature, K = 303.15
Fixed: Pressure, kPa = 101
Property: Molar heat capacity at constant pressure, J/K/mol (Liquid); method: Small sample (50 mg) DSC
Mole fraction of dimethyl sulfoxide	Molar heat capacity at constant pressure, J/K/mol	uncertainty
0.0356	117.9	1.8
0.0504	119.1	1.8
0.1092	121.7	1.9
0.1636	121.8	1.9
0.2647	124.6	1.9
0.3441	126.3	2
0.4469	129.9	2
0.557	133	2.1
0.6498	136.8	2.1
0.7615	141	2.2
0.8872	146.6	2.3
0.9408	148	2.3

System: ethanol + dimethyl sulfoxide; phases: Liquid
Fixed: Temperature, K = 303.15
Fixed: Pressure, kPa = 101
Property: Excess molar enthalpy (molar enthalpy of mixing), kJ/mol (Liquid); method: Flow calorimetry
Mole fraction of dimethyl sulfoxide	Excess molar enthalpy (molar enthalpy of mixing), kJ/mol	uncertainty
0.0332	0.123	0.004
0.0642	0.215	0.004
0.0933	0.281	0.005
0.1207	0.34	0.005
0.1707	0.409	0.006
0.2154	0.455	0.006
0.2917	0.502	0.007
0.3543	0.509	0.007
0.4516	0.489	0.006
0.5527	0.442	0.006
0.6222	0.397	0.005
0.7119	0.322	0.005
0.7671	0.273	0.004
0.8317	0.202	0.003
0.8682	0.157	0.003
0.9081	0.118	0.002
0.9518	0.062	0.002

System: dimethyl sulfoxide + propan-1-ol; phases: Liquid
Fixed: Temperature, K = 303.15
Fixed: Pressure, kPa = 101
Property: Molar heat capacity at constant pressure, J/K/mol (Liquid); method: Small sample (50 mg) DSC
Mole fraction of dimethyl sulfoxide	Molar heat capacity at constant pressure, J/K/mol	uncertainty
0.0514	146.2	2.3
0.1127	144	2.2
0.2114	141.8	2.2
0.3163	142.6	2.2
0.418	139.9	2.2
0.5029	140.6	2.2
0.6216	140.7	2.2
0.7068	141.6	2.2
0.7975	144.2	2.2
0.8537	145.6	2.3
0.8994	146.5	2.3
0.9429	147.6	2.3

System: dimethyl sulfoxide + propan-1-ol; phases: Liquid
Fixed: Temperature, K = 303.15
Fixed: Pressure, kPa = 101
Property: Excess molar enthalpy (molar enthalpy of mixing), kJ/mol (Liquid); method: Flow calorimetry
Mole fraction of dimethyl sulfoxide	Excess molar enthalpy (molar enthalpy of mixing), kJ/mol	uncertainty
0.0421	0.188	0.005
0.0808	0.336	0.006
0.1165	0.458	0.007
0.1495	0.561	0.008
0.2086	0.68	0.009
0.2601	0.768	0.01
0.3452	0.853	0.011
0.4127	0.879	0.011
0.5133	0.859	0.011
0.6128	0.79	0.01
0.6783	0.717	0.009
0.7598	0.569	0.008
0.8084	0.495	0.007
0.8634	0.37	0.005
0.894	0.302	0.005
0.9268	0.218	0.004
0.962	0.118	0.003

System: dimethyl sulfoxide + butan-1-ol; phases: Liquid
Fixed: Temperature, K = 303.15
Fixed: Pressure, kPa = 101
Property: Molar heat capacity at constant pressure, J/K/mol (Liquid); method: Small sample (50 mg) DSC
Mole fraction of dimethyl sulfoxide	Molar heat capacity at constant pressure, J/K/mol	uncertainty
0.0874	175.2	2.7
0.1288	172.3	2.7
0.2324	167	2.6
0.364	161.2	2.5
0.4541	158	2.4
0.5775	155.4	2.4
0.6568	152.7	2.4
0.7207	151.6	2.3
0.7577	150.8	2.3
0.8537	150.3	2.3
0.919	150	2.3
0.9542	151.5	2.3

System: dimethyl sulfoxide + butan-1-ol; phases: Liquid
Fixed: Temperature, K = 303.15
Fixed: Pressure, kPa = 101
Property: Excess molar enthalpy (molar enthalpy of mixing), kJ/mol (Liquid); method: Flow calorimetry
Mole fraction of dimethyl sulfoxide	Excess molar enthalpy (molar enthalpy of mixing), kJ/mol	uncertainty
0.051	0.299	0.006
0.097	0.518	0.008
0.1385	0.686	0.009
0.1769	0.791	0.01
0.2438	0.923	0.012
0.3007	0.988	0.013
0.3921	1.069	0.014
0.4622	1.063	0.013
0.5633	1.026	0.013
0.6594	0.932	0.012
0.7207	0.843	0.011
0.7947	0.717	0.009
0.8377	0.604	0.008
0.8856	0.467	0.007
0.9117	0.377	0.006
0.9393	0.273	0.006
0.9687	0.149	0.005

System: dimethyl sulfoxide + hexan-1-ol; phases: Liquid
Fixed: Temperature, K = 303.15
Fixed: Pressure, kPa = 101
Property: Molar heat capacity at constant pressure, J/K/mol (Liquid); method: Small sample (50 mg) DSC
Mole fraction of dimethyl sulfoxide	Molar heat capacity at constant pressure, J/K/mol	uncertainty
0.1102	239.9	3.7
0.1949	231.7	3.6
0.2888	222.5	3.4
0.3759	216.5	3.4
0.4388	211.5	3.3
0.535	199.2	3.1
0.5365	199.4	3.1
0.6311	190.4	3
0.7339	181.8	2.8
0.8062	171	2.6
0.8704	164.7	2.6
0.9359	158.8	2.5

System: dimethyl sulfoxide + hexan-1-ol; phases: Liquid
Fixed: Temperature, K = 303.15
Fixed: Pressure, kPa = 101
Property: Excess molar enthalpy (molar enthalpy of mixing), kJ/mol (Liquid); method: Flow calorimetry
Mole fraction of dimethyl sulfoxide	Excess molar enthalpy (molar enthalpy of mixing), kJ/mol	uncertainty
0.0682	0.361	0.007
0.1277	0.64	0.009
0.1801	0.847	0.011
0.2265	1.008	0.013
0.3053	1.197	0.015
0.3694	1.297	0.016
0.4677	1.36	0.017
0.5394	1.363	0.017
0.6374	1.283	0.016
0.7251	1.165	0.015
0.7786	1.036	0.013
0.8406	0.865	0.011
0.8755	0.746	0.01
0.9134	0.56	0.009
0.9336	0.454	0.008
0.9547	0.331	0.008
0.9768	0.181	0.007

System: dimethyl sulfoxide + octan-1-ol; phases: Liquid
Fixed: Temperature, K = 303.15
Fixed: Pressure, kPa = 101
Property: Molar heat capacity at constant pressure, J/K/mol (Liquid); method: Small sample (50 mg) DSC
Mole fraction of dimethyl sulfoxide	Molar heat capacity at constant pressure, J/K/mol	uncertainty
0.0953	296.5	4.6
0.1847	284.2	4.4
0.3137	264.7	4.1
0.3478	256.2	4
0.4629	241.9	3.7
0.5855	221.6	3.4
0.6299	215.1	3.3
0.7302	200.6	3.1
0.7656	193.2	3
0.842	182.1	2.8
0.8956	173.1	2.7
0.9603	162.4	2.5

System: dimethyl sulfoxide + octan-1-ol; phases: Liquid
Fixed: Temperature, K = 303.15
Fixed: Pressure, kPa = 101
Property: Excess molar enthalpy (molar enthalpy of mixing), kJ/mol (Liquid); method: Flow calorimetry
Mole fraction of dimethyl sulfoxide	Excess molar enthalpy (molar enthalpy of mixing), kJ/mol	uncertainty
0.0847	0.47	0.008
0.1562	0.815	0.011
0.2173	1.074	0.014
0.2702	1.212	0.015
0.3571	1.386	0.017
0.4254	1.466	0.018
0.5262	1.48	0.019
0.5968	1.468	0.018
0.6896	1.391	0.017
0.7692	1.271	0.016
0.8163	1.143	0.015
0.8696	0.956	0.013
0.8988	0.814	0.012
0.9302	0.626	0.01
0.9467	0.507	0.01
0.9638	0.363	0.01
0.9816	0.196	0.01

System: dimethyl sulfoxide + decan-1-ol; phases: Liquid
Fixed: Temperature, K = 303.15
Fixed: Pressure, kPa = 101
Property: Molar heat capacity at constant pressure, J/K/mol (Liquid); method: Small sample (50 mg) DSC
Mole fraction of dimethyl sulfoxide	Molar heat capacity at constant pressure, J/K/mol	uncertainty
0.0868	355.3	5.5
0.1641	338	5.2
0.2592	316.3	4.9
0.4231	282.4	4.4
0.5259	259.2	4
0.6431	235.2	3.6
0.7082	221.4	3.4
0.7997	201	3.1
0.8618	186.2	2.9
0.8908	179.2	2.8
0.9159	172.9	2.7
0.9596	162.1	2.5

System: dimethyl sulfoxide + decan-1-ol; phases: Liquid
Fixed: Temperature, K = 303.15
Fixed: Pressure, kPa = 101
Property: Excess molar enthalpy (molar enthalpy of mixing), kJ/mol (Liquid); method: Flow calorimetry
Mole fraction of dimethyl sulfoxide	Excess molar enthalpy (molar enthalpy of mixing), kJ/mol	uncertainty
0.1006	0.466	0.008
0.1828	0.876	0.012
0.2512	1.157	0.015
0.3091	1.326	0.017
0.4016	1.475	0.019
0.4722	1.524	0.019
0.573	1.508	0.019
0.6414	1.475	0.019
0.7286	1.374	0.017
0.8011	1.259	0.016
0.843	1.135	0.015
0.8895	0.952	0.013
0.9148	0.821	0.012
0.9416	0.628	0.011
0.9555	0.495	0.012
0.9699	0.354	0.011
0.9847	0.191	0.011
