Measured thermophysical data. Physical properties and their corresponding changes of mixing for the ternary mixture acetone + n-hexane +water at 298.15K
Source: Thermochim. Acta, 2006, 10.1016/j.tca.2006.01.008
Compound 1: acetone, C3H6O, InChI=1S/C3H6O/c1-3(2)4/h1-2H3
Compound 2: hexane, C6H14, InChI=1S/C6H14/c1-3-5-6-4-2/h3-6H2,1-2H3
Compound 3: water, H2O, InChI=1S/H2O/h1H2, purity 99.99%

System: acetone; phases: Liquid
Property: Refractive index (Na D-line) (Liquid); method: Standard Abbe refractometry
Temperature, K	Pressure, kPa	Refractive index (Na D-line)	uncertainty
298.15	101.325	1.356	0.0004

System: acetone; phases: Liquid
Property: Mass density, kg/m3 (Liquid); method: Vibrating tube method
Temperature, K	Pressure, kPa	Mass density, kg/m3	uncertainty
298.15	101.325	784.9	0.27

System: hexane; phases: Liquid
Property: Refractive index (Na D-line) (Liquid); method: Standard Abbe refractometry
Temperature, K	Pressure, kPa	Refractive index (Na D-line)	uncertainty
298.15	101.325	1.3724	0.0004

System: hexane; phases: Liquid
Property: Mass density, kg/m3 (Liquid); method: Vibrating tube method
Temperature, K	Pressure, kPa	Mass density, kg/m3	uncertainty
298.15	101.325	655.1	0.3

System: water; phases: Liquid
Property: Refractive index (Na D-line) (Liquid); method: Standard Abbe refractometry
Temperature, K	Pressure, kPa	Refractive index (Na D-line)	uncertainty
298.15	101.325	1.3325	0.0004

System: water; phases: Liquid
Property: Mass density, kg/m3 (Liquid); method: Vibrating tube method
Temperature, K	Pressure, kPa	Mass density, kg/m3	uncertainty
298.15	101.325	997	0.1

System: acetone + water; phases: Liquid
Fixed: Temperature, K = 298.15
Fixed: Pressure, kPa = 101
Property: Refractive index (Na D-line) (Liquid); method: Standard Abbe refractometry
Mole fraction of acetone	Refractive index (Na D-line)	uncertainty
0.0502	1.3422	0.0004
0.0993	1.3499	0.0004
0.1502	1.3549	0.0004
0.1996	1.3583	0.0004
0.2496	1.3604	0.0004
0.3007	1.3616	0.0004
0.3507	1.3621	0.0004
0.4003	1.3623	0.0004
0.4509	1.3621	0.0004
0.4992	1.3618	0.0004
0.5489	1.3614	0.0004
0.599	1.3609	0.0004
0.6506	1.3603	0.0004
0.6996	1.3602	0.0004
0.7014	1.3597	0.0004
0.7467	1.3591	0.0004
0.8011	1.3592	0.0004
0.8015	1.3583	0.0004
0.846	1.3577	0.0004
0.8969	1.3569	0.0004
0.9005	1.3572	0.0004
0.9451	1.3564	0.0004

System: acetone + water; phases: Liquid
Fixed: Temperature, K = 298.15
Fixed: Pressure, kPa = 101
Property: Mass density, kg/m3 (Liquid); method: Vibrating tube method
Mole fraction of acetone	Mass density, kg/m3	uncertainty
0.0502	977	0.1
0.0993	959.3	0.1
0.1502	942.2	0.1
0.1996	926.6	0.1
0.2496	911.8	0.1
0.3007	897.6	0.2
0.3507	884.8	0.2
0.4003	873.1	0.2
0.4509	862.1	0.2
0.4992	852.5	0.2
0.5489	843.5	0.2
0.599	835	0.2
0.6506	827	0.2
0.6996	819.9	0.2
0.7014	819.6	0.2
0.7467	813.4	0.2
0.8011	806.2	0.2
0.8015	806.3	0.2
0.846	800.8	0.2
0.8969	794.9	0.2
0.9005	794.5	0.2
0.9451	789.9	0.2

System: acetone + hexane; phases: Liquid
Fixed: Temperature, K = 298.15
Fixed: Pressure, kPa = 101
Property: Refractive index (Na D-line) (Liquid); method: Standard Abbe refractometry
Mole fraction of acetone	Refractive index (Na D-line)	uncertainty
0.0504	1.3709	0.0004
0.0994	1.3699	0.0004
0.1511	1.3688	0.0004
0.1999	1.3679	0.0004
0.2497	1.3668	0.0004
0.3006	1.366	0.0004
0.3518	1.3651	0.0004
0.4006	1.3643	0.0004
0.4476	1.3635	0.0004
0.4995	1.3627	0.0004
0.5498	1.3618	0.0004
0.5976	1.3611	0.0004
0.6479	1.3603	0.0004
0.697	1.3595	0.0004
0.7503	1.3587	0.0004
0.7998	1.358	0.0004
0.8499	1.3572	0.0004
0.8979	1.3568	0.0004
0.9507	1.3561	0.0004

System: acetone + hexane; phases: Liquid
Fixed: Temperature, K = 298.15
Fixed: Pressure, kPa = 101
Property: Mass density, kg/m3 (Liquid); method: Vibrating tube method
Mole fraction of acetone	Mass density, kg/m3	uncertainty
0.0504	657.2	0.3
0.0994	659.7	0.3
0.1511	662.9	0.3
0.1999	666.3	0.3
0.2497	670.1	0.3
0.3006	674.4	0.3
0.3518	679	0.3
0.4006	683.7	0.3
0.4476	688.7	0.3
0.4995	694.5	0.3
0.5498	700.7	0.3
0.5976	707	0.3
0.6479	714.1	0.3
0.697	721.7	0.3
0.7503	730.5	0.3
0.7998	739.4	0.3
0.8499	749.1	0.3
0.8979	759.3	0.3
0.9507	771.7	0.3

System: acetone + hexane + water; phases: Liquid
Fixed: Temperature, K = 298.15
Fixed: Pressure, kPa = 101
Property: Refractive index (Na D-line) (Liquid); method: Standard Abbe refractometry
Mole fraction of acetone	Mole fraction of hexane	Refractive index (Na D-line)	uncertainty
0	1	1.3724	0.0007
0.0001	1	1.3724	0.0007
0.0002	1	1.3724	0.0007
0.0919	0.898	1.3702	0.0007
0.1793	0.8009	1.3684	0.0007
0.2698	0.7003	1.3665	0.0007
0.36	0.6002	1.3646	0.0007
0.4486	0.5019	1.3634	0.0007
0.5403	0.4	1.3624	0.0007
0.6299	0.0996	1.3603	0.0007
0.6304	0.3	1.3603	0.0007
0.6417	0.199	1.3601	0.0007
0.6649	0.0497	1.3602	0.0007
0.6779	0.1538	1.3598	0.0007
0.6996	0	1.3602	0.0007
0.7189	0.2016	1.3585	0.0008
0.7199	0.1014	1.3594	0.0007
0.7602	0.0511	1.3594	0.0008
0.8011	0	1.3592	0.0007
0.81	0.1005	1.3573	0.001
0.9005	0	1.3572	0.0007

System: acetone + hexane + water; phases: Liquid
Fixed: Temperature, K = 298.15
Fixed: Pressure, kPa = 101
Property: Mass density, kg/m3 (Liquid); method: Vibrating tube method
Mole fraction of acetone	Mole fraction of hexane	Mass density, kg/m3	uncertainty
0	1	655.1	0.3
0.0001	1	655.1	0.3
0.0002	1	655.1	0.3
0.0919	0.898	659.7	2.7
0.1793	0.8009	665.7	2.7
0.2698	0.7003	672.9	2.7
0.36	0.6002	682.1	2.7
0.4486	0.5019	693.9	2.8
0.5403	0.4	708.6	2.8
0.6299	0.0996	781.5	3.1
0.6304	0.3	724.9	2.9
0.6417	0.199	748.2	3
0.6649	0.0497	799.5	3.2
0.6779	0.1538	759.2	3
0.6996	0	819.9	0.2
0.7189	0.2016	743.3	3
0.7199	0.1014	773.4	3.1
0.7602	0.0511	788.7	3.2
0.8011	0	806.2	0.2
0.81	0.1005	766.6	3.1
0.9005	0	794.5	0.2
