Measured thermophysical data. Experimental and prediction of volumetric properties of aqueous solution of (allyltriphenylPhosphonium bromide - Triethylene glycol) deep eutectic solvents
Source: Thermochim. Acta, 2017, 10.1016/j.tca.2017.09.025
Compound 1: allyltriphenylphosphonium bromide, C21H20BrP, InChI=1S/C21H20P.BrH/c1-2-18-22(19-12-6-3-7-13-19,20-14-8-4-9-15-20)21-16-10-5-11-17-21;/h2-17H,1,18H2;1H/q+1;/p-1, purity 99%
Compound 2: triethylene glycol, C6H14O4, InChI=1S/C6H14O4/c7-1-3-9-5-6-10-4-2-8/h7-8H,1-6H2, purity 99%
Compound 3: water, H2O, InChI=1S/H2O/h1H2, purity 99.8%

System: triethylene glycol; phases: Liquid
Fixed: Pressure, kPa = 100
Property: Mass density, kg/m3 (Liquid); method: Vibrating tube method
Temperature, K	Mass density, kg/m3	uncertainty
293.15	1124.6	7.9
298.15	1120.8	7.9
308.15	1113	7.8
318.15	1105.2	7.7
328.15	1097.4	7.7
343.15	1085.6	7.6

System: water; phases: Liquid
Fixed: Pressure, kPa = 100
Property: Mass density, kg/m3 (Liquid); method: Vibrating tube method
Temperature, K	Mass density, kg/m3	uncertainty
293.15	999	5.4
298.15	997.4	5.4
308.15	994.2	5.4
318.15	990.2	5.3
328.15	985.7	5.3
343.15	978.1	5.3
303.15	995.8	5.4
313.15	992.5	5.4
323.15	988.2	5.3
333.15	983.5	5.3
338.15	980.7	5.3

System: allyltriphenylphosphonium bromide + triethylene glycol + water; phases: Liquid
Fixed: Pressure, kPa = 100
Property: Mass density, kg/m3 (Liquid); method: Vibrating tube method
Temperature, K	Solvent: Mass fraction of allyltriphenylphosphonium bromide	Mole fraction of water	Mass density, kg/m3	uncertainty
293.15	0.3895	1	999	6.4
293.15	0.3895	0.9704	1047.2	6.7
293.15	0.3895	0.9162	1100.9	7.1
293.15	0.3895	0.7847	1153.1	7.4
293.15	0.3895	0.3652	1187	7.7
293.15	0.3895	0.1824	1190.2	7.7
293.15	0.3895	0	1190.8	7.7
298.15	0.3895	1	997.4	6.4
298.15	0.3895	0.9704	1044.8	6.7
298.15	0.3895	0.9162	1098.4	7
298.15	0.3895	0.7847	1149.1	7.4
298.15	0.3895	0.3652	1183.3	7.7
298.15	0.3895	0.1824	1186.7	7.7
298.15	0.3895	0	1187.1	7.7
303.15	0.3895	1	995.8	6.4
303.15	0.3895	0.9704	1042.9	6.7
303.15	0.3895	0.9162	1094.5	7
303.15	0.3895	0.7847	1145.4	7.4
303.15	0.3895	0.3652	1179.4	7.7
303.15	0.3895	0.1824	1183.2	7.7
303.15	0.3895	0	1183.4	7.7
308.15	0.3895	1	994.2	6.4
308.15	0.3895	0.9704	1040	6.7
308.15	0.3895	0.9162	1091.4	7
308.15	0.3895	0.7847	1141.6	7.3
308.15	0.3895	0.3652	1175.4	7.6
308.15	0.3895	0.1824	1179.2	7.7
308.15	0.3895	0	1179.7	7.7
313.15	0.3895	1	992.5	6.4
313.15	0.3895	0.9704	1038	6.6
313.15	0.3895	0.9162	1087.9	7
313.15	0.3895	0.7847	1137.6	7.3
313.15	0.3895	0.3652	1171.7	7.6
313.15	0.3895	0.1824	1175.7	7.6
313.15	0.3895	0	1176.1	7.7
318.15	0.3895	1	990.2	6.3
318.15	0.3895	0.9704	1035.1	6.6
318.15	0.3895	0.9162	1084.1	6.9
318.15	0.3895	0.7847	1133.7	7.3
318.15	0.3895	0.3652	1167.8	7.6
318.15	0.3895	0.1824	1172.1	7.6
318.15	0.3895	0	1172.4	7.6
323.15	0.3895	1	988.2	6.3
323.15	0.3895	0.9704	1032.5	6.6
323.15	0.3895	0.9162	1080.9	6.9
323.15	0.3895	0.7847	1129.6	7.2
323.15	0.3895	0.3652	1164	7.6
323.15	0.3895	0.1824	1168.4	7.6
323.15	0.3895	0	1168.7	7.6
328.15	0.3895	1	985.7	6.3
328.15	0.3895	0.9704	1029.3	6.6
328.15	0.3895	0.9162	1076.7	6.9
328.15	0.3895	0.7847	1125.8	7.2
328.15	0.3895	0.3652	1160.1	7.5
328.15	0.3895	0.1824	1164.8	7.6
328.15	0.3895	0	1165	7.6
333.15	0.3895	1	983.5	6.3
333.15	0.3895	0.9704	1026.6	6.6
333.15	0.3895	0.9162	1073.6	6.9
333.15	0.3895	0.7847	1121.5	7.2
333.15	0.3895	0.3652	1156.2	7.5
333.15	0.3895	0.1824	1161	7.6
333.15	0.3895	0	1161.3	7.6
338.15	0.3895	1	980.7	6.3
338.15	0.3895	0.9704	1023.5	6.6
338.15	0.3895	0.9162	1069.4	6.9
338.15	0.3895	0.7847	1117.3	7.2
338.15	0.3895	0.3652	1152.2	7.5
338.15	0.3895	0.1824	1157.2	7.5
338.15	0.3895	0	1157.6	7.5
343.15	0.3895	1	978.1	6.3
343.15	0.3895	0.9704	1020.1	6.5
343.15	0.3895	0.9162	1065.8	6.8
343.15	0.3895	0.7847	1113.2	7.1
343.15	0.3895	0.3652	1148.4	7.4
343.15	0.3895	0.1824	1153.4	7.5
343.15	0.3895	0	1153.9	7.5
293.15	0.2033	1	999	6.4
293.15	0.2033	0.9662	1044.4	6.7
293.15	0.2033	0.9049	1091.5	7
293.15	0.2033	0.7604	1134	7.4
293.15	0.2033	0.3338	1157.8	7.6
293.15	0.2033	0.1627	1159	7.6
293.15	0.2033	0	1159.2	7.6
298.15	0.2033	1	997.4	6.4
298.15	0.2033	0.9662	1042.3	6.7
298.15	0.2033	0.9049	1088.5	7
298.15	0.2033	0.7604	1130	7.3
298.15	0.2033	0.3338	1154.3	7.5
298.15	0.2033	0.1627	1155.3	7.5
298.15	0.2033	0	1155.5	7.5
303.15	0.2033	1	995.8	6.4
303.15	0.2033	0.9662	1040.1	6.7
303.15	0.2033	0.9049	1085.2	7
303.15	0.2033	0.7604	1126.5	7.3
303.15	0.2033	0.3338	1150.2	7.5
303.15	0.2033	0.1627	1151.6	7.5
303.15	0.2033	0	1151.7	7.5
308.15	0.2033	1	994.2	6.4
308.15	0.2033	0.9662	1038	6.7
308.15	0.2033	0.9049	1081.8	7
308.15	0.2033	0.7604	1123.2	7.3
308.15	0.2033	0.3338	1146.4	7.5
308.15	0.2033	0.1627	1147.8	7.5
308.15	0.2033	0	1148	7.5
313.15	0.2033	1	992.5	6.4
313.15	0.2033	0.9662	1035.2	6.6
313.15	0.2033	0.9049	1078.6	6.9
313.15	0.2033	0.7604	1118.9	7.2
313.15	0.2033	0.3338	1142.6	7.5
313.15	0.2033	0.1627	1144	7.5
313.15	0.2033	0	1144.2	7.5
318.15	0.2033	1	990.2	6.3
318.15	0.2033	0.9662	1032.3	6.6
318.15	0.2033	0.9049	1075.1	6.9
318.15	0.2033	0.7604	1115.3	7.2
318.15	0.2033	0.3338	1138.7	7.4
318.15	0.2033	0.1627	1140.1	7.4
318.15	0.2033	0	1140.5	7.4
323.15	0.2033	1	988.2	6.3
323.15	0.2033	0.9662	1029.8	6.6
323.15	0.2033	0.9049	1071.7	6.9
323.15	0.2033	0.7604	1111.1	7.2
323.15	0.2033	0.3338	1134.9	7.4
323.15	0.2033	0.1627	1136.5	7.4
323.15	0.2033	0	1136.7	7.4
328.15	0.2033	1	985.7	6.3
328.15	0.2033	0.9662	1026.6	6.6
328.15	0.2033	0.9049	1068.2	6.9
328.15	0.2033	0.7604	1107.6	7.2
328.15	0.2033	0.3338	1131.1	7.4
328.15	0.2033	0.1627	1132.6	7.4
328.15	0.2033	0	1133	7.4
333.15	0.2033	1	983.5	6.3
333.15	0.2033	0.9662	1023.9	6.6
333.15	0.2033	0.9049	1064.6	6.9
333.15	0.2033	0.7604	1103.1	7.1
333.15	0.2033	0.3338	1127.2	7.4
333.15	0.2033	0.1627	1128.9	7.4
333.15	0.2033	0	1129.2	7.4
338.15	0.2033	1	980.7	6.3
338.15	0.2033	0.9662	1020.6	6.5
338.15	0.2033	0.9049	1061.5	6.8
338.15	0.2033	0.7604	1099.2	7.1
338.15	0.2033	0.3338	1123.5	7.3
338.15	0.2033	0.1627	1125	7.3
338.15	0.2033	0	1125.5	7.3
343.15	0.2033	1	978.1	6.3
343.15	0.2033	0.9662	1017.5	6.5
343.15	0.2033	0.9049	1057.1	6.8
343.15	0.2033	0.7604	1095.1	7.1
343.15	0.2033	0.3338	1119.5	7.3
343.15	0.2033	0.1627	1121.2	7.3
343.15	0.2033	0	1121.7	7.3
293.15	0.1375	1	999	6.4
293.15	0.1375	0.9647	1042.7	6.8
293.15	0.1375	0.901	1087.3	7.3
293.15	0.1375	0.7522	1125.9	7.8
293.15	0.1375	0.3239	1143.9	7.6
293.15	0.1375	0.1567	1145.9	7.5
293.15	0.1375	0	1146.2	7.5
298.15	0.1375	1	997.4	6.4
298.15	0.1375	0.9647	1040.3	6.7
298.15	0.1375	0.901	1084.2	7.1
298.15	0.1375	0.7522	1122	7.5
298.15	0.1375	0.3239	1140.2	7.6
298.15	0.1375	0.1567	1142.2	7.5
298.15	0.1375	0	1142.5	7.5
303.15	0.1375	1	995.8	6.4
303.15	0.1375	0.9647	1038.4	6.7
303.15	0.1375	0.901	1081	7.1
303.15	0.1375	0.7522	1118.4	7.4
303.15	0.1375	0.3239	1136.1	7.5
303.15	0.1375	0.1567	1138.5	7.5
303.15	0.1375	0	1138.8	7.5
308.15	0.1375	1	994.2	6.4
308.15	0.1375	0.9647	1035.6	6.7
308.15	0.1375	0.901	1077.8	7.1
308.15	0.1375	0.7522	1114.7	7.4
308.15	0.1375	0.3239	1132.4	7.5
308.15	0.1375	0.1567	1134.7	7.4
308.15	0.1375	0	1135	7.4
313.15	0.1375	1	992.5	6.4
313.15	0.1375	0.9647	1033.5	6.7
313.15	0.1375	0.901	1074.4	7
313.15	0.1375	0.7522	1110.8	7.4
313.15	0.1375	0.3239	1128.4	7.5
313.15	0.1375	0.1567	1130.9	7.4
313.15	0.1375	0	1131.3	7.4
318.15	0.1375	1	990.2	6.3
318.15	0.1375	0.9647	1030.4	6.7
318.15	0.1375	0.901	1070.7	7
318.15	0.1375	0.7522	1107	7.4
318.15	0.1375	0.3239	1124.7	7.4
318.15	0.1375	0.1567	1126.9	7.4
318.15	0.1375	0	1127.5	7.4
323.15	0.1375	1	988.2	6.3
323.15	0.1375	0.9647	1028.1	6.6
323.15	0.1375	0.901	1067.5	7
323.15	0.1375	0.7522	1103	7.3
323.15	0.1375	0.3239	1120.7	7.4
323.15	0.1375	0.1567	1123.2	7.4
323.15	0.1375	0	1123.7	7.4
328.15	0.1375	1	985.7	6.3
328.15	0.1375	0.9647	1025.1	6.6
328.15	0.1375	0.901	1064.1	7
328.15	0.1375	0.7522	1099.1	7.3
328.15	0.1375	0.3239	1116.8	7.4
328.15	0.1375	0.1567	1119.3	7.4
328.15	0.1375	0	1119.9	7.3
333.15	0.1375	1	983.5	6.3
333.15	0.1375	0.9647	1022.2	6.6
333.15	0.1375	0.901	1060.3	6.9
333.15	0.1375	0.7522	1095.1	7.3
333.15	0.1375	0.3239	1113	7.4
333.15	0.1375	0.1567	1115.5	7.3
333.15	0.1375	0	1116.1	7.3
338.15	0.1375	1	980.7	6.3
338.15	0.1375	0.9647	1019.3	6.6
338.15	0.1375	0.901	1056.8	6.9
338.15	0.1375	0.7522	1091.3	7.3
338.15	0.1375	0.3239	1109.1	7.4
338.15	0.1375	0.1567	1111.7	7.3
338.15	0.1375	0	1112.2	7.3
343.15	0.1375	1	978.1	6.3
343.15	0.1375	0.9647	1015.8	6.6
343.15	0.1375	0.901	1052.9	7
343.15	0.1375	0.7522	1087	7.4
343.15	0.1375	0.3239	1105.2	7.4
343.15	0.1375	0.1567	1107.8	7.3
343.15	0.1375	0	1108.4	7.3
