Measured thermophysical data. Solute-Solvent Interactions of Alkyl Acetoacetates in Aqueous {1-Butyl-3-Methylimidazolium Bromide [bmim][Br]}Ionic Liquid Solutions in the Temperature Interval (288.15 - 308.15 ) K
Source: Thermochim. Acta, 2014, 10.1016/j.tca.2013.12.015
Compound 1: methyl 3-oxobutanoate, C5H8O3, InChI=1S/C5H8O3/c1-4(6)3-5(7)8-2/h3H2,1-2H3, purity 99.5%
Compound 2: 1-butyl-3-methylimidazolium bromide, C8H15BrN2, InChI=1S/C8H15N2.BrH/c1-3-4-5-10-7-6-9(2)8-10;/h6-8H,3-5H2,1-2H3;1H/q+1;/p-1, purity 97%
Compound 3: ethyl 3-oxobutanoate, C6H10O3, InChI=1S/C6H10O3/c1-3-9-6(8)4-5(2)7/h3-4H2,1-2H3, purity 99.5%
Compound 4: water, H2O, InChI=1S/H2O/h1H2

System: methyl 3-oxobutanoate + water + 1-butyl-3-methylimidazolium bromide; phases: Liquid
Fixed: Pressure, kPa = 101
Property: Mass density, kg/m3 (Liquid); method: Vibrating tube method
Temperature, K	Solvent: Molality, mol/kg of 1-butyl-3-methylimidazolium bromide	Molality, mol/kg of methyl 3-oxobutanoate	Mass density, kg/m3	uncertainty
288.15	0	0	999.113	0.409
288.15	0	0.0809	1000.362	0.41
288.15	0	0.1654	1001.65	0.411
288.15	0	0.285	1003.438	0.413
288.15	0	0.386	1004.9	0.415
288.15	0	0.4607	1005.978	0.417
288.15	0	0.5604	1007.367	0.418
288.15	0	0.6367	1008.404	0.42
288.15	0	0.7871	1010.4	0.422
288.15	0	0.8429	1011.132	0.423
293.15	0	0	998.227	0.409
293.15	0	0.0809	999.43	0.409
293.15	0	0.1654	1000.66	0.41
293.15	0	0.285	1002.36	0.412
293.15	0	0.386	1003.749	0.414
293.15	0	0.4607	1004.75	0.415
293.15	0	0.5604	1006.06	0.417
293.15	0	0.6367	1007.01	0.418
293.15	0	0.7871	1008.9	0.42
293.15	0	0.8429	1009.58	0.421
298.15	0	0	997.072	0.408
298.15	0	0.0809	998.205	0.409
298.15	0	0.1654	999.37	0.409
298.15	0	0.285	1001	0.41
298.15	0	0.386	1002.33	0.412
298.15	0	0.4607	1003.3	0.413
298.15	0	0.5604	1004.56	0.415
298.15	0	0.6367	1005.532	0.416
298.15	0	0.7871	1007.35	0.418
298.15	0	0.8429	1008	0.419
303.15	0	0	995.677	0.408
303.15	0	0.0809	996.78	0.408
303.15	0	0.1654	997.9	0.409
303.15	0	0.285	999.454	0.409
303.15	0	0.386	1000.73	0.41
303.15	0	0.4607	1001.65	0.411
303.15	0	0.5604	1002.85	0.413
303.15	0	0.6367	1003.74	0.414
303.15	0	0.7871	1005.47	0.416
303.15	0	0.8429	1006.11	0.417
308.15	0	0	994.062	0.408
308.15	0	0.0809	995.12	0.408
308.15	0	0.1654	996.2	0.408
308.15	0	0.285	997.68	0.409
308.15	0	0.386	998.91	0.409
308.15	0	0.4607	999.79	0.409
308.15	0	0.5604	1000.938	0.41
308.15	0	0.6367	1001.795	0.411
308.15	0	0.7871	1003.453	0.413
308.15	0	0.8429	1004.037	0.414
288.15	0.1019	0	1004.344	0.42
288.15	0.1019	0.0587	1005.29	0.415
288.15	0.1019	0.0965	1005.886	0.417
288.15	0.1019	0.2073	1007.58	0.419
288.15	0.1019	0.3007	1008.955	0.42
288.15	0.1019	0.3995	1010.36	0.422
288.15	0.1019	0.5081	1011.83	0.424
288.15	0.1019	0.5882	1012.875	0.425
288.15	0.1019	0.6651	1013.84	0.427
288.15	0.1019	0.7933	1015.39	0.428
288.15	0.1019	0.8885	1016.45	0.429
293.15	0.1019	0	1003.527	0.416
293.15	0.1019	0.0587	1004.445	0.414
293.15	0.1019	0.0965	1005.02	0.416
293.15	0.1019	0.2073	1006.669	0.418
293.15	0.1019	0.3007	1007.99	0.419
293.15	0.1019	0.3995	1009.33	0.421
293.15	0.1019	0.5081	1010.75	0.423
293.15	0.1019	0.5882	1011.73	0.424
293.15	0.1019	0.6651	1012.67	0.425
293.15	0.1019	0.7933	1014.116	0.427
293.15	0.1019	0.8885	1015.16	0.428
298.15	0.1019	0	1002.164	0.414
298.15	0.1019	0.0587	1003.035	0.413
298.15	0.1019	0.0965	1003.585	0.414
298.15	0.1019	0.2073	1005.145	0.416
298.15	0.1019	0.3007	1006.42	0.417
298.15	0.1019	0.3995	1007.7	0.419
298.15	0.1019	0.5081	1009.05	0.421
298.15	0.1019	0.5882	1010	0.422
298.15	0.1019	0.6651	1010.9	0.423
298.15	0.1019	0.7933	1012.295	0.424
298.15	0.1019	0.8885	1013.3	0.426
303.15	0.1019	0	1000.831	0.412
303.15	0.1019	0.0587	1001.658	0.411
303.15	0.1019	0.0965	1002.18	0.412
303.15	0.1019	0.2073	1003.67	0.414
303.15	0.1019	0.3007	1004.86	0.415
303.15	0.1019	0.3995	1006.085	0.417
303.15	0.1019	0.5081	1007.38	0.419
303.15	0.1019	0.5882	1008.29	0.42
303.15	0.1019	0.6651	1009.145	0.421
303.15	0.1019	0.7933	1010.46	0.422
303.15	0.1019	0.8885	1011.4	0.424
308.15	0.1019	0	999.035	0.414
308.15	0.1019	0.0587	999.83	0.409
308.15	0.1019	0.0965	1000.33	0.41
308.15	0.1019	0.2073	1001.76	0.412
308.15	0.1019	0.3007	1002.923	0.413
308.15	0.1019	0.3995	1004.1	0.414
308.15	0.1019	0.5081	1005.35	0.416
308.15	0.1019	0.5882	1006.235	0.417
308.15	0.1019	0.6651	1007.03	0.418
308.15	0.1019	0.7933	1008.354	0.42
308.15	0.1019	0.8885	1009.252	0.421
288.15	0.3048	0	1000.668	0.41
288.15	0.3048	0.05	1001.462	0.411
288.15	0.3048	0.1104	1002.4	0.412
288.15	0.3048	0.2131	1003.952	0.414
288.15	0.3048	0.3399	1005.78	0.416
288.15	0.3048	0.4412	1007.183	0.418
288.15	0.3048	0.5866	1009.1	0.42
288.15	0.3048	0.6688	1010.154	0.422
288.15	0.3048	0.8292	1012.07	0.424
288.15	0.3048	0.8683	1012.5	0.425
293.15	0.3048	0	999.754	0.409
293.15	0.3048	0.05	1000.51	0.41
293.15	0.3048	0.1104	1001.41	0.411
293.15	0.3048	0.2131	1002.899	0.413
293.15	0.3048	0.3399	1004.68	0.415
293.15	0.3048	0.4412	1006.05	0.417
293.15	0.3048	0.5866	1007.927	0.419
293.15	0.3048	0.6688	1008.93	0.42
293.15	0.3048	0.8292	1010.859	0.423
293.15	0.3048	0.8683	1011.364	0.423
298.15	0.3048	0	998.577	0.409
298.15	0.3048	0.05	999.28	0.409
298.15	0.3048	0.1104	1000.12	0.409
298.15	0.3048	0.2131	1001.515	0.411
298.15	0.3048	0.3399	1003.18	0.413
298.15	0.3048	0.4412	1004.48	0.415
298.15	0.3048	0.5866	1006.26	0.417
298.15	0.3048	0.6688	1007.28	0.418
298.15	0.3048	0.8292	1009.15	0.42
298.15	0.3048	0.8683	1009.575	0.421
303.15	0.3048	0	997.164	0.408
303.15	0.3048	0.05	997.839	0.409
303.15	0.3048	0.1104	998.648	0.409
303.15	0.3048	0.2131	999.99	0.409
303.15	0.3048	0.3399	1001.57	0.411
303.15	0.3048	0.4412	1002.83	0.413
303.15	0.3048	0.5866	1004.54	0.415
303.15	0.3048	0.6688	1005.5	0.416
303.15	0.3048	0.8292	1007.34	0.418
303.15	0.3048	0.8683	1007.76	0.419
308.15	0.3048	0	995.54	0.408
308.15	0.3048	0.05	996.185	0.408
308.15	0.3048	0.1104	996.96	0.408
308.15	0.3048	0.2131	998.228	0.409
308.15	0.3048	0.3399	999.77	0.409
308.15	0.3048	0.4412	1000.972	0.41
308.15	0.3048	0.5866	1002.62	0.412
308.15	0.3048	0.6688	1003.52	0.413
308.15	0.3048	0.8292	1005.2	0.415
308.15	0.3048	0.8683	1005.6	0.416

System: methyl 3-oxobutanoate + water + 1-butyl-3-methylimidazolium bromide; phases: Liquid
Fixed: Pressure, kPa = 101
Property: Speed of sound, m/s (Liquid); method: Single path-length method
Temperature, K	Solvent: Molality, mol/kg of 1-butyl-3-methylimidazolium bromide	Molality, mol/kg of methyl 3-oxobutanoate	Speed of sound, m/s	uncertainty
288.15	0	0	1466.69	4.18
288.15	0	0.0809	1472.46	4.18
288.15	0	0.1654	1477.31	4.18
288.15	0	0.285	1484.66	4.18
288.15	0	0.386	1490.14	4.18
288.15	0	0.4607	1494.18	4.18
288.15	0	0.5604	1499.61	4.18
288.15	0	0.6367	1502.99	4.18
288.15	0	0.7871	1509.83	4.18
288.15	0	0.8429	1512.22	4.18
293.15	0	0	1482.47	4.18
293.15	0	0.0809	1487.68	4.18
293.15	0	0.1654	1491.86	4.18
293.15	0	0.285	1498.34	4.18
293.15	0	0.386	1503.11	4.18
293.15	0	0.4607	1506.62	4.18
293.15	0	0.5604	1511.38	4.18
293.15	0	0.6367	1514.25	4.18
293.15	0	0.7871	1520.15	4.18
293.15	0	0.8429	1522.2	4.18
298.15	0	0	1496.62	4.18
298.15	0	0.0809	1501.27	4.18
298.15	0	0.1654	1504.84	4.18
298.15	0	0.285	1510.5	4.18
298.15	0	0.386	1514.57	4.18
298.15	0	0.4607	1517.59	4.18
298.15	0	0.5604	1521.72	4.18
298.15	0	0.6367	1524.12	4.18
298.15	0	0.7871	1529.11	4.18
298.15	0	0.8429	1530.86	4.18
303.15	0	0	1508.98	4.18
303.15	0	0.0809	1513.1	4.18
303.15	0	0.1654	1516.09	4.18
303.15	0	0.285	1520.98	4.18
303.15	0	0.386	1524.42	4.18
303.15	0	0.4607	1526.98	4.18
303.15	0	0.5604	1530.54	4.18
303.15	0	0.6367	1532.5	4.18
303.15	0	0.7871	1536.68	4.18
303.15	0	0.8429	1538.12	4.18
308.15	0	0	1519.62	4.18
308.15	0	0.0809	1523.24	4.18
308.15	0	0.1654	1525.69	4.18
308.15	0	0.285	1529.88	4.18
308.15	0	0.386	1532.74	4.18
308.15	0	0.4607	1534.88	4.18
308.15	0	0.5604	1537.9	4.18
308.15	0	0.6367	1539.46	4.18
308.15	0	0.7871	1542.89	4.18
308.15	0	0.8429	1544.04	4.18
288.15	0.1019	0	1478.95	4.18
288.15	0.1019	0.0587	1483.74	4.18
288.15	0.1019	0.0965	1485.37	4.18
288.15	0.1019	0.2073	1491.85	4.18
288.15	0.1019	0.3007	1497.21	4.18
288.15	0.1019	0.3995	1503.41	4.18
288.15	0.1019	0.5081	1507.99	4.18
288.15	0.1019	0.5882	1511.76	4.18
288.15	0.1019	0.6651	1514.86	4.18
288.15	0.1019	0.7933	1520.6	4.18
288.15	0.1019	0.8885	1523.94	4.18
293.15	0.1019	0	1494.24	4.18
293.15	0.1019	0.0587	1498.34	4.18
293.15	0.1019	0.0965	1499.26	4.18
293.15	0.1019	0.2073	1505.36	4.18
293.15	0.1019	0.3007	1509.59	4.18
293.15	0.1019	0.3995	1515.37	4.18
293.15	0.1019	0.5081	1518.95	4.18
293.15	0.1019	0.5882	1522.3	4.18
293.15	0.1019	0.6651	1525.21	4.18
293.15	0.1019	0.7933	1529.83	4.18
293.15	0.1019	0.8885	1532.95	4.18
298.15	0.1019	0	1506.83	4.18
298.15	0.1019	0.0587	1511.12	4.18
298.15	0.1019	0.0965	1511.71	4.18
298.15	0.1019	0.2073	1517.1	4.18
298.15	0.1019	0.3007	1520.64	4.18
298.15	0.1019	0.3995	1525.68	4.18
298.15	0.1019	0.5081	1528.66	4.18
298.15	0.1019	0.5882	1531.52	4.18
298.15	0.1019	0.6651	1534.04	4.18
298.15	0.1019	0.7933	1537.89	4.18
298.15	0.1019	0.8885	1540.54	4.18
303.15	0.1019	0	1518.78	4.18
303.15	0.1019	0.0587	1522.11	4.18
303.15	0.1019	0.0965	1522.49	4.18
303.15	0.1019	0.2073	1527.11	4.18
303.15	0.1019	0.3007	1530.13	4.18
303.15	0.1019	0.3995	1534.08	4.18
303.15	0.1019	0.5081	1536.92	4.18
303.15	0.1019	0.5882	1539.28	4.18
303.15	0.1019	0.6651	1541.52	4.18
303.15	0.1019	0.7933	1544.59	4.18
303.15	0.1019	0.8885	1546.76	4.18
308.15	0.1019	0	1528.09	4.18
308.15	0.1019	0.0587	1531.3	4.18
308.15	0.1019	0.0965	1531.62	4.18
308.15	0.1019	0.2073	1535.38	4.18
308.15	0.1019	0.3007	1538.11	4.18
308.15	0.1019	0.3995	1541.33	4.18
308.15	0.1019	0.5081	1543.76	4.18
308.15	0.1019	0.5882	1545.69	4.18
308.15	0.1019	0.6651	1547.39	4.18
308.15	0.1019	0.7933	1549.97	4.18
308.15	0.1019	0.8885	1551.57	4.18
288.15	0.3048	0	1470.18	4.18
288.15	0.3048	0.05	1473.74	4.18
288.15	0.3048	0.1104	1477.48	4.18
288.15	0.3048	0.2131	1483.87	4.18
288.15	0.3048	0.3399	1490.81	4.18
288.15	0.3048	0.4412	1496.51	4.18
288.15	0.3048	0.5866	1503.77	4.18
288.15	0.3048	0.6688	1507.2	4.18
288.15	0.3048	0.8292	1514.47	4.18
288.15	0.3048	0.8683	1516.24	4.18
293.15	0.3048	0	1486.08	4.18
293.15	0.3048	0.05	1489.18	4.18
293.15	0.3048	0.1104	1492.04	4.18
293.15	0.3048	0.2131	1497.7	4.18
293.15	0.3048	0.3399	1504.13	4.18
293.15	0.3048	0.4412	1508.69	4.18
293.15	0.3048	0.5866	1515.33	4.18
293.15	0.3048	0.6688	1518	4.18
293.15	0.3048	0.8292	1524.54	4.18
293.15	0.3048	0.8683	1525.69	4.18
298.15	0.3048	0	1500.03	4.18
298.15	0.3048	0.05	1502.69	4.18
298.15	0.3048	0.1104	1505.12	4.18
298.15	0.3048	0.2131	1510.03	4.18
298.15	0.3048	0.3399	1515.74	4.18
298.15	0.3048	0.4412	1519.51	4.18
298.15	0.3048	0.5866	1525.32	4.18
298.15	0.3048	0.6688	1527.47	4.18
298.15	0.3048	0.8292	1533.11	4.18
298.15	0.3048	0.8683	1533.96	4.18
303.15	0.3048	0	1512.08	4.18
303.15	0.3048	0.05	1514.25	4.18
303.15	0.3048	0.1104	1516.49	4.18
303.15	0.3048	0.2131	1520.67	4.18
303.15	0.3048	0.3399	1525.57	4.18
303.15	0.3048	0.4412	1528.73	4.18
303.15	0.3048	0.5866	1533.68	4.18
303.15	0.3048	0.6688	1535.48	4.18
303.15	0.3048	0.8292	1540.29	4.18
303.15	0.3048	0.8683	1540.89	4.18
308.15	0.3048	0	1522.22	4.18
308.15	0.3048	0.05	1524.08	4.18
308.15	0.3048	0.1104	1526.19	4.18
308.15	0.3048	0.2131	1529.73	4.18
308.15	0.3048	0.3399	1533.69	4.18
308.15	0.3048	0.4412	1536.54	4.18
308.15	0.3048	0.5866	1540.46	4.18
308.15	0.3048	0.6688	1542.1	4.18
308.15	0.3048	0.8292	1545.85	4.18
308.15	0.3048	0.8683	1546.47	4.18

System: ethyl 3-oxobutanoate + water + 1-butyl-3-methylimidazolium bromide; phases: Liquid
Fixed: Pressure, kPa = 101
Property: Mass density, kg/m3 (Liquid); method: Vibrating tube method
Temperature, K	Solvent: Molality, mol/kg of 1-butyl-3-methylimidazolium bromide	Molality, mol/kg of ethyl 3-oxobutanoate	Mass density, kg/m3	uncertainty
288.15	0	0	999.113	0.409
288.15	0	0.076	1000.052	0.409
288.15	0	0.1625	1001.1	0.41
288.15	0	0.2495	1002.14	0.412
288.15	0	0.3767	1003.62	0.413
288.15	0	0.4725	1004.7	0.415
288.15	0	0.5324	1005.38	0.416
288.15	0	0.6848	1007.03	0.418
288.15	0	0.7843	1008.1	0.419
288.15	0	0.9019	1009.309	0.421
293.15	0	0	998.227	0.409
293.15	0	0.076	999.128	0.409
293.15	0	0.1625	1000.13	0.409
293.15	0	0.2495	1001.1	0.41
293.15	0	0.3767	1002.48	0.412
293.15	0	0.4725	1003.48	0.413
293.15	0	0.5324	1004.1	0.414
293.15	0	0.6848	1005.6	0.416
293.15	0	0.7843	1006.56	0.417
293.15	0	0.9019	1007.65	0.418
298.15	0	0	997.072	0.408
298.15	0	0.076	997.91	0.408
298.15	0	0.1625	998.838	0.409
298.15	0	0.2495	999.76	0.409
298.15	0	0.3767	1001.05	0.41
298.15	0	0.4725	1002.005	0.411
298.15	0	0.5324	1002.58	0.412
298.15	0	0.6848	1004	0.414
298.15	0	0.7843	1004.9	0.415
298.15	0	0.9019	1005.934	0.416
303.15	0	0	995.677	0.408
303.15	0	0.076	996.474	0.408
303.15	0	0.1625	997.358	0.408
303.15	0	0.2495	998.22	0.409
303.15	0	0.3767	999.44	0.409
303.15	0	0.4725	1000.32	0.409
303.15	0	0.5324	1000.86	0.41
303.15	0	0.6848	1002.18	0.412
303.15	0	0.7843	1003.01	0.413
303.15	0	0.9019	1003.938	0.414
308.15	0	0	994.062	0.408
308.15	0	0.076	994.809	0.408
308.15	0	0.1625	995.64	0.408
308.15	0	0.2495	996.445	0.408
308.15	0	0.3767	997.59	0.408
308.15	0	0.4725	998.41	0.409
308.15	0	0.5324	998.9	0.409
308.15	0	0.6848	1000.125	0.409
308.15	0	0.7843	1000.902	0.41
308.15	0	0.9019	1001.757	0.411
288.15	0.1019	0	1004.344	0.419
288.15	0.1019	0.0628	1005.13	0.415
288.15	0.1019	0.1105	1005.715	0.417
288.15	0.1019	0.2148	1006.96	0.418
288.15	0.1019	0.3045	1007.999	0.419
288.15	0.1019	0.3973	1009.05	0.42
288.15	0.1019	0.506	1010.25	0.422
288.15	0.1019	0.5885	1011.095	0.423
288.15	0.1019	0.6905	1012.15	0.424
288.15	0.1019	0.8024	1013.24	0.425
288.15	0.1019	0.8668	1013.878	0.427
293.15	0.1019	0	1003.527	0.415
293.15	0.1019	0.0628	1004.24	0.414
293.15	0.1019	0.1105	1004.775	0.416
293.15	0.1019	0.2148	1005.92	0.416
293.15	0.1019	0.3045	1006.85	0.418
293.15	0.1019	0.3973	1007.8	0.419
293.15	0.1019	0.506	1008.88	0.42
293.15	0.1019	0.5885	1009.677	0.421
293.15	0.1019	0.6905	1010.6	0.422
293.15	0.1019	0.8024	1011.6	0.424
293.15	0.1019	0.8668	1012.24	0.425
298.15	0.1019	0	1002.164	0.413
298.15	0.1019	0.0628	1002.827	0.412
298.15	0.1019	0.1105	1003.32	0.414
298.15	0.1019	0.2148	1004.38	0.414
298.15	0.1019	0.3045	1005.25	0.416
298.15	0.1019	0.3973	1006.13	0.417
298.15	0.1019	0.506	1007.14	0.418
298.15	0.1019	0.5885	1007.86	0.419
298.15	0.1019	0.6905	1008.74	0.42
298.15	0.1019	0.8024	1009.65	0.421
298.15	0.1019	0.8668	1010.22	0.423
303.15	0.1019	0	1000.831	0.412
303.15	0.1019	0.0628	1001.465	0.411
303.15	0.1019	0.1105	1001.935	0.412
303.15	0.1019	0.2148	1002.935	0.413
303.15	0.1019	0.3045	1003.778	0.414
303.15	0.1019	0.3973	1004.6	0.415
303.15	0.1019	0.506	1005.52	0.416
303.15	0.1019	0.5885	1006.21	0.417
303.15	0.1019	0.6905	1007	0.418
303.15	0.1019	0.8024	1007.865	0.419
303.15	0.1019	0.8668	1008.35	0.421
308.15	0.1019	0	999.035	0.413
308.15	0.1019	0.0628	999.65	0.409
308.15	0.1019	0.1105	1000.106	0.41
308.15	0.1019	0.2148	1001.07	0.41
308.15	0.1019	0.3045	1001.85	0.412
308.15	0.1019	0.3973	1002.64	0.412
308.15	0.1019	0.506	1003.5	0.413
308.15	0.1019	0.5885	1004.117	0.414
308.15	0.1019	0.6905	1004.85	0.415
308.15	0.1019	0.8024	1005.62	0.416
308.15	0.1019	0.8668	1006.05	0.418
288.15	0.3048	0	1000.668	0.41
288.15	0.3048	0.0661	1001.475	0.411
288.15	0.3048	0.1099	1002.003	0.411
288.15	0.3048	0.1802	1002.83	0.413
288.15	0.3048	0.3314	1005.4	0.416
288.15	0.3048	0.4536	1007.01	0.418
288.15	0.3048	0.6212	1009.14	0.42
288.15	0.3048	0.7197	1010.31	0.422
288.15	0.3048	0.7712	1010.92	0.423
288.15	0.3048	0.8931	1012.34	0.425
293.15	0.3048	0	999.754	0.409
293.15	0.3048	0.0661	1000.525	0.41
293.15	0.3048	0.1099	1001.79	0.411
293.15	0.3048	0.1802	1002.576	0.412
293.15	0.3048	0.3314	1004.188	0.414
293.15	0.3048	0.4536	1005.44	0.416
293.15	0.3048	0.6212	1007.05	0.418
293.15	0.3048	0.7197	1007.94	0.419
293.15	0.3048	0.7712	1008.42	0.419
293.15	0.3048	0.8931	1009.45	0.421
298.15	0.3048	0	998.577	0.409
298.15	0.3048	0.0661	999.295	0.409
298.15	0.3048	0.1099	999.76	0.409
298.15	0.3048	0.1802	1000.5	0.41
298.15	0.3048	0.3314	1002.03	0.412
298.15	0.3048	0.4536	1003.2	0.413
298.15	0.3048	0.6212	1004.75	0.415
298.15	0.3048	0.7197	1005.63	0.416
298.15	0.3048	0.7712	1006.08	0.417
298.15	0.3048	0.8931	1007.1	0.418
303.15	0.3048	0	997.164	0.408
303.15	0.3048	0.0661	997.845	0.408
303.15	0.3048	0.1099	998.289	0.409
303.15	0.3048	0.1802	998.985	0.409
303.15	0.3048	0.3314	1000.44	0.41
303.15	0.3048	0.4536	1001.55	0.411
303.15	0.3048	0.6212	1003.02	0.413
303.15	0.3048	0.7197	1003.834	0.414
303.15	0.3048	0.7712	1004.246	0.414
303.15	0.3048	0.8931	1005.213	0.415
308.15	0.3048	0	995.54	0.408
308.15	0.3048	0.0661	996.175	0.408
308.15	0.3048	0.1099	996.589	0.408
308.15	0.3048	0.1802	997.24	0.408
308.15	0.3048	0.3314	998.6	0.409
308.15	0.3048	0.4536	999.64	0.409
308.15	0.3048	0.6212	1001	0.41
308.15	0.3048	0.7197	1001.752	0.411
308.15	0.3048	0.7712	1002.132	0.412
308.15	0.3048	0.8931	1003.029	0.413

System: ethyl 3-oxobutanoate + water + 1-butyl-3-methylimidazolium bromide; phases: Liquid
Fixed: Pressure, kPa = 101
Property: Speed of sound, m/s (Liquid); method: Single path-length method
Temperature, K	Solvent: Molality, mol/kg of 1-butyl-3-methylimidazolium bromide	Molality, mol/kg of ethyl 3-oxobutanoate	Speed of sound, m/s	uncertainty
288.15	0	0	1466.69	4.18
288.15	0	0.076	1472.59	4.18
288.15	0	0.1625	1479.2	4.18
288.15	0	0.2495	1485.54	4.18
288.15	0	0.3767	1494.12	4.18
288.15	0	0.4725	1500	4.18
288.15	0	0.5324	1503.4	4.18
288.15	0	0.6848	1511.63	4.18
288.15	0	0.7843	1516.32	4.18
288.15	0	0.9019	1521.37	4.18
293.15	0	0	1482.47	4.18
293.15	0	0.076	1487.76	4.18
293.15	0	0.1625	1493.58	4.18
293.15	0	0.2495	1499.15	4.18
293.15	0	0.3767	1506.65	4.18
293.15	0	0.4725	1511.74	4.18
293.15	0	0.5324	1514.66	4.18
293.15	0	0.6848	1521.71	4.18
293.15	0	0.7843	1525.67	4.18
293.15	0	0.9019	1529.91	4.18
298.15	0	0	1496.62	4.18
298.15	0	0.076	1501.29	4.18
298.15	0	0.1625	1506.37	4.18
298.15	0	0.2495	1511.2	4.18
298.15	0	0.3767	1517.68	4.18
298.15	0	0.4725	1522.02	4.18
298.15	0	0.5324	1524.52	4.18
298.15	0	0.6848	1530.45	4.18
298.15	0	0.7843	1533.73	4.18
298.15	0	0.9019	1537.18	4.18
303.15	0	0	1508.98	4.18
303.15	0	0.076	1513.05	4.18
303.15	0	0.1625	1517.44	4.18
303.15	0	0.2495	1521.6	4.18
303.15	0	0.3767	1527.12	4.18
303.15	0	0.4725	1530.79	4.18
303.15	0	0.5324	1532.87	4.18
303.15	0	0.6848	1537.76	4.18
303.15	0	0.7843	1540.41	4.18
303.15	0	0.9019	1543.14	4.18
308.15	0	0	1519.62	4.18
308.15	0	0.076	1523.12	4.18
308.15	0	0.1625	1526.88	4.18
308.15	0	0.2495	1530.41	4.18
308.15	0	0.3767	1535.04	4.18
308.15	0	0.4725	1538.08	4.18
308.15	0	0.5324	1539.78	4.18
308.15	0	0.6848	1543.71	4.18
308.15	0	0.7843	1545.77	4.18
308.15	0	0.9019	1547.81	4.18
288.15	0.1019	0	1478.95	4.18
288.15	0.1019	0.0628	1486.85	4.18
288.15	0.1019	0.1105	1487.85	4.18
288.15	0.1019	0.2148	1494.89	4.18
288.15	0.1019	0.3045	1500.56	4.18
288.15	0.1019	0.3973	1506.49	4.18
288.15	0.1019	0.506	1512.07	4.18
288.15	0.1019	0.5885	1517.07	4.18
288.15	0.1019	0.6905	1521.96	4.18
288.15	0.1019	0.8024	1526.91	4.18
288.15	0.1019	0.8668	1529.37	4.18
293.15	0.1019	0	1494.24	4.18
293.15	0.1019	0.0628	1500.63	4.18
293.15	0.1019	0.1105	1501.91	4.18
293.15	0.1019	0.2148	1507.62	4.18
293.15	0.1019	0.3045	1512.94	4.18
293.15	0.1019	0.3973	1517.69	4.18
293.15	0.1019	0.506	1522.86	4.18
293.15	0.1019	0.5885	1526.78	4.18
293.15	0.1019	0.6905	1531.31	4.18
293.15	0.1019	0.8024	1535.1	4.18
293.15	0.1019	0.8668	1537.23	4.18
298.15	0.1019	0	1506.83	4.18
298.15	0.1019	0.0628	1513.03	4.18
298.15	0.1019	0.1105	1514.13	4.18
298.15	0.1019	0.2148	1518.97	4.18
298.15	0.1019	0.3045	1523.63	4.18
298.15	0.1019	0.3973	1527.61	4.18
298.15	0.1019	0.506	1532.07	4.18
298.15	0.1019	0.5885	1535.3	4.18
298.15	0.1019	0.6905	1539.17	4.18
298.15	0.1019	0.8024	1542.16	4.18
298.15	0.1019	0.8668	1543.88	4.18
303.15	0.1019	0	1518.78	4.18
303.15	0.1019	0.0628	1523.75	4.18
303.15	0.1019	0.1105	1524.6	4.18
303.15	0.1019	0.2148	1528.73	4.18
303.15	0.1019	0.3045	1532.82	4.18
303.15	0.1019	0.3973	1536.06	4.18
303.15	0.1019	0.506	1540.15	4.18
303.15	0.1019	0.5885	1542.44	4.18
303.15	0.1019	0.6905	1545.58	4.18
303.15	0.1019	0.8024	1547.92	4.18
303.15	0.1019	0.8668	1549.24	4.18
308.15	0.1019	0	1528.09	4.18
308.15	0.1019	0.0628	1532.87	4.18
308.15	0.1019	0.1105	1533.3	4.18
308.15	0.1019	0.2148	1536.97	4.18
308.15	0.1019	0.3045	1540.22	4.18
308.15	0.1019	0.3973	1543.07	4.18
308.15	0.1019	0.506	1546.24	4.18
308.15	0.1019	0.5885	1548.21	4.18
308.15	0.1019	0.6905	1550.53	4.18
308.15	0.1019	0.8024	1552.43	4.18
308.15	0.1019	0.8668	1553.38	4.18
288.15	0.3048	0	1470.18	4.18
288.15	0.3048	0.0661	1475.39	4.18
288.15	0.3048	0.1099	1479.1	4.18
288.15	0.3048	0.1802	1483.98	4.18
288.15	0.3048	0.3314	1494.13	4.18
288.15	0.3048	0.4536	1501.86	4.18
288.15	0.3048	0.6212	1510.03	4.18
288.15	0.3048	0.7197	1515.96	4.18
288.15	0.3048	0.7712	1518.23	4.18
288.15	0.3048	0.8931	1521.75	4.18
293.15	0.3048	0	1486.08	4.18
293.15	0.3048	0.0661	1490.3	4.18
293.15	0.3048	0.1099	1493.97	4.18
293.15	0.3048	0.1802	1497.76	4.18
293.15	0.3048	0.3314	1507.08	4.18
293.15	0.3048	0.4536	1513.35	4.18
293.15	0.3048	0.6212	1520.74	4.18
293.15	0.3048	0.7197	1525.44	4.18
293.15	0.3048	0.7712	1527.36	4.18
293.15	0.3048	0.8931	1530.61	4.18
298.15	0.3048	0	1500.03	4.18
298.15	0.3048	0.0661	1503.63	4.18
298.15	0.3048	0.1099	1506.97	4.18
298.15	0.3048	0.1802	1510.14	4.18
298.15	0.3048	0.3314	1518.33	4.18
298.15	0.3048	0.4536	1523.56	4.18
298.15	0.3048	0.6212	1529.93	4.18
298.15	0.3048	0.7197	1533.72	4.18
298.15	0.3048	0.7712	1535.31	4.18
298.15	0.3048	0.8931	1538.05	4.18
303.15	0.3048	0	1512.08	4.18
303.15	0.3048	0.0661	1515.2	4.18
303.15	0.3048	0.1099	1518.15	4.18
303.15	0.3048	0.1802	1520.82	4.18
303.15	0.3048	0.3314	1527.84	4.18
303.15	0.3048	0.4536	1532.25	4.18
303.15	0.3048	0.6212	1538.19	4.18
303.15	0.3048	0.7197	1540.64	4.18
303.15	0.3048	0.7712	1541.92	4.18
303.15	0.3048	0.8931	1545.1	4.18
308.15	0.3048	0	1522.22	4.18
308.15	0.3048	0.0661	1525.11	4.18
308.15	0.3048	0.1099	1527.52	4.18
308.15	0.3048	0.1802	1529.91	4.18
308.15	0.3048	0.3314	1535.64	4.18
308.15	0.3048	0.4536	1539.47	4.18
308.15	0.3048	0.6212	1544.14	4.18
308.15	0.3048	0.7197	1546.21	4.18
308.15	0.3048	0.7712	1547.2	4.18
308.15	0.3048	0.8931	1549.44	4.18

System: methyl 3-oxobutanoate + water; phases: Liquid
Fixed: Pressure, kPa = 101
Property: Mass density, kg/m3 (Liquid); method: Vibrating tube method
Temperature, K	Molality, mol/kg of methyl 3-oxobutanoate	Mass density, kg/m3	uncertainty
288.15	0.0809	1000.362	0.41
288.15	0.1654	1001.65	0.411
288.15	0.285	1003.438	0.413
288.15	0.386	1004.9	0.415
288.15	0.4607	1005.978	0.417
288.15	0.5604	1007.367	0.418
288.15	0.6367	1008.404	0.42
288.15	0.7871	1010.4	0.422
288.15	0.8429	1011.132	0.423
293.15	0.0809	999.43	0.409
293.15	0.1654	1000.66	0.41
293.15	0.285	1002.36	0.412
293.15	0.386	1003.749	0.414
293.15	0.4607	1004.75	0.415
293.15	0.5604	1006.06	0.417
293.15	0.6367	1007.01	0.418
293.15	0.7871	1008.9	0.42
293.15	0.8429	1009.58	0.421
298.15	0.0809	998.205	0.409
298.15	0.1654	999.37	0.409
298.15	0.285	1001	0.41
298.15	0.386	1002.33	0.412
298.15	0.4607	1003.3	0.413
298.15	0.5604	1004.56	0.415
298.15	0.6367	1005.532	0.416
298.15	0.7871	1007.35	0.418
298.15	0.8429	1008	0.419
303.15	0.0809	996.78	0.408
303.15	0.1654	997.9	0.409
303.15	0.285	999.454	0.409
303.15	0.386	1000.73	0.41
303.15	0.4607	1001.65	0.411
303.15	0.5604	1002.85	0.413
303.15	0.6367	1003.74	0.414
303.15	0.7871	1005.47	0.416
303.15	0.8429	1006.11	0.417
308.15	0.0809	995.12	0.408
308.15	0.1654	996.2	0.408
308.15	0.285	997.68	0.409
308.15	0.386	998.91	0.409
308.15	0.4607	999.79	0.409
308.15	0.5604	1000.938	0.41
308.15	0.6367	1001.795	0.411
308.15	0.7871	1003.453	0.413
308.15	0.8429	1004.037	0.414
288.15	0	999.113	0.409
293.15	0	998.227	0.409
298.15	0	997.072	0.408
303.15	0	995.677	0.408
308.15	0	994.062	0.408

System: methyl 3-oxobutanoate + water; phases: Liquid
Fixed: Pressure, kPa = 101
Property: Speed of sound, m/s (Liquid); method: Single path-length method
Temperature, K	Molality, mol/kg of methyl 3-oxobutanoate	Speed of sound, m/s	uncertainty
288.15	0.0809	1472.46	4.18
288.15	0.1654	1477.31	4.18
288.15	0.285	1484.66	4.18
288.15	0.386	1490.14	4.18
288.15	0.4607	1494.18	4.18
288.15	0.5604	1499.61	4.18
288.15	0.6367	1502.99	4.18
288.15	0.7871	1509.83	4.18
288.15	0.8429	1512.22	4.18
293.15	0.0809	1487.68	4.18
293.15	0.1654	1491.86	4.18
293.15	0.285	1498.34	4.18
293.15	0.386	1503.11	4.18
293.15	0.4607	1506.62	4.18
293.15	0.5604	1511.38	4.18
293.15	0.6367	1514.25	4.18
293.15	0.7871	1520.15	4.18
293.15	0.8429	1522.2	4.18
298.15	0.0809	1501.27	4.18
298.15	0.1654	1504.84	4.18
298.15	0.285	1510.5	4.18
298.15	0.386	1514.57	4.18
298.15	0.4607	1517.59	4.18
298.15	0.5604	1521.72	4.18
298.15	0.6367	1524.12	4.18
298.15	0.7871	1529.11	4.18
298.15	0.8429	1530.86	4.18
303.15	0.0809	1513.1	4.18
303.15	0.1654	1516.09	4.18
303.15	0.285	1520.98	4.18
303.15	0.386	1524.42	4.18
303.15	0.4607	1526.98	4.18
303.15	0.5604	1530.54	4.18
303.15	0.6367	1532.5	4.18
303.15	0.7871	1536.68	4.18
303.15	0.8429	1538.12	4.18
308.15	0.0809	1523.24	4.18
308.15	0.1654	1525.69	4.18
308.15	0.285	1529.88	4.18
308.15	0.386	1532.74	4.18
308.15	0.4607	1534.88	4.18
308.15	0.5604	1537.9	4.18
308.15	0.6367	1539.46	4.18
308.15	0.7871	1542.89	4.18
308.15	0.8429	1544.04	4.18
288.15	0	1466.69	4.18
293.15	0	1482.47	4.18
298.15	0	1496.62	4.18
303.15	0	1508.98	4.18
308.15	0	1519.62	4.18

System: water + 1-butyl-3-methylimidazolium bromide; phases: Liquid
Fixed: Pressure, kPa = 101
Property: Mass density, kg/m3 (Liquid); method: Vibrating tube method
Temperature, K	Molality, mol/kg of 1-butyl-3-methylimidazolium bromide	Mass density, kg/m3	uncertainty
288.15	0.1019	1004.344	0.42
293.15	0.1019	1003.527	0.416
298.15	0.1019	1002.164	0.414
303.15	0.1019	1000.831	0.412
308.15	0.1019	999.035	0.414
288.15	0.3048	1000.668	0.41
293.15	0.3048	999.754	0.409
298.15	0.3048	998.577	0.409
303.15	0.3048	997.164	0.408
308.15	0.3048	995.54	0.408
288.15	0	999.113	0.409
293.15	0	998.227	0.409
298.15	0	997.072	0.408
303.15	0	995.677	0.408
308.15	0	994.062	0.408

System: water + 1-butyl-3-methylimidazolium bromide; phases: Liquid
Fixed: Pressure, kPa = 101
Property: Speed of sound, m/s (Liquid); method: Single path-length method
Temperature, K	Molality, mol/kg of 1-butyl-3-methylimidazolium bromide	Speed of sound, m/s	uncertainty
288.15	0.1019	1478.95	4.18
293.15	0.1019	1494.24	4.18
298.15	0.1019	1506.83	4.18
303.15	0.1019	1518.78	4.18
308.15	0.1019	1528.09	4.18
288.15	0.3048	1470.18	4.18
293.15	0.3048	1486.08	4.18
298.15	0.3048	1500.03	4.18
303.15	0.3048	1512.08	4.18
308.15	0.3048	1522.22	4.18
288.15	0	1466.69	4.18
293.15	0	1482.47	4.18
298.15	0	1496.62	4.18
303.15	0	1508.98	4.18
308.15	0	1519.62	4.18

System: ethyl 3-oxobutanoate + water; phases: Liquid
Fixed: Pressure, kPa = 101
Property: Mass density, kg/m3 (Liquid); method: Vibrating tube method
Temperature, K	Molality, mol/kg of ethyl 3-oxobutanoate	Mass density, kg/m3	uncertainty
288.15	0.076	1000.052	0.409
288.15	0.1625	1001.1	0.41
288.15	0.2495	1002.14	0.412
288.15	0.3767	1003.62	0.413
288.15	0.4725	1004.7	0.415
288.15	0.5324	1005.38	0.416
288.15	0.6848	1007.03	0.418
288.15	0.7843	1008.1	0.419
288.15	0.9019	1009.309	0.421
293.15	0.076	999.128	0.409
293.15	0.1625	1000.13	0.409
293.15	0.2495	1001.1	0.41
293.15	0.3767	1002.48	0.412
293.15	0.4725	1003.48	0.413
293.15	0.5324	1004.1	0.414
293.15	0.6848	1005.6	0.416
293.15	0.7843	1006.56	0.417
293.15	0.9019	1007.65	0.418
298.15	0.076	997.91	0.408
298.15	0.1625	998.838	0.409
298.15	0.2495	999.76	0.409
298.15	0.3767	1001.05	0.41
298.15	0.4725	1002.005	0.411
298.15	0.5324	1002.58	0.412
298.15	0.6848	1004	0.414
298.15	0.7843	1004.9	0.415
298.15	0.9019	1005.934	0.416
303.15	0.076	996.474	0.408
303.15	0.1625	997.358	0.408
303.15	0.2495	998.22	0.409
303.15	0.3767	999.44	0.409
303.15	0.4725	1000.32	0.409
303.15	0.5324	1000.86	0.41
303.15	0.6848	1002.18	0.412
303.15	0.7843	1003.01	0.413
303.15	0.9019	1003.938	0.414
308.15	0.076	994.809	0.408
308.15	0.1625	995.64	0.408
308.15	0.2495	996.445	0.408
308.15	0.3767	997.59	0.408
308.15	0.4725	998.41	0.409
308.15	0.5324	998.9	0.409
308.15	0.6848	1000.125	0.409
308.15	0.7843	1000.902	0.41
308.15	0.9019	1001.757	0.411
288.15	0	999.113	0.409
293.15	0	998.227	0.409
298.15	0	997.072	0.408
303.15	0	995.677	0.408
308.15	0	994.062	0.408

System: ethyl 3-oxobutanoate + water; phases: Liquid
Fixed: Pressure, kPa = 101
Property: Speed of sound, m/s (Liquid); method: Single path-length method
Temperature, K	Molality, mol/kg of ethyl 3-oxobutanoate	Speed of sound, m/s	uncertainty
288.15	0.076	1472.59	4.18
288.15	0.1625	1479.2	4.18
288.15	0.2495	1485.54	4.18
288.15	0.3767	1494.12	4.18
288.15	0.4725	1500	4.18
288.15	0.5324	1503.4	4.18
288.15	0.6848	1511.63	4.18
288.15	0.7843	1516.32	4.18
288.15	0.9019	1521.37	4.18
293.15	0.076	1487.76	4.18
293.15	0.1625	1493.58	4.18
293.15	0.2495	1499.15	4.18
293.15	0.3767	1506.65	4.18
293.15	0.4725	1511.74	4.18
293.15	0.5324	1514.66	4.18
293.15	0.6848	1521.71	4.18
293.15	0.7843	1525.67	4.18
293.15	0.9019	1529.91	4.18
298.15	0.076	1501.29	4.18
298.15	0.1625	1506.37	4.18
298.15	0.2495	1511.2	4.18
298.15	0.3767	1517.68	4.18
298.15	0.4725	1522.02	4.18
298.15	0.5324	1524.52	4.18
298.15	0.6848	1530.45	4.18
298.15	0.7843	1533.73	4.18
298.15	0.9019	1537.18	4.18
303.15	0.076	1513.05	4.18
303.15	0.1625	1517.44	4.18
303.15	0.2495	1521.6	4.18
303.15	0.3767	1527.12	4.18
303.15	0.4725	1530.79	4.18
303.15	0.5324	1532.87	4.18
303.15	0.6848	1537.76	4.18
303.15	0.7843	1540.41	4.18
303.15	0.9019	1543.14	4.18
308.15	0.076	1523.12	4.18
308.15	0.1625	1526.88	4.18
308.15	0.2495	1530.41	4.18
308.15	0.3767	1535.04	4.18
308.15	0.4725	1538.08	4.18
308.15	0.5324	1539.78	4.18
308.15	0.6848	1543.71	4.18
308.15	0.7843	1545.77	4.18
308.15	0.9019	1547.81	4.18
288.15	0	1466.69	4.18
293.15	0	1482.47	4.18
298.15	0	1496.62	4.18
303.15	0	1508.98	4.18
308.15	0	1519.62	4.18
