Measured thermophysical data. Effect of anion variation on the thermophysical properties of  triethylammonium based protic ionic liquids with polar solvent
Source: Thermochim. Acta, 2013, 10.1016/j.tca.2013.02.002
Compound 1: dimethyl sulfoxide, C2H6OS, InChI=1S/C2H6OS/c1-4(2)3/h1-2H3, purity 99%
Compound 2: triethylammonium dihydrogen phosphate, C6H18NO4P, InChI=1S/C6H15N.H3O4P/c1-4-7(5-2)6-3;1-5(2,3)4/h4-6H2,1-3H3;(H3,1,2,3,4), purity 99%
Compound 3: triethylammonium hydrogen sulfate, C6H17NO4S, InChI=1S/C6H15N.H2O4S/c1-4-7(5-2)6-3;1-5(2,3)4/h4-6H2,1-3H3;(H2,1,2,3,4), purity 99%

System: dimethyl sulfoxide; phases: Liquid
Fixed: Pressure, kPa = 101
Property: Mass density, kg/m3 (Liquid); method: Vibrating tube method
Temperature, K	Mass density, kg/m3	uncertainty
298.15	1095.37	0.4
303.15	1092.41	0.4
308.15	1086.08	0.39
308.15	1086.06	0.39

System: dimethyl sulfoxide; phases: Liquid
Fixed: Pressure, kPa = 101
Property: Speed of sound, m/s (Liquid); method: Single crystal ultrasonic interferometer
Temperature, K	Speed of sound, m/s	uncertainty
298.15	1496	1
303.15	1472	1
308.15	1460	1

System: dimethyl sulfoxide; phases: Liquid
Fixed: Pressure, kPa = 101
Property: Viscosity, Pa*s (Liquid); method: vibro viscometer
Temperature, K	Viscosity, Pa*s	uncertainty
298.15	0.00199	4e-05
303.15	0.00179	4e-05
308.15	0.00165	3e-05
303.15	0.0018	4e-05

System: triethylammonium dihydrogen phosphate; phases: Liquid
Fixed: Pressure, kPa = 101
Property: Mass density, kg/m3 (Liquid); method: Vibrating tube method
Temperature, K	Mass density, kg/m3	uncertainty
298.15	1125.7	0.43
303.15	1124.68	0.43
308.15	1123.71	0.42

System: triethylammonium dihydrogen phosphate; phases: Liquid
Fixed: Pressure, kPa = 101
Property: Speed of sound, m/s (Liquid); method: Single crystal ultrasonic interferometer
Temperature, K	Speed of sound, m/s	uncertainty
298.15	1794	5
303.15	1769	5
308.15	1757	5

System: triethylammonium dihydrogen phosphate; phases: Liquid
Fixed: Pressure, kPa = 101
Property: Viscosity, Pa*s (Liquid); method: vibro viscometer
Temperature, K	Viscosity, Pa*s	uncertainty
298.15	0.06427	0.00133
303.15	0.0571	0.00118
308.15	0.04945	0.00102

System: triethylammonium hydrogen sulfate; phases: Liquid
Fixed: Pressure, kPa = 101
Property: Mass density, kg/m3 (Liquid); method: Vibrating tube method
Temperature, K	Mass density, kg/m3	uncertainty
298.15	1142.89	0.45
303.15	1141.83	0.44
308.15	1140.72	0.44

System: triethylammonium hydrogen sulfate; phases: Liquid
Fixed: Pressure, kPa = 101
Property: Speed of sound, m/s (Liquid); method: Single crystal ultrasonic interferometer
Temperature, K	Speed of sound, m/s	uncertainty
298.15	1874	5
303.15	1871	5
308.15	1866	5

System: triethylammonium hydrogen sulfate; phases: Liquid
Fixed: Pressure, kPa = 101
Property: Viscosity, Pa*s (Liquid); method: vibro viscometer
Temperature, K	Viscosity, Pa*s	uncertainty
298.15	0.235	0.00486
303.15	0.153	0.00316
308.15	0.138	0.00285

System: dimethyl sulfoxide + triethylammonium dihydrogen phosphate; phases: Liquid
Fixed: Pressure, kPa = 101
Property: Mass density, kg/m3 (Liquid); method: Vibrating tube method
Temperature, K	Mole fraction of triethylammonium dihydrogen phosphate	Mass density, kg/m3	uncertainty
298.15	0	1095.37	0.4
298.15	0.0228	1097.4	0.41
298.15	0.0457	1099.37	0.41
298.15	0.0728	1101.71	0.41
298.15	0.1172	1105.5	0.41
298.15	0.1658	1109.34	0.42
298.15	0.2384	1114.84	0.42
298.15	0.2945	1118.41	0.42
298.15	0.3613	1122.3	0.43
298.15	0.4112	1125.03	0.43
298.15	0.4859	1128.08	0.43
298.15	0.5506	1130.03	0.43
298.15	0.6122	1131.27	0.43
298.15	0.6728	1131.97	0.43
298.15	0.7404	1131.96	0.43
298.15	0.8037	1131.57	0.43
298.15	0.8705	1130.06	0.43
298.15	0.9493	1127.69	0.43
298.15	0.9758	1126.68	0.43
298.15	1	1125.7	0.43
303.15	0	1092.41	0.4
303.15	0.0228	1094.83	0.41
303.15	0.0457	1097.02	0.41
303.15	0.0728	1099.52	0.41
303.15	0.1172	1103.71	0.41
303.15	0.1658	1107.65	0.42
303.15	0.2384	1113.33	0.42
303.15	0.2945	1117.03	0.42
303.15	0.3613	1121.11	0.43
303.15	0.4112	1123.65	0.43
303.15	0.4859	1126.81	0.43
303.15	0.5506	1128.89	0.43
303.15	0.6122	1130.26	0.43
303.15	0.6728	1131.05	0.43
303.15	0.7404	1131.26	0.43
303.15	0.8037	1130.5	0.43
303.15	0.8705	1129.45	0.43
303.15	0.9493	1126.9	0.43
303.15	0.9758	1125.81	0.43
303.15	1	1124.68	0.43
308.15	0	1086.06	0.39
308.15	0.0228	1088.84	0.41
308.15	0.0457	1091.51	0.41
308.15	0.0728	1094.26	0.41
308.15	0.1172	1098.89	0.41
308.15	0.1658	1103.57	0.42
308.15	0.2384	1109.78	0.42
308.15	0.2945	1113.93	0.42
308.15	0.3613	1118.16	0.42
308.15	0.4112	1120.9	0.43
308.15	0.4859	1124.47	0.43
308.15	0.5506	1126.79	0.43
308.15	0.6122	1128.4	0.43
308.15	0.6728	1129.48	0.43
308.15	0.7404	1129.94	0.43
308.15	0.8037	1129.56	0.43
308.15	0.8705	1128.49	0.43
308.15	0.9493	1125.98	0.43
308.15	0.9758	1124.88	0.43
308.15	1	1123.71	0.42

System: dimethyl sulfoxide + triethylammonium dihydrogen phosphate; phases: Liquid
Fixed: Pressure, kPa = 101
Property: Speed of sound, m/s (Liquid); method: Single crystal ultrasonic interferometer
Temperature, K	Mole fraction of triethylammonium dihydrogen phosphate	Speed of sound, m/s	uncertainty
298.15	0	1496	1
298.15	0.0228	1509	2
298.15	0.0457	1524	2
298.15	0.0728	1540	2
298.15	0.1172	1566	2
298.15	0.1658	1594	2
298.15	0.2384	1629	2
298.15	0.2945	1652	2
298.15	0.3613	1676	3
298.15	0.4112	1691	3
298.15	0.4859	1714	3
298.15	0.5506	1728	3
298.15	0.6122	1739	4
298.15	0.6728	1747	4
298.15	0.7404	1758	4
298.15	0.8037	1769	4
298.15	0.8705	1776	5
298.15	0.9493	1788	5
298.15	0.9758	1791	5
298.15	1	1794	5
303.15	0	1472	1
303.15	0.0228	1487	2
303.15	0.0457	1502	2
303.15	0.0728	1521	2
303.15	0.1172	1546	2
303.15	0.1658	1574	2
303.15	0.2384	1610	2
303.15	0.2945	1632	2
303.15	0.3613	1658	3
303.15	0.4112	1674	3
303.15	0.4859	1693	3
303.15	0.5506	1702	3
303.15	0.6122	1718	4
303.15	0.6728	1724	4
303.15	0.7404	1730	4
303.15	0.8037	1742	4
303.15	0.8705	1749	5
303.15	0.9493	1762	5
303.15	0.9758	1766	5
303.15	1	1769	5
308.15	0	1460	1
308.15	0.0228	1479	2
308.15	0.0457	1492	2
308.15	0.0728	1514	2
308.15	0.1172	1540	2
308.15	0.1658	1565	2
308.15	0.2384	1598	2
308.15	0.2945	1624	2
308.15	0.3613	1648	3
308.15	0.4112	1664	3
308.15	0.4859	1684	3
308.15	0.5506	1698	3
308.15	0.6122	1708	4
308.15	0.6728	1714	4
308.15	0.7404	1722	4
308.15	0.8037	1731	4
308.15	0.8705	1738	5
308.15	0.9493	1752	5
308.15	0.9758	1754	5
308.15	1	1757	5

System: dimethyl sulfoxide + triethylammonium dihydrogen phosphate; phases: Liquid
Fixed: Pressure, kPa = 101
Property: Viscosity, Pa*s (Liquid); method: vibro viscometer
Temperature, K	Mole fraction of triethylammonium dihydrogen phosphate	Viscosity, Pa*s	uncertainty
298.15	0	0.00199	4e-05
298.15	0.0228	0.0027	6e-05
298.15	0.0457	0.00331	7e-05
298.15	0.0728	0.00437	9e-05
298.15	0.1172	0.0057	0.00012
298.15	0.1658	0.00758	0.00016
298.15	0.2384	0.01018	0.00021
298.15	0.2945	0.01226	0.00025
298.15	0.3613	0.015	0.00031
298.15	0.4112	0.01729	0.00036
298.15	0.4859	0.0211	0.00044
298.15	0.5506	0.02464	0.00051
298.15	0.6122	0.02847	0.00059
298.15	0.6728	0.03261	0.00067
298.15	0.7404	0.03782	0.00078
298.15	0.8037	0.04347	0.0009
298.15	0.8705	0.04966	0.00102
298.15	0.9493	0.05815	0.0012
298.15	0.9758	0.06134	0.00126
298.15	1	0.06427	0.00133
303.15	0	0.0018	4e-05
303.15	0.0228	0.00256	5e-05
303.15	0.0457	0.0032	7e-05
303.15	0.0728	0.00424	9e-05
303.15	0.1172	0.0056	0.00012
303.15	0.1658	0.00736	0.00015
303.15	0.2384	0.00998	0.00021
303.15	0.2945	0.01195	0.00025
303.15	0.3613	0.01442	0.0003
303.15	0.4112	0.01643	0.00034
303.15	0.4859	0.01968	0.00041
303.15	0.5506	0.02294	0.00047
303.15	0.6122	0.02613	0.00054
303.15	0.6728	0.02961	0.00061
303.15	0.7404	0.03413	0.0007
303.15	0.8037	0.03882	0.0008
303.15	0.8705	0.04443	0.00092
303.15	0.9493	0.05171	0.00107
303.15	0.9758	0.05455	0.00112
303.15	1	0.0571	0.00118
308.15	0	0.00165	3e-05
308.15	0.0228	0.00233	5e-05
308.15	0.0457	0.00298	6e-05
308.15	0.0728	0.00384	8e-05
308.15	0.1172	0.00523	0.00011
308.15	0.1658	0.00675	0.00014
308.15	0.2384	0.00901	0.00019
308.15	0.2945	0.01082	0.00022
308.15	0.3613	0.01314	0.00027
308.15	0.4112	0.01493	0.00031
308.15	0.4859	0.01792	0.00037
308.15	0.5506	0.02075	0.00043
308.15	0.6122	0.02364	0.00049
308.15	0.6728	0.02681	0.00055
308.15	0.7404	0.03067	0.00063
308.15	0.8037	0.03474	0.00072
308.15	0.8705	0.03941	0.00081
308.15	0.9493	0.04551	0.00094
308.15	0.9758	0.04755	0.00098
308.15	1	0.04945	0.00102

System: dimethyl sulfoxide + triethylammonium hydrogen sulfate; phases: Liquid
Fixed: Pressure, kPa = 101
Property: Mass density, kg/m3 (Liquid); method: Vibrating tube method
Temperature, K	Mole fraction of triethylammonium hydrogen sulfate	Mass density, kg/m3	uncertainty
298.15	0	1095.37	0.4
298.15	0.011	1096.26	0.41
298.15	0.0461	1099.23	0.41
298.15	0.0844	1102.23	0.41
298.15	0.1228	1105.12	0.41
298.15	0.1731	1108.52	0.41
298.15	0.2188	1111.48	0.42
298.15	0.2624	1114.01	0.42
298.15	0.347	1118.64	0.42
298.15	0.4202	1122.25	0.43
298.15	0.5036	1126	0.43
298.15	0.5996	1129.88	0.43
298.15	0.6721	1132.57	0.44
298.15	0.7527	1135.35	0.44
298.15	0.801	1136.96	0.44
298.15	0.8444	1138.32	0.44
298.15	0.892	1139.75	0.44
298.15	0.9443	1141.31	0.44
298.15	0.9756	1142.16	0.45
298.15	1	1142.89	0.45
303.15	0	1092.41	0.4
303.15	0.011	1093.41	0.41
303.15	0.0461	1096.59	0.41
303.15	0.0844	1099.78	0.41
303.15	0.1228	1102.83	0.41
303.15	0.1731	1106.42	0.41
303.15	0.2188	1109.48	0.42
303.15	0.2624	1112.16	0.42
303.15	0.347	1116.92	0.42
303.15	0.4202	1120.66	0.42
303.15	0.5036	1124.55	0.43
303.15	0.5996	1128.52	0.43
303.15	0.6721	1131.29	0.43
303.15	0.7527	1134.16	0.44
303.15	0.801	1135.86	0.44
303.15	0.8444	1137.21	0.44
303.15	0.892	1138.67	0.44
303.15	0.9443	1140.23	0.44
303.15	0.9756	1141.12	0.44
303.15	1	1141.83	0.44
308.15	0	1086.06	0.39
308.15	0.011	1087.27	0.41
308.15	0.0461	1090.85	0.41
308.15	0.0844	1094.44	0.41
308.15	0.1228	1097.9	0.41
308.15	0.1731	1101.95	0.41
308.15	0.2188	1105.35	0.41
308.15	0.2624	1108.41	0.42
308.15	0.347	1113.67	0.42
308.15	0.4202	1117.77	0.42
308.15	0.5036	1122.02	0.43
308.15	0.5996	1126.4	0.43
308.15	0.6721	1129.45	0.43
308.15	0.7527	1132.54	0.44
308.15	0.801	1134.28	0.44
308.15	0.8444	1135.79	0.44
308.15	0.892	1137.37	0.44
308.15	0.9443	1139.03	0.44
308.15	0.9756	1139.99	0.44
308.15	1	1140.72	0.44

System: dimethyl sulfoxide + triethylammonium hydrogen sulfate; phases: Liquid
Fixed: Pressure, kPa = 101
Property: Speed of sound, m/s (Liquid); method: Single crystal ultrasonic interferometer
Temperature, K	Mole fraction of triethylammonium hydrogen sulfate	Speed of sound, m/s	uncertainty
298.15	0	1496	1
298.15	0.011	1502	1
298.15	0.0461	1516	2
298.15	0.0844	1534	2
298.15	0.1228	1550	2
298.15	0.1731	1574	2
298.15	0.2188	1594	2
298.15	0.2624	1614	2
298.15	0.347	1652	3
298.15	0.4202	1684	3
298.15	0.5036	1720	3
298.15	0.5996	1758	4
298.15	0.6721	1786	4
298.15	0.7527	1812	4
298.15	0.801	1826	4
298.15	0.8444	1838	4
298.15	0.892	1852	5
298.15	0.9443	1861	5
298.15	0.9756	1868	5
298.15	1	1874	5
303.15	0	1472	1
303.15	0.011	1479	1
303.15	0.0461	1495	2
303.15	0.0844	1514	2
303.15	0.1228	1530	2
303.15	0.1731	1554	2
303.15	0.2188	1576	2
303.15	0.2624	1596	2
303.15	0.347	1636	3
303.15	0.4202	1670	3
303.15	0.5036	1708	3
303.15	0.5996	1748	4
303.15	0.6721	1778	4
303.15	0.7527	1808	4
303.15	0.801	1820	4
303.15	0.8444	1836	4
303.15	0.892	1850	5
303.15	0.9443	1859	5
303.15	0.9756	1867	5
303.15	1	1871	5
308.15	0	1460	1
308.15	0.011	1468	1
308.15	0.0461	1484	2
308.15	0.0844	1502	2
308.15	0.1228	1520	2
308.15	0.1731	1546	2
308.15	0.2188	1568	2
308.15	0.2624	1590	2
308.15	0.347	1632	3
308.15	0.4202	1666	3
308.15	0.5036	1706	3
308.15	0.5996	1746	4
308.15	0.6721	1778	4
308.15	0.7527	1808	4
308.15	0.801	1822	4
308.15	0.8444	1830	4
308.15	0.892	1850	5
308.15	0.9443	1857	5
308.15	0.9756	1863	5
308.15	1	1866	5

System: dimethyl sulfoxide + triethylammonium hydrogen sulfate; phases: Liquid
Fixed: Pressure, kPa = 101
Property: Viscosity, Pa*s (Liquid); method: vibro viscometer
Temperature, K	Mole fraction of triethylammonium hydrogen sulfate	Viscosity, Pa*s	uncertainty
298.15	0	0.00199	4e-05
298.15	0.011	0.00384	8e-05
298.15	0.0461	0.00902	0.00019
298.15	0.0844	0.01431	0.0003
298.15	0.1228	0.0208	0.00043
298.15	0.1731	0.02963	0.00061
298.15	0.2188	0.0382	0.00079
298.15	0.2624	0.0467	0.00097
298.15	0.347	0.06458	0.00134
298.15	0.4202	0.08108	0.00168
298.15	0.5036	0.101	0.00209
298.15	0.5996	0.125	0.00259
298.15	0.6721	0.144	0.00298
298.15	0.7527	0.165	0.00341
298.15	0.801	0.178	0.00368
298.15	0.8444	0.19	0.00393
298.15	0.892	0.204	0.00422
298.15	0.9443	0.219	0.00453
298.15	0.9756	0.228	0.00471
298.15	1	0.235	0.00486
303.15	0	0.0018	4e-05
303.15	0.011	0.00301	6e-05
303.15	0.0461	0.00627	0.00013
303.15	0.0844	0.00978	0.0002
303.15	0.1228	0.01367	0.00028
303.15	0.1731	0.01913	0.0004
303.15	0.2188	0.02422	0.0005
303.15	0.2624	0.02942	0.00061
303.15	0.347	0.04058	0.00084
303.15	0.4202	0.05107	0.00106
303.15	0.5036	0.06384	0.00132
303.15	0.5996	0.07934	0.00164
303.15	0.6721	0.09201	0.0019
303.15	0.7527	0.106	0.00219
303.15	0.801	0.115	0.00238
303.15	0.8444	0.123	0.00254
303.15	0.892	0.132	0.00273
303.15	0.9443	0.142	0.00293
303.15	0.9756	0.148	0.00306
303.15	1	0.153	0.00316
308.15	0	0.00165	3e-05
308.15	0.011	0.0028	6e-05
308.15	0.0461	0.00584	0.00012
308.15	0.0844	0.00941	0.00019
308.15	0.1228	0.01335	0.00028
308.15	0.1731	0.01872	0.00039
308.15	0.2188	0.02396	0.00049
308.15	0.2624	0.02913	0.0006
308.15	0.347	0.03959	0.00082
308.15	0.4202	0.04918	0.00102
308.15	0.5036	0.06063	0.00125
308.15	0.5996	0.07456	0.00154
308.15	0.6721	0.08539	0.00176
308.15	0.7527	0.09761	0.00201
308.15	0.801	0.105	0.00217
308.15	0.8444	0.112	0.00231
308.15	0.892	0.12	0.00247
308.15	0.9443	0.129	0.00266
308.15	0.9756	0.134	0.00276
308.15	1	0.138	0.00285
