Measured thermophysical data. Enthalpic interactions between some amino acids and cyclohexanone in aqueous solutions at 298.15K
Source: Thermochim. Acta, 2006, 10.1016/j.tca.2006.07.009
Compound 1: cyclohexanone, C6H10O, InChI=1S/C6H10O/c7-6-4-2-1-3-5-6/h1-5H2, purity 99%
Compound 2: water, H2O, InChI=1S/H2O/h1H2, purity 99.99%
Compound 3: 2-aminoacetic acid, C2H5NO2, InChI=1S/C2H5NO2/c3-1-2(4)5/h1,3H2,(H,4,5)
Compound 4: (S)-2-aminopropanoic acid, C3H7NO2, InChI=1S/C3H7NO2/c1-2(4)3(5)6/h2H,4H2,1H3,(H,5,6)/t2-/m0/s1
Compound 5: 4-aminobutanoic acid, C4H9NO2, InChI=1S/C4H9NO2/c5-3-1-2-4(6)7/h1-3,5H2,(H,6,7)
Compound 6: L-valine, C5H11NO2, InChI=1S/C5H11NO2/c1-3(2)4(6)5(7)8/h3-4H,6H2,1-2H3,(H,7,8)/t4-/m0/s1
Compound 7: L-serine, C3H7NO3, InChI=1S/C3H7NO3/c4-2(1-5)3(6)7/h2,5H,1,4H2,(H,6,7)/t2-/m0/s1
Compound 8: L-threonine, C4H9NO3, InChI=1S/C4H9NO3/c1-2(6)3(5)4(7)8/h2-3,6H,5H2,1H3,(H,7,8)/t2-,3+/m1/s1

System: cyclohexanone + water; phases: Liquid
Fixed: Temperature, K = 298.15
Fixed: Pressure, kPa = 101
Property: Molar enthalpy of dilution, kJ/mol (Liquid); method: Flow calorimetry
Initial molality of solute, mol/kg	Final molality of solute, mol/kg	Molar enthalpy of dilution, kJ/mol	uncertainty
0.1	0.0492	-0.0819	0.0021
0.15	0.0737	-0.1208	0.0029
0.18	0.0883	-0.1476	0.0034
0.2	0.098	-0.1607	0.0037
0.22	0.1077	-0.1808	0.0041
0.25	0.1222	-0.2043	0.0046
0.28	0.1366	-0.2342	0.0052
0.3	0.1462	-0.25	0.0056
0.32	0.1558	-0.2683	0.006
0.35	0.1702	-0.3009	0.0067
0.38	0.1845	-0.3302	0.0073
0.4	0.194	-0.3467	0.0076
0.42	0.2035	-0.3607	0.0079
0.45	0.2178	-0.3886	0.0085
0.5	0.2414	-0.443	0.0097

System: 2-aminoacetic acid + water; phases: Liquid
Fixed: Temperature, K = 298.15
Fixed: Pressure, kPa = 101
Property: Molar enthalpy of dilution, kJ/mol (Liquid); method: Flow calorimetry
Initial molality of solute, mol/kg	Final molality of solute, mol/kg	Molar enthalpy of dilution, kJ/mol	uncertainty
0.1	0.0506	0.0219	0.001
0.15	0.0757	0.0334	0.0012
0.18	0.0908	0.0392	0.0013
0.2	0.1008	0.0427	0.0013
0.22	0.1108	0.0461	0.0014
0.25	0.1257	0.0516	0.0015
0.28	0.1407	0.0579	0.0016
0.3	0.1506	0.0609	0.0017
0.3201	0.1606	0.0641	0.0017
0.35	0.1754	0.0697	0.0018
0.38	0.1902	0.0752	0.002
0.4	0.2001	0.0785	0.002
0.42	0.2099	0.0822	0.0021
0.45	0.2247	0.0868	0.0022
0.5	0.2492	0.102	0.0025

System: (S)-2-aminopropanoic acid + water; phases: Liquid
Fixed: Temperature, K = 298.15
Fixed: Pressure, kPa = 101
Property: Molar enthalpy of dilution, kJ/mol (Liquid); method: Flow calorimetry
Initial molality of solute, mol/kg	Final molality of solute, mol/kg	Molar enthalpy of dilution, kJ/mol	uncertainty
0.1	0.0502	-0.0092	0.0009
0.149	0.0746	-0.0164	0.0009
0.18	0.09	-0.0207	0.001
0.2	0.0999	-0.0234	0.001
0.22	0.1098	-0.0257	0.001
0.25	0.1246	-0.0299	0.0011
0.28	0.1394	-0.034	0.0012
0.3	0.1492	-0.0369	0.0012
0.32	0.159	-0.0384	0.0012
0.35	0.1737	-0.0431	0.0013
0.3799	0.1883	-0.0474	0.0014
0.4	0.198	-0.0501	0.0015
0.42	0.2078	-0.0541	0.0015
0.45	0.2223	-0.0579	0.0016
0.5	0.2465	-0.0566	0.0016

System: 4-aminobutanoic acid + water; phases: Liquid
Fixed: Temperature, K = 298.15
Fixed: Pressure, kPa = 101
Property: Molar enthalpy of dilution, kJ/mol (Liquid); method: Flow calorimetry
Initial molality of solute, mol/kg	Final molality of solute, mol/kg	Molar enthalpy of dilution, kJ/mol	uncertainty
0.1	0.0503	-0.0312	0.0011
0.15	0.0753	-0.0457	0.0014
0.18	0.0902	-0.0499	0.0015
0.2	0.1001	-0.0569	0.0016
0.22	0.11	-0.0625	0.0017
0.25	0.1249	-0.0687	0.0018
0.28	0.1396	-0.0722	0.0019
0.3	0.1495	-0.0792	0.002
0.32	0.1593	-0.0847	0.0021
0.35	0.1739	-0.091	0.0023
0.38	0.1886	-0.1012	0.0025
0.4	0.1983	-0.1008	0.0025
0.42	0.208	-0.1121	0.0027
0.45	0.2225	-0.1227	0.0029
0.5	0.2466	-0.127	0.003

System: L-valine + water; phases: Liquid
Fixed: Temperature, K = 298.15
Fixed: Pressure, kPa = 101
Property: Molar enthalpy of dilution, kJ/mol (Liquid); method: Flow calorimetry
Initial molality of solute, mol/kg	Final molality of solute, mol/kg	Molar enthalpy of dilution, kJ/mol	uncertainty
0.1	0.0503	-0.0443	0.0014
0.15	0.0752	-0.062	0.0017
0.18	0.0901	-0.0699	0.0018
0.2	0.1	-0.0819	0.0021
0.22	0.1099	-0.0913	0.0023
0.25	0.1246	-0.1026	0.0025
0.28	0.1393	-0.1082	0.0026
0.3	0.1491	-0.1229	0.0029
0.32	0.1589	-0.1273	0.003
0.35	0.1735	-0.1343	0.0032
0.38	0.188	-0.1499	0.0035
0.4	0.1977	-0.1574	0.0036
0.42	0.2074	-0.1809	0.0041
0.45	0.2218	-0.1967	0.0045
0.5	0.2458	-0.2004	0.0045

System: L-serine + water; phases: Liquid
Fixed: Temperature, K = 298.15
Fixed: Pressure, kPa = 101
Property: Molar enthalpy of dilution, kJ/mol (Liquid); method: Flow calorimetry
Initial molality of solute, mol/kg	Final molality of solute, mol/kg	Molar enthalpy of dilution, kJ/mol	uncertainty
0.1	0.0504	0.0365	0.0012
0.15	0.0754	0.0546	0.0015
0.18	0.0903	0.0641	0.0017
0.2	0.1002	0.0743	0.0019
0.22	0.1101	0.0748	0.0019
0.25	0.125	0.0876	0.0022
0.28	0.1397	0.0942	0.0023
0.3	0.1496	0.1017	0.0025
0.32	0.1594	0.1022	0.0025
0.35	0.174	0.1121	0.0027
0.38	0.1887	0.1218	0.0029
0.4	0.1984	0.1288	0.003
0.42	0.2081	0.1375	0.0032
0.45	0.2226	0.1483	0.0034
0.5	0.2468	0.1549	0.0036

System: L-threonine + water; phases: Liquid
Fixed: Temperature, K = 298.15
Fixed: Pressure, kPa = 101
Property: Molar enthalpy of dilution, kJ/mol (Liquid); method: Flow calorimetry
Initial molality of solute, mol/kg	Final molality of solute, mol/kg	Molar enthalpy of dilution, kJ/mol	uncertainty
0.1	0.0504	0.0044	0.0008
0.15	0.0753	0.0097	0.0009
0.18	0.0902	0.0108	0.0009
0.2	0.1001	0.0107	0.0009
0.22	0.11	0.0116	0.0009
0.25	0.1248	0.012	0.0009
0.28	0.1396	0.0141	0.0009
0.3	0.1493	0.0139	0.0009
0.32	0.1591	0.0151	0.0009
0.35	0.1737	0.0148	0.0009
0.38	0.1883	0.0165	0.0009
0.4	0.198	0.0169	0.0009
0.42	0.2076	0.0174	0.0009
0.45	0.2221	0.0182	0.0009
0.5	0.2461	0.0184	0.0009
