Measured thermophysical data. Excess molar enthalpies of the ternary mixtures: methyl tert-butyl ether + 3-methylpentane + (n-decane or n-dodecane) at 298.15K
Source: Thermochim. Acta, 2005, 10.1016/j.tca.2004.12.026
Compound 1: 2-methoxy-2-methylpropane, C5H12O, InChI=1S/C5H12O/c1-5(2,3)6-4/h1-4H3, purity 99.5%
Compound 2: 3-methylpentane, C6H14, InChI=1S/C6H14/c1-4-6(3)5-2/h6H,4-5H2,1-3H3, purity 99%
Compound 3: decane, C10H22, InChI=1S/C10H22/c1-3-5-7-9-10-8-6-4-2/h3-10H2,1-2H3, purity 99%
Compound 4: dodecane, C12H26, InChI=1S/C12H26/c1-3-5-7-9-11-12-10-8-6-4-2/h3-12H2,1-2H3, purity 99%

System: 2-methoxy-2-methylpropane; phases: Liquid
Property: Mass density, kg/m3 (Liquid); method: Vibrating tube method
Temperature, K	Pressure, kPa	Mass density, kg/m3	uncertainty
298.15	101.325	735.69	0.4

System: 3-methylpentane; phases: Liquid
Property: Mass density, kg/m3 (Liquid); method: Vibrating tube method
Temperature, K	Pressure, kPa	Mass density, kg/m3	uncertainty
298.15	101.325	660.3	0.41

System: decane; phases: Liquid
Property: Mass density, kg/m3 (Liquid); method: Vibrating tube method
Temperature, K	Pressure, kPa	Mass density, kg/m3	uncertainty
298.15	101.325	726.31	0.42

System: dodecane; phases: Liquid
Property: Mass density, kg/m3 (Liquid); method: Vibrating tube method
Temperature, K	Pressure, kPa	Mass density, kg/m3	uncertainty
298.15	101.325	745.38	0.42

System: 3-methylpentane + 2-methoxy-2-methylpropane; phases: Liquid
Fixed: Temperature, K = 298.15
Fixed: Pressure, kPa = 101.325
Property: Excess molar enthalpy (molar enthalpy of mixing), kJ/mol (Liquid); method: Flow calorimetry
Mole fraction of 2-methoxy-2-methylpropane	Excess molar enthalpy (molar enthalpy of mixing), kJ/mol	uncertainty
0.0499	0.05723	0.00158
0.0999	0.10839	0.00209
0.1501	0.15971	0.0026
0.2	0.20163	0.00302
0.2495	0.23382	0.00334
0.3004	0.26322	0.00363
0.3502	0.28566	0.00386
0.3999	0.30137	0.00401
0.4505	0.31155	0.00412
0.4997	0.31455	0.00415
0.55	0.31005	0.0041
0.5996	0.30009	0.004
0.6502	0.28612	0.00386
0.7003	0.26376	0.00364
0.75	0.23469	0.00335
0.7999	0.19913	0.00299
0.8501	0.15769	0.00258
0.8999	0.10987	0.0021
0.95	0.05365	0.00154

System: 3-methylpentane + dodecane + 2-methoxy-2-methylpropane; phases: Liquid
Fixed: Temperature, K = 298.15
Fixed: Pressure, kPa = 101.325
Property: Excess molar enthalpy (molar enthalpy of mixing), kJ/mol (Liquid); method: Flow calorimetry
Mole fraction of 2-methoxy-2-methylpropane	Solvent: Amount ratio of component to other component of binary solvent of 3-methylpentane	Excess molar enthalpy (molar enthalpy of mixing), kJ/mol	uncertainty
0.05	0.9996	0.07719	0.00177
0.05	2.9976	0.06946	0.0017
0.0501	0.3334	0.08387	0.00184
0.0998	0.3334	0.16355	0.00264
0.1	0.9996	0.14123	0.00241
0.1	2.9976	0.12901	0.00229
0.1499	0.3334	0.22547	0.00326
0.15	0.9996	0.2098	0.0031
0.15	2.9976	0.18508	0.00285
0.1998	0.3334	0.28645	0.00387
0.1999	0.9996	0.26175	0.00362
0.1999	2.9976	0.23244	0.00333
0.25	0.3334	0.34821	0.00448
0.25	0.9996	0.31417	0.00414
0.2502	2.9976	0.27176	0.00372
0.2999	0.9996	0.35425	0.00454
0.3001	0.3334	0.39929	0.00499
0.3009	2.9976	0.30304	0.00403
0.3483	0.3334	0.43021	0.0053
0.3504	0.9996	0.38081	0.00481
0.3996	2.9976	0.35421	0.00454
0.3997	0.3334	0.46271	0.00563
0.4004	0.9996	0.4079	0.00508
0.449	0.3334	0.48238	0.00582
0.4498	0.9996	0.42527	0.00525
0.45	2.9976	0.3661	0.00466
0.4996	2.9976	0.37138	0.00471
0.4998	0.9996	0.43404	0.00534
0.4999	0.3334	0.49745	0.00598
0.5496	2.9976	0.37031	0.0047
0.55	0.3334	0.5043	0.00604
0.55	0.9996	0.4352	0.00535
0.5998	0.3334	0.49492	0.00595
0.6001	0.9996	0.42723	0.00527
0.6005	2.9976	0.36288	0.00463
0.6496	2.9976	0.35032	0.0045
0.6497	0.9996	0.413	0.00513
0.6499	0.3334	0.48089	0.00581
0.6992	0.3334	0.45217	0.00552
0.6998	0.9996	0.38869	0.00489
0.7	2.9976	0.32586	0.00426
0.7493	0.3334	0.41513	0.00515
0.7498	0.9996	0.35238	0.00452
0.7499	2.9976	0.29408	0.00394
0.7998	0.9996	0.30648	0.00407
0.7999	0.3334	0.36173	0.00462
0.8	2.9976	0.25314	0.00353
0.8496	2.9976	0.20435	0.00304
0.85	0.9996	0.24835	0.00348
0.8503	0.3334	0.29494	0.00395
0.8966	0.3334	0.22145	0.00322
0.8999	2.9976	0.14561	0.00246
0.9041	0.9996	0.17207	0.00272
0.9499	0.3334	0.11659	0.00217
0.95	0.9996	0.09613	0.00196
0.95	2.9976	0.07821	0.00178

System: 3-methylpentane + decane + 2-methoxy-2-methylpropane; phases: Liquid
Fixed: Temperature, K = 298.15
Fixed: Pressure, kPa = 101.325
Property: Excess molar enthalpy (molar enthalpy of mixing), kJ/mol (Liquid); method: Flow calorimetry
Mole fraction of 2-methoxy-2-methylpropane	Solvent: Amount ratio of component to other component of binary solvent of 3-methylpentane	Excess molar enthalpy (molar enthalpy of mixing), kJ/mol	uncertainty
0.05	0.3334	0.08011	0.0018
0.05	2.6969	0.06639	0.00167
0.0501	0.9996	0.07128	0.00171
0.1	0.9996	0.13809	0.00238
0.1	2.6969	0.12416	0.00224
0.1001	0.3334	0.15258	0.00253
0.1499	2.6969	0.17803	0.00278
0.15	0.3334	0.21619	0.00316
0.1501	0.9996	0.19483	0.00295
0.1999	0.9996	0.24772	0.00348
0.2	0.3334	0.27361	0.00374
0.2	2.6969	0.22574	0.00326
0.2498	2.6969	0.26216	0.00362
0.2499	0.3334	0.32737	0.00427
0.2502	0.9996	0.29572	0.00396
0.3	0.3334	0.37028	0.0047
0.3004	2.6969	0.29589	0.00396
0.3006	0.9996	0.32792	0.00428
0.3498	0.3334	0.39716	0.00497
0.3498	0.9996	0.35824	0.00458
0.3503	2.6969	0.32056	0.00421
0.4002	0.9996	0.38255	0.00483
0.4003	0.3334	0.42416	0.00524
0.4003	2.6969	0.34152	0.00442
0.4499	2.6969	0.35283	0.00453
0.4502	0.3334	0.44265	0.00543
0.4502	0.9996	0.39773	0.00498
0.4996	2.6969	0.3557	0.00456
0.5	0.3334	0.45173	0.00552
0.5002	0.9996	0.40508	0.00505
0.5498	2.6969	0.35421	0.00454
0.5501	0.9996	0.4022	0.00502
0.5505	0.3334	0.45216	0.00552
0.5997	0.3334	0.4456	0.00546
0.6003	0.9996	0.39562	0.00496
0.6004	2.6969	0.34874	0.00449
0.6497	0.9996	0.3806	0.00481
0.6497	2.6969	0.33422	0.00434
0.6501	0.3334	0.42952	0.0053
0.6998	0.9996	0.35461	0.00455
0.6999	2.6969	0.30831	0.00408
0.7	0.3334	0.40162	0.00502
0.75	2.6969	0.27661	0.00377
0.7501	0.3334	0.36439	0.00464
0.7502	0.9996	0.32029	0.0042
0.8	0.3334	0.31649	0.00417
0.8001	0.9996	0.27721	0.00377
0.8007	2.6969	0.23822	0.00338
0.8495	2.6969	0.1916	0.00292
0.8499	0.3334	0.25722	0.00357
0.8503	0.9996	0.22307	0.00323
0.8998	2.6969	0.13463	0.00235
0.9002	0.9996	0.15988	0.0026
0.9006	0.3334	0.18404	0.00284
0.95	0.3334	0.10037	0.00201
0.95	0.9996	0.08433	0.00185
0.95	2.6969	0.072	0.00172
