Measured thermophysical data. Thermophysical properties and thermodynamic phase behavior of ionic liquids
Source: Thermochim. Acta, 2006, 10.1016/j.tca.2006.06.018
Compound 1: N-ethyl-2-hydroxyethyl-N,N-dimethylammonium tetrafluoroborate, C6H16BF4NO, InChI=1S/C6H16NO.BF4/c1-4-7(2,3)5-6-8;2-1(3,4)5/h8H,4-6H2,1-3H3;/q+1;-1, purity 98%
Compound 2: N-ethyl-2-hydroxyethyl-N,N-dimethylammonium hexafluorophosphate, C6H16F6NOP, InChI=1S/C6H16NO.F6P/c1-4-7(2,3)5-6-8;1-7(2,3,4,5)6/h8H,4-6H2,1-3H3;/q+1;-1, purity 98%
Compound 3: N-ethyl-2-hydroxyethyl-N,N-dimethylammonium dicyanamide, C8H16N4O, InChI=1S/C6H16NO.C2N3/c1-4-7(2,3)5-6-8;3-1-5-2-4/h8H,4-6H2,1-3H3;/q+1;-1, purity 98%
Compound 4: N-(2-hydroxyethyl)-N,N-dimethylbutanaminium bromide, C8H20BrNO, InChI=1S/C8H20NO.BrH/c1-4-5-6-9(2,3)7-8-10;/h10H,4-8H2,1-3H3;1H/q+1;/p-1, purity 98%
Compound 5: 1,3-bis(butoxymethyl)-1H-imidazolium tetrafluoroborate, C13H25BF4N2O2, InChI=1S/C13H25N2O2.BF4/c1-3-5-9-16-12-14-7-8-15(11-14)13-17-10-6-4-2;2-1(3,4)5/h7-8,11H,3-6,9-10,12-13H2,1-2H3;/q+1;-1, purity 98%
Compound 6: 1,3-bis((octyloxy)methyl)-1H-imidazolium bis((trifluoromethyl)sulfonyl)amide, C23H41F6N3O6S2, InChI=1S/C21H41N2O2.C2F6NO4S2/c1-3-5-7-9-11-13-17-24-20-22-15-16-23(19-22)21-25-18-14-12-10-8-6-4-2;3-1(4,5)14(10,11)9-15(12,13)2(6,7)8/h15-16,19H,3-14,17-18,20-21H2,1-2H3;/q+1;-1, purity 98%
Compound 7: 1,3-bis(decyloxy)-2-methyl-1H-imidazol-3-ium bis[(trifluoromethyl)sulfonyl]azanide, C26H47F6N3O6S2, InChI=1S/C24H47N2O2.C2F6NO4S2/c1-4-6-8-10-12-14-16-18-22-27-25-20-21-26(24(25)3)28-23-19-17-15-13-11-9-7-5-2;3-1(4,5)14(10,11)9-15(12,13)2(6,7)8/h20-21H,4-19,22-23H2,1-3H3;/q+1;-1, purity 98%
Compound 8: N-decyloxymethyl-3-amido-pyridinium tetrafluoroborate, C17H29BF4N2O2, InChI=1S/C17H28N2O2.BF4/c1-2-3-4-5-6-7-8-9-10-15-21-17(20)19-16-11-13-18-14-12-16;2-1(3,4)5/h11-14H,2-10,15H2,1H3,(H,18,19,20);/q;-1/p+1, purity 98%
Compound 9: butan-1-ol, C4H10O, InChI=1S/C4H10O/c1-2-3-4-5/h5H,2-4H2,1H3
Compound 10: butan-2-ol, C4H10O, InChI=1S/C4H10O/c1-3-4(2)5/h4-5H,3H2,1-2H3
Compound 11: octan-1-ol, C8H18O, InChI=1S/C8H18O/c1-2-3-4-5-6-7-8-9/h9H,2-8H2,1H3
Compound 12: dodecan-1-ol, C12H26O, InChI=1S/C12H26O/c1-2-3-4-5-6-7-8-9-10-11-12-13/h13H,2-12H2,1H3
Compound 13: hexane, C6H14, InChI=1S/C6H14/c1-3-5-6-4-2/h3-6H2,1-2H3
Compound 14: heptane, C7H16, InChI=1S/C7H16/c1-3-5-7-6-4-2/h3-7H2,1-2H3
Compound 15: ethanol, C2H6O, InChI=1S/C2H6O/c1-2-3/h3H,2H2,1H3
Compound 16: benzene, C6H6, InChI=1S/C6H6/c1-2-4-6-5-3-1/h1-6H
Compound 17: hexan-1-ol, C6H14O, InChI=1S/C6H14O/c1-2-3-4-5-6-7/h7H,2-6H2,1H3
Compound 18: water, H2O, InChI=1S/H2O/h1H2, purity 99.99%
Compound 19: cyclohexane, C6H12, InChI=1S/C6H12/c1-2-4-6-5-3-1/h1-6H2, purity 99.99%

System: N-ethyl-2-hydroxyethyl-N,N-dimethylammonium tetrafluoroborate; phases: Crystal 1, Liquid, Air at 1 atmosphere
Property: Molar enthalpy of transition or fusion, kJ/mol (Crystal 1); method: DSC
Molar enthalpy of transition or fusion, kJ/mol	uncertainty
5.14	0.25

System: N-ethyl-2-hydroxyethyl-N,N-dimethylammonium tetrafluoroborate; phases: Crystal 2, Crystal 1, Air at 1 atmosphere
Property: Molar enthalpy of transition or fusion, kJ/mol (Crystal 2); method: DSC
Molar enthalpy of transition or fusion, kJ/mol	uncertainty
1.17	0.16

System: N-ethyl-2-hydroxyethyl-N,N-dimethylammonium tetrafluoroborate; phases: Crystal 3, Crystal 2, Air at 1 atmosphere
Property: Molar enthalpy of transition or fusion, kJ/mol (Crystal 3); method: DSC
Molar enthalpy of transition or fusion, kJ/mol	uncertainty
3.06	0.2

System: N-ethyl-2-hydroxyethyl-N,N-dimethylammonium tetrafluoroborate; phases: Crystal 1, Liquid, Air at 1 atmosphere
Property: Triple point temperature, K (Crystal 1); method: DTA:corrimp
Triple point temperature, K	uncertainty
426.8	2.1

System: N-ethyl-2-hydroxyethyl-N,N-dimethylammonium tetrafluoroborate; phases: Crystal 2, Crystal 1, Air at 1 atmosphere
Property: Triple point temperature, K (Crystal 2); method: DTA
Triple point temperature, K	uncertainty
311.5	0.5

System: N-ethyl-2-hydroxyethyl-N,N-dimethylammonium tetrafluoroborate; phases: Crystal 3, Crystal 2, Air at 1 atmosphere
Property: Triple point temperature, K (Crystal 3); method: DTA
Triple point temperature, K	uncertainty
252.8	0.5

System: N-ethyl-2-hydroxyethyl-N,N-dimethylammonium tetrafluoroborate; phases: Metastable crystal, Crystal 3, Air at 1 atmosphere
Property: Triple point temperature, K (Metastable crystal); method: DTA
Triple point temperature, K	uncertainty
146	1

System: N-ethyl-2-hydroxyethyl-N,N-dimethylammonium hexafluorophosphate; phases: Crystal 1, Liquid, Air at 1 atmosphere
Property: Molar enthalpy of transition or fusion, kJ/mol (Crystal 1); method: DSC
Molar enthalpy of transition or fusion, kJ/mol	uncertainty
10.6	0.38

System: N-ethyl-2-hydroxyethyl-N,N-dimethylammonium hexafluorophosphate; phases: Crystal 1, Liquid, Air at 1 atmosphere
Property: Triple point temperature, K (Crystal 1); method: DTA:corrimp
Triple point temperature, K	uncertainty
272	2.1

System: N-ethyl-2-hydroxyethyl-N,N-dimethylammonium dicyanamide; phases: Crystal 1, Liquid, Air at 1 atmosphere
Property: Molar enthalpy of transition or fusion, kJ/mol (Crystal 1); method: DSC
Molar enthalpy of transition or fusion, kJ/mol	uncertainty
8.6	0.33

System: N-ethyl-2-hydroxyethyl-N,N-dimethylammonium dicyanamide; phases: Crystal 1, Liquid, Air at 1 atmosphere
Property: Triple point temperature, K (Crystal 1); method: DTA:corrimp
Triple point temperature, K	uncertainty
282.7	2.1

System: N-ethyl-2-hydroxyethyl-N,N-dimethylammonium dicyanamide; phases: Metastable crystal, Crystal 1, Air at 1 atmosphere
Property: Triple point temperature, K (Metastable crystal); method: DTA
Triple point temperature, K	uncertainty
168.4	0.5

System: N-(2-hydroxyethyl)-N,N-dimethylbutanaminium bromide; phases: Crystal 1, Liquid, Air at 1 atmosphere
Property: Molar enthalpy of transition or fusion, kJ/mol (Crystal 1); method: DSC
Molar enthalpy of transition or fusion, kJ/mol	uncertainty
13.21	0.44

System: N-(2-hydroxyethyl)-N,N-dimethylbutanaminium bromide; phases: Crystal 1, Liquid, Air at 1 atmosphere
Property: Triple point temperature, K (Crystal 1); method: DTA:corrimp
Triple point temperature, K	uncertainty
359.3	2.1

System: N-(2-hydroxyethyl)-N,N-dimethylbutanaminium bromide; phases: Metastable crystal, Crystal 1, Air at 1 atmosphere
Property: Triple point temperature, K (Metastable crystal); method: DTA
Triple point temperature, K	uncertainty
187.3	0.5

System: 1,3-bis(butoxymethyl)-1H-imidazolium tetrafluoroborate; phases: Crystal 1, Liquid, Air at 1 atmosphere
Property: Molar enthalpy of transition or fusion, kJ/mol (Crystal 1); method: DSC
Molar enthalpy of transition or fusion, kJ/mol	uncertainty
8.54	0.33

System: 1,3-bis(butoxymethyl)-1H-imidazolium tetrafluoroborate; phases: Crystal 2, Crystal 1, Air at 1 atmosphere
Property: Molar enthalpy of transition or fusion, kJ/mol (Crystal 2); method: DSC
Molar enthalpy of transition or fusion, kJ/mol	uncertainty
10.86	0.38

System: 1,3-bis(butoxymethyl)-1H-imidazolium tetrafluoroborate; phases: Crystal 1, Liquid, Air at 1 atmosphere
Property: Triple point temperature, K (Crystal 1); method: DTA:corrimp
Triple point temperature, K	uncertainty
281.4	2.1

System: 1,3-bis(butoxymethyl)-1H-imidazolium tetrafluoroborate; phases: Crystal 2, Crystal 1, Air at 1 atmosphere
Property: Triple point temperature, K (Crystal 2); method: DTA
Triple point temperature, K	uncertainty
267.4	0.5

System: 1,3-bis((octyloxy)methyl)-1H-imidazolium bis((trifluoromethyl)sulfonyl)amide; phases: Crystal 1, Liquid, Air at 1 atmosphere
Property: Molar enthalpy of transition or fusion, kJ/mol (Crystal 1); method: DSC
Molar enthalpy of transition or fusion, kJ/mol	uncertainty
34.2	0.96

System: 1,3-bis((octyloxy)methyl)-1H-imidazolium bis((trifluoromethyl)sulfonyl)amide; phases: Crystal 1, Liquid, Air at 1 atmosphere
Property: Triple point temperature, K (Crystal 1); method: DTA:corrimp
Triple point temperature, K	uncertainty
287.7	2.1

System: 1,3-bis(decyloxy)-2-methyl-1H-imidazol-3-ium bis[(trifluoromethyl)sulfonyl]azanide; phases: Crystal 1, Liquid, Air at 1 atmosphere
Property: Molar enthalpy of transition or fusion, kJ/mol (Crystal 1); method: DSC
Molar enthalpy of transition or fusion, kJ/mol	uncertainty
79.36	2.09

System: 1,3-bis(decyloxy)-2-methyl-1H-imidazol-3-ium bis[(trifluoromethyl)sulfonyl]azanide; phases: Crystal 1, Liquid, Air at 1 atmosphere
Property: Triple point temperature, K (Crystal 1); method: DTA:corrimp
Triple point temperature, K	uncertainty
303.1	2.1

System: N-decyloxymethyl-3-amido-pyridinium tetrafluoroborate; phases: Crystal 1, Liquid, Air at 1 atmosphere
Property: Molar enthalpy of transition or fusion, kJ/mol (Crystal 1); method: DSC
Molar enthalpy of transition or fusion, kJ/mol	uncertainty
51.26	1.39

System: N-decyloxymethyl-3-amido-pyridinium tetrafluoroborate; phases: Crystal 1, Liquid, Air at 1 atmosphere
Property: Triple point temperature, K (Crystal 1); method: DTA:corrimp
Triple point temperature, K	uncertainty
361.9	2.1

System: water + N-ethyl-2-hydroxyethyl-N,N-dimethylammonium tetrafluoroborate; phases: Liquid, Crystal 3
Property: Solid-liquid equilibrium temperature, K (Liquid); method: VISOBS
Mole fraction of N-ethyl-2-hydroxyethyl-N,N-dimethylammonium tetrafluoroborate	Pressure, kPa	Solid-liquid equilibrium temperature, K	uncertainty
0.2631	101	246	0.5

System: water + N-ethyl-2-hydroxyethyl-N,N-dimethylammonium tetrafluoroborate; phases: Liquid, Crystal 2
Fixed: Pressure, kPa = 101
Property: Solid-liquid equilibrium temperature, K (Liquid); method: VISOBS
Mole fraction of N-ethyl-2-hydroxyethyl-N,N-dimethylammonium tetrafluoroborate	Solid-liquid equilibrium temperature, K	uncertainty
0.2704	255.8	0.7
0.292	275.2	0.6
0.3286	290.6	0.6
0.3418	297.2	0.6

System: water + N-ethyl-2-hydroxyethyl-N,N-dimethylammonium tetrafluoroborate; phases: Liquid, Crystal
Fixed: Pressure, kPa = 101
Property: Solid-liquid equilibrium temperature, K (Liquid); method: VISOBS
Mole fraction of N-ethyl-2-hydroxyethyl-N,N-dimethylammonium tetrafluoroborate	Solid-liquid equilibrium temperature, K	uncertainty
0	273.1	0.5
0.0324	271.8	0.5
0.0427	270	0.5
0.0491	269.2	0.5
0.058	267.8	0.5
0.0693	266.4	0.5
0.0789	267.1	0.5
0.0825	265	0.5
0.0862	264.8	0.5
0.1085	262.4	0.5
0.1326	260	0.5
0.1535	258.6	0.5
0.1668	256.4	0.5
0.1835	254.4	0.5
0.2042	252.6	0.5
0.2295	249.1	0.5
0.2631	246	0.5

System: water + N-ethyl-2-hydroxyethyl-N,N-dimethylammonium tetrafluoroborate; phases: Liquid, Crystal 1
Fixed: Pressure, kPa = 101
Property: Solid-liquid equilibrium temperature, K (Liquid); method: VISOBS
Mole fraction of N-ethyl-2-hydroxyethyl-N,N-dimethylammonium tetrafluoroborate	Solid-liquid equilibrium temperature, K	uncertainty
0.3673	311.6	0.5
0.3954	316.5	0.5
0.4177	327.3	0.6
0.4277	331.6	0.6
0.4335	332.7	0.5
0.4354	333.5	0.7
0.4367	335.5	0.9
0.4427	337.1	0.5
0.4495	339.5	0.6
0.4539	343.8	0.7
0.4998	357.6	0.5
0.5159	362.4	0.5
1	426.8	0.5

System: butan-1-ol + N-ethyl-2-hydroxyethyl-N,N-dimethylammonium tetrafluoroborate; phases: Liquid, Crystal 1
Fixed: Pressure, kPa = 101
Property: Solid-liquid equilibrium temperature, K (Liquid); method: VISOBS
Mole fraction of N-ethyl-2-hydroxyethyl-N,N-dimethylammonium tetrafluoroborate	Solid-liquid equilibrium temperature, K	uncertainty
0.0164	340.3	0.6
0.0205	343.4	0.6
0.0249	346.6	0.6
0.0299	348.6	0.6
0.0366	351.2	0.5
0.0443	352.4	0.5
0.0533	354.1	0.5
0.0599	356.5	0.5
0.0704	358.3	0.5
0.0867	361.4	0.5
0.5853	387.4	0.6
0.6201	401.4	0.5
0.6508	406.3	0.5
0.6759	409.3	0.5
0.7092	411.6	0.5
0.7491	415.5	0.5
0.803	418.3	0.5
0.8855	423.2	0.5
0.9542	425.8	0.5
1	426.8	0.5

System: butan-1-ol + N-ethyl-2-hydroxyethyl-N,N-dimethylammonium tetrafluoroborate; phases: Liquid mixture 1, Liquid mixture 2
Fixed: Pressure, kPa = 101
Property: Liquid-liquid equilibrium temperature, K (Liquid mixture 1); method: VISOBS
Mole fraction of N-ethyl-2-hydroxyethyl-N,N-dimethylammonium tetrafluoroborate	Liquid-liquid equilibrium temperature, K	uncertainty
0.1328	426.8	0.5
0.5628	426.8	0.5

System: butan-2-ol + N-ethyl-2-hydroxyethyl-N,N-dimethylammonium tetrafluoroborate; phases: Liquid mixture 1, Liquid mixture 2
Fixed: Pressure, kPa = 101
Property: Liquid-liquid equilibrium temperature, K (Liquid mixture 1); method: VISOBS
Mole fraction of N-ethyl-2-hydroxyethyl-N,N-dimethylammonium tetrafluoroborate	Liquid-liquid equilibrium temperature, K	uncertainty
0.3479	426.8	0.5
0.4957	426.8	0.5

System: butan-2-ol + N-ethyl-2-hydroxyethyl-N,N-dimethylammonium tetrafluoroborate; phases: Liquid, Crystal 2
Property: Solid-liquid equilibrium temperature, K (Liquid); method: VISOBS
Mole fraction of N-ethyl-2-hydroxyethyl-N,N-dimethylammonium tetrafluoroborate	Pressure, kPa	Solid-liquid equilibrium temperature, K	uncertainty
0.1124	101	304.2	0.5

System: butan-2-ol + N-ethyl-2-hydroxyethyl-N,N-dimethylammonium tetrafluoroborate; phases: Liquid, Crystal 1
Fixed: Pressure, kPa = 101
Property: Solid-liquid equilibrium temperature, K (Liquid); method: VISOBS
Mole fraction of N-ethyl-2-hydroxyethyl-N,N-dimethylammonium tetrafluoroborate	Solid-liquid equilibrium temperature, K	uncertainty
0.1581	320.5	0.5
0.1896	327.4	0.5
0.232	333.5	0.5
0.2669	337.6	0.5
0.2824	338.1	0.5
0.2957	338.9	0.5
0.3079	340.5	0.5
0.3207	343.4	0.5
0.3319	345.5	0.5
0.5413	352.2	0.5
0.5707	356	0.5
0.6169	360	0.5
0.6369	365.3	0.5
0.6551	371.5	0.5
0.6863	379.5	0.5
0.6999	383.4	0.5
0.8426	402.5	0.5
1	426.8	0.5

System: octan-1-ol + N-ethyl-2-hydroxyethyl-N,N-dimethylammonium tetrafluoroborate; phases: Liquid, Crystal 1
Fixed: Pressure, kPa = 101
Property: Solid-liquid equilibrium temperature, K (Liquid); method: VISOBS
Mole fraction of N-ethyl-2-hydroxyethyl-N,N-dimethylammonium tetrafluoroborate	Solid-liquid equilibrium temperature, K	uncertainty
0.1596	392.3	0.5
0.1719	394.2	0.5
0.1867	395.5	0.5
0.1958	397	0.5
0.2039	398.2	0.5
0.23	402.4	0.5
0.26	405.3	0.5
0.2955	408.7	0.5
0.3143	410.6	0.5
0.3642	413.2	0.5
0.3952	415.4	0.5
0.43	416.9	0.5
0.4676	417.7	0.5
0.86	421.3	0.5
0.88	422	0.5
0.91	422.6	0.5
0.97	423.6	0.5
1	426.8	0.5

System: octan-1-ol + N-ethyl-2-hydroxyethyl-N,N-dimethylammonium tetrafluoroborate; phases: Liquid mixture 1, Liquid mixture 2
Property: Liquid-liquid equilibrium temperature, K (Liquid mixture 1); method: VISOBS
Mole fraction of N-ethyl-2-hydroxyethyl-N,N-dimethylammonium tetrafluoroborate	Pressure, kPa	Liquid-liquid equilibrium temperature, K	uncertainty
0.49	101	426.8	0.5

System: dodecan-1-ol + N-ethyl-2-hydroxyethyl-N,N-dimethylammonium tetrafluoroborate; phases: Liquid, Crystal 1
Fixed: Pressure, kPa = 101
Property: Solid-liquid equilibrium temperature, K (Liquid); method: VISOBS
Mole fraction of N-ethyl-2-hydroxyethyl-N,N-dimethylammonium tetrafluoroborate	Solid-liquid equilibrium temperature, K	uncertainty
0.03	357.5	0.6
0.05	366.3	0.5
0.08	374.5	0.5
0.0891	376	0.5
0.1129	378.5	0.5
0.1312	381.9	0.5
0.1738	389.4	0.5
0.2096	396.8	0.5
0.2282	400.3	0.5
0.237	402.4	0.5
0.24	403.3	0.6
0.246	405.7	0.5
0.25	406.3	0.5
0.26	408.7	0.5
0.53	414	0.5
0.58	415.8	0.5
0.63	418.3	0.5
0.75	421.1	0.5
0.85	423.4	0.5
0.9	424.7	0.5
0.93	425.5	0.5
0.98	426.1	0.5
0.99	426.2	0.5
1	426.8	0.5

System: dodecan-1-ol + N-ethyl-2-hydroxyethyl-N,N-dimethylammonium tetrafluoroborate; phases: Liquid mixture 1, Liquid mixture 2
Fixed: Pressure, kPa = 101
Property: Liquid-liquid equilibrium temperature, K (Liquid mixture 1); method: VISOBS
Mole fraction of N-ethyl-2-hydroxyethyl-N,N-dimethylammonium tetrafluoroborate	Liquid-liquid equilibrium temperature, K	uncertainty
0.28	426.8	0.5
0.49	426.8	0.5

System: hexane + N-(2-hydroxyethyl)-N,N-dimethylbutanaminium bromide; phases: Liquid, Crystal 1
Fixed: Pressure, kPa = 101
Property: Solid-liquid equilibrium temperature, K (Liquid); method: VISOBS
Mole fraction of N-(2-hydroxyethyl)-N,N-dimethylbutanaminium bromide	Solid-liquid equilibrium temperature, K	uncertainty
0.002	349.7	0.5
0.7995	353.8	0.5
1	359.3	0.5

System: hexane + N-(2-hydroxyethyl)-N,N-dimethylbutanaminium bromide; phases: Liquid mixture 1, Liquid mixture 2
Fixed: Pressure, kPa = 101
Property: Liquid-liquid equilibrium temperature, K (Liquid mixture 1); method: VISOBS
Mole fraction of N-(2-hydroxyethyl)-N,N-dimethylbutanaminium bromide	Liquid-liquid equilibrium temperature, K	uncertainty
0.0064	387.2	0.5
0.3939	428.2	0.6
0.4549	407.2	0.5
0.507	395.8	0.5
0.5566	391.7	0.5
0.6293	380.5	0.5
0.7156	366	0.5

System: heptane + N-(2-hydroxyethyl)-N,N-dimethylbutanaminium bromide; phases: Liquid, Crystal 1
Fixed: Pressure, kPa = 101
Property: Solid-liquid equilibrium temperature, K (Liquid); method: VISOBS
Mole fraction of N-(2-hydroxyethyl)-N,N-dimethylbutanaminium bromide	Solid-liquid equilibrium temperature, K	uncertainty
0.005	342.7	0.6
0.012	345.3	0.6
0.7675	347.7	0.5
0.8026	350	0.5
0.8426	351.4	0.5
0.912	353.3	0.5
0.9562	355.3	0.5
1	359.3	0.5

System: heptane + N-(2-hydroxyethyl)-N,N-dimethylbutanaminium bromide; phases: Liquid mixture 1, Liquid mixture 2
Fixed: Pressure, kPa = 101
Property: Liquid-liquid equilibrium temperature, K (Liquid mixture 1); method: VISOBS
Mole fraction of N-(2-hydroxyethyl)-N,N-dimethylbutanaminium bromide	Liquid-liquid equilibrium temperature, K	uncertainty
0.0521	363.2	0.5
0.1052	378.4	0.5
0.5658	395	0.6
0.6584	360.5	0.6

System: cyclohexane + N-(2-hydroxyethyl)-N,N-dimethylbutanaminium bromide; phases: Liquid, Crystal 1
Fixed: Pressure, kPa = 101
Property: Solid-liquid equilibrium temperature, K (Liquid); method: VISOBS
Mole fraction of N-(2-hydroxyethyl)-N,N-dimethylbutanaminium bromide	Solid-liquid equilibrium temperature, K	uncertainty
0.005	333.5	0.6
0.015	339.2	0.6
0.8982	342.9	0.5
0.8982	342.9	0.5
0.9393	342.2	0.5
0.9687	343.8	0.5
1	359.3	0.5

System: cyclohexane + N-(2-hydroxyethyl)-N,N-dimethylbutanaminium bromide; phases: Liquid mixture 1, Liquid mixture 2
Fixed: Pressure, kPa = 101
Property: Liquid-liquid equilibrium temperature, K (Liquid mixture 1); method: VISOBS
Mole fraction of N-(2-hydroxyethyl)-N,N-dimethylbutanaminium bromide	Liquid-liquid equilibrium temperature, K	uncertainty
0.0262	358.2	0.6
0.0496	372.3	0.8
0.0777	413.2	0.9
0.6208	424.9	0.5
0.7202	398.3	0.5
0.7822	378.2	0.6
0.8337	358.6	0.6
0.8749	342.1	0.6

System: ethanol + 1,3-bis(butoxymethyl)-1H-imidazolium tetrafluoroborate; phases: Liquid, Crystal 2
Fixed: Pressure, kPa = 101
Property: Solid-liquid equilibrium temperature, K (Liquid); method: VISOBS
Mole fraction of 1,3-bis(butoxymethyl)-1H-imidazolium tetrafluoroborate	Solid-liquid equilibrium temperature, K	uncertainty
0.005	243.3	1
0.01	251.4	1
0.225	256.6	0.5
0.261	258.9	0.5
0.304	261.9	0.5
0.353	265	0.5
0.397	267.3	0.5

System: ethanol + 1,3-bis(butoxymethyl)-1H-imidazolium tetrafluoroborate; phases: Liquid, Crystal 1
Fixed: Pressure, kPa = 101
Property: Solid-liquid equilibrium temperature, K (Liquid); method: VISOBS
Mole fraction of 1,3-bis(butoxymethyl)-1H-imidazolium tetrafluoroborate	Solid-liquid equilibrium temperature, K	uncertainty
0.423	267.6	0.5
0.463	267.9	0.5
0.508	268.4	0.5
0.54	268.5	0.5
0.665	268.4	0.5
0.756	269.2	0.5
0.838	274.5	0.5
1	281.4	0.5

System: ethanol + 1,3-bis(butoxymethyl)-1H-imidazolium tetrafluoroborate; phases: Liquid mixture 1, Liquid mixture 2
Fixed: Pressure, kPa = 101
Property: Liquid-liquid equilibrium temperature, K (Liquid mixture 1); method: VISOBS
Mole fraction of 1,3-bis(butoxymethyl)-1H-imidazolium tetrafluoroborate	Liquid-liquid equilibrium temperature, K	uncertainty
0.05	257	0.5
0.094	259.8	0.5
0.109	260.3	0.5
0.125	260.2	0.5
0.146	260	0.5
0.17	258.8	0.5
0.194	255.4	0.5

System: octan-1-ol + 1,3-bis(butoxymethyl)-1H-imidazolium tetrafluoroborate; phases: Liquid, Crystal 1
Fixed: Pressure, kPa = 101
Property: Solid-liquid equilibrium temperature, K (Liquid); method: VISOBS
Mole fraction of 1,3-bis(butoxymethyl)-1H-imidazolium tetrafluoroborate	Solid-liquid equilibrium temperature, K	uncertainty
0.599	271.1	0.5
0.67	274.6	0.5
0.765	277.2	0.5
0.864	278.9	0.5
1	281.4	0.5

System: octan-1-ol + 1,3-bis(butoxymethyl)-1H-imidazolium tetrafluoroborate; phases: Liquid mixture 1, Liquid mixture 2
Fixed: Pressure, kPa = 101
Property: Liquid-liquid equilibrium temperature, K (Liquid mixture 1); method: VISOBS
Mole fraction of 1,3-bis(butoxymethyl)-1H-imidazolium tetrafluoroborate	Liquid-liquid equilibrium temperature, K	uncertainty
0.012	271.7	0.5
0.044	273.3	0.5
0.065	273	0.5
0.077	272.9	0.5
0.08	273	0.5
0.11	272.7	0.5
0.135	272.5	0.5
0.169	271.9	0.5
0.202	271.4	0.5
0.239	271	0.5

System: benzene + 1,3-bis(butoxymethyl)-1H-imidazolium tetrafluoroborate; phases: Liquid mixture 1, Liquid mixture 2
Fixed: Pressure, kPa = 101
Property: Liquid-liquid equilibrium temperature, K (Liquid mixture 1); method: VISOBS
Mole fraction of 1,3-bis(butoxymethyl)-1H-imidazolium tetrafluoroborate	Liquid-liquid equilibrium temperature, K	uncertainty
0.115	278.6	0.5
0.127	278.7	0.5
0.157	278.6	0.5
0.178	278.5	0.5
0.196	278.4	0.5
0.216	277.9	0.5
0.233	277.5	0.5
0.251	277.1	0.5
0.274	276.5	0.5
0.303	274.4	0.5
0.318	273.5	0.5
0.349	270.2	0.5
0.365	268.6	0.5
0.384	267.2	0.5
0.39	266.6	0.5
0.402	265.4	0.5
0.426	262.8	0.5
0.452	260.8	0.5

System: benzene + 1,3-bis(butoxymethyl)-1H-imidazolium tetrafluoroborate; phases: Liquid, Crystal 2
Fixed: Pressure, kPa = 101
Property: Solid-liquid equilibrium temperature, K (Liquid); method: VISOBS
Mole fraction of 1,3-bis(butoxymethyl)-1H-imidazolium tetrafluoroborate	Solid-liquid equilibrium temperature, K	uncertainty
0.495	260	0.5
0.57	260.9	0.5
0.629	261.6	0.5
0.704	262.6	0.5
0.772	264	0.5

System: benzene + 1,3-bis(butoxymethyl)-1H-imidazolium tetrafluoroborate; phases: Liquid, Crystal 1
Fixed: Pressure, kPa = 101
Property: Solid-liquid equilibrium temperature, K (Liquid); method: VISOBS
Mole fraction of 1,3-bis(butoxymethyl)-1H-imidazolium tetrafluoroborate	Solid-liquid equilibrium temperature, K	uncertainty
0.871	267.9	0.5
0.931	270	0.5
0.972	271.2	0.5
1	281.4	0.5

System: ethanol + 1,3-bis((octyloxy)methyl)-1H-imidazolium bis((trifluoromethyl)sulfonyl)amide; phases: Liquid, Crystal 1
Fixed: Pressure, kPa = 101
Property: Solid-liquid equilibrium temperature, K (Liquid); method: VISOBS
Mole fraction of 1,3-bis((octyloxy)methyl)-1H-imidazolium bis((trifluoromethyl)sulfonyl)amide	Solid-liquid equilibrium temperature, K	uncertainty
0.003	246.7	0.6
0.026	257.3	0.6
0.033	258.4	0.5
0.04	259.9	0.5
0.057	261.5	0.5
0.088	264.4	0.5
0.108	265.8	0.5
0.131	267.2	0.5
0.154	267.9	0.5
0.177	269	0.5
0.209	270.5	0.5
0.261	272.2	0.5
0.338	274.7	0.5
0.397	276.3	0.5
0.446	278.2	0.5
0.531	280.7	0.5
0.61	283.3	0.5
0.662	284.7	0.5
0.733	286.4	0.5
0.79	287.1	0.5
0.87	287.5	0.5
1	287.7	0.5

System: octan-1-ol + 1,3-bis((octyloxy)methyl)-1H-imidazolium bis((trifluoromethyl)sulfonyl)amide; phases: Liquid, Crystal 1
Fixed: Pressure, kPa = 101
Property: Solid-liquid equilibrium temperature, K (Liquid); method: VISOBS
Mole fraction of 1,3-bis((octyloxy)methyl)-1H-imidazolium bis((trifluoromethyl)sulfonyl)amide	Solid-liquid equilibrium temperature, K	uncertainty
0.038	268.4	0.5
0.066	269.1	0.5
0.093	270.4	0.5
0.116	271.1	0.5
0.152	271.8	0.5
0.186	272.5	0.5
0.228	273.7	0.5
0.33	277.2	0.5
0.376	278.9	0.5
0.468	282	0.5
0.57	284.4	0.5
0.74	285.8	0.5
0.86	286.6	0.5
1	287.7	0.5

System: benzene + 1,3-bis((octyloxy)methyl)-1H-imidazolium bis((trifluoromethyl)sulfonyl)amide; phases: Liquid, Crystal 1
Fixed: Pressure, kPa = 101
Property: Solid-liquid equilibrium temperature, K (Liquid); method: VISOBS
Mole fraction of benzene	Solid-liquid equilibrium temperature, K	uncertainty
0.01	278.7	0.5
0.012	278.6	0.5
0.041	278.6	0.5
0.05	278.5	0.5
0.064	278	0.5
0.079	277.5	0.5
0.095	276.5	0.5
0.121	275.1	0.5
0.153	274	0.5
0.185	273.2	0.5
0.22	272.8	0.5
0.248	272.5	0.5
0.3	272.2	0.5

System: benzene + 1,3-bis((octyloxy)methyl)-1H-imidazolium bis((trifluoromethyl)sulfonyl)amide; phases: Liquid, Crystal 1
Fixed: Pressure, kPa = 101
Property: Solid-liquid equilibrium temperature, K (Liquid); method: VISOBS
Mole fraction of 1,3-bis((octyloxy)methyl)-1H-imidazolium bis((trifluoromethyl)sulfonyl)amide	Solid-liquid equilibrium temperature, K	uncertainty
0.353	272.2	0.5
0.38	272.5	0.5
0.425	273.4	0.5
0.498	275.3	0.5
0.567	278.5	0.5
0.682	281.5	0.5
0.688	281.6	0.5
0.747	282.8	0.5
0.856	284.9	0.5
0.946	286.7	0.5
1	287.7	0.5

System: ethanol + 1,3-bis(decyloxy)-2-methyl-1H-imidazol-3-ium bis[(trifluoromethyl)sulfonyl]azanide; phases: Liquid, Crystal 1
Fixed: Pressure, kPa = 101
Property: Solid-liquid equilibrium temperature, K (Liquid); method: VISOBS
Mole fraction of 1,3-bis(decyloxy)-2-methyl-1H-imidazol-3-ium bis[(trifluoromethyl)sulfonyl]azanide	Solid-liquid equilibrium temperature, K	uncertainty
0.046	289.1	0.5
0.064	289.3	0.5
0.067	289.5	0.5
0.13	291.5	0.5
0.183	293	0.5
0.222	293.6	0.5
0.248	294.7	0.5
0.251	294.8	0.5
0.281	295.2	0.5
0.297	296.3	0.5
0.346	297.3	0.5
0.399	298.9	0.5
0.408	299.1	0.5
0.446	300	0.5
0.467	300.4	0.5
0.512	300.8	0.5
0.572	301.3	0.5
0.6	301.6	0.5
1	303.1	0.5

System: benzene + 1,3-bis(decyloxy)-2-methyl-1H-imidazol-3-ium bis[(trifluoromethyl)sulfonyl]azanide; phases: Liquid, Crystal 1
Fixed: Pressure, kPa = 101
Property: Solid-liquid equilibrium temperature, K (Liquid); method: VISOBS
Mole fraction of 1,3-bis(decyloxy)-2-methyl-1H-imidazol-3-ium bis[(trifluoromethyl)sulfonyl]azanide	Solid-liquid equilibrium temperature, K	uncertainty
0.151	276.7	0.5
0.194	279.6	0.5
0.22	282.9	0.5
0.264	285.8	0.5
0.295	287.6	0.5
0.326	289	0.5
0.392	292.3	0.5
0.421	293	0.5
0.455	293.7	0.5
0.485	294.7	0.5
0.539	296.1	0.5
0.602	297.8	0.5
0.673	298.8	0.5
0.708	300	0.5
0.764	301.6	0.5
0.812	302.7	0.5
1	303.1	0.5

System: ethanol + N-decyloxymethyl-3-amido-pyridinium tetrafluoroborate; phases: Liquid, Crystal 1
Fixed: Pressure, kPa = 101
Property: Solid-liquid equilibrium temperature, K (Liquid); method: VISOBS
Mole fraction of N-decyloxymethyl-3-amido-pyridinium tetrafluoroborate	Solid-liquid equilibrium temperature, K	uncertainty
0.002	313.6	0.5
0.025	317.5	0.5
0.039	319.3	0.5
0.054	320.2	0.5
0.07	322.7	0.5
0.085	325.9	0.5
0.097	327.3	0.5
0.105	327.4	0.5
0.113	329.4	0.5
0.129	331.7	0.5
0.143	332.9	0.5
0.164	335.9	0.5
0.188	336.9	0.5
0.209	338.8	0.5
0.285	343.9	0.5
0.348	347.2	0.5
0.391	348.7	0.5
0.431	349.7	0.5
0.484	352.1	0.5
0.566	354	0.5
0.649	355.1	0.5
0.712	356.5	0.5
0.76	357.5	0.5
0.888	360	0.5
1	361.9	0.5

System: butan-1-ol + N-decyloxymethyl-3-amido-pyridinium tetrafluoroborate; phases: Liquid, Crystal 1
Fixed: Pressure, kPa = 101
Property: Solid-liquid equilibrium temperature, K (Liquid); method: VISOBS
Mole fraction of N-decyloxymethyl-3-amido-pyridinium tetrafluoroborate	Solid-liquid equilibrium temperature, K	uncertainty
0.001	327.1	0.5
0.045	328.4	0.5
0.067	329.3	0.5
0.109	332.2	0.5
0.135	333	0.5
0.169	334.9	0.5
0.209	335.5	0.5
0.242	336.6	0.5
0.335	339.7	0.5
0.389	342.9	0.5
0.451	344.8	0.5
0.529	348.2	0.5
0.628	351.4	0.5
0.679	353.7	0.5
0.722	355.3	0.5
0.843	359.9	0.5
1	361.9	0.5

System: hexan-1-ol + N-decyloxymethyl-3-amido-pyridinium tetrafluoroborate; phases: Liquid, Crystal 1
Fixed: Pressure, kPa = 101
Property: Solid-liquid equilibrium temperature, K (Liquid); method: VISOBS
Mole fraction of N-decyloxymethyl-3-amido-pyridinium tetrafluoroborate	Solid-liquid equilibrium temperature, K	uncertainty
0.003	334.7	0.5
0.037	336.1	0.5
0.06	336.9	0.5
0.072	337.1	0.5
0.091	337.2	0.5
0.106	337.7	0.5
0.117	337.8	0.5
0.168	338.3	0.5
0.25	339.2	0.5
0.331	341.3	0.5
0.381	342	0.5
0.438	343.5	0.5
0.599	348.5	0.5
0.787	354.9	0.5
1	361.9	0.5

System: dodecan-1-ol + N-decyloxymethyl-3-amido-pyridinium tetrafluoroborate; phases: Liquid, Crystal 1
Fixed: Pressure, kPa = 101
Property: Solid-liquid equilibrium temperature, K (Liquid); method: VISOBS
Mole fraction of N-decyloxymethyl-3-amido-pyridinium tetrafluoroborate	Solid-liquid equilibrium temperature, K	uncertainty
0.24	345.1	0.5
0.296	345.1	0.5
0.335	345.3	0.5
0.358	345.5	0.5
0.379	346	0.5
0.47	347.7	0.5
0.562	349.4	0.5
0.68	351.8	0.5
0.74	354.8	0.5
0.81	357.7	0.5
0.88	359.6	0.5
1	361.9	0.5

System: dodecan-1-ol + N-decyloxymethyl-3-amido-pyridinium tetrafluoroborate; phases: Liquid mixture 1, Liquid mixture 2
Fixed: Pressure, kPa = 101
Property: Liquid-liquid equilibrium temperature, K (Liquid mixture 1); method: VISOBS
Mole fraction of N-decyloxymethyl-3-amido-pyridinium tetrafluoroborate	Liquid-liquid equilibrium temperature, K	uncertainty
0.006	347.8	0.5
0.029	348.2	0.5
0.036	348.3	0.5
0.046	348.2	0.5
0.059	347.8	0.5
0.088	347.7	0.5
0.141	344.7	0.5

System: benzene + N-decyloxymethyl-3-amido-pyridinium tetrafluoroborate; phases: Liquid mixture 1, Liquid mixture 2
Fixed: Pressure, kPa = 101
Property: Liquid-liquid equilibrium temperature, K (Liquid mixture 1); method: VISOBS
Mole fraction of N-decyloxymethyl-3-amido-pyridinium tetrafluoroborate	Liquid-liquid equilibrium temperature, K	uncertainty
0.004	336.7	0.5
0.027	335.8	0.5
0.044	335.7	0.5
0.052	335.6	0.5
0.06	334.5	0.5
0.073	334.7	0.5
0.083	334.8	0.5
0.094	334.8	0.5
0.102	334.7	0.5
0.111	333.5	0.5
