Measured thermophysical data. Heat Capacity and Thermodynamic Functions of Erbium Orthophosphate ErPO4 in the Range 0-1600 K
Source: Thermochim. Acta, 2012, 10.1016/j.tca.2012.02.002
Compound 1: erbium phosphate, ErO4P, InChI=1S/Er.H3O4P/c;1-5(2,3)4/h;(H3,1,2,3,4)/q+3;/p-3, purity 99.9%

System: erbium phosphate; phases: Crystal
Property: Molar volume, m3/mol (Crystal); method: X-ray diffraction
Temperature, K	Pressure, kPa	Molar volume, m3/mol	uncertainty
293	101.325	4.271e-05	5.1e-07

System: erbium phosphate; phases: Crystal
Fixed: Pressure, kPa = 101.325
Property: Molar heat capacity at constant pressure, J/K/mol (Crystal); method: Relaxation Calorimetry
Temperature, K	Molar heat capacity at constant pressure, J/K/mol	uncertainty
2.05	0.1821	0.0026
2.06	0.1815	0.0028
2.15	0.169	0.0025
2.15	0.1693	0.0025
2.23	0.1585	0.0023
2.24	0.1587	0.0023
2.33	0.1486	0.002
2.33	0.1492	0.002
2.42	0.1398	0.0019
2.42	0.1398	0.0019
2.52	0.1308	0.0017
2.52	0.1303	0.0017
2.62	0.1226	0.0015
2.63	0.1216	0.0015
2.73	0.1149	0.0013
2.74	0.1147	0.0013
2.84	0.1079	0.0012
2.85	0.1075	0.0012
2.96	0.1012	0.0011
2.97	0.101	0.0011
3.08	0.09512	0.00093
3.09	0.095	0.0009
3.21	0.08975	0.00078
3.22	0.0889	0.0008
3.34	0.08523	0.00059
3.35	0.0846	0.0006
3.48	0.08127	0.00047
3.48	0.0813	0.0005
3.62	0.07825	0.00036
3.64	0.0777	0.0004
3.77	0.07611	0.00016
3.77	0.0763	0.0002
3.93	0.0754	0.0001
4.1	0.07633	0.00023
4.1	0.0764	0.0002
4.27	0.07937	0.0005
4.27	0.079	0.0005
4.44	0.08477	0.00078
4.45	0.0843	0.0008
4.62	0.09293	0.00111
4.63	0.0925	0.0011
4.82	0.1048	0.0015
4.82	0.1045	0.0015
5.02	0.1211	0.0019
5.02	0.1208	0.0019
5.22	0.1421	0.0023
5.22	0.142	0.0023
5.44	0.1701	0.0028
5.44	0.1698	0.0028
5.67	0.2055	0.0034
5.67	0.2049	0.0034
5.91	0.2491	0.0041
5.91	0.2489	0.0041
6.15	0.3031	0.0047
6.15	0.3029	0.0047
6.41	0.3662	0.0053
6.41	0.3497	0.0053
6.67	0.4408	0.0062
6.68	0.4451	0.0062
6.96	0.5353	0.0069
6.96	0.5363	0.0069
7.24	0.6377	0.0076
7.25	0.6369	0.0076
7.55	0.7594	0.0083
7.55	0.7584	0.0083
7.87	0.893	0.0089
7.87	0.8931	0.0089
8.2	1.047	0.01
8.2	1.049	0.01
8.54	1.218	0.01
8.54	1.218	0.01
8.9	1.407	0.011
8.9	1.404	0.011
9.27	1.607	0.011
9.27	1.604	0.011
9.65	1.831	0.012
10.05	2.057	0.013
10.05	2.046	0.012
10.26	2.218	0.015
10.53	2.408	0.012
10.66	2.462	0.012
10.91	2.636	0.012
11.1	2.733	0.012
11.35	2.908	0.012
11.56	3.016	0.012
11.81	3.191	0.012
12.04	3.31	0.012
12.29	3.486	0.013
12.53	3.616	0.012
12.78	3.791	0.012
13.05	3.929	0.012
13.3	4.098	0.012
13.59	4.242	0.011
13.84	4.403	0.011
14.15	4.549	0.011
14.41	4.708	0.011
14.74	4.863	0.011
14.99	5.019	0.01
15.35	5.181	0.01
15.6	5.328	0.009
15.99	5.488	0.009
16.24	5.627	0.009
16.65	5.792	0.009
16.91	5.923	0.008
17.34	6.085	0.008
17.6	6.206	0.008
18.06	6.369	0.008
18.32	6.493	0.008
18.81	6.67	0.007
19.07	6.774	0.007
19.6	6.935	0.007
19.85	7.052	0.007
20.41	7.222	0.007
20.67	7.329	0.006
21.26	7.493	0.006
21.52	7.59	0.006
22.14	7.771	0.006
22.4	7.869	0.006
23.06	8.068	0.006
23.32	8.163	0.006
24.02	8.364	0.006
24.29	8.456	0.006
25.02	8.665	0.006
25.28	8.765	0.006
26.06	9.002	0.006
26.32	9.091	0.007
27.41	9.432	0.006
28.27	9.673	0.006
28.53	9.786	0.007
29.45	10.07	0.01
29.72	10.17	0.01
30.68	10.5	0.01
30.95	10.6	0.01
31.97	10.96	0.01
32.22	11.08	0.01
33.31	11.44	0.01
33.56	11.58	0.01
34.69	11.99	0.01
34.95	12.12	0.01

System: erbium phosphate; phases: Crystal
Fixed: Pressure, kPa = 101.325
Property: Molar heat capacity at constant pressure, J/K/mol (Crystal); method: Vacuum adiabatic calorimetry
Temperature, K	Molar heat capacity at constant pressure, J/K/mol	uncertainty
8.56	1.262	0.023
9.19	1.587	0.025
9.84	1.971	0.028
10.52	2.384	0.031
11.21	2.814	0.034
11.92	3.253	0.036
12.64	3.701	0.039
13.37	4.111	0.041
14.12	4.51	0.042
14.88	4.899	0.044
15.65	5.247	0.045
16.43	5.599	0.047
17.21	5.933	0.048
18	6.247	0.048
18.8	6.533	0.049
19.59	6.837	0.049
20.84	7.265	0.05
22.39	7.793	0.05
23.97	8.29	0.05
25.55	8.799	0.049
27.13	9.314	0.048
28.72	9.871	0.047
30.31	10.46	0.06
31.9	11.11	0.06
33.49	11.75	0.06
35.09	12.32	0.07
36.69	13.09	0.07
38.29	13.85	0.07
39.9	14.59	0.07
41.51	15.35	0.07
43.13	16.12	0.07
44.75	16.95	0.07
46.39	17.8	0.08
48.02	18.68	0.08
49.64	19.56	0.08
51.27	20.45	0.08
52.9	21.35	0.08
54.54	22.23	0.09
56.17	23.13	0.09
57.81	24.03	0.09
59.46	24.96	0.09
61.11	25.9	0.09
62.76	26.86	0.09
64.41	27.81	0.1
66.06	28.75	0.1
67.72	29.67	0.1
69.38	30.58	0.1
71.24	31.56	0.1
73.31	32.73	0.11
75.38	33.9	0.11
77.44	35.09	0.11
78.64	35.5	0.11
79.51	36.27	0.11
81	37.03	0.11
81.57	37.33	0.12
83.05	38	0.12
83.64	38.24	0.12
85.11	38.94	0.12
85.72	39.22	0.12
87.17	40.21	0.12
87.79	40.58	0.12
89.22	41.36	0.12
89.86	41.58	0.12
91.28	42.3	0.24
91.94	42.51	0.24
93.33	43.21	0.24
94.02	43.42	0.24
95.39	44.16	0.24
96.11	44.4	0.24
97.45	45.11	0.25
99.5	46.06	0.25
102.17	47.11	0.25
105.46	48.46	0.25
108.74	50.01	0.25
112.02	51.4	0.25
115.31	52.75	0.25
118.6	54.1	0.25
121.89	55.38	0.26
125.18	56.65	0.26
128.48	57.9	0.26
131.77	59.15	0.26
135.06	60.36	0.26
138.35	61.56	0.26
141.64	62.75	0.26
144.92	63.93	0.26
148.21	65.06	0.27
151.5	66.19	0.27
154.79	67.31	0.27
158.07	68.34	0.27
161.36	69.45	0.27
164.64	70.45	0.27
167.92	71.48	0.27
171.18	72.5	0.27
174.46	73.47	0.27
177.73	74.42	0.27
181	75.35	0.28
184.26	76.23	0.28
187.53	77.14	0.28
190.79	77.99	0.28
194.05	78.87	0.28
197.31	79.82	0.28
200.56	80.61	0.28
204.21	81.51	0.28
208.26	82.53	0.28
212.31	83.53	0.28
216.35	84.52	0.28
220.38	85.53	0.29
228.3	87.52	0.29
232.31	88.39	0.29
236.31	89.17	0.29
240.3	90.08	0.29
244.27	90.89	0.29
248.24	91.71	0.29
252.19	92.54	0.29
256.13	93.34	0.29
260.05	94.13	0.29
263.96	94.97	0.3
267.82	95.68	0.3
271.7	96.34	0.3
275.56	97.1	0.3
279.36	97.78	0.3
283.13	98.4	0.3
286.87	99.05	0.3
290.33	99.68	0.3
294.03	100.3	0.3
297.69	101	0.3
301.33	101.7	0.3
305.3	102.4	0.3
311.36	103.5	0.3
318.34	104.6	0.3
325.26	105.6	0.3
332.11	106.5	0.3
338.88	107.5	0.3
345.58	108.5	0.3

System: erbium phosphate; phases: Crystal
Fixed: Pressure, kPa = 101.325
Property: Molar heat capacity at constant pressure, J/K/mol (Crystal); method: Drop calorimetry
Temperature, K	Molar heat capacity at constant pressure, J/K/mol	uncertainty
2	0.189	0.006
3	0.0991	0.0045
4	0.0755	0.006
6	0.268	0.01
8	0.956	0.03
10	2.222	0.067
15	4.903	0.147
20	6.881	0.207
25	8.631	0.259
30	10.43	0.31
35	12.41	0.37
40	14.63	0.44
45	17.07	0.51
50	19.7	0.59
55	22.45	0.67
60	25.28	0.76
65	28.13	0.84
70	30.96	0.93
75	33.73	1.01
80	36.43	1.09
85	39.03	1.17
90	41.53	1.25
95	43.93	1.32
100	46.24	1.39
110	50.59	1.52
120	54.66	1.64
130	58.5	1.76
140	62.15	1.86
150	65.63	1.97
160	68.95	2.07
170	72.09	2.16
180	75.06	2.25
190	77.87	2.34
200	80.51	2.42
210	83.03	2.49
220	85.43	2.56
230	87.73	2.63
240	89.95	2.7
250	92.08	2.76
260	94.13	2.82
270	96.08	2.88
280	97.93	2.94
290	99.69	2.99
300	101.4	3
310	103	3.1
320	104.8	3.1
330	106.5	3.2
340	108.2	3.2
350	109.8	3.3
400	116.9	3.5
450	122.8	3.7
500	127.7	3.8
550	131.8	4
600	135.4	4.1
650	138.4	4.2
700	141	4.2
750	143.3	4.3
800	145.3	4.4
850	147.1	4.4
900	148.8	4.5
950	150.2	4.5
1000	151.6	4.5
1050	152.8	4.6
1100	154	4.6
1150	155.1	4.7
1200	156.1	4.7
1250	157.1	4.7
1300	158.1	4.7
1350	158.9	4.8
1400	159.8	4.8
1450	160.6	4.8
1500	161.4	4.8
1550	162.2	4.9
1600	162.9	4.9

System: erbium phosphate; phases: Crystal
Fixed: Pressure, kPa = 101.325
Property: Molar enthalpy, kJ/mol (Crystal); method: Drop calorimetry
Temperature, K	Molar enthalpy, kJ/mol	uncertainty
357.1	6.095	0.184
497.9	23.39	0.7
600.8	36.55	1.1
697.9	50.05	1.5
784.4	65.46	1.96
879.4	78.28	2.35
976.7	92.77	2.78
1075.6	110.1	3.3
1176.5	121.8	3.7
1277.8	134.5	4
1380.5	151.6	4.5
1483.4	167.9	5
1575.5	183.5	5.5

System: erbium phosphate; phases: Crystal
Fixed: Pressure, kPa = 101.325
Property: Molar enthalpy, kJ/mol (Crystal); method: Small (less than 1 g) adiabatic calorimetry
Temperature, K	Molar enthalpy, kJ/mol	uncertainty
2	9.47e-05	4.22e-05
3	0.000239	6.5e-05
4	0.000326	8.7e-05
6	0.000617	0.000131
8	0.001779	0.000194
10	0.004828	0.00028
15	0.02305	0.00063
20	0.05268	0.00104
25	0.09148	0.00143
30	0.1391	0.0037
35	0.1961	0.0045
40	0.2636	0.0053
45	0.3428	0.0062
50	0.4346	0.0072
55	0.54	0.0082
60	0.6593	0.0093
65	0.7928	0.0105
70	0.9405	0.0117
75	1.102	0.013
80	1.278	0.014
85	1.466	0.016
90	1.668	0.025
95	1.882	0.027
100	2.107	0.028
110	2.591	0.032
120	3.118	0.036
130	3.684	0.041
140	4.287	0.045
150	4.926	0.05
160	5.599	0.054
170	6.305	0.059
180	7.041	0.064
190	7.805	0.069
200	8.597	0.074
210	9.415	0.08
220	10.26	0.085
230	11.12	0.09
240	12.01	0.096
250	12.92	0.102
260	13.85	0.107
270	14.8	0.113
280	15.77	0.119
290	16.76	0.125
300	17.77	0.131
310	18.79	0.137
320	19.83	0.143
330	20.89	0.15
340	21.96	0.156
350	23.05	0.162
400	28.72	0.195
450	34.72	0.229
500	40.98	0.264
550	47.47	0.3
600	54.16	0.337
650	61	0.374
700	67.99	0.412
750	75.09	0.45
800	82.31	0.489
850	89.62	0.528
900	97.02	0.568
950	104.5	0.608
1000	112	0.648
1050	119.6	0.688
1100	127.3	0.729
1150	135	0.77
1200	142.8	0.811
1250	150.6	0.852
1300	158.5	0.894
1350	166.5	0.936
1400	174.4	0.978
1450	182.4	1.02
1500	190.5	1.062
1550	198.6	1.104
1600	206.7	1.147

System: erbium phosphate; phases: Crystal
Fixed: Pressure, kPa = 101.325
Property: Molar entropy, J/K/mol (Crystal); method: Small (less than 1 g) adiabatic calorimetry
Temperature, K	Molar entropy, J/K/mol	uncertainty
2	0.0631	0.0318
3	0.127	0.034
4	0.153	0.034
6	0.209	0.036
8	0.0369	0.0311
10	0.7012	0.047
15	2.141	0.075
20	3.832	0.099
25	5.556	0.114
30	7.287	0.205
35	9.041	0.218
40	10.84	0.23
45	12.7	0.25
50	14.64	0.26
55	16.64	0.27
60	18.72	0.29
65	20.58	0.3
70	23.04	0.32
75	25.27	0.34
80	27.53	0.36
85	29.82	0.37
90	32.12	0.49
95	34.43	0.51
100	36.75	0.52
110	41.36	0.55
120	45.94	0.58
130	50.46	0.6
140	54.94	0.63
150	59.34	0.66
160	63.69	0.68
170	67.96	0.71
180	72.17	0.73
190	76.3	0.76
200	80.36	0.78
210	84.35	0.81
220	88.27	0.83
230	92.12	0.85
240	95.9	0.88
250	99.62	0.9
260	103.3	0.9
270	106.9	0.9
280	110.4	1
290	113.8	1
300	117.3	1
310	120.6	1
320	123.9	1
330	127.2	1.1
340	130.4	1.1
350	133.5	1.1
400	148.7	1.2
450	162.8	1.3
500	176	1.4
550	188.3	1.4
600	200	1.5
650	210.9	1.6
700	221.3	1.6
750	231.1	1.7
800	240.4	1.7
850	249.3	1.8
900	257.7	1.8
950	265.8	1.9
1000	273.5	1.9
1050	281	2
1100	288.1	2
1150	295	2.1
1200	301.6	2.1
1250	308	2.1
1300	314.2	2.2
1350	320.2	2.2
1400	326	2.3
1450	331.6	2.3
1500	337	2.3
1550	342.3	2.4
1600	347.5	2.4
