Measured thermophysical data. Determination of the Equilibrium Temperatures and Enthalpies of the Solid-Solid Transitions of Rubidium Nitrate by Differential Scanning Calorimetry
Source: Thermochim. Acta, 2008, 10.1016/j.tca.2007.12.008
Compound 1: rubidium nitrate, NO3Rb, InChI=1S/NO3.Rb/c2-1(3)4;/q-1;+1

System: rubidium nitrate; phases: Crystal 4, Crystal 3, Air at 1 atmosphere
Property: Molar enthalpy of transition or fusion, kJ/mol (Crystal 4); method: DSC
Molar enthalpy of transition or fusion, kJ/mol	uncertainty
3.83	0.15

System: rubidium nitrate; phases: Crystal 3, Crystal 2, Air at 1 atmosphere
Property: Molar enthalpy of transition or fusion, kJ/mol (Crystal 3); method: DSC
Molar enthalpy of transition or fusion, kJ/mol	uncertainty
3.14	0.14

System: rubidium nitrate; phases: Crystal 2, Crystal 1, Air at 1 atmosphere
Property: Molar enthalpy of transition or fusion, kJ/mol (Crystal 2); method: DSC
Molar enthalpy of transition or fusion, kJ/mol	uncertainty
1.65	0.21

System: rubidium nitrate; phases: Crystal 4, Crystal 3, Air at 1 atmosphere
Property: Triple point temperature, K (Crystal 4); method: DTA
Triple point temperature, K	uncertainty
438.05	0.4

System: rubidium nitrate; phases: Crystal 3, Crystal 2, Air at 1 atmosphere
Property: Triple point temperature, K (Crystal 3); method: DTA
Triple point temperature, K	uncertainty
495.35	1.1

System: rubidium nitrate; phases: Crystal 2, Crystal 1, Air at 1 atmosphere
Property: Triple point temperature, K (Crystal 2); method: DTA
Triple point temperature, K	uncertainty
557.15	0.4
