Measured thermophysical data. Investigation of thermophysical properties of thin-layered paint
Source: Thermochim. Acta, 2018, 10.1016/j.tca.2018.01.022
Compound 1: aluminum, Al, InChI=1S/Al
Compound 2: molybdenum, Mo, InChI=1S/Mo

System: aluminum; phases: Crystal
Property: Mass density, kg/m3 (Crystal); method: Buoyancy - hydrostatic balance
Temperature, K	Pressure, kPa	Mass density, kg/m3	uncertainty
298	101.325	2656	310

System: molybdenum; phases: Crystal
Property: Mass density, kg/m3 (Crystal); method: Buoyancy - hydrostatic balance
Temperature, K	Pressure, kPa	Mass density, kg/m3	uncertainty
298	101.325	9999	595
