Measured thermophysical data. Studies on solution crystallization of Na2SO4*10H2O embedded in porous polyurethane foam for thermal energy storage application
Source: Thermochim. Acta, 2018, 10.1016/j.tca.2018.08.005
Compound 1: sodium sulfate decahydrate, H20Na2O14S, InChI=1S/2Na.H2O4S.10H2O/c;;1-5(2,3)4;;;;;;;;;;/h;;(H2,1,2,3,4);10*1H2/q2*+1;;;;;;;;;;;/p-2

System: sodium sulfate decahydrate; phases: Crystal, Liquid, Air at 1 atmosphere
Property: Normal melting temperature, K (Crystal); method: DTA:corrimp
Normal melting temperature, K	uncertainty
308.15	5

System: sodium sulfate decahydrate; phases: Crystal, Liquid, Air at 1 atmosphere
Property: Molar enthalpy of transition or fusion, kJ/mol (Crystal); method: DSC
Molar enthalpy of transition or fusion, kJ/mol	uncertainty
75.200532396	7.668263372
