Measured thermophysical data. Heat capacity and thermodynamic properties of benzyl disulfide (C14H14S2)
Source: Thermochim. Acta, 2007, 10.1016/j.tca.2007.05.014
Compound 1: 1,4-diphenyl-2,3-dithiabutane, C14H14S2, InChI=1S/C14H14S2/c1-3-7-13(8-4-1)11-15-16-12-14-9-5-2-6-10-14/h1-10H,11-12H2, purity 99%

System: 1,4-diphenyl-2,3-dithiabutane; phases: Crystal, Liquid, Gas
Property: Molar enthalpy of transition or fusion, kJ/mol (Crystal); method: Adiabatic calorimetry
Molar enthalpy of transition or fusion, kJ/mol	uncertainty
44.965	0.05

System: 1,4-diphenyl-2,3-dithiabutane; phases: Crystal, Liquid, Gas
Property: Triple point temperature, K (Crystal); method: Adiabatic calorimetry
Triple point temperature, K	uncertainty
341.72	0.17

System: 1,4-diphenyl-2,3-dithiabutane; phases: Crystal
Fixed: Pressure, kPa = 101.325
Property: Molar heat capacity at constant pressure, J/K/mol (Crystal); method: Vacuum adiabatic calorimetry
Temperature, K	Molar heat capacity at constant pressure, J/K/mol	uncertainty
80.3	108.33	0.474
84.06	111.79	0.482
87.01	113.48	0.491
90.01	116.34	0.515
92.93	118.76	0.524
95.91	122.02	0.54
99.41	127.8	0.565
103.24	135.01	0.59
106.95	141.28	0.615
110.69	147.39	0.64
114.47	153.91	0.665
118.16	160.1	0.69
121.87	169.57	0.732
125.68	176.87	0.757
129.35	179.77	0.765
132.96	185.92	0.79
136.61	192.1	0.815
140.35	197.02	0.8398
144.38	205.28	0.873
147.99	211.7	0.898
151.7	217.62	0.9229
155.35	222.51	0.9395
158.92	228.58	0.9645
162.44	233.74	0.9811
165.91	238.97	1.0061
169.42	243.63	1.0227
172.99	248.31	1.0393
176.5	252.64	1.0643
179.96	257.05	1.0809
183.38	260.66	1.0892
186.84	265.34	1.1141
190.36	269.4	1.1308
193.83	273.35	1.1474
197.26	277.29	1.1557
200.65	280.28	1.1723
204	284.27	1.189
207.4	288.01	1.2056
210.85	291.95	1.2222
214.25	296.05	1.2389
217.6	300.68	1.2555
220.9	305.02	1.2721
224.17	310.55	1.2971
227.41	316.71	1.322
230.64	324.45	1.3469
234.1	331.98	1.3802
237.58	333.36	1.3885
240.9	338.86	1.4051
244.3	341.63	1.4218
247.7	342.44	1.4218
251	347.57	1.4467
254.37	353.48	1.4717
257.79	359.5	1.4883
261.22	363.54	1.5049
264.69	369.67	1.5299
268.17	374.81	1.5548
271.64	381.1	1.5797
275.11	386.26	1.5964
278.65	391.99	1.6213
282.26	396.6	1.638
285.84	402.1	1.6629
289.39	410.38	1.6962
292.9	417.2	1.7211
296.45	417.2	1.7211
299.98	422.24	1.746
303.49	427.76	1.771
307	437.99	1.8126
310.49	432.45	1.7876
313.97	443.61	1.8292
317.47	440.2	1.8209
320.92	443.39	1.8292
324.15	448.33	1.8541
327.24	479.87	1.9872
330.68	494.5	2.0537
334.08	565.94	2.5609
337.09	842.59	6.652
339.29	2123.3	31.512
340.75	6689.9	161.8
341.44	18326	327.59
341.77	22786	106.43

System: 1,4-diphenyl-2,3-dithiabutane; phases: Crystal
Fixed: Pressure, kPa = 101.325
Property: Molar heat capacity at constant pressure, J/K/mol (Crystal); method: Vacuum adiabatic calorimetry
Temperature, K	Molar heat capacity at constant pressure, J/K/mol	uncertainty
80	108.82	0.474
85	111.44	0.482
90	116.01	0.515
95	122.1	0.54
100	129.33	0.565
105	137.39	0.599
110	145.99	0.632
115	154.9	0.673
120	163.94	0.707
125	172.98	0.74
130	181.89	0.773
135	190.59	0.815
140	199.02	0.8481
145	207.16	0.8813
150	214.97	0.9063
155	222.48	0.9395
160	229.68	0.9645
165	236.6	0.9977
170	243.29	1.0227
175	249.78	1.0476
180	256.1	1.0726
185	262.31	1.0975
190	268.46	1.1225
195	274.58	1.1474
200	280.71	1.1723
205	286.91	1.1973
210	293.18	1.2222
215	299.57	1.2472
220	306.1	1.2721
225	312.77	1.3054
230	319.61	1.3303
235	326.59	1.3553
240	333.73	1.3885
245	341.01	1.4135
250	348.41	1.4467
255	355.91	1.48
260	363.48	1.5049
265	371.1	1.5382
270	378.73	1.5714
275	386.35	1.5964
280	393.93	1.6296
285	401.44	1.6629
290	408.86	1.6878
295	416.2	1.7211
298.15	420.77	1.7377
300	423.44	1.7544
303	427.75	1.771

System: 1,4-diphenyl-2,3-dithiabutane; phases: Liquid
Fixed: Pressure, kPa = 101.325
Property: Molar heat capacity at constant pressure, J/K/mol (Liquid); method: Vacuum adiabatic calorimetry
Temperature, K	Molar heat capacity at constant pressure, J/K/mol	uncertainty
355	545.41	2.2449
360	555.11	2.2865
365	561.67	2.3114
370	564.76	2.3197
375	580.96	2.3863

System: 1,4-diphenyl-2,3-dithiabutane; phases: Liquid
Fixed: Pressure, kPa = 101.325
Property: Molar heat capacity at constant pressure, J/K/mol (Liquid); method: Vacuum adiabatic calorimetry
Temperature, K	Molar heat capacity at constant pressure, J/K/mol	uncertainty
344.92	1138.3	42.653
350.93	545.43	2.511
355.68	550.14	2.2615
359.31	554.64	2.2782
362.99	559.12	2.3031
366.65	562.71	2.3114
370.29	565.83	2.3281
373.91	569.68	2.353
377.39	643.17	2.6773

System: 1,4-diphenyl-2,3-dithiabutane; phases: Crystal
Fixed: Pressure, kPa = 101.325
Property: Molar enthalpy, kJ/mol (Crystal); method: Vacuum adiabatic calorimetry
Temperature, K	Molar enthalpy, kJ/mol	uncertainty
80	-57.63	0.241
85	-57.08	0.241
90	-56.51	0.224
95	-55.91	0.224
100	-55.28	0.224
105	-54.62	0.216
110	-53.91	0.216
115	-53.15	0.216
120	-52.36	0.208
125	-51.52	0.208
130	-50.64	0.2
135	-49.7	0.2
140	-48.72	0.2
145	-47.71	0.191
150	-46.65	0.191
155	-45.56	0.183
160	-44.43	0.175
165	-43.27	0.175
170	-42.06	0.166
175	-40.83	0.166
180	-39.57	0.158
185	-38.27	0.15
190	-36.94	0.15
195	-35.59	0.141
200	-34.2	0.133
205	-32.78	0.133
210	-31.33	0.125
215	-29.85	0.116
220	-28.34	0.116
225	-26.79	0.108
230	-25.21	0.1
235	-23.59	0.1
240	-21.94	0.091
245	-20.25	0.083
250	-18.53	0.07
255	-16.77	0.07
260	-14.97	0.07
265	-13.14	0.06
270	-11.26	0.06
275	-9.345	0.05
280	-7.39	0.05
285	-5.4	0.04
290	-3.38	0.04
295	-1.32	0.04
298.15	0	0.06
300	0.78	0.05
303	2.06	0.05

System: 1,4-diphenyl-2,3-dithiabutane; phases: Liquid
Fixed: Pressure, kPa = 101.325
Property: Molar enthalpy, kJ/mol (Liquid); method: Vacuum adiabatic calorimetry
Temperature, K	Molar enthalpy, kJ/mol	uncertainty
355	44.7	0.2
360	47.47	0.208
365	50.25	0.216
370	53.07	0.233
375	55.91	0.241

System: 1,4-diphenyl-2,3-dithiabutane; phases: Liquid
Fixed: Pressure, kPa = 101.325
Property: Molar entropy, J/K/mol (Liquid); method: Vacuum adiabatic calorimetry
Temperature, K	Molar entropy, J/K/mol	uncertainty
355	137.7	0.915
360	145.3	0.915
365	153.1	0.998
370	160.7	0.998
375	168.4	1.081

System: 1,4-diphenyl-2,3-dithiabutane; phases: Crystal
Fixed: Pressure, kPa = 101.325
Property: Molar entropy, J/K/mol (Crystal); method: Vacuum adiabatic calorimetry
Temperature, K	Molar entropy, J/K/mol	uncertainty
80	-303.3	1.912
85	-296.7	1.912
90	-290.1	1.746
95	-283.6	1.746
100	-277.2	1.663
105	-270.6	1.663
110	-264.1	1.58
115	-257.4	1.58
120	-250.7	1.497
125	-243.8	1.497
130	-236.9	1.413
135	-229.9	1.413
140	-222.7	1.33
145	-215.7	1.33
150	-208.4	1.247
155	-201.3	1.247
160	-194.1	1.164
165	-186.9	1.164
170	-179.8	1.081
175	-172.5	0.998
180	-165.5	0.998
185	-158.3	0.915
190	-151.2	0.915
195	-144.2	0.831
200	-137.2	0.831
205	-130.2	0.75
210	-123.2	0.75
215	-116.2	0.67
220	-109.3	0.67
225	-102.4	0.67
230	-95.45	0.58
235	-88.47	0.58
240	-81.6	0.5
245	-74.6	0.5
250	-67.6	0.42
255	-60.6	0.42
260	-53.6	0.33
265	-46.6	0.33
270	-39.6	0.33
275	-32.6	0.25
280	-25.5	0.25
285	-18.5	0.25
290	-11.5	0.25
295	-4.4	0.25
298.15	0	8.31
300	2.6	0.25
303	6.9	0.25
