Measured thermophysical data. Enthalpies of reaction of lanthanide trifluoroacetate trihydrate with 2-azacyclononanone to form lanthanide trifluoroacetate-tris 2-azacyclononanone
Source: Thermochim. Acta, 2007, 10.1016/j.tca.2006.12.017
Compound 1: 2-azacyclononanone, C8H15NO, InChI=1S/C8H15NO/c10-8-6-4-2-1-3-5-7-9-8/h1-7H2,(H,9,10)
Compound 2: praseodymium trifluoroacetate trihydrate, C6H6F9O9Pr, InChI=1S/3C2HF3O2.3H2O.Pr/c3*3-2(4,5)1(6)7;;;;/h3*(H,6,7);3*1H2;/q;;;;;;+3/p-3
Compound 3: water, H2O, InChI=1S/H2O/h1H2
Compound 4: neodymium trifluoroacetate trihydrate, C6H6F9NdO9, InChI=1S/3C2HF3O2.Nd.3H2O/c3*3-2(4,5)1(6)7;;;;/h3*(H,6,7);;3*1H2/q;;;+3;;;/p-3
Compound 5: samarium trifluoroacetate trihydrate, C6H6F9O9Sm, InChI=1S/3C2HF3O2.3H2O.Sm/c3*3-2(4,5)1(6)7;;;;/h3*(H,6,7);3*1H2;/q;;;;;;+3/p-3
Compound 6: europium trifluoroacetate trihydrate, C6H6EuF9O9, InChI=1S/3C2HF3O2.Eu.3H2O/c3*3-2(4,5)1(6)7;;;;/h3*(H,6,7);;3*1H2/q;;;+3;;;/p-3
Compound 7: terbium trifluoroacetate trihydrate, C6H6F9O9Tb, InChI=1S/3C2HF3O2.3H2O.Tb/c3*3-2(4,5)1(6)7;;;;/h3*(H,6,7);3*1H2;/q;;;;;;+3/p-3
Compound 8: praseodymium tris-2-azacyclononanone trifluoroacetate, C30H45F9N3O9Pr, InChI=1S/3C8H15NO.3C2HF3O2.Pr/c3*10-8-6-4-2-1-3-5-7-9-8;3*3-2(4,5)1(6)7;/h3*1-7H2,(H,9,10);3*(H,6,7);/q;;;;;;+3/p-3
Compound 9: neodymium tris-2-azacyclononanone trifluoroacetate, C30H45F9N3NdO9, InChI=1S/3C8H15NO.3C2HF3O2.Nd/c3*10-8-6-4-2-1-3-5-7-9-8;3*3-2(4,5)1(6)7;/h3*1-7H2,(H,9,10);3*(H,6,7);/q;;;;;;+3/p-3
Compound 10: samarium tris-2-azacyclononanone trifluoroacetate, C30H45F9N3O9Sm, InChI=1S/3C8H15NO.3C2HF3O2.Sm/c3*10-8-6-4-2-1-3-5-7-9-8;3*3-2(4,5)1(6)7;/h3*1-7H2,(H,9,10);3*(H,6,7);/q;;;;;;+3/p-3
Compound 11: europium tris-2-azacyclononanone trifluoroacetate, C30H45EuF9N3O9, InChI=1S/3C8H15NO.3C2HF3O2.Eu/c3*10-8-6-4-2-1-3-5-7-9-8;3*3-2(4,5)1(6)7;/h3*1-7H2,(H,9,10);3*(H,6,7);/q;;;;;;+3/p-3
Compound 12: terbium tris-2-azacyclononanone trifluoroacetate, C30H45F9N3O9Tb, InChI=1S/3C8H15NO.3C2HF3O2.Tb/c3*10-8-6-4-2-1-3-5-7-9-8;3*3-2(4,5)1(6)7;/h3*1-7H2,(H,9,10);3*(H,6,7);/q;;;;;;+3/p-3

Reaction: -3 2-azacyclononanone + -1 praseodymium trifluoroacetate trihydrate + 1 praseodymium tris-2-azacyclononanone trifluoroacetate + 3 water
Property: Molar enthalpy of reaction, kJ/mol
-33.9

Reaction: -3 2-azacyclononanone + -1 neodymium trifluoroacetate trihydrate + 1 neodymium tris-2-azacyclononanone trifluoroacetate + 3 water
Property: Molar enthalpy of reaction, kJ/mol
-2.1

Reaction: -3 2-azacyclononanone + -1 samarium trifluoroacetate trihydrate + 1 samarium tris-2-azacyclononanone trifluoroacetate + 3 water
Property: Molar enthalpy of reaction, kJ/mol
-9.4

Reaction: -3 2-azacyclononanone + -1 europium trifluoroacetate trihydrate + 1 europium tris-2-azacyclononanone trifluoroacetate + 3 water
Property: Molar enthalpy of reaction, kJ/mol
0.05

Reaction: -3 2-azacyclononanone + -1 terbium trifluoroacetate trihydrate + 1 terbium tris-2-azacyclononanone trifluoroacetate + 3 water
Property: Molar enthalpy of reaction, kJ/mol
2.46
