Measured thermophysical data. Interactions in (glycylglycine + 1M aqueous glucose / 1M aqueous sucrose) systems at (298.15 to 323.15) K
Source: Thermochim. Acta, 2012, 10.1016/j.tca.2011.03.024
Compound 1: D-glucose, C6H12O6, InChI=1S/C6H12O6/c7-1-3(9)5(11)6(12)4(10)2-8/h1,3-6,8-12H,2H2/t3-,4+,5+,6+/m0/s1, purity 99%
Compound 2: water, H2O, InChI=1S/H2O/h1H2, purity 99.9%
Compound 3: D-sucrose, C12H22O11, InChI=1S/C12H22O11/c13-1-4-6(16)8(18)9(19)11(21-4)23-12(3-15)10(20)7(17)5(2-14)22-12/h4-11,13-20H,1-3H2/t4-,5-,6-,7-,8+,9-,10+,11-,12+/m1/s1, purity 99%
Compound 4: glycylglycine, C4H8N2O3, InChI=1S/C4H8N2O3/c5-1-3(7)6-2-4(8)9/h1-2,5H2,(H,6,7)(H,8,9), purity 99%

System: D-glucose + water; phases: Liquid
Fixed: Pressure, kPa = 101.3
Fixed: Amount concentration (molarity), mol/dm3 of D-glucose = 1
Property: Speed of sound, m/s (Liquid); method: Pulse-echo method
Temperature, K	Speed of sound, m/s	uncertainty
298.15	1564.8	1.03
303.15	1574.3	1.04
308.15	1582.38	1.04
313.15	1589.06	1.04
318.15	1594.42	1.04
323.15	1598.53	1.04

System: D-glucose + water; phases: Liquid
Fixed: Pressure, kPa = 101.3
Fixed: Amount concentration (molarity), mol/dm3 of D-glucose = 1
Property: Mass density, kg/m3 (Liquid); method: Vibrating tube method
Temperature, K	Mass density, kg/m3	uncertainty
298.15	1065.068	0.166
303.15	1063.297	0.165
308.15	1061.359	0.164
313.15	1059.245	0.163
318.15	1056.983	0.161
323.15	1054.253	0.16

System: D-sucrose + water; phases: Liquid
Fixed: Pressure, kPa = 101.3
Fixed: Amount concentration (molarity), mol/dm3 of D-sucrose = 1
Property: Speed of sound, m/s (Liquid); method: Pulse-echo method
Temperature, K	Speed of sound, m/s	uncertainty
298.15	1607.89	1.05
303.15	1615.56	1.05
308.15	1621.92	1.05
313.15	1627	1.05
318.15	1630.84	1.05
323.15	1633.3	1.05

System: D-sucrose + water; phases: Liquid
Fixed: Pressure, kPa = 101.3
Fixed: Amount concentration (molarity), mol/dm3 of D-sucrose = 1
Property: Mass density, kg/m3 (Liquid); method: Vibrating tube method
Temperature, K	Mass density, kg/m3	uncertainty
298.15	1127.374	0.203
303.15	1125.373	0.202
308.15	1123.197	0.201
313.15	1120.735	0.2
318.15	1118.184	0.198
323.15	1115.445	0.196

System: D-glucose + glycylglycine + water; phases: Liquid
Fixed: Pressure, kPa = 101.3
Fixed: Solvent: Amount concentration (molarity), mol/dm3 of D-glucose = 1
Property: Speed of sound, m/s (Liquid); method: Pulse-echo method
Temperature, K	Molality, mol/kg of glycylglycine	Speed of sound, m/s	uncertainty
298.15	0	1564.8	1.03
298.15	0.1911	1578.78	1.04
298.15	0.3889	1593.25	1.04
298.15	0.5941	1607.13	1.05
298.15	0.8068	1621.06	1.05
298.15	1.0281	1634	1.05
298.15	1.2576	1646.5	1.06
298.15	1.4989	1658.99	1.06
303.15	0	1574.3	1.04
303.15	0.1911	1587.92	1.04
303.15	0.3889	1601.88	1.05
303.15	0.5941	1615.41	1.05
303.15	0.8068	1628.95	1.05
303.15	1.0281	1641.49	1.06
303.15	1.2576	1653.52	1.06
303.15	1.4989	1665.72	1.06
308.15	0	1582.38	1.04
308.15	0.1911	1595.97	1.04
308.15	0.3889	1609.25	1.05
308.15	0.5941	1622.41	1.05
308.15	0.8068	1635.46	1.05
308.15	1.0281	1647.78	1.06
308.15	1.2576	1659.46	1.06
308.15	1.4989	1671.28	1.06
313.15	0	1589.06	1.04
313.15	0.1911	1602.08	1.04
313.15	0.3889	1615.3	1.05
313.15	0.5941	1628.01	1.05
313.15	0.8068	1640.81	1.06
313.15	1.0281	1652.84	1.06
313.15	1.2576	1664.16	1.06
313.15	1.4989	1675.69	1.07
318.15	0	1594.42	1.04
318.15	0.1911	1607.07	1.05
318.15	0.3889	1620.07	1.05
318.15	0.5941	1632.48	1.05
318.15	0.8068	1644.95	1.06
318.15	1.0281	1656.74	1.06
318.15	1.2576	1667.74	1.06
318.15	1.4989	1679	1.07
323.15	0	1598.53	1.04
323.15	0.1911	1610.95	1.05
323.15	0.3889	1623.66	1.05
323.15	0.5941	1635.71	1.05
323.15	0.8068	1647.96	1.06
323.15	1.0281	1659.53	1.06
323.15	1.2576	1670.26	1.06
323.15	1.4989	1681.26	1.07

System: D-glucose + glycylglycine + water; phases: Liquid
Fixed: Pressure, kPa = 101.3
Fixed: Solvent: Amount concentration (molarity), mol/dm3 of D-glucose = 1
Property: Mass density, kg/m3 (Liquid); method: Vibrating tube method
Temperature, K	Molality, mol/kg of glycylglycine	Mass density, kg/m3	uncertainty
298.15	0	1065.068	0.166
298.15	0.1911	1072.961	0.171
298.15	0.3889	1081.402	0.176
298.15	0.5941	1089.27	0.18
298.15	0.8068	1097.248	0.185
298.15	1.0281	1104.764	0.19
298.15	1.2576	1112.18	0.194
298.15	1.4989	1118.992	0.198
303.15	0	1063.297	0.165
303.15	0.1911	1071.084	0.17
303.15	0.3889	1079.469	0.175
303.15	0.5941	1087.212	0.179
303.15	0.8068	1095.305	0.184
303.15	1.0281	1102.781	0.189
303.15	1.2576	1109.907	0.193
303.15	1.4989	1116.941	0.197
308.15	0	1061.359	0.164
308.15	0.1911	1069.033	0.168
308.15	0.3889	1077.373	0.173
308.15	0.5941	1085.218	0.178
308.15	0.8068	1093.21	0.183
308.15	1.0281	1100.65	0.187
308.15	1.2576	1107.687	0.192
308.15	1.4989	1114.751	0.196
313.15	0	1059.245	0.163
313.15	0.1911	1066.745	0.167
313.15	0.3889	1074.932	0.172
313.15	0.5941	1083.146	0.177
313.15	0.8068	1090.974	0.181
313.15	1.0281	1098.394	0.186
313.15	1.2576	1105.29	0.19
313.15	1.4989	1112.459	0.194
318.15	0	1056.983	0.161
318.15	0.1911	1064.212	0.166
318.15	0.3889	1071.984	0.17
318.15	0.5941	1080.648	0.175
318.15	0.8068	1088.602	0.18
318.15	1.0281	1096.006	0.185
318.15	1.2576	1102.711	0.189
318.15	1.4989	1110.035	0.193
323.15	0	1054.253	0.16
323.15	0.1911	1061.48	0.164
323.15	0.3889	1069.71	0.169
323.15	0.5941	1078.087	0.174
323.15	0.8068	1086.006	0.179
323.15	1.0281	1093.477	0.183
323.15	1.2576	1099.932	0.187
323.15	1.4989	1107.514	0.191

System: D-sucrose + glycylglycine + water; phases: Liquid
Fixed: Pressure, kPa = 101.3
Fixed: Solvent: Amount concentration (molarity), mol/dm3 of D-sucrose = 1
Property: Speed of sound, m/s (Liquid); method: Pulse-echo method
Temperature, K	Molality, mol/kg of glycylglycine	Speed of sound, m/s	uncertainty
298.15	0	1607.89	1.05
298.15	0.1804	1623.89	1.05
298.15	0.3671	1639.25	1.06
298.15	0.5607	1653.99	1.06
298.15	0.7616	1668.27	1.06
298.15	0.9707	1682.45	1.07
298.15	1.1872	1695.53	1.07
303.15	0	1615.56	1.05
303.15	0.1804	1631.1	1.1
303.15	0.3671	1646.09	1.06
303.15	0.5607	1660.37	1.06
303.15	0.7616	1674.28	1.07
303.15	0.9707	1688.04	1.07
303.15	1.1872	1700.7	1.1
308.15	0	1621.92	1.05
308.15	0.1804	1637.06	1.06
308.15	0.3671	1651.64	1.06
308.15	0.5607	1665.56	1.06
308.15	0.7616	1679.13	1.07
308.15	0.9707	1692.51	1.07
308.15	1.1872	1704.84	1.07
313.15	0	1627	1.05
313.15	0.1804	1641.75	1.06
313.15	0.3671	1656	1
313.15	0.5607	1669.58	1.06
313.15	0.7616	1682.84	1.07
313.15	0.9707	1695.89	1.07
313.15	1.1872	1707.92	1.08
318.15	0	1630.84	1.05
318.15	0.1804	1645.27	1.06
318.15	0.3671	1659.21	1.06
318.15	0.5607	1672.48	1.07
318.15	0.7616	1685.47	1.07
318.15	0.9707	1698.22	1.07
318.15	1.1872	1709.97	1.08
323.15	0	1633.3	1.05
323.15	0.1804	1647.67	1.06
323.15	0.3671	1661.34	1.06
323.15	0.5607	1674.33	1.07
323.15	0.7616	1687.05	1.07
323.15	0.9707	1699.56	1.07
323.15	1.1872	1711.04	1.08

System: D-sucrose + glycylglycine + water; phases: Liquid
Fixed: Pressure, kPa = 101.3
Fixed: Solvent: Amount concentration (molarity), mol/dm3 of D-sucrose = 1
Property: Mass density, kg/m3 (Liquid); method: Vibrating tube method
Temperature, K	Molality, mol/kg of glycylglycine	Mass density, kg/m3	uncertainty
298.15	0	1127.374	0.203
298.15	0.1804	1134.989	0.208
298.15	0.3671	1142.388	0.213
298.15	0.5607	1149.413	0.217
298.15	0.7616	1156.176	0.221
298.15	0.9707	1162.961	0.225
298.15	1.1872	1169.332	0.229
303.15	0	1125.373	0.202
303.15	0.1804	1132.958	0.207
303.15	0.3671	1140.307	0.211
303.15	0.5607	1147.309	0.216
303.15	0.7616	1154.033	0.22
303.15	0.9707	1160.793	0.224
303.15	1.1872	1167.138	0.228
308.15	0	1123.197	0.201
308.15	0.1804	1130.777	0.206
308.15	0.3671	1138.104	0.21
308.15	0.5607	1145.072	0.214
308.15	0.7616	1151.772	0.218
308.15	0.9707	1158.509	0.222
308.15	1.1872	1164.829	0.226
313.15	0	1120.735	0.2
313.15	0.1804	1128.469	0.204
313.15	0.3671	1135.769	0.209
313.15	0.5607	1142.712	0.213
313.15	0.7616	1149.394	0.217
313.15	0.9707	1156.104	0.221
313.15	1.1872	1162.415	0.225
318.15	0	1118.184	0.198
318.15	0.1804	1126.033	0.203
318.15	0.3671	1133.313	0.207
318.15	0.5607	1140.232	0.211
318.15	0.7616	1146.907	0.215
318.15	0.9707	1153.579	0.219
318.15	1.1872	1159.89	0.22
323.15	0	1115.445	0.196
323.15	0.1804	1123.469	0.201
323.15	0.3671	1130.718	0.206
323.15	0.5607	1137.617	0.21
323.15	0.7616	1144.315	0.214
323.15	0.9707	1150.884	0.218
323.15	1.1872	1157.282	0.222
