Measured thermophysical data. Vapour pressure and enthalpy of vaporization of cyclic imines
Source: Thermochim. Acta, 2019, 10.1016/j.tca.2018.07.016
Compound 1: azacycloheptane, C6H13N, InChI=1S/C6H13N/c1-2-4-6-7-5-3-1/h7H,1-6H2
Compound 2: heptamethyleneimine, C7H15N, InChI=1S/C7H15N/c1-2-4-6-8-7-5-3-1/h8H,1-7H2
Compound 3: octamethylenimine, C8H17N, InChI=1S/C8H17N/c1-2-4-6-8-9-7-5-3-1/h9H,1-8H2

System: azacycloheptane; phases: Liquid, Gas
Property: Vapor or sublimation pressure, kPa (Liquid); method: Transpiration method
Temperature, K	Vapor or sublimation pressure, kPa	uncertainty
275.3	0.2584	0.0165
278.3	0.3225	0.0204
281	0.3957	0.0249
284.2	0.4858	0.0306
287.3	0.604	0.038
290.2	0.7427	0.0466
293.2	0.8989	0.056
296.2	1.051	0.065
302.2	1.525	0.095
305.2	1.824	0.115
308.1	2.177	0.136
311.2	2.409	0.15
314.2	3.025	0.189
317.2	3.485	0.215
321.2	4.037	0.249

System: heptamethyleneimine; phases: Liquid, Gas
Property: Vapor or sublimation pressure, kPa (Liquid); method: Transpiration method
Temperature, K	Vapor or sublimation pressure, kPa	uncertainty
276.1	0.08722	0.00561
279.6	0.1144	0.0073
281.3	0.1316	0.0083
285.2	0.1719	0.0108
288.3	0.22	0.0138
292.1	0.277	0.0174
292.3	0.2658	0.0167
295.2	0.3338	0.0211
299	0.4239	0.0265
299.2	0.4202	0.0263
302.1	0.5212	0.033
306.1	0.6926	0.0433
309	0.8283	0.0516
309	0.7923	0.0494
313	1.016	0.063
317	1.311	0.082
319.8	1.44	0.089
322	1.585	0.1
324.9	1.97	0.123

System: octamethylenimine; phases: Liquid, Gas
Property: Vapor or sublimation pressure, kPa (Liquid); method: Transpiration method
Temperature, K	Vapor or sublimation pressure, kPa	uncertainty
274.6	0.01266	0.00086
278.3	0.01754	0.00115
283.3	0.02575	0.00167
288.3	0.03757	0.00241
293.2	0.05489	0.00349
298.1	0.07468	0.00475
304.1	0.1162	0.0073
309.1	0.1671	0.0105
313.3	0.2073	0.013
318.1	0.2813	0.0177
323.4	0.3868	0.0241
