Measured thermophysical data. Infrared thermography method for fast estimation of phase diagrams
Source: Thermochim. Acta, 2016, 10.1016/j.tca.2015.12.010
Compound 1: meso-1,2,3,4-butanetetrol, C4H10O4, InChI=1S/C4H10O4/c5-1-3(7)4(8)2-6/h3-8H,1-2H2/t3-,4+, purity 99%
Compound 2: D-mannitol, C6H14O6, InChI=1S/C6H14O6/c7-1-3(9)5(11)6(12)4(10)2-8/h3-12H,1-2H2/t3-,4-,5-,6-/m1/s1, purity 98%
Compound 3: dulcitol, C6H14O6, InChI=1S/C6H14O6/c7-1-3(9)5(11)6(12)4(10)2-8/h3-12H,1-2H2/t3-,4+,5+,6-, purity 99%
Compound 4: xylitol, C5H12O5, InChI=1S/C5H12O5/c6-1-3(8)5(10)4(9)2-7/h3-10H,1-2H2/t3-,4+,5+, purity 99%
Compound 5: SRS-1,2,3,4,5-pentanepentol, C5H12O5, InChI=1S/C5H12O5/c6-1-3(8)5(10)4(9)2-7/h3-10H,1-2H2/t3-,4+,5-, purity 99%

System: meso-1,2,3,4-butanetetrol; phases: Crystal, Liquid, Air at 1 atmosphere
Property: Normal melting temperature, K (Crystal); method: DTA:corrimp
Normal melting temperature, K	uncertainty
392.05	1.1

System: meso-1,2,3,4-butanetetrol; phases: Crystal, Liquid, Air at 1 atmosphere
Property: Molar enthalpy of transition or fusion, kJ/mol (Crystal); method: DSC
Molar enthalpy of transition or fusion, kJ/mol	uncertainty
41.520732	1.0990782

System: meso-1,2,3,4-butanetetrol; phases: Crystal, Liquid, Air at 1 atmosphere
Property: Normal melting temperature, K (Crystal); method: Infrared thermography
Normal melting temperature, K	uncertainty
394.35	10

System: D-mannitol; phases: Crystal, Liquid, Air at 1 atmosphere
Property: Normal melting temperature, K (Crystal); method: DTA:corrimp
Normal melting temperature, K	uncertainty
440.25	2.1

System: D-mannitol; phases: Crystal, Liquid, Air at 1 atmosphere
Property: Molar enthalpy of transition or fusion, kJ/mol (Crystal); method: DSC
Molar enthalpy of transition or fusion, kJ/mol	uncertainty
57.56627616	1.45737408

System: D-mannitol; phases: Crystal, Liquid, Air at 1 atmosphere
Property: Normal melting temperature, K (Crystal); method: Infrared thermography
Normal melting temperature, K	uncertainty
439.15	10

System: dulcitol; phases: Crystal, Liquid, Air at 1 atmosphere
Property: Normal melting temperature, K (Crystal); method: DTA
Normal melting temperature, K	uncertainty
460.45	0.5

System: dulcitol; phases: Crystal, Liquid, Air at 1 atmosphere
Property: Molar enthalpy of transition or fusion, kJ/mol (Crystal); method: DSC
Molar enthalpy of transition or fusion, kJ/mol	uncertainty
64.85314656	1.63954584

System: dulcitol; phases: Crystal, Liquid, Air at 1 atmosphere
Property: Normal melting temperature, K (Crystal); method: Infrared thermography
Normal melting temperature, K	uncertainty
462.65	10

System: xylitol; phases: Crystal, Liquid, Air at 1 atmosphere
Property: Normal melting temperature, K (Crystal); method: DTA:corrimp
Normal melting temperature, K	uncertainty
368.25	1.1

System: xylitol; phases: Crystal, Liquid, Air at 1 atmosphere
Property: Molar enthalpy of transition or fusion, kJ/mol (Crystal); method: DSC
Molar enthalpy of transition or fusion, kJ/mol	uncertainty
38.18859078	1.06502046

System: xylitol; phases: Crystal, Liquid, Air at 1 atmosphere
Property: Normal melting temperature, K (Crystal); method: Infrared thermography
Normal melting temperature, K	uncertainty
372.15	10

System: SRS-1,2,3,4,5-pentanepentol; phases: Crystal, Liquid, Air at 1 atmosphere
Property: Normal melting temperature, K (Crystal); method: DTA:corrimp
Normal melting temperature, K	uncertainty
373.15	1.1

System: SRS-1,2,3,4,5-pentanepentol; phases: Crystal, Liquid, Air at 1 atmosphere
Property: Molar enthalpy of transition or fusion, kJ/mol (Crystal); method: DSC
Molar enthalpy of transition or fusion, kJ/mol	uncertainty
35.29782096	0.91287468

System: SRS-1,2,3,4,5-pentanepentol; phases: Crystal, Liquid, Air at 1 atmosphere
Property: Normal melting temperature, K (Crystal); method: Infrared thermography
Normal melting temperature, K	uncertainty
374.75	10

System: meso-1,2,3,4-butanetetrol + dulcitol; phases: Crystal, Crystal, Liquid, Air at 1 atmosphere
Property: Eutectic temperature, K (Crystal); method: DTA:UFactor:4
Eutectic temperature, K	uncertainty
387.85	2.9

System: meso-1,2,3,4-butanetetrol + dulcitol; phases: Crystal, Crystal, Liquid, Air at 1 atmosphere
Property: Eutectic temperature, K (Crystal); method: OTHER:UFactor:4:sMethod:Infrared thermography
Eutectic temperature, K	uncertainty
387.15	10.1

System: meso-1,2,3,4-butanetetrol + dulcitol; phases: Liquid, Crystal
Fixed: Pressure, kPa = 100
Property: Solid-liquid equilibrium temperature, K (Liquid); method: DTA:corrimp:UFactor:4
Mole fraction of dulcitol	Solid-liquid equilibrium temperature, K	uncertainty
0.198	427.35	2
0.399	440.15	2
0.597	446.35	2
0.799	454.05	2
1	462.45	2

System: meso-1,2,3,4-butanetetrol + dulcitol; phases: Liquid, Crystal
Fixed: Pressure, kPa = 100
Property: Solid-liquid equilibrium temperature, K (Liquid); method: Infrared thermography
Mole fraction of dulcitol	Solid-liquid equilibrium temperature, K	uncertainty
0.099	408.15	10
0.139	413.35	10
0.14	411.75	10
0.178	415.75	10
0.18	415.25	10
0.218	417.65	10
0.258	423.25	10
0.298	427.85	10
0.298	437.05	10
0.34	438.05	10
0.379	428.15	10
0.42	443.25	10
0.459	438.35	10
0.46	436.05	10
0.497	436.75	10
0.499	432.45	10
0.539	435.25	10
0.578	440.65	10
0.579	448.85	10
0.617	441.35	10
0.618	444.95	10
0.657	448.55	10
0.659	451.15	10
0.701	452.15	10
0.701	453.15	10
0.738	449.35	10
0.74	450.85	10
0.78	452.65	10
0.782	451.65	10
0.819	456.75	10
0.858	459.05	10
0.898	458.25	10
0.899	461.55	10
0.939	459.25	10
0.94	461.15	10
0.977	460.15	10
0.979	461.85	10
1	461.35	10
1	461.95	10

System: meso-1,2,3,4-butanetetrol + dulcitol; phases: Liquid, Crystal
Fixed: Pressure, kPa = 100
Property: Solid-liquid equilibrium temperature, K (Liquid); method: Infrared thermography
Mole fraction of dulcitol	Solid-liquid equilibrium temperature, K	uncertainty
0	391.45	10
0	394.85	10
0	396.75	10
0.02	393.15	10
0.04	391.05	10
0.041	392.55	10

System: D-mannitol + dulcitol; phases: Crystal, Crystal, Liquid, Air at 1 atmosphere
Property: Eutectic temperature, K (Crystal); method: DTA:UFactor:4
Eutectic temperature, K	uncertainty
426.85	1.6

System: D-mannitol + dulcitol; phases: Crystal, Crystal, Liquid, Air at 1 atmosphere
Property: Eutectic temperature, K (Crystal); method: OTHER:UFactor:4:sMethod:Infrared thermography
Eutectic temperature, K	uncertainty
427.25	10.1

System: D-mannitol + dulcitol; phases: Liquid, Crystal
Fixed: Pressure, kPa = 100
Property: Solid-liquid equilibrium temperature, K (Liquid); method: DTA:corrimp:UFactor:4
Mole fraction of dulcitol	Solid-liquid equilibrium temperature, K	uncertainty
0.4	435.15	2
0.5	441.55	2
0.599	447.85	2
0.6	449.25	2
0.701	451.55	2
0.8	455.85	2
0.899	459.45	2
1	462.25	2

System: D-mannitol + dulcitol; phases: Liquid, Crystal
Fixed: Pressure, kPa = 100
Property: Solid-liquid equilibrium temperature, K (Liquid); method: Infrared thermography
Mole fraction of dulcitol	Solid-liquid equilibrium temperature, K	uncertainty
0.299	431.35	10
0.319	429.55	10
0.341	432.05	10
0.361	431.35	10
0.38	432.95	10
0.4	433.75	10
0.42	438.65	10
0.44	439.75	10
0.46	435.85	10
0.48	437.15	10
0.54	445.65	10
0.56	445.15	10
0.58	451.15	10
0.599	447.05	10
0.639	448.35	10
0.659	446.85	10
0.681	451.15	10

System: D-mannitol + dulcitol; phases: Liquid, Crystal
Fixed: Pressure, kPa = 100
Property: Solid-liquid equilibrium temperature, K (Liquid); method: Infrared thermography
Mole fraction of dulcitol	Solid-liquid equilibrium temperature, K	uncertainty
0	440.55	10
0.022	438.35	10
0.041	437.15	10
0.061	438.75	10
0.08	437.75	10
0.101	436.55	10
0.12	435.25	10
0.14	432.05	10
0.16	436.05	10
0.18	435.25	10
0.2	431.65	10
0.239	429.75	10
0.259	431.05	10

System: D-mannitol + dulcitol; phases: Liquid, Crystal
Fixed: Pressure, kPa = 100
Property: Solid-liquid equilibrium temperature, K (Liquid); method: DTA:corrimp:UFactor:4
Mole fraction of dulcitol	Solid-liquid equilibrium temperature, K	uncertainty
0	440.15	2
0.021	437.35	2
0.041	438.45	2
0.061	437.45	2
0.08	436.85	2
0.1	436.25	2
0.101	435.65	2
0.2	432.25	2

System: xylitol + dulcitol; phases: Crystal, Crystal, Liquid, Air at 1 atmosphere
Property: Eutectic temperature, K (Crystal); method: DTA:UFactor:4
Eutectic temperature, K	uncertainty
365.25	1.6

System: xylitol + dulcitol; phases: Crystal, Crystal, Liquid, Air at 1 atmosphere
Property: Eutectic temperature, K (Crystal); method: OTHER:UFactor:4:sMethod:Infrared thermography
Eutectic temperature, K	uncertainty
364.55	10.1

System: xylitol + dulcitol; phases: Liquid, Crystal
Fixed: Pressure, kPa = 100
Property: Solid-liquid equilibrium temperature, K (Liquid); method: DTA:corrimp:UFactor:4
Mole fraction of dulcitol	Solid-liquid equilibrium temperature, K	uncertainty
0.199	422.15	2
0.4	433.25	2
0.599	451.05	2
0.8	454.75	2
1	462.45	2

System: xylitol + dulcitol; phases: Liquid, Crystal
Fixed: Pressure, kPa = 100
Property: Solid-liquid equilibrium temperature, K (Liquid); method: Infrared thermography
Mole fraction of dulcitol	Solid-liquid equilibrium temperature, K	uncertainty
0.019	376.95	10
0.04	380.45	10
0.079	390.55	10
0.099	414.15	10
0.119	391.95	10
0.159	403.65	10
0.179	418.85	10
0.199	422.75	10
0.219	422.15	10
0.239	423.95	10
0.259	426.75	10
0.279	431.95	10
0.298	434.75	10
0.319	435.35	10
0.34	434.45	10
0.36	433.55	10
0.38	434.45	10
0.4	440.55	10
0.42	436.25	10
0.439	442.15	10
0.46	441.55	10
0.479	443.95	10
0.499	445.25	10
0.519	444.95	10
0.539	445.45	10
0.559	447.45	10
0.579	446.75	10
0.599	451.25	10
0.619	452.55	10
0.639	452.55	10
0.659	451.65	10
0.681	453.15	10
0.701	453.55	10
0.72	455.65	10
0.74	455.45	10
0.76	454.65	10
0.78	459.25	10
0.8	461.85	10
0.82	457.45	10
0.84	460.25	10
0.86	461.15	10
0.879	462.75	10
0.899	460.85	10
0.919	463.35	10
0.939	462.05	10
0.959	461.75	10
0.979	463.95	10
1	463.65	10

System: SRS-1,2,3,4,5-pentanepentol + dulcitol; phases: Crystal, Crystal, Liquid, Air at 1 atmosphere
Property: Eutectic temperature, K (Crystal); method: DTA:UFactor:4
Eutectic temperature, K	uncertainty
370.45	1.7

System: SRS-1,2,3,4,5-pentanepentol + dulcitol; phases: Crystal, Crystal, Liquid, Air at 1 atmosphere
Property: Eutectic temperature, K (Crystal); method: OTHER:UFactor:4:sMethod:Infrared thermography
Eutectic temperature, K	uncertainty
370.45	10.1

System: SRS-1,2,3,4,5-pentanepentol + dulcitol; phases: Liquid, Crystal
Fixed: Pressure, kPa = 100
Property: Solid-liquid equilibrium temperature, K (Liquid); method: DTA:corrimp:UFactor:4
Mole fraction of dulcitol	Solid-liquid equilibrium temperature, K	uncertainty
0.199	419.05	2
0.4	436.15	2
0.599	451.85	2
0.799	455.45	2
1	462.25	2

System: SRS-1,2,3,4,5-pentanepentol + dulcitol; phases: Liquid, Crystal
Fixed: Pressure, kPa = 100
Property: Solid-liquid equilibrium temperature, K (Liquid); method: Infrared thermography
Mole fraction of dulcitol	Solid-liquid equilibrium temperature, K	uncertainty
0.02	381.65	10
0.03	375.75	10
0.05	392.65	10
0.07	401.55	10
0.1	406.35	10
0.12	402.25	10
0.14	404.25	10
0.16	419.95	10
0.179	420.55	10
0.189	415.05	10
0.209	413.15	10
0.229	413.15	10
0.239	422.15	10
0.299	430.35	10
0.318	428.85	10
0.34	430.95	10
0.36	432.25	10
0.38	434.05	10
0.38	444.75	10
0.4	428.25	10
0.42	431.25	10
0.44	434.95	10
0.459	432.45	10
0.479	438.05	10
0.489	442.65	10
0.519	435.35	10
0.529	433.45	10
0.549	443.55	10
0.579	444.45	10
0.618	447.55	10
0.638	443.85	10
0.658	449.65	10
0.68	449.65	10
0.7	449.05	10
0.72	457.95	10
0.74	453.05	10
0.769	452.75	10
0.789	450.85	10
0.809	452.75	10
0.829	456.75	10
0.849	458.55	10
0.869	457.55	10
0.889	458.35	10
0.918	457.65	10
0.948	461.95	10
0.968	463.15	10
1	463.45	10

System: D-mannitol + SRS-1,2,3,4,5-pentanepentol; phases: Crystal, Crystal, Liquid, Air at 1 atmosphere
Property: Eutectic temperature, K (Crystal); method: DTA:UFactor:4
Eutectic temperature, K	uncertainty
368.35	1.7

System: D-mannitol + SRS-1,2,3,4,5-pentanepentol; phases: Crystal, Crystal, Liquid, Air at 1 atmosphere
Property: Eutectic temperature, K (Crystal); method: OTHER:UFactor:4:sMethod:Infrared thermography
Eutectic temperature, K	uncertainty
369.45	10.1

System: D-mannitol + SRS-1,2,3,4,5-pentanepentol; phases: Liquid, Crystal
Fixed: Pressure, kPa = 100
Property: Solid-liquid equilibrium temperature, K (Liquid); method: DTA:corrimp:UFactor:4
Mole fraction of D-mannitol	Solid-liquid equilibrium temperature, K	uncertainty
0.199	386.25	2
0.4	412.15	2
0.599	421.75	2
0.8	432.35	2
1	440.05	2

System: D-mannitol + SRS-1,2,3,4,5-pentanepentol; phases: Liquid, Crystal
Fixed: Pressure, kPa = 100
Property: Solid-liquid equilibrium temperature, K (Liquid); method: Infrared thermography
Mole fraction of D-mannitol	Solid-liquid equilibrium temperature, K	uncertainty
0.06	377.25	10
0.07	378.35	10
0.09	381.35	10
0.11	379.55	10
0.13	380.05	10
0.14	384.15	10
0.16	398.55	10
0.18	398.15	10
0.199	403.15	10
0.209	404.65	10
0.229	395.85	10
0.249	408.25	10
0.269	400.15	10
0.269	403.35	10
0.308	407.85	10
0.319	406.45	10
0.34	403.15	10
0.36	404.55	10
0.38	407.05	10
0.4	412.75	10
0.42	408.45	10
0.44	418.05	10
0.45	421.35	10
0.48	420.15	10
0.499	419.95	10
0.52	426.05	10
0.54	420.65	10
0.559	420.65	10
0.579	424.35	10
0.599	426.65	10
0.619	426.45	10
0.639	426.85	10
0.658	428.65	10
0.681	425.35	10
0.711	425.95	10
0.72	434.75	10
0.75	430.05	10
0.77	429.65	10
0.79	432.35	10
0.81	434.65	10
0.84	436.35	10
0.859	431.35	10
0.879	435.65	10
0.909	432.75	10
0.929	434.75	10
0.949	434.75	10
0.979	435.15	10
1	438.05	10

System: D-mannitol + SRS-1,2,3,4,5-pentanepentol; phases: Liquid, Crystal
Fixed: Pressure, kPa = 100
Property: Solid-liquid equilibrium temperature, K (Liquid); method: Infrared thermography
Mole fraction of D-mannitol	Solid-liquid equilibrium temperature, K	uncertainty
0	378.45	10
0.021	378.65	10

System: D-mannitol + xylitol; phases: Crystal, Crystal, Liquid, Air at 1 atmosphere
Property: Eutectic temperature, K (Crystal); method: DTA:UFactor:4
Eutectic temperature, K	uncertainty
363.15	2.1

System: D-mannitol + xylitol; phases: Crystal, Crystal, Liquid, Air at 1 atmosphere
Property: Eutectic temperature, K (Crystal); method: OTHER:UFactor:4:sMethod:Infrared thermography
Eutectic temperature, K	uncertainty
361.95	10.1

System: D-mannitol + xylitol; phases: Liquid, Crystal
Fixed: Pressure, kPa = 100
Property: Solid-liquid equilibrium temperature, K (Liquid); method: DTA:corrimp:UFactor:4
Mole fraction of D-mannitol	Solid-liquid equilibrium temperature, K	uncertainty
0.199	395.85	2
0.4	409.35	2
0.599	424.35	2
0.799	431.95	2
1	440.15	2

System: D-mannitol + xylitol; phases: Liquid, Crystal
Fixed: Pressure, kPa = 100
Property: Solid-liquid equilibrium temperature, K (Liquid); method: Infrared thermography
Mole fraction of D-mannitol	Solid-liquid equilibrium temperature, K	uncertainty
0.041	372.15	10
0.08	385.95	10
0.1	391.75	10
0.12	390.25	10
0.14	396.85	10
0.18	396.05	10
0.199	404.25	10
0.219	403.15	10
0.24	403.15	10
0.259	406.05	10
0.279	401.65	10
0.299	407.05	10
0.319	404.25	10
0.341	406.55	10
0.36	412.45	10
0.4	415.25	10
0.42	418.25	10
0.44	412.45	10
0.54	421.05	10
0.559	426.35	10
0.579	422.65	10
0.599	423.15	10
0.619	425.05	10
0.638	426.15	10
0.659	424.95	10
0.681	426.65	10
0.7	426.95	10
0.72	428.45	10
0.74	431.25	10
0.76	430.45	10
0.78	432.05	10
0.8	433.55	10
0.82	432.05	10
0.84	434.15	10
0.859	435.15	10
0.879	433.85	10
0.899	435.85	10
0.919	436.55	10
0.939	436.65	10
0.959	436.95	10
0.979	436.05	10
1	438.85	10

System: D-mannitol + xylitol; phases: Liquid, Crystal
Fixed: Pressure, kPa = 100
Property: Solid-liquid equilibrium temperature, K (Liquid); method: Infrared thermography
Mole fraction of D-mannitol	Solid-liquid equilibrium temperature, K	uncertainty
0	370.05	10
0.021	368.75	10
