Measured thermophysical data. Synthesis, Characterization and Standard Molar Enthalpy of Formation of Sm (C7H5O3)2 * (C9H6NO)
Source: Thermochim. Acta, 2007, 10.1016/j.tca.2007.10.003
Compound 1: hydrogen chloride, ClH, InChI=1S/ClH/h1H
Compound 2: water, H2O, InChI=1S/H2O/h1H2
Compound 3: samarium, bis(2-hydroxybenzoato-O1)(8-quinolinolato-N1,O8)-, C23H16NO7Sm, InChI=1S/C9H7NO.2C7H6O3.Sm/c11-8-5-1-3-7-4-2-6-10-9(7)8;2*8-6-4-2-1-3-5(6)7(9)10;/h1-6,11H;2*1-4,8H,(H,9,10);/q;;;+3/p-3
Compound 4: samarium chloride (SmCl3), hexahydrate, Cl3H12O6Sm, InChI=1S/3ClH.6H2O.Sm/h3*1H;6*1H2;/q;;;;;;;;;+3/p-3, purity 99%
Compound 5: 2-hydroxybenzoic acid, C7H6O3, InChI=1S/C7H6O3/c8-6-4-2-1-3-5(6)7(9)10/h1-4,8H,(H,9,10), purity 99.5%
Compound 6: 8-hydroxyquinoline, C9H7NO, InChI=1S/C9H7NO/c11-8-5-1-3-7-4-2-6-10-9(7)8/h1-6,11H, purity 99.5%

Reaction: -2 2-hydroxybenzoic acid + -1 8-hydroxyquinoline + 3 hydrogen chloride + -1 samarium chloride (SmCl3), hexahydrate + 1 samarium, bis(2-hydroxybenzoato-O1)(8-quinolinolato-N1,O8)- + 6 water
Property: Molar enthalpy of reaction, kJ/mol
89.59
