Measured thermophysical data. Solvation of the photodynamic therapy agent in the model lipid protein system:  The evidence of porphyrin preferential solvation by apolar environment
Source: Thermochim. Acta, 2013, 10.1016/j.tca.2012.09.040
Compound 1: dimethylformamide, C3H7NO, InChI=1S/C3H7NO/c1-4(2)3-5/h3H,1-2H3, purity 98%
Compound 2: octan-1-ol, C8H18O, InChI=1S/C8H18O/c1-2-3-4-5-6-7-8-9/h9H,2-8H2,1H3
Compound 3: ethyl acetate, C4H8O2, InChI=1S/C4H8O2/c1-3-6-4(2)5/h3H2,1-2H3
Compound 4: decane, C10H22, InChI=1S/C10H22/c1-3-5-7-9-10-8-6-4-2/h3-10H2,1-2H3, purity 98%
Compound 5: dimethyl 3,3'-[7,12-bis(1-methoxyethyl)-3,8,13,17-tetramethylporphyrin-2,18-diyl]dipropanoate, C38H46N4O6, InChI=1S/C38H46N4O6/c1-19-25(11-13-35(43)47-9)31-18-32-26(12-14-36(44)48-10)20(2)28(40-32)16-33-38(24(6)46-8)22(4)30(42-33)17-34-37(23(5)45-7)21(3)29(41-34)15-27(19)39-31/h15-18,23-24,40-41H,11-14H2,1-10H3/b27-15-,28-16-,29-15-,30-17-,31-18-,32-18-,33-16-,34-17-, purity 99%

System: dimethylformamide + octan-1-ol; phases: Liquid
Fixed: Pressure, kPa = 100
Property: Partial molar enthalpy, kJ/mol of dimethylformamide (Liquid); method: isoperibol
Temperature, K	Mole fraction of dimethylformamide	Partial molar enthalpy, kJ/mol of dimethylformamide	uncertainty
298.15	0	5.63	0.11
298.15	0.1013	4.5	0.09
298.15	0.2381	3.23	0.06
298.15	0.3517	2.31	0.05
298.15	0.4625	1.6	0.03
298.15	0.621	0.95	0.02
298.15	0.7626	0.41	0.01
318.15	0	5.1	0.1
318.15	0.04984	4.65	0.09
318.15	0.1115	4.2	0.08
318.15	0.298	2.62	0.05
318.15	0.494	1.37	0.03
318.15	0.6392	0.76	0.02
318.15	0.7897	0.28	0.01

System: dimethylformamide + octan-1-ol; phases: Liquid
Fixed: Pressure, kPa = 100
Property: Partial molar enthalpy, kJ/mol of octan-1-ol (Liquid); method: isoperibol
Temperature, K	Mole fraction of dimethylformamide	Partial molar enthalpy, kJ/mol of octan-1-ol	uncertainty
298.15	0.1019	0.02	0.01
298.15	0.2428	0.36	0.01
298.15	0.3521	0.61	0.01
298.15	0.4656	1.22	0.03
298.15	0.6219	1.96	0.04
298.15	0.7648	3.22	0.06
298.15	1	6.5	0.13
318.15	0.1132	0.05	0.01
318.15	0.2941	0.45	0.01
318.15	0.4942	1.26	0.03
318.15	0.6821	2.36	0.05
318.15	0.7901	3.28	0.07
318.15	0.9904	6.18	0.12
318.15	1	6.38	0.13

System: octan-1-ol + ethyl acetate; phases: Liquid
Fixed: Pressure, kPa = 100
Fixed: Molality, mol/kg of ethyl acetate = 0.02
Property: Molar enthalpy of solution, kJ/mol (Liquid); method: isoperibol
Temperature, K	Molar enthalpy of solution, kJ/mol	uncertainty
298.15	7.54	0.16
318.15	7.75	0.16

System: dimethylformamide + ethyl acetate; phases: Liquid
Fixed: Pressure, kPa = 100
Fixed: Molality, mol/kg of ethyl acetate = 0.02
Property: Molar enthalpy of solution, kJ/mol (Liquid); method: OTHER::sMethod:isoperibol
Temperature, K	Molar enthalpy of solution, kJ/mol	uncertainty
298.15	0.83	0.02
318.15	0.82	0.02

System: octan-1-ol + decane; phases: Liquid
Fixed: Pressure, kPa = 100
Fixed: Molality, mol/kg of decane = 0.02
Property: Molar enthalpy of solution, kJ/mol (Liquid); method: OTHER::sMethod:isoperibol
Temperature, K	Molar enthalpy of solution, kJ/mol	uncertainty
298.15	1.63	0.04
318.15	2.13	0.05

System: dimethylformamide + decane; phases: Liquid
Fixed: Pressure, kPa = 100
Fixed: Molality, mol/kg of decane = 0.02
Property: Molar enthalpy of solution, kJ/mol (Liquid); method: isoperibol
Temperature, K	Molar enthalpy of solution, kJ/mol	uncertainty
298.15	11.24	0.24
318.15	11.94	0.25

System: octan-1-ol + dimethyl 3,3'-[7,12-bis(1-methoxyethyl)-3,8,13,17-tetramethylporphyrin-2,18-diyl]dipropanoate; phases: Liquid
Fixed: Pressure, kPa = 100
Fixed: Molality, mol/kg of dimethyl 3,3'-[7,12-bis(1-methoxyethyl)-3,8,13,17-tetramethylporphyrin-2,18-diyl]dipropanoate = 0.0006
Property: Molar enthalpy of solution, kJ/mol (Liquid); method: isoperibol
Temperature, K	Molar enthalpy of solution, kJ/mol	uncertainty
298.15	27.26	0.58
318.15	37.95	0.81

System: dimethylformamide + dimethyl 3,3'-[7,12-bis(1-methoxyethyl)-3,8,13,17-tetramethylporphyrin-2,18-diyl]dipropanoate; phases: Liquid
Fixed: Pressure, kPa = 100
Fixed: Molality, mol/kg of dimethyl 3,3'-[7,12-bis(1-methoxyethyl)-3,8,13,17-tetramethylporphyrin-2,18-diyl]dipropanoate = 0.0006
Property: Molar enthalpy of solution, kJ/mol (Liquid); method: isoperibol
Temperature, K	Molar enthalpy of solution, kJ/mol	uncertainty
298.15	9.12	0.19
318.15	13.09	0.28

System: dimethylformamide + octan-1-ol + ethyl acetate; phases: Liquid
Fixed: Pressure, kPa = 100
Fixed: Molality, mol/kg of ethyl acetate = 0.02
Property: Molar enthalpy of solution, kJ/mol (Liquid); method: isoperibol
Temperature, K	Solvent: Mole fraction of dimethylformamide	Molar enthalpy of solution, kJ/mol	uncertainty
298.15	0	7.54	0.16
298.15	0.1039	5.97	0.13
298.15	0.2422	4.27	0.09
298.15	0.3058	3.64	0.08
298.15	0.4642	2.27	0.05
298.15	0.6236	1.32	0.03
298.15	0.7635	1.01	0.02
298.15	1	0.83	0.02
318.15	0	7.75	0.16
318.15	0.1011	6.1	0.13
318.15	0.148	5.34	0.11
318.15	0.2755	3.44	0.07
318.15	0.4601	2.32	0.05
318.15	0.6896	1.26	0.03
318.15	0.7897	0.99	0.02
318.15	1	0.82	0.02

System: dimethylformamide + octan-1-ol + decane; phases: Liquid
Fixed: Pressure, kPa = 100
Fixed: Molality, mol/kg of decane = 0.02
Property: Molar enthalpy of solution, kJ/mol (Liquid); method: isoperibol
Temperature, K	Solvent: Mole fraction of dimethylformamide	Molar enthalpy of solution, kJ/mol	uncertainty
298.15	0	1.63	0.04
298.15	0.1276	2.03	0.04
298.15	0.2422	2.52	0.05
298.15	0.3058	3.18	0.07
298.15	0.4642	4.3	0.09
298.15	0.6236	5.57	0.12
298.15	0.7635	8.45	0.18
298.15	1	11.24	0.24
318.15	0	2.13	0.05
318.15	0.1198	2.29	0.05
318.15	0.2392	2.69	0.06
318.15	0.4062	3.35	0.07
318.15	0.5442	4.45	0.09
318.15	0.5673	4.58	0.1
318.15	0.7486	6.29	0.13
318.15	0.8751	8.99	0.19
318.15	1	11.94	0.25

System: dimethylformamide + octan-1-ol + dimethyl 3,3'-[7,12-bis(1-methoxyethyl)-3,8,13,17-tetramethylporphyrin-2,18-diyl]dipropanoate; phases: Liquid
Fixed: Pressure, kPa = 100
Fixed: Molality, mol/kg of dimethyl 3,3'-[7,12-bis(1-methoxyethyl)-3,8,13,17-tetramethylporphyrin-2,18-diyl]dipropanoate = 0.0006
Property: Molar enthalpy of solution, kJ/mol (Liquid); method: isoperibol
Temperature, K	Solvent: Mole fraction of dimethylformamide	Molar enthalpy of solution, kJ/mol	uncertainty
298.15	0	27.26	0.58
298.15	0.1046	23.28	0.49
298.15	0.3137	16.58	0.35
298.15	0.5039	12.6	0.27
298.15	0.6207	11.44	0.24
298.15	0.7212	10.49	0.22
298.15	0.7999	10.1	0.21
298.15	0.8392	9.87	0.21
298.15	0.9206	9.48	0.2
298.15	1	9.12	0.19
318.15	0	37.95	0.81
318.15	0.1084	32.96	0.7
318.15	0.2934	25.24	0.54
318.15	0.4689	20.51	0.44
318.15	0.5503	18.54	0.39
318.15	0.6623	16.88	0.36
318.15	0.7011	15.97	0.34
318.15	0.7722	15.08	0.32
318.15	0.86	13.95	0.3
318.15	1	13.09	0.28
