Measured thermophysical data. Enthalpy of mixing of liquid systems for lead free soldering: The Ni-Sb-Sn system
Source: Thermochim. Acta, 2012, 10.1016/j.tca.2012.01.024
Compound 1: nickel, Ni, InChI=1S/Ni, purity 99.99%
Compound 2: tin, Sn, InChI=1S/Sn, purity 99.99%
Compound 3: antimony, Sb, InChI=1S/Sb, purity 99.999%

System: tin + antimony; phases: Liquid
Fixed: Pressure, kPa = 101
Fixed: Temperature, K = 1273.2
Property: Excess molar enthalpy (molar enthalpy of mixing), kJ/mol (Liquid); method: Calvet calorimetry
Mole fraction of antimony	Excess molar enthalpy (molar enthalpy of mixing), kJ/mol	uncertainty
0.2665	-1.076	0.012
0.4886	-1.32	0.014
0.7372	-0.974	0.011

System: nickel + tin; phases: Liquid
Property: Excess molar enthalpy (molar enthalpy of mixing), kJ/mol (Liquid); method: Calvet calorimetry
Mole fraction of nickel	Pressure, kPa	Temperature, K	Excess molar enthalpy (molar enthalpy of mixing), kJ/mol	uncertainty
0.213	101	1273.2	-9.592	0.097

System: nickel + antimony; phases: Liquid
Property: Excess molar enthalpy (molar enthalpy of mixing), kJ/mol (Liquid); method: Calvet calorimetry
Mole fraction of nickel	Pressure, kPa	Temperature, K	Excess molar enthalpy (molar enthalpy of mixing), kJ/mol	uncertainty
0.2109	101	1273.2	-10.782	0.109

System: nickel + tin + antimony; phases: Liquid
Fixed: Pressure, kPa = 101
Fixed: Temperature, K = 1273.2
Property: Excess molar enthalpy (molar enthalpy of mixing), kJ/mol (Liquid); method: Calvet calorimetry
Mole fraction of nickel	Mole fraction of antimony	Excess molar enthalpy (molar enthalpy of mixing), kJ/mol	uncertainty
0	0.2665	-1.076	0.012
0	0.4886	-1.32	0.014
0	0.7372	-0.974	0.011
0.0278	0.2591	-2.402	0.025
0.0306	0.7146	-2.547	0.026
0.0476	0.4654	-3.624	0.037
0.0546	0.252	-3.693	0.038
0.0625	0.6911	-4.178	0.043
0.0818	0.6157	-5.902	0.06
0.0828	0.2444	-5.044	0.051
0.0856	0.5978	-6.123	0.062
0.0898	0.5785	-6.323	0.064
0.094	0.5586	-6.527	0.066
0.0947	0.6674	-5.825	0.059
0.096	0.4417	-5.991	0.061
0.0983	0.5383	-6.735	0.068
0.1024	0.5193	-6.95	0.071
0.1037	0.3879	-6.806	0.069
0.1066	0.4996	-7.106	0.072
0.1073	0.4016	-6.979	0.071
0.111	0.2369	-6.389	0.065
0.111	0.479	-7.276	0.074
0.1111	0.4157	-7.207	0.073
0.115	0.4304	-7.425	0.075
0.1154	0.4582	-7.41	0.075
0.1186	0.4436	-7.576	0.077
0.1201	0.4359	-7.601	0.077
0.1221	0.4567	-7.734	0.078
0.1253	0.4119	-7.801	0.079
0.1257	0.4702	-7.926	0.08
0.1275	0.6432	-7.502	0.076
0.1294	0.4841	-8.057	0.082
0.1305	0.3871	-8.013	0.081
0.1332	0.4985	-8.221	0.083
0.1359	0.362	-8.185	0.083
0.137	0.5127	-8.39	0.085
0.1378	0.2298	-7.659	0.078
0.1408	0.527	-8.558	0.087
0.1415	0.3355	-8.344	0.084
0.1416	0.4194	-8.167	0.083
0.1448	0.5419	-8.708	0.088
0.1476	0.3068	-8.513	0.086
0.1488	0.5568	-8.89	0.09
0.1529	0.5722	-8.996	0.091
0.1535	0.2793	-8.689	0.088
0.157	0.5874	-9.126	0.092
0.1597	0.25	-8.813	0.089
0.1608	0.6187	-9.182	0.093
0.1612	0.6031	-9.321	0.094
0.1636	0.2229	-8.863	0.09
0.1655	0.6192	-9.465	0.096
0.1662	0.2195	-8.989	0.091
0.1699	0.6358	-9.61	0.097
0.1726	0.1894	-9.156	0.093
0.1745	0.6528	-9.779	0.099
0.1792	0.6705	-9.903	0.1
0.1794	0.1575	-9.341	0.094
0.1842	0.6892	-10.064	0.102
0.1848	0.1321	-9.432	0.095
0.1856	0.3979	-10.286	0.104
0.1893	0.7083	-10.265	0.104
0.1897	0.2159	-10.086	0.102
0.1904	0.1059	-9.5	0.096
0.1935	0.5945	-10.834	0.109
0.1946	0.7283	-10.447	0.105
0.196	0.0796	-9.542	0.096
0.1999	0.748	-10.582	0.107
0.2017	0.0527	-9.57	0.097
0.2054	0.7684	-10.687	0.108
0.2073	0.0267	-9.558	0.097
0.2109	0.7891	-10.782	0.109
0.213	0	-9.592	0.097
0.2169	0.2087	-11.362	0.115
0.2244	0.5718	-12.359	0.125
0.2282	0.3771	-12.287	0.124
0.2431	0.2017	-12.578	0.127
0.2532	0.5506	-13.748	0.138
0.2669	0.3582	-14.085	0.142
0.268	0.1951	-13.738	0.138
0.2803	0.5305	-15.123	0.152
0.2919	0.1887	-14.765	0.149
0.3024	0.3409	-15.821	0.159
0.3059	0.5117	-16.798	0.169
0.3148	0.1826	-15.582	0.157
0.3299	0.494	-18.186	0.183
0.3349	0.325	-17.291	0.174
0.3363	0.1769	-16.317	0.164
0.3524	0.4774	-19.797	0.199
0.3575	0.1712	-16.861	0.17
0.3648	0.3104	-18.84	0.189
0.3736	0.4618	-21.357	0.215
0.3774	0.1659	-17.571	0.177
0.3928	0.2967	-20.524	0.206
0.3936	0.4471	-22.411	0.225
0.3964	0.1609	-18.099	0.182
0.413	0.4327	-23.548	0.236
0.4149	0.1559	-18.639	0.187
0.4186	0.2841	-21.736	0.218
0.4313	0.4193	-24.524	0.246
0.4326	0.1512	-19.155	0.193
0.4426	0.2723	-22.373	0.225
0.4493	0.1468	-19.628	0.197
0.4494	0.4059	-25.524	0.256
0.4648	0.2615	-23.358	0.235
0.4653	0.1425	-20.068	0.202
0.4664	0.3933	-26.329	0.264
0.4807	0.1384	-20.504	0.206
0.4825	0.3815	-27.005	0.271
0.4856	0.2514	-24.326	0.244
0.4956	0.1344	-20.897	0.21
0.4978	0.3702	-27.64	0.277
0.5052	0.2418	-24.961	0.251
0.5098	0.1306	-21.262	0.214
0.5127	0.3592	-27.756	0.279
0.5233	0.2329	-25.589	0.257
0.5236	0.127	-21.52	0.216
0.5374	0.1233	-21.659	0.218
0.5403	0.2246	-26.129	0.262
0.5562	0.2168	-26.464	0.266
0.5713	0.2094	-26.467	0.266
0.5858	0.2024	-26.518	0.266
0.5997	0.1956	-26.404	0.265
0.6132	0.189	-26.095	0.262
0.6267	0.1824	-25.76	0.259
0.6394	0.1762	-25.449	0.255
0.6517	0.1702	-25.135	0.252
