Measured thermophysical data. Heat Capacities of 2-Propenol and Selected Cyclohexylalcohols
Source: Thermochim. Acta, 2014, 10.1016/j.tca.2014.03.043
Compound 1: cyclohexylmethanol, C7H14O, InChI=1S/C7H14O/c8-6-7-4-2-1-3-5-7/h7-8H,1-6H2, purity 99.82%
Compound 2: 2-cyclohexylethanol, C8H16O, InChI=1S/C8H16O/c9-7-6-8-4-2-1-3-5-8/h8-9H,1-7H2, purity 99.93%
Compound 3: 3-cyclohexyl-1-propanol, C9H18O, InChI=1S/C9H18O/c10-8-4-7-9-5-2-1-3-6-9/h9-10H,1-8H2, purity 99.2%
Compound 4: 2-propenol, C3H6O, InChI=1S/C3H6O/c1-2-3-4/h2,4H,1,3H2, purity 99.78%

System: cyclohexylmethanol; phases: Liquid
Fixed: Pressure, kPa = 101.325
Property: Molar heat capacity at constant pressure, J/K/mol (Liquid); method: Small sample (50 mg) DSC
Temperature, K	Molar heat capacity at constant pressure, J/K/mol	uncertainty
258.09	199.13	3.09
258.09	198.88	3.08
263.2	202.87	3.14
263.2	202.54	3.14
268.3	207.03	3.21
268.3	206.61	3.2
273.41	211.52	3.28
273.41	210.94	3.27
278.51	215.68	3.34
278.51	215.18	3.33
283.62	220.83	3.42
283.62	219.83	3.41
288.72	225.32	3.49
288.72	224.74	3.48
293.83	230.56	3.57
293.83	229.98	3.56
298.93	236.46	3.67
298.93	235.55	3.65
304.04	242.28	3.76
304.04	241.62	3.74
309.14	247.94	3.84
309.14	247.36	3.83
314.25	254.26	3.94
314.25	253.34	3.93
319.35	260.24	4.03
319.35	259.49	4.02
324.46	265.98	4.12
324.46	265.56	4.12
329.57	271.38	4.21
329.57	270.55	4.19
334.67	276.54	4.29
334.67	275.87	4.27
339.77	281.78	4.37
339.77	280.86	4.35
344.88	287.35	4.45
344.88	286.52	4.44
349.98	292.34	4.53
349.98	291.51	4.52
355.09	296.83	4.6
355.09	296.33	4.59

System: 2-cyclohexylethanol; phases: Liquid
Fixed: Pressure, kPa = 101.325
Property: Molar heat capacity at constant pressure, J/K/mol (Liquid); method: Small sample (50 mg) DSC
Temperature, K	Molar heat capacity at constant pressure, J/K/mol	uncertainty
253.5	222	3.44
253.5	223.33	3.46
256.05	226.07	3.5
256.05	226.32	3.51
260.65	229.4	3.55
260.65	229.73	3.56
265.75	233.72	3.62
265.75	233.97	3.63
270.86	238.29	3.69
270.86	238.21	3.69
275.96	242.12	3.75
275.96	242.2	3.75
281.07	246.19	3.82
281.07	246.44	3.82
286.17	251.6	3.9
286.17	251.26	3.89
291.28	256.67	3.98
291.28	256.42	3.97
296.38	261.91	4.06
296.38	262.07	4.06
301.48	267.56	4.15
301.48	266.98	4.14
306.59	273.13	4.23
306.59	273.21	4.23
311.7	278.7	4.32
311.7	279.03	4.32
316.81	284.35	4.41
316.81	284.35	4.41
321.91	290.17	4.5
321.91	289.93	4.49
327.01	295.5	4.58
327.01	295.58	4.58
332.12	301.15	4.67
332.12	300.82	4.66
337.22	307.39	4.76
337.22	306.64	4.75
342.33	313.87	4.86
342.33	312.71	4.85
347.43	318.61	4.94
347.43	317.95	4.93
352.54	323.27	5.01
352.54	322.6	5

System: 3-cyclohexyl-1-propanol; phases: Liquid
Fixed: Pressure, kPa = 101.325
Property: Molar heat capacity at constant pressure, J/K/mol (Liquid); method: Small sample (50 mg) DSC
Temperature, K	Molar heat capacity at constant pressure, J/K/mol	uncertainty
258.09	254.42	3.94
258.09	254.84	3.95
263.2	258.91	4.01
263.2	258.66	4.01
268.3	263.07	4.08
268.3	262.65	4.07
273.41	267.64	4.15
273.41	267.48	4.14
278.51	272.22	4.22
278.51	271.97	4.21
283.62	277.37	4.3
283.62	277.12	4.29
288.72	282.28	4.37
288.72	282.28	4.37
293.83	288.01	4.46
293.83	287.76	4.46
298.93	293.5	4.55
298.93	293.33	4.55
304.04	299.74	4.65
304.04	299.74	4.65
309.14	305.72	4.74
309.14	305.64	4.74
314.25	311.63	4.83
314.25	311.54	4.83
319.35	317.61	4.92
319.35	317.7	4.92
324.46	323.6	5.01
324.46	323.85	5.02
329.56	330.5	5.12
329.56	330	5.11
334.67	335.9	5.21
334.67	336.24	5.21
339.77	342.31	5.3
339.77	342.39	5.31
344.88	348.46	5.4
344.88	348.63	5.4
349.98	354.28	5.49
349.98	354.61	5.49
355.09	360.35	5.58
355.09	360.02	5.58

System: 2-propenol; phases: Liquid
Fixed: Pressure, kPa = 101.325
Property: Molar heat capacity at constant pressure, J/K/mol (Liquid); method: Small sample (50 mg) DSC
Temperature, K	Molar heat capacity at constant pressure, J/K/mol	uncertainty
273.41	134.94	2.09
273.41	134.61	2.09
278.52	137.19	2.13
278.52	137.35	2.13
283.62	139.43	2.16
283.62	139.18	2.16
288.72	141.93	2.2
288.72	141.68	2.2
293.83	144.34	2.24
293.83	144.17	2.23
298.93	146.67	2.27
298.93	146.5	2.27
304.04	149.16	2.31
304.04	149.08	2.31
309.14	152.32	2.36
309.14	151.82	2.35
314.25	154.82	2.4
314.25	154.4	2.39
319.35	157.23	2.44
319.35	157.06	2.43
324.46	160.14	2.48
324.46	160.3	2.48
