Measured thermophysical data. Imidazolium based ionic liquids. 1-Ethanol-3-methyl-imidazolium  dicyanoamide: Thermochemical measurement and first-principles calculations
Source: Thermochim. Acta, 2011, 10.1016/j.tca.2011.02.016
Compound 1: carbon dioxide, CO2, InChI=1S/CO2/c2-1-3
Compound 2: nitrogen, N2, InChI=1S/N2/c1-2
Compound 3: water, H2O, InChI=1S/H2O/h1H2
Compound 4: oxygen, O2, InChI=1S/O2/c1-2
Compound 5: 3-(2-hydroxyethyl)-1-methyl-1H-imidazol-3-ium dicyanoazanide, C8H11N5O, InChI=1S/C6H11N2O.C2N3/c1-7-2-3-8(6-7)4-5-9;3-1-5-2-4/h2-3,6,9H,4-5H2,1H3;/q+1;-1

System: 3-(2-hydroxyethyl)-1-methyl-1H-imidazol-3-ium dicyanoazanide; phases: Liquid
Property: Molar heat capacity at constant pressure, J/K/mol (Liquid); method: Small sample (50 mg) DSC
Temperature, K	Pressure, kPa	Molar heat capacity at constant pressure, J/K/mol	uncertainty
298.15	101.325	231.847248	3.8641208

System: 3-(2-hydroxyethyl)-1-methyl-1H-imidazol-3-ium dicyanoazanide; phases: Liquid
Property: Mass density, kg/m3 (Liquid); method: Pycnometric method
Temperature, K	Pressure, kPa	Mass density, kg/m3	uncertainty
298.15	101.325	1120	10

Reaction: -1 3-(2-hydroxyethyl)-1-methyl-1H-imidazol-3-ium dicyanoazanide + 8 carbon dioxide + 2.5 nitrogen + 5.5 water + -10.25 oxygen
Property: Specific internal energy of reaction at constant volume, J/g
-24811.1
