Measured thermophysical data. Enthalpies of transfer of urea and methyl-substituted ureas from water to methanol at 298.15K
Source: Thermochim. Acta, 2006, 10.1016/j.tca.2006.06.011
Compound 1: methanol, CH4O, InChI=1S/CH4O/c1-2/h2H,1H3
Compound 2: water, H2O, InChI=1S/H2O/h1H2
Compound 3: urea, CH4N2O, InChI=1S/CH4N2O/c2-1(3)4/h(H4,2,3,4)
Compound 4: methylurea, C2H6N2O, InChI=1S/C2H6N2O/c1-4-2(3)5/h1H3,(H3,3,4,5)
Compound 5: N,N-dimethylurea, C3H8N2O, InChI=1S/C3H8N2O/c1-5(2)3(4)6/h1-2H3,(H2,4,6)
Compound 6: 1,3-dimethylurea, C3H8N2O, InChI=1S/C3H8N2O/c1-4-3(6)5-2/h1-2H3,(H2,4,5,6)
Compound 7: tetramethylurea, C5H12N2O, InChI=1S/C5H12N2O/c1-6(2)5(8)7(3)4/h1-4H3

System: urea + water; phases: Liquid
Property: Molar enthalpy of solution, kJ/mol (Liquid); method: ISOPERIBOL
Mole fraction of urea	Temperature, K	Pressure, kPa	Molar enthalpy of solution, kJ/mol	uncertainty
0	298.15	101	15.25	0.12

System: methylurea + water; phases: Liquid
Property: Molar enthalpy of solution, kJ/mol (Liquid); method: ISOPERIBOL
Mole fraction of methylurea	Temperature, K	Pressure, kPa	Molar enthalpy of solution, kJ/mol	uncertainty
0	298.15	101	10.64	0.09

System: N,N-dimethylurea + water; phases: Liquid
Property: Molar enthalpy of solution, kJ/mol (Liquid); method: ISOPERIBOL
Mole fraction of N,N-dimethylurea	Temperature, K	Pressure, kPa	Molar enthalpy of solution, kJ/mol	uncertainty
0	298.15	101	12.6	0.1

System: 1,3-dimethylurea + water; phases: Liquid
Property: Molar enthalpy of solution, kJ/mol (Liquid); method: ISOPERIBOL
Mole fraction of 1,3-dimethylurea	Temperature, K	Pressure, kPa	Molar enthalpy of solution, kJ/mol	uncertainty
0	298.15	101	0.96	0.02

System: tetramethylurea + water; phases: Liquid
Property: Molar enthalpy of solution, kJ/mol (Liquid); method: ISOPERIBOL
Mole fraction of tetramethylurea	Temperature, K	Pressure, kPa	Molar enthalpy of solution, kJ/mol	uncertainty
0	298.15	101	-22.19	0.18

System: urea + methanol; phases: Liquid
Property: Molar enthalpy of solution, kJ/mol (Liquid); method: ISOPERIBOL
Mole fraction of urea	Temperature, K	Pressure, kPa	Molar enthalpy of solution, kJ/mol	uncertainty
0	298.15	101	10.82	0.09

System: methanol + methylurea; phases: Liquid
Property: Molar enthalpy of solution, kJ/mol (Liquid); method: ISOPERIBOL
Mole fraction of methylurea	Temperature, K	Pressure, kPa	Molar enthalpy of solution, kJ/mol	uncertainty
0	298.15	101	14.21	0.12

System: methanol + N,N-dimethylurea; phases: Liquid
Property: Molar enthalpy of solution, kJ/mol (Liquid); method: ISOPERIBOL
Mole fraction of N,N-dimethylurea	Temperature, K	Pressure, kPa	Molar enthalpy of solution, kJ/mol	uncertainty
0	298.15	101	19.54	0.16

System: methanol + 1,3-dimethylurea; phases: Liquid
Property: Molar enthalpy of solution, kJ/mol (Liquid); method: ISOPERIBOL
Mole fraction of 1,3-dimethylurea	Temperature, K	Pressure, kPa	Molar enthalpy of solution, kJ/mol	uncertainty
0	298.15	101	10.29	0.08

System: methanol + tetramethylurea; phases: Liquid
Property: Molar enthalpy of solution, kJ/mol (Liquid); method: ISOPERIBOL
Mole fraction of tetramethylurea	Temperature, K	Pressure, kPa	Molar enthalpy of solution, kJ/mol	uncertainty
0	298.15	101	-4.58	0.04
