Measured thermophysical data. Thermochemical properties of mono- and di-cyano-aromatic compounds at 298.15 K
Source: Thermochim. Acta, 2018, 10.1016/j.tca.2018.07.026
Compound 1: 1,2-benzodinitrile, C8H4N2, InChI=1S/C8H4N2/c9-5-7-3-1-2-4-8(7)6-10/h1-4H, purity 98%
Compound 2: 1,3-dicyanobenzene, C8H4N2, InChI=1S/C8H4N2/c9-5-7-2-1-3-8(4-7)6-10/h1-4H, purity 98%
Compound 3: 1-cyanonaphthalene, C11H7N, InChI=1S/C11H7N/c12-8-10-6-3-5-9-4-1-2-7-11(9)10/h1-7H, purity 95%
Compound 4: 2-naphthalenecarbonitrile, C11H7N, InChI=1S/C11H7N/c12-8-9-5-6-10-3-1-2-4-11(10)7-9/h1-7H, purity 97%
Compound 5: 9-anthracenecarbonitrile, C15H9N, InChI=1S/C15H9N/c16-10-15-13-7-3-1-5-11(13)9-12-6-2-4-8-14(12)15/h1-9H, purity 97%
Compound 6: acetonitrile, C2H3N, InChI=1S/C2H3N/c1-2-3/h1H3, purity 99%
Compound 7: naphthalene, C10H8, InChI=1S/C10H8/c1-2-6-10-8-4-3-7-9(10)5-1/h1-8H, purity 99.99%
Compound 8: benzoic acid, C7H6O2, InChI=1S/C7H6O2/c8-7(9)6-4-2-1-3-5-6/h1-5H,(H,8,9), purity 99.9%

System: 1-cyanonaphthalene; phases: Crystal, Liquid, Air at 1 atmosphere
Property: Molar enthalpy of transition or fusion, kJ/mol (Crystal); method: DSC
Molar enthalpy of transition or fusion, kJ/mol	uncertainty
17.4	0.6

System: 1-cyanonaphthalene; phases: Crystal, Liquid, Air at 1 atmosphere
Property: Normal melting temperature, K (Crystal); method: DTA
Normal melting temperature, K	uncertainty
307	1.3

System: 1-cyanonaphthalene; phases: Liquid, Gas
Property: Vapor or sublimation pressure, kPa (Liquid); method: Transpiration method
Temperature, K	Vapor or sublimation pressure, kPa	uncertainty
317.4	0.00232	0.00011
321.3	0.00324	0.00015
323.2	0.00381	0.00018
326.3	0.00461	0.00021
328.2	0.00556	0.00027
331.2	0.00702	0.00033
333.3	0.00785	0.00037
335.2	0.00943	0.00045
338.2	0.0116	0.0005
340.2	0.01358	0.00064
343.2	0.01719	0.00079
345.1	0.01921	0.00089
348.1	0.02329	0.00108
351.1	0.02893	0.00132
353.2	0.03229	0.00145

System: 1-cyanonaphthalene; phases: Crystal
Fixed: Pressure, kPa = 101.325
Property: Molar heat capacity at constant pressure, J/K/mol (Crystal); method: DSC
Temperature, K	Molar heat capacity at constant pressure, J/K/mol	uncertainty
268.9	144.7	29.5
269.3	148.8	30.3
269.7	152.4	31
270.1	155.6	31.6
270.5	158.2	32.2
270.9	160.6	32.6
271.3	162.5	33
271.7	164.3	33.4
272.1	165.9	33.7
272.5	167.2	34
272.9	168.6	34.2
273.3	169.6	34.5
273.6	170.5	34.6
274	171.5	34.8
274.4	172.1	35
274.8	172.9	35.1
275.2	173.5	35.2
275.5	174.2	35.4
275.9	174.6	35.5
276.3	175.1	35.6
276.7	175.5	35.6
277.1	175.7	35.7
277.4	176	35.7
277.8	176.2	35.8
278.2	176.6	35.9
278.5	177.1	36
278.9	177.6	36.1
279.3	178.1	36.2
279.6	178.7	36.3
280	179.5	36.5
280.4	180.3	36.6
280.8	181.2	36.8
281.1	182	37
281.5	182.9	37.2
281.9	183.8	37.3
282.2	184.8	37.5
282.6	185.8	37.7
282.9	186.6	37.9
283.3	187.6	38.1
283.7	188.4	38.3
284	189	38.4
284.4	189.8	38.5
284.8	190.3	38.7
285.1	190.7	38.7
285.5	191	38.8
285.9	191.4	38.9
286.2	191.6	38.9
286.6	191.7	38.9
286.9	192	39
287.3	192.4	39.1
287.7	192.6	39.1
288	193	39.2
288.4	193.1	39.2
288.8	193.1	39.2
289.1	193.1	39.2
289.5	193.1	39.2
289.8	193.1	39.2
290.2	193	39.2
290.6	192.9	39.2
290.9	192.9	39.2
291.3	192.9	39.2
291.7	193.1	39.2
292	193.5	39.3
292.4	193.6	39.3
292.8	194.2	39.4
293.1	194.6	39.5
293.5	195.4	39.7
293.8	196.1	39.8
294.2	196.7	40
294.6	197.4	40.1
294.9	198.1	40.2
295.3	198.9	40.4
295.7	199.8	40.6
296	200.6	40.7
296.4	201.7	41
296.8	202.9	41.2
268.9	156.8	32.1
269.3	159.1	32.4
269.7	161.1	32.8
270.1	162.6	33.1
270.5	164.1	33.4
270.9	165.4	33.6
271.3	166.5	33.8
271.7	167.5	34
272.1	168.4	34.2
272.5	169.2	34.4
272.9	170	34.5
273.3	170.8	34.7
273.6	171.4	34.8
274	172.1	35
274.4	172.7	35.1
274.8	173.4	35.2
275.2	173.9	35.3
275.5	174.4	35.4
275.9	174.9	35.5
276.3	175.4	35.6
276.7	175.6	35.7
277	175.9	35.7
277.4	176.3	35.8
277.8	176.6	35.9
278.2	177	35.9
278.5	177.5	36.1
278.9	177.9	36.1
279.3	178.4	36.2
279.6	179	36.4
280	179.6	36.5
280.4	180.4	36.6
280.7	181.1	36.8
281.1	181.9	36.9
281.5	182.8	37.1
281.8	183.7	37.3
282.2	184.7	37.5
282.6	185.7	37.7
282.9	186.7	37.9
283.3	187.9	38.2
283.7	188.9	38.4
284	190	38.6
284.4	190.9	38.8
284.8	191.7	38.9
285.1	192.3	39.1
285.5	192.8	39.2
285.9	193.1	39.2
286.2	193.2	39.2
286.6	193.3	39.3
286.9	193.2	39.2
287.3	193.3	39.3
287.7	193.2	39.2
288	193	39.2
288.4	192.8	39.2
288.8	192.4	39.1
289.1	192.1	39
289.5	191.7	38.9
289.8	191.4	38.9
290.2	191.3	38.9
290.6	191.3	38.9
290.9	191.6	38.9
291.3	191.9	39
291.7	192.2	39
292	192.7	39.1
292.4	193.3	39.3
292.8	193.8	39.4
293.1	194.5	39.5
293.5	195.3	39.7
293.8	196.1	39.8
294.2	196.8	40
294.6	197.8	40.2
294.9	198.7	40.4
295.3	199.6	40.5
295.7	200.6	40.7
296	201.6	40.9
296.4	202.5	41.1
296.8	203.6	41.4

System: 2-naphthalenecarbonitrile; phases: Crystal, Gas
Property: Vapor or sublimation pressure, kPa (Crystal); method: Transpiration method
Temperature, K	Vapor or sublimation pressure, kPa	uncertainty
315.5	0.00091	5e-05
318.4	0.00122	6e-05
320.5	0.00152	8e-05
322.4	0.00195	0.0001
324.5	0.00237	0.00011
326.4	0.00284	0.00014
328.2	0.0035	0.0002
331.3	0.00463	0.00022
333.2	0.00579	0.00029
334.2	0.00641	0.00032

System: 2-naphthalenecarbonitrile; phases: Crystal
Fixed: Pressure, kPa = 101.325
Property: Molar heat capacity at constant pressure, J/K/mol (Crystal); method: DSC
Temperature, K	Molar heat capacity at constant pressure, J/K/mol	uncertainty
313.8	182.1	37
314.4	182.8	37.1
314.9	183.3	37.2
315.3	183.7	37.3
315.8	184.2	37.4
316.3	184.6	37.5
316.8	185	37.6
317.3	185.3	37.6
317.8	185.4	37.7
318.2	185.5	37.7
318.7	185.9	37.8
319.2	186.1	37.8
319.6	186.3	37.8
320.1	186.6	37.9
320.5	186.8	37.9
320.9	187.1	38
321.4	187.4	38.1
321.8	187.5	38.1
322.2	187.8	38.1
322.7	188.1	38.2
323.1	188.4	38.3
323.5	188.6	38.3
323.9	188.9	38.4
324.4	189.1	38.4
324.8	189.5	38.5
325.2	189.8	38.5
325.6	190.2	38.6
326	190.7	38.7
326.4	191.2	38.8
326.8	191.5	38.9
327.1	191.8	39

System: naphthalene; phases: Crystal, Gas
Property: Vapor or sublimation pressure, kPa (Crystal); method: Transpiration method
Temperature, K	Vapor or sublimation pressure, kPa	uncertainty
288.2	0.00418	0.00021
290.7	0.00548	0.00028
293.2	0.00698	0.00035
298.2	0.01114	0.00054
303.2	0.01811	0.00088
308	0.02903	0.00138
313.1	0.04408	0.00206
318.2	0.0671	0.00314
323.1	0.102	0.00476
328.1	0.1538	0.00705
330.5	0.18668	0.00858
333	0.22352	0.01013

System: benzoic acid; phases: Crystal
Fixed: Pressure, kPa = 101.325
Property: Molar heat capacity at constant pressure, J/K/mol (Crystal); method: DSC
Temperature, K	Molar heat capacity at constant pressure, J/K/mol	uncertainty
318.4	119.5	24.3
318.8	122.9	25
319.2	127.1	25.9
319.7	130.8	26.6
320.1	134.3	27.3
320.6	137.7	28
321	140.7	28.6
321.4	143.4	29.1
321.9	146.1	29.7
322.3	148.4	30.2
322.7	150.5	30.6
323.1	152.4	31
323.5	154.1	31.3
324	155.6	31.6
324.4	157	31.9
324.8	158.3	32.2
325.2	159.5	32.4
325.6	160.4	32.6
326	161.3	32.8
326.4	162	32.9
326.8	162.7	33
327.2	163.4	33.2
327.6	163.9	33.3
328	164.3	33.4
328.3	164.8	33.5
328.7	165.1	33.5
329.1	165.3	33.6
329.5	165.6	33.6
329.9	165.7	33.7
330.3	165.9	33.7
330.6	166	33.7
331	166.3	33.8
331.4	166.3	33.8
331.8	166.4	33.8
332.1	166.4	33.8
332.5	166.4	33.8
332.9	166.5	33.8
333.3	166.5	33.8
333.6	166.5	33.8
334	166.6	33.8
334.4	166.6	33.8
334.8	166.5	33.8
335.1	166.6	33.8
335.5	166.7	33.9
335.9	166.7	33.9
336.2	166.7	33.9
336.6	166.7	33.9
337	166.7	33.9
337.3	166.7	33.9
337.7	166.9	33.9
338.1	166.9	33.9
338.5	167	33.9
338.8	167.1	33.9
339.2	167.2	34
339.6	167.3	34
339.9	167.4	34
340.3	167.5	34
340.7	167.6	34
341	167.7	34.1
341.4	167.8	34.1
341.8	167.9	34.1
342	168	34.1

System: acetonitrile + 1,2-benzodinitrile; phases: Liquid
Property: Molar enthalpy of solution, kJ/mol (Liquid); method: Power-compensation calorimetry
Temperature, K	Pressure, kPa	Mole fraction of 1,2-benzodinitrile	Molar enthalpy of solution, kJ/mol	uncertainty
298.15	100	0	17.63	0.43

System: acetonitrile + 1,3-dicyanobenzene; phases: Liquid
Property: Molar enthalpy of solution, kJ/mol (Liquid); method: Power-compensation calorimetry
Temperature, K	Pressure, kPa	Mole fraction of 1,3-dicyanobenzene	Molar enthalpy of solution, kJ/mol	uncertainty
298.15	100	0	21.7	0.27

System: acetonitrile + 1-cyanonaphthalene; phases: Liquid
Property: Molar enthalpy of solution, kJ/mol (Liquid); method: Power-compensation calorimetry
Temperature, K	Pressure, kPa	Mole fraction of 1-cyanonaphthalene	Molar enthalpy of solution, kJ/mol	uncertainty
298.15	100	0	20.9	0.18

System: acetonitrile + 2-naphthalenecarbonitrile; phases: Liquid
Property: Molar enthalpy of solution, kJ/mol (Liquid); method: Power-compensation calorimetry
Temperature, K	Pressure, kPa	Mole fraction of 2-naphthalenecarbonitrile	Molar enthalpy of solution, kJ/mol	uncertainty
298.15	100	0	21.85	0.2

System: acetonitrile + 9-anthracenecarbonitrile; phases: Liquid
Property: Molar enthalpy of solution, kJ/mol (Liquid); method: Power-compensation calorimetry
Temperature, K	Pressure, kPa	Mole fraction of 9-anthracenecarbonitrile	Molar enthalpy of solution, kJ/mol	uncertainty
298.15	100	0	23.19	0.47
