Measured thermophysical data. Measurement of thermal conductivities of [mmim]DMP/CH3OH and  [mmim]DMP/H2O by freestanding sensor-based 3w technique
Source: Thermochim. Acta, 2013, 10.1016/j.tca.2013.02.020
Compound 1: methanol, CH4O, InChI=1S/CH4O/c1-2/h2H,1H3
Compound 2: water, H2O, InChI=1S/H2O/h1H2
Compound 3: 1,3-dimethylimidazolium dimethylphosphate, C7H15N2O4P, InChI=1S/C5H9N2.C2H7O4P/c1-6-3-4-7(2)5-6;1-5-7(3,4)6-2/h3-5H,1-2H3;1-2H3,(H,3,4)/q+1;/p-1

System: methanol; phases: Liquid
Property: Thermal conductivity, W/m/K (Liquid); method: alternating heat wave
Pressure, kPa	Temperature, K	Thermal conductivity, W/m/K	uncertainty
101	298.15	0.192	0.016

System: water; phases: Liquid
Property: Thermal conductivity, W/m/K (Liquid); method: alternating heat wave
Pressure, kPa	Temperature, K	Thermal conductivity, W/m/K	uncertainty
101	298.15	0.608	0.049

System: 1,3-dimethylimidazolium dimethylphosphate; phases: Liquid
Property: Thermal conductivity, W/m/K (Liquid); method: alternating heat wave
Pressure, kPa	Temperature, K	Thermal conductivity, W/m/K	uncertainty
101	298.15	0.238	0.019

System: methanol + 1,3-dimethylimidazolium dimethylphosphate; phases: Liquid
Fixed: Pressure, kPa = 101
Fixed: Temperature, K = 298.15
Property: Thermal conductivity, W/m/K (Liquid); method: alternating heat wave
Mole fraction of 1,3-dimethylimidazolium dimethylphosphate	Thermal conductivity, W/m/K	uncertainty
0	0.192	0.016
0.1	0.206	0.017
0.2	0.216	0.017
0.3	0.222	0.018
0.5	0.23	0.019
0.7	0.234	0.019
0.85	0.236	0.019
1	0.238	0.019

System: water + 1,3-dimethylimidazolium dimethylphosphate; phases: Liquid
Fixed: Pressure, kPa = 101
Fixed: Temperature, K = 298.15
Property: Thermal conductivity, W/m/K (Liquid); method: alternating heat wave
Mole fraction of 1,3-dimethylimidazolium dimethylphosphate	Thermal conductivity, W/m/K	uncertainty
0	0.608	0.049
0.025	0.465	0.038
0.05	0.413	0.034
0.1	0.343	0.028
0.2	0.278	0.023
0.3	0.265	0.021
0.5	0.249	0.02
0.7	0.246	0.02
0.9	0.242	0.02
1	0.238	0.019
