Measured thermophysical data. Thermodynamic properties of CaMoO4 at high temperatures
Source: Thermochim. Acta, 2018, 10.1016/j.tca.2018.01.023
Compound 1: calcium molybdate(VI), CaMoO4, InChI=1S/Ca.Mo.4O/q+2;;;;2*-1, purity 99.9988%

System: calcium molybdate(VI); phases: Crystal, Liquid, Air at 1 atmosphere
Property: Normal melting temperature, K (Crystal); method: DTA
Normal melting temperature, K	uncertainty
1750	8

System: calcium molybdate(VI); phases: Crystal, Liquid, Air at 1 atmosphere
Property: Molar enthalpy of transition or fusion, kJ/mol (Crystal); method: DSC
Molar enthalpy of transition or fusion, kJ/mol	uncertainty
102	12

System: calcium molybdate(VI); phases: Crystal
Fixed: Pressure, kPa = 101.325
Property: Molar heat capacity at constant pressure, J/K/mol (Crystal); method: Small sample (50 mg) DSC
Temperature, K	Molar heat capacity at constant pressure, J/K/mol	uncertainty
298.15	114.2	4.8
310	116.5	4.9
315	117.3	5
320	118.1	5
325	118.8	5
330	119.5	5.1
335	120.2	5.1
340	120.9	5.1
345	121.5	5.2
350	122.2	5.2
355	122.8	5.2
360	123.4	5.2
365	124	5.3
370	124.6	5.3
375	125.2	5.3
380	125.8	5.3
385	126.3	5.4
390	126.8	5.4
395	127.4	5.4
400	127.9	5.4
410	128.9	5.5
420	129.8	5.5
430	130.7	5.5
440	131.5	5.6
450	132.4	5.6
460	133.2	5.7
470	133.9	5.7
480	134.6	5.7
490	135.3	5.7
500	136	5.8
510	136.6	5.8
520	137.3	5.8
530	137.9	5.9
540	138.4	5.9
550	139	5.9
560	139.5	5.9
570	140	5.9
580	140.5	6
590	141	6
600	141.5	6
620	142.4	6
640	143.2	6.1
660	144	6.1
680	144.7	6.1
700	145.4	6.2
720	146.1	6.2
740	146.8	6.2
760	147.4	6.3
766	147.5	6.3

System: calcium molybdate(VI); phases: Crystal
Fixed: Pressure, kPa = 101.325
Property: Molar entropy, J/K/mol (Crystal); method: Small sample (50 mg) DSC
Temperature, K	Molar entropy, J/K/mol	uncertainty
298.15	122	7.8
310	126.5	8.1
315	128.4	8.2
320	130.3	8.3
325	132.1	8.4
330	133.9	8.5
335	135.7	8.6
340	137.5	8.8
345	139.3	8.9
350	141	9
355	142.8	9.1
360	144.5	9.2
365	146.2	9.3
370	147.9	9.4
375	149.6	9.5
380	151.2	9.6
385	152.9	9.7
390	154.5	9.8
395	156.1	9.9
400	157.7	10
410	160.9	10.2
420	164	10.4
430	167.1	10.6
440	170.1	10.8
450	173.1	11
460	176	11.2
470	178.8	11.4
480	181.7	11.6
490	184.5	11.7
500	187.2	11.9
510	189.9	12.1
520	192.6	12.3
530	195.2	12.4
540	197.8	12.6
550	200.3	12.7
560	202.8	12.9
570	205.3	13.1
580	207.7	13.2
590	210.1	13.4
600	212.5	13.5
620	217.2	13.8
640	221.7	14.1
660	226.1	14.4
680	230.4	14.7
700	234.6	14.9
720	238.7	15.2
740	242.8	15.5
760	246.7	15.7
766	247.8	15.8

System: calcium molybdate(VI); phases: Crystal
Fixed: Pressure, kPa = 101.325
Property: Molar enthalpy, kJ/mol (Crystal); method: Small sample (50 mg) DSC
Temperature, K	Molar enthalpy, kJ/mol	uncertainty
298.15	19.8	0.8
310	21.2	0.9
315	21.8	0.9
320	22.4	1
325	23	1
330	23.6	1
335	24.2	1
340	24.8	1.1
345	25.4	1.1
350	26	1.1
355	26.6	1.1
360	27.2	1.2
365	27.8	1.2
370	28.4	1.2
375	29.1	1.2
380	29.7	1.3
385	30.3	1.3
390	31	1.3
395	31.6	1.3
400	32.2	1.4
410	33.5	1.4
420	34.8	1.5
430	36.1	1.5
440	37.4	1.6
450	38.7	1.6
460	40.1	1.7
470	41.4	1.8
480	42.7	1.8
490	44.1	1.9
500	45.5	1.9
510	46.8	2
520	48.2	2
530	49.6	2.1
540	50.9	2.2
550	52.3	2.2
560	53.7	2.3
570	55.1	2.3
580	56.5	2.4
590	57.9	2.5
600	59.3	2.5
620	62.2	2.6
640	65	2.8
660	67.9	2.9
680	70.8	3
700	73.7	3.1
720	76.6	3.3
740	79.5	3.4
760	82.5	3.5
766	83.4	3.5

System: calcium molybdate(VI); phases: Crystal
Fixed: Pressure, kPa = 101.325
Property: Molar heat capacity at constant pressure, J/K/mol (Crystal); method: Small sample (50 mg) DSC
Temperature, K	Molar heat capacity at constant pressure, J/K/mol	uncertainty
317.4	117.7	5
318.4	118	5
319.4	118.2	5
320.4	118.4	5
321.4	118.5	5
322.4	118.6	5
323.4	118.8	5
324.4	118.9	5
325.4	119	5
326.4	119.1	5.1
327.4	119.2	5.1
328.4	119.4	5.1
329.4	119.5	5.1
330.4	119.6	5.1
331.4	119.7	5.1
332.4	119.8	5.1
333.4	120	5.1
334.4	120.1	5.1
335.4	120.3	5.1
336.4	120.4	5.1
337.4	120.6	5.1
338.4	120.7	5.1
339.4	120.9	5.1
340.4	121	5.1
341.4	121.1	5.1
342.4	121.2	5.1
343.4	121.4	5.2
344.4	121.5	5.2
345.4	121.6	5.2
346.4	121.8	5.2
347.4	122	5.2
348.4	122.3	5.2
349.4	122.6	5.2
350.4	122.6	5.2
351.4	122.6	5.2
352.4	122.5	5.2
353.4	122.5	5.2
354.4	122.6	5.2
355.4	122.7	5.2
356.4	123	5.2
357.4	123.2	5.2
358.4	123.4	5.2
359.4	123.5	5.2
360.4	123.6	5.2
361.4	123.7	5.2
362.4	123.8	5.3
363.4	123.9	5.3
364.4	124.1	5.3
365.4	124.2	5.3
366.4	124.3	5.3
367.4	124.4	5.3
369.4	124.6	5.3
370.4	124.7	5.3
371.4	124.8	5.3
372.4	125	5.3
373.4	125.1	5.3
374.4	125.2	5.3
375.4	125.3	5.3
376.4	125.4	5.3
377.4	125.6	5.3
378.4	125.7	5.3
379.4	125.9	5.3
380.4	126	5.3
381.4	126.1	5.4
382.4	126.2	5.4
383.4	126.3	5.4
384.4	126.3	5.4
385.4	126.4	5.4
386.4	126.4	5.4
387.4	126.5	5.4
388.4	126.6	5.4
389.4	126.8	5.4
390.4	126.9	5.4
391.4	127.1	5.4
392.4	127.2	5.4
393.4	127.3	5.4
394.4	127.4	5.4
395.4	127.5	5.4
396.4	127.5	5.4
397.4	127.6	5.4
398.4	127.6	5.4
399.4	127.7	5.4
400.4	127.8	5.4
401.4	127.9	5.4
402.4	128.1	5.4
403.4	128.2	5.4
404.4	128.3	5.4
405.4	128.5	5.5
406.4	128.6	5.5
407.4	128.7	5.5
408.4	128.7	5.5
409.4	128.8	5.5
410.4	128.9	5.5
411.4	129	5.5
412.4	129	5.5
413.4	129.1	5.5
414.4	129.2	5.5
415.4	129.4	5.5
416.4	129.5	5.5
417.4	129.6	5.5
418.4	129.7	5.5
419.4	129.8	5.5
420.4	129.9	5.5
421.4	130	5.5
422.4	130.1	5.5
423.4	130.2	5.5
424.4	130.3	5.5
425.4	130.4	5.5
426.4	130.5	5.5
427.4	130.6	5.5
428.4	130.7	5.5
429.4	130.7	5.5
430.4	130.8	5.5
431.4	130.8	5.5
432.4	130.8	5.5
433.4	130.9	5.6
434.4	130.9	5.6
435.4	131	5.6
436.4	131	5.6
437.4	131.1	5.6
438.4	131.2	5.6
439.4	131.3	5.6
440.4	131.4	5.6
441.4	131.5	5.6
442.4	131.6	5.6
443.4	131.7	5.6
444.4	131.7	5.6
445.4	131.8	5.6
446.4	132	5.6
447.4	132.1	5.6
448.4	132.2	5.6
449.4	132.3	5.6
450.4	132.4	5.6
451.4	132.5	5.6
452.4	132.5	5.6
453.4	132.6	5.6
454.4	132.7	5.6
455.4	132.7	5.6
456.4	132.8	5.6
457.4	132.9	5.6
458.4	133	5.6
459.4	133	5.6
460.4	133.1	5.6
461.4	133.2	5.7
462.4	133.3	5.7
463.4	133.4	5.7
464.4	133.5	5.7
465.4	133.6	5.7
466.4	133.6	5.7
467.4	133.7	5.7
468.4	133.8	5.7
469.4	133.9	5.7
470.4	134	5.7
471.4	134	5.7
472.4	134	5.7
473.4	134.1	5.7
474.4	134.1	5.7
475.4	134.1	5.7
476.4	134.2	5.7
477.4	134.2	5.7
478.4	134.4	5.7
479.4	134.5	5.7
480.4	134.6	5.7
481.4	134.7	5.7
482.4	134.8	5.7
483.4	134.9	5.7
484.4	135	5.7
485.4	135.1	5.7
486.4	135.2	5.7
487.4	135.2	5.7
488.4	135.3	5.7
489.4	135.4	5.7
490.4	135.4	5.7
491.4	135.5	5.7
492.4	135.5	5.7
493.4	135.5	5.7
494.4	135.5	5.7
495.4	135.5	5.7
496.4	135.6	5.8
497.4	135.6	5.8
498.4	135.7	5.8
499.4	135.8	5.8
500.4	135.9	5.8
501.4	136	5.8
502.4	136.1	5.8
503.4	136.2	5.8
504.4	136.2	5.8
505.4	136.3	5.8
506.4	136.3	5.8
507.4	136.4	5.8
508.4	136.5	5.8
509.4	136.6	5.8
510.4	136.6	5.8
511.4	136.7	5.8
512.4	136.8	5.8
513.4	136.9	5.8
514.4	137	5.8
515.4	137.1	5.8
516.4	137.1	5.8
517.4	137.2	5.8
518.4	137.3	5.8
519.4	137.3	5.8
520.4	137.4	5.8
521.4	137.5	5.8
368.4	124.5	5.3
522.4	137.6	5.8
523.4	137.7	5.8
524.4	137.7	5.8
525.4	137.8	5.8
526.4	137.8	5.8
527.4	137.9	5.9
528.4	137.9	5.9
529.4	138	5.9
530.4	138.1	5.9
531.4	138.1	5.9
532.4	138.2	5.9
533.4	138.2	5.9
534.4	138.3	5.9
535.4	138.3	5.9
536.4	138.4	5.9
537.4	138.5	5.9
538.4	138.5	5.9
539.4	138.6	5.9
540.4	138.7	5.9
541.4	138.7	5.9
542.4	138.8	5.9
543.4	138.8	5.9
544.4	138.9	5.9
545.4	138.9	5.9
546.4	139	5.9
547.4	139	5.9
548.4	139	5.9
549.4	139	5.9
550.4	139.1	5.9
551.4	139.1	5.9
552.4	139.2	5.9
553.4	139.2	5.9
554.4	139.3	5.9
555.4	139.3	5.9
556.4	139.4	5.9
557.4	139.5	5.9
558.4	139.5	5.9
559.4	139.6	5.9
560.4	139.7	5.9
561.4	139.7	5.9
562.4	139.8	5.9
563.4	139.8	5.9
564.4	139.9	5.9
565.4	139.9	5.9
566.4	139.9	5.9
567.4	139.9	5.9
568.4	140	5.9
569.4	140.1	5.9
570.4	140.2	5.9
571.4	140.2	5.9
572.4	140.3	6
573.4	140.3	6
575.4	140.4	6
576.4	140.5	6
577.4	140.6	6
578.4	140.7	6
579.4	140.7	6
580.4	140.8	6
581.4	140.8	6
582.4	140.8	6
583.4	140.9	6
584.4	140.9	6
585.4	141	6
586.4	141	6
587.4	141	6
588.4	141	6
589.4	141	6
590.4	141.1	6
591.4	141.2	6
592.4	141.2	6
593.4	141.2	6
594.4	141.2	6
595.4	141.2	6
596.4	141.2	6
597.4	141.3	6
598.4	141.3	6
599.4	141.3	6
600.4	141.3	6
601.4	141.4	6
602.4	141.4	6
603.4	141.4	6
604.4	141.4	6
605.4	141.4	6
606.4	141.5	6
607.4	141.5	6
608.4	141.5	6
609.4	141.5	6
610.4	141.5	6
611.4	141.5	6
612.4	141.5	6
613.4	141.6	6
614.4	141.6	6
615.4	141.6	6
616.4	141.6	6
617.4	141.6	6
618.4	141.6	6
619.4	141.5	6
620.4	141.5	6
621.4	141.4	6
622.4	141.5	6
623.4	141.5	6
624.4	141.6	6
625.4	141.6	6
626.4	141.7	6
627.4	141.7	6
628.4	141.7	6
629.4	141.8	6
630.4	141.8	6
631.4	141.9	6
632.4	142.1	6
633.4	142.2	6
634.4	142.3	6
635.4	142.3	6
636.4	142.4	6
637.4	142.4	6
638.4	142.4	6
639.4	142.5	6
640.4	142.6	6.1
641.4	142.7	6.1
642.4	142.8	6.1
643.4	142.8	6.1
644.4	142.9	6.1
645.4	142.9	6.1
646.4	143	6.1
647.4	143	6.1
648.4	143	6.1
649.4	143.1	6.1
650.4	143.2	6.1
651.4	143.2	6.1
652.4	143.3	6.1
653.4	143.4	6.1
654.4	143.4	6.1
655.4	143.5	6.1
656.4	143.6	6.1
657.4	143.6	6.1
658.4	143.7	6.1
659.4	143.8	6.1
660.4	143.8	6.1
661.4	143.9	6.1
662.4	144	6.1
663.4	144	6.1
664.4	144.1	6.1
665.4	144.2	6.1
666.4	144.2	6.1
667.4	144.3	6.1
668.4	144.3	6.1
669.4	144.4	6.1
670.4	144.4	6.1
671.4	144.4	6.1
672.4	144.5	6.1
673.4	144.5	6.1
674.4	144.5	6.1
675.4	144.5	6.1
676.4	144.6	6.1
677.4	144.6	6.1
678.4	144.7	6.1
679.4	144.8	6.1
680.4	144.9	6.1
681.4	144.9	6.1
682.4	145	6.2
683.4	145.1	6.2
684.4	145.2	6.2
685.4	145.3	6.2
686.4	145.3	6.2
687.4	145.4	6.2
688.4	145.4	6.2
689.4	145.5	6.2
690.4	145.5	6.2
691.4	145.6	6.2
692.4	145.6	6.2
693.4	145.7	6.2
694.4	145.8	6.2
695.4	145.8	6.2
696.4	145.9	6.2
697.4	145.9	6.2
698.4	145.9	6.2
699.4	145.9	6.2
700.4	145.9	6.2
701.4	145.9	6.2
702.4	145.9	6.2
703.4	145.9	6.2
704.4	145.9	6.2
705.4	145.9	6.2
706.4	145.8	6.2
707.4	145.8	6.2
708.4	145.8	6.2
709.4	145.9	6.2
710.4	145.9	6.2
711.4	145.9	6.2
712.4	146	6.2
713.4	146	6.2
714.4	146	6.2
715.4	146	6.2
716.4	146.1	6.2
717.4	146.2	6.2
718.4	146.2	6.2
719.4	146.3	6.2
720.4	146.3	6.2
721.4	146.3	6.2
722.4	146.3	6.2
723.4	146.4	6.2
724.4	146.4	6.2
725.4	146.5	6.2
726.4	146.5	6.2
727.4	146.6	6.2
574.4	140.4	6
728.4	146.6	6.2
729.4	146.6	6.2
730.4	146.7	6.2
731.4	146.7	6.2
732.4	146.7	6.2
733.4	146.7	6.2
734.4	146.7	6.2
735.4	146.7	6.2
736.4	146.7	6.2
737.4	146.7	6.2
738.4	146.8	6.2
739.4	146.9	6.2
740.4	147	6.2
741.4	147	6.2
742.4	147.1	6.2
743.4	147.1	6.2
744.4	147.1	6.2
745.4	147.2	6.2
746.4	147.2	6.2
747.4	147.3	6.2
748.4	147.3	6.2
749.4	147.3	6.2
750.4	147.3	6.2
751.4	147.4	6.3
752.4	147.4	6.3
753.4	147.4	6.3
754.4	147.5	6.3
755.4	147.5	6.3
756.4	147.6	6.3
757.4	147.7	6.3
758.4	147.7	6.3
759.4	147.8	6.3
760.4	147.8	6.3
761.4	147.8	6.3
762.4	147.7	6.3
763.4	147.7	6.3
764.4	147.7	6.3
765.4	147.8	6.3
766.4	147.9	6.3

System: calcium molybdate(VI); phases: Crystal
Fixed: Pressure, kPa = 101.325
Property: Molar heat capacity at constant pressure, J/K/mol (Crystal); method: Small sample (50 mg) DSC
Temperature, K	Molar heat capacity at constant pressure, J/K/mol	uncertainty
255.5	107.3	4.6
255.9	107.4	4.6
256.9	107.5	4.6
257.9	107.6	4.6
258.9	107.7	4.6
259.9	107.8	4.6
260.9	107.8	4.6
261.9	107.9	4.6
262.9	108	4.6
263.9	108.2	4.6
264.9	108.3	4.6
265.9	108.4	4.6
266.9	108.6	4.6
267.9	108.8	4.6
268.9	109	4.6
269.9	109.2	4.6
270.9	109.4	4.6
272	109.6	4.7
273	109.8	4.7
274	110	4.7
275	110.3	4.7
276	110.5	4.7
277	110.7	4.7
278	111	4.7
279	111.2	4.7
280	111.5	4.7
281	111.6	4.7
282	111.8	4.7
283	112	4.8
284	112.2	4.8
285	112.3	4.8
286	112.5	4.8
287	112.7	4.8
288	112.9	4.8
289	113	4.8
290.1	113.2	4.8
291.1	113.4	4.8
292.1	113.6	4.8
293.1	113.8	4.8
294.1	114	4.8
295.1	114.1	4.8
296.1	114.3	4.9
297.1	114.5	4.9
298.1	114.6	4.9
299.1	114.8	4.9
300.1	115	4.9
301.1	115.1	4.9
302.1	115.3	4.9
303.1	115.4	4.9
304.1	115.6	4.9
305.1	115.7	4.9
306.1	115.9	4.9
307.1	116.1	4.9
308.2	116.2	4.9
309.2	116.4	4.9
310.2	116.5	4.9
311.2	116.7	5
312.2	116.8	5
313.2	116.9	5
314.2	117.1	5
315.2	117.3	5
316.2	117.4	5
317.2	117.6	5
318.2	117.8	5
319.2	117.9	5
320.2	118.1	5
321.2	118.3	5
322.2	118.5	5
323.2	118.6	5
324.2	118.7	5
325.2	118.8	5
326.2	119	5
327.2	119.1	5.1
328.2	119.2	5.1
329.2	119.3	5.1
330.2	119.5	5.1
331.3	119.7	5.1
332.3	119.9	5.1
333.3	120	5.1
334.3	120.1	5.1
335.3	120.2	5.1
336.3	120.3	5.1
337.3	120.5	5.1
338.3	120.6	5.1
339.3	120.7	5.1
340.3	120.8	5.1
341.3	121	5.1
342.3	121.2	5.1
343.3	121.4	5.2
344.3	121.5	5.2
345.3	121.7	5.2
346.3	121.8	5.2
347.3	121.9	5.2
348.3	122	5.2
349.3	122.1	5.2
350.3	122.2	5.2
351.3	122.3	5.2
352.3	122.4	5.2
353.3	122.5	5.2
354.3	122.7	5.2
355.3	122.8	5.2
356.3	122.9	5.2
357.3	123.1	5.2
358.3	123.3	5.2
359.3	123.4	5.2
360.3	123.6	5.2
361.4	123.7	5.2
362.4	123.8	5.3
363.4	123.9	5.3
364.4	124	5.3
365.4	124.1	5.3
366.4	124.2	5.3
367.4	124.3	5.3
368.4	124.4	5.3
369.4	124.6	5.3
370.4	124.7	5.3
371.4	124.9	5.3
372.4	125	5.3
373.4	125.1	5.3
374.4	125.2	5.3
375.4	125.3	5.3
376.4	125.4	5.3
377.4	125.5	5.3
378.4	125.5	5.3
379.4	125.6	5.3
380.4	125.7	5.3
381.4	125.8	5.3
382.4	125.9	5.3
383.4	126	5.3
384.4	126.2	5.4
385.4	126.3	5.4
386.4	126.4	5.4
387.4	126.5	5.4
388.4	126.7	5.4
389.4	126.8	5.4
390.4	126.8	5.4
391.5	126.9	5.4
392.5	127	5.4
393.5	127.1	5.4
394.5	127.2	5.4
395.5	127.3	5.4
396.5	127.4	5.4
397.5	127.6	5.4
398.5	127.7	5.4
399.5	127.8	5.4
400.5	127.9	5.4
401.5	128	5.4
402.5	128.1	5.4
403.5	128.2	5.4
404.5	128.3	5.4
405.5	128.3	5.4
406.5	128.4	5.4
407.5	128.5	5.5
408.5	128.6	5.5
409.5	128.7	5.5
410.5	128.8	5.5
411.5	128.9	5.5
412.5	129	5.5
413.5	129.1	5.5
414.5	129.2	5.5
415.5	129.3	5.5
416.5	129.4	5.5
417.5	129.5	5.5
418.5	129.6	5.5
419.5	129.7	5.5
420.5	129.8	5.5
421.5	129.9	5.5
422.5	130	5.5
423.5	130.1	5.5
424.6	130.1	5.5
425.6	130.2	5.5
426.6	130.3	5.5
427.6	130.4	5.5
428.6	130.5	5.5
429.6	130.7	5.5
430.6	130.9	5.6
431.6	131	5.6
432.6	131.1	5.6
433.6	131.2	5.6
434.6	131.3	5.6
435.6	131.3	5.6
436.6	131.3	5.6
437.6	131.4	5.6
438.6	131.4	5.6
439.6	131.4	5.6
440.6	131.5	5.6
441.6	131.6	5.6
442.6	131.7	5.6
443.6	131.9	5.6
444.6	132	5.6
445.6	132.2	5.6
446.6	132.3	5.6
447.6	132.4	5.6
448.6	132.5	5.6
449.6	132.6	5.6
450.6	132.6	5.6
451.6	132.6	5.6
452.6	132.7	5.6
453.6	132.7	5.6
454.6	132.7	5.6
455.6	132.7	5.6
456.6	132.7	5.6
457.6	132.8	5.6
458.7	132.9	5.6
459.7	133.1	5.6
460.7	133.2	5.7
461.7	133.4	5.7
462.7	133.5	5.7
463.7	133.6	5.7
464.7	133.7	5.7
465.7	133.7	5.7
466.7	133.8	5.7
467.7	133.8	5.7
468.7	133.9	5.7
469.7	133.9	5.7
470.7	133.9	5.7
471.7	134	5.7
472.7	134.1	5.7
473.7	134.2	5.7
474.7	134.3	5.7
475.7	134.4	5.7
476.7	134.4	5.7
477.7	134.4	5.7
478.7	134.5	5.7
479.7	134.6	5.7
480.7	134.7	5.7
481.7	134.7	5.7
482.7	134.7	5.7
483.7	134.8	5.7
484.7	134.9	5.7
485.7	135	5.7
486.7	135.1	5.7
487.7	135.1	5.7
488.7	135.2	5.7
489.7	135.2	5.7
490.7	135.3	5.7
491.7	135.4	5.7
492.7	135.6	5.8
493.8	135.7	5.8
494.8	135.7	5.8
495.8	135.8	5.8
496.8	135.8	5.8
497.8	135.9	5.8
498.8	136	5.8
499.8	136	5.8
500.8	136.1	5.8
501.8	136.1	5.8
502.8	136.1	5.8
503.8	136.2	5.8
504.8	136.2	5.8
505.8	136.3	5.8
506.8	136.4	5.8
507.8	136.5	5.8
508.8	136.5	5.8
509.8	136.5	5.8
510.8	136.6	5.8
511.8	136.7	5.8
512.8	136.8	5.8
513.8	136.9	5.8
514.8	136.9	5.8
515.8	137	5.8
516.8	137	5.8
517.8	137.1	5.8
518.8	137.2	5.8
519.8	137.3	5.8
520.8	137.3	5.8
521.8	137.4	5.8
522.8	137.5	5.8
523.8	137.6	5.8
524.8	137.6	5.8
525.8	137.7	5.8
526.8	137.7	5.8
527.8	137.7	5.8
528.9	137.8	5.8
529.9	137.8	5.8
530.9	137.8	5.8
531.9	137.8	5.8
532.9	137.9	5.9
533.9	138	5.9
534.9	138.1	5.9
535.9	138.2	5.9
536.9	138.3	5.9
537.9	138.4	5.9
538.9	138.5	5.9
539.9	138.7	5.9
540.9	138.8	5.9
541.9	138.8	5.9
542.9	138.8	5.9
543.9	138.9	5.9
544.9	138.9	5.9
545.9	138.9	5.9
546.9	138.9	5.9
547.9	139	5.9
548.9	139.1	5.9
549.9	139.2	5.9
550.9	139.3	5.9
551.9	139.5	5.9
552.9	139.6	5.9
553.9	139.7	5.9
554.9	139.8	5.9
555.9	139.8	5.9
556.9	139.8	5.9
557.9	139.8	5.9
558.9	139.8	5.9
559.9	139.9	5.9
560.9	139.9	5.9
561.9	140	5.9
562.9	140.2	5.9
563.9	140.4	6
564.9	140.6	6
565.9	140.7	6
566.9	140.8	6
568	140.8	6
569	140.9	6
570	141	6
571	141	6
572	141	6
573	141	6
574	141.1	6
575	141.2	6
576	141.2	6
577	141.3	6
578	141.3	6
579	141.2	6
580	141.2	6
581	141.2	6
582	141.3	6
583	141.3	6
584	141.4	6
585	141.6	6
586	141.7	6
587	141.8	6
588	141.9	6
589	142	6
590	142.1	6
591	142.1	6
592	142	6
593	142	6
594	142	6
595	142	6
596	142.1	6
597	142.1	6
598	142.2	6
599	142.2	6
600	142.3	6
601	142.4	6
602	142.4	6
603	142.5	6
604.1	142.4	6
605.1	142.4	6
606.1	142.4	6
607.1	142.5	6
608.1	142.5	6
609.1	142.6	6.1
610.1	142.7	6.1
611.1	142.7	6.1
612.1	142.7	6.1
613.1	142.8	6.1
614.1	142.8	6.1
615.1	142.8	6.1
616.1	142.9	6.1
617.1	142.9	6.1
618.1	142.9	6.1
619.1	143	6.1
620.1	143.1	6.1
621.1	143.2	6.1
622.1	143.2	6.1
623.1	143.3	6.1
624.1	143.3	6.1
624.5	143.3	6.1
