Measured thermophysical data. Dependency of thermal conductivity on the temperature and composition of  d-camphor in the neopentylglycol d-camphor alloys
Source: Thermochim. Acta, 2012, 10.1016/j.tca.2011.12.021
Compound 1: 2,2-dimethyl-1,3-propanediol, C5H12O2, InChI=1S/C5H12O2/c1-5(2,3-6)4-7/h6-7H,3-4H2,1-2H3
Compound 2: d-camphor, C10H16O, InChI=1S/C10H16O/c1-9(2)7-4-5-10(9,3)8(11)6-7/h7H,4-6H2,1-3H3/t7-,10+/m1/s1

System: 2,2-dimethyl-1,3-propanediol; phases: Crystal
Fixed: Pressure, kPa = 101.3
Property: Thermal conductivity, W/m/K (Crystal); method: Hot wire method
Temperature, K	Thermal conductivity, W/m/K	uncertainty
323	0.4	0.01
333	0.38	0.01
343	0.36	0.01
353	0.33	0.01
363	0.32	0.01
373	0.29	0.01
383	0.3	0.01
393	0.31	0.01

System: 2,2-dimethyl-1,3-propanediol + d-camphor; phases: Crystal
Fixed: Pressure, kPa = 101
Property: Thermal conductivity, W/m/K (Crystal); method: Hot wire method
Mass fraction of d-camphor	Temperature, K	Thermal conductivity, W/m/K	uncertainty
0	323	0.4	0.01
0	333	0.38	0.01
0	343	0.36	0.01
0	353	0.33	0.01
0	363	0.32	0.01
0	373	0.29	0.01
0	383	0.3	0.01
0	393	0.31	0.01
0.03	303	0.38	0.01
0.03	313	0.37	0.01
0.03	323	0.36	0.01
0.03	333	0.35	0.01
0.03	343	0.34	0.01
0.03	353	0.32	0.01
0.3	303	0.37	0.01
0.3	308	0.36	0.01
0.3	313	0.35	0.01
0.3	318	0.34	0.01
0.3	323	0.33	0.01
0.3	328	0.32	0.01
0.3	333	0.31	0.01
0.7	298	0.35	0.01
0.7	303	0.34	0.01
0.7	308	0.34	0.01
0.7	313	0.33	0.01
0.7	315	0.33	0.01
0.7	317	0.33	0.01
0.7	319	0.32	0.01
0.7	321	0.32	0.01
0.7	323	0.32	0.01
0.7	325	0.31	0.01
0.7	328	0.31	0.01
0.7	333	0.31	0.01
0.7	338	0.31	0.01
0.7	343	0.31	0.01
0.7	348	0.3	0.01
0.7	353	0.3	0.01
0.7	358	0.29	0.01
0.7	363	0.28	0.01
0.96	303	0.3	0.01
0.96	313	0.3	0.01
0.96	323	0.3	0.01
0.96	333	0.29	0.01
0.96	343	0.29	0.01
0.96	353	0.29	0.01
0.96	363	0.28	0.01
0.96	373	0.28	0.01
0.96	383	0.28	0.01
0.96	393	0.27	0.01
0.96	403	0.27	0.01
0.96	413	0.26	0.01
0.96	423	0.26	0.01
0.96	433	0.25	0.01
