Measured thermophysical data. Dielectric relaxation and thermodynamic study of polyhydric sugar alcohols in DMSO using TDR technique
Source: Thermochim. Acta, 2017, 10.1016/j.tca.2017.03.018
Compound 1: dimethyl sulfoxide, C2H6OS, InChI=1S/C2H6OS/c1-4(2)3/h1-2H3
Compound 2: meso-1,2,3,4-butanetetrol, C4H10O4, InChI=1S/C4H10O4/c5-1-3(7)4(8)2-6/h3-8H,1-2H2/t3-,4+
Compound 3: xylitol, C5H12O5, InChI=1S/C5H12O5/c6-1-3(8)5(10)4(9)2-7/h3-10H,1-2H2/t3-,4+,5+
Compound 4: mannitol, C6H14O6, InChI=1S/C6H14O6/c7-1-3(9)5(11)6(12)4(10)2-8/h3-12H,1-2H2/t3-,4-,5-,6-/m1/s1

System: dimethyl sulfoxide; phases: Liquid
Fixed: Pressure, kPa = 100
Property: Relative permittivity at zero frequency (Liquid); method: time-domain reflectometry
Temperature, K	Relative permittivity at zero frequency	uncertainty
298.15	47.3	0.95
293.15	47.81	0.96
288.15	49.42	0.99
283.15	50.58	1.01

System: dimethyl sulfoxide + meso-1,2,3,4-butanetetrol; phases: Liquid
Fixed: Pressure, kPa = 100
Property: Relative permittivity at zero frequency (Liquid); method: time-domain reflectometry
Temperature, K	Mass fraction of meso-1,2,3,4-butanetetrol	Relative permittivity at zero frequency	uncertainty
298.15	0	47.3	0.95
298.15	0.05	47.78	0.96
298.15	0.1	48.96	0.98
298.15	0.15	50.43	1.01
298.15	0.2	52.23	1.05
298.15	0.25	52.77	1.06
293.15	0	47.81	0.96
293.15	0.05	48.57	0.97
293.15	0.1	50.49	1.01
293.15	0.15	51.35	1.03
293.15	0.2	53.36	1.07
293.15	0.25	54.3	1.09
288.15	0	49.42	0.99
288.15	0.05	50.01	1
288.15	0.1	51.84	1.04
288.15	0.15	52.87	1.06
288.15	0.2	54.96	1.1
288.15	0.25	55.78	1.12
283.15	0	50.58	1.01
283.15	0.05	51.26	1.03
283.15	0.1	54.06	1.08
283.15	0.15	55.7	1.12
283.15	0.2	57.23	1.15
283.15	0.25	58.96	1.19

System: dimethyl sulfoxide + xylitol; phases: Liquid
Fixed: Pressure, kPa = 100
Property: Relative permittivity at zero frequency (Liquid); method: time-domain reflectometry
Temperature, K	Mass fraction of xylitol	Relative permittivity at zero frequency	uncertainty
298.15	0	47.3	0.95
298.15	0.05	48.1	0.96
298.15	0.1	49.63	0.99
298.15	0.15	51.6	1.03
298.15	0.2	53.03	1.06
298.15	0.25	53.69	1.07
293.15	0	47.81	0.96
293.15	0.05	49.39	0.99
293.15	0.1	50.11	1
293.15	0.15	52.45	1.05
293.15	0.2	53.97	1.08
293.15	0.25	54.23	1.09
288.15	0	49.42	0.99
288.15	0.05	50.33	1.01
288.15	0.1	51.31	1.03
288.15	0.15	53.72	1.08
288.15	0.2	55.28	1.11
288.15	0.25	55.18	1.11
283.15	0	50.58	1.01
283.15	0.05	52.53	1.05
283.15	0.1	53.28	1.07
283.15	0.15	56.35	1.13
283.15	0.2	58.46	1.17
283.15	0.25	58.08	1.17

System: dimethyl sulfoxide + mannitol; phases: Liquid
Fixed: Pressure, kPa = 100
Property: Relative permittivity at zero frequency (Liquid); method: time-domain reflectometry
Temperature, K	Mass fraction of mannitol	Relative permittivity at zero frequency	uncertainty
298.15	0	47.3	0.95
298.15	0.05	48.89	0.98
298.15	0.1	50.27	1.01
298.15	0.15	52.18	1.04
293.15	0	47.81	0.96
293.15	0.05	49.49	0.99
293.15	0.1	51.48	1.03
293.15	0.15	53.15	1.06
288.15	0	49.42	0.99
288.15	0.05	50.82	1.02
288.15	0.1	52.92	1.06
288.15	0.15	55.37	1.11
283.15	0	50.58	1.01
283.15	0.05	52.35	1.05
283.15	0.1	55.31	1.11
283.15	0.15	56.79	1.14
