Measured thermophysical data. DSC study of the system o-acetylsalicylic acid-caffeine and thermodynamic modelling of the system o-acetylsalicylic acid-caffeine-paracetamol
Source: Thermochim. Acta, 2019, 10.1016/j.tca.2019.02.007
Compound 1: 2-acetoxybenzoic acid, C9H8O4, InChI=1S/C9H8O4/c1-6(10)13-8-5-3-2-4-7(8)9(11)12/h2-5H,1H3,(H,11,12)
Compound 2: caffeine, C8H10N4O2, InChI=1S/C8H10N4O2/c1-10-4-9-6-5(10)7(13)12(3)8(14)11(6)2/h4H,1-3H3
Compound 3: benzoic acid, C7H6O2, InChI=1S/C7H6O2/c8-7(9)6-4-2-1-3-5-6/h1-5H,(H,8,9), purity 99.9996%

System: 2-acetoxybenzoic acid; phases: Crystal, Liquid, Air at 1 atmosphere
Property: Normal melting temperature, K (Crystal); method: DTA:corrimp
Normal melting temperature, K	uncertainty
412.4	1.5

System: 2-acetoxybenzoic acid; phases: Crystal, Liquid, Air at 1 atmosphere
Property: Molar enthalpy of transition or fusion, kJ/mol (Crystal); method: DSC
Molar enthalpy of transition or fusion, kJ/mol	uncertainty
33.81	2.4

System: caffeine; phases: Crystal 2, Crystal 1, Air at 1 atmosphere
Property: Triple point temperature, K (Crystal 2); method: DSC
Triple point temperature, K	uncertainty
420.3	1.1

System: caffeine; phases: Crystal 2, Crystal 1, Air at 1 atmosphere
Property: Molar enthalpy of transition or fusion, kJ/mol (Crystal 2); method: DSC
Molar enthalpy of transition or fusion, kJ/mol	uncertainty
3.99	0.31

System: caffeine; phases: Crystal 1, Liquid, Air at 1 atmosphere
Property: Normal melting temperature, K (Crystal 1); method: DTA:corrimp
Normal melting temperature, K	uncertainty
508.4	1.3

System: caffeine; phases: Crystal 1, Liquid, Air at 1 atmosphere
Property: Molar enthalpy of transition or fusion, kJ/mol (Crystal 1); method: DSC
Molar enthalpy of transition or fusion, kJ/mol	uncertainty
20.9	2.24

System: benzoic acid; phases: Crystal, Liquid, Air at 1 atmosphere
Property: Normal melting temperature, K (Crystal); method: DTA:corrimp
Normal melting temperature, K	uncertainty
395.6	0.5

System: benzoic acid; phases: Crystal, Liquid, Air at 1 atmosphere
Property: Molar enthalpy of transition or fusion, kJ/mol (Crystal); method: DSC
Molar enthalpy of transition or fusion, kJ/mol	uncertainty
18.097	0.552

System: 2-acetoxybenzoic acid + caffeine; phases: Crystal, Crystal, Liquid, Air at 1 atmosphere
Property: Eutectic temperature, K (Crystal); method: DTA
Eutectic temperature, K	uncertainty
379.9	1.1

System: 2-acetoxybenzoic acid + caffeine; phases: Liquid, Crystal
Fixed: Pressure, kPa = 100
Property: Solid-liquid equilibrium temperature, K (Liquid); method: DTA
Mole fraction of caffeine	Solid-liquid equilibrium temperature, K	uncertainty
0	412.4	2
0.046	411.5	2
0.046	412.4	2
0.095	407.2	2
0.095	407.8	2
0.188	399.4	2
0.188	399.9	2

System: 2-acetoxybenzoic acid + caffeine; phases: Liquid, Crystal 1
Fixed: Pressure, kPa = 100
Property: Solid-liquid equilibrium temperature, K (Liquid); method: DTA
Mole fraction of caffeine	Solid-liquid equilibrium temperature, K	uncertainty
0.481	433.7	4
0.581	453.8	4
0.581	453.8	4
0.684	470.7	4
0.684	465.6	4
0.787	488.2	4
0.787	487.7	4
0.889	496.4	4
0.889	496.2	4
0.946	504.5	4
1	508.4	4
