Measured thermophysical data. Thermodynamic properties of binary mixtures of tetrahydropyran with pyridine  and isomeric picolines: Excess molar volumes, excess molar enthalpies and excess  isentropic compressibilities
Source: Thermochim. Acta, 2011, 10.1016/j.tca.2011.02.002
Compound 1: tetrahydropyran, C5H10O, InChI=1S/C5H10O/c1-2-4-6-5-3-1/h1-5H2, purity 98%
Compound 2: pyridine, C5H5N, InChI=1S/C5H5N/c1-2-4-6-5-3-1/h1-5H, purity 99%
Compound 3: 2-methylpyridine, C6H7N, InChI=1S/C6H7N/c1-6-4-2-3-5-7-6/h2-5H,1H3, purity 98%
Compound 4: 3-methylpyridine, C6H7N, InChI=1S/C6H7N/c1-6-3-2-4-7-5-6/h2-5H,1H3, purity 98%
Compound 5: 4-methylpyridine, C6H7N, InChI=1S/C6H7N/c1-6-2-4-7-5-3-6/h2-5H,1H3, purity 99%

System: tetrahydropyran; phases: Liquid
Fixed: Pressure, kPa = 101
Property: Speed of sound, m/s (Liquid); method: UNKNOWN
Temperature, K	Speed of sound, m/s	uncertainty
298.15	1269.88	2.05
303.15	1246.83	2.05
308.15	1224.47	2.05

System: tetrahydropyran; phases: Liquid
Fixed: Pressure, kPa = 101
Property: Mass density, kg/m3 (Liquid); method: Vibrating tube method
Temperature, K	Mass density, kg/m3	uncertainty
298.15	879.136	0.906
303.15	873.992	0.899
308.15	868.831	0.892

System: pyridine; phases: Liquid
Fixed: Pressure, kPa = 101
Property: Speed of sound, m/s (Liquid); method: UNKNOWN
Temperature, K	Speed of sound, m/s	uncertainty
298.15	1417.61	1.08
303.15	1397.37	1.08
308.15	1377.11	1.08

System: pyridine; phases: Liquid
Fixed: Pressure, kPa = 101
Property: Mass density, kg/m3 (Liquid); method: Vibrating tube method
Temperature, K	Mass density, kg/m3	uncertainty
298.15	978.249	0.296
303.15	973.224	0.296
308.15	968.166	0.296

System: 2-methylpyridine; phases: Liquid
Fixed: Pressure, kPa = 101
Property: Speed of sound, m/s (Liquid); method: UNKNOWN
Temperature, K	Speed of sound, m/s	uncertainty
298.15	1380.12	2
303.15	1361.02	2
308.15	1339.89	2

System: 2-methylpyridine; phases: Liquid
Fixed: Pressure, kPa = 101
Property: Mass density, kg/m3 (Liquid); method: Vibrating tube method
Temperature, K	Mass density, kg/m3	uncertainty
298.15	939.802	0.99
303.15	935.117	0.983
308.15	930.414	0.977

System: 3-methylpyridine; phases: Liquid
Fixed: Pressure, kPa = 101
Property: Speed of sound, m/s (Liquid); method: UNKNOWN
Temperature, K	Speed of sound, m/s	uncertainty
298.15	1424.01	2
303.15	1404.05	2
308.15	1384.03	2

System: 3-methylpyridine; phases: Liquid
Fixed: Pressure, kPa = 101
Property: Mass density, kg/m3 (Liquid); method: Vibrating tube method
Temperature, K	Mass density, kg/m3	uncertainty
298.15	952.002	1.008
303.15	947.449	1.001
308.15	942.831	0.995

System: 4-methylpyridine; phases: Liquid
Fixed: Pressure, kPa = 101
Property: Speed of sound, m/s (Liquid); method: UNKNOWN
Temperature, K	Speed of sound, m/s	uncertainty
298.15	1431.5	1
303.15	1410.67	1
308.15	1389.89	1

System: 4-methylpyridine; phases: Liquid
Fixed: Pressure, kPa = 101
Property: Mass density, kg/m3 (Liquid); method: Vibrating tube method
Temperature, K	Mass density, kg/m3	uncertainty
298.15	950.179	0.296
303.15	945.413	0.296
308.15	940.821	0.296

System: pyridine + tetrahydropyran; phases: Liquid
Fixed: Pressure, kPa = 101
Fixed: Temperature, K = 308.15
Property: Excess molar enthalpy (molar enthalpy of mixing), kJ/mol (Liquid); method: 2-drop calorimeter (CSC 4600_
Mole fraction of tetrahydropyran	Excess molar enthalpy (molar enthalpy of mixing), kJ/mol	uncertainty
0.0552	0.0132	0.0011
0.1006	0.0262	0.0013
0.1525	0.0424	0.0014
0.2014	0.0588	0.0016
0.2915	0.0898	0.0019
0.3462	0.1064	0.0021
0.3871	0.1212	0.0022
0.4217	0.1314	0.0023
0.4853	0.1453	0.0025
0.5363	0.1573	0.0026
0.5802	0.1621	0.0026
0.6461	0.1631	0.0026
0.6864	0.1636	0.0026
0.7344	0.1564	0.0026
0.7856	0.1428	0.0024
0.8315	0.1246	0.0023
0.8911	0.0918	0.0019
0.9347	0.0582	0.0016

System: pyridine + tetrahydropyran; phases: Liquid
Fixed: Pressure, kPa = 101
Property: Speed of sound, m/s (Liquid); method: UNKNOWN
Temperature, K	Mole fraction of tetrahydropyran	Speed of sound, m/s	uncertainty
298.15	0	1417.61	1.08
298.15	0.0427	1411.86	1.12
298.15	0.1021	1403.64	1.18
298.15	0.1883	1391.41	1.26
298.15	0.2415	1383.71	1.31
298.15	0.2853	1377.39	1.36
298.15	0.3438	1368.76	1.42
298.15	0.3742	1364.19	1.44
298.15	0.4263	1356.48	1.5
298.15	0.4642	1350.74	1.53
298.15	0.5364	1339.81	1.6
298.15	0.5721	1334.38	1.64
298.15	0.6283	1325.82	1.69
298.15	0.6872	1316.86	1.75
298.15	0.7336	1309.84	1.79
298.15	0.7823	1302.46	1.84
298.15	0.8351	1294.44	1.89
298.15	0.8752	1288.46	1.93
298.15	0.9354	1279.46	1.99
298.15	1	1269.88	2.05
303.15	0	1397.37	1.08
303.15	0.0427	1391.42	1.12
303.15	0.1021	1382.91	1.18
303.15	0.1883	1370.21	1.26
303.15	0.2415	1362.22	1.31
303.15	0.2853	1355.58	1.36
303.15	0.3438	1346.67	1.41
303.15	0.3742	1342.11	1.44
303.15	0.4263	1334.03	1.49
303.15	0.4642	1328.19	1.53
303.15	0.5364	1317.07	1.6
303.15	0.5721	1311.58	1.64
303.15	0.6283	1302.93	1.69
303.15	0.6872	1293.91	1.75
303.15	0.7336	1286.86	1.79
303.15	0.7823	1279.45	1.84
303.15	0.8351	1271.47	1.89
303.15	0.8752	1265.41	1.93
303.15	0.9354	1256.43	1.99
303.15	1	1246.83	2.05
308.15	0	1377.11	1.08
308.15	0.0427	1370.94	1.12
308.15	0.1021	1362.28	1.18
308.15	0.1883	1349.36	1.26
308.15	0.2415	1341.09	1.31
308.15	0.2853	1334.35	1.35
308.15	0.3438	1325.41	1.41
308.15	0.3742	1320.64	1.44
308.15	0.4263	1312.48	1.49
308.15	0.4642	1306.66	1.53
308.15	0.5364	1295.36	1.6
308.15	0.5721	1289.82	1.63
308.15	0.6283	1281.08	1.69
308.15	0.6872	1271.93	1.74
308.15	0.7336	1264.73	1.79
308.15	0.7823	1257.29	1.84
308.15	0.8351	1249.19	1.89
308.15	0.8752	1243.09	1.93
308.15	0.9354	1234.08	1.99
308.15	1	1224.47	2.05

System: pyridine + tetrahydropyran; phases: Liquid
Fixed: Pressure, kPa = 101
Property: Mass density, kg/m3 (Liquid); method: Vibrating tube method
Temperature, K	Mole fraction of tetrahydropyran	Mass density, kg/m3	uncertainty
298.15	0	978.249	0.296
298.15	0.0427	973.663	0.317
298.15	0.1021	967.309	0.348
298.15	0.1883	958.157	0.394
298.15	0.2415	952.565	0.424
298.15	0.2853	948.002	0.449
298.15	0.3438	941.972	0.483
298.15	0.3742	938.871	0.501
298.15	0.4263	933.597	0.532
298.15	0.4642	929.793	0.555
298.15	0.5364	922.65	0.599
298.15	0.5721	919.167	0.621
298.15	0.6283	913.73	0.657
298.15	0.6872	908.097	0.695
298.15	0.7336	903.711	0.725
298.15	0.7823	899.149	0.757
298.15	0.8351	894.248	0.792
298.15	0.8752	890.543	0.82
298.15	0.9354	885.027	0.861
298.15	1	879.136	0.906
303.15	0	973.224	0.296
303.15	0.0427	968.634	0.317
303.15	0.1021	962.276	0.347
303.15	0.1883	953.12	0.393
303.15	0.2415	947.532	0.422
303.15	0.2853	942.969	0.447
303.15	0.3438	936.936	0.481
303.15	0.3742	933.829	0.499
303.15	0.4263	928.553	0.53
303.15	0.4642	924.748	0.552
303.15	0.5364	917.601	0.596
303.15	0.5721	914.108	0.618
303.15	0.6283	908.661	0.653
303.15	0.6872	903.027	0.69
303.15	0.7336	898.628	0.72
303.15	0.7823	894.056	0.752
303.15	0.8351	889.143	0.787
303.15	0.8752	885.431	0.814
303.15	0.9354	879.898	0.855
303.15	1	873.992	0.899
308.15	0	968.166	0.296
308.15	0.0427	963.658	0.317
308.15	0.1021	957.232	0.347
308.15	0.1883	948.063	0.392
308.15	0.2415	942.634	0.421
308.15	0.2853	938.037	0.446
308.15	0.3438	931.957	0.479
308.15	0.3742	928.814	0.497
308.15	0.4263	923.491	0.527
308.15	0.4642	919.649	0.55
308.15	0.5364	912.425	0.593
308.15	0.5721	908.895	0.615
308.15	0.6283	903.408	0.649
308.15	0.6872	897.739	0.686
308.15	0.7336	893.335	0.716
308.15	0.7823	888.752	0.747
308.15	0.8351	883.845	0.782
308.15	0.8752	880.16	0.81
308.15	0.9354	874.668	0.849
308.15	1	868.831	0.892

System: 2-methylpyridine + tetrahydropyran; phases: Liquid
Fixed: Pressure, kPa = 101
Fixed: Temperature, K = 308.15
Property: Excess molar enthalpy (molar enthalpy of mixing), kJ/mol (Liquid); method: 2-drop calorimeter (CSC 4600_
Mole fraction of tetrahydropyran	Excess molar enthalpy (molar enthalpy of mixing), kJ/mol	uncertainty
0.0511	0.0165	0.0012
0.1102	0.0383	0.0014
0.1773	0.0668	0.0017
0.2121	0.0818	0.0018
0.2683	0.1057	0.0021
0.3182	0.1255	0.0023
0.3905	0.1488	0.0025
0.4304	0.1635	0.0026
0.4822	0.1728	0.0027
0.5216	0.1829	0.0028
0.5755	0.1848	0.0029
0.6213	0.1851	0.0029
0.6786	0.1792	0.0028
0.7288	0.1713	0.0027
0.7754	0.1559	0.0026
0.8216	0.1352	0.0024
0.8852	0.0969	0.002
0.9217	0.0702	0.0017

System: 2-methylpyridine + tetrahydropyran; phases: Liquid
Fixed: Pressure, kPa = 101
Property: Speed of sound, m/s (Liquid); method: UNKNOWN
Temperature, K	Mole fraction of tetrahydropyran	Speed of sound, m/s	uncertainty
298.15	0	1380.12	2
298.15	0.0367	1376.63	2
298.15	0.0731	1373.05	2
298.15	0.1274	1367.74	2
298.15	0.1751	1362.96	2
298.15	0.2373	1356.58	2
298.15	0.2752	1352.58	2
298.15	0.3262	1347.16	2
298.15	0.3817	1341.22	2
298.15	0.4248	1336.46	2
298.15	0.4916	1328.94	2
298.15	0.5525	1322.05	2
298.15	0.6147	1314.88	2
298.15	0.6674	1308.71	2
298.15	0.7018	1304.67	2
298.15	0.7736	1296.28	2
298.15	0.8219	1290.59	2
298.15	0.8673	1285.27	2
298.15	0.9428	1276.47	2
298.15	1	1269.88	2
303.15	0	1361.02	2
303.15	0.0367	1357.59	2
303.15	0.0731	1354.06	2
303.15	0.1274	1348.55	2
303.15	0.1751	1343.52	2
303.15	0.2373	1336.74	2
303.15	0.2752	1332.51	2
303.15	0.3262	1326.74	2
303.15	0.3817	1320.36	2
303.15	0.4248	1315.36	2
303.15	0.4916	1307.55	2
303.15	0.5525	1300.37	2
303.15	0.6147	1293.03	2
303.15	0.6674	1286.79	2
303.15	0.7018	1282.71	2
303.15	0.7736	1274.15	2
303.15	0.8219	1268.38	2
303.15	0.8673	1262.94	2
303.15	0.9428	1253.81	2
303.15	1	1246.83	2
308.15	0	1339.89	2
308.15	0.0367	1336.37	2
308.15	0.0731	1332.79	2
308.15	0.1274	1327.2	2
308.15	0.1751	1322.05	2
308.15	0.2373	1315.19	2
308.15	0.2752	1310.93	2
308.15	0.3262	1305.14	2
308.15	0.3817	1298.68	2
308.15	0.4248	1293.68	2
308.15	0.4916	1285.77	2
308.15	0.5525	1278.52	2
308.15	0.6147	1271.12	2
308.15	0.6674	1264.78	2
308.15	0.7018	1260.69	2
308.15	0.7736	1252.02	2
308.15	0.8219	1246.23	2
308.15	0.8673	1240.72	2
308.15	0.9428	1231.51	2
308.15	1	1224.47	2

System: 2-methylpyridine + tetrahydropyran; phases: Liquid
Fixed: Pressure, kPa = 101
Property: Mass density, kg/m3 (Liquid); method: Vibrating tube method
Temperature, K	Mole fraction of tetrahydropyran	Mass density, kg/m3	uncertainty
298.15	0	939.802	0.99
298.15	0.0367	937.731	0.987
298.15	0.0731	935.665	0.984
298.15	0.1274	932.552	0.98
298.15	0.1751	929.795	0.976
298.15	0.2373	926.162	0.971
298.15	0.2752	923.926	0.968
298.15	0.3262	920.901	0.963
298.15	0.3817	917.578	0.959
298.15	0.4248	914.974	0.955
298.15	0.4916	910.915	0.95
298.15	0.5525	907.178	0.944
298.15	0.6147	903.336	0.939
298.15	0.6674	900.064	0.934
298.15	0.7018	897.916	0.931
298.15	0.7736	893.419	0.925
298.15	0.8219	890.381	0.921
298.15	0.8673	887.518	0.917
298.15	0.9428	882.751	0.911
298.15	1	879.136	0.906
303.15	0	935.117	0.983
303.15	0.0367	933.031	0.98
303.15	0.0731	930.947	0.977
303.15	0.1274	927.811	0.973
303.15	0.1751	925.036	0.969
303.15	0.2373	921.378	0.964
303.15	0.2752	919.13	0.961
303.15	0.3262	916.081	0.957
303.15	0.3817	912.735	0.952
303.15	0.4248	910.121	0.948
303.15	0.4916	906.032	0.943
303.15	0.5525	902.268	0.938
303.15	0.6147	898.401	0.932
303.15	0.6674	895.101	0.928
303.15	0.7018	892.937	0.925
303.15	0.7736	888.402	0.918
303.15	0.8219	885.337	0.914
303.15	0.8673	882.452	0.91
303.15	0.9428	877.641	0.904
303.15	1	873.992	0.899
308.15	0	930.414	0.977
308.15	0.0367	928.307	0.974
308.15	0.0731	926.208	0.971
308.15	0.1274	923.053	0.966
308.15	0.1751	920.257	0.962
308.15	0.2373	916.581	0.957
308.15	0.2752	914.323	0.954
308.15	0.3262	911.259	0.95
308.15	0.3817	907.895	0.945
308.15	0.4248	905.265	0.942
308.15	0.4916	901.153	0.936
308.15	0.5525	897.366	0.931
308.15	0.6147	893.468	0.926
308.15	0.6674	890.14	0.921
308.15	0.7018	887.961	0.918
308.15	0.7736	883.383	0.912
308.15	0.8219	880.292	0.908
308.15	0.8673	877.377	0.904
308.15	0.9428	872.516	0.897
308.15	1	868.831	0.892

System: 3-methylpyridine + tetrahydropyran; phases: Liquid
Fixed: Pressure, kPa = 101
Fixed: Temperature, K = 308.15
Property: Excess molar enthalpy (molar enthalpy of mixing), kJ/mol (Liquid); method: 2-drop calorimeter (CSC 4600_
Mole fraction of tetrahydropyran	Excess molar enthalpy (molar enthalpy of mixing), kJ/mol	uncertainty
0.0532	0.0247	0.0013
0.1118	0.0492	0.0015
0.1802	0.0758	0.0018
0.2238	0.0899	0.0019
0.2732	0.1036	0.002
0.3311	0.1157	0.0022
0.3913	0.1247	0.0023
0.4461	0.1263	0.0023
0.4803	0.1271	0.0023
0.5365	0.1251	0.0023
0.5868	0.1228	0.0022
0.6344	0.1155	0.0022
0.6802	0.1042	0.0021
0.7355	0.0924	0.0019
0.7832	0.0769	0.0018
0.8326	0.0625	0.0016
0.8914	0.0403	0.0014
0.9336	0.0254	0.0013

System: 3-methylpyridine + tetrahydropyran; phases: Liquid
Fixed: Pressure, kPa = 101
Property: Speed of sound, m/s (Liquid); method: UNKNOWN
Temperature, K	Mole fraction of tetrahydropyran	Speed of sound, m/s	uncertainty
298.15	0	1424.01	2
298.15	0.0562	1415.9	2
298.15	0.0848	1411.81	2
298.15	0.1357	1404.51	2
298.15	0.1826	1397.84	2
298.15	0.2461	1388.75	2
298.15	0.2833	1383.27	2
298.15	0.3345	1375.76	2
298.15	0.3813	1368.64	2
298.15	0.4262	1361.77	2
298.15	0.4827	1353.02	2
298.15	0.5378	1344.31	2
298.15	0.5924	1335.45	2
298.15	0.6382	1328.02	2
298.15	0.6982	1318.12	2
298.15	0.7568	1308.58	2
298.15	0.8138	1299.23	2
298.15	0.8825	1288.18	2
298.15	0.9321	1280.31	2
298.15	1	1269.88	2
303.15	0	1404.05	2
303.15	0.0562	1395.63	2
303.15	0.0848	1391.38	2
303.15	0.1357	1383.94	2
303.15	0.1826	1377.11	2
303.15	0.2461	1367.79	2
303.15	0.2833	1362.33	2
303.15	0.3345	1354.5	2
303.15	0.3813	1347.26	2
303.15	0.4262	1340.31	2
303.15	0.4827	1331.24	2
303.15	0.5378	1322.36	2
303.15	0.5924	1313.31	2
303.15	0.6382	1305.72	2
303.15	0.6982	1295.59	2
303.15	0.7568	1285.81	2
303.15	0.8138	1276.37	2
303.15	0.8825	1265.13	2
303.15	0.9321	1257.25	2
303.15	1	1246.83	2
308.15	0	1384.03	2
308.15	0.0562	1375.63	2
308.15	0.0848	1371.38	2
308.15	0.1357	1363.82	2
308.15	0.1826	1356.75	2
308.15	0.2461	1347.21	2
308.15	0.2833	1341.47	2
308.15	0.3345	1333.61	2
308.15	0.3813	1326.24	2
308.15	0.4262	1319.15	2
308.15	0.4827	1310.11	2
308.15	0.5378	1301.21	2
308.15	0.5924	1292.28	2
308.15	0.6382	1284.67	2
308.15	0.6982	1274.69	2
308.15	0.7568	1264.9	2
308.15	0.8138	1255.39	2
308.15	0.8825	1243.91	2
308.15	0.9321	1235.66	2
308.15	1	1224.47	2

System: 3-methylpyridine + tetrahydropyran; phases: Liquid
Fixed: Pressure, kPa = 101
Property: Mass density, kg/m3 (Liquid); method: Vibrating tube method
Temperature, K	Mole fraction of tetrahydropyran	Mass density, kg/m3	uncertainty
298.15	0	952.002	1.008
298.15	0.0562	948.099	1.002
298.15	0.0848	946.113	0.999
298.15	0.1357	942.576	0.994
298.15	0.1826	939.306	0.99
298.15	0.2461	934.857	0.983
298.15	0.2833	932.236	0.98
298.15	0.3345	928.61	0.974
298.15	0.3813	925.271	0.97
298.15	0.4262	922.049	0.965
298.15	0.4827	917.964	0.96
298.15	0.5378	913.951	0.954
298.15	0.5924	909.933	0.948
298.15	0.6382	906.545	0.943
298.15	0.6982	902.068	0.937
298.15	0.7568	897.664	0.931
298.15	0.8138	893.349	0.925
298.15	0.8825	888.124	0.918
298.15	0.9321	884.334	0.913
298.15	1	879.136	0.906
303.15	0	947.449	1.001
303.15	0.0562	943.521	0.996
303.15	0.0848	941.519	0.993
303.15	0.1357	937.954	0.988
303.15	0.1826	934.651	0.983
303.15	0.2461	930.166	0.976
303.15	0.2833	927.522	0.973
303.15	0.3345	923.861	0.968
303.15	0.3813	920.499	0.963
303.15	0.4262	917.247	0.959
303.15	0.4827	913.129	0.953
303.15	0.5378	909.085	0.947
303.15	0.5924	905.038	0.942
303.15	0.6382	901.626	0.937
303.15	0.6982	897.114	0.93
303.15	0.7568	892.682	0.924
303.15	0.8138	888.335	0.918
303.15	0.8825	883.068	0.911
303.15	0.9321	879.246	0.906
303.15	1	873.992	0.899
308.15	0	942.831	0.995
308.15	0.0562	938.854	0.989
308.15	0.0848	936.827	0.986
308.15	0.1357	933.219	0.981
308.15	0.1826	929.891	0.976
308.15	0.2461	925.361	0.97
308.15	0.2833	922.691	0.966
308.15	0.3345	919.004	0.961
308.15	0.3813	915.608	0.956
308.15	0.4262	912.336	0.952
308.15	0.4827	908.186	0.946
308.15	0.5378	904.106	0.94
308.15	0.5924	900.027	0.935
308.15	0.6382	896.591	0.93
308.15	0.6982	892.051	0.924
308.15	0.7568	887.584	0.917
308.15	0.8138	883.218	0.912
308.15	0.8825	877.926	0.904
308.15	0.9321	874.092	0.899
308.15	1	868.831	0.892

System: 4-methylpyridine + tetrahydropyran; phases: Liquid
Fixed: Pressure, kPa = 101
Fixed: Temperature, K = 308.15
Property: Excess molar enthalpy (molar enthalpy of mixing), kJ/mol (Liquid); method: 2-drop calorimeter (CSC 4600_
Mole fraction of tetrahydropyran	Excess molar enthalpy (molar enthalpy of mixing), kJ/mol	uncertainty
0.0442	0.0124	0.0011
0.1216	0.0426	0.0014
0.1982	0.0761	0.0018
0.2416	0.0975	0.002
0.2882	0.1178	0.0022
0.3401	0.1352	0.0024
0.3876	0.1531	0.0025
0.4371	0.1652	0.0027
0.4834	0.1741	0.0027
0.5256	0.1755	0.0028
0.5934	0.1727	0.0027
0.6433	0.1632	0.0026
0.6925	0.1501	0.0025
0.7367	0.1322	0.0023
0.7952	0.1073	0.0021
0.8262	0.0948	0.002
0.8842	0.0626	0.0016
0.9406	0.0325	0.0013

System: 4-methylpyridine + tetrahydropyran; phases: Liquid
Fixed: Pressure, kPa = 101
Property: Speed of sound, m/s (Liquid); method: UNKNOWN
Temperature, K	Mole fraction of tetrahydropyran	Speed of sound, m/s	uncertainty
298.15	0	1431.5	1
298.15	0.0521	1422.65	1.06
298.15	0.0832	1417.47	1.09
298.15	0.1426	1407.78	1.15
298.15	0.1882	1400.51	1.19
298.15	0.2536	1390.11	1.26
298.15	0.2902	1384.26	1.29
298.15	0.3415	1376.14	1.35
298.15	0.3782	1370.29	1.38
298.15	0.4323	1361.57	1.44
298.15	0.4913	1352.07	1.5
298.15	0.5437	1343.57	1.55
298.15	0.5991	1334.51	1.6
298.15	0.6427	1327.31	1.65
298.15	0.7015	1317.68	1.7
298.15	0.7822	1304.42	1.78
298.15	0.8263	1297.25	1.83
298.15	0.8846	1287.92	1.89
298.15	0.9435	1278.58	1.95
298.15	1	1269.88	2
303.15	0	1410.67	1
303.15	0.0521	1402.24	1.06
303.15	0.0832	1397.22	1.09
303.15	0.1426	1387.61	1.15
303.15	0.1882	1380.26	1.19
303.15	0.2536	1369.66	1.26
303.15	0.2902	1363.75	1.29
303.15	0.3415	1355.33	1.35
303.15	0.3782	1349.31	1.38
303.15	0.4323	1340.47	1.44
303.15	0.4913	1330.69	1.5
303.15	0.5437	1322.01	1.55
303.15	0.5991	1312.76	1.6
303.15	0.6427	1305.54	1.65
303.15	0.7015	1295.65	1.7
303.15	0.7822	1282.29	1.78
303.15	0.8263	1275.01	1.83
303.15	0.8846	1265.48	1.89
303.15	0.9435	1255.88	1.95
303.15	1	1246.83	2
308.15	0	1389.89	1
308.15	0.0521	1380.63	1.06
308.15	0.0832	1376.22	1.09
308.15	0.1426	1368.39	1.15
308.15	0.1882	1360.75	1.19
308.15	0.2536	1350.54	1.26
308.15	0.2902	1344.38	1.29
308.15	0.3415	1336.05	1.35
308.15	0.3782	1328.04	1.38
308.15	0.4323	1320.78	1.44
308.15	0.4913	1311.35	1.5
308.15	0.5437	1302.07	1.55
308.15	0.5991	1292.81	1.6
308.15	0.6427	1285.21	1.65
308.15	0.7015	1275.03	1.7
308.15	0.7822	1264.52	1.78
308.15	0.8263	1255.21	1.83
308.15	0.8846	1243.94	1.89
308.15	0.9435	1235.3	1.9
308.15	1	1224.47	2

System: 4-methylpyridine + tetrahydropyran; phases: Liquid
Fixed: Pressure, kPa = 101
Property: Mass density, kg/m3 (Liquid); method: Vibrating tube method
Temperature, K	Mole fraction of tetrahydropyran	Mass density, kg/m3	uncertainty
298.15	0	950.179	0.296
298.15	0.0521	946.678	0.321
298.15	0.0832	944.577	0.336
298.15	0.1426	940.548	0.366
298.15	0.1882	937.434	0.39
298.15	0.2536	932.939	0.425
298.15	0.2902	930.406	0.446
298.15	0.3415	926.841	0.475
298.15	0.3782	924.275	0.496
298.15	0.4323	920.471	0.529
298.15	0.4913	916.295	0.565
298.15	0.5437	912.559	0.597
298.15	0.5991	908.587	0.632
298.15	0.6427	905.441	0.66
298.15	0.7015	901.173	0.699
298.15	0.7822	895.277	0.753
298.15	0.8263	892.032	0.783
298.15	0.8846	887.726	0.824
298.15	0.9435	883.352	0.866
298.15	1	879.136	0.906
303.15	0	945.413	0.296
303.15	0.0521	941.884	0.321
303.15	0.0832	939.773	0.336
303.15	0.1426	935.733	0.365
303.15	0.1882	932.615	0.389
303.15	0.2536	928.121	0.424
303.15	0.2902	925.591	0.444
303.15	0.3415	922.019	0.473
303.15	0.3782	919.451	0.495
303.15	0.4323	915.637	0.526
303.15	0.4913	911.443	0.562
303.15	0.5437	907.692	0.594
303.15	0.5991	903.687	0.629
303.15	0.6427	900.515	0.657
303.15	0.7015	896.211	0.695
303.15	0.7822	890.253	0.748
303.15	0.8263	886.976	0.778
303.15	0.8846	882.631	0.818
303.15	0.9435	878.225	0.859
303.15	1	873.992	0.899
308.15	0	940.821	0.296
308.15	0.0521	936.955	0.321
308.15	0.0832	935.004	0.335
308.15	0.1426	931.541	0.365
308.15	0.1882	928.307	0.388
308.15	0.2536	923.922	0.423
308.15	0.2902	921.331	0.443
308.15	0.3415	917.744	0.472
308.15	0.3782	914.432	0.493
308.15	0.4323	911.254	0.524
308.15	0.4913	907.207	0.56
308.15	0.5437	903.227	0.591
308.15	0.5991	899.247	0.626
308.15	0.6427	895.885	0.653
308.15	0.7015	891.453	0.691
308.15	0.7822	887.03	0.745
308.15	0.8263	882.795	0.774
308.15	0.8846	877.665	0.813
308.15	0.9435	873.901	0.854
308.15	1	868.831	0.892
