Measured thermophysical data. Solubility and Tie Line Data of the Water - Phosphoric Acid   Solvents at T =  (303.2 and 313.2) K: An Experimental and Correlational Study
Source: Thermochim. Acta, 2013, 10.1016/j.tca.2013.02.006
Compound 1: water, H2O, InChI=1S/H2O/h1H2
Compound 2: phosphoric acid, H3O4P, InChI=1S/H3O4P/c1-5(2,3)4/h(H3,1,2,3,4), purity 99.5%
Compound 3: decan-1-ol, C10H22O, InChI=1S/C10H22O/c1-2-3-4-5-6-7-8-9-10-11/h11H,2-10H2,1H3, purity 99%
Compound 4: dodecan-1-ol, C12H26O, InChI=1S/C12H26O/c1-2-3-4-5-6-7-8-9-10-11-12-13/h13H,2-12H2,1H3, purity 99%
Compound 5: 1-dodecanethiol, C12H26S, InChI=1S/C12H26S/c1-2-3-4-5-6-7-8-9-10-11-12-13/h13H,2-12H2,1H3, purity 99%

System: decan-1-ol; phases: Liquid
Property: Refractive index (Na D-line) (Liquid); method: Standard Abbe refractometry
Temperature, K	Pressure, kPa	Refractive index (Na D-line)	uncertainty
298.2	101.325	1.4349	0.0008

System: decan-1-ol; phases: Liquid
Property: Mass density, kg/m3 (Liquid); method: Vibrating tube method
Temperature, K	Pressure, kPa	Mass density, kg/m3	uncertainty
298.2	101.325	826.48	0.24

System: dodecan-1-ol; phases: Liquid
Property: Refractive index (Na D-line) (Liquid); method: Standard Abbe refractometry
Temperature, K	Pressure, kPa	Refractive index (Na D-line)	uncertainty
298.2	101.325	1.4412	0.0008

System: dodecan-1-ol; phases: Liquid
Property: Mass density, kg/m3 (Liquid); method: Vibrating tube method
Temperature, K	Pressure, kPa	Mass density, kg/m3	uncertainty
298.2	101.325	829.76	0.24

System: 1-dodecanethiol; phases: Liquid
Property: Refractive index (Na D-line) (Liquid); method: Standard Abbe refractometry
Temperature, K	Pressure, kPa	Refractive index (Na D-line)	uncertainty
298.2	101.325	1.4586	0.0008

System: 1-dodecanethiol; phases: Liquid
Property: Mass density, kg/m3 (Liquid); method: Vibrating tube method
Temperature, K	Pressure, kPa	Mass density, kg/m3	uncertainty
293.2	101.325	843.94	0.24

System: decan-1-ol + phosphoric acid + water; phases: Liquid mixture 1, Liquid mixture 2
Fixed: Pressure, kPa = 101
Property: Mass fraction of phosphoric acid (Liquid mixture 1); method: Cloud-Point Method
Temperature, K	Mass fraction of water	Mass fraction of phosphoric acid	uncertainty
303.2	0.9994	0	
303.2	0.8988	0.1002	0.002
303.2	0.7969	0.2013	0.002
303.2	0.6545	0.3432	0.002
303.2	0.553	0.4443	0.002
303.2	0.398	0.5981	0.002
303.2	0.3222	0.6727	0.002
303.2	0.2333	0.7593	0.002
303.2	0.1522	0.8387	0.0017
303.2	0.1196	0.8316	0.0038
303.2	0.0977	0.6921	0.0119
303.2	0.0878	0.5501	0.0147
303.2	0.0656	0.348	0.0131
303.2	0.0549	0.2446	0.0112
303.2	0.0409	0.1508	0.0204
303.2	0.0374	0.1002	0.0163
303.2	0.0317	0.0425	0.0056
303.2	0.0142	0	
313.2	0.9989	0	
313.2	0.8859	0.1125	0.002
313.2	0.7911	0.2067	0.002
313.2	0.6454	0.3517	0.002
313.2	0.5595	0.4374	0.002
313.2	0.4318	0.5638	0.002
313.2	0.3188	0.6755	0.002
313.2	0.2416	0.7501	0.0019
313.2	0.1529	0.8315	0.0017
313.2	0.1228	0.8172	0.004
313.2	0.1058	0.7053	0.0123
313.2	0.0899	0.5429	0.0145
313.2	0.0695	0.3437	0.0131
313.2	0.0561	0.2484	0.0144
313.2	0.0503	0.1518	0.0186
313.2	0.0461	0.0996	0.0082
313.2	0.0336	0.0475	0.0044
313.2	0.0161	0	
323.2	0.9983	0	
323.2	0.8777	0.1198	0.002
323.2	0.7879	0.2085	0.002
323.2	0.6544	0.3411	0.002
323.2	0.549	0.4456	0.002
323.2	0.436	0.5569	0.002
323.2	0.3005	0.6904	0.002
323.2	0.2284	0.7596	0.0019
323.2	0.1617	0.8099	0.0017
323.2	0.1289	0.8002	0.0038
323.2	0.1188	0.6873	0.0156
323.2	0.1062	0.5501	0.0129
323.2	0.0811	0.3457	0.0121
323.2	0.0681	0.2303	0.0148
323.2	0.0624	0.1459	0.0111
323.2	0.0519	0.0985	0.0073
323.2	0.0427	0.0463	0.0044
323.2	0.0207	0	

System: decan-1-ol + phosphoric acid + water; phases: Liquid mixture 1, Liquid mixture 2
Fixed: Pressure, kPa = 101
Property: Mass fraction of phosphoric acid (Liquid mixture 1); method: Titration method
Property: Mass fraction of water (Liquid mixture 2); method: Titration method
Property: Mass fraction of phosphoric acid (Liquid mixture 2); method: Titration method
Temperature, K	Mass fraction of water	Mass fraction of phosphoric acid	uncertainty	Mass fraction of water	uncertainty	Mass fraction of phosphoric acid	uncertainty
303.2	0.814	0.185	0.006	0.019	0.002	0.01	
303.2	0.72	0.278	0.009	0.027	0.002	0.024	
303.2	0.636	0.362	0.011	0.033	0.002	0.046	
303.2	0.578	0.42	0.013	0.035	0.002	0.08	
303.2	0.53	0.467	0.015	0.04	0.002	0.122	
303.2	0.479	0.518	0.015	0.041	0.002	0.169	
313.2	0.794	0.204	0.007	0.026	0.002	0.009	
313.2	0.698	0.3	0.01	0.031	0.002	0.021	
313.2	0.612	0.385	0.012	0.034	0.002	0.054	
313.2	0.558	0.439	0.014	0.038	0.002	0.071	
313.2	0.517	0.48	0.015	0.043	0.002	0.096	
313.2	0.472	0.524	0.015	0.047	0.002	0.13	
323.2	0.781	0.215	0.007	0.029	0.003	0.006	
323.2	0.675	0.321	0.01	0.036	0.002	0.017	
323.2	0.596	0.399	0.013	0.039	0.002	0.038	
323.2	0.537	0.457	0.014	0.045	0.002	0.063	
323.2	0.498	0.495	0.015	0.049	0.003	0.081	
323.2	0.455	0.538	0.014	0.054	0.003	0.111	

System: dodecan-1-ol + phosphoric acid + water; phases: Liquid mixture 1, Liquid mixture 2
Fixed: Pressure, kPa = 101
Property: Mass fraction of phosphoric acid (Liquid mixture 1); method: Cloud-Point Method
Temperature, K	Mass fraction of water	Mass fraction of phosphoric acid	uncertainty
303.2	1	0	
303.2	0.9019	0.0975	0.002
303.2	0.8131	0.1861	0.002
303.2	0.6879	0.3109	0.002
303.2	0.5641	0.4338	0.002
303.2	0.4464	0.5512	0.002
303.2	0.3067	0.6894	0.002
303.2	0.2335	0.7614	0.002
303.2	0.1508	0.8421	0.0017
303.2	0.111	0.8316	0.0025
303.2	0.0713	0.7282	0.0058
303.2	0.0547	0.5861	0.0156
303.2	0.0409	0.3889	0.0201
303.2	0.0323	0.2686	0.0302
303.2	0.0316	0.17	0.0329
303.2	0.0291	0.1119	0.0235
303.2	0.0201	0.0369	0.0067
303.2	0.0059	0	
313.2	1	0	
313.2	0.905	0.0943	0.002
313.2	0.8093	0.1899	0.002
313.2	0.6925	0.3062	0.002
313.2	0.5607	0.4371	0.002
313.2	0.4528	0.5443	0.002
313.2	0.3033	0.6925	0.002
313.2	0.2395	0.7552	0.0019
313.2	0.1485	0.8391	0.0014
313.2	0.08	0.7233	0.0043
313.2	0.0592	0.5815	0.0143
313.2	0.0461	0.3866	0.0256
313.2	0.0408	0.264	0.0368
313.2	0.0389	0.1677	0.0295
313.2	0.0341	0.1219	0.0138
313.2	0.0312	0.1052	0.011
313.2	0.0229	0.0395	0.0062
313.2	0.0084	0	
323.2	0.9088	0.0901	0.002
323.2	0.8131	0.1856	0.002
323.2	0.6988	0.2994	0.002
323.2	0.5588	0.4386	0.002
323.2	0.4494	0.5469	0.002
323.2	0.3064	0.6881	0.002
323.2	0.2375	0.7566	0.0019
323.2	0.1597	0.8182	0.0017
323.2	0.1354	0.8065	0.0028
323.2	0.0928	0.7125	0.0056
323.2	0.0751	0.573	0.0147
323.2	0.0609	0.3806	0.021
323.2	0.0538	0.2591	0.0208
323.2	0.0466	0.1737	0.0152
323.2	0.0387	0.1019	0.0081
323.2	0.0235	0.0381	0.0052
323.2	0.0099	0	

System: dodecan-1-ol + phosphoric acid + water; phases: Liquid mixture 2, Liquid mixture 1
Fixed: Pressure, kPa = 101
Property: Mass fraction of water (Liquid mixture 2); method: Titration method
Property: Mass fraction of phosphoric acid (Liquid mixture 1); method: Titration method
Property: Mass fraction of water (Liquid mixture 1); method: Titration method
Temperature, K	Mass fraction of phosphoric acid	Mass fraction of water	uncertainty	Mass fraction of phosphoric acid	uncertainty	Mass fraction of water	uncertainty
303.2	0.007	0.009	0.002	0.196	0.006	0.803	
313.2	0.055	0.026	0.002	0.439	0.014	0.559	
313.2	0.082	0.028	0.002	0.49	0.015	0.508	
313.2	0.117	0.032	0.002	0.525	0.015	0.472	
323.2	0.005	0.011	0.002	0.221	0.007	0.778	
323.2	0.014	0.014	0.002	0.317	0.01	0.681	
323.2	0.032	0.022	0.002	0.409	0.013	0.589	
323.2	0.051	0.027	0.002	0.451	0.014	0.546	
323.2	0.06	0.031	0.002	0.503	0.016	0.493	
323.2	0.101	0.035	0.002	0.538	0.014	0.458	
303.2	0.019	0.013	0.002	0.303	0.01	0.696	
303.2	0.033	0.019	0.002	0.364	0.011	0.635	
303.2	0.061	0.024	0.002	0.426	0.013	0.572	
303.2	0.109	0.027	0.002	0.483	0.015	0.515	
303.2	0.137	0.031	0.002	0.516	0.015	0.482	
313.2	0.006	0.01	0.002	0.211	0.007	0.788	
313.2	0.015	0.014	0.002	0.311	0.01	0.688	
313.2	0.033	0.02	0.002	0.392	0.012	0.606	

System: 1-dodecanethiol + phosphoric acid + water; phases: Liquid mixture 1, Liquid mixture 2
Fixed: Pressure, kPa = 101
Property: Mass fraction of phosphoric acid (Liquid mixture 1); method: Cloud-Point Method
Temperature, K	Mass fraction of water	Mass fraction of phosphoric acid	uncertainty
303.2	0.9005	0.0991	0.002
303.2	0.8071	0.1923	0.002
303.2	0.6916	0.3075	0.002
303.2	0.5669	0.4319	0.002
303.2	0.4515	0.5468	0.002
303.2	0.3065	0.6912	0.002
303.2	0.2322	0.7651	0.002
303.2	0.1495	0.8471	0.0065
303.2	0.0032	0.0471	0.0078
303.2	0.0024	0.0141	0.0081
303.2	0.0022	0.0026	0.0026
303.2	0.0019	0	
303.2	1	0	
313.2	1	0	
313.2	0.9008	0.0987	0.002
313.2	0.812	0.1874	0.002
313.2	0.6901	0.3089	0.002
313.2	0.5718	0.4269	0.002
313.2	0.458	0.5403	0.002
313.2	0.3163	0.6815	0.002
313.2	0.2297	0.7672	0.002
313.2	0.1519	0.8436	0.0053
313.2	0.0034	0.0498	0.0424
313.2	0.0024	0.0285	0.0076
313.2	0.0021	0.0107	0.0077
313.2	0.002	0	
323.3	0.9077	0.0915	0.002
323.3	0.8096	0.1891	0.002
323.3	0.6907	0.3074	0.002
323.3	0.5722	0.425	0.002
323.3	0.4481	0.5486	0.002
323.3	0.3156	0.6803	0.002
323.3	0.2352	0.7596	0.002
323.3	0.1464	0.8468	0.0065
323.3	0.0057	0.0473	0.0242
323.3	0.0036	0.0302	0.0115
323.3	0.0027	0.0991	0.0243
323.3	0.0023	0	

System: 1-dodecanethiol + phosphoric acid + water; phases: Liquid mixture 1, Liquid mixture 2
Fixed: Pressure, kPa = 101
Property: Mass fraction of phosphoric acid (Liquid mixture 1); method: Titration method
Property: Mass fraction of water (Liquid mixture 2); method: Titration method
Property: Mass fraction of phosphoric acid (Liquid mixture 2); method: Titration method
Temperature, K	Mass fraction of water	Mass fraction of phosphoric acid	uncertainty	Mass fraction of water	uncertainty	Mass fraction of phosphoric acid	uncertainty
303.2	0.796	0.203	0.007	0.002	0.002	0.003	
303.2	0.705	0.294	0.009	0.002	0.002	0.01	
303.2	0.633	0.366	0.012	0.002	0.002	0.015	
303.2	0.558	0.441	0.014	0.002	0.002	0.022	
303.2	0.516	0.482	0.015	0.002	0.002	0.034	
303.2	0.487	0.511	0.015	0.003	0.002	0.043	
313.2	0.789	0.21	0.007	0.002	0.002	0.003	
313.2	0.698	0.301	0.01	0.002	0.002	0.009	
313.2	0.617	0.381	0.012	0.002	0.002	0.019	
313.2	0.56	0.438	0.014	0.002	0.002	0.028	
313.2	0.511	0.487	0.015	0.003	0.002	0.036	
313.2	0.462	0.536	0.015	0.003	0.002	0.051	
323.2	0.782	0.217	0.007	0.002	0.002	0.002	
323.2	0.692	0.306	0.01	0.002	0.002	0.007	
323.2	0.606	0.392	0.012	0.003	0.002	0.011	
323.2	0.548	0.449	0.014	0.003	0.002	0.026	
323.2	0.503	0.494	0.015	0.003	0.002	0.033	
323.2	0.45	0.547	0.014	0.004	0.002	0.044	

System: decan-1-ol + water; phases: Liquid mixture 1, Liquid mixture 2
Fixed: Pressure, kPa = 101
Property: Mass fraction of water (Liquid mixture 1); method: Cloud-Point Method
Temperature, K	Mass fraction of water	uncertainty
303.2	0.9994	0.0006
303.2	0.0142	0.0142
313.2	0.9989	0.0011
313.2	0.0161	0.0014
323.2	0.9983	0.0014
323.2	0.0207	0.0196

System: dodecan-1-ol + water; phases: Liquid mixture 1, Liquid mixture 2
Fixed: Pressure, kPa = 101
Property: Mass fraction of water (Liquid mixture 1); method: Cloud-Point Method
Temperature, K	Mass fraction of water	uncertainty
303.2	0.0059	0.0014
313.2	0.0084	0.0014
323.2	0.0099	0.0014

System: 1-dodecanethiol + water; phases: Liquid mixture 1, Liquid mixture 2
Fixed: Pressure, kPa = 101
Property: Mass fraction of water (Liquid mixture 1); method: Cloud-Point Method
Temperature, K	Mass fraction of water	uncertainty
303.2	0.0019	0.0014
313.2	0.002	0.0014
323.3	0.0023	0.0014
