Measured thermophysical data. THERMODYNAMICS OF MIXTURES CONTAINING AMINES. XIV. CpEm OF BENZYLAMINE WITH HEPTANE AT 293.15 K OR WITH METHANOL, 1-PROPANOL OR 1-PENTANOL AT (293.15-308.15) K
Source: Thermochim. Acta, 2014, 10.1016/j.tca.2014.03.027
Compound 1: benzylamine, C7H9N, InChI=1S/C7H9N/c8-6-7-4-2-1-3-5-7/h1-5H,6,8H2, purity 99%
Compound 2: methanol, CH4O, InChI=1S/CH4O/c1-2/h2H,1H3, purity 99.9%
Compound 3: pentan-1-ol, C5H12O, InChI=1S/C5H12O/c1-2-3-4-5-6/h6H,2-5H2,1H3, purity 99%
Compound 4: propan-1-ol, C3H8O, InChI=1S/C3H8O/c1-2-3-4/h4H,2-3H2,1H3, purity 99.5%
Compound 5: heptane, C7H16, InChI=1S/C7H16/c1-3-5-7-6-4-2/h3-7H2,1-2H3, purity 99.5%

System: benzylamine; phases: Liquid
Property: Mass density, kg/m3 (Liquid); method: Vibrating tube method
Temperature, K	Pressure, kPa	Mass density, kg/m3	uncertainty
298.15	101.325	978.337	0.235

System: benzylamine; phases: Liquid
Property: Molar heat capacity at constant pressure, J/K/mol (Liquid); method: Small sample (50 mg) DSC
Temperature, K	Pressure, kPa	Molar heat capacity at constant pressure, J/K/mol	uncertainty
298.15	101.325	206.74	4.13

System: methanol; phases: Liquid
Property: Molar heat capacity at constant pressure, J/K/mol (Liquid); method: Small sample (50 mg) DSC
Temperature, K	Pressure, kPa	Molar heat capacity at constant pressure, J/K/mol	uncertainty
298.15	101.325	80.81	1.62

System: pentan-1-ol; phases: Liquid
Property: Molar heat capacity at constant pressure, J/K/mol (Liquid); method: Small sample (50 mg) DSC
Temperature, K	Pressure, kPa	Molar heat capacity at constant pressure, J/K/mol	uncertainty
298.15	101.325	206.67	4.13

System: propan-1-ol; phases: Liquid
Property: Molar heat capacity at constant pressure, J/K/mol (Liquid); method: Small sample (50 mg) DSC
Temperature, K	Pressure, kPa	Molar heat capacity at constant pressure, J/K/mol	uncertainty
298.15	101.325	143.41	2.87

System: heptane; phases: Liquid
Property: Molar heat capacity at constant pressure, J/K/mol (Liquid); method: Small sample (50 mg) DSC
Temperature, K	Pressure, kPa	Molar heat capacity at constant pressure, J/K/mol	uncertainty
298.15	101.325	223.91	4.48

System: benzylamine + heptane; phases: Liquid
Fixed: Temperature, K = 293.15
Fixed: Pressure, kPa = 101
Property: Excess molar heat capacity, J/K/mol (Liquid); method: Small sample (50 mg) DSC
Mole fraction of benzylamine	Excess molar heat capacity, J/K/mol	uncertainty
0.0247	-0.46	0.16
0.1495	-0.29	0.16
0.1982	0.78	0.17
0.2473	1.66	0.18
0.2989	3.35	0.25
0.3496	4.17	0.29
0.3734	4.88	0.32
0.3986	5.87	0.37
0.4976	6.51	0.4
0.5988	5.47	0.35
0.6983	3.47	0.26
0.7991	1.46	0.18
0.9257	-0.92	0.17
0.9747	-0.88	0.17

System: methanol + benzylamine; phases: Liquid
Fixed: Pressure, kPa = 101
Property: Excess molar heat capacity, J/K/mol (Liquid); method: Small sample (50 mg) DSC
Temperature, K	Mole fraction of methanol	Excess molar heat capacity, J/K/mol	uncertainty
293.15	0.0537	1.16	0.17
293.15	0.1106	2.61	0.22
293.15	0.2041	5.02	0.33
293.15	0.2963	7.9	0.47
293.15	0.3518	9.32	0.54
293.15	0.397	10.86	0.62
293.15	0.4966	12.24	0.69
293.15	0.5512	12.66	0.71
293.15	0.5987	12.63	0.71
293.15	0.6991	10.63	0.61
293.15	0.7484	9.18	0.53
293.15	0.7988	7.43	0.45
293.15	0.849	4.92	0.32
293.15	0.9009	3.22	0.25
298.15	0.0537	1.26	0.17
298.15	0.1106	2.84	0.23
298.15	0.2041	5.43	0.35
298.15	0.2963	8.16	0.48
298.15	0.3518	9.77	0.56
298.15	0.397	11.3	0.64
298.15	0.4966	12.88	0.72
298.15	0.5512	13.17	0.74
298.15	0.5987	12.99	0.73
298.15	0.6991	11.13	0.63
298.15	0.7484	9.49	0.55
298.15	0.7988	7.67	0.46
298.15	0.849	5.29	0.34
298.15	0.9009	3.49	0.26
308.15	0.0537	1.59	0.18
308.15	0.1106	3.36	0.25
308.15	0.2041	6.08	0.38
308.15	0.2963	8.87	0.52
308.15	0.3518	10.2	0.58
308.15	0.397	11.89	0.67
308.15	0.4966	13.26	0.74
308.15	0.5512	13.67	0.76
308.15	0.5987	13.38	0.75
308.15	0.6991	11.55	0.65
308.15	0.7484	10	0.57
308.15	0.7988	8.28	0.49
308.15	0.849	5.72	0.36
308.15	0.9009	3.8	0.27

System: propan-1-ol + benzylamine; phases: Liquid
Fixed: Pressure, kPa = 101
Property: Excess molar heat capacity, J/K/mol (Liquid); method: Small sample (50 mg) DSC
Temperature, K	Mole fraction of propan-1-ol	Excess molar heat capacity, J/K/mol	uncertainty
293.15	0.0665	1.89	0.19
293.15	0.1004	2.96	0.24
293.15	0.1986	6.26	0.39
293.15	0.2994	9.38	0.54
293.15	0.4007	11.35	0.64
293.15	0.4477	11.83	0.67
293.15	0.5497	13.34	0.74
293.15	0.6032	13.04	0.73
293.15	0.6515	12.75	0.71
293.15	0.6998	12.05	0.68
293.15	0.8014	9.42	0.55
293.15	0.849	7.29	0.44
293.15	0.9003	4.9	0.32
298.15	0.0665	2.55	0.22
298.15	0.1004	3.37	0.25
298.15	0.1986	6.74	0.41
298.15	0.2994	9.67	0.56
298.15	0.4007	11.45	0.65
298.15	0.4477	11.95	0.67
298.15	0.5497	13.25	0.74
298.15	0.6032	12.99	0.73
298.15	0.6515	12.91	0.72
298.15	0.6998	12.14	0.68
298.15	0.8014	9.48	0.55
298.15	0.849	7.32	0.44
298.15	0.9003	5.05	0.33
308.15	0.0665	2.84	0.23
308.15	0.1004	3.45	0.26
308.15	0.1986	6.5	0.4
308.15	0.2994	9.53	0.55
308.15	0.4007	11.18	0.63
308.15	0.4477	11.58	0.65
308.15	0.5497	12.85	0.72
308.15	0.6032	12.57	0.7
308.15	0.6515	12.84	0.72
308.15	0.6998	11.7	0.66
308.15	0.8014	9.06	0.53
308.15	0.849	7.22	0.44
308.15	0.9003	4.75	0.32

System: pentan-1-ol + benzylamine; phases: Liquid
Fixed: Pressure, kPa = 101
Property: Excess molar heat capacity, J/K/mol (Liquid); method: Small sample (50 mg) DSC
Temperature, K	Mole fraction of pentan-1-ol	Excess molar heat capacity, J/K/mol	uncertainty
293.15	0.0495	2.15	0.2
293.15	0.1528	5.18	0.34
293.15	0.2765	8.64	0.51
293.15	0.2967	9.27	0.54
293.15	0.4512	12.51	0.7
293.15	0.4994	13.7	0.76
293.15	0.6006	13.71	0.76
293.15	0.6516	12.63	0.71
293.15	0.7019	11.57	0.65
293.15	0.7998	9.04	0.53
293.15	0.8493	7.39	0.44
293.15	0.899	5.41	0.35
293.15	0.9505	2.72	0.23
298.15	0.0495	2.31	0.21
298.15	0.1528	5.79	0.37
298.15	0.2765	8.73	0.51
298.15	0.2967	9.48	0.55
298.15	0.4512	12.28	0.69
298.15	0.4994	13.25	0.74
298.15	0.6006	13.13	0.73
298.15	0.6516	12.04	0.68
298.15	0.7019	10.98	0.62
298.15	0.7998	8.54	0.5
298.15	0.8493	7.06	0.43
298.15	0.899	5.16	0.34
298.15	0.9505	2.46	0.21
308.15	0.0495	2.12	0.2
308.15	0.1528	5.71	0.36
308.15	0.2765	8.42	0.5
308.15	0.2967	8.89	0.52
308.15	0.4512	11.2	0.64
308.15	0.4994	12.08	0.68
308.15	0.6006	11.91	0.67
308.15	0.6516	10.9	0.62
308.15	0.7019	9.9	0.57
308.15	0.7998	7.76	0.46
308.15	0.8493	6.31	0.39
308.15	0.899	4.6	0.31
308.15	0.9505	2.3	0.21
