Measured thermophysical data. Enthalpic and volumetric studies of the interactions of butanamide in aqueous alkan-1-ol solutions at 298.15K
Source: Thermochim. Acta, 2007, 10.1016/j.tca.2007.07.002
Compound 1: methanol, CH4O, InChI=1S/CH4O/c1-2/h2H,1H3
Compound 2: ethanol, C2H6O, InChI=1S/C2H6O/c1-2-3/h3H,2H2,1H3
Compound 3: propan-1-ol, C3H8O, InChI=1S/C3H8O/c1-2-3-4/h4H,2-3H2,1H3
Compound 4: butanamide, C4H9NO, InChI=1S/C4H9NO/c1-2-3-4(5)6/h2-3H2,1H3,(H2,5,6)
Compound 5: water, H2O, InChI=1S/H2O/h1H2

System: butanamide + water; phases: Liquid
Fixed: Temperature, K = 298.15
Fixed: Pressure, kPa = 101
Property: Molar enthalpy of solution, kJ/mol (Liquid); method: Calvet calorimetry
Molality, mol/kg of butanamide	Molar enthalpy of solution, kJ/mol	uncertainty
0.1253	9.16	0.112
0.2119	9.218	0.113
0.2916	9.252	0.113
0.3949	9.321	0.114
0.4777	9.378	0.115
0.561	9.425	0.115

System: butanamide + water; phases: Liquid
Fixed: Temperature, K = 298.15
Fixed: Pressure, kPa = 101
Property: Mass density, kg/m3 (Liquid); method: Vibrating tube method
Molality, mol/kg of butanamide	Mass density, kg/m3	uncertainty
0.2015	997.019	0.046
0.31223	997.028	0.047
0.41058	997.052	0.047
0.50527	997.083	0.048
0.62795	997.117	0.048
0.71314	997.16	0.049
0.82703	997.21	0.049
0.92042	997.269	0.05

System: methanol + butanamide + water; phases: Liquid
Fixed: Temperature, K = 298.15
Fixed: Pressure, kPa = 101
Property: Molar enthalpy of solution, kJ/mol (Liquid); method: Calvet calorimetry
Solvent: Molality, mol/kg of methanol	Molality, mol/kg of butanamide	Molar enthalpy of solution, kJ/mol	uncertainty
0.9997	0.1157	10.027	0.123
0.9997	0.2183	10.084	0.124
0.9997	0.3059	10.144	0.124
0.9997	0.4054	10.212	0.125
0.9997	0.5014	10.274	0.126
0.9997	0.5952	10.344	0.127
2	0.1253	10.945	0.134
2	0.2221	11.005	0.135
2	0.3146	11.075	0.136
2	0.4235	11.153	0.137
2	0.5131	11.222	0.137
2	0.6017	11.284	0.138
2.999	0.1328	11.864	0.145
2.999	0.2323	11.915	0.146
2.999	0.3304	11.989	0.147
2.999	0.4265	12.089	0.148
2.999	0.5359	12.191	0.149
2.999	0.6353	12.216	0.15

System: methanol + butanamide + water; phases: Liquid
Fixed: Temperature, K = 298.15
Fixed: Pressure, kPa = 101
Property: Mass density, kg/m3 (Liquid); method: Vibrating tube method
Solvent: Molality, mol/kg of methanol	Molality, mol/kg of butanamide	Mass density, kg/m3	uncertainty
0.49948	0	994.139	0.166
0.49948	0.14463	994.199	0.166
0.49948	0.19066	994.221	0.166
0.49948	0.28051	994.271	0.166
0.49948	0.34393	994.31	0.166
0.49948	0.40455	994.351	0.166
0.49948	0.46193	994.393	0.166
0.49948	0.54314	994.457	0.166
0.49948	0.58564	994.491	0.166
0.98955	0	991.449	0.167
0.98955	0.1367	991.571	0.167
0.98955	0.21812	991.648	0.167
0.98955	0.2963	991.727	0.167
0.98955	0.34781	991.781	0.167
0.98955	0.38743	991.822	0.167
0.98955	0.47226	991.918	0.167
0.98955	0.54732	992.007	0.167
0.98955	0.60048	992.072	0.167
1.49712	0	988.877	0.168
1.49712	0.06621	988.963	0.168
1.49712	0.1136	989.026	0.167
1.49712	0.21471	989.165	0.167
1.49712	0.24673	989.209	0.167
1.49712	0.30628	989.289	0.167
1.49712	0.43294	989.474	0.167
1.49712	0.51065	989.589	0.167
1.49712	0.60023	989.726	0.167
1.99421	0	986.388	0.168
1.99421	0.03527	986.447	0.168
1.99421	0.16029	986.713	0.168
1.99421	0.28102	986.873	0.168
1.99421	0.35243	986.998	0.168
1.99421	0.41621	987.109	0.168
1.99421	0.49035	987.24	0.168
1.99421	0.54837	987.344	0.168
1.99421	0.60047	987.436	0.168

System: ethanol + butanamide + water; phases: Liquid
Fixed: Temperature, K = 298.15
Fixed: Pressure, kPa = 101
Property: Molar enthalpy of solution, kJ/mol (Liquid); method: Calvet calorimetry
Solvent: Molality, mol/kg of ethanol	Molality, mol/kg of butanamide	Molar enthalpy of solution, kJ/mol	uncertainty
1.001	0.1298	10.547	0.129
1.001	0.2212	10.612	0.13
1.001	0.3152	10.668	0.131
1.001	0.4041	10.729	0.131
1.001	0.4973	10.792	0.132
1.001	0.589	10.856	0.133
2	0.1335	12.151	0.149
2	0.2307	12.228	0.15
2	0.3303	12.303	0.151
2	0.4176	12.362	0.151
2	0.5276	12.457	0.153
2	0.6267	12.529	0.153
3.001	0.1405	13.843	0.17
3.001	0.2438	13.934	0.171
3.001	0.343	13.992	0.171
3.001	0.4529	14.087	0.173
3.001	0.5417	14.153	0.173
3.001	0.6606	14.248	0.175

System: ethanol + butanamide + water; phases: Liquid
Fixed: Temperature, K = 298.15
Fixed: Pressure, kPa = 101
Property: Mass density, kg/m3 (Liquid); method: Vibrating tube method
Solvent: Molality, mol/kg of ethanol	Molality, mol/kg of butanamide	Mass density, kg/m3	uncertainty
0.50026	0	992.872	0.166
0.50026	0.13972	992.981	0.166
0.50026	0.20986	993.038	0.166
0.50026	0.26858	993.09	0.166
0.50026	0.34851	993.16	0.166
0.50026	0.41959	993.229	0.166
0.50026	0.51224	993.326	0.166
0.50026	0.56033	993.377	0.166
0.50026	0.61408	993.431	0.166
0.99695	0	989.175	0.167
0.99695	0.15019	989.403	0.167
0.99695	0.20315	989.485	0.167
0.99695	0.31532	989.658	0.167
0.99695	0.35828	989.724	0.167
0.99695	0.42173	989.822	0.167
0.99695	0.4954	989.942	0.167
0.99695	0.59037	990.098	0.167
0.99695	0.64228	990.183	0.167
1.49715	0	985.83	0.168
1.49715	0.1249	986.093	0.168
1.49715	0.18683	986.222	0.168
1.49715	0.25379	986.365	0.168
1.49715	0.33279	986.532	0.168
1.49715	0.39892	986.673	0.168
1.49715	0.46548	986.813	0.168
1.49715	0.5094	986.91	0.168
1.49715	0.60239	987.099	0.168
1.99633	0	982.791	0.169
1.99633	0.14995	983.177	0.169
1.99633	0.21894	983.347	0.169
1.99633	0.30761	983.55	0.169
1.99633	0.37478	983.704	0.169
1.99633	0.45087	983.871	0.169
1.99633	0.50375	983.988	0.169
1.99633	0.57815	984.15	0.169
1.99633	0.64727	984.298	0.169

System: propan-1-ol + butanamide + water; phases: Liquid
Fixed: Temperature, K = 298.15
Fixed: Pressure, kPa = 101
Property: Molar enthalpy of solution, kJ/mol (Liquid); method: Calvet calorimetry
Solvent: Molality, mol/kg of propan-1-ol	Molality, mol/kg of butanamide	Molar enthalpy of solution, kJ/mol	uncertainty
0.5004	0.1196	10.144	0.124
0.5004	0.2077	10.169	0.125
0.5004	0.3004	10.228	0.125
0.5004	0.3968	10.292	0.126
0.5004	0.5008	10.358	0.127
0.5004	0.5926	10.416	0.128
1	0.1204	11.242	0.138
1	0.2162	11.304	0.138
1	0.3181	11.375	0.139
1	0.4022	11.451	0.14
1	0.5052	11.519	0.141
1	0.6084	11.589	0.142
2.001	0.1343	13.809	0.169
2.001	0.2343	13.879	0.17
2.001	0.3332	13.955	0.171
2.001	0.4461	14.041	0.172
2.001	0.5311	14.109	0.173
2.001	0.6441	14.183	0.174

System: propan-1-ol + butanamide + water; phases: Liquid
Fixed: Temperature, K = 298.15
Fixed: Pressure, kPa = 101
Property: Mass density, kg/m3 (Liquid); method: Vibrating tube method
Solvent: Molality, mol/kg of propan-1-ol	Molality, mol/kg of butanamide	Mass density, kg/m3	uncertainty
0.49737	0	992.277	0.167
0.49737	0.13436	992.403	0.167
0.49737	0.18352	992.449	0.167
0.49737	0.25514	992.522	0.167
0.49737	0.31005	992.577	0.167
0.49737	0.36398	992.636	0.167
0.49737	0.41022	992.69	0.167
0.49737	0.51626	992.809	0.167
0.49737	0.61323	992.929	0.166
0.99547	0	988.169	0.168
0.99547	0.14513	988.41	0.168
0.99547	0.21255	988.525	0.168
0.99547	0.26049	988.606	0.168
0.99547	0.35851	988.767	0.168
0.99547	0.4559	988.933	0.168
0.99547	0.50709	989.02	0.168
0.99547	0.53485	989.069	0.167
0.99547	0.5881	989.162	0.167
1.49527	0	984.539	0.169
1.49527	0.12259	984.799	0.169
1.49527	0.18061	984.922	0.169
1.49527	0.23829	985.037	0.169
1.49527	0.30789	985.164	0.168
1.49527	0.39786	985.329	0.168
1.49527	0.46049	985.438	0.168
1.49527	0.52795	985.561	0.168
1.49527	0.60031	985.707	0.168
2.00103	0	981.139	0.17
2.00103	0.10599	981.375	0.169
2.00103	0.17478	981.52	0.169
2.00103	0.27051	981.717	0.169
2.00103	0.36297	981.898	0.169
2.00103	0.433	982.031	0.169
2.00103	0.48329	982.126	0.169
2.00103	0.52905	982.201	0.169
2.00103	0.60923	982.343	0.169
