Measured thermophysical data. Vapor pressure data for fatty acids obtained using an adaptation of the DSC technique
Source: Thermochim. Acta, 2012, 10.1016/j.tca.2012.07.034
Compound 1: dodecanoic acid, C12H24O2, InChI=1S/C12H24O2/c1-2-3-4-5-6-7-8-9-10-11-12(13)14/h2-11H2,1H3,(H,13,14), purity 99.9%
Compound 2: tetradecanoic acid, C14H28O2, InChI=1S/C14H28O2/c1-2-3-4-5-6-7-8-9-10-11-12-13-14(15)16/h2-13H2,1H3,(H,15,16), purity 99.9%
Compound 3: hexadecanoic acid, C16H32O2, InChI=1S/C16H32O2/c1-2-3-4-5-6-7-8-9-10-11-12-13-14-15-16(17)18/h2-15H2,1H3,(H,17,18), purity 99.9%
Compound 4: octadecanoic acid, C18H36O2, InChI=1S/C18H36O2/c1-2-3-4-5-6-7-8-9-10-11-12-13-14-15-16-17-18(19)20/h2-17H2,1H3,(H,19,20), purity 99.9%
Compound 5: (Z)-9-octadecenoic acid, C18H34O2, InChI=1S/C18H34O2/c1-2-3-4-5-6-7-8-9-10-11-12-13-14-15-16-17-18(19)20/h9-10H,2-8,11-17H2,1H3,(H,19,20)/b10-9-, purity 99.9%

System: dodecanoic acid; phases: Liquid, Gas
Property: Vapor or sublimation pressure, kPa (Liquid); method: DSC
Temperature, K	Vapor or sublimation pressure, kPa	uncertainty
444.6	1.333	0.128
458.9	2.666	0.139
468.5	4	0.172
475	5.333	0.223
479.6	6.666	0.248
484.8	7.999	0.232
490.5	9.333	0.227

System: tetradecanoic acid; phases: Liquid, Gas
Property: Vapor or sublimation pressure, kPa (Liquid); method: DSC
Temperature, K	Vapor or sublimation pressure, kPa	uncertainty
464.6	1.333	0.123
480.8	2.666	0.136
489.5	4	0.172
497.2	5.333	0.194
503.1	6.666	0.228
508.2	7.999	0.256
512.6	9.333	0.274

System: hexadecanoic acid; phases: Liquid, Gas
Property: Vapor or sublimation pressure, kPa (Liquid); method: DSC
Temperature, K	Vapor or sublimation pressure, kPa	uncertainty
483.3	1.333	0.125
498.6	2.666	0.136
509	4	0.16
517.3	5.333	0.187
523.4	6.666	0.233
527.9	7.999	0.246
533.4	9.333	0.232

System: octadecanoic acid; phases: Liquid, Gas
Property: Vapor or sublimation pressure, kPa (Liquid); method: DSC
Temperature, K	Vapor or sublimation pressure, kPa	uncertainty
501.3	1.333	0.12
519.1	2.666	0.132
528.9	4	0.168
535.9	5.333	0.185
543.7	6.666	0.203
548.7	7.999	0.256
553.2	9.333	0.269

System: (Z)-9-octadecenoic acid; phases: Liquid, Gas
Property: Vapor or sublimation pressure, kPa (Liquid); method: DSC
Temperature, K	Vapor or sublimation pressure, kPa	uncertainty
496.7	1.333	0.123
513.1	2.666	0.132
524.7	4	0.157
532.1	5.333	0.191
538.8	6.666	0.217
543.8	7.999	0.275
547.4	9.333	0.323
