Measured thermophysical data. Confinement effects on the phase transition temperature of aqueous NaCl solutions:The extended Gibbs-Thomson equation
Source: Thermochim. Acta, 2015, 10.1016/j.tca.2015.07.013
Compound 1: water, H2O, InChI=1S/H2O/h1H2, purity 99.9%
Compound 2: sodium chloride, ClNa, InChI=1S/ClH.Na/h1H;/q;+1/p-1

System: sodium chloride + water; phases: Liquid, Crystal
Fixed: Pressure, kPa = 98.38
Property: Solid-liquid equilibrium temperature, K (Liquid); method: DTA
Molality, mol/kg of sodium chloride	Solid-liquid equilibrium temperature, K	uncertainty
0	273.15	0.7
0.0499	272.99	0.7
0.0999	272.94	0.7
0.1501	272.59	0.7
0.2	272.48	0.7
0.2503	272.2	0.7
