Measured thermophysical data. Thermophysical properties of the binary mixtures of 2-methyl-tetrahydrofuran with benzene and halobenzenes
Source: Thermochim. Acta, 2005, 10.1016/j.tca.2005.08.034
Compound 1: 2-methyltetrahydrofuran, C5H10O, InChI=1S/C5H10O/c1-5-3-2-4-6-5/h5H,2-4H2,1H3, purity 99%
Compound 2: benzene, C6H6, InChI=1S/C6H6/c1-2-4-6-5-3-1/h1-6H, purity 99.9%
Compound 3: fluorobenzene, C6H5F, InChI=1S/C6H5F/c7-6-4-2-1-3-5-6/h1-5H, purity 99%
Compound 4: chlorobenzene, C6H5Cl, InChI=1S/C6H5Cl/c7-6-4-2-1-3-5-6/h1-5H, purity 99.5%

System: 2-methyltetrahydrofuran; phases: Liquid
Property: Refractive index (Na D-line) (Liquid); method: REFRACT:monochFP
Temperature, K	Pressure, kPa	Refractive index (Na D-line)	uncertainty
298.15	101.325	1.40287	0.000224

System: 2-methyltetrahydrofuran; phases: Liquid
Property: Mass density, kg/m3 (Liquid); method: Vibrating tube method
Temperature, K	Pressure, kPa	Mass density, kg/m3	uncertainty
298.15	101.325	849.2	0.45

System: 2-methyltetrahydrofuran; phases: Liquid, Gas
Property: Surface tension liquid-gas, N/m (Liquid); method: Drop volume
Temperature, K	Surface tension liquid-gas, N/m	uncertainty
298.15	0.02468	0.00031

System: 2-methyltetrahydrofuran; phases: Liquid
Property: Speed of sound, m/s (Liquid); method: OTHER
Temperature, K	Pressure, kPa	Speed of sound, m/s	uncertainty
298.15	101.325	1202.8	2.3

System: benzene; phases: Liquid
Property: Refractive index (Na D-line) (Liquid); method: REFRACT:monoch
Temperature, K	Pressure, kPa	Refractive index (Na D-line)	uncertainty
298.15	101.325	1.49774	9e-05

System: benzene; phases: Liquid
Property: Mass density, kg/m3 (Liquid); method: Vibrating tube method
Temperature, K	Pressure, kPa	Mass density, kg/m3	uncertainty
298.15	101.325	873.39	0.12

System: benzene; phases: Liquid, Gas
Property: Surface tension liquid-gas, N/m (Liquid); method: Drop volume
Temperature, K	Surface tension liquid-gas, N/m	uncertainty
298.15	0.02857	0.00032

System: benzene; phases: Liquid
Property: Speed of sound, m/s (Liquid); method: OTHER
Temperature, K	Pressure, kPa	Speed of sound, m/s	uncertainty
298.15	101.325	1299.2	2.1

System: fluorobenzene; phases: Liquid
Property: Refractive index (Na D-line) (Liquid); method: REFRACT:monoch
Temperature, K	Pressure, kPa	Refractive index (Na D-line)	uncertainty
298.15	101.325	1.462902	0.000218

System: fluorobenzene; phases: Liquid
Property: Mass density, kg/m3 (Liquid); method: Vibrating tube method
Temperature, K	Pressure, kPa	Mass density, kg/m3	uncertainty
298.15	101.325	1018.79	0.52

System: fluorobenzene; phases: Liquid, Gas
Property: Surface tension liquid-gas, N/m (Liquid); method: Drop volume
Temperature, K	Surface tension liquid-gas, N/m	uncertainty
298.15	0.02743	0.00034

System: fluorobenzene; phases: Liquid
Property: Speed of sound, m/s (Liquid); method: OTHER
Temperature, K	Pressure, kPa	Speed of sound, m/s	uncertainty
298.15	101.325	1166	2.3

System: chlorobenzene; phases: Liquid
Property: Refractive index (Na D-line) (Liquid); method: REFRACT:monoch
Temperature, K	Pressure, kPa	Refractive index (Na D-line)	uncertainty
298.15	101.325	1.521758	0.000133

System: chlorobenzene; phases: Liquid
Property: Mass density, kg/m3 (Liquid); method: Vibrating tube method
Temperature, K	Pressure, kPa	Mass density, kg/m3	uncertainty
298.15	101.325	1100.94	0.3

System: chlorobenzene; phases: Liquid, Gas
Property: Surface tension liquid-gas, N/m (Liquid); method: Drop volume
Temperature, K	Surface tension liquid-gas, N/m	uncertainty
298.15	0.033	0.00037

System: chlorobenzene; phases: Liquid
Property: Speed of sound, m/s (Liquid); method: OTHER
Temperature, K	Pressure, kPa	Speed of sound, m/s	uncertainty
298.15	101.325	1267.9	2.1

System: 2-methyltetrahydrofuran + fluorobenzene; phases: Liquid
Fixed: Pressure, kPa = 101.3
Fixed: Temperature, K = 298.15
Property: Excess molar enthalpy (molar enthalpy of mixing), kJ/mol (Liquid); method: Flow calorimetry
Mole fraction of 2-methyltetrahydrofuran	Excess molar enthalpy (molar enthalpy of mixing), kJ/mol	uncertainty
0.056	-0.08	0.004
0.101	-0.156	0.005
0.195	-0.312	0.008
0.288	-0.431	0.01
0.388	-0.521	0.011
0.474	-0.578	0.013
0.583	-0.568	0.012
0.685	-0.517	0.011
0.786	-0.404	0.009
0.889	-0.24	0.006
0.94	-0.135	0.005

System: 2-methyltetrahydrofuran + fluorobenzene; phases: Liquid, Gas
Fixed: Temperature, K = 298.15
Property: Surface tension liquid-gas, N/m (Liquid); method: Drop volume
Mole fraction of 2-methyltetrahydrofuran	Surface tension liquid-gas, N/m	uncertainty
0.0364	0.02739	0.00034
0.108	0.02727	0.00033
0.1998	0.02707	0.00033
0.2952	0.02683	0.00033
0.3998	0.02652	0.00033
0.4958	0.02621	0.00032
0.6048	0.02586	0.00032
0.6784	0.02562	0.00032
0.7796	0.0253	0.00031
0.9097	0.02492	0.00031
0.9707	0.02476	0.00031

System: 2-methyltetrahydrofuran + fluorobenzene; phases: Liquid
Fixed: Pressure, kPa = 101.3
Fixed: Temperature, K = 298.15
Property: Refractive index (Na D-line) (Liquid); method: REFRACT:monoch
Volume fraction of 2-methyltetrahydrofuran	Refractive index (Na D-line)	uncertainty
0.039	1.460797	0.000218
0.1151	1.456664	0.000218
0.2069	1.451598	0.000219
0.3103	1.445768	0.000219
0.4171	1.439602	0.00022
0.5137	1.433925	0.00022
0.6218	1.427357	0.00022
0.6938	1.422822	0.000219
0.7916	1.416614	0.000219
0.9154	1.408487	0.000218
0.9727	1.404725	0.000218

System: 2-methyltetrahydrofuran + fluorobenzene; phases: Liquid
Fixed: Pressure, kPa = 101.3
Fixed: Temperature, K = 298.15
Property: Speed of sound, m/s (Liquid); method: OTHER
Mole fraction of 2-methyltetrahydrofuran	Speed of sound, m/s	uncertainty
0.0456	1168.5	2.3
0.099	1171.6	2.3
0.1923	1176.9	2.3
0.2882	1182.1	2.3
0.3925	1187.1	2.3
0.4884	1191.1	2.3
0.5925	1194.8	2.3
0.6907	1197.6	2.3
0.7942	1199.4	2.3
0.8938	1201	2.3
0.9481	1201.9	2.3

System: 2-methyltetrahydrofuran + fluorobenzene; phases: Liquid
Fixed: Pressure, kPa = 101.3
Fixed: Temperature, K = 298.15
Property: Mass density, kg/m3 (Liquid); method: Vibrating tube method
Mole fraction of 2-methyltetrahydrofuran	Mass density, kg/m3	uncertainty
0.0456	1011.05	0.52
0.099	1001.97	0.51
0.1923	986.13	0.5
0.2882	969.82	0.5
0.3925	952.32	0.49
0.4884	936.02	0.49
0.5925	918.32	0.48
0.6907	901.51	0.47
0.7942	883.72	0.46
0.8938	866.65	0.45
0.9481	857.59	0.45

System: 2-methyltetrahydrofuran + chlorobenzene; phases: Liquid
Fixed: Pressure, kPa = 101.3
Fixed: Temperature, K = 298.15
Property: Excess molar enthalpy (molar enthalpy of mixing), kJ/mol (Liquid); method: Flow calorimetry
Mole fraction of 2-methyltetrahydrofuran	Excess molar enthalpy (molar enthalpy of mixing), kJ/mol	uncertainty
0.058	-0.085	0.004
0.105	-0.168	0.005
0.198	-0.332	0.008
0.294	-0.477	0.011
0.391	-0.572	0.012
0.488	-0.628	0.014
0.585	-0.623	0.013
0.683	-0.575	0.013
0.784	-0.448	0.01
0.883	-0.262	0.007
0.932	-0.165	0.006

System: 2-methyltetrahydrofuran + chlorobenzene; phases: Liquid, Gas
Fixed: Temperature, K = 298.15
Property: Surface tension liquid-gas, N/m (Liquid); method: Drop volume
Mole fraction of 2-methyltetrahydrofuran	Surface tension liquid-gas, N/m	uncertainty
0.0483	0.0326	0.00037
0.0969	0.03219	0.00037
0.1993	0.03131	0.00036
0.2999	0.03045	0.00035
0.3988	0.02961	0.00035
0.503	0.02874	0.00034
0.6008	0.02792	0.00033
0.7024	0.02709	0.00033
0.8028	0.02627	0.00032
0.9051	0.02544	0.00031
0.9496	0.02508	0.00031

System: 2-methyltetrahydrofuran + chlorobenzene; phases: Liquid
Fixed: Pressure, kPa = 101.3
Fixed: Temperature, K = 298.15
Property: Refractive index (Na D-line) (Liquid); method: REFRACT:monoch
Volume fraction of 2-methyltetrahydrofuran	Refractive index (Na D-line)	uncertainty
0.0479	1.516496	0.000137
0.0961	1.511203	0.000141
0.1979	1.499855	0.00015
0.2981	1.488535	0.00016
0.3966	1.477243	0.000171
0.5008	1.465015	0.000184
0.5987	1.45323	0.000189
0.7006	1.440792	0.000195
0.8014	1.428296	0.000202
0.9043	1.415179	0.00021
0.9492	1.409409	0.000214

System: 2-methyltetrahydrofuran + chlorobenzene; phases: Liquid
Fixed: Pressure, kPa = 101.3
Fixed: Temperature, K = 298.15
Property: Speed of sound, m/s (Liquid); method: OTHER
Mole fraction of 2-methyltetrahydrofuran	Speed of sound, m/s	uncertainty
0.0378	1266.6	2.1
0.0995	1264.3	2.1
0.1875	1261.1	2.1
0.2987	1256.5	2.2
0.3922	1251.9	2.2
0.4947	1246.3	2.2
0.5973	1239.9	2.2
0.6435	1236.6	2.2
0.8003	1223.5	2.3
0.9074	1212.9	2.3
0.9393	1209.6	2.3

System: 2-methyltetrahydrofuran + chlorobenzene; phases: Liquid
Fixed: Pressure, kPa = 101.3
Fixed: Temperature, K = 298.15
Property: Mass density, kg/m3 (Liquid); method: Vibrating tube method
Mole fraction of 2-methyltetrahydrofuran	Mass density, kg/m3	uncertainty
0.0378	1092.14	0.3
0.0995	1077.75	0.31
0.1875	1056.86	0.33
0.2987	1030.2	0.35
0.3922	1007.36	0.37
0.4947	981.73	0.4
0.5973	955.71	0.41
0.6435	943.88	0.41
0.8003	902.98	0.43
0.9074	874.39	0.44
0.9393	865.76	0.44

System: benzene + 2-methyltetrahydrofuran; phases: Liquid
Fixed: Pressure, kPa = 101.3
Fixed: Temperature, K = 298.15
Property: Excess molar enthalpy (molar enthalpy of mixing), kJ/mol (Liquid); method: Flow calorimetry
Mole fraction of 2-methyltetrahydrofuran	Excess molar enthalpy (molar enthalpy of mixing), kJ/mol	uncertainty
0.054	-0.022	0.002
0.097	-0.046	0.002
0.188	-0.097	0.003
0.279	-0.138	0.003
0.377	-0.171	0.004
0.494	-0.188	0.004
0.575	-0.194	0.004
0.679	-0.177	0.004
0.783	-0.139	0.003
0.89	-0.082	0.002
0.944	-0.045	0.002

System: benzene + 2-methyltetrahydrofuran; phases: Liquid, Gas
Fixed: Temperature, K = 298.15
Property: Surface tension liquid-gas, N/m (Liquid); method: Drop volume
Mole fraction of 2-methyltetrahydrofuran	Surface tension liquid-gas, N/m	uncertainty
0.0536	0.02833	0.00032
0.0971	0.02815	0.00032
0.1962	0.02774	0.00031
0.3039	0.0273	0.00031
0.396	0.02692	0.00031
0.4976	0.02651	0.00031
0.5976	0.02612	0.00031
0.704	0.02571	0.00031
0.8033	0.02536	0.00031
0.9034	0.02501	0.00031
0.9535	0.02484	0.00031

System: benzene + 2-methyltetrahydrofuran; phases: Liquid
Fixed: Pressure, kPa = 101.3
Fixed: Temperature, K = 298.15
Property: Refractive index (Na D-line) (Liquid); method: REFRACT:monoch
Volume fraction of 2-methyltetrahydrofuran	Refractive index (Na D-line)	uncertainty
0.0603	1.492042	9.3e-05
0.1086	1.48747	9.7e-05
0.2167	1.477238	0.000107
0.331	1.466415	0.000122
0.4263	1.457399	0.000137
0.5289	1.447689	0.000151
0.6273	1.438352	0.000163
0.7294	1.428658	0.000177
0.8223	1.41981	0.00019
0.9137	1.411093	0.000204
0.9587	1.406805	0.000212

System: benzene + 2-methyltetrahydrofuran; phases: Liquid
Fixed: Pressure, kPa = 101.3
Fixed: Temperature, K = 298.15
Property: Speed of sound, m/s (Liquid); method: OTHER
Mole fraction of 2-methyltetrahydrofuran	Speed of sound, m/s	uncertainty
0.0456	1295.7	2.1
0.0981	1290.9	2.1
0.1987	1281.6	2.1
0.2996	1271.8	2.1
0.395	1263	2.1
0.4979	1253.1	2.1
0.5949	1243.6	2.2
0.6798	1235.1	2.2
0.7992	1222.7	2.2
0.896	1212.7	2.3
0.9486	1207.5	2.3

System: benzene + 2-methyltetrahydrofuran; phases: Liquid
Fixed: Pressure, kPa = 101.3
Fixed: Temperature, K = 298.15
Property: Mass density, kg/m3 (Liquid); method: Vibrating tube method
Mole fraction of 2-methyltetrahydrofuran	Mass density, kg/m3	uncertainty
0.0456	872.27	0.13
0.0981	871	0.14
0.1987	868.57	0.17
0.2996	866.21	0.2
0.395	863.99	0.23
0.4979	861.47	0.27
0.5949	859.05	0.3
0.6798	856.87	0.33
0.7992	853.68	0.37
0.896	851.23	0.41
0.9486	850.1	0.43
