Measured thermophysical data. Development of thermal enhanced n-octadecane/porous nano carbon-based materials using 3-step filtered vacuum impregnation method
Source: Thermochim. Acta, 2017, 10.1016/j.tca.2017.06.013
Compound 1: octadecane, C18H38, InChI=1S/C18H38/c1-3-5-7-9-11-13-15-17-18-16-14-12-10-8-6-4-2/h3-18H2,1-2H3

System: octadecane; phases: Crystal, Liquid, Air at 1 atmosphere
Property: Normal melting temperature, K (Crystal); method: DTA
Normal melting temperature, K	uncertainty
301.15	1

System: octadecane; phases: Crystal, Liquid, Air at 1 atmosphere
Property: Molar enthalpy of transition or fusion, kJ/mol (Crystal); method: DSC
Molar enthalpy of transition or fusion, kJ/mol	uncertainty
65.27779308	6.642301752

System: octadecane; phases: Crystal
Property: Thermal conductivity, W/m/K (Crystal); method: Modified Transient Plane Source method
Temperature, K	Pressure, kPa	Thermal conductivity, W/m/K	uncertainty
293.15	101.325	0.26	0.02
