Measured thermophysical data. Investigation of thermodynamic properties of 1,1'-biadamantane
Source: Thermochim. Acta, 2007, 10.1016/j.tca.2007.03.018
Compound 1: carbon dioxide, CO2, InChI=1S/CO2/c2-1-3
Compound 2: water, H2O, InChI=1S/H2O/h1H2
Compound 3: oxygen, O2, InChI=1S/O2/c1-2
Compound 4: 1,1'-biadamantane, C20H30, InChI=1S/C20H30/c1-13-2-15-3-14(1)8-19(7-13,9-15)20-10-16-4-17(11-20)6-18(5-16)12-20/h13-18H,1-12H2

System: 1,1'-biadamantane; phases: Crystal 3, Crystal 2, Gas
Property: Molar enthalpy of transition or fusion, kJ/mol (Crystal 3); method: Adiabatic calorimetry
Molar enthalpy of transition or fusion, kJ/mol	uncertainty
1.154	0.02

System: 1,1'-biadamantane; phases: Crystal 2, Crystal 1, Gas
Property: Molar enthalpy of transition or fusion, kJ/mol (Crystal 2); method: DSC
Molar enthalpy of transition or fusion, kJ/mol	uncertainty
1.3	0.1

System: 1,1'-biadamantane; phases: Crystal 1, Liquid, Gas
Property: Molar enthalpy of transition or fusion, kJ/mol (Crystal 1); method: DSC
Molar enthalpy of transition or fusion, kJ/mol	uncertainty
70	10

System: 1,1'-biadamantane; phases: Crystal 3, Crystal 2, Gas
Property: Triple point temperature, K (Crystal 3); method: ADIACA:corrimp
Triple point temperature, K	uncertainty
336.3	0.3

System: 1,1'-biadamantane; phases: Crystal 2, Crystal 1, Gas
Property: Triple point temperature, K (Crystal 2); method: DTA:corrimp
Triple point temperature, K	uncertainty
509.6	0.6

System: 1,1'-biadamantane; phases: Crystal 1, Liquid, Gas
Property: Triple point temperature, K (Crystal 1); method: DTA:corrimp
Triple point temperature, K	uncertainty
561	1

System: 1,1'-biadamantane; phases: Crystal 3
Fixed: Pressure, kPa = 101.325
Property: Molar heat capacity at constant pressure, J/K/mol (Crystal 3); method: Small (less than 1 g) adiabatic calorimetry
Temperature, K	Molar heat capacity at constant pressure, J/K/mol	uncertainty
5	0.4412	0.024
10	3.035	0.076
20	16	0.26
30	30.58	0.32
40	42.31	0.28
50	52.05	0.33
60	60.95	0.37
70	69.55	0.42
80	78.54	0.47
90	87.69	0.52
100	97.04	0.57
110	106.6	0.6
120	116.4	0.7
130	126.3	0.7
140	136.4	0.7
150	146.7	0.8
160	157.3	0.8
170	168.2	0.9
180	179.3	1
190	190.7	1.1
200	202.7	1.1
210	214.7	1.2
220	227.1	1.2
230	240	1.3
240	253.4	1.3
250	267.7	1.4
260	281.1	1.4
270	295.3	1.5
273.15	299.8	1.6
280	309.6	1.6
290	324	1.7
298.15	335.3	1.7
300	338	1.8
310	352.8	1.8
320	366.5	1.9
330	378.2	1.9
336.3	385	1.9

System: 1,1'-biadamantane; phases: Crystal 2
Fixed: Pressure, kPa = 101.325
Property: Molar heat capacity at constant pressure, J/K/mol (Crystal 2); method: Small (less than 1 g) adiabatic calorimetry
Temperature, K	Molar heat capacity at constant pressure, J/K/mol	uncertainty
336.3	385	1.9
340	389	2
350	400	2
360	412	2
370	424	2

System: 1,1'-biadamantane; phases: Crystal 2
Fixed: Pressure, kPa = 101.325
Property: Molar heat capacity at constant pressure, J/K/mol (Crystal 2); method: Large sample (1 g) DSC
Temperature, K	Molar heat capacity at constant pressure, J/K/mol	uncertainty
380	437	11
390	450	11
400	463	11
410	477	12
417.8	487	12
420	491	12
430	505	12
440	520	12
450	535	13
460	551	13
470	567	14
480	582	15
490	598	15
500	614	15
509.6	629	16

System: 1,1'-biadamantane; phases: Crystal 1
Fixed: Pressure, kPa = 101.325
Property: Molar heat capacity at constant pressure, J/K/mol (Crystal 1); method: Large sample (1 g) DSC
Temperature, K	Molar heat capacity at constant pressure, J/K/mol	uncertainty
509.6	629	16
510	630	16
520	646	16
530	662	16
535	669	16
540	677	17
545	685	17
550	693	17
555	701	17
560	709	17

System: 1,1'-biadamantane; phases: Crystal 3, Gas
Property: Molar heat capacity at saturation pressure, J/K/mol (Crystal 3); method: Small (less than 1 g) adiabatic calorimetry
Temperature, K	Molar heat capacity at saturation pressure, J/K/mol	uncertainty
5.12	0.3991	0.0277
5.48	0.4822	0.0292
5.83	0.5877	0.0311
6.16	0.685	0.0328
6.52	0.8082	0.035
6.89	0.9715	0.0378
7.26	1.141	0.041
7.65	1.358	0.044
8.06	1.589	0.048
8.49	1.895	0.053
8.96	2.209	0.058
9.44	2.572	0.064
9.95	2.983	0.07
10.48	3.464	0.077
11.04	3.988	0.085
11.61	4.561	0.092
12.2	5.242	0.102
12.83	5.943	0.111
13.49	6.781	0.122
14.18	7.626	0.132
14.87	8.538	0.142
15.63	9.556	0.154
16.43	10.67	0.17
17.24	11.86	0.18
18.08	13.09	0.19
18.95	14.44	0.2
19.88	15.84	0.21
20.83	17.31	0.22
21.82	18.74	0.23
22.89	20.35	0.24
22.95	20.46	0.24
24.01	21.99	0.25
24.06	22.16	0.25
25.22	23.79	0.26
26.48	25.74	0.26
27.75	27.57	0.27
29.1	29.32	0.27
30.54	31.4	0.26
31.99	33.13	0.27
33.46	34.98	0.28
34.99	36.71	0.28
36.59	38.54	0.29
38.25	40.44	0.3
40.03	42.38	0.31
41.9	44.38	0.32
43.85	46.11	0.33
45.82	48.13	0.34
47.8	49.99	0.35
49.9	51.98	0.36
52.16	54.02	0.37
56.79	58.28	0.39
59.06	60	0.4
61.48	62.21	0.41
64.1	64.5	0.42
66.87	66.86	0.43
69.6	69.08	0.45
72.27	71.72	0.46
74.94	73.93	0.47
77.75	76.41	0.48
78.69	77.62	0.49
80.6	79.18	0.5
81.1	79.65	0.5
83.35	81.61	0.51
83.41	81.57	0.51
85.61	83.56	0.52
86.26	84.36	0.52
87.88	85.72	0.53
89.1	86.73	0.53
90.15	87.8	0.55
91.92	89.55	0.56
92.41	89.88	0.56
94.69	91.96	0.57
96.97	94.12	0.58
99.26	96.28	0.59
101.55	98.53	0.59
103.84	100.69	0.6
106.12	102.85	0.61
108.41	105.09	0.62
110.71	107.17	0.63
113	109.58	0.64
115.31	111.83	0.65
117.61	113.99	0.66
119.9	116.15	0.66
122.2	118.56	0.67
124.49	120.81	0.68
126.77	123.05	0.69
129.06	125.38	0.7
130.26	126.5	0.7
131.34	127.63	0.71
132.68	129	0.7
134.96	131.3	0.7
137.24	133.6	0.7
139.51	135.9	0.7
141.78	138.2	0.8
144.05	140.5	0.8
146.32	142.9	0.8
148.59	145.3	0.8
150.84	147.7	0.8
153.1	150.1	0.8
155.35	152.4	0.8
157.59	154.7	0.8
159.84	157.1	0.8
162.08	159.6	0.8
164.32	161.9	0.8
166.57	164.4	0.9
168.8	166.9	0.9
171.03	169.3	0.9
173.25	171.7	0.9
175.46	174.2	0.9
177.68	176.7	0.9
179.89	179.2	0.9
182.09	181.7	0.9
184.28	184.2	0.9
186.47	186.7	0.9
188.65	189.2	1
190.83	191.6	1
193	194.2	1
195.17	196.7	1
197.33	199.3	1
199.49	201.8	1
201.65	204.5	1
203.8	207.1	1
205.94	209.8	1
208.08	212.4	1.1
210.21	215	1.1
212.34	217.7	1.1
214.46	220.3	1.1
216.58	222.9	1.1
217.18	223.7	1.1
218.7	225.6	1.1
219.55	226.6	1.1
220.81	228.3	1.1
221.81	229.5	1.1
222.91	231	1.1
224.05	232.4	1.1
225.01	233.7	1.1
226.29	235.3	1.1
228.52	238.3	1.2
230.75	241.1	1.2
232.97	244	1.2
235.18	246.9	1.2
237.39	249.9	1.2
239.59	252.9	1.2
241.79	255.7	1.2
243.98	258.7	1.2
246.17	261.7	1.2
248.35	264.6	1.3
250.52	267.6	1.3
252.71	270.6	1.3
254.88	273.6	1.3
257.04	276.7	1.3
259.19	279.8	1.3
261.34	282.9	1.3
263.48	286	1.3
265.62	289.2	1.4
267.75	292	1.4
269.87	295.1	1.4
271.98	298.2	1.4
274.09	301.2	1.4
275.74	303.3	1.4
276.2	304.1	1.4
277.54	306	1.4
278.29	307.1	1.4
279.26	308.4	1.4
280.39	310.1	1.4
280.98	311	1.4
282.47	313.1	1.5
282.68	313.6	1.5
284.38	316	1.5
284.56	316	1.5
286.08	318.6	1.5
286.65	319.1	1.5
287.78	321.1	1.5
288.72	322.2	1.5
289.47	323.6	1.5
290.79	325	1.5
291.16	325.9	1.5
292.84	328	1.5
292.84	328.3	1.5
294.52	330.7	1.5
294.89	331.1	1.5
296.19	333.2	1.5
296.94	334	1.5
297.87	335.4	1.5
298.98	336.9	1.5
299.54	338	1.6
301.01	339.9	1.6
301.2	340.6	1.6
302.86	342.9	1.6
303.04	342.7	1.6
304.51	345.2	1.6
305.05	345.7	1.6
306.17	347.5	1.6
307.06	348.5	1.6
307.82	349.9	1.6
309.07	351.4	1.6
309.47	352.2	1.6
311.07	354	1.6
311.11	354.6	1.6
312.75	356.8	1.6
313.06	356.9	1.6
314.38	359.1	1.6
315.04	359.6	1.6
316.02	361.4	1.6
317.02	362.4	1.7
317.64	363.7	1.7
319	365.1	1.7
319.26	366	1.7
320.52	367.5	1.7
320.8	367.7	1.7
321.41	368.7	1.7
322.3	370.2	1.7
322.43	370.1	1.7
323.19	371.6	1.7
324.05	372.5	1.7
324.09	372.8	1.7
324.98	374.1	1.7
325.67	375	1.7
325.87	375.2	1.7
326.76	376.5	1.7
327.28	377.6	1.7
327.65	377.8	1.7
328.53	379.5	1.7
328.89	380.4	1.7
329.42	380.9	1.7
330.31	382.3	1.7
330.5	384	1.7
331.19	388.1	1.8
332.05	401.3	1.8
332.08	395.6	1.8
332.9	409.2	1.8
333.64	409.5	1.9
333.73	418.7	1.9
334.55	433.2	2
335.12	446.3	2
335.33	453.8	2.1

System: 1,1'-biadamantane; phases: Crystal 2, Gas
Property: Molar heat capacity at saturation pressure, J/K/mol (Crystal 2); method: Large sample (1 g) DSC
Temperature, K	Molar heat capacity at saturation pressure, J/K/mol	uncertainty
365.3	422.2	10.3
368.9	422.5	10.3
372.5	428.1	10.5
376.1	435.3	10.7
379.7	439.7	10.8
383.3	443.1	10.9
386.9	448.3	11
390.4	452.1	11.1
394	456.9	11.2
397.6	460.5	11.3
401.2	466.4	11.4
404.8	471.7	11.6
408.4	471.9	11.6
412	478.1	11.7
415.6	481.4	11.8
419.2	490.8	12
422.8	493.1	12.1
426.4	496.1	12.2
430	501.3	12.3
433.6	507.8	12.4
437.1	513	12.6
440.7	519.9	12.7
444.3	525	12.9
447.9	529.9	13
451.5	537.9	13.2
455.1	544.8	13.3
458.7	549.6	13.5
462.3	556.8	13.6
465.9	563.6	13.8
469.5	572.6	14
473	579.1	14.2
476.6	584.1	14.3
480.2	587.8	14.4
483.8	600.3	14.7
487.4	611.9	15
491	607.2	14.9
494.6	617.9	15.1
495.5	621.1	15.2
496.4	621.4	15.2
497.3	621.7	15.2
498.1	626.7	15.4
499	629.7	15.4
499.9	632.7	15.5
500.8	635.2	15.6
501.7	637.1	15.6
502.6	636.9	15.6
503.5	639	15.7
504.4	644.5	15.8
505.3	647.9	15.9
506.2	659.8	16.2
507	693.8	17
507.9	741.7	18.2
508.7	773.6	19

System: 1,1'-biadamantane; phases: Crystal 2, Gas
Property: Molar heat capacity at saturation pressure, J/K/mol (Crystal 2); method: Small (less than 1 g) adiabatic calorimetry
Temperature, K	Molar heat capacity at saturation pressure, J/K/mol	uncertainty
336.07	469.6	2.5
336.53	499.5	2.2
336.81	461.5	2.3
337.59	432.8	1.9
337.89	481.7	2.3
338.4	410.4	2.1
339.25	400.5	6.1
339.33	423.8	6.1
340.12	396.8	1.8
340.86	403.4	2.3
340.99	393.9	2.3
341.87	393.4	1.8
342.42	398.5	1.8
342.75	393.3	1.8
343.63	393.7	1.8
343.99	395.4	1.8
344.52	394.3	1.8
345.4	395	1.8
345.57	396.6	1.8
346.29	395.9	1.8
347.15	397.4	1.8
347.17	396.8	1.8
348.06	397.6	1.8
348.72	398.5	1.8
348.95	398.4	1.8
349.84	399.5	1.8
350.3	400	1.8
351.09	401.1	1.8
351.88	403.6	1.8
352.68	402.9	1.8
353.46	405.6	1.8
354.28	404.8	1.8
355.03	407.3	1.8
355.88	406.9	1.8
356.61	409.2	1.8
357.47	408.7	1.8
358.18	411.3	1.8
359.05	411	1.8
359.75	413.4	1.9
360.64	412.9	1.9
361.32	415.4	1.9
362.22	414.6	1.9
362.88	417.5	1.9
363.82	416.7	1.9
364.44	419.7	1.9
365.4	418.8	1.9
366	421.6	1.9
366.98	420.9	1.9
367.55	423.3	1.9
368.55	423	1.9

System: 1,1'-biadamantane; phases: Crystal 1, Gas
Property: Molar heat capacity at saturation pressure, J/K/mol (Crystal 1); method: Large sample (1 g) DSC
Temperature, K	Molar heat capacity at saturation pressure, J/K/mol	uncertainty
509.6	792.3	19.4
510.6	763.7	18.7
511.5	724.5	17.8
512.4	700.9	17.2
513.3	684.2	16.8
514.2	674.9	16.5
515.2	668.9	16.4
516.1	662.2	16.2
517	655.5	16.1
517.9	658.8	16.1
518.8	647.2	15.9
519.7	637.1	15.6
520.6	640.5	15.7
522.4	641.1	15.7
523.3	647.5	15.9
524.2	653.8	16
525.1	653.9	16
526.8	660.2	16.2
527.7	653	16
528.6	663.2	16.2
529.5	664.4	16.3
530.4	664.4	16.3
531.3	663.3	16.2
532.2	664.8	16.3
533.1	667.8	16.4
534	666.7	16.3
534.9	674.5	16.5
535.8	671	16.4
536.7	671.7	16.5
537.6	675	16.5
538.5	681.1	16.7
539.4	676.6	16.6
540.3	677	16.6
543.1	681.3	16.7
544.9	692.5	17
546.7	693.7	17
548.5	702.1	17.2
550.3	709.8	17.4
552.1	724.2	17.7
553.9	741	18.2
555.7	752.9	18.4
557.4	744.3	18.2
559.2	772.6	18.9
561	802.7	19.7

System: 1,1'-biadamantane; phases: Crystal 3
Fixed: Pressure, kPa = 101.325
Property: Molar enthalpy function {Hm(T)-Hm(0)}/T, J/K/mol (Crystal 3); method: Small (less than 1 g) adiabatic calorimetry
Temperature, K	Molar enthalpy function {Hm(T)-Hm(0)}/T, J/K/mol	uncertainty
5	0.09246	0.01699
10	0.7571	0.0277
20	4.867	0.094
30	11.07	0.18
40	17.47	0.21
50	23.44	0.22
60	28.95	0.24
70	34.13	0.27
80	39.13	0.29
90	44.01	0.34
100	48.84	0.36
110	53.65	0.39
120	58.48	0.4
130	63.31	0.43
140	68.17	0.45
150	73	0.47
160	77.99	0.49
170	82.98	0.51
180	88.02	0.54
190	93.12	0.56
200	98.3	0.59
210	103.5	0.6
220	108.9	0.7
230	114.3	0.7
240	119.8	0.7
250	125.5	0.7
260	131.2	0.7
270	137	0.8
273.15	138.9	0.8
280	142.9	0.8
290	148.9	0.8
298.15	153.9	0.8
300	155	0.8
310	161.1	0.9
320	167.3	0.9
330	173.5	0.9
336.3	177.5	1

System: 1,1'-biadamantane; phases: Crystal 2
Fixed: Pressure, kPa = 101.325
Property: Molar enthalpy function {Hm(T)-Hm(0)}/T, J/K/mol (Crystal 2); method: Small (less than 1 g) adiabatic calorimetry
Temperature, K	Molar enthalpy function {Hm(T)-Hm(0)}/T, J/K/mol	uncertainty
336.3	180.9	1
340	183.1	1
350	189.2	1
360	195.2	1.1
370	201.2	1.1

System: 1,1'-biadamantane; phases: Crystal 2
Fixed: Pressure, kPa = 101.325
Property: Molar enthalpy function {Hm(T)-Hm(0)}/T, J/K/mol (Crystal 2); method: Large sample (1 g) DSC
Temperature, K	Molar enthalpy function {Hm(T)-Hm(0)}/T, J/K/mol	uncertainty
380	207.2	3.2
390	213.3	3.3
400	219.3	3.4
410	225.4	3.6
417.8	230.2	3.7
420	231.6	3.7
430	238	4
440	244	4
450	250	4
460	257	5
470	263	5
480	270	5
490	276	5
500	283	5
509.6	289	5

System: 1,1'-biadamantane; phases: Crystal 1
Fixed: Pressure, kPa = 101.325
Property: Molar enthalpy function {Hm(T)-Hm(0)}/T, J/K/mol (Crystal 1); method: Large sample (1 g) DSC
Temperature, K	Molar enthalpy function {Hm(T)-Hm(0)}/T, J/K/mol	uncertainty
509.6	292	6
510	292	6
520	299	6
530	305	6
535	309	6
540	312	6
545	315	6
550	319	6
555	322	6
560	326	6

System: 1,1'-biadamantane; phases: Crystal 2, Gas
Property: Vapor or sublimation pressure, kPa (Crystal 2); method: KNUDSEN:flow
Temperature, K	Vapor or sublimation pressure, kPa	uncertainty
392.77	0.0005447	3.34e-05
398	0.0008576	5.25e-05
402.91	0.001308	8e-05
407.9	0.001881	0.000115
412.88	0.002772	0.00017
422.86	0.006026	0.000369
427.75	0.00828	0.000507
432.81	0.01195	0.00073
437.82	0.01674	0.00103
442.66	0.02466	0.00151

System: 1,1'-biadamantane; phases: Crystal 3
Fixed: Pressure, kPa = 101.325
Property: Molar entropy, J/K/mol (Crystal 3); method: Small (less than 1 g) adiabatic calorimetry
Temperature, K	Molar entropy, J/K/mol	uncertainty
5	0.123	0.0261
10	1.008	0.049
20	6.713	0.191
30	16.03	0.37
40	26.5	0.47
50	37.01	0.56
60	47.28	0.64
70	57.32	0.71
80	67.2	0.79
90	76.98	0.89
100	86.7	0.96
110	96.4	1.03
120	106.1	1.1
130	115.8	1.1
140	125.5	1.3
150	135.2	1.3
160	145.1	1.3
170	155	1.5
180	164.9	1.5
190	174.9	1.7
200	184.9	1.7
210	195.1	1.7
220	205.4	1.9
230	215.8	1.9
240	226.3	2
250	237	2.1
260	247.6	2.2
270	258.5	2.2
273.15	262.1	2.2
280	269.5	2.3
290	280.6	2.4
298.15	289.9	2.4
300	291.9	2.4
310	303.2	2.6
320	314.6	2.6
330	326.1	2.8
336.3	333.4	2.8

System: 1,1'-biadamantane; phases: Crystal 2
Fixed: Pressure, kPa = 101.325
Property: Molar entropy, J/K/mol (Crystal 2); method: Small (less than 1 g) adiabatic calorimetry
Temperature, K	Molar entropy, J/K/mol	uncertainty
336.3	336.8	2.9
340	340	2.9
350	352.4	2.9
360	362.8	3.1
370	374.3	3.1

System: 1,1'-biadamantane; phases: Crystal 2
Fixed: Pressure, kPa = 101.325
Property: Molar entropy, J/K/mol (Crystal 2); method: Large sample (1 g) DSC
Temperature, K	Molar entropy, J/K/mol	uncertainty
380	385.8	9
390	397.3	9.2
400	408.8	9.5
410	420.4	9.8
417.8	429.5	10
420	432.1	10.1
430	444	10
440	456	11
450	467	12
460	479	12
470	491	12
480	503	12
490	516	13
500	528	13
509.6	540	14

System: 1,1'-biadamantane; phases: Crystal 1
Fixed: Pressure, kPa = 101.325
Property: Molar entropy, J/K/mol (Crystal 1); method: Large sample (1 g) DSC
Temperature, K	Molar entropy, J/K/mol	uncertainty
509.6	542	14
510	543	14
520	555	14
530	568	15
535	574	15
540	580	15
545	586	15
550	593	15
555	599	16
560	605	16

Reaction: -1 1,1'-biadamantane + 20 carbon dioxide + 15 water + -27.5 oxygen
Property: Molar internal energy of reaction at constant volume, kJ/mol
-11782.7
