Measured thermophysical data. Enthalpies of solution of l-threonine in aqueous alcohol solutions
Source: Thermochim. Acta, 2005, 10.1016/j.tca.2005.08.031
Compound 1: water, H2O, InChI=1S/H2O/h1H2
Compound 2: L-threonine, C4H9NO3, InChI=1S/C4H9NO3/c1-2(6)3(5)4(7)8/h2-3,6H,5H2,1H3,(H,7,8)/t2-,3+/m1/s1, purity 98%
Compound 3: propan-2-ol, C3H8O, InChI=1S/C3H8O/c1-3(2)4/h3-4H,1-2H3
Compound 4: 1,2-propanediol, C3H8O2, InChI=1S/C3H8O2/c1-3(5)2-4/h3-5H,2H2,1H3
Compound 5: glycerol, C3H8O3, InChI=1S/C3H8O3/c4-1-3(6)2-5/h3-6H,1-2H2

System: L-threonine + water; phases: Liquid
Property: Molar enthalpy of solution, kJ/mol (Liquid); method: CALVET:solid
Mole fraction of L-threonine	Temperature, K	Pressure, kPa	Molar enthalpy of solution, kJ/mol	uncertainty
0	298.15	101	10.347	0.258

System: propan-2-ol + L-threonine + water; phases: Liquid
Fixed: Temperature, K = 298.15
Fixed: Pressure, kPa = 101
Fixed: Molality, mol/kg of L-threonine = 0
Property: Molar enthalpy of solution, kJ/mol (Liquid); method: CALVET:solid
Solvent: Molality, mol/kg of propan-2-ol	Molar enthalpy of solution, kJ/mol	uncertainty
0	10.347	0.258
0.2998	11.042	0.272
0.6	11.502	0.282
0.9999	12.07	0.294
1.4999	12.903	0.312
2.5	13.521	0.325
2.9999	13.673	0.328
4.0001	13.847	0.332

System: 1,2-propanediol + L-threonine + water; phases: Liquid
Fixed: Temperature, K = 298.15
Fixed: Pressure, kPa = 101
Fixed: Molality, mol/kg of L-threonine = 0
Property: Molar enthalpy of solution, kJ/mol (Liquid); method: CALVET:solid
Solvent: Molality, mol/kg of 1,2-propanediol	Molar enthalpy of solution, kJ/mol	uncertainty
0	10.347	0.258
0.3	10.748	0.266
0.6	11.027	0.272
0.9999	11.552	0.283
1.5	12.083	0.294
1.9995	12.551	0.304
2.4998	12.929	0.312
2.9995	13.066	0.315
4	13.237	0.319

System: glycerol + L-threonine + water; phases: Liquid
Fixed: Temperature, K = 298.15
Fixed: Pressure, kPa = 101
Fixed: Molality, mol/kg of L-threonine = 0
Property: Molar enthalpy of solution, kJ/mol (Liquid); method: CALVET:solid
Solvent: Molality, mol/kg of glycerol	Molar enthalpy of solution, kJ/mol	uncertainty
0	10.347	0.258
0.2999	10.453	0.26
0.6	10.559	0.262
0.9982	10.705	0.265
1.5	10.962	0.271
2	11.148	0.274
3	11.363	0.279
3.9996	11.721	0.287
