Measured thermophysical data. Thermodynamics of solution of histidine
Source: Thermochim. Acta, 2006, 10.1016/j.tca.2006.04.008
Compound 1: L-histidine, C6H9N3O2, InChI=1S/C6H9N3O2/c7-5(6(10)11)1-4-2-8-3-9-4/h2-3,5H,1,7H2,(H,8,9)(H,10,11)/t5-/m0/s1
Compound 2: water, H2O, InChI=1S/H2O/h1H2, purity 99.99%

System: L-histidine + water; phases: Liquid
Fixed: Pressure, kPa = 101
Property: Molar enthalpy of solution, kJ/mol (Liquid); method: ISOPERIBOL
Temperature, K	Molality, mol/kg of L-histidine	Molar enthalpy of solution, kJ/mol	uncertainty
288.15	0.00556	13.8	0.14
288.15	0.01275	13.78	0.14
288.15	0.01792	13.76	0.14
288.15	0.01847	13.83	0.14
288.15	0.01904	13.76	0.14
288.15	0.02165	13.65	0.14
293.15	0.008882	13.9	0.14
293.15	0.01765	13.97	0.14
293.15	0.01801	14.02	0.14
293.15	0.02017	13.95	0.14
293.15	0.02245	13.93	0.14
293.15	0.1121	13.67	0.14
306.15	0.003302	14.66	0.15
306.15	0.006683	14.69	0.15
306.15	0.01133	14.73	0.15
306.15	0.02783	14.78	0.15
306.15	0.02928	14.73	0.15
306.15	0.02944	14.84	0.15
306.15	0.05805	14.72	0.15
306.15	0.1184	14.47	0.14
318.15	0.00998	15.71	0.16
318.15	0.01765	15.79	0.16
318.15	0.01956	15.79	0.16
318.15	0.02103	15.76	0.16
318.15	0.1018	15.57	0.16
