Measured thermophysical data. Renewable platform chemicals: Thermochemical study of levulinic acid esters
Source: Thermochim. Acta, 2018, 10.1016/j.tca.2017.12.006
Compound 1: carbon dioxide, CO2, InChI=1S/CO2/c2-1-3
Compound 2: water, H2O, InChI=1S/H2O/h1H2
Compound 3: oxygen, O2, InChI=1S/O2/c1-2
Compound 4: methyl levulinate, C6H10O3, InChI=1S/C6H10O3/c1-5(7)3-4-6(8)9-2/h3-4H2,1-2H3
Compound 5: ethyl levulinate, C7H12O3, InChI=1S/C7H12O3/c1-3-10-7(9)5-4-6(2)8/h3-5H2,1-2H3
Compound 6: butyl levulinate, C9H16O3, InChI=1S/C9H16O3/c1-3-4-7-12-9(11)6-5-8(2)10/h3-7H2,1-2H3
Compound 7: methanol, CH4O, InChI=1S/CH4O/c1-2/h2H,1H3, purity 99.9%
Compound 8: ethanol, C2H6O, InChI=1S/C2H6O/c1-2-3/h3H,2H2,1H3, purity 99.9%
Compound 9: butan-1-ol, C4H10O, InChI=1S/C4H10O/c1-2-3-4-5/h5H,2-4H2,1H3, purity 99.8%
Compound 10: 4-oxopentanoic acid, C5H8O3, InChI=1S/C5H8O3/c1-4(6)2-3-5(7)8/h2-3H2,1H3,(H,7,8), purity 98%

System: methyl levulinate; phases: Liquid, Gas
Property: Vapor or sublimation pressure, kPa (Liquid); method: Transpiration method
Temperature, K	Vapor or sublimation pressure, kPa	uncertainty
293.5	0.0302	0.002
298.5	0.0442	0.0028
303.3	0.0638	0.004
308.5	0.0929	0.0058
313.4	0.1359	0.0085
318.3	0.1837	0.0116
323.2	0.2626	0.0165
328.2	0.3572	0.0223
333.2	0.501	0.03
338.2	0.659	0.04
343.1	0.878	0.055
348.2	1.142	0.072
353.2	1.473	0.091

System: ethyl levulinate; phases: Liquid, Gas
Property: Vapor or sublimation pressure, kPa (Liquid); method: Transpiration method
Temperature, K	Vapor or sublimation pressure, kPa	uncertainty
293.5	0.0169	0.0011
298.4	0.0253	0.0016
303.3	0.0375	0.0023
308.3	0.0542	0.0035
313.3	0.0795	0.005
318.3	0.1129	0.0071
323.3	0.1613	0.0101
328.2	0.2312	0.0145
333.1	0.3106	0.0194
338.1	0.415	0.025
343.1	0.553	0.035
348.8	0.758	0.047

System: butyl levulinate; phases: Liquid, Gas
Property: Vapor or sublimation pressure, kPa (Liquid); method: Transpiration method
Temperature, K	Vapor or sublimation pressure, kPa	uncertainty
298.2	0.00393	0.00026
303.2	0.00611	0.00043
308.1	0.00895	0.00061
313	0.01421	0.00094
318	0.01999	0.0013
323	0.03006	0.00195
327.9	0.0443	0.0028
332.8	0.0632	0.004
337.8	0.0939	0.006
342.8	0.1289	0.008
347.8	0.181	0.0114

Reaction: -1 methyl levulinate + 6 carbon dioxide + 5 water + -7 oxygen
Property: Specific internal energy of reaction at constant volume, J/g
-24100.1

Reaction: -1 ethyl levulinate + 7 carbon dioxide + 6 water + -8.5 oxygen
Property: Specific internal energy of reaction at constant volume, J/g
-26219.2

Reaction: -1 butyl levulinate + 9 carbon dioxide + 8 water + -11.5 oxygen
Property: Specific internal energy of reaction at constant volume, J/g
-29528.8

Reaction: -1 methanol + -1 4-oxopentanoic acid + 1 methyl levulinate + 1 water
Property: Thermodynamic equilibrium constant
28.6

Reaction: -1 ethanol + -1 4-oxopentanoic acid + 1 ethyl levulinate + 1 water
Property: Thermodynamic equilibrium constant
6.7

Reaction: -1 butan-1-ol + -1 4-oxopentanoic acid + 1 butyl levulinate + 1 water
Property: Thermodynamic equilibrium constant
0.64
