Measured thermophysical data. Volumetric and ultrasonic studies of solute-solute and solutesolvent interactions of N-acetyl glycine in aqueous sucrose solutions at different temperatures
Source: Thermochim. Acta, 2014, 10.1016/j.tca.2014.05.014
Compound 1: N-acetylglycine, C4H7NO3, InChI=1S/C4H7NO3/c1-3(6)5-2-4(7)8/h2H2,1H3,(H,5,6)(H,7,8), purity 99%
Compound 2: D-sucrose, C12H22O11, InChI=1S/C12H22O11/c13-1-4-6(16)8(18)9(19)11(21-4)23-12(3-15)10(20)7(17)5(2-14)22-12/h4-11,13-20H,1-3H2/t4-,5-,6-,7-,8+,9-,10+,11-,12+/m1/s1, purity 99%
Compound 3: water, H2O, InChI=1S/H2O/h1H2

System: water; phases: Liquid
Fixed: Pressure, kPa = 101
Property: Mass density, kg/m3 (Liquid); method: Vibrating tube method
Temperature, K	Mass density, kg/m3	uncertainty
288.15	999.591	0.164
293.15	998.551	0.165
298.15	997.255	0.165
303.15	995.775	0.165
308.15	994.329	0.166

System: water; phases: Liquid
Fixed: Pressure, kPa = 101
Fixed: Frequency, MHz = 3
Property: Speed of sound, m/s (Liquid); method: Sing-around technique in a fixed-path interferometer
Temperature, K	Speed of sound, m/s	uncertainty
288.15	1466.59	1.17
293.15	1482.81	1.17
298.15	1497.07	1.18
303.15	1509.41	1.18
308.15	1519.72	1.19

System: D-sucrose + N-acetylglycine + water; phases: Liquid
Fixed: Pressure, kPa = 101
Property: Mass density, kg/m3 (Liquid); method: Vibrating tube method
Temperature, K	Solvent: Molality, mol/kg of D-sucrose	Molality, mol/kg of N-acetylglycine	Mass density, kg/m3	uncertainty
288.15	0	0	999.591	0.164
288.15	0	0.0203	1000.301	0.165
288.15	0	0.06014	1001.628	0.166
288.15	0	0.10019	1002.811	0.166
288.15	0	0.14031	1003.995	0.167
288.15	0	0.16952	1004.752	0.168
288.15	0	0.20016	1005.539	0.169
293.15	0	0	998.551	0.165
293.15	0	0.0203	999.25	0.165
293.15	0	0.06014	1000.601	0.165
293.15	0	0.10019	1001.867	0.166
293.15	0	0.14031	1003.131	0.167
293.15	0	0.16952	1003.968	0.167
293.15	0	0.20016	1004.897	0.168
298.15	0	0	997.255	0.165
298.15	0	0.0203	997.843	0.165
298.15	0	0.06014	999.038	0.165
298.15	0	0.10019	1000.361	0.165
298.15	0	0.14031	1001.63	0.166
298.15	0	0.16952	1002.728	0.166
298.15	0	0.20016	1003.759	0.167
303.15	0	0	995.775	0.165
303.15	0	0.0203	996.325	0.165
303.15	0	0.06014	997.499	0.165
303.15	0	0.10019	998.819	0.165
303.15	0	0.14031	1000.173	0.164
303.15	0	0.16952	1001.254	0.165
303.15	0	0.20016	1002.591	0.166
308.15	0	0	994.329	0.166
308.15	0	0.0203	994.871	0.166
308.15	0	0.06014	996.032	0.165
308.15	0	0.10019	997.262	0.165
308.15	0	0.14031	998.641	0.165
308.15	0	0.16952	999.567	0.164
308.15	0	0.20016	1001.246	0.165
288.15	0.05	0	1006.431	0.169
288.15	0.05	0.0203	1007.005	0.17
288.15	0.05	0.06014	1008.118	0.17
288.15	0.05	0.10019	1009.314	0.171
288.15	0.05	0.14031	1010.448	0.172
288.15	0.05	0.16952	1011.28	0.173
288.15	0.05	0.20016	1012.299	0.174
293.15	0.05	0	1005.423	0.168
293.15	0.05	0.0203	1006.034	0.169
293.15	0.05	0.06014	1007.178	0.17
293.15	0.05	0.10019	1008.333	0.171
293.15	0.05	0.14031	1009.405	0.171
293.15	0.05	0.16952	1010.17	0.172
293.15	0.05	0.20016	1011.035	0.173
298.15	0.05	0	1004.161	0.167
298.15	0.05	0.0203	1004.782	0.168
298.15	0.05	0.06014	1005.936	0.169
298.15	0.05	0.10019	1007.089	0.17
298.15	0.05	0.14031	1008.128	0.17
298.15	0.05	0.16952	1008.886	0.171
298.15	0.05	0.20016	1009.706	0.172
303.15	0.05	0	1002.716	0.166
303.15	0.05	0.0203	1003.318	0.167
303.15	0.05	0.06014	1004.457	0.168
303.15	0.05	0.10019	1005.615	0.169
303.15	0.05	0.14031	1006.682	0.169
303.15	0.05	0.16952	1007.482	0.17
303.15	0.05	0.20016	1008.233	0.171
308.15	0.05	0	1001.275	0.165
308.15	0.05	0.0203	1001.804	0.166
308.15	0.05	0.06014	1002.831	0.166
308.15	0.05	0.10019	1003.93	0.167
308.15	0.05	0.14031	1004.957	0.168
308.15	0.05	0.16952	1005.769	0.169
308.15	0.05	0.20016	1006.677	0.169
288.15	0.15	0	1018.999	0.179
288.15	0.15	0.02005	1019.622	0.179
288.15	0.15	0.06	1020.827	0.18
288.15	0.15	0.09972	1021.979	0.181
288.15	0.15	0.14038	1023.146	0.182
288.15	0.15	0.16952	1023.901	0.182
288.15	0.15	0.19912	1024.669	0.183
293.15	0.15	0	1017.992	0.178
293.15	0.15	0.02005	1018.604	0.178
293.15	0.15	0.06	1019.783	0.179
293.15	0.15	0.09972	1020.913	0.18
293.15	0.15	0.14038	1022.063	0.181
293.15	0.15	0.16952	1022.795	0.182
293.15	0.15	0.19912	1023.553	0.182
298.15	0.15	0	1016.731	0.177
298.15	0.15	0.02005	1017.329	0.177
298.15	0.15	0.06	1018.491	0.178
298.15	0.15	0.09972	1019.613	0.179
298.15	0.15	0.14038	1020.732	0.18
298.15	0.15	0.16952	1021.419	0.18
298.15	0.15	0.19912	1022.173	0.181
303.15	0.15	0	1015.241	0.176
303.15	0.15	0.02005	1015.831	0.176
303.15	0.15	0.06	1016.976	0.177
303.15	0.15	0.09972	1018.077	0.178
303.15	0.15	0.14038	1019.178	0.179
303.15	0.15	0.16952	1019.869	0.179
303.15	0.15	0.19912	1020.655	0.18
308.15	0.15	0	1013.544	0.175
308.15	0.15	0.02005	1014.125	0.175
308.15	0.15	0.06	1015.253	0.176
308.15	0.15	0.09972	1016.356	0.177
308.15	0.15	0.14038	1017.424	0.177
308.15	0.15	0.16952	1018.205	0.178
308.15	0.15	0.19912	1018.905	0.179
288.15	0.25	0	1030.988	0.188
288.15	0.25	0.02026	1031.577	0.188
288.15	0.25	0.06043	1032.723	0.189
288.15	0.25	0.09686	1033.736	0.19
288.15	0.25	0.1402	1034.928	0.191
288.15	0.25	0.16956	1035.709	0.191
288.15	0.25	0.20059	1036.522	0.192
293.15	0.25	0	1029.901	0.187
293.15	0.25	0.02026	1030.481	0.187
293.15	0.25	0.06043	1031.605	0.188
293.15	0.25	0.09686	1032.603	0.189
293.15	0.25	0.1402	1033.776	0.19
293.15	0.25	0.16956	1034.538	0.19
293.15	0.25	0.20059	1035.351	0.191
298.15	0.25	0	1028.575	0.186
298.15	0.25	0.02026	1029.143	0.186
298.15	0.25	0.06043	1030.254	0.187
298.15	0.25	0.09686	1031.23	0.188
298.15	0.25	0.1402	1032.361	0.189
298.15	0.25	0.16956	1033.129	0.189
298.15	0.25	0.20059	1033.901	0.19
303.15	0.25	0	1026.975	0.185
303.15	0.25	0.02026	1027.551	0.185
303.15	0.25	0.06043	1028.665	0.186
303.15	0.25	0.09686	1029.64	0.187
303.15	0.25	0.1402	1030.763	0.188
303.15	0.25	0.16956	1031.51	0.188
303.15	0.25	0.20059	1032.258	0.189
308.15	0.25	0	1025.279	0.183
308.15	0.25	0.02026	1025.828	0.184
308.15	0.25	0.06043	1026.899	0.185
308.15	0.25	0.09686	1027.857	0.185
308.15	0.25	0.1402	1028.974	0.186
308.15	0.25	0.16956	1029.695	0.187
308.15	0.25	0.20059	1030.481	0.187
288.15	0.35	0	1042.86	0.197
288.15	0.35	0.02007	1043.419	0.197
288.15	0.35	0.06093	1044.547	0.198
288.15	0.35	0.10065	1045.629	0.199
288.15	0.35	0.14062	1046.708	0.2
288.15	0.35	0.17051	1047.508	0.2
288.15	0.35	0.20195	1048.341	0.201
293.15	0.35	0	1041.706	0.196
293.15	0.35	0.02007	1042.256	0.196
293.15	0.35	0.06093	1043.36	0.197
293.15	0.35	0.10065	1044.426	0.198
293.15	0.35	0.14062	1045.477	0.199
293.15	0.35	0.17051	1046.256	0.199
293.15	0.35	0.20195	1047.058	0.2
298.15	0.35	0	1040.317	0.195
298.15	0.35	0.02007	1040.857	0.195
298.15	0.35	0.06093	1041.94	0.196
298.15	0.35	0.10065	1042.983	0.197
298.15	0.35	0.14062	1044.017	0.198
298.15	0.35	0.17051	1044.748	0.198
298.15	0.35	0.20195	1045.545	0.199
303.15	0.35	0	1038.715	0.194
303.15	0.35	0.02007	1039.245	0.194
303.15	0.35	0.06093	1040.311	0.195
303.15	0.35	0.10065	1041.332	0.196
303.15	0.35	0.14062	1042.351	0.196
303.15	0.35	0.17051	1043.085	0.197
303.15	0.35	0.20195	1043.872	0.198
308.15	0.35	0	1036.918	0.192
308.15	0.35	0.02007	1037.408	0.193
308.15	0.35	0.06093	1038.41	0.193
308.15	0.35	0.10065	1039.412	0.194
308.15	0.35	0.14062	1040.43	0.195
308.15	0.35	0.17051	1041.241	0.196
308.15	0.35	0.20195	1042.189	0.196

System: D-sucrose + N-acetylglycine + water; phases: Liquid
Fixed: Pressure, kPa = 101
Fixed: Frequency, MHz = 3
Property: Speed of sound, m/s (Liquid); method: Sing-around technique in a fixed-path interferometer
Temperature, K	Solvent: Molality, mol/kg of D-sucrose	Molality, mol/kg of N-acetylglycine	Speed of sound, m/s	uncertainty
288.15	0	0	1466.59	1.17
288.15	0	0.0203	1467.53	1.17
288.15	0	0.06014	1469.42	1.17
288.15	0	0.10019	1471.37	1.17
288.15	0	0.14031	1473.35	1.17
288.15	0	0.16952	1474.77	1.17
288.15	0	0.20016	1475.87	1.17
293.15	0	0	1482.81	1.17
293.15	0	0.0203	1483.59	1.17
293.15	0	0.06014	1485.36	1.17
293.15	0	0.10019	1486.78	1.17
293.15	0	0.14031	1488.87	1.18
293.15	0	0.16952	1489.93	1.18
293.15	0	0.20016	1491.37	1.18
298.15	0	0	1497.07	1.18
298.15	0	0.0203	1497.66	1.18
298.15	0	0.06014	1499.01	1.18
298.15	0	0.10019	1500.48	1.18
298.15	0	0.14031	1502.13	1.18
298.15	0	0.16952	1503.31	1.18
298.15	0	0.20016	1504.25	1.18
303.15	0	0	1509.41	1.18
303.15	0	0.0203	1510.01	1.18
303.15	0	0.06014	1511.39	1.18
303.15	0	0.10019	1512.4	1.19
303.15	0	0.14031	1514.16	1.19
303.15	0	0.16952	1514.93	1.19
303.15	0	0.20016	1515.63	1.19
308.15	0	0	1519.72	1.19
308.15	0	0.0203	1520.3	1.19
308.15	0	0.06014	1521.51	1.19
308.15	0	0.10019	1522.64	1.19
308.15	0	0.14031	1523.97	1.19
308.15	0	0.16952	1524.9	1.19
308.15	0	0.20016	1525.84	1.19
288.15	0.05	0	1471.51	1.17
288.15	0.05	0.0203	1472.48	1.17
288.15	0.05	0.06014	1474.37	1.17
288.15	0.05	0.10019	1476.24	1.17
288.15	0.05	0.14031	1478.23	1.17
288.15	0.05	0.16952	1479.6	1.17
288.15	0.05	0.20016	1481.25	1.17
293.15	0.05	0	1487.43	1.18
293.15	0.05	0.0203	1488.14	1.18
293.15	0.05	0.06014	1489.69	1.18
293.15	0.05	0.10019	1491.47	1.18
293.15	0.05	0.14031	1493.18	1.18
293.15	0.05	0.16952	1494.44	1.18
293.15	0.05	0.20016	1496.27	1.18
298.15	0.05	0	1501.37	1.18
298.15	0.05	0.0203	1501.99	1.18
298.15	0.05	0.06014	1503.32	1.18
298.15	0.05	0.10019	1504.98	1.18
298.15	0.05	0.14031	1506.85	1.18
298.15	0.05	0.16952	1507.64	1.18
298.15	0.05	0.20016	1509.88	1.18
303.15	0.05	0	1513.5	1.19
303.15	0.05	0.0203	1514.02	1.19
303.15	0.05	0.06014	1515.3	1.19
303.15	0.05	0.10019	1516.7	1.19
303.15	0.05	0.14031	1518.38	1.19
303.15	0.05	0.16952	1519.07	1.19
303.15	0.05	0.20016	1520.99	1.19
308.15	0.05	0	1523.7	1.19
308.15	0.05	0.0203	1524.28	1.19
308.15	0.05	0.06014	1525.59	1.19
308.15	0.05	0.10019	1526.76	1.19
308.15	0.05	0.14031	1528.05	1.19
308.15	0.05	0.16952	1528.88	1.19
308.15	0.05	0.20016	1530.03	1.19
288.15	0.15	0	1480.98	1.17
288.15	0.15	0.02005	1482.08	1.17
288.15	0.15	0.06	1483.86	1.17
288.15	0.15	0.09972	1486.26	1.17
288.15	0.15	0.14038	1488.12	1.18
288.15	0.15	0.16952	1489.81	1.18
288.15	0.15	0.19912	1491.13	1.18
293.15	0.15	0	1496.31	1.18
293.15	0.15	0.02005	1497.31	1.18
293.15	0.15	0.06	1499.23	1.18
293.15	0.15	0.09972	1501.19	1.18
293.15	0.15	0.14038	1502.74	1.18
293.15	0.15	0.16952	1504.21	1.18
293.15	0.15	0.19912	1505.46	1.18
298.15	0.15	0	1509.89	1.18
298.15	0.15	0.02005	1510.72	1.18
298.15	0.15	0.06	1512.34	1.19
298.15	0.15	0.09972	1514.03	1.19
298.15	0.15	0.14038	1515.65	1.19
298.15	0.15	0.16952	1517.16	1.19
298.15	0.15	0.19912	1518.08	1.19
303.15	0.15	0	1521.67	1.19
303.15	0.15	0.02005	1522.44	1.19
303.15	0.15	0.06	1523.89	1.19
303.15	0.15	0.09972	1525.32	1.19
303.15	0.15	0.14038	1526.83	1.19
303.15	0.15	0.16952	1528.06	1.19
303.15	0.15	0.19912	1528.98	1.19
308.15	0.15	0	1531.78	1.19
308.15	0.15	0.02005	1532.53	1.19
308.15	0.15	0.06	1533.79	1.19
308.15	0.15	0.09972	1535.4	1.19
308.15	0.15	0.14038	1536.35	1.19
308.15	0.15	0.16952	1537.35	1.2
308.15	0.15	0.19912	1538.28	1.2
288.15	0.25	0	1490.65	1.18
288.15	0.25	0.02026	1491.66	1.18
288.15	0.25	0.06043	1493.78	1.18
288.15	0.25	0.09686	1495.55	1.18
288.15	0.25	0.1402	1497.81	1.18
288.15	0.25	0.16956	1499.21	1.18
288.15	0.25	0.20059	1500.85	1.18
293.15	0.25	0	1505.72	1.18
293.15	0.25	0.02026	1506.56	1.18
293.15	0.25	0.06043	1508.28	1.18
293.15	0.25	0.09686	1509.93	1.18
293.15	0.25	0.1402	1512.21	1.18
293.15	0.25	0.16956	1513.37	1.19
293.15	0.25	0.20059	1514.89	1.19
298.15	0.25	0	1518.91	1.19
298.15	0.25	0.02026	1519.62	1.19
298.15	0.25	0.06043	1521.38	1.19
298.15	0.25	0.09686	1522.61	1.19
298.15	0.25	0.1402	1524.73	1.19
298.15	0.25	0.16956	1525.51	1.19
298.15	0.25	0.20059	1527.12	1.19
303.15	0.25	0	1530.3	1.19
303.15	0.25	0.02026	1530.94	1.19
303.15	0.25	0.06043	1532.58	1.19
303.15	0.25	0.09686	1533.63	1.19
303.15	0.25	0.1402	1535.49	1.19
303.15	0.25	0.16956	1536.17	1.19
303.15	0.25	0.20059	1537.61	1.2
308.15	0.25	0	1539.87	1.2
308.15	0.25	0.02026	1540.52	1.2
308.15	0.25	0.06043	1541.87	1.2
308.15	0.25	0.09686	1542.97	1.2
308.15	0.25	0.1402	1544.48	1.2
308.15	0.25	0.16956	1545.26	1.2
308.15	0.25	0.20059	1546.32	1.2
288.15	0.35	0	1500.53	1.18
288.15	0.35	0.02007	1501.57	1.18
288.15	0.35	0.06093	1503.65	1.18
288.15	0.35	0.10065	1505.85	1.18
288.15	0.35	0.14062	1507.82	1.18
288.15	0.35	0.17051	1509.47	1.18
288.15	0.35	0.20195	1511.1	1.18
293.15	0.35	0	1514.95	1.19
293.15	0.35	0.02007	1515.9	1.19
293.15	0.35	0.06093	1517.82	1.19
293.15	0.35	0.10065	1519.75	1.19
293.15	0.35	0.14062	1521.55	1.19
293.15	0.35	0.17051	1523.13	1.19
293.15	0.35	0.20195	1524.49	1.19
298.15	0.35	0	1527.71	1.19
298.15	0.35	0.02007	1528.58	1.19
298.15	0.35	0.06093	1530.28	1.19
298.15	0.35	0.10065	1532.02	1.19
298.15	0.35	0.14062	1533.63	1.19
298.15	0.35	0.17051	1535.07	1.19
298.15	0.35	0.20195	1536.27	1.19
303.15	0.35	0	1538.74	1.2
303.15	0.35	0.02007	1539.5	1.2
303.15	0.35	0.06093	1541.09	1.2
303.15	0.35	0.10065	1543.01	1.2
303.15	0.35	0.14062	1544.03	1.2
303.15	0.35	0.17051	1545.3	1.2
303.15	0.35	0.20195	1546.38	1.2
308.15	0.35	0	1548.16	1.2
308.15	0.35	0.02007	1548.86	1.2
308.15	0.35	0.06093	1550.25	1.2
308.15	0.35	0.10065	1551.73	1.2
308.15	0.35	0.14062	1552.85	1.2
308.15	0.35	0.17051	1553.78	1.2
308.15	0.35	0.20195	1554.95	1.2

System: N-acetylglycine + water; phases: Liquid
Fixed: Pressure, kPa = 101
Property: Mass density, kg/m3 (Liquid); method: Vibrating tube method
Temperature, K	Molality, mol/kg of N-acetylglycine	Mass density, kg/m3	uncertainty
288.15	0.0203	1000.301	0.165
288.15	0.06014	1001.628	0.166
288.15	0.10019	1002.811	0.166
288.15	0.14031	1003.995	0.167
288.15	0.16952	1004.752	0.168
288.15	0.20016	1005.539	0.169
293.15	0.0203	999.25	0.165
293.15	0.06014	1000.601	0.165
293.15	0.10019	1001.867	0.166
293.15	0.14031	1003.131	0.167
293.15	0.16952	1003.968	0.167
293.15	0.20016	1004.897	0.168
298.15	0.0203	997.843	0.165
298.15	0.06014	999.038	0.165
298.15	0.10019	1000.361	0.165
298.15	0.14031	1001.63	0.166
298.15	0.16952	1002.728	0.166
298.15	0.20016	1003.759	0.167
303.15	0.0203	996.325	0.165
303.15	0.06014	997.499	0.165
303.15	0.10019	998.819	0.165
303.15	0.14031	1000.173	0.164
303.15	0.16952	1001.254	0.165
303.15	0.20016	1002.591	0.166
308.15	0.0203	994.871	0.166
308.15	0.06014	996.032	0.165
308.15	0.10019	997.262	0.165
308.15	0.14031	998.641	0.165
308.15	0.16952	999.567	0.164
308.15	0.20016	1001.246	0.165

System: N-acetylglycine + water; phases: Liquid
Fixed: Pressure, kPa = 101
Fixed: Frequency, MHz = 3
Property: Speed of sound, m/s (Liquid); method: Sing-around technique in a fixed-path interferometer
Temperature, K	Molality, mol/kg of N-acetylglycine	Speed of sound, m/s	uncertainty
288.15	0.0203	1467.53	1.17
288.15	0.06014	1469.42	1.17
288.15	0.10019	1471.37	1.17
288.15	0.14031	1473.35	1.17
288.15	0.16952	1474.77	1.17
288.15	0.20016	1475.87	1.17
293.15	0.0203	1483.59	1.17
293.15	0.06014	1485.36	1.17
293.15	0.10019	1486.78	1.17
293.15	0.14031	1488.87	1.18
293.15	0.16952	1489.93	1.18
293.15	0.20016	1491.37	1.18
298.15	0.0203	1497.66	1.18
298.15	0.06014	1499.01	1.18
298.15	0.10019	1500.48	1.18
298.15	0.14031	1502.13	1.18
298.15	0.16952	1503.31	1.18
298.15	0.20016	1504.25	1.18
303.15	0.0203	1510.01	1.18
303.15	0.06014	1511.39	1.18
303.15	0.10019	1512.4	1.19
303.15	0.14031	1514.16	1.19
303.15	0.16952	1514.93	1.19
303.15	0.20016	1515.63	1.19
308.15	0.0203	1520.3	1.19
308.15	0.06014	1521.51	1.19
308.15	0.10019	1522.64	1.19
308.15	0.14031	1523.97	1.19
308.15	0.16952	1524.9	1.19
308.15	0.20016	1525.84	1.19

System: D-sucrose + water; phases: Liquid
Fixed: Pressure, kPa = 101
Property: Mass density, kg/m3 (Liquid); method: Vibrating tube method
Temperature, K	Molality, mol/kg of D-sucrose	Mass density, kg/m3	uncertainty
288.15	0.05	1006.431	0.169
293.15	0.05	1005.423	0.168
298.15	0.05	1004.161	0.167
303.15	0.05	1002.716	0.166
308.15	0.05	1001.275	0.165
288.15	0.15	1018.999	0.179
293.15	0.15	1017.992	0.178
298.15	0.15	1016.731	0.177
303.15	0.15	1015.241	0.176
308.15	0.15	1013.544	0.175
288.15	0.25	1030.988	0.188
293.15	0.25	1029.901	0.187
298.15	0.25	1028.575	0.186
303.15	0.25	1026.975	0.185
308.15	0.25	1025.279	0.183
288.15	0.35	1042.86	0.197
293.15	0.35	1041.706	0.196
298.15	0.35	1040.317	0.195
303.15	0.35	1038.715	0.194
308.15	0.35	1036.918	0.192

System: D-sucrose + water; phases: Liquid
Fixed: Pressure, kPa = 101
Fixed: Frequency, MHz = 3
Property: Speed of sound, m/s (Liquid); method: Sing-around technique in a fixed-path interferometer
Temperature, K	Molality, mol/kg of D-sucrose	Speed of sound, m/s	uncertainty
288.15	0.05	1471.51	1.17
293.15	0.05	1487.43	1.18
298.15	0.05	1501.37	1.18
303.15	0.05	1513.5	1.19
308.15	0.05	1523.7	1.19
288.15	0.15	1480.98	1.17
293.15	0.15	1496.31	1.18
298.15	0.15	1509.89	1.18
303.15	0.15	1521.67	1.19
308.15	0.15	1531.78	1.19
288.15	0.25	1490.65	1.18
293.15	0.25	1505.72	1.18
298.15	0.25	1518.91	1.19
303.15	0.25	1530.3	1.19
308.15	0.25	1539.87	1.2
288.15	0.35	1500.53	1.18
293.15	0.35	1514.95	1.19
298.15	0.35	1527.71	1.19
303.15	0.35	1538.74	1.2
308.15	0.35	1548.16	1.2
