Measured thermophysical data. Solubility data for benzene in aqueous solutions of methyldiethanolamine (MDEA) and of diglycolamine (DGA)
Source: Thermochim. Acta, 2006, 10.1016/j.tca.2006.01.012
Compound 1: N-methyldiethanolamine, C5H13NO2, InChI=1S/C5H13NO2/c1-6(2-4-7)3-5-8/h7-8H,2-5H2,1H3
Compound 2: 2-(2-aminoethoxy)ethanol, C4H11NO2, InChI=1S/C4H11NO2/c5-1-3-7-4-2-6/h6H,1-5H2
Compound 3: benzene, C6H6, InChI=1S/C6H6/c1-2-4-6-5-3-1/h1-6H
Compound 4: water, H2O, InChI=1S/H2O/h1H2

System: benzene + water; phases: Liquid mixture 1, Liquid mixture 2, Gas
Property: Vapor or sublimation pressure, kPa (Liquid mixture 1); method: Closed cell (Static) method
Temperature, K	Vapor or sublimation pressure, kPa	uncertainty
298.03	16	0.1
313.21	31.6	0.2
373.25	281.5	1.2
393.09	496	2

System: benzene + N-methyldiethanolamine + water; phases: Liquid mixture 1, Liquid mixture 2, Gas
Property: Vapor or sublimation pressure, kPa (Liquid mixture 1); method: Closed cell (Static) method
Solvent: Mass fraction of N-methyldiethanolamine	Temperature, K	Vapor or sublimation pressure, kPa	uncertainty
0	298.03	16	0.1
0	313.21	31.6	0.2
0	373.25	281.5	1.2
0	393.09	496	2.1
0.25	294.85	14	0.1
0.25	297.54	15.9	0.1
0.25	300.07	17.8	0.1
0.25	302.57	20	0.1
0.25	302.58	20.1	0.1
0.25	307.57	25	0.1
0.25	312.64	30.9	0.2
0.25	317.63	38.1	0.2
0.25	322.62	46.8	0.2
0.25	327.66	57.3	0.3
0.25	327.68	57.4	0.3
0.25	332.74	70	0.3
0.25	337.75	84.6	0.4
0.25	342.73	100.7	0.5
0.25	347.61	119.9	0.5
0.25	352.63	142	0.6
0.25	357.63	168.9	0.8
0.25	357.64	169.3	0.8
0.25	362.63	198.6	0.9
0.25	367.67	231.9	1
0.25	372.68	271	1.2
0.25	372.69	271.4	1.2
0.25	377.71	314.4	1.4
0.25	382.72	363.4	1.6
0.25	387.81	419.6	1.8
0.25	392.82	481.2	2.1
0.25	392.83	481.8	2.1
0.25	397.66	548	2.4
0.25	397.82	550.2	2.4
0.25	402.84	626.5	2.7
0.25	402.86	627.2	2.7
0.25	317.63	38.1	0.2
0.25	347.61	120.1	0.5
0.25	362.63	198.7	0.9
0.25	377.71	314.2	1.4
0.5	291.8	14.5	0.1
0.5	293.33	15.5	0.1
0.5	298.12	18.7	0.1
0.5	303.14	22.9	0.1
0.5	313.22	34.1	0.2
0.5	322.89	49.6	0.2
0.5	332.91	71.4	0.3
0.5	342.93	100.2	0.5
0.5	352.87	138.2	0.6
0.5	363	193.4	0.9
0.5	372.94	263	1.2
0.5	383.1	354	1.5
0.5	393.35	452.6	2

System: benzene + N-methyldiethanolamine + water; phases: Liquid mixture 1, Liquid mixture 2
Property: Mole fraction of benzene (Liquid mixture 1); method: Chromatography
Temperature, K	Pressure, kPa	Solvent: Mass fraction of N-methyldiethanolamine	Mole fraction of benzene	uncertainty
298.04	500.9	0.25	0.000906	9e-06
298.06	2532	0.25	0.000844	8e-06
298.1	503.5	0.5	0.0038	0.0001
298.14	2501	0.5	0.00319	3e-05
298.14	8045	0.25	0.000835	8e-06
307.98	448.6	0.25	0.000982	1e-05
332.95	2488	0.25	0.00139	1.4e-05
332.96	499.7	0.25	0.00146	1.5e-05
332.98	7992	0.25	0.00131	1.3e-05
333.06	2504	0.5	0.00561	6e-05
333.09	499.2	0.5	0.00691	7e-05
363.1	506.6	0.25	0.00259	2.6e-05
363.19	503.6	0.5	0.0113	0.0001
375.25	8156	0.25	0.00365	3.7e-05
393.21	514.5	0.25	0.00425	4.3e-05
393.21	2482	0.25	0.00404	4e-05
393.27	2456	0.5	0.0163	0.0002
393.32	515.8	0.5	0.0172	0.0002

System: benzene + 2-(2-aminoethoxy)ethanol + water; phases: Liquid mixture 1, Liquid mixture 2, Gas
Property: Vapor or sublimation pressure, kPa (Liquid mixture 1); method: Closed cell (Static) method
Solvent: Mass fraction of 2-(2-aminoethoxy)ethanol	Temperature, K	Vapor or sublimation pressure, kPa	uncertainty
0.35	292.16	12.7	0.1
0.35	292.64	12.9	0.1
0.35	292.72	13	0.1
0.35	297.75	16.3	0.1
0.35	302.77	20.3	0.1
0.35	312.64	30.7	0.2
0.35	322.3	45.5	0.2
0.35	332.78	68.1	0.3
0.35	342.86	99.2	0.4
0.35	352.81	140.6	0.6
0.35	362.81	195.8	0.8
0.35	372.83	267.2	1.1
0.35	382.87	359	1.5
0.35	392.91	472.7	2
0.35	393.92	485.4	2
0.7	293.14	15	0.1
0.7	294.36	15.7	0.1
0.7	297.79	17.7	0.1
0.7	302.81	21.2	0.1
0.7	312.85	30.4	0.2
0.7	322.68	43.3	0.2
0.7	332.82	62.8	0.3
0.7	342.87	90	0.4
0.7	352.89	127.3	0.5
0.7	362.89	176.4	0.7
0.7	372.92	240	1
0.7	382.95	319.1	1.3
0.7	392.99	413.9	1.7
0.7	393.99	423.9	1.8

System: benzene + 2-(2-aminoethoxy)ethanol + water; phases: Liquid mixture 1, Liquid mixture 2
Property: Mole fraction of benzene (Liquid mixture 1); method: Chromatography
Temperature, K	Pressure, kPa	Solvent: Mass fraction of 2-(2-aminoethoxy)ethanol	Mole fraction of benzene	uncertainty
298.21	2486	0.35	0.00156	2e-05
298.22	501.5	0.35	0.00193	2e-05
298.22	504.9	0.7	0.024	0.0002
298.22	4995	0.7	0.0222	0.0002
333.11	518.1	0.7	0.0422	0.0004
333.11	4995	0.7	0.037	0.0004
333.14	504.1	0.35	0.00314	3e-05
363.2	505.2	0.35	0.00473	5e-05
363.23	507	0.7	0.0666	0.0007
363.23	5047	0.7	0.0634	0.0006
393.22	502.5	0.35	0.00755	8e-05
393.24	528.3	0.7	0.108	0.0011
