Measured thermophysical data. Vapor Pressures and Standard Molar Enthalpies, Entropies and Gibbs energies of Sublimation of two hexachloro herbicides using a TG unit
Source: Thermochim. Acta, 2010, 10.1016/j.tca.2009.10.017
Compound 1: hexachlorobenzene, C6Cl6, InChI=1S/C6Cl6/c7-1-2(8)4(10)6(12)5(11)3(1)9, purity 95%
Compound 2: .gamma.-1,2,3,4,5,6-hexachlorocyclohexane, C6H6Cl6, InChI=1S/C6H6Cl6/c7-1-2(8)4(10)6(12)5(11)3(1)9/h1-6H/t1-,2-,3-,4+,5+,6+, purity 95%

System: hexachlorobenzene; phases: Crystal, Gas
Property: Vapor or sublimation pressure, kPa (Crystal); method: non-isothermal thermogravimetry
Temperature, K	Vapor or sublimation pressure, kPa	uncertainty
397.5	0.038	0.002
400.4	0.048	0.002
400.8	0.041	0.002
401.2	0.048	0.002
402	0.047	0.002
402.8	0.057	0.003
403.6	0.05	0.003
404.1	0.061	0.003
404.5	0.051	0.003
404.9	0.058	0.003
405.3	0.053	0.003
405.8	0.063	0.003
406.1	0.052	0.003
406.5	0.06	0.003
407	0.064	0.003
407.4	0.061	0.003
407.8	0.064	0.003
408.2	0.07	0.004
408.6	0.066	0.003
409	0.078	0.004
409.4	0.071	0.004
409.8	0.079	0.004
410.2	0.076	0.004
410.6	0.073	0.004
411	0.074	0.004
411.4	0.089	0.004
411.9	0.069	0.004
412.3	0.078	0.004
412.7	0.084	0.004
413.2	0.083	0.004
413.6	0.085	0.004
414	0.088	0.004
414.4	0.093	0.005
414.9	0.093	0.005
415.3	0.089	0.004
415.7	0.101	0.005
416.1	0.094	0.005
416.5	0.101	0.005
417	0.101	0.005
417.4	0.11	0.006
417.8	0.118	0.006
418.2	0.112	0.006
418.6	0.113	0.006
419.1	0.129	0.006
419.5	0.131	0.007
419.9	0.118	0.006
420.3	0.134	0.007
420.7	0.134	0.007
421.1	0.128	0.006
421.5	0.131	0.007
421.9	0.144	0.007
422.3	0.144	0.007
422.8	0.143	0.007
423.2	0.159	0.008
423.6	0.146	0.007
424	0.149	0.007
424.4	0.152	0.008
424.8	0.169	0.008
425.7	0.173	0.009

System: hexachlorobenzene; phases: Crystal, Gas
Property: Vapor or sublimation pressure, kPa (Crystal); method: isothermal thermogravimetry
Temperature, K	Vapor or sublimation pressure, kPa	uncertainty
359.7	0.002	0.001
360.2	0.003	0.001
361.6	0.003	0.001
362.5	0.003	0.001
363.6	0.004	0.001
364.4	0.003	0.001
364.5	0.004	0.001
365.4	0.004	0.001
365.5	0.004	0.001
367.4	0.005	0.001
368	0.005	0.001
369.5	0.005	0.001
370.3	0.005	0.001
371	0.006	0.001
371.5	0.006	0.001
371.5	0.005	0.001
374.1	0.007	0.001
377.1	0.008	0.001
378.1	0.008	0.001
378.2	0.008	0.001
381.4	0.012	0.001
381.4	0.011	0.001
382.3	0.012	0.001
382.4	0.011	0.001
383.1	0.012	0.001
384.4	0.014	0.001
385.8	0.015	0.001
386.2	0.015	0.001
386.6	0.013	0.001
388.5	0.016	0.001
392.7	0.021	0.001
393.3	0.024	0.001
396.3	0.026	0.001
396.7	0.026	0.001
399.6	0.031	0.002
400.6	0.038	0.002
403.2	0.044	0.002
404.4	0.043	0.002
408.3	0.057	0.003
412.3	0.066	0.003

System: .gamma.-1,2,3,4,5,6-hexachlorocyclohexane; phases: Crystal, Gas
Property: Vapor or sublimation pressure, kPa (Crystal); method: non-isothermal thermogravimetry
Temperature, K	Vapor or sublimation pressure, kPa	uncertainty
377.5	0.024	0.001
378.3	0.026	0.001
379.1	0.027	0.001
379.9	0.028	0.002
380.7	0.03	0.002
381.5	0.032	0.002
382.4	0.034	0.002
383.2	0.037	0.002
384	0.038	0.002
384.8	0.041	0.002

System: .gamma.-1,2,3,4,5,6-hexachlorocyclohexane; phases: Liquid, Gas
Property: Vapor or sublimation pressure, kPa (Liquid); method: non-isothermal thermogravimetry
Temperature, K	Vapor or sublimation pressure, kPa	uncertainty
377.5	0.024	0.001
378.3	0.026	0.001
379.1	0.027	0.001
379.9	0.028	0.002
380.7	0.03	0.002
381.5	0.032	0.002
382.4	0.034	0.002
383.2	0.037	0.002
384	0.038	0.002
384.8	0.041	0.002
386.4	0.044	0.002
387	0.049	0.003
387.6	0.044	0.002
387.9	0.046	0.002
388.2	0.044	0.002
388.6	0.043	0.002
390.8	0.051	0.003
392.1	0.065	0.003
393.2	0.06	0.003
394.1	0.067	0.003
395	0.07	0.004
395.9	0.079	0.004
396.7	0.085	0.004
397.6	0.074	0.004
398.5	0.074	0.004
400.2	0.088	0.004
401	0.1	0.005
401.9	0.109	0.006
402	0.095	0.006
402.8	0.106	0.005
403.6	0.104	0.005
404.4	0.125	0.006
405.3	0.131	0.007
406.1	0.139	0.007
406.9	0.119	0.006
407.7	0.153	0.008
408.5	0.142	0.007
409.3	0.158	0.008
410.2	0.148	0.007
411	0.174	0.009
411.8	0.168	0.008
412.6	0.177	0.009
413.4	0.174	0.009
414.3	0.192	0.01
415.1	0.202	0.01
415.9	0.195	0.01
416.8	0.211	0.011
417.6	0.229	0.011
418.4	0.248	0.012
419.3	0.261	0.013
420.1	0.257	0.013
421	0.254	0.013
421.8	0.267	0.013
422.7	0.286	0.014
423.6	0.306	0.015
424.5	0.301	0.015
425.4	0.347	0.017
426.4	0.366	0.018
426.8	0.371	0.019
427.5	0.405	0.02
428.6	0.367	0.021
428.7	0.416	0.023

System: .gamma.-1,2,3,4,5,6-hexachlorocyclohexane; phases: Crystal, Gas
Property: Vapor or sublimation pressure, kPa (Crystal); method: isothermal thermogravimetry
Temperature, K	Vapor or sublimation pressure, kPa	uncertainty
347.1	0.0017	0.0001
349.8	0.0019	0.0001
349.9	0.002	0.0001
351.9	0.0025	0.0001
352	0.0027	0.0002
354.4	0.0034	0.0002
355	0.0031	0.0002
356.2	0.0039	0.0002
356.4	0.0042	0.0002
357.8	0.004	0.0002
359.3	0.005	0.0003
361.5	0.0052	0.0003
363.2	0.006	0.0003
364	0.0058	0.0003
364.9	0.0082	0.0004
367.2	0.0075	0.0004
368.1	0.0104	0.0005
371.1	0.0122	0.0006
372.9	0.0122	0.0006
374.3	0.0169	0.0008
376.2	0.017	0.0009
377.4	0.0225	0.0011
379.3	0.0228	0.0011
380.7	0.0294	0.0015
381.8	0.0277	0.0014
384	0.0365	0.0018

System: .gamma.-1,2,3,4,5,6-hexachlorocyclohexane; phases: Liquid, Gas
Property: Vapor or sublimation pressure, kPa (Liquid); method: isothermal thermogravimetry
Temperature, K	Vapor or sublimation pressure, kPa	uncertainty
387.4	0.045	0.002
389.2	0.049	0.003
389.9	0.055	0.003
390.5	0.053	0.003
392.1	0.06	0.003
393.5	0.07	0.004
393.6	0.065	0.003
396.6	0.08	0.004
398.7	0.088	0.004
398.9	0.086	0.004
399	0.093	0.005
399.9	0.093	0.005
400.3	0.095	0.005
401.7	0.103	0.005
403.7	0.114	0.006
403.7	0.111	0.006
406.5	0.122	0.006
406.9	0.133	0.007
