Measured thermophysical data. Synthesis, characterization and standard molar enthalpy of formation of La(C7H5O3)2*(C9H6NO)
Source: Thermochim. Acta, 2006, 10.1016/j.tca.2005.10.015
Compound 1: hydrogen chloride, ClH, InChI=1S/ClH/h1H
Compound 2: water, H2O, InChI=1S/H2O/h1H2
Compound 3: (8-quinolinolato)bis(salicylato)lanthanum, C23H16LaNO7, InChI=1S/C9H7NO.2C7H6O3.La/c11-8-5-1-3-7-4-2-6-10-9(7)8;2*8-6-4-2-1-3-5(6)7(9)10;/h1-6,11H;2*1-4,8H,(H,9,10);/q;;;+3/p-3
Compound 4: lanthanum (III) chloride heptahydrate, Cl3H14LaO7, InChI=1S/3ClH.La.7H2O/h3*1H;;7*1H2/q;;;+3;;;;;;;/p-3
Compound 5: 2-hydroxybenzoic acid, C7H6O3, InChI=1S/C7H6O3/c8-6-4-2-1-3-5(6)7(9)10/h1-4,8H,(H,9,10)
Compound 6: 8-hydroxyquinoline, C9H7NO, InChI=1S/C9H7NO/c11-8-5-1-3-7-4-2-6-10-9(7)8/h1-6,11H

Reaction: -2 2-hydroxybenzoic acid + -1 8-hydroxyquinoline + 3 hydrogen chloride + -1 lanthanum (III) chloride heptahydrate + 1 (8-quinolinolato)bis(salicylato)lanthanum + 7 water
Property: Molar enthalpy of reaction, kJ/mol
91.57
