Measured thermophysical data. Thermodynamic properties of pentalead tris(vanadate) chloride
Source: Thermochim. Acta, 2011, 10.1016/j.tca.2010.12.026
Compound 1: lead vanadate, O8Pb3V2, InChI=1S/8O.3Pb.2V/q8*-2;3*+2;2*+5
Compound 2: potassium chloride, ClK, InChI=1S/ClH.K/h1H;/q;+1/p-1
Compound 3: potassium nitrate, KNO3, InChI=1S/K.NO3/c;2-1(3)4/q+1;-1
Compound 4: lead(II) nitrate, N2O6Pb, InChI=1S/2NO3.Pb/c2*2-1(3)4;/q2*-1;+2
Compound 5: lead vanadium chloride oxide (Pb5V3ClO12), ClO12Pb5V3, InChI=1S/ClH.12O.5Pb.3V/h1H;;;;;;;;;;;;;;;;;;;;/q;12*-2;5*+2;3*+5/p-1, purity 99%

System: lead vanadium chloride oxide (Pb5V3ClO12); phases: Crystal 1
Fixed: Pressure, kPa = 101.325
Property: Molar heat capacity at constant pressure, J/K/mol (Crystal 1); method: Small (less than 1 g) adiabatic calorimetry
Temperature, K	Molar heat capacity at constant pressure, J/K/mol	uncertainty
6.6	3.87	0.097
7.16	4.95	0.115
7.43	5.61	0.125
7.7	6.23	0.135
8.03	7.12	0.149
8.06	7.26	0.151
8.24	7.69	0.158
8.62	8.68	0.172
8.78	9.184	0.18
9	9.81	0.19
9.21	10.39	0.2
9.57	11.37	0.21
9.76	11.94	0.22
10.39	14.03	0.25
10.79	15.41	0.27
11.27	17	0.29
11.54	17.92	0.3
11.92	19.28	0.32
12.63	22	0.36
13.56	25.61	0.4
14.6	29.94	0.45
15.38	33.35	0.49
15.53	33.94	0.5
16.08	36.27	0.52
16.51	38.02	0.54
17.06	40.31	0.56
17.3	41.27	0.57
17.89	43.67	0.59
18.06	44.36	0.59
18.86	47.5	0.62
19	48.09	0.62
19.84	51.43	0.65
19.97	51.92	0.65
20.6	54.34	0.66
21.7	58.29	0.68
24.13	68.2	0.73
26.58	77.92	0.75
27.83	82.82	0.76
29.04	87.89	0.76
30.87	95.01	0.58
33.33	104.3	0.6
35.81	113.4	0.7
38.29	121.8	0.7
40.78	129.6	0.8
43.26	137.6	0.8
45.75	145.6	0.8
48.23	152.3	0.9
50.72	159.6	0.9
52.77	165.6	0.9
54.71	171	1
56.77	176.4	1
59.26	182.8	1
61.61	188.5	1
63.7	193.2	1.1
66.18	198.9	1.1
68.28	204.1	1.1
70.76	209.7	1.2
73.3	215.8	1.2
75.71	220.5	1.2
78.18	226.1	1.2
80.52	230	1.3
83	234.4	1.3
84.94	238	1.3
87.2	241.7	1.3
89.73	245.6	1.3
78.5	226.3	1.2
81.85	232.1	1.3
84.2	236.3	1.3
87.1	241.3	1.3
89.73	246.5	1.3
92.37	250.4	1.2
95.03	255.3	1.2
97.8	259.6	1.2
100.37	263.2	1.3
102.5	266.4	1.3
105.1	270.1	1.3
108.3	274.6	1.3
111.12	278.5	1.3
113.81	282	1.3
116.49	285.7	1.3
119.18	289.7	1.4
121.95	293.4	1.4
124.64	297.1	1.4
127.33	300.5	1.4
130.01	303.9	1.4
132.69	307.3	1.4
135.38	310.6	1.4
138.06	313.4	1.5
140.74	316.6	1.5
143.43	319.5	1.5
146.11	322.2	1.5
148.79	325.4	1.5
151.46	328.2	1.5
154.14	331.3	1.5
156.82	334.2	1.5
159.5	336.5	1.5
162.17	338.9	1.6
164.92	342.4	1.6
167.59	344.5	1.6
170.26	347.1	1.6
172.93	349.1	1.6
175.6	352	1.6
178.27	354.4	1.6
180.93	356.5	1.6
183.59	359	1.6
186.24	360.9	1.6
188.9	363.8	1.7
191.55	365.5	1.7
194.2	367.6	1.7
196.85	369.8	1.7
200.04	372.5	1.7
203.08	375.1	1.7
205.74	376.6	1.7
208.39	378.9	1.7
211.03	380.3	1.7
213.68	382.6	1.7
216.32	384.1	1.7
218.96	385.9	1.7
221.59	387.9	1.8
224.22	389.4	1.8
226.85	391.4	1.8
229.48	393	1.8
232.1	395.4	1.8
234.72	396.8	1.8
237.33	398.3	1.8
239.94	400	1.8
242.56	402.1	1.8
245.16	403.7	1.8
247.75	404.9	1.8
250.33	407	1.8
252.9	408.5	1.8
255.47	410.1	1.8
258.03	411.5	1.8
260.57	413.1	1.9
263.11	415	1.9
265.64	416.2	1.9
268.15	417.8	1.9
270.66	419.3	1.9
273.15	420.3	1.9
275.62	421.6	1.9
278.08	423.3	1.9
280.52	424.3	1.9
282.84	425.8	1.9
284.8	426.7	1.9
287.62	428	1.9
289.98	429.2	1.9
292.32	430.6	1.9
294.62	431.8	1.9
296.91	433	1.9
299.16	434	1.9
302.2	435.6	1.9
304.71	437.4	2
308.19	439.2	2
311.02	441.6	2
313.8	443.1	2
316.53	444.5	2
319.22	446.1	2
321.86	447.7	2
324.46	449.3	2
327	450.7	2
329.5	452.3	2
331.96	453.6	2
334.36	455.8	2
336.71	456.8	2
339.3	458.7	2
341.26	459.8	2
343.46	460.6	2
344.66	461.7	2
346.78	462.4	2.1
349.42	463.7	2.1
351.81	464.7	2.1

System: lead vanadium chloride oxide (Pb5V3ClO12); phases: Crystal 1
Fixed: Pressure, kPa = 101.325
Property: Molar heat capacity at constant pressure, J/K/mol (Crystal 1); method: Small (less than 1 g) adiabatic calorimetry
Temperature, K	Molar heat capacity at constant pressure, J/K/mol	uncertainty
5	1.807	0.068
10	12.74	0.23
15	31.64	0.47
20	51.92	0.65
25	71.69	0.74
30	91.55	0.56
35	110.5	0.7
40	127.3	0.7
45	142.9	0.8
50	157.8	0.9
60	184.4	1
70	208	1.1
80	229.3	1.2
90	246.6	1.2
100	262.6	1.3
110	277.2	1.3
120	290.8	1.4
130	303.6	1.4
140	315.7	1.5
150	326.9	1.5
160	337.1	1.5
170	346.7	1.6
180	355.7	1.6
190	364.3	1.7
200	372.4	1.7
210	379.8	1.7
220	386.8	1.7
230	393.5	1.8
240	400.2	1.8
250	406.7	1.8
260	412.9	1.9
270	418.7	1.9
273.15	420.4	1.9
280	424.1	1.9
290	429.4	1.9
298.15	433.7	1.9
300	434.8	1.9
310	440.5	2
320	446.5	2
330	452.8	2
340	458.9	2
350	464	2.1

System: lead vanadium chloride oxide (Pb5V3ClO12); phases: Crystal 1
Fixed: Pressure, kPa = 101.325
Property: Molar enthalpy, kJ/mol (Crystal 1); method: Small (less than 1 g) adiabatic calorimetry
Temperature, K	Molar enthalpy, kJ/mol	uncertainty
5	0.0023	0.0002
10	0.034	0.001
15	0.1425	0.0024
20	0.3525	0.0047
25	0.6612	0.0073
30	1.069	0.009
35	1.575	0.012
40	2.171	0.015
45	2.846	0.019
50	3.598	0.023
60	5.313	0.033
70	7.277	0.044
80	9.467	0.056
90	11.85	0.07
100	14.39	0.08
110	17.09	0.09
120	19.93	0.1
130	22.91	0.12
140	26	0.13
150	29.22	0.15
160	32.54	0.16
170	35.96	0.18
180	39.47	0.19
190	43.07	0.21
200	46.76	0.23
210	50.52	0.24
220	54.35	0.26
230	58.25	0.28
240	62.22	0.3
250	66.25	0.32
260	70.35	0.33
270	74.51	0.35
273.15	75.83	0.36
280	78.73	0.37
290	82.99	0.39
298.15	86.51	0.41
300	87.31	0.41
310	91.69	0.43
320	96.12	0.45
330	100.6	0.5
340	105.2	0.5
350	109.8	0.5

System: lead vanadium chloride oxide (Pb5V3ClO12); phases: Crystal 1
Fixed: Pressure, kPa = 101.325
Property: Molar entropy, J/K/mol (Crystal 1); method: Small (less than 1 g) adiabatic calorimetry
Temperature, K	Molar entropy, J/K/mol	uncertainty
5	0.6028	0.0489
10	4.562	0.142
15	13.11	0.31
20	25.05	0.48
25	38.74	0.61
30	53.56	0.56
35	69.12	0.67
40	85.01	0.79
45	100.9	0.9
50	116.7	1
60	147.9	1.3
70	178.2	1.5
80	207.4	1.7
90	235.4	1.7
100	262.2	1.9
110	287.9	2
120	312.6	2.2
130	336.4	2.3
140	359.4	2.5
150	381.5	2.6
160	403	2.7
170	423.7	2.8
180	443.8	3
190	463.2	3.1
200	482.1	3.2
210	500.5	3.3
220	518.3	3.4
230	535.7	3.5
240	552.5	3.6
250	569	3.7
260	585.1	3.8
270	600.8	3.9
273.15	605.6	3.9
280	616.1	4
290	631.1	4.1
298.15	643	4.2
300	645.7	4.2
310	660.1	4.3
320	674.1	4.3
330	688	4.4
340	701.6	4.5
350	715	4.6

System: lead vanadium chloride oxide (Pb5V3ClO12); phases: Crystal
Fixed: Pressure, kPa = 101.325
Property: Mass density, kg/m3 (Crystal); method: X-ray diffraction
Temperature, K	Mass density, kg/m3	uncertainty
298	6944	14
473	6885	14
673	6815	13
873	6735	13
973	6684	13
1073	6562	12

Reaction: 1 lead vanadium chloride oxide (Pb5V3ClO12) + -1.5 lead vanadate + -1 potassium chloride + 1 potassium nitrate + -.5 lead(II) nitrate
Property: Molar enthalpy of reaction, kJ/mol
64
