Measured thermophysical data. Counteracting effects of trimethylamine N-oxide and betaine on the  interactions of urea with zwitterionic glycine peptides
Source: Thermochim. Acta, 2009, 10.1016/j.tca.2009.02.017
Compound 1: 2-aminoacetic acid, C2H5NO2, InChI=1S/C2H5NO2/c3-1-2(4)5/h1,3H2,(H,4,5)
Compound 2: glycylglycylglycylglycine, C8H14N4O5, InChI=1S/C8H14N4O5/c9-1-5(13)10-2-6(14)11-3-7(15)12-4-8(16)17/h1-4,9H2,(H,10,13)(H,11,14)(H,12,15)(H,16,17)
Compound 3: glycylglycine, C4H8N2O3, InChI=1S/C4H8N2O3/c5-1-3(7)6-2-4(8)9/h1-2,5H2,(H,6,7)(H,8,9)
Compound 4: glycylglycylglycine, C6H11N3O4, InChI=1S/C6H11N3O4/c7-1-4(10)8-2-5(11)9-3-6(12)13/h1-3,7H2,(H,8,10)(H,9,11)(H,12,13)
Compound 5: urea, CH4N2O, InChI=1S/CH4N2O/c2-1(3)4/h(H4,2,3,4)
Compound 6: trimethylamine oxide, C3H9NO, InChI=1S/C3H9NO/c1-4(2,3)5/h1-3H3
Compound 7: (trimethylammonio)acetate, C5H11NO2, InChI=1S/C5H11NO2/c1-6(2,3)4-5(7)8/h4H2,1-3H3
Compound 8: water, H2O, InChI=1S/H2O/h1H2

System: 2-aminoacetic acid + trimethylamine oxide + water; phases: Liquid, Crystal
Fixed: Temperature, K = 298.15
Fixed: Pressure, kPa = 101
Property: Mass density, kg/m3 (Liquid); method: Vibrating tube method
Solvent: Amount concentration (molarity), mol/dm3 of trimethylamine oxide	Mass density, kg/m3	uncertainty
1	1062.63	1
2	1040.63	0.95
3	1026.03	0.92
4	1027.89	0.92

System: 2-aminoacetic acid + trimethylamine oxide + water; phases: Liquid, Crystal
Fixed: Temperature, K = 298.15
Fixed: Pressure, kPa = 101
Property: Mass ratio of solute to solvent of 2-aminoacetic acid (Liquid); method: Determined from density measurements
Solvent: Amount concentration (molarity), mol/dm3 of trimethylamine oxide	Mass ratio of solute to solvent of 2-aminoacetic acid	uncertainty
1	0.1765	0.0028
2	0.1054	0.0017
3	0.0602	0.001
4	0.0358	0.0006

System: 2-aminoacetic acid + (trimethylammonio)acetate + water; phases: Liquid, Crystal
Fixed: Temperature, K = 298.15
Fixed: Pressure, kPa = 101
Property: Mass density, kg/m3 (Liquid); method: Vibrating tube method
Solvent: Amount concentration (molarity), mol/dm3 of (trimethylammonio)acetate	Mass density, kg/m3	uncertainty
1	1077.59	1.03
2	1076.89	1.03
3	1078.83	1.03
4	1089.81	1.06

System: 2-aminoacetic acid + (trimethylammonio)acetate + water; phases: Liquid, Crystal
Fixed: Temperature, K = 298.15
Fixed: Pressure, kPa = 101
Property: Mass ratio of solute to solvent of 2-aminoacetic acid (Liquid); method: Determined from density measurements
Solvent: Amount concentration (molarity), mol/dm3 of (trimethylammonio)acetate	Mass ratio of solute to solvent of 2-aminoacetic acid	uncertainty
1	0.1786	0.0029
2	0.1168	0.0019
3	0.0715	0.0011
4	0.0441	0.0007

System: 2-aminoacetic acid + urea + water; phases: Liquid, Crystal
Fixed: Temperature, K = 298.15
Fixed: Pressure, kPa = 101
Property: Mass density, kg/m3 (Liquid); method: Vibrating tube method
Solvent: Amount concentration (molarity), mol/dm3 of urea	Mass density, kg/m3	uncertainty
1	1092.89	1.07
2	1102.84	1.09
4	1122.18	1.13
6	1141.03	1.17
8	1159.59	1.22

System: 2-aminoacetic acid + urea + water; phases: Liquid, Crystal
Fixed: Temperature, K = 298.15
Fixed: Pressure, kPa = 101
Property: Mass ratio of solute to solvent of 2-aminoacetic acid (Liquid); method: Determined from density measurements
Solvent: Amount concentration (molarity), mol/dm3 of urea	Mass ratio of solute to solvent of 2-aminoacetic acid	uncertainty
1	0.2389	0.0038
2	0.2269	0.0036
4	0.2029	0.0032
6	0.1742	0.0028
8	0.1478	0.0024

System: glycylglycine + trimethylamine oxide + water; phases: Liquid, Crystal
Fixed: Temperature, K = 298.15
Fixed: Pressure, kPa = 101
Property: Mass density, kg/m3 (Liquid); method: Vibrating tube method
Solvent: Amount concentration (molarity), mol/dm3 of trimethylamine oxide	Mass density, kg/m3	uncertainty
1	1052.06	0.83
2	1034.13	0.8
3	1025.43	0.78
4	1024.37	0.78

System: glycylglycine + trimethylamine oxide + water; phases: Liquid, Crystal
Fixed: Temperature, K = 298.15
Fixed: Pressure, kPa = 101
Property: Mass ratio of solute to solvent of glycylglycine (Liquid); method: Determined from density measurements
Solvent: Amount concentration (molarity), mol/dm3 of trimethylamine oxide	Mass ratio of solute to solvent of glycylglycine	uncertainty
1	0.1403	0.0022
2	0.0744	0.0012
3	0.0443	0.0007
4	0.0267	0.0004

System: (trimethylammonio)acetate + glycylglycine + water; phases: Liquid, Crystal
Fixed: Temperature, K = 298.15
Fixed: Pressure, kPa = 101
Property: Mass density, kg/m3 (Liquid); method: Vibrating tube method
Solvent: Amount concentration (molarity), mol/dm3 of (trimethylammonio)acetate	Mass density, kg/m3	uncertainty
1	1071.25	0.86
2	1071.34	0.86
3	1074.65	0.87
4	1086.27	0.89

System: (trimethylammonio)acetate + glycylglycine + water; phases: Liquid, Crystal
Fixed: Temperature, K = 298.15
Fixed: Pressure, kPa = 101
Property: Mass ratio of solute to solvent of glycylglycine (Liquid); method: Determined from density measurements
Solvent: Amount concentration (molarity), mol/dm3 of (trimethylammonio)acetate	Mass ratio of solute to solvent of glycylglycine	uncertainty
1	0.1524	0.0024
2	0.1027	0.0016
3	0.0597	0.001
4	0.0338	0.0005

System: urea + glycylglycine + water; phases: Liquid, Crystal
Fixed: Temperature, K = 298.15
Fixed: Pressure, kPa = 101
Property: Mass density, kg/m3 (Liquid); method: Vibrating tube method
Solvent: Amount concentration (molarity), mol/dm3 of urea	Mass density, kg/m3	uncertainty
1	1090.4	0.9
2	1101.62	0.92
4	1123.09	0.96
6	1143.61	1.01
8	1161.07	1.04

System: urea + glycylglycine + water; phases: Liquid, Crystal
Fixed: Temperature, K = 298.15
Fixed: Pressure, kPa = 101
Property: Mass ratio of solute to solvent of glycylglycine (Liquid); method: Determined from density measurements
Solvent: Amount concentration (molarity), mol/dm3 of urea	Mass ratio of solute to solvent of glycylglycine	uncertainty
1	0.2227	0.0036
2	0.2128	0.0034
4	0.1954	0.0031
6	0.1725	0.0028
8	0.1469	0.0024

System: glycylglycylglycine + trimethylamine oxide + water; phases: Liquid, Crystal
Fixed: Temperature, K = 298.15
Fixed: Pressure, kPa = 101
Property: Mass density, kg/m3 (Liquid); method: Vibrating tube method
Solvent: Amount concentration (molarity), mol/dm3 of trimethylamine oxide	Mass density, kg/m3	uncertainty
1	1014.14	0.76
2	1012.42	0.76
3	1013.61	0.76
4	1017.97	0.77

System: glycylglycylglycine + trimethylamine oxide + water; phases: Liquid, Crystal
Fixed: Temperature, K = 298.15
Fixed: Pressure, kPa = 101
Property: Mass ratio of solute to solvent of glycylglycylglycine (Liquid); method: Determined from density measurements
Solvent: Amount concentration (molarity), mol/dm3 of trimethylamine oxide	Mass ratio of solute to solvent of glycylglycylglycine	uncertainty
1	0.0371	0.0006
2	0.023	0.0004
3	0.0142	0.0002
4	0.0103	0.0002

System: (trimethylammonio)acetate + glycylglycylglycine + water; phases: Liquid, Crystal
Fixed: Temperature, K = 298.15
Fixed: Pressure, kPa = 101
Property: Mass density, kg/m3 (Liquid); method: Vibrating tube method
Solvent: Amount concentration (molarity), mol/dm3 of (trimethylammonio)acetate	Mass density, kg/m3	uncertainty
1	1033.76	0.79
2	1047.28	0.82
3	1059.41	0.84
4	1079.03	0.88

System: (trimethylammonio)acetate + glycylglycylglycine + water; phases: Liquid, Crystal
Fixed: Temperature, K = 298.15
Fixed: Pressure, kPa = 101
Property: Mass ratio of solute to solvent of glycylglycylglycine (Liquid); method: Determined from density measurements
Solvent: Amount concentration (molarity), mol/dm3 of (trimethylammonio)acetate	Mass ratio of solute to solvent of glycylglycylglycine	uncertainty
1	0.0471	0.0008
2	0.0325	0.0005
3	0.0224	0.0004
4	0.0149	0.0002

System: urea + glycylglycylglycine + water; phases: Liquid, Crystal
Fixed: Temperature, K = 298.15
Fixed: Pressure, kPa = 101
Property: Mass density, kg/m3 (Liquid); method: Vibrating tube method
Solvent: Amount concentration (molarity), mol/dm3 of urea	Mass density, kg/m3	uncertainty
1	1039.96	0.81
2	1057.36	0.84
4	1086.57	0.89
6	1114.63	0.95
8	1145.11	1.01

System: urea + glycylglycylglycine + water; phases: Liquid, Crystal
Fixed: Temperature, K = 298.15
Fixed: Pressure, kPa = 101
Property: Mass ratio of solute to solvent of glycylglycylglycine (Liquid); method: Determined from density measurements
Solvent: Amount concentration (molarity), mol/dm3 of urea	Mass ratio of solute to solvent of glycylglycylglycine	uncertainty
1	0.0712	0.0011
2	0.0779	0.0012
4	0.0825	0.0013
6	0.0858	0.0014
8	0.0872	0.0014

System: glycylglycylglycylglycine + trimethylamine oxide + water; phases: Liquid, Crystal
Fixed: Temperature, K = 298.15
Fixed: Pressure, kPa = 101
Property: Mass density, kg/m3 (Liquid); method: Vibrating tube method
Solvent: Amount concentration (molarity), mol/dm3 of trimethylamine oxide	Mass density, kg/m3	uncertainty
1	1000.56	0.87
2	1003.99	0.87
3	1008.87	0.88
4	1014.92	0.9

System: glycylglycylglycylglycine + trimethylamine oxide + water; phases: Liquid, Crystal
Fixed: Temperature, K = 298.15
Fixed: Pressure, kPa = 101
Property: Mass ratio of solute to solvent of glycylglycylglycylglycine (Liquid); method: Determined from density measurements
Solvent: Amount concentration (molarity), mol/dm3 of trimethylamine oxide	Mass ratio of solute to solvent of glycylglycylglycylglycine	uncertainty
1	0.00268	4e-05
2	0.00201	3e-05
3	0.0014	2e-05
4	0.00099	2e-05

System: (trimethylammonio)acetate + glycylglycylglycylglycine + water; phases: Liquid, Crystal
Fixed: Temperature, K = 298.15
Fixed: Pressure, kPa = 101
Property: Mass density, kg/m3 (Liquid); method: Vibrating tube method
Solvent: Amount concentration (molarity), mol/dm3 of (trimethylammonio)acetate	Mass density, kg/m3	uncertainty
1	1016.81	0.9
2	1035.51	0.94
3	1055.15	0.98
4	1075.61	1.03

System: (trimethylammonio)acetate + glycylglycylglycylglycine + water; phases: Liquid, Crystal
Fixed: Temperature, K = 298.15
Fixed: Pressure, kPa = 101
Property: Mass ratio of solute to solvent of glycylglycylglycylglycine (Liquid); method: Determined from density measurements
Solvent: Amount concentration (molarity), mol/dm3 of (trimethylammonio)acetate	Mass ratio of solute to solvent of glycylglycylglycylglycine	uncertainty
1	0.272	0.004
2	0.217	0.004
3	0.158	0.003
4	0.127	0.002

System: urea + glycylglycylglycylglycine + water; phases: Liquid, Crystal
Fixed: Temperature, K = 298.15
Fixed: Pressure, kPa = 101
Property: Mass density, kg/m3 (Liquid); method: Vibrating tube method
Solvent: Amount concentration (molarity), mol/dm3 of urea	Mass density, kg/m3	uncertainty
1	1014.75	0.9
2	1030.54	0.93
4	1060.93	1
6	1090.35	1.06
8	1117.05	1.12

System: urea + glycylglycylglycylglycine + water; phases: Liquid, Crystal
Fixed: Temperature, K = 298.15
Fixed: Pressure, kPa = 101
Property: Mass ratio of solute to solvent of glycylglycylglycylglycine (Liquid); method: Determined from density measurements
Solvent: Amount concentration (molarity), mol/dm3 of urea	Mass ratio of solute to solvent of glycylglycylglycylglycine	uncertainty
1	0.00488	8e-05
2	0.00544	9e-05
4	0.00621	0.0001
6	0.00703	0.00011
8	0.00774	0.00012

System: 2-aminoacetic acid + water; phases: Liquid, Crystal
Property: Mass density, kg/m3 (Liquid); method: Vibrating tube method
Temperature, K	Pressure, kPa	Mass density, kg/m3	uncertainty
298.15	101	1082.99	0.17

System: 2-aminoacetic acid + water; phases: Liquid, Crystal
Property: Mass ratio of solute to solvent of 2-aminoacetic acid (Liquid); method: Determined from density measurements
Temperature, K	Pressure, kPa	Mass ratio of solute to solvent of 2-aminoacetic acid	uncertainty
298.15	101	0.2509	0.004

System: glycylglycine + water; phases: Liquid, Crystal
Property: Mass density, kg/m3 (Liquid); method: Vibrating tube method
Temperature, K	Pressure, kPa	Mass density, kg/m3	uncertainty
298.15	101	1077.31	0.14

System: glycylglycine + water; phases: Liquid, Crystal
Property: Mass ratio of solute to solvent of glycylglycine (Liquid); method: Determined from density measurements
Temperature, K	Pressure, kPa	Mass ratio of solute to solvent of glycylglycine	uncertainty
298.15	101	0.2275	0.0036

System: glycylglycylglycine + water; phases: Liquid, Crystal
Property: Mass density, kg/m3 (Liquid); method: Vibrating tube method
Temperature, K	Pressure, kPa	Mass density, kg/m3	uncertainty
298.15	101	1022.05	0.12

System: glycylglycylglycine + water; phases: Liquid, Crystal
Property: Mass ratio of solute to solvent of glycylglycylglycine (Liquid); method: Determined from density measurements
Temperature, K	Pressure, kPa	Mass ratio of solute to solvent of glycylglycylglycine	uncertainty
298.15	101	0.0641	0.001

System: glycylglycylglycylglycine + water; phases: Liquid, Crystal
Property: Mass density, kg/m3 (Liquid); method: Vibrating tube method
Temperature, K	Pressure, kPa	Mass density, kg/m3	uncertainty
298.15	101	8.59	0.1

System: glycylglycylglycylglycine + water; phases: Liquid, Crystal
Property: Mass ratio of solute to solvent of glycylglycylglycylglycine (Liquid); method: Determined from density measurements
Temperature, K	Pressure, kPa	Mass ratio of solute to solvent of glycylglycylglycylglycine	uncertainty
298.15	101	0.00395	6e-05
