Measured thermophysical data. Thermodynamic properties of isomeric iso-butoxybenzoic acids: Experimental and theoretical study
Source: Thermochim. Acta, 2015, 10.1016/j.tca.2015.07.011
Compound 1: carbon dioxide, CO2, InChI=1S/CO2/c2-1-3
Compound 2: water, H2O, InChI=1S/H2O/h1H2
Compound 3: oxygen, O2, InChI=1S/O2/c1-2
Compound 4: 4-iso-butoxybenzoic acid, C11H14O3, InChI=1S/C11H14O3/c1-8(2)7-14-10-5-3-9(4-6-10)11(12)13/h3-6,8H,7H2,1-2H3,(H,12,13)
Compound 5: 2-iso-butoxybenzoic acid, C11H14O3, InChI=1S/C11H14O3/c1-8(2)7-14-10-6-4-3-5-9(10)11(12)13/h3-6,8H,7H2,1-2H3,(H,12,13)
Compound 6: 3-iso-butoxybenzoic acid, C11H14O3, InChI=1S/C11H14O3/c1-8(2)7-14-10-5-3-4-9(6-10)11(12)13/h3-6,8H,7H2,1-2H3,(H,12,13)
Compound 7: 2-methoxybenzoic acid, C8H8O3, InChI=1S/C8H8O3/c1-11-7-5-3-2-4-6(7)8(9)10/h2-5H,1H3,(H,9,10), purity 99%
Compound 8: 4-butoxybenzoic acid, C11H14O3, InChI=1S/C11H14O3/c1-2-3-8-14-10-6-4-9(5-7-10)11(12)13/h4-7H,2-3,8H2,1H3,(H,12,13), purity 98%

System: 4-iso-butoxybenzoic acid; phases: Crystal 1, Liquid, Air at 1 atmosphere
Property: Molar enthalpy of transition or fusion, kJ/mol (Crystal 1); method: DSC
Molar enthalpy of transition or fusion, kJ/mol	uncertainty
18.9	0.6

System: 4-iso-butoxybenzoic acid; phases: Crystal
Property: Mass density, kg/m3 (Crystal); method: Pycnometric method
Temperature, K	Pressure, kPa	Mass density, kg/m3	uncertainty
293	101.325	1130	200

System: 4-iso-butoxybenzoic acid; phases: Crystal 1, Liquid, Air at 1 atmosphere
Property: Normal melting temperature, K (Crystal 1); method: DTA
Normal melting temperature, K	uncertainty
415.3	1.1

System: 4-iso-butoxybenzoic acid; phases: Crystal 2, Crystal 1, Air at 1 atmosphere
Property: Triple point temperature, K (Crystal 2); method: DTA
Triple point temperature, K	uncertainty
412.5	1.1

System: 4-iso-butoxybenzoic acid; phases: Crystal 2, Crystal 1, Air at 1 atmosphere
Property: Molar enthalpy of transition or fusion, kJ/mol (Crystal 2); method: DSC
Molar enthalpy of transition or fusion, kJ/mol	uncertainty
2.8	0.4

System: 4-iso-butoxybenzoic acid; phases: Crystal, Liquid, Air at 1 atmosphere
Property: Normal melting temperature, K (Crystal); method: VISOBS
Normal melting temperature, K	uncertainty
413.15	3

System: 4-iso-butoxybenzoic acid; phases: Crystal 2, Gas
Property: Vapor or sublimation pressure, kPa (Crystal 2); method: Transpiration method
Temperature, K	Vapor or sublimation pressure, kPa	uncertainty
368.2	0.00119	8e-05
373.1	0.00199	0.00013
378.6	0.00342	0.00023
379.3	0.00369	0.00025
381	0.00422	0.00027
388.5	0.0089	0.0006
390.5	0.01034	0.0007
393.6	0.01381	0.00092
393.6	0.01388	0.00092
393.7	0.0142	0.00094
393.8	0.01384	0.00092
395.2	0.01617	0.0011
396.9	0.01961	0.00131
397.4	0.02032	0.00129
398.6	0.02126	0.00139
399	0.02336	0.00153
399.9	0.02413	0.00161
402.6	0.03218	0.00202
403.2	0.03283	0.00207

System: 4-iso-butoxybenzoic acid; phases: Crystal 2, Gas
Property: Vapor or sublimation pressure, kPa (Crystal 2); method: Transpiration method
Temperature, K	Vapor or sublimation pressure, kPa	uncertainty
342.3	7e-05	2e-05
343.5	8e-05	2e-05
346.4	0.00011	2e-05
348.5	0.00014	2e-05
349.2	0.00015	2e-05
353.4	0.00026	2e-05
353.6	0.00025	2e-05
356.9	0.00038	3e-05
359.2	0.00046	4e-05
360.4	0.00055	5e-05
361.6	0.00066	5e-05
363.4	0.00078	5e-05
363.5	0.00078	5e-05
365.4	0.00096	7e-05
365.9	0.00102	7e-05
367.8	0.00122	9e-05
368.7	0.00134	0.0001
368.9	0.0014	0.0001
370.7	0.00162	0.00012
373.3	0.00216	0.00015

System: 2-iso-butoxybenzoic acid; phases: Liquid
Property: Mass density, kg/m3 (Liquid); method: Pycnometric method
Temperature, K	Pressure, kPa	Mass density, kg/m3	uncertainty
293	101.325	1100	100

System: 2-iso-butoxybenzoic acid; phases: Liquid, Gas
Property: Vapor or sublimation pressure, kPa (Liquid); method: Transpiration method
Temperature, K	Vapor or sublimation pressure, kPa	uncertainty
343.9	0.0008	7e-05
353.1	0.00176	0.00012
363.2	0.0041	0.00027
365.2	0.0048	0.00031
369.2	0.00662	0.00046
371.2	0.00775	0.00056
371.4	0.00817	0.00056
371.4	0.00791	0.00054
371.5	0.00808	0.00058
374.2	0.01017	0.00068
374.4	0.00999	0.00066
376.5	0.01179	0.00078
377.3	0.01245	0.00084
378.5	0.01391	0.00092
379.2	0.01467	0.00096
380.1	0.01546	0.001
380.2	0.01553	0.00101
382.4	0.0177	0.00115
384.2	0.02038	0.00131
385.8	0.02237	0.00144
388.1	0.02622	0.00169
390.3	0.03064	0.00196
393	0.03639	0.00233
395.2	0.04478	0.00286
398.1	0.05373	0.00339

System: 3-iso-butoxybenzoic acid; phases: Crystal, Liquid, Air at 1 atmosphere
Property: Normal melting temperature, K (Crystal); method: DTA
Normal melting temperature, K	uncertainty
353.5	1.1

System: 3-iso-butoxybenzoic acid; phases: Crystal, Liquid, Air at 1 atmosphere
Property: Molar enthalpy of transition or fusion, kJ/mol (Crystal); method: DSC
Molar enthalpy of transition or fusion, kJ/mol	uncertainty
25.2	0.7

System: 3-iso-butoxybenzoic acid; phases: Crystal
Property: Mass density, kg/m3 (Crystal); method: Pycnometric method
Temperature, K	Pressure, kPa	Mass density, kg/m3	uncertainty
293	101.325	1130	200

System: 3-iso-butoxybenzoic acid; phases: Crystal, Liquid, Air at 1 atmosphere
Property: Normal melting temperature, K (Crystal); method: VISOBS
Normal melting temperature, K	uncertainty
353.15	3

System: 3-iso-butoxybenzoic acid; phases: Liquid, Gas
Property: Vapor or sublimation pressure, kPa (Liquid); method: Transpiration method
Temperature, K	Vapor or sublimation pressure, kPa	uncertainty
354.8	0.00162	0.00012
356.2	0.00181	0.00012
357.4	0.00202	0.00014
359.5	0.00238	0.00015
361.2	0.00281	0.00019
363	0.0032	0.0002
364.2	0.00358	0.00023
365.7	0.00406	0.00027
368.3	0.00493	0.00032
370.9	0.00601	0.00043
372.7	0.00707	0.00049
373.7	0.00763	0.00053
375.3	0.00871	0.00059
378.2	0.01099	0.00074
380.1	0.013	0.00086
382.7	0.01579	0.00103

System: 2-methoxybenzoic acid; phases: Crystal, Gas
Property: Vapor or sublimation pressure, kPa (Crystal); method: Transpiration method
Temperature, K	Vapor or sublimation pressure, kPa	uncertainty
342.4	0.00098	8e-05
346.2	0.00152	0.0001
350.3	0.00221	0.00015
348.2	0.00181	0.00012
352.2	0.00272	0.00018
354.3	0.00347	0.00023
356.2	0.00419	0.00028
358.9	0.00536	0.00035
361.4	0.0068	0.00048
363.2	0.00813	0.00057
366.2	0.01064	0.00072
367.9	0.01262	0.00085
371.5	0.01728	0.00113

System: 4-butoxybenzoic acid; phases: Crystal, Gas
Property: Vapor or sublimation pressure, kPa (Crystal); method: Transpiration method
Temperature, K	Vapor or sublimation pressure, kPa	uncertainty
377.8	0.00164	0.00012
383.4	0.00285	0.0002
391	0.00586	0.00038
396.2	0.00973	0.00066
399.3	0.01214	0.00082
401.3	0.01536	0.00104
406.4	0.02366	0.00155
411.4	0.03676	0.00235
415.4	0.04923	0.00315
417.3	0.05838	0.00373
417.3	0.05826	0.00373

Reaction: -1 2-iso-butoxybenzoic acid + 11 carbon dioxide + 7 water + -13 oxygen
Property: Specific internal energy of reaction at constant volume, J/g
-29399.3

Reaction: -1 3-iso-butoxybenzoic acid + 11 carbon dioxide + 7 water + -13 oxygen
Property: Specific internal energy of reaction at constant volume, J/g
-29210.4

Reaction: -1 4-iso-butoxybenzoic acid + 11 carbon dioxide + 7 water + -13 oxygen
Property: Specific internal energy of reaction at constant volume, J/g
-29181.5
