Measured thermophysical data. Study of the NaBr DyBr3 phase diagram by differential thermal analysis
Source: Thermochim. Acta, 2005, 10.1016/j.tca.2004.12.012
Compound 1: sodium bromide, BrNa, InChI=1S/BrH.Na/h1H;/q;+1/p-1, purity 99.999%
Compound 2: dysprosium bromide (DyBr3), Br3Dy, InChI=1S/3BrH.Dy/h3*1H;/q;;;+3/p-3, purity 99.99%
Compound 3: trisodium hexabromodysprosiumate, Br6DyNa3, InChI=1S/6BrH.Dy.3Na/h6*1H;;;;/q;;;;;;+3;3*+1/p-6

System: sodium bromide; phases: Crystal 2, Crystal 1, Air at 1 atmosphere
Property: Triple point temperature, K (Crystal 2); method: DTA:FP
Triple point temperature, K	uncertainty
1114	3

System: trisodium hexabromodysprosiumate; phases: Crystal 2, Crystal 1, Air at 1 atmosphere
Property: Triple point temperature, K (Crystal 2); method: DTA:FP
Triple point temperature, K	uncertainty
722	2

System: sodium bromide + dysprosium bromide (DyBr3); phases: Liquid, Crystal, Crystal, Air at 1 atmosphere
Property: Eutectic temperature, K (Liquid); method: DTA
Eutectic temperature, K	uncertainty
765	3

System: sodium bromide + dysprosium bromide (DyBr3); phases: Liquid, Crystal, Crystal, Air at 1 atmosphere
Property: Eutectic composition: mole fraction of sodium bromide (Liquid); method: DTA
Eutectic composition: mole fraction of sodium bromide	uncertainty
0.62	0.01

System: sodium bromide + dysprosium bromide (DyBr3); phases: Liquid, Crystal
Fixed: Pressure, kPa = 101.325
Property: Solid-liquid equilibrium temperature, K (Liquid); method: DTA
Mole fraction of sodium bromide	Solid-liquid equilibrium temperature, K	uncertainty
0	1146.5	3
0.05	1139.2	3
0.1	1117.1	3
0.2	1074.1	3
0.25	1018.2	3
0.3	1025.9	3
0.4	986.3	3
0.5	885.2	3
0.55	793.8	3

System: sodium bromide + dysprosium bromide (DyBr3); phases: Liquid, Crystal
Fixed: Pressure, kPa = 101.325
Property: Solid-liquid equilibrium temperature, K (Liquid); method: DTA
Mole fraction of sodium bromide	Solid-liquid equilibrium temperature, K	uncertainty
0	1147.8	3
0.05	1138.4	3
0.1	1116.9	3
0.2	1080.8	3
0.25	1018.2	3
0.3	1031.8	3
0.4	983.4	3
0.5	885.2	3
0.55	805.4	3
0.6	765.6	3

System: sodium bromide + dysprosium bromide (DyBr3); phases: Liquid, Crystal of intercomponent compound 1
Fixed: Mole fraction of sodium bromide = 0.64
Fixed: Pressure, kPa = 101.325
Property: Solid-liquid equilibrium temperature, K (Liquid); method: DTA
Solid-liquid equilibrium temperature, K	uncertainty
712	3
724.2	3

System: sodium bromide + dysprosium bromide (DyBr3); phases: Liquid, Crystal
Fixed: Pressure, kPa = 101.325
Property: Solid-liquid equilibrium temperature, K (Liquid); method: DTA
Mole fraction of sodium bromide	Solid-liquid equilibrium temperature, K	uncertainty
0.72	761	3
0.74	769	3
0.78	822.6	3
0.85	911.3	3
0.87	935.1	3
0.9	960.6	3
1	1011.2	3

System: sodium bromide + dysprosium bromide (DyBr3); phases: Liquid, Crystal
Fixed: Pressure, kPa = 101.325
Property: Solid-liquid equilibrium temperature, K (Liquid); method: DTA
Mole fraction of sodium bromide	Solid-liquid equilibrium temperature, K	uncertainty
0.7	752.8	3
0.72	761.6	3
0.74	767.4	3
0.75	773.6	3
0.78	826.8	3
0.8	854.7	3
0.82	866.6	3
0.85	910.1	3
0.87	930	3
0.9	958.4	3
1	1012.3	3
