Measured thermophysical data. Molecular interaction studies and theoretical estimation of ultrasonic speeds using scaled particle theory in binary mixtures of toluene with homologous nitriles at different temperatures
Source: Thermochim. Acta, 2010, 10.1016/j.tca.2009.10.001
Compound 1: toluene, C7H8, InChI=1S/C7H8/c1-7-5-3-2-4-6-7/h2-6H,1H3
Compound 2: acetonitrile, C2H3N, InChI=1S/C2H3N/c1-2-3/h1H3
Compound 3: propanenitrile, C3H5N, InChI=1S/C3H5N/c1-2-3-4/h2H2,1H3
Compound 4: butanenitrile, C4H7N, InChI=1S/C4H7N/c1-2-3-4-5/h2-3H2,1H3

System: toluene; phases: Liquid
Fixed: Pressure, kPa = 101
Property: Viscosity, Pa*s (Liquid); method: Capillary tube (Ostwald; Ubbelohde) method
Temperature, K	Viscosity, Pa*s	uncertainty
298.15	0.0005635	5.6e-06
303.15	0.0005344	5.5e-06
308.15	0.0005091	5.4e-06

System: toluene; phases: Liquid
Fixed: Pressure, kPa = 101
Property: Speed of sound, m/s (Liquid); method: Linear variable-path acoustic interferometer
Temperature, K	Speed of sound, m/s	uncertainty
298.15	1299.8	1.5
303.15	1279.5	1.5
308.15	1260.7	1.5

System: toluene; phases: Liquid
Fixed: Pressure, kPa = 101
Property: Mass density, kg/m3 (Liquid); method: Pycnometric method
Temperature, K	Mass density, kg/m3	uncertainty
298.15	860.9	0.3
303.15	856	0.3
308.15	851.6	0.3

System: acetonitrile; phases: Liquid
Fixed: Pressure, kPa = 101.325
Property: Viscosity, Pa*s (Liquid); method: Capillary tube (Ostwald; Ubbelohde) method
Temperature, K	Viscosity, Pa*s	uncertainty
298.15	0.0003696	5.3e-06
303.15	0.0003554	5.2e-06
308.15	0.0003414	5.2e-06

System: acetonitrile; phases: Liquid
Fixed: Pressure, kPa = 101.325
Property: Speed of sound, m/s (Liquid); method: Linear variable-path acoustic interferometer
Temperature, K	Speed of sound, m/s	uncertainty
298.15	1271.3	1.8
303.15	1251.9	1.8
308.15	1231.7	1.7

System: acetonitrile; phases: Liquid
Fixed: Pressure, kPa = 101.325
Property: Mass density, kg/m3 (Liquid); method: Pycnometric method
Temperature, K	Mass density, kg/m3	uncertainty
298.15	775.3	0.3
303.15	769.9	0.3
308.15	764.7	0.4

System: propanenitrile; phases: Liquid
Fixed: Pressure, kPa = 101.325
Property: Viscosity, Pa*s (Liquid); method: Capillary tube (Ostwald; Ubbelohde) method
Temperature, K	Viscosity, Pa*s	uncertainty
298.15	0.0004107	5.5e-06
303.15	0.0003991	5.4e-06
308.15	0.0003822	5.3e-06

System: propanenitrile; phases: Liquid
Fixed: Pressure, kPa = 101.325
Property: Speed of sound, m/s (Liquid); method: Linear variable-path acoustic interferometer
Temperature, K	Speed of sound, m/s	uncertainty
298.15	1252.4	1.8
303.15	1232.7	1.7
308.15	1213.7	1.7

System: propanenitrile; phases: Liquid
Fixed: Pressure, kPa = 101.325
Property: Mass density, kg/m3 (Liquid); method: Pycnometric method
Temperature, K	Mass density, kg/m3	uncertainty
298.15	775.4	0.3
303.15	769.9	0.3
308.15	765.2	0.4

System: butanenitrile; phases: Liquid
Fixed: Pressure, kPa = 101.325
Property: Viscosity, Pa*s (Liquid); method: Capillary tube (Ostwald; Ubbelohde) method
Temperature, K	Viscosity, Pa*s	uncertainty
298.15	0.0005463	6.1e-06
303.15	0.0005255	6e-06
308.15	0.0005049	5.9e-06

System: butanenitrile; phases: Liquid
Fixed: Pressure, kPa = 101.325
Property: Speed of sound, m/s (Liquid); method: Linear variable-path acoustic interferometer
Temperature, K	Speed of sound, m/s	uncertainty
298.15	1271.4	1.8
303.15	1252.2	1.8
308.15	1233.9	1.7

System: butanenitrile; phases: Liquid
Fixed: Pressure, kPa = 101.325
Property: Mass density, kg/m3 (Liquid); method: Pycnometric method
Temperature, K	Mass density, kg/m3	uncertainty
298.15	784.7	0.3
303.15	780.3	0.4
308.15	775.9	0.4

System: acetonitrile + toluene; phases: Liquid
Fixed: Pressure, kPa = 101
Property: Viscosity, Pa*s (Liquid); method: Capillary tube (Ostwald; Ubbelohde) method
Temperature, K	Mole fraction of toluene	Viscosity, Pa*s	uncertainty
298.15	0	0.0003696	5.3e-06
298.15	0.0506	0.0003809	5.3e-06
298.15	0.1082	0.000394	5.3e-06
298.15	0.1704	0.000408	5.4e-06
298.15	0.2421	0.0004241	5.4e-06
298.15	0.3228	0.0004423	5.4e-06
298.15	0.4163	0.0004625	5.5e-06
298.15	0.5288	0.000486	5.5e-06
298.15	0.6577	0.0005098	5.5e-06
298.15	0.8089	0.0005353	5.5e-06
298.15	1	0.0005635	5.6e-06
303.15	0	0.0003554	5.2e-06
303.15	0.0506	0.0003653	5.3e-06
303.15	0.1082	0.0003772	5.3e-06
303.15	0.1704	0.00039	5.3e-06
303.15	0.2421	0.0004045	5.3e-06
303.15	0.3228	0.0004211	5.3e-06
303.15	0.4163	0.00044	5.4e-06
303.15	0.5288	0.0004614	5.4e-06
303.15	0.6577	0.0004834	5.4e-06
303.15	0.8089	0.0005069	5.4e-06
303.15	1	0.0005344	5.5e-06
308.15	0	0.0003414	5.2e-06
308.15	0.0506	0.0003503	5.2e-06
308.15	0.1082	0.0003609	5.2e-06
308.15	0.1704	0.0003729	5.2e-06
308.15	0.2421	0.0003864	5.3e-06
308.15	0.3228	0.0004017	5.3e-06
308.15	0.4163	0.0004193	5.3e-06
308.15	0.5288	0.0004389	5.3e-06
308.15	0.6577	0.0004591	5.3e-06
308.15	0.8089	0.0004817	5.4e-06
308.15	1	0.0005091	5.4e-06

System: acetonitrile + toluene; phases: Liquid
Fixed: Pressure, kPa = 101
Property: Speed of sound, m/s (Liquid); method: Linear variable-path acoustic interferometer
Temperature, K	Mole fraction of toluene	Speed of sound, m/s	uncertainty
298.15	0	1271.3	1.8
298.15	0.0506	1273.8	1.8
298.15	0.1082	1276.5	1.7
298.15	0.1704	1279.3	1.7
298.15	0.2421	1282.4	1.7
298.15	0.3228	1285.7	1.7
298.15	0.4163	1289.2	1.6
298.15	0.5288	1292	1.6
298.15	0.6577	1294.5	1.6
298.15	0.8089	1296.7	1.6
298.15	1	1299.8	1.5
303.15	0	1251.9	1.8
303.15	0.0506	1253.9	1.7
303.15	0.1082	1256.3	1.7
303.15	0.1704	1259	1.7
303.15	0.2421	1261.8	1.7
303.15	0.3228	1265	1.7
303.15	0.4163	1268.2	1.6
303.15	0.5288	1270.9	1.6
303.15	0.6577	1273.6	1.6
303.15	0.8089	1275.9	1.5
303.15	1	1279.5	1.5
308.15	0	1231.7	1.7
308.15	0.0506	1233.4	1.7
308.15	0.1082	1235.5	1.7
308.15	0.1704	1238	1.7
308.15	0.2421	1240.9	1.7
308.15	0.3228	1244.3	1.6
308.15	0.4163	1247.8	1.6
308.15	0.5288	1250.7	1.6
308.15	0.6577	1253.5	1.6
308.15	0.8089	1256.3	1.5
308.15	1	1260.7	1.5

System: acetonitrile + toluene; phases: Liquid
Fixed: Pressure, kPa = 101
Property: Mass density, kg/m3 (Liquid); method: Pycnometric method
Temperature, K	Mole fraction of toluene	Mass density, kg/m3	uncertainty
298.15	0	775.3	0.3
298.15	0.0506	784.6	0.3
298.15	0.1082	794.1	0.3
298.15	0.1704	803.3	0.3
298.15	0.2421	812.6	0.3
298.15	0.3228	821.8	0.3
298.15	0.4163	830.7	0.3
298.15	0.5288	839.6	0.3
298.15	0.6577	847.5	0.3
298.15	0.8089	854.6	0.3
298.15	1	860.9	0.3
303.15	0	769.9	0.3
303.15	0.0506	779	0.3
303.15	0.1082	788.4	0.3
303.15	0.1704	797.5	0.3
303.15	0.2421	806.6	0.3
303.15	0.3228	815.7	0.3
303.15	0.4163	824.7	0.3
303.15	0.5288	833.8	0.3
303.15	0.6577	841.9	0.3
303.15	0.8089	849.3	0.3
303.15	1	856	0.3
308.15	0	764.7	0.4
308.15	0.0506	773.6	0.4
308.15	0.1082	782.9	0.3
308.15	0.1704	792	0.3
308.15	0.2421	801.4	0.3
308.15	0.3228	810.5	0.3
308.15	0.4163	819.7	0.3
308.15	0.5288	828.7	0.3
308.15	0.6577	836.9	0.3
308.15	0.8089	844.6	0.3
308.15	1	851.6	0.3

System: propanenitrile + toluene; phases: Liquid
Fixed: Pressure, kPa = 101
Property: Viscosity, Pa*s (Liquid); method: Capillary tube (Ostwald; Ubbelohde) method
Temperature, K	Mole fraction of toluene	Viscosity, Pa*s	uncertainty
298.15	0	0.0004107	5.5e-06
298.15	0.0668	0.0004222	5.5e-06
298.15	0.1397	0.0004346	5.5e-06
298.15	0.2164	0.0004476	5.5e-06
298.15	0.3011	0.0004617	5.5e-06
298.15	0.3905	0.0004765	5.5e-06
298.15	0.4917	0.0004927	5.5e-06
298.15	0.5989	0.0005082	5.5e-06
298.15	0.7174	0.0005247	5.5e-06
298.15	0.854	0.0005434	5.6e-06
298.15	1	0.0005635	5.6e-06
303.15	0	0.0003991	5.4e-06
303.15	0.0668	0.0004087	5.4e-06
303.15	0.1397	0.0004194	5.4e-06
303.15	0.2164	0.0004306	5.4e-06
303.15	0.3011	0.0004432	5.4e-06
303.15	0.3905	0.0004561	5.4e-06
303.15	0.4917	0.0004702	5.5e-06
303.15	0.5989	0.0004842	5.5e-06
303.15	0.7174	0.0004989	5.5e-06
303.15	0.854	0.0005158	5.5e-06
303.15	1	0.0005344	5.5e-06
308.15	0	0.0003822	5.3e-06
308.15	0.0668	0.0003907	5.3e-06
308.15	0.1397	0.0004004	5.4e-06
308.15	0.2164	0.0004106	5.4e-06
308.15	0.3011	0.000422	5.4e-06
308.15	0.3905	0.0004341	5.4e-06
308.15	0.4917	0.0004475	5.4e-06
308.15	0.5989	0.0004606	5.4e-06
308.15	0.7174	0.0004748	5.4e-06
308.15	0.854	0.0004911	5.4e-06
308.15	1	0.0005091	5.4e-06

System: propanenitrile + toluene; phases: Liquid
Fixed: Pressure, kPa = 101
Property: Speed of sound, m/s (Liquid); method: Linear variable-path acoustic interferometer
Temperature, K	Mole fraction of toluene	Speed of sound, m/s	uncertainty
298.15	0	1252.4	1.8
298.15	0.0668	1257.2	1.7
298.15	0.1397	1262.2	1.7
298.15	0.2164	1267.3	1.7
298.15	0.3011	1272.9	1.7
298.15	0.3905	1278.2	1.6
298.15	0.4917	1283	1.6
298.15	0.5989	1287.1	1.6
298.15	0.7174	1291.2	1.6
298.15	0.854	1295.2	1.5
298.15	1	1299.8	1.5
303.15	0	1232.7	1.7
303.15	0.0668	1237	1.7
303.15	0.1397	1241.7	1.7
303.15	0.2164	1246.5	1.7
303.15	0.3011	1252	1.7
303.15	0.3905	1257.1	1.6
303.15	0.4917	1262.1	1.6
303.15	0.5989	1266.2	1.6
303.15	0.7174	1270.4	1.6
303.15	0.854	1274.5	1.5
303.15	1	1279.5	1.5
308.15	0	1213.7	1.7
308.15	0.0668	1217.6	1.7
308.15	0.1397	1222	1.7
308.15	0.2164	1226.7	1.7
308.15	0.3011	1232	1.6
308.15	0.3905	1237.1	1.6
308.15	0.4917	1242.1	1.6
308.15	0.5989	1246.3	1.6
308.15	0.7174	1250.5	1.5
308.15	0.854	1255.2	1.5
308.15	1	1260.7	1.5

System: propanenitrile + toluene; phases: Liquid
Fixed: Pressure, kPa = 101
Property: Mass density, kg/m3 (Liquid); method: Pycnometric method
Temperature, K	Mole fraction of toluene	Mass density, kg/m3	uncertainty
298.15	0	775.4	0.3
298.15	0.0668	784.4	0.3
298.15	0.1397	793.6	0.3
298.15	0.2164	802.6	0.3
298.15	0.3011	811.7	0.3
298.15	0.3905	820.5	0.3
298.15	0.4917	829.4	0.3
298.15	0.5989	837.7	0.3
298.15	0.7174	845.7	0.3
298.15	0.854	853.7	0.3
298.15	1	860.9	0.3
303.15	0	769.9	0.3
303.15	0.0668	778.8	0.3
303.15	0.1397	787.9	0.3
303.15	0.2164	796.8	0.3
303.15	0.3011	806	0.3
303.15	0.3905	814.9	0.3
303.15	0.4917	823.9	0.3
303.15	0.5989	832.3	0.3
303.15	0.7174	840.5	0.3
303.15	0.854	848.6	0.3
303.15	1	856	0.3
308.15	0	765.2	0.4
308.15	0.0668	773.9	0.3
308.15	0.1397	783	0.3
308.15	0.2164	791.9	0.3
308.15	0.3011	801.1	0.3
308.15	0.3905	810.1	0.3
308.15	0.4917	819.1	0.3
308.15	0.5989	827.6	0.3
308.15	0.7174	835.8	0.3
308.15	0.854	844	0.3
308.15	1	851.6	0.3

System: toluene + butanenitrile; phases: Liquid
Fixed: Pressure, kPa = 101
Property: Viscosity, Pa*s (Liquid); method: Capillary tube (Ostwald; Ubbelohde) method
Temperature, K	Mole fraction of toluene	Viscosity, Pa*s	uncertainty
298.15	0	0.0005463	6.1e-06
298.15	0.082	0.0005484	6e-06
298.15	0.1673	0.0005504	6e-06
298.15	0.2537	0.0005522	5.9e-06
298.15	0.3488	0.0005541	5.9e-06
298.15	0.4436	0.0005559	5.8e-06
298.15	0.5435	0.0005576	5.8e-06
298.15	0.651	0.0005592	5.7e-06
298.15	0.759	0.0005607	5.7e-06
298.15	0.8771	0.0005622	5.6e-06
298.15	1	0.0005635	5.6e-06
303.15	0	0.0005255	6e-06
303.15	0.082	0.0005265	5.9e-06
303.15	0.1673	0.0005276	5.9e-06
303.15	0.2537	0.0005287	5.8e-06
303.15	0.3488	0.0005299	5.8e-06
303.15	0.4436	0.0005309	5.7e-06
303.15	0.5435	0.0005317	5.7e-06
303.15	0.651	0.0005324	5.6e-06
303.15	0.759	0.0005329	5.6e-06
303.15	0.8771	0.0005337	5.5e-06
303.15	1	0.0005344	5.5e-06
308.15	0	0.0005049	5.9e-06
308.15	0.082	0.0005053	5.8e-06
308.15	0.1673	0.0005058	5.8e-06
308.15	0.2537	0.0005064	5.7e-06
308.15	0.3488	0.0005069	5.7e-06
308.15	0.4436	0.0005074	5.6e-06
308.15	0.5435	0.0005079	5.6e-06
308.15	0.651	0.0005082	5.5e-06
308.15	0.759	0.0005084	5.5e-06
308.15	0.8771	0.0005088	5.4e-06
308.15	1	0.0005091	5.4e-06

System: toluene + butanenitrile; phases: Liquid
Fixed: Pressure, kPa = 101
Property: Speed of sound, m/s (Liquid); method: Linear variable-path acoustic interferometer
Temperature, K	Mole fraction of toluene	Speed of sound, m/s	uncertainty
298.15	0	1271.4	1.8
298.15	0.082	1276.3	1.7
298.15	0.1673	1280.6	1.7
298.15	0.2537	1284.9	1.7
298.15	0.3488	1289.2	1.7
298.15	0.4436	1292.6	1.6
298.15	0.5435	1294.9	1.6
298.15	0.651	1296.7	1.6
298.15	0.759	1298	1.6
298.15	0.8771	1298.7	1.5
298.15	1	1299.8	1.5
303.15	0	1252.2	1.8
303.15	0.082	1256.5	1.7
303.15	0.1673	1260.4	1.7
303.15	0.2537	1264.5	1.7
303.15	0.3488	1268.6	1.7
303.15	0.4436	1272.2	1.6
303.15	0.5435	1274.6	1.6
303.15	0.651	1276.5	1.6
303.15	0.759	1277.4	1.5
303.15	0.8771	1278.3	1.5
303.15	1	1279.5	1.5
308.15	0	1233.9	1.7
308.15	0.082	1237.9	1.7
308.15	0.1673	1241.7	1.7
308.15	0.2537	1245.4	1.7
308.15	0.3488	1249.3	1.6
308.15	0.4436	1252.5	1.6
308.15	0.5435	1254.7	1.6
308.15	0.651	1256.5	1.6
308.15	0.759	1257.8	1.5
308.15	0.8771	1259	1.5
308.15	1	1260.7	1.5

System: toluene + butanenitrile; phases: Liquid
Fixed: Pressure, kPa = 101
Property: Mass density, kg/m3 (Liquid); method: Pycnometric method
Temperature, K	Mole fraction of toluene	Mass density, kg/m3	uncertainty
298.15	0	784.7	0.3
298.15	0.082	792.7	0.3
298.15	0.1673	800.8	0.3
298.15	0.2537	808.6	0.3
298.15	0.3488	816.8	0.3
298.15	0.4436	824.5	0.3
298.15	0.5435	832.2	0.3
298.15	0.651	839.8	0.3
298.15	0.759	846.9	0.3
298.15	0.8771	854.1	0.3
298.15	1	860.9	0.3
303.15	0	780.3	0.4
303.15	0.082	788.1	0.3
303.15	0.1673	796.1	0.3
303.15	0.2537	803.8	0.3
303.15	0.3488	812	0.3
303.15	0.4436	819.7	0.3
303.15	0.5435	827.3	0.3
303.15	0.651	834.9	0.3
303.15	0.759	841.9	0.3
303.15	0.8771	849.1	0.3
303.15	1	856	0.3
308.15	0	775.9	0.4
308.15	0.082	783.6	0.4
308.15	0.1673	791.5	0.3
308.15	0.2537	799.2	0.3
308.15	0.3488	807.4	0.3
308.15	0.4436	815.1	0.3
308.15	0.5435	822.8	0.3
308.15	0.651	830.4	0.3
308.15	0.759	837.4	0.3
308.15	0.8771	844.6	0.3
308.15	1	851.6	0.3
