Measured thermophysical data. Thermodynamic properties of liquid silver indium alloys determined from e.m.f. measurements
Source: Thermochim. Acta, 2005, 10.1016/j.tca.2005.02.005
Compound 1: nickel(II) oxide, NiO, InChI=1S/Ni.O/q+2;-2
Compound 2: nickel, Ni, InChI=1S/Ni
Compound 3: silver, Ag, InChI=1S/Ag, purity 99.9999%
Compound 4: indium, In, InChI=1S/In, purity 99.99%
Compound 5: diindium trioxide, In2O3, InChI=1S/2In.3O/q2*+3;3*-2, purity 99%

System: silver + indium; phases: Liquid
Fixed: Temperature, K = 1200
Fixed: Pressure, kPa = 101
Property: Activity coefficient of indium (Liquid); method: Calculated from EMF cell potential
Mole fraction of indium	Activity coefficient of indium	uncertainty
0.15	0.147	0.007
0.22	0.255	0.013
0.3	0.534	0.027
0.4	0.664	0.033
0.5	0.818	0.041
0.6	0.829	0.041
0.7	0.887	0.044
0.8	0.939	0.047

Reaction: 1 diindium trioxide + -3 nickel(II) oxide + 3 nickel + -2 indium
Property: Molar enthalpy of reaction, kJ/mol
-207.8

Reaction: 1 diindium trioxide + -3 nickel(II) oxide + 3 nickel + -2 indium
Property: Molar entropy of reaction, J/K/mol
53.9
