Measured thermophysical data. Solubilities of resorcinol and pyrocathecol and  their mixture in supercritical carbon dioxide
Source: Thermochim. Acta, 2011, 10.1016/j.tca.2011.04.002
Compound 1: carbon dioxide, CO2, InChI=1S/CO2/c2-1-3, purity 99%
Compound 2: 1,2-benzenediol, C6H6O2, InChI=1S/C6H6O2/c7-5-3-1-2-4-6(5)8/h1-4,7-8H, purity 98%
Compound 3: 1,3-benzenediol, C6H6O2, InChI=1S/C6H6O2/c7-5-2-1-3-6(8)4-5/h1-4,7-8H, purity 99%

System: 1,2-benzenediol + carbon dioxide; phases: Fluid (supercritical or subcritical phases), Crystal
Property: Mole fraction of 1,2-benzenediol (Fluid (supercritical or subcritical phases)); method: flow apparatus
Pressure, kPa	Temperature, K	Mole fraction of 1,2-benzenediol	uncertainty
9800	308.15	0.0004	0.0001
9800	318.15	0.00018	7e-05
9800	328.15	0.00013	9e-05
9800	338.15	8.5e-05	8.5e-05
13730	308.15	0.00078	6e-05
13730	318.15	0.00092	9e-05
13730	328.15	0.00101	0.00011
13730	338.15	0.00122	0.00014

System: 1,3-benzenediol + carbon dioxide; phases: Fluid (supercritical or subcritical phases), Crystal
Property: Mole fraction of 1,3-benzenediol (Fluid (supercritical or subcritical phases)); method: flow apparatus
Pressure, kPa	Temperature, K	Mole fraction of 1,3-benzenediol	uncertainty
9800	308.15	6.9e-05	7e-06
9800	318.15	4.2e-05	1.4e-05
9800	328.15	2.6e-05	2.3e-05
13730	308.15	0.000121	9e-06
13730	318.15	0.00018	2e-05
13730	328.15	0.00025	3e-05
13730	338.15	0.000272	2.8e-05

System: 1,3-benzenediol + 1,2-benzenediol + carbon dioxide; phases: Fluid (supercritical or subcritical phases), Crystal, Crystal
Property: Mole fraction of 1,3-benzenediol (Fluid (supercritical or subcritical phases)); method: Chromatography
Temperature, K	Pressure, kPa	Mole fraction of 1,3-benzenediol	uncertainty
308.15	9800	4.2e-05	5e-06
308.15	10780	5.7e-05	7e-06
308.15	11770	7.9e-05	9e-06
308.15	13730	8.7e-05	1e-05
308.15	15700	9.8e-05	1.2e-05
318.15	9800	3.3e-05	4e-06
318.15	10780	5.5e-05	7e-06
318.15	11770	8.2e-05	1e-05
318.15	13730	0.000106	1.3e-05
318.15	15700	0.000122	1.5e-05
328.15	9800	1.5e-05	2e-06
328.15	10780	2.5e-05	3e-06
328.15	11770	6.1e-05	7e-06
328.15	12160	9e-05	1.1e-05
328.15	13730	0.000133	1.6e-05
328.15	15700	0.000145	1.7e-05
338.15	9800	1.1e-05	1e-06
338.15	10780	1.9e-05	2e-06
338.15	12160	7.4e-05	9e-06
338.15	13730	8.7e-05	1e-05
338.15	16210	0.000158	1.9e-05

System: 1,3-benzenediol + 1,2-benzenediol + carbon dioxide; phases: Fluid (supercritical or subcritical phases), Crystal, Crystal
Property: Mole fraction of 1,2-benzenediol (Fluid (supercritical or subcritical phases)); method: Chromatography
Temperature, K	Pressure, kPa	Mole fraction of 1,2-benzenediol	uncertainty
308.15	9800	0.00047	3e-05
308.15	10780	0.00059	4e-05
308.15	11770	0.00075	5e-05
308.15	13730	0.00082	5e-05
308.15	15700	0.00091	5e-05
318.15	9800	0.00036	2e-05
318.15	10780	0.00058	4e-05
318.15	11770	0.00077	5e-05
318.15	13730	0.00095	6e-05
318.15	15700	0.00116	7e-05
328.15	9800	0.00024	2e-05
328.15	10780	0.0004	2e-05
328.15	11770	0.00079	5e-05
328.15	12160	0.00092	6e-05
328.15	13730	0.00116	7e-05
328.15	15700	0.00128	8e-05
338.15	9800	0.00011	1e-05
338.15	10780	0.00028	2e-05
338.15	12160	0.00079	5e-05
338.15	13730	0.00117	7e-05
338.15	16210	0.00141	8e-05
