Measured thermophysical data. Densities, speeds of sound, isentropic compressibilities, refractive indexes, and viscosities of tetrahydrofuran with haloalkane or alkyl ethanoate at T = 303.15 K
Source: Thermochim. Acta, 2005, 10.1016/j.tca.2004.08.001
Compound 1: tetrahydrofuran, C4H8O, InChI=1S/C4H8O/c1-2-4-5-3-1/h1-4H2
Compound 2: tetrachloromethane, CCl4, InChI=1S/CCl4/c2-1(3,4)5
Compound 3: trichloromethane, CHCl3, InChI=1S/CHCl3/c2-1(3)4/h1H
Compound 4: 1,1,2,2-tetrachloroethane, C2H2Cl4, InChI=1S/C2H2Cl4/c3-1(4)2(5)6/h1-2H
Compound 5: 1-chlorohexane, C6H13Cl, InChI=1S/C6H13Cl/c1-2-3-4-5-6-7/h2-6H2,1H3
Compound 6: 1-bromohexane, C6H13Br, InChI=1S/C6H13Br/c1-2-3-4-5-6-7/h2-6H2,1H3
Compound 7: methyl ethanoate, C3H6O2, InChI=1S/C3H6O2/c1-3(4)5-2/h1-2H3
Compound 8: ethyl acetate, C4H8O2, InChI=1S/C4H8O2/c1-3-6-4(2)5/h3H2,1-2H3
Compound 9: butyl ethanoate, C6H12O2, InChI=1S/C6H12O2/c1-3-4-5-8-6(2)7/h3-5H2,1-2H3
Compound 10: pentyl ethanoate, C7H14O2, InChI=1S/C7H14O2/c1-3-4-5-6-9-7(2)8/h3-6H2,1-2H3

System: tetrahydrofuran; phases: Liquid
Property: Refractive index (Na D-line) (Liquid); method: Standard Abbe refractometry
Temperature, K	Pressure, kPa	Refractive index (Na D-line)	uncertainty
303.15	101.325	1.4028	0.0007

System: tetrahydrofuran; phases: Liquid
Property: Mass density, kg/m3 (Liquid); method: VIBTUB:UFactor:4
Temperature, K	Pressure, kPa	Mass density, kg/m3	uncertainty
303.15	101.325	876.7	1.36

System: tetrahydrofuran; phases: Liquid
Property: Viscosity, Pa*s (Liquid); method: CAPTUB:UFactor:2
Temperature, K	Pressure, kPa	Viscosity, Pa*s	uncertainty
303.15	101.325	0.0004383	7.1e-06

System: tetrahydrofuran; phases: Liquid
Property: Speed of sound, m/s (Liquid); method: Linear variable-path acoustic interferometer
Temperature, K	Pressure, kPa	Speed of sound, m/s	uncertainty
303.15	101.325	1255	2

System: tetrachloromethane; phases: Liquid
Property: Refractive index (Na D-line) (Liquid); method: Standard Abbe refractometry
Temperature, K	Pressure, kPa	Refractive index (Na D-line)	uncertainty
303.15	101.325	1.4555	0.0007

System: tetrachloromethane; phases: Liquid
Property: Mass density, kg/m3 (Liquid); method: VIBTUB:UFactor:4
Temperature, K	Pressure, kPa	Mass density, kg/m3	uncertainty
303.15	101.325	1574.82	1.14

System: tetrachloromethane; phases: Liquid
Property: Viscosity, Pa*s (Liquid); method: CAPTUB:UFactor:2
Temperature, K	Pressure, kPa	Viscosity, Pa*s	uncertainty
303.15	101.325	0.0008441	1.09e-05

System: tetrachloromethane; phases: Liquid
Property: Speed of sound, m/s (Liquid); method: Linear variable-path acoustic interferometer
Temperature, K	Pressure, kPa	Speed of sound, m/s	uncertainty
303.15	101.325	905	2

System: trichloromethane; phases: Liquid
Property: Refractive index (Na D-line) (Liquid); method: Standard Abbe refractometry
Temperature, K	Pressure, kPa	Refractive index (Na D-line)	uncertainty
303.15	101.325	1.441	0.0007

System: trichloromethane; phases: Liquid
Property: Mass density, kg/m3 (Liquid); method: VIBTUB:UFactor:4
Temperature, K	Pressure, kPa	Mass density, kg/m3	uncertainty
303.15	101.325	1470.59	1.36

System: trichloromethane; phases: Liquid
Property: Viscosity, Pa*s (Liquid); method: CAPTUB:UFactor:2
Temperature, K	Pressure, kPa	Viscosity, Pa*s	uncertainty
303.15	101.325	0.00051	7.7e-06

System: trichloromethane; phases: Liquid
Property: Speed of sound, m/s (Liquid); method: Linear variable-path acoustic interferometer
Temperature, K	Pressure, kPa	Speed of sound, m/s	uncertainty
303.15	101.325	967	2

System: 1,1,2,2-tetrachloroethane; phases: Liquid
Property: Refractive index (Na D-line) (Liquid); method: Standard Abbe refractometry
Temperature, K	Pressure, kPa	Refractive index (Na D-line)	uncertainty
303.15	101.325	1.4881	0.0007

System: 1,1,2,2-tetrachloroethane; phases: Liquid
Property: Mass density, kg/m3 (Liquid); method: VIBTUB:UFactor:4
Temperature, K	Pressure, kPa	Mass density, kg/m3	uncertainty
303.15	101.325	1578.6	0.44

System: 1,1,2,2-tetrachloroethane; phases: Liquid
Property: Viscosity, Pa*s (Liquid); method: CAPTUB:UFactor:2
Temperature, K	Pressure, kPa	Viscosity, Pa*s	uncertainty
303.15	101.325	0.001457	1.8e-05

System: 1,1,2,2-tetrachloroethane; phases: Liquid
Property: Speed of sound, m/s (Liquid); method: Linear variable-path acoustic interferometer
Temperature, K	Pressure, kPa	Speed of sound, m/s	uncertainty
303.15	101.325	1135	2

System: 1-chlorohexane; phases: Liquid
Property: Refractive index (Na D-line) (Liquid); method: Standard Abbe refractometry
Temperature, K	Pressure, kPa	Refractive index (Na D-line)	uncertainty
303.15	101.325	1.4168	0.0007

System: 1-chlorohexane; phases: Liquid
Property: Refractive index (Na D-line) (Liquid); method: Standard Abbe refractometry
Temperature, K	Pressure, kPa	Refractive index (Na D-line)	uncertainty
298.15	101.325	1.4197	0.0007

System: 1-chlorohexane; phases: Liquid
Property: Mass density, kg/m3 (Liquid); method: VIBTUB:UFactor:4
Temperature, K	Pressure, kPa	Mass density, kg/m3	uncertainty
303.15	101.325	868.78	0.43

System: 1-chlorohexane; phases: Liquid
Property: Mass density, kg/m3 (Liquid); method: VIBTUB:UFactor:4
Temperature, K	Pressure, kPa	Mass density, kg/m3	uncertainty
298.15	101.325	873.47	0.53

System: 1-chlorohexane; phases: Liquid
Property: Viscosity, Pa*s (Liquid); method: CAPTUB:UFactor:2
Temperature, K	Pressure, kPa	Viscosity, Pa*s	uncertainty
303.15	101.325	0.0006544	9e-06

System: 1-chlorohexane; phases: Liquid
Property: Speed of sound, m/s (Liquid); method: Linear variable-path acoustic interferometer
Temperature, K	Pressure, kPa	Speed of sound, m/s	uncertainty
303.15	101.325	1184	2

System: 1-bromohexane; phases: Liquid
Property: Refractive index (Na D-line) (Liquid); method: Standard Abbe refractometry
Temperature, K	Pressure, kPa	Refractive index (Na D-line)	uncertainty
298.15	101.325	1.4464	0.0007

System: 1-bromohexane; phases: Liquid
Property: Refractive index (Na D-line) (Liquid); method: Standard Abbe refractometry
Temperature, K	Pressure, kPa	Refractive index (Na D-line)	uncertainty
303.15	101.325	1.4441	0.0007

System: 1-bromohexane; phases: Liquid
Property: Mass density, kg/m3 (Liquid); method: VIBTUB:UFactor:4
Temperature, K	Pressure, kPa	Mass density, kg/m3	uncertainty
298.15	101.325	1169.62	0.51

System: 1-bromohexane; phases: Liquid
Property: Mass density, kg/m3 (Liquid); method: VIBTUB:UFactor:4
Temperature, K	Pressure, kPa	Mass density, kg/m3	uncertainty
303.15	101.325	1162.67	0.34

System: 1-bromohexane; phases: Liquid
Property: Viscosity, Pa*s (Liquid); method: CAPTUB:UFactor:2
Temperature, K	Pressure, kPa	Viscosity, Pa*s	uncertainty
303.15	101.325	0.000903	1.16e-05

System: 1-bromohexane; phases: Liquid
Property: Speed of sound, m/s (Liquid); method: Linear variable-path acoustic interferometer
Temperature, K	Pressure, kPa	Speed of sound, m/s	uncertainty
303.15	101.325	1075	2

System: methyl ethanoate; phases: Liquid
Property: Refractive index (Na D-line) (Liquid); method: Standard Abbe refractometry
Temperature, K	Pressure, kPa	Refractive index (Na D-line)	uncertainty
303.15	101.325	1.3567	0.0007

System: methyl ethanoate; phases: Liquid
Property: Mass density, kg/m3 (Liquid); method: VIBTUB:UFactor:4
Temperature, K	Pressure, kPa	Mass density, kg/m3	uncertainty
303.15	101.325	920.83	0.4

System: methyl ethanoate; phases: Liquid
Property: Viscosity, Pa*s (Liquid); method: CAPTUB:UFactor:2
Temperature, K	Pressure, kPa	Viscosity, Pa*s	uncertainty
303.15	101.325	0.000343	6.3e-06

System: methyl ethanoate; phases: Liquid
Property: Speed of sound, m/s (Liquid); method: Linear variable-path acoustic interferometer
Temperature, K	Pressure, kPa	Speed of sound, m/s	uncertainty
303.15	101.325	1136	2

System: ethyl acetate; phases: Liquid
Property: Refractive index (Na D-line) (Liquid); method: Standard Abbe refractometry
Temperature, K	Pressure, kPa	Refractive index (Na D-line)	uncertainty
303.15	101.325	1.3664	0.0007

System: ethyl acetate; phases: Liquid
Property: Mass density, kg/m3 (Liquid); method: VIBTUB:UFactor:4
Temperature, K	Pressure, kPa	Mass density, kg/m3	uncertainty
303.15	101.325	888.55	0.44

System: ethyl acetate; phases: Liquid
Property: Viscosity, Pa*s (Liquid); method: CAPTUB:UFactor:2
Temperature, K	Pressure, kPa	Viscosity, Pa*s	uncertainty
303.15	101.325	0.0004043	6.8e-06

System: ethyl acetate; phases: Liquid
Property: Speed of sound, m/s (Liquid); method: Linear variable-path acoustic interferometer
Temperature, K	Pressure, kPa	Speed of sound, m/s	uncertainty
303.15	101.325	1117	2

System: butyl ethanoate; phases: Liquid
Property: Refractive index (Na D-line) (Liquid); method: Standard Abbe refractometry
Temperature, K	Pressure, kPa	Refractive index (Na D-line)	uncertainty
303.15	101.325	1.3896	0.0007

System: butyl ethanoate; phases: Liquid
Property: Mass density, kg/m3 (Liquid); method: VIBTUB:UFactor:4
Temperature, K	Pressure, kPa	Mass density, kg/m3	uncertainty
303.15	101.325	870.8	0.44

System: butyl ethanoate; phases: Liquid
Property: Viscosity, Pa*s (Liquid); method: CAPTUB:UFactor:2
Temperature, K	Pressure, kPa	Viscosity, Pa*s	uncertainty
303.15	101.325	0.0006453	8.9e-06

System: butyl ethanoate; phases: Liquid
Property: Speed of sound, m/s (Liquid); method: Linear variable-path acoustic interferometer
Temperature, K	Pressure, kPa	Speed of sound, m/s	uncertainty
303.15	101.325	1172	2

System: pentyl ethanoate; phases: Liquid
Property: Refractive index (Na D-line) (Liquid); method: Standard Abbe refractometry
Temperature, K	Pressure, kPa	Refractive index (Na D-line)	uncertainty
303.15	101.325	1.3961	0.0007

System: pentyl ethanoate; phases: Liquid
Property: Mass density, kg/m3 (Liquid); method: VIBTUB:UFactor:4
Temperature, K	Pressure, kPa	Mass density, kg/m3	uncertainty
303.15	101.325	867.2	0.44

System: pentyl ethanoate; phases: Liquid
Property: Viscosity, Pa*s (Liquid); method: CAPTUB:UFactor:2
Temperature, K	Pressure, kPa	Viscosity, Pa*s	uncertainty
303.15	101.325	0.0007573	9.9e-06

System: pentyl ethanoate; phases: Liquid
Property: Speed of sound, m/s (Liquid); method: Linear variable-path acoustic interferometer
Temperature, K	Pressure, kPa	Speed of sound, m/s	uncertainty
303.15	101.325	1197	2

System: tetrachloromethane + tetrahydrofuran; phases: Liquid
Fixed: Temperature, K = 303.15
Fixed: Pressure, kPa = 101.3
Property: Viscosity, Pa*s (Liquid); method: CAPTUB:UFactor:2
Mole fraction of tetrahydrofuran	Viscosity, Pa*s	uncertainty
0.1068	0.0008152	1.06e-05
0.2017	0.000788	1.03e-05
0.3004	0.000758	1e-05
0.396	0.000721	9.6e-06
0.503	0.0006782	9.2e-06
0.6	0.0006359	8.8e-06
0.6923	0.0005916	8.4e-06
0.7949	0.0005453	8e-06
0.8889	0.0004962	7.6e-06

System: tetrachloromethane + tetrahydrofuran; phases: Liquid
Fixed: Temperature, K = 303.15
Fixed: Pressure, kPa = 101.3
Property: Refractive index (Na D-line) (Liquid); method: Standard Abbe refractometry
Mole fraction of tetrahydrofuran	Refractive index (Na D-line)	uncertainty
0.1068	1.4519	0.0008
0.2017	1.4486	0.0008
0.3004	1.4451	0.0008
0.396	1.4409	0.0008
0.503	1.4357	0.0008
0.6	1.4304	0.0008
0.6923	1.4247	0.0008
0.7949	1.4182	0.0008
0.8889	1.4116	0.0008

System: tetrachloromethane + tetrahydrofuran; phases: Liquid
Fixed: Temperature, K = 303.15
Fixed: Pressure, kPa = 101.3
Property: Speed of sound, m/s (Liquid); method: Linear variable-path acoustic interferometer
Mole fraction of tetrahydrofuran	Speed of sound, m/s	uncertainty
0.1068	932	2
0.2017	955	2
0.3004	982	2
0.396	1008	2
0.503	1042	2
0.6	1074	2
0.6923	1109	2
0.7949	1152	2
0.8889	1196	2

System: tetrachloromethane + tetrahydrofuran; phases: Liquid
Fixed: Temperature, K = 303.15
Fixed: Pressure, kPa = 101.3
Property: Mass density, kg/m3 (Liquid); method: VIBTUB:UFactor:4
Mole fraction of tetrahydrofuran	Mass density, kg/m3	uncertainty
0.1068	1513.72	0.95
0.2017	1457.18	0.86
0.3004	1395.97	0.77
0.396	1334.07	0.67
0.503	1261.58	0.57
0.6	1192.83	0.47
0.6923	1124.71	0.37
0.7949	1045.62	0.27
0.8889	969.98	0.26

System: trichloromethane + tetrahydrofuran; phases: Liquid
Fixed: Temperature, K = 303.15
Fixed: Pressure, kPa = 101.3
Property: Viscosity, Pa*s (Liquid); method: CAPTUB:UFactor:2
Mole fraction of tetrahydrofuran	Viscosity, Pa*s	uncertainty
0.1023	0.0005307	7.9e-06
0.2085	0.0005467	8e-06
0.3045	0.0005566	8.1e-06
0.4278	0.000559	8.1e-06
0.5003	0.000558	8.1e-06
0.6047	0.0005445	8e-06
0.6976	0.0005245	7.8e-06
0.8077	0.0004955	7.5e-06
0.8921	0.0004676	7.3e-06

System: trichloromethane + tetrahydrofuran; phases: Liquid
Fixed: Temperature, K = 303.15
Fixed: Pressure, kPa = 101.3
Property: Refractive index (Na D-line) (Liquid); method: Standard Abbe refractometry
Mole fraction of tetrahydrofuran	Refractive index (Na D-line)	uncertainty
0.1023	1.438	0.0008
0.2085	1.4346	0.0008
0.3045	1.4315	0.0008
0.4278	1.4273	0.0008
0.5003	1.4251	0.0008
0.6047	1.421	0.0008
0.6976	1.4168	0.0008
0.8077	1.4121	0.0008
0.8921	1.4079	0.0008

System: trichloromethane + tetrahydrofuran; phases: Liquid
Fixed: Temperature, K = 303.15
Fixed: Pressure, kPa = 101.3
Property: Speed of sound, m/s (Liquid); method: Linear variable-path acoustic interferometer
Mole fraction of tetrahydrofuran	Speed of sound, m/s	uncertainty
0.1023	986	2
0.2085	1006	2
0.3045	1024	2
0.4278	1051	2
0.5003	1070	2
0.6047	1102	2
0.6976	1133	2
0.8077	1174	2
0.8921	1208	2

System: trichloromethane + tetrahydrofuran; phases: Liquid
Fixed: Temperature, K = 303.15
Fixed: Pressure, kPa = 101.3
Property: Mass density, kg/m3 (Liquid); method: VIBTUB:UFactor:4
Mole fraction of tetrahydrofuran	Mass density, kg/m3	uncertainty
0.1023	1410.89	1
0.2085	1349.01	0.89
0.3045	1292.84	0.79
0.4278	1220.11	0.67
0.5003	1176.98	0.61
0.6047	1114.67	0.47
0.6976	1058.96	0.35
0.8077	992.59	0.24
0.8921	941.69	0.3

System: 1,1,2,2-tetrachloroethane + tetrahydrofuran; phases: Liquid
Fixed: Temperature, K = 303.15
Fixed: Pressure, kPa = 101.3
Property: Viscosity, Pa*s (Liquid); method: CAPTUB:UFactor:2
Mole fraction of tetrahydrofuran	Viscosity, Pa*s	uncertainty
0.1023	0.0013889	1.72e-05
0.2128	0.0013071	1.62e-05
0.3093	0.001227	1.53e-05
0.4056	0.0011362	1.43e-05
0.5093	0.0010289	1.3e-05
0.6032	0.0009116	1.17e-05
0.7046	0.000786	1.03e-05
0.8008	0.0006647	9.1e-06
0.8973	0.0005519	8e-06

System: 1,1,2,2-tetrachloroethane + tetrahydrofuran; phases: Liquid
Fixed: Temperature, K = 303.15
Fixed: Pressure, kPa = 101.3
Property: Refractive index (Na D-line) (Liquid); method: Standard Abbe refractometry
Mole fraction of tetrahydrofuran	Refractive index (Na D-line)	uncertainty
0.1023	1.483	0.0008
0.2128	1.476	0.0008
0.3093	1.4701	0.0008
0.4056	1.4639	0.0008
0.5093	1.4556	0.0008
0.6032	1.4472	0.0008
0.7046	1.4368	0.0008
0.8008	1.4268	0.0008
0.8973	1.416	0.0008

System: 1,1,2,2-tetrachloroethane + tetrahydrofuran; phases: Liquid
Fixed: Temperature, K = 303.15
Fixed: Pressure, kPa = 101.3
Property: Speed of sound, m/s (Liquid); method: Linear variable-path acoustic interferometer
Mole fraction of tetrahydrofuran	Speed of sound, m/s	uncertainty
0.1023	1138	2
0.2128	1143	2
0.3093	1149	2
0.4056	1157	2
0.5093	1168	2
0.6032	1180	2
0.7046	1195	2
0.8008	1212	2
0.8973	1231	2

System: 1,1,2,2-tetrachloroethane + tetrahydrofuran; phases: Liquid
Fixed: Temperature, K = 303.15
Fixed: Pressure, kPa = 101.3
Property: Mass density, kg/m3 (Liquid); method: VIBTUB:UFactor:4
Mole fraction of tetrahydrofuran	Mass density, kg/m3	uncertainty
0.1023	1523.21	1.23
0.2128	1460.02	1.11
0.3093	1401.59	1
0.4056	1340.18	0.9
0.5093	1270.31	0.8
0.6032	1203.28	0.66
0.7046	1126.91	0.49
0.8008	1050.12	0.33
0.8973	968.58	0.26

System: tetrahydrofuran + 1-chlorohexane; phases: Liquid
Fixed: Temperature, K = 303.15
Fixed: Pressure, kPa = 101.3
Property: Viscosity, Pa*s (Liquid); method: CAPTUB:UFactor:2
Mole fraction of tetrahydrofuran	Viscosity, Pa*s	uncertainty
0.1039	0.0006407	8.8e-06
0.305	0.0006046	8.5e-06
0.5025	0.0005698	8.2e-06
0.7336	0.0005114	7.7e-06
0.9013	0.0004711	7.3e-06

System: tetrahydrofuran + 1-chlorohexane; phases: Liquid
Fixed: Temperature, K = 303.15
Fixed: Pressure, kPa = 101.3
Property: Refractive index (Na D-line) (Liquid); method: Standard Abbe refractometry
Mole fraction of tetrahydrofuran	Refractive index (Na D-line)	uncertainty
0.1039	1.4161	0.0008
0.305	1.4142	0.0008
0.5025	1.4122	0.0008
0.7336	1.4088	0.0008
0.9013	1.4053	0.0008

System: tetrahydrofuran + 1-chlorohexane; phases: Liquid
Fixed: Temperature, K = 303.15
Fixed: Pressure, kPa = 101.3
Property: Speed of sound, m/s (Liquid); method: Linear variable-path acoustic interferometer
Mole fraction of tetrahydrofuran	Speed of sound, m/s	uncertainty
0.1039	1195	2
0.305	1216	2
0.5025	1233	2
0.7336	1247	2
0.9013	1252	2

System: tetrahydrofuran + 1-chlorohexane; phases: Liquid
Fixed: Temperature, K = 303.15
Fixed: Pressure, kPa = 101.3
Property: Mass density, kg/m3 (Liquid); method: VIBTUB:UFactor:4
Mole fraction of tetrahydrofuran	Mass density, kg/m3	uncertainty
0.1039	869.11	0.44
0.305	870.03	0.43
0.5025	871.36	0.43
0.7336	873.79	0.43
0.9013	875.66	0.42

System: tetrahydrofuran + 1-bromohexane; phases: Liquid
Fixed: Temperature, K = 303.15
Fixed: Pressure, kPa = 101.3
Property: Viscosity, Pa*s (Liquid); method: CAPTUB:UFactor:2
Mole fraction of tetrahydrofuran	Viscosity, Pa*s	uncertainty
0.0976	0.0008602	1.11e-05
0.3008	0.0007753	1.01e-05
0.4975	0.0006995	9.4e-06
0.696	0.0006258	8.7e-06
0.9	0.0005054	7.6e-06

System: tetrahydrofuran + 1-bromohexane; phases: Liquid
Fixed: Temperature, K = 303.15
Fixed: Pressure, kPa = 101.3
Property: Refractive index (Na D-line) (Liquid); method: Standard Abbe refractometry
Mole fraction of tetrahydrofuran	Refractive index (Na D-line)	uncertainty
0.0976	1.442	0.0008
0.3008	1.4368	0.0008
0.4975	1.4307	0.0008
0.696	1.4223	0.0008
0.9	1.4105	0.0008

System: tetrahydrofuran + 1-bromohexane; phases: Liquid
Fixed: Temperature, K = 303.15
Fixed: Pressure, kPa = 101.3
Property: Speed of sound, m/s (Liquid); method: Linear variable-path acoustic interferometer
Mole fraction of tetrahydrofuran	Speed of sound, m/s	uncertainty
0.0976	1087	2
0.3008	1119	2
0.4975	1154	2
0.696	1194	2
0.9	1235	2

System: tetrahydrofuran + 1-bromohexane; phases: Liquid
Fixed: Temperature, K = 303.15
Fixed: Pressure, kPa = 101.3
Property: Mass density, kg/m3 (Liquid); method: VIBTUB:UFactor:4
Mole fraction of tetrahydrofuran	Mass density, kg/m3	uncertainty
0.0976	1146.32	0.47
0.3008	1107.3	0.4
0.4975	1061.2	0.34
0.696	1002.92	0.23
0.9	924.62	0.33

System: methyl ethanoate + tetrahydrofuran; phases: Liquid
Fixed: Temperature, K = 303.15
Fixed: Pressure, kPa = 101.3
Property: Viscosity, Pa*s (Liquid); method: CAPTUB:UFactor:2
Mole fraction of tetrahydrofuran	Viscosity, Pa*s	uncertainty
0.1028	0.0003512	6.4e-06
0.3022	0.0003672	6.5e-06
0.5035	0.0003841	6.6e-06
0.693	0.0004035	6.8e-06
0.8918	0.0004251	6.9e-06

System: methyl ethanoate + tetrahydrofuran; phases: Liquid
Fixed: Temperature, K = 303.15
Fixed: Pressure, kPa = 101.3
Property: Refractive index (Na D-line) (Liquid); method: Standard Abbe refractometry
Mole fraction of tetrahydrofuran	Refractive index (Na D-line)	uncertainty
0.1028	1.3649	0.0008
0.3022	1.3748	0.0008
0.5035	1.3847	0.0008
0.693	1.3927	0.0008
0.8918	1.4008	0.0008

System: methyl ethanoate + tetrahydrofuran; phases: Liquid
Fixed: Temperature, K = 303.15
Fixed: Pressure, kPa = 101.3
Property: Speed of sound, m/s (Liquid); method: Linear variable-path acoustic interferometer
Mole fraction of tetrahydrofuran	Speed of sound, m/s	uncertainty
0.1028	1151	2
0.3022	1178	2
0.5035	1204	2
0.693	1226	2
0.8918	1246	2

System: methyl ethanoate + tetrahydrofuran; phases: Liquid
Fixed: Temperature, K = 303.15
Fixed: Pressure, kPa = 101.3
Property: Mass density, kg/m3 (Liquid); method: VIBTUB:UFactor:4
Mole fraction of tetrahydrofuran	Mass density, kg/m3	uncertainty
0.1028	915.9	0.35
0.3022	906.64	0.36
0.5035	897.56	0.38
0.693	889.35	0.4
0.8918	881.07	0.41

System: tetrahydrofuran + ethyl acetate; phases: Liquid
Fixed: Temperature, K = 303.15
Fixed: Pressure, kPa = 101.3
Property: Viscosity, Pa*s (Liquid); method: CAPTUB:UFactor:2
Mole fraction of tetrahydrofuran	Viscosity, Pa*s	uncertainty
0.0995	0.0004078	6.8e-06
0.2035	0.0004082	6.8e-06
0.3016	0.0004085	6.8e-06
0.3923	0.0004091	6.8e-06
0.4868	0.0004111	6.8e-06
0.5955	0.0004147	6.9e-06
0.6973	0.0004184	6.9e-06
0.812	0.0004236	6.9e-06
0.9	0.0004287	7e-06

System: tetrahydrofuran + ethyl acetate; phases: Liquid
Fixed: Temperature, K = 303.15
Fixed: Pressure, kPa = 101.3
Property: Refractive index (Na D-line) (Liquid); method: Standard Abbe refractometry
Mole fraction of tetrahydrofuran	Refractive index (Na D-line)	uncertainty
0.0995	1.3707	0.0008
0.2035	1.375	0.0008
0.3016	1.3785	0.0008
0.3923	1.3821	0.0008
0.4868	1.3858	0.0008
0.5955	1.3892	0.0008
0.6973	1.3921	0.0008
0.812	1.3964	0.0008
0.9	1.3995	0.0008

System: tetrahydrofuran + ethyl acetate; phases: Liquid
Fixed: Temperature, K = 303.15
Fixed: Pressure, kPa = 101.3
Property: Speed of sound, m/s (Liquid); method: Linear variable-path acoustic interferometer
Mole fraction of tetrahydrofuran	Speed of sound, m/s	uncertainty
0.0995	1129	2
0.2035	1141	2
0.3016	1153	2
0.3923	1165	2
0.4868	1177	2
0.5955	1192	2
0.6973	1206	2
0.812	1224	2
0.9	1238	2

System: tetrahydrofuran + ethyl acetate; phases: Liquid
Fixed: Temperature, K = 303.15
Fixed: Pressure, kPa = 101.3
Property: Mass density, kg/m3 (Liquid); method: VIBTUB:UFactor:4
Mole fraction of tetrahydrofuran	Mass density, kg/m3	uncertainty
0.0995	887.39	0.4
0.2035	886.11	0.4
0.3016	884.98	0.41
0.3923	883.95	0.41
0.4868	882.82	0.41
0.5955	881.45	0.41
0.6973	880.21	0.41
0.812	878.89	0.42
0.9	877.84	0.42

System: tetrahydrofuran + butyl ethanoate; phases: Liquid
Fixed: Temperature, K = 303.15
Fixed: Pressure, kPa = 101.3
Property: Viscosity, Pa*s (Liquid); method: CAPTUB:UFactor:2
Mole fraction of tetrahydrofuran	Viscosity, Pa*s	uncertainty
0.1033	0.0006261	8.7e-06
0.1989	0.0006085	8.6e-06
0.3041	0.0005892	8.4e-06
0.3995	0.0005762	8.3e-06
0.4967	0.0005573	8.1e-06
0.6013	0.0005346	7.9e-06
0.6979	0.0005107	7.7e-06
0.7978	0.0004893	7.5e-06
0.8999	0.0004644	7.3e-06

System: tetrahydrofuran + butyl ethanoate; phases: Liquid
Fixed: Temperature, K = 303.15
Fixed: Pressure, kPa = 101.3
Property: Refractive index (Na D-line) (Liquid); method: Standard Abbe refractometry
Mole fraction of tetrahydrofuran	Refractive index (Na D-line)	uncertainty
0.1033	1.3911	0.0008
0.1989	1.3924	0.0008
0.3041	1.3941	0.0008
0.3995	1.3954	0.0008
0.4967	1.397	0.0008
0.6013	1.3979	0.0008
0.6979	1.3991	0.0008
0.7978	1.4005	0.0008
0.8999	1.4018	0.0008

System: tetrahydrofuran + butyl ethanoate; phases: Liquid
Fixed: Temperature, K = 303.15
Fixed: Pressure, kPa = 101.3
Property: Speed of sound, m/s (Liquid); method: Linear variable-path acoustic interferometer
Mole fraction of tetrahydrofuran	Speed of sound, m/s	uncertainty
0.1033	1177	2
0.1989	1182	2
0.3041	1188	2
0.3995	1194	2
0.4967	1201	2
0.6013	1210	2
0.6979	1219	2
0.7978	1229	2
0.8999	1241	2

System: tetrahydrofuran + butyl ethanoate; phases: Liquid
Fixed: Temperature, K = 303.15
Fixed: Pressure, kPa = 101.3
Property: Mass density, kg/m3 (Liquid); method: VIBTUB:UFactor:4
Mole fraction of tetrahydrofuran	Mass density, kg/m3	uncertainty
0.1033	871.17	0.43
0.1989	871.58	0.43
0.3041	872.04	0.43
0.3995	872.51	0.43
0.4967	873.01	0.43
0.6013	873.59	0.43
0.6979	874.18	0.43
0.7978	874.96	0.42
0.8999	875.79	0.42

System: tetrahydrofuran + pentyl ethanoate; phases: Liquid
Fixed: Temperature, K = 303.15
Fixed: Pressure, kPa = 101.3
Property: Viscosity, Pa*s (Liquid); method: CAPTUB:UFactor:2
Mole fraction of tetrahydrofuran	Viscosity, Pa*s	uncertainty
0.1067	0.0007426	9.8e-06
0.298	0.0007005	9.4e-06
0.4997	0.0006373	8.8e-06
0.6997	0.0005686	8.2e-06
0.9027	0.0004829	7.4e-06

System: tetrahydrofuran + pentyl ethanoate; phases: Liquid
Fixed: Temperature, K = 303.15
Fixed: Pressure, kPa = 101.3
Property: Refractive index (Na D-line) (Liquid); method: Standard Abbe refractometry
Mole fraction of tetrahydrofuran	Refractive index (Na D-line)	uncertainty
0.1067	1.3967	0.0008
0.298	1.3978	0.0008
0.4997	1.3992	0.0008
0.6997	1.4005	0.0008
0.9027	1.4021	0.0008

System: tetrahydrofuran + pentyl ethanoate; phases: Liquid
Fixed: Temperature, K = 303.15
Fixed: Pressure, kPa = 101.3
Property: Speed of sound, m/s (Liquid); method: Linear variable-path acoustic interferometer
Mole fraction of tetrahydrofuran	Speed of sound, m/s	uncertainty
0.1067	1198	2
0.298	1203	2
0.4997	1212	2
0.6997	1224	2
0.9027	1242	2

System: tetrahydrofuran + pentyl ethanoate; phases: Liquid
Fixed: Temperature, K = 303.15
Fixed: Pressure, kPa = 101.3
Property: Mass density, kg/m3 (Liquid); method: VIBTUB:UFactor:4
Mole fraction of tetrahydrofuran	Mass density, kg/m3	uncertainty
0.1067	867.69	0.44
0.298	868.75	0.44
0.4997	870.25	0.43
0.6997	872.25	0.43
0.9027	875	0.42
