Measured thermophysical data. Thermal conductivities of solid and liquid phases in Pb Cd and Sn Zn binary eutectic alloys
Source: Thermochim. Acta, 2007, 10.1016/j.tca.2007.01.009
Compound 1: lead, Pb, InChI=1S/Pb, purity 99.9%
Compound 2: cadmium, Cd, InChI=1S/Cd, purity 99.9%
Compound 3: tin, Sn, InChI=1S/Sn, purity 99.9%
Compound 4: zinc, Zn, InChI=1S/Zn, purity 99.9%

System: lead + cadmium; phases: Crystal
Fixed: Pressure, kPa = 101
Property: Thermal conductivity, W/m/K (Crystal); method: Hot wire method
Mass fraction of cadmium	Temperature, K	Thermal conductivity, W/m/K	uncertainty
0.033	323.15	38.36	0.58
0.033	373.15	35.94	0.54
0.033	423.15	30.79	0.46
0.033	473.15	30.37	0.46
0.033	513.15	27.68	0.42
0.174	323.15	62.77	0.94
0.174	373.15	53.14	0.8
0.174	423.15	44.49	0.67
0.174	473.15	39.96	0.6
0.174	513.15	37.25	0.56
0.9975	323.15	105.18	1.58
0.9975	373.15	86.06	1.29
0.9975	423.15	71.06	1.07
0.9975	473.15	69.38	1.04
0.9975	513.15	61.22	0.92

System: tin + zinc; phases: Crystal
Fixed: Pressure, kPa = 101
Property: Thermal conductivity, W/m/K (Crystal); method: Hot wire method
Mass fraction of zinc	Temperature, K	Thermal conductivity, W/m/K	uncertainty
0.01	323.15	78.49	1.18
0.01	373.1	73.59	1.1
0.01	423.15	66.89	1
0.01	463.15	71.08	1.07
0.089	323.15	86.39	1.3
0.089	373.1	81.42	1.22
0.089	423.15	79.04	1.19
0.089	463.15	75.42	1.13
