Measured thermophysical data. Intermolecular/interionic interactions in l-leucine-, l-asparagine-, and glycylglycine-aqueous electrolyte systems
Source: Thermochim. Acta, 2006, 10.1016/j.tca.2006.04.004
Compound 1: sodium chloride, ClNa, InChI=1S/ClH.Na/h1H;/q;+1/p-1
Compound 2: sodium nitrate, NNaO3, InChI=1S/NO3.Na/c2-1(3)4;/q-1;+1
Compound 3: potassium nitrate, KNO3, InChI=1S/K.NO3/c;2-1(3)4/q+1;-1
Compound 4: L-leucine, C6H13NO2, InChI=1S/C6H13NO2/c1-4(2)3-5(7)6(8)9/h4-5H,3,7H2,1-2H3,(H,8,9)/t5-/m0/s1
Compound 5: L-asparagine, C4H8N2O3, InChI=1S/C4H8N2O3/c5-2(4(8)9)1-3(6)7/h2H,1,5H2,(H2,6,7)(H,8,9)/t2-/m0/s1
Compound 6: glycylglycine, C4H8N2O3, InChI=1S/C4H8N2O3/c5-1-3(7)6-2-4(8)9/h1-2,5H2,(H,6,7)(H,8,9)
Compound 7: water, H2O, InChI=1S/H2O/h1H2, purity 99.99%

System: water; phases: Liquid
Fixed: Pressure, kPa = 101.325
Property: Speed of sound, m/s (Liquid); method: Linear variable-path acoustic interferometer
Temperature, K	Speed of sound, m/s	uncertainty
298.15	1496.8	1.5
308.15	1519.9	1.6
318.15	1536.4	1.6

System: water; phases: Liquid
Fixed: Pressure, kPa = 101.325
Property: Mass density, kg/m3 (Liquid); method: Pycnometric method
Temperature, K	Mass density, kg/m3	uncertainty
298.15	997.1	0.5
308.15	994.2	0.5
318.15	990.3	0.5
323.15	987.9	0.5

System: sodium chloride + water; phases: Liquid
Fixed: Pressure, kPa = 101
Fixed: Molality, mol/kg of sodium chloride = 1.5
Property: Mass density, kg/m3 (Liquid); method: Pycnometric method
Temperature, K	Mass density, kg/m3	uncertainty
298.15	1058.8	0.6
303.15	1056.1	0.6
308.15	1053.8	0.6
313.15	1051.4	0.6
318.15	1048.8	0.6
323.15	1046.2	0.6

System: sodium nitrate + water; phases: Liquid
Fixed: Pressure, kPa = 101
Fixed: Molality, mol/kg of sodium nitrate = 1.5
Property: Mass density, kg/m3 (Liquid); method: Pycnometric method
Temperature, K	Mass density, kg/m3	uncertainty
298.15	1079.1	0.6
303.15	1076.5	0.6
308.15	1073.5	0.6
313.15	1070.3	0.6
318.15	1067	0.6
323.15	1063.7	0.6

System: water + potassium nitrate; phases: Liquid
Fixed: Pressure, kPa = 101
Fixed: Molality, mol/kg of potassium nitrate = 1.5
Property: Mass density, kg/m3 (Liquid); method: Pycnometric method
Temperature, K	Mass density, kg/m3	uncertainty
298.15	1086.9	0.6
303.15	1085	0.6
308.15	1083	0.6
313.15	1080.6	0.6
318.15	1077.9	0.6
323.15	1075	0.6

System: L-leucine + sodium chloride + water; phases: Liquid
Fixed: Pressure, kPa = 101
Fixed: Solvent: Molality, mol/kg of sodium chloride = 1.5
Property: Mass density, kg/m3 (Liquid); method: Pycnometric method
Temperature, K	Molality, mol/kg of L-leucine	Mass density, kg/m3	uncertainty
298.15	0	1058.8	0.6
298.15	0.0189	1059.1	0.6
298.15	0.0379	1059.4	0.6
298.15	0.057	1059.8	0.6
298.15	0.0762	1060.1	0.6
298.15	0.0955	1060.4	0.6
298.15	0.1148	1060.7	0.6
303.15	0	1056.1	0.6
303.15	0.0189	1056.3	0.6
303.15	0.0379	1056.6	0.6
303.15	0.057	1057	0.6
303.15	0.0762	1057.5	0.6
303.15	0.0955	1057.9	0.6
303.15	0.1148	1058.4	0.6
308.15	0	1053.8	0.6
308.15	0.0189	1054	0.6
308.15	0.0379	1054.3	0.6
308.15	0.057	1054.7	0.6
308.15	0.0762	1055.1	0.6
308.15	0.0955	1055.5	0.6
308.15	0.1148	1055.9	0.6
313.15	0	1051.4	0.6
313.15	0.0189	1051.6	0.6
313.15	0.0379	1051.8	0.6
313.15	0.057	1052.2	0.6
313.15	0.0762	1052.6	0.6
313.15	0.0955	1053	0.6
313.15	0.1148	1053.5	0.6
318.15	0	1048.8	0.6
318.15	0.0189	1049	0.6
318.15	0.0379	1049.2	0.6
318.15	0.057	1049.6	0.6
318.15	0.0762	1050.1	0.6
318.15	0.0955	1050.5	0.6
318.15	0.1148	1050.9	0.6
323.15	0	1046.2	0.6
323.15	0.0189	1046.3	0.6
323.15	0.0379	1046.5	0.6
323.15	0.057	1047	0.6
323.15	0.0762	1047.5	0.6
323.15	0.0955	1047.9	0.6
323.15	0.1148	1048.4	0.6

System: L-leucine + sodium nitrate + water; phases: Liquid
Fixed: Pressure, kPa = 101
Fixed: Solvent: Molality, mol/kg of sodium nitrate = 1.5
Property: Mass density, kg/m3 (Liquid); method: Pycnometric method
Temperature, K	Molality, mol/kg of L-leucine	Mass density, kg/m3	uncertainty
298.15	0	1079.1	0.6
298.15	0.0186	1079.2	0.6
298.15	0.0372	1079.7	0.6
298.15	0.056	1080.1	0.6
298.15	0.0748	1080.6	0.6
298.15	0.0936	1081.1	0.6
298.15	0.1126	1081.5	0.6
303.15	0	1076.5	0.6
303.15	0.0186	1076.7	0.6
303.15	0.0372	1076.9	0.6
303.15	0.056	1077.4	0.6
303.15	0.0748	1077.9	0.6
303.15	0.0936	1078.3	0.6
303.15	0.1126	1078.8	0.6
308.15	0	1073.5	0.6
308.15	0.0186	1073.7	0.6
308.15	0.0372	1073.9	0.6
308.15	0.056	1074.5	0.6
308.15	0.0748	1075	0.6
308.15	0.0936	1075.6	0.6
308.15	0.1126	1076.2	0.6
313.15	0	1070.3	0.6
313.15	0.0186	1070.6	0.6
313.15	0.0372	1070.9	0.6
313.15	0.056	1071.6	0.6
313.15	0.0748	1072.3	0.6
313.15	0.0936	1073	0.6
313.15	0.1126	1073.7	0.6
318.15	0	1067	0.6
318.15	0.0186	1067.5	0.6
318.15	0.0372	1067.8	0.6
318.15	0.056	1068.6	0.6
318.15	0.0748	1069.3	0.6
318.15	0.0936	1070	0.6
318.15	0.1126	1070.8	0.6
323.15	0	1063.7	0.6
323.15	0.0186	1064.2	0.6
323.15	0.0372	1064.7	0.6
323.15	0.056	1065.5	0.6
323.15	0.0748	1066.3	0.6
323.15	0.0936	1067.1	0.6
323.15	0.1126	1067.9	0.6

System: L-leucine + water + potassium nitrate; phases: Liquid
Fixed: Pressure, kPa = 101
Fixed: Solvent: Molality, mol/kg of potassium nitrate = 1.5
Property: Mass density, kg/m3 (Liquid); method: Pycnometric method
Temperature, K	Molality, mol/kg of L-leucine	Mass density, kg/m3	uncertainty
298.15	0	1086.9	0.6
298.15	0.0184	1087.2	0.6
298.15	0.037	1087.5	0.6
298.15	0.0556	1087.6	0.6
298.15	0.0742	1088.1	0.6
298.15	0.093	1088.5	0.6
298.15	0.1118	1089.1	0.6
303.15	0	1085	0.6
303.15	0.0184	1085.2	0.6
303.15	0.037	1085.4	0.6
303.15	0.0556	1085.6	0.6
303.15	0.0742	1085.9	0.6
303.15	0.093	1086.3	0.6
303.15	0.1118	1087.1	0.6
308.15	0	1083	0.6
308.15	0.0184	1083.1	0.6
308.15	0.037	1083.2	0.6
308.15	0.0556	1083.3	0.6
308.15	0.0742	1083.6	0.6
308.15	0.093	1084	0.6
308.15	0.1118	1084.9	0.6
313.15	0	1080.6	0.6
313.15	0.0184	1080.7	0.6
313.15	0.037	1080.8	0.6
313.15	0.0556	1081	0.6
313.15	0.0742	1081.2	0.6
313.15	0.093	1081.6	0.6
313.15	0.1118	1082.4	0.6
318.15	0	1077.9	0.6
318.15	0.0184	1078	0.6
318.15	0.037	1078.1	0.6
318.15	0.0556	1078.2	0.6
318.15	0.0742	1078.5	0.6
318.15	0.093	1078.9	0.6
318.15	0.1118	1079.8	0.6
323.15	0	1075	0.6
323.15	0.0184	1075.1	0.6
323.15	0.037	1075.2	0.6
323.15	0.0556	1075.3	0.6
323.15	0.0742	1075.5	0.6
323.15	0.093	1075.9	0.6
323.15	0.1118	1076.8	0.6

System: L-asparagine + sodium chloride + water; phases: Liquid
Fixed: Pressure, kPa = 101
Fixed: Solvent: Molality, mol/kg of sodium chloride = 1.5
Property: Mass density, kg/m3 (Liquid); method: Pycnometric method
Temperature, K	Molality, mol/kg of L-asparagine	Mass density, kg/m3	uncertainty
298.15	0	1058.8	0.6
298.15	0.0189	1059.6	0.6
298.15	0.0379	1060.6	0.6
298.15	0.057	1061.7	0.6
298.15	0.0761	1062.7	0.6
298.15	0.0953	1063.8	0.6
298.15	0.1146	1064.8	0.6
298.15	0.134	1065.8	0.6
298.15	0.1534	1066.9	0.6
303.15	0	1056.1	0.6
303.15	0.0189	1057.1	0.6
303.15	0.0379	1058.1	0.6
303.15	0.057	1059.1	0.6
303.15	0.0761	1060.1	0.6
303.15	0.0953	1061.1	0.6
303.15	0.1146	1062.1	0.6
303.15	0.134	1063.1	0.6
303.15	0.1534	1064.1	0.6
308.15	0	1053.8	0.6
308.15	0.0189	1054.9	0.6
308.15	0.0379	1055.8	0.6
308.15	0.057	1056.8	0.6
308.15	0.0761	1057.7	0.6
308.15	0.0953	1058.7	0.6
308.15	0.1146	1059.6	0.6
308.15	0.134	1060.6	0.6
308.15	0.1534	1061.5	0.6
313.15	0	1051.4	0.6
313.15	0.0189	1052.5	0.6
313.15	0.0379	1053.4	0.6
313.15	0.057	1054.4	0.6
313.15	0.0761	1055.3	0.6
313.15	0.0953	1056.2	0.6
313.15	0.1146	1057.1	0.6
313.15	0.134	1058	0.6
313.15	0.1534	1059	0.6
318.15	0	1048.8	0.6
318.15	0.0189	1050	0.6
318.15	0.0379	1050.9	0.6
318.15	0.057	1051.8	0.6
318.15	0.0761	1052.7	0.6
318.15	0.0953	1053.6	0.6
318.15	0.1146	1054.5	0.6
318.15	0.134	1055.4	0.6
318.15	0.1534	1056.3	0.6
323.15	0	1046.2	0.6
323.15	0.0189	1047.6	0.6
323.15	0.0379	1048.4	0.6
323.15	0.057	1049.3	0.6
323.15	0.0761	1050.1	0.6
323.15	0.0953	1051	0.6
323.15	0.1146	1051.8	0.6
323.15	0.134	1052.7	0.6
323.15	0.1534	1053.6	0.6

System: L-asparagine + sodium nitrate + water; phases: Liquid
Fixed: Pressure, kPa = 101
Fixed: Solvent: Molality, mol/kg of sodium nitrate = 1.5
Property: Mass density, kg/m3 (Liquid); method: Pycnometric method
Temperature, K	Molality, mol/kg of L-asparagine	Mass density, kg/m3	uncertainty
298.15	0	1079.1	0.6
298.15	0.0186	1079.9	0.6
298.15	0.0372	1080.9	0.6
298.15	0.0559	1081.9	0.6
298.15	0.0747	1082.9	0.6
298.15	0.0936	1083.9	0.6
298.15	0.1125	1084.9	0.6
298.15	0.1315	1085.9	0.6
298.15	0.1505	1086.9	0.6
303.15	0	1076.5	0.6
303.15	0.0186	1077.2	0.6
303.15	0.0372	1078.1	0.6
303.15	0.0559	1079	0.6
303.15	0.0747	1079.9	0.6
303.15	0.0936	1080.9	0.6
303.15	0.1125	1081.8	0.6
303.15	0.1315	1082.7	0.6
303.15	0.1505	1083.6	0.6
308.15	0	1073.5	0.6
308.15	0.0186	1074.2	0.6
308.15	0.0372	1075.1	0.6
308.15	0.0559	1076	0.6
308.15	0.0747	1076.9	0.6
308.15	0.0936	1077.8	0.6
308.15	0.1125	1078.7	0.6
308.15	0.1315	1079.6	0.6
308.15	0.1505	1080.5	0.6
313.15	0	1070.3	0.6
313.15	0.0186	1071	0.6
313.15	0.0372	1071.9	0.6
313.15	0.0559	1072.8	0.6
313.15	0.0747	1073.7	0.6
313.15	0.0936	1074.6	0.6
313.15	0.1125	1075.5	0.6
313.15	0.1315	1076.4	0.6
313.15	0.1505	1077.3	0.6
318.15	0	1067	0.6
318.15	0.0186	1067.8	0.6
318.15	0.0372	1068.8	0.6
318.15	0.0559	1069.8	0.6
318.15	0.0747	1070.8	0.6
318.15	0.0936	1071.7	0.6
318.15	0.1125	1072.7	0.6
318.15	0.1315	1073.7	0.6
318.15	0.1505	1074.6	0.6
323.15	0	1063.7	0.6
323.15	0.0186	1064.7	0.6
323.15	0.0372	1065.6	0.6
323.15	0.0559	1066.6	0.6
323.15	0.0747	1067.6	0.6
323.15	0.0936	1068.5	0.6
323.15	0.1125	1069.5	0.6
323.15	0.1315	1070.4	0.6
323.15	0.1505	1071.4	0.6

System: L-asparagine + water + potassium nitrate; phases: Liquid
Fixed: Pressure, kPa = 101
Fixed: Solvent: Molality, mol/kg of potassium nitrate = 1.5
Property: Mass density, kg/m3 (Liquid); method: Pycnometric method
Temperature, K	Molality, mol/kg of L-asparagine	Mass density, kg/m3	uncertainty
298.15	0	1086.9	1.1
298.15	0.0184	1087.2	1.1
298.15	0.0369	1088.7	1.1
298.15	0.0555	1090.2	1.1
298.15	0.0741	1091.6	1.1
298.15	0.0928	1093.1	1.1
298.15	0.1115	1094.6	1.1
298.15	0.1302	1096.1	1.1
298.15	0.149	1097.5	1.1
303.15	0	1085	1.1
303.15	0.0184	1085.3	1.1
303.15	0.0369	1086.6	1.1
303.15	0.0555	1087.9	1.1
303.15	0.0741	1089.3	1.1
303.15	0.0928	1090.7	1.1
303.15	0.1115	1092	1.1
303.15	0.1302	1093.4	1.1
303.15	0.149	1094.7	1.1
308.15	0	1083	1.1
308.15	0.0184	1083.2	1.1
308.15	0.0369	1084.5	1.1
308.15	0.0555	1085.7	1.1
308.15	0.0741	1087	1.1
308.15	0.0928	1088.3	1.1
308.15	0.1115	1089.6	1.1
308.15	0.1302	1090.8	1.1
308.15	0.149	1092.1	1.1
313.15	0	1080.6	1.1
313.15	0.0184	1081	1.1
313.15	0.0369	1082.1	1.1
313.15	0.0555	1083.3	1.1
313.15	0.0741	1084.4	1.1
313.15	0.0928	1085.6	1.1
313.15	0.1115	1086.7	1.1
313.15	0.1302	1087.8	1.1
313.15	0.149	1089	1.1
318.15	0	1077.9	1.1
318.15	0.0184	1078.4	1.1
318.15	0.0369	1079.5	1.1
318.15	0.0555	1080.6	1.1
318.15	0.0741	1081.6	1.1
318.15	0.0928	1082.7	1.1
318.15	0.1115	1083.8	1.1
318.15	0.1302	1084.7	1.1
318.15	0.149	1086	1.1
323.15	0	1075	1.1
323.15	0.0184	1075.7	1.1
323.15	0.0369	1076.9	1.1
323.15	0.0555	1078.1	1.1
323.15	0.0741	1079.3	1.1
323.15	0.0928	1080.5	1.1
323.15	0.1115	1081.7	1.1
323.15	0.1302	1082.9	1.1
323.15	0.149	1084.1	1.1

System: glycylglycine + sodium chloride + water; phases: Liquid
Fixed: Pressure, kPa = 101
Fixed: Solvent: Molality, mol/kg of sodium chloride = 1.5
Property: Mass density, kg/m3 (Liquid); method: Pycnometric method
Temperature, K	Molality, mol/kg of glycylglycine	Mass density, kg/m3	uncertainty
298.15	0	1058.8	0.6
298.15	0.0189	1059.7	0.6
298.15	0.0379	1060.5	0.6
298.15	0.057	1061.2	0.6
298.15	0.0761	1062	0.6
298.15	0.0953	1062.7	0.6
298.15	0.1145	1063.5	0.6
298.15	0.1339	1064.2	0.6
298.15	0.1533	1065	0.6
303.15	0	1056.1	0.6
303.15	0.0189	1057.2	0.6
303.15	0.0379	1058.1	0.6
303.15	0.057	1058.9	0.6
303.15	0.0761	1059.8	0.6
303.15	0.0953	1060.6	0.6
303.15	0.1145	1061.5	0.6
303.15	0.1339	1062.4	0.6
303.15	0.1533	1063.2	0.6
308.15	0	1053.8	0.6
308.15	0.0189	1054.9	0.6
308.15	0.0379	1055.8	0.6
308.15	0.057	1056.6	0.6
308.15	0.0761	1057.6	0.6
308.15	0.0953	1058.3	0.6
308.15	0.1145	1059.2	0.6
308.15	0.1339	1060	0.6
308.15	0.1533	1060.9	0.6
313.15	0	1051.4	0.6
313.15	0.0189	1052.4	0.6
313.15	0.0379	1053.3	0.6
313.15	0.057	1054.1	0.6
313.15	0.0761	1054.9	0.6
313.15	0.0953	1055.7	0.6
313.15	0.1145	1056.6	0.6
313.15	0.1339	1057.4	0.6
313.15	0.1533	1058.2	0.6
318.15	0	1048.8	0.6
318.15	0.0189	1049.8	0.6
318.15	0.0379	1050.5	0.6
318.15	0.057	1051.3	0.6
318.15	0.0761	1052.1	0.6
318.15	0.0953	1052.8	0.6
318.15	0.1145	1053.6	0.6
318.15	0.1339	1054.4	0.6
318.15	0.1533	1055.2	0.6
323.15	0	1046.2	0.6
323.15	0.0189	1046.8	0.6
323.15	0.0379	1047.5	0.6
323.15	0.057	1048.2	0.6
323.15	0.0761	1048.9	0.6
323.15	0.0953	1049.6	0.6
323.15	0.1145	1050.3	0.6
323.15	0.1339	1051	0.6
323.15	0.1533	1051.7	0.6

System: glycylglycine + sodium nitrate + water; phases: Liquid
Fixed: Pressure, kPa = 101
Fixed: Solvent: Molality, mol/kg of sodium nitrate = 1.5
Property: Mass density, kg/m3 (Liquid); method: Pycnometric method
Temperature, K	Molality, mol/kg of glycylglycine	Mass density, kg/m3	uncertainty
298.15	0	1079.1	0.6
298.15	0.0186	1080.4	0.6
298.15	0.0372	1081	0.6
298.15	0.0559	1081.7	0.6
298.15	0.0746	1082.3	0.6
298.15	0.0935	1083	0.6
298.15	0.1124	1083.6	0.6
298.15	0.1314	1084.3	0.6
298.15	0.1504	1084.9	0.6
303.15	0	1076.5	0.6
303.15	0.0186	1077.8	0.6
303.15	0.0372	1078.4	0.6
303.15	0.0559	1079	0.6
303.15	0.0746	1079.6	0.6
303.15	0.0935	1080.2	0.6
303.15	0.1124	1080.8	0.6
303.15	0.1314	1081.4	0.6
303.15	0.1504	1082	0.6
308.15	0	1073.5	0.6
308.15	0.0186	1074.9	0.6
308.15	0.0372	1075.5	0.6
308.15	0.0559	1076	0.6
308.15	0.0746	1076.6	0.6
308.15	0.0935	1077.2	0.6
308.15	0.1124	1077.7	0.6
308.15	0.1314	1078.3	0.6
308.15	0.1504	1078.9	0.6
313.15	0	1070.3	0.6
313.15	0.0186	1071.8	0.6
313.15	0.0372	1072.4	0.6
313.15	0.0559	1073	0.6
313.15	0.0746	1073.5	0.6
313.15	0.0935	1074.1	0.6
313.15	0.1124	1074.7	0.6
313.15	0.1314	1075.3	0.6
313.15	0.1504	1075.9	0.6
318.15	0	1067	0.6
318.15	0.0186	1068	0.6
318.15	0.0372	1069.2	0.6
318.15	0.0559	1069.8	0.6
318.15	0.0746	1070.4	0.6
318.15	0.0935	1071	0.6
318.15	0.1124	1071.6	0.6
318.15	0.1314	1072.2	0.6
318.15	0.1504	1072.9	0.6
323.15	0	1063.7	0.6
323.15	0.0186	1065.1	0.6
323.15	0.0372	1065.7	0.6
323.15	0.0559	1066.4	0.6
323.15	0.0746	1067	0.6
323.15	0.0935	1067.7	0.6
323.15	0.1124	1068.3	0.6
323.15	0.1314	1068.9	0.6
323.15	0.1504	1069.6	0.6

System: glycylglycine + water + potassium nitrate; phases: Liquid
Fixed: Pressure, kPa = 101
Fixed: Solvent: Molality, mol/kg of potassium nitrate = 1.5
Property: Mass density, kg/m3 (Liquid); method: Pycnometric method
Temperature, K	Molality, mol/kg of glycylglycine	Mass density, kg/m3	uncertainty
298.15	0	1086.9	0.6
298.15	0.0184	1088.3	0.6
298.15	0.0369	1088.8	0.6
298.15	0.0555	1089.3	0.6
298.15	0.0741	1089.9	0.6
298.15	0.0928	1090.4	0.6
298.15	0.1116	1090.9	0.6
298.15	0.1305	1091.4	0.6
298.15	0.1494	1092	0.6
303.15	0	1085	0.6
303.15	0.0184	1085.9	0.6
303.15	0.0369	1086.3	0.6
303.15	0.0555	1086.7	0.6
303.15	0.0741	1087.1	0.6
303.15	0.0928	1087.2	0.6
303.15	0.1116	1087.8	0.6
303.15	0.1305	1088.2	0.6
303.15	0.1494	1088.6	0.6
308.15	0	1083	0.6
308.15	0.0184	1083.7	0.6
308.15	0.0369	1084	0.6
308.15	0.0555	1084.4	0.6
308.15	0.0741	1084.8	0.6
308.15	0.0928	1085.1	0.6
308.15	0.1116	1085.5	0.6
308.15	0.1305	1085.8	0.6
308.15	0.1494	1086.2	0.6
313.15	0	1080.6	0.6
313.15	0.0184	1081.1	0.6
313.15	0.0369	1081.5	0.6
313.15	0.0555	1081.8	0.6
313.15	0.0741	1082.2	0.6
313.15	0.0928	1082.5	0.6
313.15	0.1116	1082.8	0.6
313.15	0.1305	1083.2	0.6
313.15	0.1494	1083.5	0.6
318.15	0	1077.9	0.6
318.15	0.0184	1078.2	0.6
318.15	0.0369	1078.5	0.6
318.15	0.0555	1078.8	0.6
318.15	0.0741	1079.2	0.6
318.15	0.0928	1079.5	0.6
318.15	0.1116	1079.8	0.6
318.15	0.1305	1080.2	0.6
318.15	0.1494	1080.5	0.6
323.15	0	1075	0.6
323.15	0.0184	1075.1	0.6
323.15	0.0369	1075.4	0.6
323.15	0.0555	1075.7	0.6
323.15	0.0741	1076	0.6
323.15	0.0928	1076.4	0.6
323.15	0.1116	1076.7	0.6
323.15	0.1305	1077	0.6
323.15	0.1494	1077.3	0.6
