Measured thermophysical data. Examination of enthalpies of mixing in liquid gallium yttrium alloys by high-temperature calorimetry
Source: Thermochim. Acta, 2005, 10.1016/j.tca.2005.06.015
Compound 1: gallium, Ga, InChI=1S/Ga
Compound 2: yttrium, Y, InChI=1S/Y

System: gallium + yttrium; phases: Liquid
Fixed: Temperature, K = 1750
Fixed: Pressure, kPa = 101
Property: Partial molar enthalpy, kJ/mol of yttrium (Liquid); method: Drop calorimetry
Mole fraction of yttrium	Partial molar enthalpy, kJ/mol of yttrium	uncertainty
0.0029	-197.64	10
0.0052	-207.66	10
0.0098	-161.69	10
0.0159	-186.71	10
0.0179	-182.11	10
0.0264	-204.58	10
0.0273	-177	10
0.0354	-187.65	10
0.039	-206.33	10
0.0453	-182.78	10
0.0509	-205.59	10
0.0558	-168.85	10
0.063	-191.27	10
0.0661	-178.72	10
0.0751	-195	10
0.0766	-193.67	10
0.0876	-193.52	10
0.0882	-202.88	10
0.0989	-179	10
0.1028	-201.19	10
0.1103	-184.08	10
0.1184	-190.01	10
0.122	-205.01	10
0.1338	-198.32	10
0.1343	-188.55	10
0.1457	-185.45	10
0.1492	-194.86	10
0.1579	-195.55	10
0.1634	-178.85	10
0.1707	-187.04	10
0.1774	-204.83	10
0.1847	-199	10
0.1911	-194.12	10
0.1997	-182.15	10
0.2045	-202.24	10
0.2143	-190.71	10
0.2177	-193.69	10
0.2287	-200.39	10
0.2309	-184.66	10
0.243	-174.1	10
0.2443	-192.01	10
0.257	-187.4	10
0.2577	-186.33	10
0.2711	-196.87	10
0.2711	-164.99	10
0.2848	-156.29	10
0.2851	-167.07	10
0.2996	-172.21	10
0.3	-155.06	10
0.3149	-158.71	10
0.3156	-173.28	10
0.3298	-151.23	10
0.3312	-146.85	10
0.3465	-130.79	10
0.3613	-133.99	10
0.3758	-115.41	10
0.3902	-95.63	10
0.4044	-89.91	10
0.4184	-90.73	10
0.432	-71.18	10
0.4456	-59.31	10
0.4597	-53.75	10
0.4738	-49.97	10
0.4874	-29.58	10
0.5007	-15.33	10
0.5142	-8.69	10
0.528	-20.35	10
0.5418	-2.06	10
0.5552	-15.24	10
0.569	-12.78	10
0.5831	-5.99	10
0.5965	0.12	10
