Measured thermophysical data. Adducts of antimony tri-iodide and aromatic amines: A calorimetric study
Source: Thermochim. Acta, 2007, 10.1016/j.tca.2007.02.007
Compound 1: pyridine, C5H5N, InChI=1S/C5H5N/c1-2-4-6-5-3-1/h1-5H
Compound 2: antimony iodide (SbI3), I3Sb, InChI=1S/3HI.Sb/h3*1H;/q;;;+3/p-3, purity 99%
Compound 3: 2-methylpyridine, C6H7N, InChI=1S/C6H7N/c1-6-4-2-3-5-7-6/h2-5H,1H3
Compound 4: 3-methylpyridine, C6H7N, InChI=1S/C6H7N/c1-6-3-2-4-7-5-6/h2-5H,1H3
Compound 5: 4-methylpyridine, C6H7N, InChI=1S/C6H7N/c1-6-2-4-7-5-3-6/h2-5H,1H3
Compound 6: triiodoantimony pyridine compound, C5H5I3NSb, InChI=1S/C5H5N.3HI.Sb/c1-2-4-6-5-3-1;;;;/h1-5H;3*1H;/q;;;;+3/p-3, purity 99%
Compound 7: triiodoantimony 2-methylpyridine compound, C6H7I3NSb, InChI=1S/C6H7N.3HI.Sb/c1-6-4-2-3-5-7-6;;;;/h2-5H,1H3;3*1H;/q;;;;+3/p-3, purity 99%
Compound 8: triiodoantimony 3-methylpyridine compound, C6H7I3NSb, InChI=1S/C6H7N.3HI.Sb/c1-6-3-2-4-7-5-6;;;;/h2-5H,1H3;3*1H;/q;;;;+3/p-3, purity 99%
Compound 9: triiodo(4-methylpyridine)antimony, C6H7I3NSb, InChI=1S/C6H7N.3HI.Sb/c1-6-2-4-7-5-3-6;;;;/h2-5H,1H3;3*1H;/q;;;;+3/p-3, purity 99%
Compound 10: 2-ethoxyethan-1-ol, C4H10O2, InChI=1S/C4H10O2/c1-2-6-4-3-5/h5H,2-4H2,1H3, purity 99%

System: 2-ethoxyethan-1-ol + antimony iodide (SbI3); phases: Liquid
Property: Molar enthalpy of solution, kJ/mol (Liquid); method: ISOPERIBOL
Mole fraction of antimony iodide (SbI3)	Temperature, K	Pressure, kPa	Molar enthalpy of solution, kJ/mol	uncertainty
0	298.15	101	-15.88	1.75

System: 2-ethoxyethan-1-ol + pyridine; phases: Liquid
Property: Molar enthalpy of solution, kJ/mol (Liquid); method: ISOPERIBOL
Mole fraction of pyridine	Temperature, K	Pressure, kPa	Molar enthalpy of solution, kJ/mol	uncertainty
0	298.15	101	-48.91	3.22

System: 2-methylpyridine + 2-ethoxyethan-1-ol; phases: Liquid
Property: Molar enthalpy of solution, kJ/mol (Liquid); method: ISOPERIBOL
Mole fraction of 2-methylpyridine	Temperature, K	Pressure, kPa	Molar enthalpy of solution, kJ/mol	uncertainty
0	298.15	101	-62.5	2.64

System: 3-methylpyridine + 2-ethoxyethan-1-ol; phases: Liquid
Property: Molar enthalpy of solution, kJ/mol (Liquid); method: ISOPERIBOL
Mole fraction of 3-methylpyridine	Temperature, K	Pressure, kPa	Molar enthalpy of solution, kJ/mol	uncertainty
0	298.15	101	-48.02	0.94

System: 4-methylpyridine + 2-ethoxyethan-1-ol; phases: Liquid
Property: Molar enthalpy of solution, kJ/mol (Liquid); method: ISOPERIBOL
Mole fraction of 4-methylpyridine	Temperature, K	Pressure, kPa	Molar enthalpy of solution, kJ/mol	uncertainty
0	298.15	101	-54.44	1.75

Reaction: -1 pyridine + -1 antimony iodide (SbI3) + 1 triiodoantimony pyridine compound
Property: Molar enthalpy of reaction, kJ/mol
-61.13

Reaction: -1 2-methylpyridine + -1 antimony iodide (SbI3) + 1 triiodoantimony 2-methylpyridine compound
Property: Molar enthalpy of reaction, kJ/mol
-82.6

Reaction: -1 3-methylpyridine + -1 antimony iodide (SbI3) + 1 triiodoantimony 3-methylpyridine compound
Property: Molar enthalpy of reaction, kJ/mol
-67.5

Reaction: -1 4-methylpyridine + -1 antimony iodide (SbI3) + 1 triiodo(4-methylpyridine)antimony
Property: Molar enthalpy of reaction, kJ/mol
-74.1
