Measured thermophysical data. Differential scanning calorimetry determination of phase diagrams and water activities of aqueous carboxylic acid solutions
Source: Thermochim. Acta, 2018, 10.1016/j.tca.2018.03.002
Compound 1: formic acid, CH2O2, InChI=1S/CH2O2/c2-1-3/h1H,(H,2,3), purity 99%
Compound 2: acetic acid, C2H4O2, InChI=1S/C2H4O2/c1-2(3)4/h1H3,(H,3,4), purity 99%
Compound 3: propanoic acid, C3H6O2, InChI=1S/C3H6O2/c1-2-3(4)5/h2H2,1H3,(H,4,5), purity 99%
Compound 4: butanoic acid, C4H8O2, InChI=1S/C4H8O2/c1-2-3-4(5)6/h2-3H2,1H3,(H,5,6), purity 99%
Compound 5: water, H2O, InChI=1S/H2O/h1H2

System: formic acid; phases: Crystal, Liquid, Air at 1 atmosphere
Property: Normal melting temperature, K (Crystal); method: DTA
Normal melting temperature, K	uncertainty
282.85	8.01

System: acetic acid; phases: Crystal, Liquid, Air at 1 atmosphere
Property: Normal melting temperature, K (Crystal); method: DTA
Normal melting temperature, K	uncertainty
289.95	6.01

System: propanoic acid; phases: Crystal, Liquid, Air at 1 atmosphere
Property: Normal melting temperature, K (Crystal); method: DTA
Normal melting temperature, K	uncertainty
251.95	2.03

System: butanoic acid; phases: Crystal, Liquid, Air at 1 atmosphere
Property: Normal melting temperature, K (Crystal); method: DTA
Normal melting temperature, K	uncertainty
268.65	4.02

System: water; phases: Crystal, Liquid, Air at 1 atmosphere
Property: Normal melting temperature, K (Crystal); method: DTA
Normal melting temperature, K	uncertainty
273.15	2.03

System: water + formic acid; phases: Liquid, Crystal, Crystal, Air at 1 atmosphere
Property: Eutectic temperature, K (Liquid); method: DTA
Eutectic temperature, K	uncertainty
221.66	2.03

System: water + formic acid; phases: Liquid, Crystal
Fixed: Pressure, kPa = 84.5
Property: Solid-liquid equilibrium temperature, K (Liquid); method: DTA
Mole fraction of formic acid	Solid-liquid equilibrium temperature, K	uncertainty
0.972	282.85	2.05
0.916	274.65	2.04
0.795	263.05	2.04
0.687	254.25	2.04
0.617	247.15	2.04
0.565	240.65	2.04
0.507	235.65	2.04
0.441	231.15	2.04

System: water + formic acid; phases: Liquid, Crystal
Fixed: Pressure, kPa = 84.5
Property: Solid-liquid equilibrium temperature, K (Liquid); method: DTA
Mole fraction of formic acid	Solid-liquid equilibrium temperature, K	uncertainty
0.315	229.25	2.05
0.255	238.55	2.05
0.198	247.45	2.05
0.129	256.85	2.05
0.051	267.65	2.05
0	273.15	2.03

System: water + acetic acid; phases: Liquid, Crystal, Crystal, Air at 1 atmosphere
Property: Eutectic temperature, K (Liquid); method: DTA
Eutectic temperature, K	uncertainty
245.28	2.03

System: water + acetic acid; phases: Liquid, Crystal
Fixed: Pressure, kPa = 84.5
Property: Solid-liquid equilibrium temperature, K (Liquid); method: DTA
Mole fraction of acetic acid	Solid-liquid equilibrium temperature, K	uncertainty
0.971	289.95	2.03
0.922	287.75	2.03
0.858	283.25	2.03
0.789	280.25	2.03
0.741	278.25	2.03
0.693	275.15	2.03
0.592	269.75	2.03
0.535	265.25	2.04
0.385	254.95	2.04
0.283	245.4	2.04

System: water + acetic acid; phases: Liquid, Crystal
Fixed: Pressure, kPa = 84.5
Property: Solid-liquid equilibrium temperature, K (Liquid); method: DTA
Mole fraction of acetic acid	Solid-liquid equilibrium temperature, K	uncertainty
0.227	249.25	2.04
0.178	253.75	2.04
0.128	259.05	2.04
0.1	261.45	2.04
0.066	265.75	2.04
0.028	269.65	2.04
0	273.15	2.03

System: water + propanoic acid; phases: Liquid, Crystal, Crystal, Air at 1 atmosphere
Property: Eutectic temperature, K (Liquid); method: DTA
Eutectic temperature, K	uncertainty
244.37	2.03

System: water + propanoic acid; phases: Liquid, Crystal
Fixed: Pressure, kPa = 84.5
Property: Solid-liquid equilibrium temperature, K (Liquid); method: DTA
Mole fraction of propanoic acid	Solid-liquid equilibrium temperature, K	uncertainty
0.995	251.95	2.03
0.926	251.45	2.03
0.873	250.45	2.03
0.803	249.25	2.03
0.73	248.15	2.03
0.678	247.05	2.03
0.628	244.39	2.03

System: water + propanoic acid; phases: Liquid, Crystal
Fixed: Pressure, kPa = 84.5
Property: Solid-liquid equilibrium temperature, K (Liquid); method: DTA
Mole fraction of propanoic acid	Solid-liquid equilibrium temperature, K	uncertainty
0.517	246.65	2.03
0.454	248.45	2.03
0.396	250.85	2.03
0.329	254.05	2.03
0.261	257.85	2.03
0.199	260.75	2.03
0.131	263.65	2.03
0.07	267.05	2.04
0	273.15	2.03

System: water + butanoic acid; phases: Liquid, Crystal, Crystal, Air at 1 atmosphere
Property: Eutectic temperature, K (Liquid); method: DTA
Eutectic temperature, K	uncertainty
259.83	2.03

System: water + butanoic acid; phases: Liquid, Crystal
Fixed: Pressure, kPa = 84.5
Property: Solid-liquid equilibrium temperature, K (Liquid); method: DTA
Mole fraction of butanoic acid	Solid-liquid equilibrium temperature, K	uncertainty
0.979	268.65	2.03
0.913	266.15	2.03
0.851	265.35	2.03
0.811	263.85	2.03
0.763	263.15	2.03
0.712	261.55	2.03

System: water + butanoic acid; phases: Liquid, Crystal
Fixed: Pressure, kPa = 84.5
Property: Solid-liquid equilibrium temperature, K (Liquid); method: DTA
Mole fraction of butanoic acid	Solid-liquid equilibrium temperature, K	uncertainty
0.616	260.85	2.03
0.542	261.25	2.03
0.501	262.05	2.03
0.442	263.55	2.03
0.409	264.05	2.03
0.345	265.75	2.03
0.273	267.25	2.03
0.232	268.05	2.03
0.167	269.15	2.03
0.119	269.95	2.03
0.049	271.65	2.03
0	273.15	2.03
