Measured thermophysical data. Heat capacity of NaNO2
Source: Thermochim. Acta, 2009, 10.1016/j.tca.2009.03.005
Compound 1: sodium nitrite, NNaO2, InChI=1S/HNO2.Na/c2-1-3;/h(H,2,3);/q;+1/p-1, purity 99.8%

System: sodium nitrite; phases: Crystal 2, Crystal 1, Liquid
Property: Molar enthalpy of transition or fusion, kJ/mol (Crystal 2); method: DSC
Molar enthalpy of transition or fusion, kJ/mol	uncertainty
13.9	0.4

System: sodium nitrite; phases: Crystal 3, Crystal 2, Air at 1 atmosphere
Property: Triple point temperature, K (Crystal 3); method: DTA
Triple point temperature, K	uncertainty
437.2	0.4

System: sodium nitrite; phases: Crystal 2, Crystal 1, Air at 1 atmosphere
Property: Triple point temperature, K (Crystal 2); method: DTA
Triple point temperature, K	uncertainty
438.7	0.4

System: sodium nitrite; phases: Crystal 1, Liquid, Air at 1 atmosphere
Property: Normal melting temperature, K (Crystal 1); method: DTA
Normal melting temperature, K	uncertainty
553.2	0.5

System: sodium nitrite; phases: Crystal 2
Fixed: Pressure, kPa = 101.325
Property: Molar heat capacity at constant pressure, J/K/mol (Crystal 2); method: Small sample (50 mg) DSC
Temperature, K	Molar heat capacity at constant pressure, J/K/mol	uncertainty
437.25	215.4	11.3
437.35	213.7	11.2
437.45	213.5	11.2
437.55	213.7	11.2
437.75	215.5	11.3
437.85	217.1	11.4
437.95	220.4	11.5
438.05	223.4	11.7
438.15	223.6	11.7

System: sodium nitrite; phases: Crystal 1
Fixed: Pressure, kPa = 101.325
Property: Molar heat capacity at constant pressure, J/K/mol (Crystal 1); method: Small sample (50 mg) DSC
Temperature, K	Molar heat capacity at constant pressure, J/K/mol	uncertainty
468.15	129	6.7
473.15	129.8	6.8
478.15	130.8	6.8
483.15	131.9	6.9
488.15	133.2	7
493.15	134.7	7
498.15	136	7.1
503.15	137.8	7.2
508.15	140	7.3
513.15	142.4	7.5
518.15	145.2	7.6
521.15	147.7	7.7
522.15	148.5	7.8
523.15	148.9	7.8
524.15	149.8	7.8
525.15	150.9	7.9
526.15	152	8
527.15	153	8
528.15	153.2	8
529.15	155	8.1
530.15	156	8.2
531.15	157.5	8.2
532.15	158.7	8.3
533.15	160.2	8.4
534.15	161.8	8.5
535.15	163.1	8.5
536.15	165.7	8.7
537.15	168	8.8
538.15	169.8	8.9
539.15	173.2	9.1
540.15	176.4	9.2

System: sodium nitrite; phases: Liquid
Fixed: Pressure, kPa = 101.325
Property: Molar heat capacity at constant pressure, J/K/mol (Liquid); method: Small sample (50 mg) DSC
Temperature, K	Molar heat capacity at constant pressure, J/K/mol	uncertainty
562.15	116.8	6.1
563.15	110	5.8
564.15	110.2	5.8
565.15	109.9	5.8
566.15	110.2	5.8
568.15	110.9	5.8
573.15	111.9	5.9
578.15	112.3	5.9
583.15	112.6	5.9

System: sodium nitrite; phases: Crystal 3
Fixed: Pressure, kPa = 101.325
Property: Molar heat capacity at constant pressure, J/K/mol (Crystal 3); method: Large sample (1 g) DSC
Temperature, K	Molar heat capacity at constant pressure, J/K/mol	uncertainty
303.15	85.3	4.2
323.15	89.3	4.4
343.15	94.1	4.6
363.15	99.9	4.9
383.15	107.8	5.3
403.15	119.3	5.9

System: sodium nitrite; phases: Crystal 1
Fixed: Pressure, kPa = 101.325
Property: Molar heat capacity at constant pressure, J/K/mol (Crystal 1); method: Large sample (1 g) DSC
Temperature, K	Molar heat capacity at constant pressure, J/K/mol	uncertainty
483.15	131.6	6.5
503.15	138.7	6.8
523.15	148.8	7.3
533.15	161.2	7.9

System: sodium nitrite; phases: Crystal 3
Fixed: Pressure, kPa = 101.325
Property: Molar heat capacity at constant pressure, J/K/mol (Crystal 3); method: Small sample (50 mg) DSC
Temperature, K	Molar heat capacity at constant pressure, J/K/mol	uncertainty
273.15	85.2	5.2
278.15	85.3	5.2
283.15	86	5
288.15	86.6	5.2
293.15	87.3	5.2
298.15	88.1	5.2
303.15	88.8	5.2
308.15	90.1	5.2
313.15	90.8	5.2
318.15	91.8	5.2
323.15	92.8	5.2
328.15	94	5
333.15	95.3	5.2
338.15	96.7	5.2
343.15	98	5
348.15	99.8	5.2
353.15	101.3	5.2
358.15	102.5	5.2
363.15	103.5	5.2
368.15	106.2	5.3
373.15	108.2	5.3
378.15	109.9	5.3
383.15	111.6	5.3
388.15	115.3	5.3
393.15	118.2	5.3
398.15	121.5	5.3
403.15	124.4	5.3
408.15	130	6
413.15	135.6	5.8
418.15	142.7	6.1
419.15	144.39	6.13
420.15	146.16	6.2
421.15	148.05	6.28
422.15	150.11	6.37
423.15	152.4	6.5
424.15	154.72	6.56
425.15	157.33	6.68
426.15	160.25	6.8
427.15	163.31	6.93
428.15	166.7	7.1
429.15	170.6	7.2
430.15	175.1	7.4
431.15	180.4	7.7
