Measured thermophysical data. Thermochemistry of adducts of some bivalent transition metal bromides with 4-chloroaniline
Source: Thermochim. Acta, 2006, 10.1016/j.tca.2006.05.022
Compound 1: 4-chlorobenzenamine, C6H6ClN, InChI=1S/C6H6ClN/c7-5-1-3-6(8)4-2-5/h1-4H,8H2
Compound 2: dibromoiron, Br2Fe, InChI=1S/2BrH.Fe/h2*1H;/q;;+2/p-2
Compound 3: manganese(II) bromide, Br2Mn, InChI=1S/2BrH.Mn/h2*1H;/q;;+2/p-2
Compound 4: cobalt(II) bromide, Br2Co, InChI=1S/2BrH.Co/h2*1H;/q;;+2/p-2
Compound 5: nickel bromide, Br2Ni, InChI=1S/2BrH.Ni/h2*1H;/q;;+2/p-2
Compound 6: copper dibromide, Br2Cu, InChI=1S/2BrH.Cu/h2*1H;/q;;+2/p-2
Compound 7: zinc bromide, Br2Zn, InChI=1S/2BrH.Zn/h2*1H;/q;;+2/p-2
Compound 8: manganese dibromide bis-p-chloroaniline, C12H12Br2Cl2MnN2, InChI=1S/2C6H6ClN.2BrH.Mn/c2*7-5-1-3-6(8)4-2-5;;;/h2*1-4H,8H2;2*1H;/q;;;;+2/p-2
Compound 9: iron dibromide bis-p-chloroaniline, C12H12Br2Cl2FeN2, InChI=1S/2C6H6ClN.2BrH.Fe/c2*7-5-1-3-6(8)4-2-5;;;/h2*1-4H,8H2;2*1H;/q;;;;+2/p-2
Compound 10: cobalt dibromide bis-p-chloroaniline, C12H12Br2Cl2CoN2, InChI=1S/2C6H6ClN.2BrH.Co/c2*7-5-1-3-6(8)4-2-5;;;/h2*1-4H,8H2;2*1H;/q;;;;+2/p-2
Compound 11: nickel dibromide bis-p-chloroaniline, C12H12Br2Cl2N2Ni, InChI=1S/2C6H6ClN.2BrH.Ni/c2*7-5-1-3-6(8)4-2-5;;;/h2*1-4H,8H2;2*1H;/q;;;;+2/p-2
Compound 12: copper dibromide bis-p-chloroaniline, C12H12Br2Cl2CuN2, InChI=1S/2C6H6ClN.2BrH.Cu/c2*7-5-1-3-6(8)4-2-5;;;/h2*1-4H,8H2;2*1H;/q;;;;+2/p-2
Compound 13: dibromobis(4-chlorobenzenamine)zinc, C12H12Br2Cl2N2Zn, InChI=1S/2C6H6ClN.2BrH.Zn/c2*7-5-1-3-6(8)4-2-5;;;/h2*1-4H,8H2;2*1H;/q;;;;+2/p-2

Reaction: -2 4-chlorobenzenamine + -1 dibromoiron + 1 iron dibromide bis-p-chloroaniline
Property: Molar enthalpy of reaction, kJ/mol
-71.64

Reaction: -2 4-chlorobenzenamine + -1 manganese(II) bromide + 1 manganese dibromide bis-p-chloroaniline
Property: Molar enthalpy of reaction, kJ/mol
-44.27

Reaction: -2 4-chlorobenzenamine + -1 cobalt(II) bromide + 1 cobalt dibromide bis-p-chloroaniline
Property: Molar enthalpy of reaction, kJ/mol
-56.45

Reaction: -2 4-chlorobenzenamine + -1 nickel bromide + 1 nickel dibromide bis-p-chloroaniline
Property: Molar enthalpy of reaction, kJ/mol
-60.17

Reaction: -2 4-chlorobenzenamine + -1 copper dibromide + 1 copper dibromide bis-p-chloroaniline
Property: Molar enthalpy of reaction, kJ/mol
-43.87

Reaction: -2 4-chlorobenzenamine + -1 zinc bromide + 1 dibromobis(4-chlorobenzenamine)zinc
Property: Molar enthalpy of reaction, kJ/mol
-49.16
