Measured thermophysical data. Solid liquid equilibria and purity determination for binary n-alkane + naphthalene systems
Source: Thermochim. Acta, 2006, 10.1016/j.tca.2006.03.011
Compound 1: naphthalene, C10H8, InChI=1S/C10H8/c1-2-6-10-8-4-3-7-9(10)5-1/h1-8H, purity 99.5%
Compound 2: eicosane, C20H42, InChI=1S/C20H42/c1-3-5-7-9-11-13-15-17-19-20-18-16-14-12-10-8-6-4-2/h3-20H2,1-2H3, purity 99.5%
Compound 3: pentacosane, C25H52, InChI=1S/C25H52/c1-3-5-7-9-11-13-15-17-19-21-23-25-24-22-20-18-16-14-12-10-8-6-4-2/h3-25H2,1-2H3, purity 99.5%
Compound 4: hexatriacontane, C36H74, InChI=1S/C36H74/c1-3-5-7-9-11-13-15-17-19-21-23-25-27-29-31-33-35-36-34-32-30-28-26-24-22-20-18-16-14-12-10-8-6-4-2/h3-36H2,1-2H3, purity 99.5%

System: naphthalene; phases: Crystal 1, Liquid, Air at 1 atmosphere
Property: Molar enthalpy of transition or fusion, kJ/mol (Crystal 1); method: DSC
Molar enthalpy of transition or fusion, kJ/mol	uncertainty
19.55	0.59

System: naphthalene; phases: Crystal 1, Liquid, Air at 1 atmosphere
Property: Normal melting temperature, K (Crystal 1); method: DTA:corrimp
Normal melting temperature, K	uncertainty
354.69	0.71

System: eicosane; phases: Crystal 1, Liquid, Air at 1 atmosphere
Property: Molar enthalpy of transition or fusion, kJ/mol (Crystal 1); method: DSC
Molar enthalpy of transition or fusion, kJ/mol	uncertainty
69.03	1.83

System: eicosane; phases: Crystal 1, Liquid, Air at 1 atmosphere
Property: Normal melting temperature, K (Crystal 1); method: DTA:corrimp
Normal melting temperature, K	uncertainty
311.6	0.71

System: pentacosane; phases: Crystal 1, Liquid, Air at 1 atmosphere
Property: Molar enthalpy of transition or fusion, kJ/mol (Crystal 1); method: DSC
Molar enthalpy of transition or fusion, kJ/mol	uncertainty
55.53	1.49

System: pentacosane; phases: Crystal 3, Crystal 2, Air at 1 atmosphere
Property: Molar enthalpy of transition or fusion, kJ/mol (Crystal 3); method: DSC
Molar enthalpy of transition or fusion, kJ/mol	uncertainty
23.9	0.7

System: pentacosane; phases: Crystal 2, Crystal 1, Air at 1 atmosphere
Property: Molar enthalpy of transition or fusion, kJ/mol (Crystal 2); method: DSC
Molar enthalpy of transition or fusion, kJ/mol	uncertainty
1.07	0.13

System: pentacosane; phases: Crystal 3, Crystal 2, Air at 1 atmosphere
Property: Triple point temperature, K (Crystal 3); method: DTA:corrimp
Triple point temperature, K	uncertainty
309	0.71

System: pentacosane; phases: Crystal 2, Crystal 1, Air at 1 atmosphere
Property: Triple point temperature, K (Crystal 2); method: DTA:corrimp
Triple point temperature, K	uncertainty
312.9	0.71

System: pentacosane; phases: Crystal 1, Liquid, Air at 1 atmosphere
Property: Normal melting temperature, K (Crystal 1); method: DTA:corrimp
Normal melting temperature, K	uncertainty
325.92	0.71

System: hexatriacontane; phases: Crystal 1, Liquid, Air at 1 atmosphere
Property: Molar enthalpy of transition or fusion, kJ/mol (Crystal 1); method: DSC
Molar enthalpy of transition or fusion, kJ/mol	uncertainty
81.55	2.14

System: hexatriacontane; phases: Crystal 3, Crystal 2, Air at 1 atmosphere
Property: Molar enthalpy of transition or fusion, kJ/mol (Crystal 3); method: DSC
Molar enthalpy of transition or fusion, kJ/mol	uncertainty
11.73	0.39

System: hexatriacontane; phases: Crystal 2, Crystal 1, Air at 1 atmosphere
Property: Molar enthalpy of transition or fusion, kJ/mol (Crystal 2); method: DSC
Molar enthalpy of transition or fusion, kJ/mol	uncertainty
24.72	0.72

System: hexatriacontane; phases: Crystal 3, Crystal 2, Air at 1 atmosphere
Property: Triple point temperature, K (Crystal 3); method: DTA:corrimp
Triple point temperature, K	uncertainty
347.33	0.71

System: hexatriacontane; phases: Crystal 2, Crystal 1, Air at 1 atmosphere
Property: Triple point temperature, K (Crystal 2); method: DTA:corrimp
Triple point temperature, K	uncertainty
348.28	0.71

System: hexatriacontane; phases: Crystal 1, Liquid, Air at 1 atmosphere
Property: Normal melting temperature, K (Crystal 1); method: DTA:corrimp
Normal melting temperature, K	uncertainty
350.19	0.71

System: naphthalene + eicosane; phases: Liquid, Crystal
Fixed: Pressure, kPa = 101
Property: Solid-liquid equilibrium temperature, K (Liquid); method: DTA
Mole fraction of naphthalene	Solid-liquid equilibrium temperature, K	uncertainty
0	311.6	0.5
0.019	311.5	0.5
0.039	311.2	0.5
0.07	310.7	0.5
0.098	310.6	0.5
0.197	310.4	0.5
0.25	309.7	0.5
0.298	308.8	0.5

System: naphthalene + eicosane; phases: Liquid, Crystal
Fixed: Pressure, kPa = 101
Property: Solid-liquid equilibrium temperature, K (Liquid); method: DTA
Mole fraction of naphthalene	Solid-liquid equilibrium temperature, K	uncertainty
0.349	308.3	0.5
0.4	312.7	0.5
0.45	317.2	0.5
0.501	322.5	0.5
0.54	325.6	0.5
0.597	330.4	0.5
0.65	333.9	0.5
0.701	338.7	0.5
0.8	342.4	0.5
0.897	347.7	0.5
0.91	349.2	0.5
0.917	349.4	0.5
0.92	349.5	0.5
0.95	351.6	0.5
0.97	352.1	0.5
0.978	353.4	0.5
0.99	354.1	0.5
1	354.7	0.5

System: naphthalene + pentacosane; phases: Liquid, Crystal
Fixed: Pressure, kPa = 101
Property: Solid-liquid equilibrium temperature, K (Liquid); method: DTA
Mole fraction of naphthalene	Solid-liquid equilibrium temperature, K	uncertainty
0	325.9	0.5
0.05	325.6	0.5
0.098	323.8	0.5
0.197	323	0.5
0.3	321.5	0.5
0.398	319.7	0.5
0.45	318.6	0.5

System: naphthalene + pentacosane; phases: Liquid, Crystal
Fixed: Pressure, kPa = 101
Property: Solid-liquid equilibrium temperature, K (Liquid); method: DTA
Mole fraction of naphthalene	Solid-liquid equilibrium temperature, K	uncertainty
0.501	322.7	0.5
0.55	325.1	0.5
0.6	327.4	0.5
0.648	331.6	0.5
0.698	333.5	0.5
0.744	337.2	0.5
0.8	341.5	0.5
0.899	347.3	0.5
0.951	350.4	0.5
0.971	351.4	0.5
0.98	352.7	0.5
0.99	353.5	0.5
1	354.7	0.5

System: naphthalene + hexatriacontane; phases: Liquid, Crystal 1
Fixed: Pressure, kPa = 101
Property: Solid-liquid equilibrium temperature, K (Liquid); method: DTA
Mole fraction of naphthalene	Solid-liquid equilibrium temperature, K	uncertainty
0	350.2	0.5
0.099	350	0.5
0.2	349.4	0.5
0.308	348.5	0.5

System: naphthalene + hexatriacontane; phases: Liquid, Crystal 2
Fixed: Pressure, kPa = 101
Property: Solid-liquid equilibrium temperature, K (Liquid); method: DTA
Mole fraction of naphthalene	Solid-liquid equilibrium temperature, K	uncertainty
0.35	347.9	0.5
0.401	346.4	0.5

System: naphthalene + hexatriacontane; phases: Liquid, Crystal 1
Fixed: Pressure, kPa = 101
Property: Solid-liquid equilibrium temperature, K (Liquid); method: DTA
Mole fraction of naphthalene	Solid-liquid equilibrium temperature, K	uncertainty
0.451	344.3	0.5
0.55	343.6	0.5
0.601	343.3	0.5
0.65	342.1	0.5
0.7	341.5	0.5

System: naphthalene + hexatriacontane; phases: Liquid, Crystal
Fixed: Pressure, kPa = 101
Property: Solid-liquid equilibrium temperature, K (Liquid); method: DTA
Mole fraction of naphthalene	Solid-liquid equilibrium temperature, K	uncertainty
0.751	339.4	0.5
0.801	342.2	0.5
0.852	345.3	0.5
0.9	347.8	0.5
0.971	350.9	0.5
0.981	351.3	0.5
0.985	352.5	0.5
0.991	352.9	0.5
0.995	353.6	0.5
1	354.7	0.5
