Measured thermophysical data. Thermal study of HNIW (CL-20)
Source: Thermochim. Acta, 2005, 10.1016/j.tca.2005.02.021
Compound 1: 2,4,6,8,10,12-hexanitro-2,4,6,8,10,12-hexaazaisowurtzitane, C6H6N12O12, InChI=1S/C6H6N12O12/c19-13(20)7-1-2-8(14(21)22)5(7)6-9(15(23)24)3(11(1)17(27)28)4(10(6)16(25)26)12(2)18(29)30/h1-6H, purity 99.9%

System: 2,4,6,8,10,12-hexanitro-2,4,6,8,10,12-hexaazaisowurtzitane; phases: Crystal 2, Crystal 1, Air at 1 atmosphere
Property: Molar enthalpy of transition or fusion, kJ/mol (Crystal 2); method: DSC
Molar enthalpy of transition or fusion, kJ/mol	uncertainty
5.126770584	0.482004072

System: 2,4,6,8,10,12-hexanitro-2,4,6,8,10,12-hexaazaisowurtzitane; phases: Crystal 2, Crystal 1, Air at 1 atmosphere
Property: Triple point temperature, K (Crystal 2); method: DTA
Triple point temperature, K	uncertainty
435.15	2
