Measured thermophysical data. Thermodynamic properties of Nalidixic and Oxolinic acids: Experimental and computational study
Source: Thermochim. Acta, 2019, 10.1016/j.tca.2019.178411
Compound 1: 1-ethyl-7-methyl-4-oxo-1,4-dihydro-1,8-naphthyridine-3-carboxylic acid, C12H12N2O3, InChI=1S/C12H12N2O3/c1-3-14-6-9(12(16)17)10(15)8-5-4-7(2)13-11(8)14/h4-6H,3H2,1-2H3,(H,16,17), purity 99.5%
Compound 2: 5-ethyl-5,8-dihydro-8-oxo-1,3-dioxolo[4,5-g]quinoline-7-carboxylic acid, C13H11NO5, InChI=1S/C13H11NO5/c1-2-14-5-8(13(16)17)12(15)7-3-10-11(4-9(7)14)19-6-18-10/h3-5H,2,6H2,1H3,(H,16,17), purity 98%

System: 1-ethyl-7-methyl-4-oxo-1,4-dihydro-1,8-naphthyridine-3-carboxylic acid; phases: Crystal, Liquid, Air at 1 atmosphere
Property: Normal melting temperature, K (Crystal); method: DTA
Normal melting temperature, K	uncertainty
500.9	0.6

System: 1-ethyl-7-methyl-4-oxo-1,4-dihydro-1,8-naphthyridine-3-carboxylic acid; phases: Crystal, Liquid, Air at 1 atmosphere
Property: Molar enthalpy of transition or fusion, kJ/mol (Crystal); method: DSC
Molar enthalpy of transition or fusion, kJ/mol	uncertainty
35.9	1.1

System: 1-ethyl-7-methyl-4-oxo-1,4-dihydro-1,8-naphthyridine-3-carboxylic acid; phases: Crystal, Gas
Property: Vapor or sublimation pressure, kPa (Crystal); method: Transpiration method
Temperature, K	Vapor or sublimation pressure, kPa	uncertainty
389.65	6.94e-06	7.8e-07
391.65	8.07e-06	9e-07
393.15	9.19e-06	1.03e-06
394.35	1.04e-05	1.2e-06
395.45	1.2e-05	1.4e-06
397.25	1.4e-05	1.5e-06
398.45	1.53e-05	1.7e-06
400.15	1.81e-05	2e-06
401.55	1.91e-05	2.1e-06
403.15	2.15e-05	2.4e-06
404.95	2.68e-05	3e-06
406.65	3.24e-05	3.5e-06
408.25	3.51e-05	3.9e-06
409.95	4.33e-05	4.8e-06
411.35	4.74e-05	5.1e-06
413.15	5.39e-05	5.8e-06
414.65	5.96e-05	6.5e-06
416.05	6.64e-05	7.3e-06
416.95	7.28e-05	8e-06

System: 5-ethyl-5,8-dihydro-8-oxo-1,3-dioxolo[4,5-g]quinoline-7-carboxylic acid; phases: Crystal, Liquid, Air at 1 atmosphere
Property: Normal melting temperature, K (Crystal); method: DTA
Normal melting temperature, K	uncertainty
592.2	4
