Measured thermophysical data. Characterization of thermal conductivity of SiO2-Al2O3-Y2O3 glasses
Source: Thermochim. Acta, 2015, 10.1016/j.tca.2015.01.010
Compound 1: silicon dioxide, O2Si, InChI=1S/O2Si/c1-3-2, purity 99.5%
Compound 2: yttrium oxide (Y2O3), O3Y2, InChI=1S/3O.2Y/q3*-2;2*+3, purity 99.999%
Compound 3: aluminum oxide (Al2O3), Al2O3, InChI=1S/2Al.3O/q2*+3;3*-2, purity 99%

System: yttrium oxide (Y2O3) + aluminum oxide (Al2O3) + silicon dioxide; phases: Glass
Fixed: Pressure, kPa = 101
Property: Thermal diffusivity, m2/s (Glass); method: Laser flash apparatus
Temperature, K	Mole fraction of aluminum oxide (Al2O3)	Mole fraction of yttrium oxide (Y2O3)	Thermal diffusivity, m2/s	uncertainty
298.15	0.21	0.3	4.35e-07	9e-09
323.15	0.21	0.3	4.25e-07	9e-09
373.15	0.21	0.3	4.13e-07	8e-09
473.15	0.21	0.3	4.05e-07	8e-09
573.15	0.21	0.3	3.87e-07	8e-09
673.15	0.21	0.3	3.61e-07	8e-09
773.15	0.21	0.3	3.41e-07	8e-09
873.15	0.21	0.3	3.32e-07	8e-09
973.15	0.21	0.3	3.25e-07	8e-09
1073.15	0.21	0.3	3.21e-07	8e-09
298.15	0.21	0.27	4.33e-07	1e-08
323.15	0.21	0.27	4.21e-07	1e-08
373.15	0.21	0.27	4.09e-07	9e-09
473.15	0.21	0.27	4.01e-07	9e-09
573.15	0.21	0.27	3.85e-07	9e-09
673.15	0.21	0.27	3.52e-07	9e-09
773.15	0.21	0.27	3.31e-07	9e-09
873.15	0.21	0.27	3.2e-07	1e-08
973.15	0.21	0.27	3.12e-07	9e-09
1073.15	0.21	0.27	3.09e-07	8e-09
298.15	0.21	0.24	4.36e-07	9e-09
323.15	0.21	0.24	4.29e-07	9e-09
373.15	0.21	0.24	4.18e-07	9e-09
473.15	0.21	0.24	4.09e-07	9e-09
573.15	0.21	0.24	3.97e-07	8e-09
673.15	0.21	0.24	3.71e-07	8e-09
773.15	0.21	0.24	3.54e-07	8e-09
873.15	0.21	0.24	3.42e-07	8e-09
973.15	0.21	0.24	3.35e-07	8e-09
1073.15	0.21	0.24	3.3e-07	1e-08
298.15	0.18	0.24	4.32e-07	9e-09
323.15	0.18	0.24	4.21e-07	9e-09
373.15	0.18	0.24	4.1e-07	1e-08
473.15	0.18	0.24	3.98e-07	8e-09
573.15	0.18	0.24	3.81e-07	8e-09
673.15	0.18	0.24	3.42e-07	8e-09
773.15	0.18	0.24	3.29e-07	8e-09
873.15	0.18	0.24	3.11e-07	8e-09
973.15	0.18	0.24	3.03e-07	8e-09
1073.15	0.18	0.24	3.01e-07	8e-09
298.15	0.15	0.24	4.03e-07	9e-09
323.15	0.15	0.24	3.93e-07	9e-09
373.15	0.15	0.24	3.78e-07	9e-09
473.15	0.15	0.24	3.67e-07	8e-09
573.15	0.15	0.24	3.43e-07	8e-09
673.15	0.15	0.24	3.28e-07	8e-09
773.15	0.15	0.24	3.18e-07	8e-09
873.15	0.15	0.24	3.02e-07	8e-09
973.15	0.15	0.24	2.91e-07	8e-09
1073.15	0.15	0.24	2.84e-07	8e-09

System: yttrium oxide (Y2O3) + aluminum oxide (Al2O3) + silicon dioxide; phases: Glass
Fixed: Pressure, kPa = 101
Property: Molar heat capacity at constant pressure, J/K/mol (Glass); method: Laser pulse heating
Temperature, K	Mole fraction of aluminum oxide (Al2O3)	Mole fraction of yttrium oxide (Y2O3)	Molar heat capacity at constant pressure, J/K/mol	uncertainty
298.15	0.21	0.3	70.20891781632	2.3719228992
323.15	0.21	0.3	74.35978288992	2.964903624
373.15	0.21	0.3	77.44328265888	2.964903624
473.15	0.21	0.3	81.11976315264	3.08349976896
573.15	0.21	0.3	84.67764750144	3.5578843488
673.15	0.21	0.3	89.65868558976	3.79507663872
773.15	0.21	0.3	98.07901188192	4.1508650736
873.15	0.21	0.3	101.3997039408	4.1508650736
973.15	0.21	0.3	105.90635744928	4.38805736352
1073.15	0.21	0.3	109.46424179808	4.38805736352
298.15	0.21	0.27	70.10624058432	2.04523878528
323.15	0.21	0.27	71.81060623872	2.2724875392
373.15	0.21	0.27	75.44658630144	2.49973629312
473.15	0.21	0.27	78.85531761024	3.18148255488
573.15	0.21	0.27	82.03680016512	3.18148255488
673.15	0.21	0.27	85.44553147392	3.4087313088
773.15	0.21	0.27	89.30876029056	3.74960443968
873.15	0.21	0.27	95.10360351552	3.74960443968
973.15	0.21	0.27	97.83058856256	3.86322881664
1073.15	0.21	0.27	104.98892431104	4.20410194752
298.15	0.21	0.24	70.29823799712	2.93362044192
323.15	0.21	0.24	73.340511048	3.04227305088
373.15	0.21	0.24	76.81739453472	3.2595782688
473.15	0.21	0.24	79.20775193184	4.02014653152
573.15	0.21	0.24	81.81541454688	4.12879914048
673.15	0.21	0.24	85.61825586048	4.67206218528
773.15	0.21	0.24	90.39897065472	5.10667262112
873.15	0.21	0.24	95.07103284	5.10667262112
973.15	0.21	0.24	99.74309502528	5.432630448
1073.15	0.21	0.24	101.26423155072	5.75858827488
298.15	0.18	0.24	66.90789470064	1.93313339424
323.15	0.18	0.24	70.02238739136	2.1479259936
373.15	0.18	0.24	73.78125788016	2.25532229328
473.15	0.18	0.24	77.00314687056	2.89970009136
573.15	0.18	0.24	79.25846916384	2.79230379168
673.15	0.18	0.24	83.44692485136	3.11449269072
773.15	0.18	0.24	86.23922864304	3.43668158976
873.15	0.18	0.24	89.89070283216	3.32928529008
973.15	0.18	0.24	92.79040292352	3.7588704888
1073.15	0.18	0.24	96.01229191392	3.86626678848
298.15	0.15	0.24	60.2875145472	3.0780597216
323.15	0.15	0.24	62.3041743648	3.3964796928
373.15	0.15	0.24	66.4436339904	3.5026196832
473.15	0.15	0.24	69.6278337024	4.6701595776
573.15	0.15	0.24	73.767293328	4.9885795488
673.15	0.15	0.24	76.95149304	5.7315594816
773.15	0.15	0.24	79.3927128192	5.9438394624
873.15	0.15	0.24	83.319892464	5.9438394624
973.15	0.15	0.24	87.56549208	5.9438394624
1073.15	0.15	0.24	93.0847715808	6.0499794528

System: yttrium oxide (Y2O3) + aluminum oxide (Al2O3) + silicon dioxide; phases: Glass
Fixed: Temperature, K = 298.15
Fixed: Pressure, kPa = 101
Property: Mass density, kg/m3 (Glass); method: Pycnometric method
Mole fraction of aluminum oxide (Al2O3)	Mole fraction of yttrium oxide (Y2O3)	Mass density, kg/m3	uncertainty
0.21	0.3	3860	40
0.21	0.27	3730	40
0.21	0.24	3680	40
0.18	0.24	3730	40
0.15	0.24	3720	40
