Measured thermophysical data. Thermochemical study of 1-, 3- and 4-piperidinecarboxamide derivatives
Source: Thermochim. Acta, 2007, 10.1016/j.tca.2006.11.008
Compound 1: carbon dioxide, CO2, InChI=1S/CO2/c2-1-3
Compound 2: nitrogen, N2, InChI=1S/N2/c1-2
Compound 3: water, H2O, InChI=1S/H2O/h1H2
Compound 4: oxygen, O2, InChI=1S/O2/c1-2
Compound 5: 1-piperidinecarboxamide, C6H12N2O, InChI=1S/C6H12N2O/c7-6(9)8-4-2-1-3-5-8/h1-5H2,(H2,7,9), purity 99%
Compound 6: 3-piperidinecarboxamide, C6H12N2O, InChI=1S/C6H12N2O/c7-6(9)5-2-1-3-8-4-5/h5,8H,1-4H2,(H2,7,9)
Compound 7: 4-piperidinecarboxamide, C6H12N2O, InChI=1S/C6H12N2O/c7-6(9)5-1-3-8-4-2-5/h5,8H,1-4H2,(H2,7,9), purity 97%

System: 1-piperidinecarboxamide; phases: Crystal, Gas
Property: Molar enthalpy of vaporization or sublimation, kJ/mol (Crystal); method: Static calorimetry
Temperature, K	Molar enthalpy of vaporization or sublimation, kJ/mol	uncertainty
386	100.2	1.3

System: 3-piperidinecarboxamide; phases: Crystal, Gas
Property: Molar enthalpy of vaporization or sublimation, kJ/mol (Crystal); method: Static calorimetry
Temperature, K	Molar enthalpy of vaporization or sublimation, kJ/mol	uncertainty
386	112.5	1.3

System: 4-piperidinecarboxamide; phases: Crystal, Gas
Property: Molar enthalpy of vaporization or sublimation, kJ/mol (Crystal); method: Static calorimetry
Temperature, K	Molar enthalpy of vaporization or sublimation, kJ/mol	uncertainty
426.8	123.6	1.3

Reaction: -1 1-piperidinecarboxamide + 6 carbon dioxide + 1 nitrogen + 6 water + -8.5 oxygen
Property: Specific internal energy of reaction at constant volume, J/g
-28961.65

Reaction: -1 3-piperidinecarboxamide + 6 carbon dioxide + 1 nitrogen + 6 water + -8.5 oxygen
Property: Specific internal energy of reaction at constant volume, J/g
-29161.95

Reaction: -1 4-piperidinecarboxamide + 6 carbon dioxide + 1 nitrogen + 6 water + -8.5 oxygen
Property: Specific internal energy of reaction at constant volume, J/g
-29124.21
