Measured thermophysical data. The excess molar volume and the molar surface Gibbs energy of the binary of the ether-functionalized ionic liquids [C22O1IM][TfO] with ethanol and isomeric propanols at T = (288.15-318.15) K
Source: Thermochim. Acta, 2019, 10.1016/j.tca.2019.178383
Compound 1: 1-ethyl-3-(2-methoxyethyl)imidazolium trifluoromethanesulfonate, C9H15F3N2O4S, InChI=1S/C8H15N2O.CHF3O3S/c1-3-9-4-5-10(8-9)6-7-11-2;2-1(3,4)8(5,6)7/h4-5,8H,3,6-7H2,1-2H3;(H,5,6,7)/q+1;/p-1
Compound 2: ethanol, C2H6O, InChI=1S/C2H6O/c1-2-3/h3H,2H2,1H3, purity 99.9%
Compound 3: propan-1-ol, C3H8O, InChI=1S/C3H8O/c1-2-3-4/h4H,2-3H2,1H3, purity 99.9%
Compound 4: propan-2-ol, C3H8O, InChI=1S/C3H8O/c1-3(2)4/h3-4H,1-2H3, purity 99.9%

System: 1-ethyl-3-(2-methoxyethyl)imidazolium trifluoromethanesulfonate; phases: Liquid
Fixed: Pressure, kPa = 100
Property: Mass density, kg/m3 (Liquid); method: Vibrating tube method
Temperature, K	Mass density, kg/m3	uncertainty
288.15	1348.938	1.386
293.15	1344.658	1.385
298.15	1340.406	1.384
303.15	1336.174	1.383
308.15	1331.963	1.381
313.15	1327.772	1.38
318.15	1323.599	1.379

System: 1-ethyl-3-(2-methoxyethyl)imidazolium trifluoromethanesulfonate; phases: Liquid, Air at 1 atmosphere
Property: Surface tension liquid-gas, N/m (Liquid); method: Maximal bubble pressure
Temperature, K	Surface tension liquid-gas, N/m	uncertainty
288.15	0.0363	0.0015
293.15	0.0361	0.0015
298.15	0.0358	0.0015
303.15	0.0355	0.0015
308.15	0.0353	0.0015
313.15	0.0351	0.0015
318.15	0.0349	0.0015

System: ethanol; phases: Liquid
Fixed: Pressure, kPa = 100
Property: Mass density, kg/m3 (Liquid); method: Vibrating tube method
Temperature, K	Mass density, kg/m3	uncertainty
288.15	794.308	1.304
293.15	790.041	1.304
298.15	785.746	1.304
303.15	781.43	1.305
308.15	777.078	1.305
313.15	772.688	1.305
318.15	768.257	1.305

System: ethanol; phases: Liquid, Air at 1 atmosphere
Property: Surface tension liquid-gas, N/m (Liquid); method: Maximal bubble pressure
Temperature, K	Surface tension liquid-gas, N/m	uncertainty
288.15	0.0219	0.0015
293.15	0.0214	0.0015
298.15	0.0209	0.0015
303.15	0.0205	0.0015
308.15	0.02	0.0015
313.15	0.0195	0.0015
318.15	0.019	0.0015

System: propan-1-ol; phases: Liquid
Fixed: Pressure, kPa = 100
Property: Mass density, kg/m3 (Liquid); method: Vibrating tube method
Temperature, K	Mass density, kg/m3	uncertainty
288.15	807.507	1.304
293.15	803.519	1.304
298.15	799.514	1.304
303.15	795.48	1.304
308.15	791.416	1.304
313.15	787.306	1.304
318.15	783.149	1.304

System: propan-1-ol; phases: Liquid, Air at 1 atmosphere
Property: Surface tension liquid-gas, N/m (Liquid); method: Maximal bubble pressure
Temperature, K	Surface tension liquid-gas, N/m	uncertainty
288.15	0.0229	0.0015
293.15	0.0225	0.0015
298.15	0.0221	0.0015
303.15	0.0218	0.0015
308.15	0.0214	0.0015
313.15	0.021	0.0015
318.15	0.0206	0.0015

System: propan-2-ol; phases: Liquid
Fixed: Pressure, kPa = 100
Property: Mass density, kg/m3 (Liquid); method: Vibrating tube method
Temperature, K	Mass density, kg/m3	uncertainty
288.15	789.224	1.304
293.15	785.088	1.304
298.15	780.887	1.305
303.15	776.617	1.305
308.15	772.266	1.305
313.15	767.829	1.305
318.15	763.293	1.305

System: propan-2-ol; phases: Liquid, Air at 1 atmosphere
Property: Surface tension liquid-gas, N/m (Liquid); method: Maximal bubble pressure
Temperature, K	Surface tension liquid-gas, N/m	uncertainty
288.15	0.0206	0.0015
293.15	0.0202	0.0015
298.15	0.0198	0.0015
303.15	0.0195	0.0015
308.15	0.0191	0.0015
313.15	0.0187	0.0015
318.15	0.0184	0.0015

System: 1-ethyl-3-(2-methoxyethyl)imidazolium trifluoromethanesulfonate + ethanol; phases: Liquid
Fixed: Pressure, kPa = 100
Property: Mass density, kg/m3 (Liquid); method: Vibrating tube method
Temperature, K	Mole fraction of 1-ethyl-3-(2-methoxyethyl)imidazolium trifluoromethanesulfonate	Mass density, kg/m3	uncertainty
288.15	0	794.308	1.304
288.15	0.0996	965.057	3.068
288.15	0.1999	1071.984	2.22
288.15	0.2996	1144.794	1.814
288.15	0.3984	1196.954	1.606
288.15	0.4991	1237.582	1.498
288.15	0.6026	1270.247	1.442
288.15	0.6991	1295.014	1.413
288.15	0.797	1315.776	1.401
288.15	0.8995	1333.852	1.403
288.15	1	1348.938	1.386
293.15	0	790.041	1.304
293.15	0.0996	960.722	3.066
293.15	0.1999	1067.623	2.22
293.15	0.2996	1140.436	1.814
293.15	0.3984	1192.612	1.605
293.15	0.4991	1233.256	1.498
293.15	0.6026	1265.938	1.442
293.15	0.6991	1290.719	1.412
293.15	0.797	1311.487	1.4
293.15	0.8995	1329.57	1.4
293.15	1	1344.658	1.385
298.15	0	785.746	1.304
298.15	0.0996	956.38	3.07
298.15	0.1999	1063.271	2.22
298.15	0.2996	1136.093	1.814
298.15	0.3984	1188.289	1.605
298.15	0.4991	1228.95	1.5
298.15	0.6026	1261.651	1.442
298.15	0.6991	1286.445	1.412
298.15	0.797	1307.222	1.399
298.15	0.8995	1325.311	1.401
298.15	1	1340.406	1.384
303.15	0	781.43	1.305
303.15	0.0996	952.028	3.065
303.15	0.1999	1058.916	2.22
303.15	0.2996	1131.759	1.814
303.15	0.3984	1183.972	1.606
303.15	0.4991	1224.658	1.497
303.15	0.6026	1257.382	1.442
303.15	0.6991	1282.189	1.411
303.15	0.797	1302.976	1.399
303.15	0.8995	1321.078	1.4
303.15	1	1336.174	1.383
308.15	0	777.078	1.305
308.15	0.0996	947.665	3.065
308.15	0.1999	1054.561	2.22
308.15	0.2996	1127.426	1.814
308.15	0.3984	1179.662	1.606
308.15	0.4991	1220.377	1.497
308.15	0.6026	1253.124	1.442
308.15	0.6991	1277.952	1.411
308.15	0.797	1298.748	1.398
308.15	0.8995	1316.86	1.4
308.15	1	1331.963	1.381
313.15	0	772.688	1.305
313.15	0.0996	943.285	3.065
313.15	0.1999	1050.203	2.22
313.15	0.2996	1123.099	1.815
313.15	0.3984	1175.366	1.606
313.15	0.4991	1216.112	1.497
313.15	0.6026	1248.888	1.441
313.15	0.6991	1273.728	1.411
313.15	0.797	1294.543	1.397
313.15	0.8995	1312.657	1.398
313.15	1	1327.772	1.38
318.15	0	768.257	1.305
318.15	0.0996	938.889	3.068
318.15	0.1999	1045.845	2.221
318.15	0.2996	1118.777	1.815
318.15	0.3984	1171.077	1.607
318.15	0.4991	1211.865	1.498
318.15	0.6026	1244.661	1.441
318.15	0.6991	1269.519	1.41
318.15	0.797	1290.352	1.397
318.15	0.8995	1308.474	1.397
318.15	1	1323.599	1.379

System: 1-ethyl-3-(2-methoxyethyl)imidazolium trifluoromethanesulfonate + ethanol; phases: Liquid, Air at 1 atmosphere
Property: Surface tension liquid-gas, N/m (Liquid); method: Maximal bubble pressure
Temperature, K	Mole fraction of 1-ethyl-3-(2-methoxyethyl)imidazolium trifluoromethanesulfonate	Surface tension liquid-gas, N/m	uncertainty
288.15	0	0.0219	0.0015
288.15	0.0996	0.0231	0.0015
288.15	0.1999	0.0242	0.0015
288.15	0.2996	0.0256	0.0015
288.15	0.3984	0.0271	0.0015
288.15	0.4991	0.0287	0.0015
288.15	0.6026	0.0305	0.0015
288.15	0.6991	0.0318	0.0015
288.15	0.797	0.0334	0.0015
288.15	0.8995	0.0349	0.0015
288.15	1	0.0363	0.0015
293.15	0	0.0214	0.0015
293.15	0.0996	0.0226	0.0015
293.15	0.1999	0.0238	0.0015
293.15	0.2996	0.0252	0.0015
293.15	0.3984	0.0267	0.0015
293.15	0.4991	0.0283	0.0015
293.15	0.6026	0.0301	0.0015
293.15	0.6991	0.0314	0.0015
293.15	0.797	0.0331	0.0015
293.15	0.8995	0.0347	0.0015
293.15	1	0.0361	0.0015
298.15	0	0.0209	0.0015
298.15	0.0996	0.0221	0.0015
298.15	0.1999	0.0233	0.0015
298.15	0.2996	0.0248	0.0015
298.15	0.3984	0.0263	0.0015
298.15	0.4991	0.0279	0.0015
298.15	0.6026	0.0297	0.0015
298.15	0.6991	0.0311	0.0015
298.15	0.797	0.0328	0.0015
298.15	0.8995	0.0344	0.0015
298.15	1	0.0358	0.0015
303.15	0	0.0205	0.0015
303.15	0.0996	0.0216	0.0015
303.15	0.1999	0.0228	0.0015
303.15	0.2996	0.0244	0.0015
303.15	0.3984	0.0258	0.0015
303.15	0.4991	0.0275	0.0015
303.15	0.6026	0.0293	0.0015
303.15	0.6991	0.0307	0.0015
303.15	0.797	0.0325	0.0015
303.15	0.8995	0.0341	0.0015
303.15	1	0.0355	0.0015
308.15	0	0.02	0.0015
308.15	0.0996	0.0212	0.0015
308.15	0.1999	0.0223	0.0015
308.15	0.2996	0.0239	0.0015
308.15	0.3984	0.0254	0.0015
308.15	0.4991	0.0271	0.0015
308.15	0.6026	0.0289	0.0015
308.15	0.6991	0.0303	0.0015
308.15	0.797	0.032	0.0015
308.15	0.8995	0.0338	0.0015
308.15	1	0.0353	0.0015
313.15	0	0.0195	0.0015
313.15	0.0996	0.0208	0.0015
313.15	0.1999	0.0218	0.0015
313.15	0.2996	0.0235	0.0015
313.15	0.3984	0.025	0.0015
313.15	0.4991	0.0267	0.0015
313.15	0.6026	0.0286	0.0015
313.15	0.6991	0.03	0.0015
313.15	0.797	0.0318	0.0015
313.15	0.8995	0.0335	0.0015
313.15	1	0.0351	0.0015
318.15	0	0.019	0.0015
318.15	0.0996	0.0203	0.0015
318.15	0.1999	0.0214	0.0015
318.15	0.2996	0.023	0.0015
318.15	0.3984	0.0246	0.0015
318.15	0.4991	0.0263	0.0015
318.15	0.6026	0.0282	0.0015
318.15	0.6991	0.0296	0.0015
318.15	0.797	0.0315	0.0015
318.15	0.8995	0.0332	0.0015
318.15	1	0.0349	0.0015

System: 1-ethyl-3-(2-methoxyethyl)imidazolium trifluoromethanesulfonate + propan-1-ol; phases: Liquid
Fixed: Pressure, kPa = 100
Property: Mass density, kg/m3 (Liquid); method: Vibrating tube method
Temperature, K	Mole fraction of 1-ethyl-3-(2-methoxyethyl)imidazolium trifluoromethanesulfonate	Mass density, kg/m3	uncertainty
288.15	0	807.507	1.304
288.15	0.0987	944.376	2.695
288.15	0.1999	1043.539	2.147
288.15	0.2982	1114.642	1.828
288.15	0.3994	1171.496	1.651
288.15	0.499	1215.82	1.542
288.15	0.5993	1252.376	1.479
288.15	0.6979	1282.093	1.443
288.15	0.8009	1308.483	1.427
288.15	0.8992	1329.947	1.422
288.15	1	1348.938	1.386
293.15	0	803.519	1.304
293.15	0.0987	940.25	2.692
293.15	0.1999	1039.33	2.147
293.15	0.2982	1110.4	1.828
293.15	0.3994	1167.238	1.651
293.15	0.499	1211.561	1.542
293.15	0.5993	1248.115	1.479
293.15	0.6979	1277.827	1.442
293.15	0.8009	1304.215	1.426
293.15	0.8992	1325.682	1.421
293.15	1	1344.658	1.385
298.15	0	799.514	1.304
298.15	0.0987	936.122	2.69
298.15	0.1999	1035.119	2.146
298.15	0.2982	1106.162	1.827
298.15	0.3994	1162.988	1.651
298.15	0.499	1207.315	1.542
298.15	0.5993	1243.869	1.479
298.15	0.6979	1273.582	1.441
298.15	0.8009	1299.971	1.426
298.15	0.8992	1321.434	1.42
298.15	1	1340.406	1.384
303.15	0	795.48	1.304
303.15	0.0987	931.974	2.688
303.15	0.1999	1030.907	2.146
303.15	0.2982	1101.929	1.827
303.15	0.3994	1158.75	1.651
303.15	0.499	1203.084	1.542
303.15	0.5993	1239.641	1.479
303.15	0.6979	1269.358	1.441
303.15	0.8009	1295.746	1.425
303.15	0.8992	1317.208	1.419
303.15	1	1336.174	1.383
308.15	0	791.416	1.304
308.15	0.0987	927.821	2.687
308.15	0.1999	1026.695	2.145
308.15	0.2982	1097.699	1.827
308.15	0.3994	1154.523	1.651
308.15	0.499	1198.864	1.542
308.15	0.5993	1235.427	1.478
308.15	0.6979	1265.149	1.441
308.15	0.8009	1291.54	1.424
308.15	0.8992	1312.998	1.419
308.15	1	1331.963	1.381
313.15	0	787.306	1.304
313.15	0.0987	923.647	2.686
313.15	0.1999	1022.478	2.145
313.15	0.2982	1093.474	1.827
313.15	0.3994	1150.293	1.651
313.15	0.499	1194.658	1.541
313.15	0.5993	1231.227	1.478
313.15	0.6979	1260.957	1.44
313.15	0.8009	1287.352	1.424
313.15	0.8992	1308.808	1.418
313.15	1	1327.772	1.38
318.15	0	783.149	1.304
318.15	0.0987	919.45	2.689
318.15	0.1999	1018.438	2.144
318.15	0.2982	1089.251	1.826
318.15	0.3994	1146.095	1.651
318.15	0.499	1190.457	1.542
318.15	0.5993	1227.044	1.478
318.15	0.6979	1256.779	1.44
318.15	0.8009	1283.178	1.423
318.15	0.8992	1304.63	1.417
318.15	1	1323.599	1.379

System: 1-ethyl-3-(2-methoxyethyl)imidazolium trifluoromethanesulfonate + propan-1-ol; phases: Liquid, Air at 1 atmosphere
Property: Surface tension liquid-gas, N/m (Liquid); method: Maximal bubble pressure
Temperature, K	Mole fraction of 1-ethyl-3-(2-methoxyethyl)imidazolium trifluoromethanesulfonate	Surface tension liquid-gas, N/m	uncertainty
288.15	0	0.0229	0.0015
288.15	0.0987	0.0234	0.0015
288.15	0.1999	0.0242	0.0015
288.15	0.2982	0.025	0.0015
288.15	0.3994	0.0262	0.0015
288.15	0.499	0.0277	0.0015
288.15	0.5993	0.0295	0.0015
288.15	0.6979	0.0315	0.0015
288.15	0.8009	0.033	0.0015
288.15	0.8992	0.0348	0.0015
288.15	1	0.0363	0.0015
293.15	0	0.0225	0.0015
293.15	0.0987	0.0231	0.0015
293.15	0.1999	0.0238	0.0015
293.15	0.2982	0.0247	0.0015
293.15	0.3994	0.0259	0.0015
293.15	0.499	0.0274	0.0015
293.15	0.5993	0.0292	0.0015
293.15	0.6979	0.0313	0.0015
293.15	0.8009	0.0327	0.0015
293.15	0.8992	0.0346	0.0015
293.15	1	0.0361	0.0015
298.15	0	0.0221	0.0015
298.15	0.0987	0.0227	0.0015
298.15	0.1999	0.0235	0.0015
298.15	0.2982	0.0243	0.0015
298.15	0.3994	0.0255	0.0015
298.15	0.499	0.0271	0.0015
298.15	0.5993	0.0289	0.0015
298.15	0.6979	0.031	0.0015
298.15	0.8009	0.0325	0.0015
298.15	0.8992	0.0344	0.0015
298.15	1	0.0358	0.0015
303.15	0	0.0218	0.0015
303.15	0.0987	0.0224	0.0015
303.15	0.1999	0.0231	0.0015
303.15	0.2982	0.024	0.0015
303.15	0.3994	0.0251	0.0015
303.15	0.499	0.0267	0.0015
303.15	0.5993	0.0286	0.0015
303.15	0.6979	0.0307	0.0015
303.15	0.8009	0.0322	0.0015
303.15	0.8992	0.0342	0.0015
303.15	1	0.0355	0.0015
308.15	0	0.0214	0.0015
308.15	0.0987	0.0221	0.0015
308.15	0.1999	0.0227	0.0015
308.15	0.2982	0.0236	0.0015
308.15	0.3994	0.0248	0.0015
308.15	0.499	0.0264	0.0015
308.15	0.5993	0.0283	0.0015
308.15	0.6979	0.0304	0.0015
308.15	0.8009	0.032	0.0015
308.15	0.8992	0.0339	0.0015
308.15	1	0.0353	0.0015
313.15	0	0.021	0.0015
313.15	0.0987	0.0217	0.0015
313.15	0.1999	0.0224	0.0015
313.15	0.2982	0.0232	0.0015
313.15	0.3994	0.0245	0.0015
313.15	0.499	0.0261	0.0015
313.15	0.5993	0.028	0.0015
313.15	0.6979	0.03	0.0015
313.15	0.8009	0.0317	0.0015
313.15	0.8992	0.0337	0.0015
313.15	1	0.0351	0.0015
318.15	0	0.0206	0.0015
318.15	0.0987	0.0213	0.0015
318.15	0.1999	0.0221	0.0015
318.15	0.2982	0.0228	0.0015
318.15	0.3994	0.0242	0.0015
318.15	0.499	0.0258	0.0015
318.15	0.5993	0.0278	0.0015
318.15	0.6979	0.0297	0.0015
318.15	0.8009	0.0314	0.0015
318.15	0.8992	0.0335	0.0015
318.15	1	0.0349	0.0015

System: 1-ethyl-3-(2-methoxyethyl)imidazolium trifluoromethanesulfonate + propan-2-ol; phases: Liquid
Fixed: Pressure, kPa = 100
Property: Mass density, kg/m3 (Liquid); method: Vibrating tube method
Temperature, K	Mole fraction of 1-ethyl-3-(2-methoxyethyl)imidazolium trifluoromethanesulfonate	Mass density, kg/m3	uncertainty
288.15	0	789.224	1.304
288.15	0.0997	929.227	2.738
288.15	0.2004	1030.665	2.19
288.15	0.3004	1105.978	1.864
288.15	0.4003	1163.832	1.672
288.15	0.5004	1210.176	1.56
288.15	0.6008	1248.316	1.492
288.15	0.7	1279.5	1.452
288.15	0.7998	1306.123	1.434
288.15	0.9003	1329.282	1.429
288.15	1	1348.938	1.386
293.15	0	785.088	1.304
293.15	0.0997	925.015	2.736
293.15	0.2004	1026.398	2.19
293.15	0.3004	1101.69	1.864
293.15	0.4003	1159.549	1.672
293.15	0.5004	1205.897	1.56
293.15	0.6008	1244.049	1.492
293.15	0.7	1275.234	1.452
293.15	0.7998	1301.858	1.433
293.15	0.9003	1325.014	1.428
293.15	1	1344.658	1.385
298.15	0	780.887	1.305
298.15	0.0997	920.772	2.736
298.15	0.2004	1022.118	2.189
298.15	0.3004	1097.401	1.864
298.15	0.4003	1155.267	1.672
298.15	0.5004	1201.631	1.56
298.15	0.6008	1239.796	1.492
298.15	0.7	1270.986	1.451
298.15	0.7998	1297.608	1.432
298.15	0.9003	1320.762	1.427
298.15	1	1340.406	1.384
303.15	0	776.617	1.305
303.15	0.0997	916.497	2.736
303.15	0.2004	1017.824	2.189
303.15	0.3004	1093.113	1.864
303.15	0.4003	1150.994	1.672
303.15	0.5004	1197.378	1.56
303.15	0.6008	1235.555	1.491
303.15	0.7	1266.757	1.451
303.15	0.7998	1293.377	1.432
303.15	0.9003	1316.531	1.426
303.15	1	1336.174	1.383
308.15	0	772.266	1.305
308.15	0.0997	912.188	2.736
308.15	0.2004	1013.517	2.189
308.15	0.3004	1088.822	1.864
308.15	0.4003	1146.729	1.672
308.15	0.5004	1193.134	1.56
308.15	0.6008	1231.325	1.491
308.15	0.7	1262.54	1.45
308.15	0.7998	1289.17	1.431
308.15	0.9003	1312.323	1.425
308.15	1	1331.963	1.381
313.15	0	767.829	1.305
313.15	0.0997	907.842	2.737
313.15	0.2004	1009.194	2.19
313.15	0.3004	1084.529	1.864
313.15	0.4003	1142.47	1.672
313.15	0.5004	1188.9	1.56
313.15	0.6008	1227.113	1.491
313.15	0.7	1258.342	1.45
313.15	0.7998	1284.979	1.43
313.15	0.9003	1308.129	1.424
313.15	1	1327.772	1.38
318.15	0	763.293	1.305
318.15	0.0997	903.442	2.74
318.15	0.2004	1004.851	2.191
318.15	0.3004	1080.231	1.865
318.15	0.4003	1138.216	1.673
318.15	0.5004	1184.677	1.56
318.15	0.6008	1222.914	1.491
318.15	0.7	1254.157	1.45
318.15	0.7998	1280.803	1.43
318.15	0.9003	1303.957	1.423
318.15	1	1323.599	1.379

System: 1-ethyl-3-(2-methoxyethyl)imidazolium trifluoromethanesulfonate + propan-2-ol; phases: Liquid, Air at 1 atmosphere
Property: Surface tension liquid-gas, N/m (Liquid); method: Maximal bubble pressure
Temperature, K	Mole fraction of 1-ethyl-3-(2-methoxyethyl)imidazolium trifluoromethanesulfonate	Surface tension liquid-gas, N/m	uncertainty
288.15	0	0.0206	0.0015
288.15	0.0997	0.0214	0.0015
288.15	0.2004	0.0223	0.0015
288.15	0.3004	0.0238	0.0015
288.15	0.4003	0.0255	0.0015
288.15	0.5004	0.0272	0.0015
288.15	0.6008	0.0289	0.0015
288.15	0.7	0.0308	0.0015
288.15	0.7998	0.0328	0.0015
288.15	0.9003	0.0345	0.0015
288.15	1	0.0363	0.0015
293.15	0	0.0202	0.0015
293.15	0.0997	0.0211	0.0015
293.15	0.2004	0.022	0.0015
293.15	0.3004	0.0236	0.0015
293.15	0.4003	0.0253	0.0015
293.15	0.5004	0.027	0.0015
293.15	0.6008	0.0286	0.0015
293.15	0.7	0.0306	0.0015
293.15	0.7998	0.0326	0.0015
293.15	0.9003	0.0343	0.0015
293.15	1	0.0361	0.0015
298.15	0	0.0198	0.0015
298.15	0.0997	0.0207	0.0015
298.15	0.2004	0.0217	0.0015
298.15	0.3004	0.0233	0.0015
298.15	0.4003	0.025	0.0015
298.15	0.5004	0.0267	0.0015
298.15	0.6008	0.0284	0.0015
298.15	0.7	0.0304	0.0015
298.15	0.7998	0.0323	0.0015
298.15	0.9003	0.0341	0.0015
298.15	1	0.0358	0.0015
303.15	0	0.0195	0.0015
303.15	0.0997	0.0203	0.0015
303.15	0.2004	0.0215	0.0015
303.15	0.3004	0.0231	0.0015
303.15	0.4003	0.0248	0.0015
303.15	0.5004	0.0265	0.0015
303.15	0.6008	0.0282	0.0015
303.15	0.7	0.0301	0.0015
303.15	0.7998	0.0321	0.0015
303.15	0.9003	0.0339	0.0015
303.15	1	0.0355	0.0015
308.15	0	0.0191	0.0015
308.15	0.0997	0.02	0.0015
308.15	0.2004	0.0212	0.0015
308.15	0.3004	0.0228	0.0015
308.15	0.4003	0.0246	0.0015
308.15	0.5004	0.0263	0.0015
308.15	0.6008	0.028	0.0015
308.15	0.7	0.0298	0.0015
308.15	0.7998	0.0319	0.0015
308.15	0.9003	0.0336	0.0015
308.15	1	0.0353	0.0015
313.15	0	0.0187	0.0015
313.15	0.0997	0.0197	0.0015
313.15	0.2004	0.021	0.0015
313.15	0.3004	0.0226	0.0015
313.15	0.4003	0.0244	0.0015
313.15	0.5004	0.0261	0.0015
313.15	0.6008	0.0278	0.0015
313.15	0.7	0.0296	0.0015
313.15	0.7998	0.0317	0.0015
313.15	0.9003	0.0333	0.0015
313.15	1	0.0351	0.0015
318.15	0	0.0184	0.0015
318.15	0.0997	0.0194	0.0015
318.15	0.2004	0.0207	0.0015
318.15	0.3004	0.0224	0.0015
318.15	0.4003	0.0242	0.0015
318.15	0.5004	0.0259	0.0015
318.15	0.6008	0.0276	0.0015
318.15	0.7	0.0294	0.0015
318.15	0.7998	0.0315	0.0015
318.15	0.9003	0.0331	0.0015
318.15	1	0.0349	0.0015
