Measured thermophysical data. A new equation to reproduce the enthalpies of transfer of formamide, N-methylformamide and N,N-dimethylformamide from water to aqueous methanol mixtures at 298K
Source: Thermochim. Acta, 2006, 10.1016/j.tca.2006.02.028
Compound 1: methanol, CH4O, InChI=1S/CH4O/c1-2/h2H,1H3, purity 99.5%
Compound 2: water, H2O, InChI=1S/H2O/h1H2, purity 99.99%
Compound 3: formamide, CH3NO, InChI=1S/CH3NO/c2-1-3/h1H,(H2,2,3), purity 99%
Compound 4: N-methylformamide, C2H5NO, InChI=1S/C2H5NO/c1-3-2-4/h2H,1H3,(H,3,4), purity 98%
Compound 5: dimethylformamide, C3H7NO, InChI=1S/C3H7NO/c1-4(2)3-5/h3H,1-2H3, purity 99%

System: methanol + water; phases: Liquid
Fixed: Temperature, K = 298.15
Fixed: Pressure, kPa = 101
Property: Excess molar enthalpy (molar enthalpy of mixing), kJ/mol (Liquid); method: Titration calorimetry
Mole fraction of methanol	Excess molar enthalpy (molar enthalpy of mixing), kJ/mol	uncertainty
0	0	0.001
0.05	-0.326	0.004
0.1	-0.55	0.007
0.15	-0.714	0.008
0.2	-0.806	0.009
0.3	-0.85	0.01
0.4	-0.841	0.009
0.5	-0.777	0.009
0.6	-0.68	0.008
0.7	-0.583	0.007
0.8	-0.412	0.005
0.9	-0.241	0.003
1	0	0.001

System: methanol + formamide + water; phases: Liquid
Fixed: Temperature, K = 298.15
Fixed: Pressure, kPa = 1
Fixed: Mole fraction of formamide = 0
Property: Molar enthalpy of solution, kJ/mol (Liquid); method: Titration calorimetry
Solvent: Mole fraction of methanol	Molar enthalpy of solution, kJ/mol	uncertainty
0	-2.67	0.11
0.05	-1.53	0.06
0.1	-0.36	0.02
0.15	-0.21	0.01
0.2	-0.72	0.03
0.3	-1	0.04
0.4	-1.53	0.06
0.5	-2.02	0.08
0.6	-2.05	0.08
0.7	-2.07	0.08
0.8	-2.08	0.08
0.9	-2.17	0.09
1	-2.22	0.09

System: methanol + N-methylformamide + water; phases: Liquid
Fixed: Temperature, K = 298.15
Fixed: Pressure, kPa = 1
Fixed: Mole fraction of N-methylformamide = 0
Property: Molar enthalpy of solution, kJ/mol (Liquid); method: Titration calorimetry
Solvent: Mole fraction of methanol	Molar enthalpy of solution, kJ/mol	uncertainty
0	-2.51	0.1
0.05	0.46	0.02
0.1	1.18	0.05
0.15	2.29	0.09
0.2	3.03	0.12
0.3	3.42	0.14
0.4	3.46	0.14
0.5	3.58	0.15
0.6	3.86	0.16
0.7	4.26	0.17
0.8	4.75	0.19
0.9	5.21	0.21
1	5.4	0.22

System: methanol + dimethylformamide + water; phases: Liquid
Fixed: Temperature, K = 298.15
Fixed: Pressure, kPa = 1
Fixed: Mole fraction of dimethylformamide = 0
Property: Molar enthalpy of solution, kJ/mol (Liquid); method: Titration calorimetry
Solvent: Mole fraction of methanol	Molar enthalpy of solution, kJ/mol	uncertainty
0	-2.32	0.09
0.05	0.53	0.02
0.1	2.8	0.11
0.15	4.45	0.18
0.2	5.74	0.23
0.3	6.61	0.27
0.4	7.28	0.3
0.5	7.76	0.32
0.6	8.28	0.34
0.7	8.84	0.36
0.8	9.67	0.39
0.9	10.82	0.44
1	11.95	0.49

System: formamide + water; phases: Liquid
Property: Molar enthalpy of solution, kJ/mol (Liquid); method: Titration calorimetry
Temperature, K	Pressure, kPa	Mole fraction of formamide	Molar enthalpy of solution, kJ/mol	uncertainty
298.15	1	0	-2.67	0.11

System: methanol + formamide; phases: Liquid
Property: Molar enthalpy of solution, kJ/mol (Liquid); method: Titration calorimetry
Temperature, K	Pressure, kPa	Mole fraction of formamide	Molar enthalpy of solution, kJ/mol	uncertainty
298.15	1	0	-2.22	0.09

System: N-methylformamide + water; phases: Liquid
Property: Molar enthalpy of solution, kJ/mol (Liquid); method: Titration calorimetry
Temperature, K	Pressure, kPa	Mole fraction of N-methylformamide	Molar enthalpy of solution, kJ/mol	uncertainty
298.15	1	0	-2.51	0.1

System: methanol + N-methylformamide; phases: Liquid
Property: Molar enthalpy of solution, kJ/mol (Liquid); method: Titration calorimetry
Temperature, K	Pressure, kPa	Mole fraction of N-methylformamide	Molar enthalpy of solution, kJ/mol	uncertainty
298.15	1	0	5.4	0.22

System: dimethylformamide + water; phases: Liquid
Property: Molar enthalpy of solution, kJ/mol (Liquid); method: Titration calorimetry
Temperature, K	Pressure, kPa	Mole fraction of dimethylformamide	Molar enthalpy of solution, kJ/mol	uncertainty
298.15	1	0	-2.32	0.09

System: methanol + dimethylformamide; phases: Liquid
Property: Molar enthalpy of solution, kJ/mol (Liquid); method: Titration calorimetry
Temperature, K	Pressure, kPa	Mole fraction of dimethylformamide	Molar enthalpy of solution, kJ/mol	uncertainty
298.15	1	0	11.95	0.49
