Measured thermophysical data. Thermodynamic properties of liquid silver-gold-gallium alloys determined from EMF measurements with solid YSZ electrolyte
Source: Thermochim. Acta, 2018, 10.1016/j.tca.2018.02.012
Compound 1: silver, Ag, InChI=1S/Ag, purity 99.99%
Compound 2: gold, Au, InChI=1S/Au, purity 99.99%
Compound 3: gallium, Ga, InChI=1S/Ga, purity 99.99%

System: silver + gold + gallium; phases: Liquid
Fixed: Pressure, kPa = 100
Property: (Relative) activity of gallium (Liquid); method: Calculated from EMF cell potential
Temperature, K	Solvent: Mole fraction of silver	Mole fraction of gallium	(Relative) activity of gallium	uncertainty
1198	0.333	0.2	0.0047	0.0309
1198	0.333	0.3	0.0226	0.0307
1198	0.333	0.4	0.0693	0.0302
1198	0.333	0.5	0.1991	0.0287
1198	0.333	0.6	0.4417	0.0283
1198	0.333	0.7	0.6409	0.0471
1198	0.333	0.8	0.752	0.0793
1223	0.333	0.2	0.0052	0.0309
1223	0.333	0.3	0.0242	0.0307
1223	0.333	0.4	0.0736	0.0301
1223	0.333	0.5	0.2035	0.0286
1223	0.333	0.6	0.4428	0.0282
1223	0.333	0.7	0.6412	0.0464
1223	0.333	0.8	0.7543	0.0789
1248	0.333	0.2	0.0058	0.0309
1248	0.333	0.3	0.0258	0.0307
1248	0.333	0.4	0.078	0.0301
1248	0.333	0.5	0.2077	0.0286
1248	0.333	0.6	0.4426	0.0282
1248	0.333	0.7	0.6434	0.0465
1248	0.333	0.8	0.7543	0.0789
1198	0.5	0.3	0.0449	0.0305
1198	0.5	0.4	0.0778	0.0301
1198	0.5	0.5	0.2572	0.028
1198	0.5	0.6	0.4521	0.0288
1198	0.5	0.75	0.6656	0.052
1223	0.5	0.3	0.0484	0.0304
1223	0.5	0.4	0.0813	0.03
1223	0.5	0.5	0.2622	0.0279
1223	0.5	0.6	0.4595	0.0288
1223	0.5	0.75	0.6711	0.0524
1248	0.5	0.3	0.052	0.0304
1248	0.5	0.4	0.0848	0.03
1248	0.5	0.5	0.267	0.0279
1248	0.5	0.6	0.468	0.029
1248	0.5	0.75	0.6765	0.0527
1198	0.667	0.1	0.0008	0.031
1198	0.667	0.2	0.0088	0.0309
1198	0.667	0.3	0.0691	0.0302
1198	0.667	0.4	0.1629	0.0291
1198	0.667	0.5	0.264	0.0279
1198	0.667	0.6	0.4443	0.0284
1198	0.667	0.7	0.6675	0.0525
1198	0.667	0.8	0.7994	0.1057
1223	0.667	0.1	0.0009	0.031
1223	0.667	0.2	0.0097	0.0309
1223	0.667	0.3	0.073	0.0301
1223	0.667	0.4	0.17	0.029
1223	0.667	0.5	0.2728	0.0278
1223	0.667	0.6	0.4504	0.0284
1223	0.667	0.7	0.6692	0.052
1223	0.667	0.8	0.8008	0.1046
1248	0.667	0.1	0.0011	0.031
1248	0.667	0.2	0.0107	0.0309
1248	0.667	0.3	0.0767	0.0301
1248	0.667	0.4	0.1772	0.0289
1248	0.667	0.5	0.2808	0.0277
1248	0.667	0.6	0.4564	0.0285
1248	0.667	0.7	0.6709	0.0515
1248	0.667	0.8	0.8043	0.105
