Measured thermophysical data. Thermochemistry of hexamethylenetetramine pentaborate
Source: Thermochim. Acta, 2005, 10.1016/j.tca.2005.08.021
Compound 1: 1,3,5,7-tetraazaadamantane, C6H12N4, InChI=1S/C6H12N4/c1-7-2-9-4-8(1)5-10(3-7)6-9/h1-6H2
Compound 2: boric acid, BH3O3, InChI=1S/BH3O3/c2-1(3)4/h2-4H
Compound 3: water, H2O, InChI=1S/H2O/h1H2
Compound 4: hexamethylenetetramine pentaborate hemihydrate, C12H36B10N8O21, InChI=1S/2C6H12N4.2B5H4O10.H2O/c2*1-7-2-9-4-8(1)5-10(3-7)6-9;2*6-1-12-3(9)14-5(11)15-4(10)13-2(7)8;/h2*1-6H2;2*7,9-11H;1H2/q;;2*-1;/p+2, purity 98%

Reaction: -2 1,3,5,7-tetraazaadamantane + -10 boric acid + 1 hexamethylenetetramine pentaborate hemihydrate + 9 water
Property: Molar enthalpy of reaction, kJ/mol
42
