Measured thermophysical data. Low-temperature heat capacity and thermodynamic functions of vitamin B12
Source: Thermochim. Acta, 2014, 10.1016/j.tca.2014.02.025
Compound 1: cyanocobalamin, C63H88CoN14O14P, InChI=1S/C62H90N13O14P.CN.Co/c1-29-20-39-40(21-30(29)2)75(28-70-39)57-52(84)53(41(27-76)87-57)89-90(85,86)88-31(3)26-69-49(83)18-19-59(8)37(22-46(66)80)56-62(11)61(10,25-48(68)82)36(14-17-45(65)79)51(74-62)33(5)55-60(9,24-47(67)81)34(12-15-43(63)77)38(71-55)23-42-58(6,7)35(13-16-44(64)78)50(72-42)32(4)54(59)73-56;1-2;/h20-21,23,28,31,34-37,41,52-53,56-57,76,84H,12-19,22,24-27H2,1-11H3,(H15,63,64,65,66,67,68,69,71,72,73,74,77,78,79,80,81,82,83,85,86);;/q;-1;+3/p-2, purity 99.9%

System: cyanocobalamin; phases: Crystal
Fixed: Pressure, kPa = 101.325
Property: Molar heat capacity at constant pressure, J/K/mol (Crystal); method: Vacuum adiabatic calorimetry
Temperature, K	Molar heat capacity at constant pressure, J/K/mol	uncertainty
6.01	5.261	0.059
6.12	5.474	0.06
6.27	5.776	0.061
6.41	6.065	0.061
6.56	6.357	0.065
6.71	6.6	0.067
6.86	6.986	0.069
7.01	7.334	0.07
7.17	7.673	0.07
7.34	7.946	0.074
7.5	8.273	0.077
7.67	8.817	0.085
7.84	9.207	0.088
8.01	9.777	0.091
8.18	10.2	0.09
8.36	10.82	0.09
8.53	11.16	0.1
8.72	11.67	0.1
8.9	12.26	0.1
9.08	12.91	0.11
9.27	13.39	0.11
9.46	14.2	0.12
9.65	14.67	0.12
9.84	15.64	0.13
10.04	16.34	0.13
10.42	17.75	0.14
11.04	20.67	0.16
11.6	23.28	0.17
12.21	26.23	0.19
12.83	29.45	0.2
13.46	32.91	0.22
14.11	36.48	0.23
14.75	40.46	0.25
15.4	44.4	0.27
16.07	48.53	0.28
16.74	52.68	0.29
17.42	56.79	0.31
18.11	61.22	0.32
18.81	65.76	0.34
19.51	70.36	0.35
20.22	75.13	0.36
21.61	84.87	0.39
23.71	99.82	0.42
25.87	115.3	0.5
28.07	131.9	0.5
30.31	149.1	0.4
32.58	166.2	0.5
34.87	183.4	0.5
37.22	201.2	0.5
39.58	219	0.6
41.96	237.3	0.6
44.36	255	0.7
46.78	272.2	0.7
49.21	289	0.7
51.65	306.6	0.8
54.11	323.6	0.8
56.59	340.4	0.9
59.07	357.9	0.9
61.56	374.8	0.9
64.06	392.4	1
66.57	410.3	1
69.08	427.9	1.1
71.59	445.2	1.1
74.09	461.6	1.2
76.59	477.8	1.2
79.11	493.2	1.2
81.63	508.5	1.3
84.15	523.6	1.3
86.69	540.3	1.3
89.22	556.2	1.4
91.77	571.8	1.3
94.32	587.6	1.3

System: cyanocobalamin; phases: Crystal
Fixed: Pressure, kPa = 101.325
Property: Molar heat capacity at constant pressure, J/K/mol (Crystal); method: Vacuum adiabatic calorimetry
Temperature, K	Molar heat capacity at constant pressure, J/K/mol	uncertainty
83.89	523.7	1.3
86.93	543.6	1.4
89.46	559.5	1.4
91.98	574.9	1.3
94.52	590.4	1.3
97.06	605.8	1.3
99.6	621.4	1.4
102.14	636.1	1.4
104.69	651	1.4
107.98	665.9	1.5
111.06	683.4	1.5
113.61	697.9	1.5
116.17	711.7	1.6
118.73	727.9	1.6
121.29	740.9	1.6
123.85	754.6	1.7
126.41	769.1	1.7
128.98	784.4	1.7
131.54	798.6	1.8
134.11	813.2	1.8
136.68	827.7	1.8
139.25	841.3	1.8
141.82	855.9	1.9
144.4	871.3	1.9
146.97	885.9	1.9
149.56	900.5	2
152.14	914.8	2
154.71	929.2	2
157.29	944.7	2.1
159.87	958.9	2.1
162.45	973.1	2.1
165.03	987.4	2.1
167.61	1002	2
170.19	1016	2
172.77	1030	2
175.35	1045	2
177.94	1060	2
180.52	1073	2
183.11	1086	2
185.7	1101	2
188.28	1116	2
190.88	1131	3
193.47	1144	3
196.06	1158	3
198.65	1172	3
201.23	1187	3
203.82	1202	3
206.42	1215	3
209.02	1229	3
211.61	1243	3
214.21	1258	3
216.81	1270	3
219.41	1286	3
222.02	1301	3
224.62	1314	3
227.23	1329	3
229.84	1352	3
232.49	1359	3
235.11	1371	3
237.72	1386	3
240.34	1400	3
242.95	1412	3
245.57	1426	3
251.04	1452	3
254.03	1471	3
256.65	1486	3
259.28	1502	3
261.9	1515	3
264.53	1530	3
267.16	1544	3
269.79	1558	3
272.42	1574	3
275.05	1588	3
277.69	1603	3
280.32	1618	4
282.95	1631	4
285.58	1647	4
288.21	1662	4
290.84	1678	4
293.5	1694	4
296.13	1708	4
298.76	1724	4
302.41	1742	4
307.02	1765	4
311.62	1800	4
316.21	1832	4
320.8	1860	4
325.4	1884	4
330.01	1907	4
334.61	1931	4
339.22	1957	4
343.83	1984	4

System: cyanocobalamin; phases: Crystal
Fixed: Pressure, kPa = 101.325
Property: Molar heat capacity at constant pressure, J/K/mol (Crystal); method: Vacuum adiabatic calorimetry
Temperature, K	Molar heat capacity at constant pressure, J/K/mol	uncertainty
1	0.0234	0.0086
2	0.1871	0.011
3	0.6316	0.018
4	1.494	0.029
5	2.883	0.046
6	5.19	0.061
7	7.299	0.071
8	9.656	0.087
9	12.58	0.11
10	16.18	0.13
15	41.91	0.25
20	73.72	0.36
25	109.1	0.4
30	146.6	0.4
35	184.3	0.5
40	222.3	0.6
45	259.7	0.7
50	294.4	0.8
60	364.4	0.9
70	433.8	1.1
80	499.6	1.2
90	561.5	1.3
100	620.7	1.4
110	678.1	1.5
120	734.5	1.6
130	790.5	1.7
140	846.4	1.9
150	902.4	2
160	958.5	2.1
170	1015	2
180	1070	2
190	1126	3
200	1181	3
210	1235	3
220	1289	3
230	1343	3
240	1397	3
250	1450	3
260	1505	3
270	1560	3
273.15	1577	3
280	1616	4
290	1673	4
298.15	1721	4
300	1732	4
310	1791	4
320	1850	4
330	1907	4
340	1962	4

System: cyanocobalamin; phases: Crystal
Fixed: Pressure, kPa = 101.325
Property: Molar entropy, J/K/mol (Crystal); method: Vacuum adiabatic calorimetry
Temperature, K	Molar entropy, J/K/mol	uncertainty
1	0.0078	0.0152
2	0.0624	0.016
3	0.2105	0.0185
4	0.4988	0.0231
5	0.9711	0.0303
6	1.66	0.04
7	2.605	0.052
8	3.741	0.066
9	5.053	0.081
10	6.547	0.096
15	17.62	0.2
20	33.95	0.31
25	54.14	0.39
30	77.32	0.31
35	102.7	0.4
40	129.8	0.5
45	158.2	0.5
50	187.3	0.6
60	247.2	0.8
70	308.6	1
80	370.9	1.2
90	433.4	1
100	495.6	1.1
110	557.5	1.1
120	618.9	1.2
130	679.9	1.3
140	740.5	1.4
150	800.9	1.5
160	860.9	1.6
170	920.7	1.7
180	980.2	1.8
190	1040	2
200	1099	2
210	1158	2
220	1216	2
230	1275	2
240	1333	2
250	1391	2
260	1449	3
270	1507	3
273.15	1525	3
280	1565	3
290	1623	3
298.15	1670	3
300	1680	3
310	1738	3
320	1796	3
330	1854	3
340	1911	3

System: cyanocobalamin; phases: Crystal
Fixed: Pressure, kPa = 101.325
Property: Molar enthalpy, kJ/mol (Crystal); method: Vacuum adiabatic calorimetry
Temperature, K	Molar enthalpy, kJ/mol	uncertainty
1	6e-06	1e-05
2	9.4e-05	2.1e-05
3	0.00047	4e-05
4	0.0015	0.0001
5	0.0036	0.0001
6	0.0074	0.0002
7	0.014	0.0002
8	0.0221	0.0003
9	0.0335	0.0004
10	0.0475	0.0006
15	0.1886	0.0017
20	0.476	0.003
25	0.932	0.005
30	1.57	0.005
35	2.398	0.007
40	3.414	0.01
45	4.62	0.012
50	6.006	0.015
60	9.299	0.022
70	13.29	0.03
80	17.96	0.04
90	23.27	0.04
100	29.18	0.05
110	35.68	0.06
120	42.74	0.07
130	50.37	0.08
140	58.55	0.09
150	67.3	0.1
160	76.6	0.11
170	86.47	0.12
180	96.89	0.13
190	107.9	0.2
200	119.4	0.2
210	131.5	0.2
220	144.1	0.2
230	157.3	0.2
240	171	0.2
250	185.2	0.2
260	200	0.3
270	215.3	0.3
273.15	220.3	0.3
280	231.2	0.3
290	247.6	0.3
298.15	261.5	0.3
300	264.7	0.3
310	282.3	0.4
320	300.5	0.4
330	319.3	0.4
340	338.6	0.4
