Measured thermophysical data. Thermal conductivity of Tetryl by modulated differential scanning calorimetry
Source: Thermochim. Acta, 2005, 10.1016/j.tca.2004.11.033
Compound 1: N-methyl-N-2,4,6-tetranitrobenzenamine, C7H5N5O8, InChI=1S/C7H5N5O8/c1-8(12(19)20)7-5(10(15)16)2-4(9(13)14)3-6(7)11(17)18/h2-3H,1H3

System: N-methyl-N-2,4,6-tetranitrobenzenamine; phases: Crystal
Fixed: Pressure, kPa = 101.325
Property: Molar heat capacity at constant pressure, J/K/mol (Crystal); method: SDSC:UFactor:4
Temperature, K	Molar heat capacity at constant pressure, J/K/mol	uncertainty
270	233.160522	18.65858463
290	247.8048405	19.810030065
320	278.2420515	22.397193

System: N-methyl-N-2,4,6-tetranitrobenzenamine; phases: Crystal
Fixed: Pressure, kPa = 101.325
Property: Molar heat capacity at constant pressure, J/K/mol (Crystal); method: SDSC:UFactor:4
Temperature, K	Molar heat capacity at constant pressure, J/K/mol	uncertainty
270	229.7148	18.380055435
290	242.349114	19.528629435
300	261.300585	20.958604065

System: N-methyl-N-2,4,6-tetranitrobenzenamine; phases: Crystal
Fixed: Pressure, kPa = 101.325
Property: Thermal conductivity, W/m/K (Crystal); method: MDSC
Temperature, K	Thermal conductivity, W/m/K	uncertainty
270	0.171	0.034
290	0.165	0.033
320	0.154	0.031

System: N-methyl-N-2,4,6-tetranitrobenzenamine; phases: Crystal
Fixed: Pressure, kPa = 101.325
Property: Thermal conductivity, W/m/K (Crystal); method: MDSC
Temperature, K	Thermal conductivity, W/m/K	uncertainty
270	0.186	0.037
290	0.186	0.037
320	0.189	0.038
