Measured thermophysical data. Excess molar enthalpies of methyl isobutyl ketone (MIBK) with alkan-1-ols (C1-C6) and their correlations at 298.15 K
Source: Thermochim. Acta, 2005, 10.1016/j.tca.2004.09.012
Compound 1: 4-methylpentan-2-one, C6H12O, InChI=1S/C6H12O/c1-5(2)4-6(3)7/h5H,4H2,1-3H3, purity 99%
Compound 2: methanol, CH4O, InChI=1S/CH4O/c1-2/h2H,1H3, purity 99.5%
Compound 3: ethanol, C2H6O, InChI=1S/C2H6O/c1-2-3/h3H,2H2,1H3, purity 99.8%
Compound 4: propan-1-ol, C3H8O, InChI=1S/C3H8O/c1-2-3-4/h4H,2-3H2,1H3, purity 99.8%
Compound 5: butan-1-ol, C4H10O, InChI=1S/C4H10O/c1-2-3-4-5/h5H,2-4H2,1H3, purity 99.8%
Compound 6: pentan-1-ol, C5H12O, InChI=1S/C5H12O/c1-2-3-4-5-6/h6H,2-5H2,1H3, purity 99%
Compound 7: hexan-1-ol, C6H14O, InChI=1S/C6H14O/c1-2-3-4-5-6-7/h7H,2-6H2,1H3, purity 98%

System: 4-methylpentan-2-one; phases: Liquid
Property: Mass density, kg/m3 (Liquid); method: VIBTUB:UFactor:4
Temperature, K	Pressure, kPa	Mass density, kg/m3	uncertainty
298.15	101.325	796.19	0.63

System: methanol; phases: Liquid
Property: Mass density, kg/m3 (Liquid); method: VIBTUB:UFactor:4
Temperature, K	Pressure, kPa	Mass density, kg/m3	uncertainty
298.15	101.325	786.5	0.61

System: ethanol; phases: Liquid
Property: Mass density, kg/m3 (Liquid); method: VIBTUB:UFactor:4
Temperature, K	Pressure, kPa	Mass density, kg/m3	uncertainty
298.15	101.325	785.15	0.58

System: propan-1-ol; phases: Liquid
Property: Mass density, kg/m3 (Liquid); method: VIBTUB:UFactor:4
Temperature, K	Pressure, kPa	Mass density, kg/m3	uncertainty
298.15	101.325	799.51	0.57

System: butan-1-ol; phases: Liquid
Property: Mass density, kg/m3 (Liquid); method: VIBTUB:UFactor:4
Temperature, K	Pressure, kPa	Mass density, kg/m3	uncertainty
298.15	101.325	805.75	0.69

System: pentan-1-ol; phases: Liquid
Property: Mass density, kg/m3 (Liquid); method: VIBTUB:UFactor:4
Temperature, K	Pressure, kPa	Mass density, kg/m3	uncertainty
298.15	101.325	810.88	0.99

System: hexan-1-ol; phases: Liquid
Property: Mass density, kg/m3 (Liquid); method: VIBTUB:UFactor:4
Temperature, K	Pressure, kPa	Mass density, kg/m3	uncertainty
298.15	101.325	815.2	0.99

System: methanol + 4-methylpentan-2-one; phases: Liquid
Fixed: Temperature, K = 298.15
Fixed: Pressure, kPa = 101.3
Property: Excess molar enthalpy (molar enthalpy of mixing), kJ/mol (Liquid); method: CALVET:UFactor:4
Mole fraction of 4-methylpentan-2-one	Excess molar enthalpy (molar enthalpy of mixing), kJ/mol	uncertainty
0.0523	0.1422	0.0097
0.0998	0.2528	0.0141
0.1502	0.3511	0.018
0.2002	0.4401	0.0216
0.2495	0.5279	0.0251
0.2954	0.6657	0.0306
0.4019	0.8013	0.0361
0.5037	0.875	0.039
0.6059	0.8826	0.0393
0.707	0.8161	0.0366
0.8119	0.65	0.03
0.908	0.3838	0.0194

System: ethanol + 4-methylpentan-2-one; phases: Liquid
Fixed: Temperature, K = 298.15
Fixed: Pressure, kPa = 101.3
Property: Excess molar enthalpy (molar enthalpy of mixing), kJ/mol (Liquid); method: CALVET:UFactor:2
Mole fraction of 4-methylpentan-2-one	Excess molar enthalpy (molar enthalpy of mixing), kJ/mol	uncertainty
0.0772	0.2714	0.0075
0.1571	0.5122	0.0123
0.2369	0.7082	0.0162
0.2947	0.8686	0.0194
0.3977	1.0502	0.023
0.5	1.1663	0.0253
0.5995	1.2001	0.026
0.6981	1.1419	0.0248
0.7954	0.9703	0.0214
0.897	0.6222	0.0145

System: propan-1-ol + 4-methylpentan-2-one; phases: Liquid
Fixed: Temperature, K = 298.15
Fixed: Pressure, kPa = 101.3
Property: Excess molar enthalpy (molar enthalpy of mixing), kJ/mol (Liquid); method: CALVET:UFactor:2
Mole fraction of 4-methylpentan-2-one	Excess molar enthalpy (molar enthalpy of mixing), kJ/mol	uncertainty
0.0797	0.3906	0.0099
0.1587	0.6867	0.0158
0.2384	0.9203	0.0204
0.3192	1.0949	0.0239
0.3901	1.2133	0.0263
0.4948	1.297	0.0279
0.5955	1.2865	0.0277
0.6981	1.1769	0.0255
0.8004	0.9423	0.0209
0.9012	0.5634	0.0134

System: butan-1-ol + 4-methylpentan-2-one; phases: Liquid
Fixed: Temperature, K = 298.15
Fixed: Pressure, kPa = 101.3
Property: Excess molar enthalpy (molar enthalpy of mixing), kJ/mol (Liquid); method: CALVET:UFactor:2
Mole fraction of 4-methylpentan-2-one	Excess molar enthalpy (molar enthalpy of mixing), kJ/mol	uncertainty
0.1005	0.517	0.0124
0.1998	0.8855	0.0197
0.2999	1.1379	0.0248
0.3967	1.3054	0.0282
0.3996	1.2937	0.0279
0.4967	1.3842	0.0297
0.5978	1.3651	0.0293
0.6981	1.2427	0.0269
0.7978	0.9958	0.022
0.9006	0.585	0.0138

System: pentan-1-ol + 4-methylpentan-2-one; phases: Liquid
Fixed: Temperature, K = 298.15
Fixed: Pressure, kPa = 101.3
Property: Excess molar enthalpy (molar enthalpy of mixing), kJ/mol (Liquid); method: CALVET:UFactor:2
Mole fraction of 4-methylpentan-2-one	Excess molar enthalpy (molar enthalpy of mixing), kJ/mol	uncertainty
0.1008	0.5432	0.013
0.2043	0.9379	0.0208
0.304	1.1958	0.0259
0.403	1.3456	0.0289
0.4035	1.3555	0.0291
0.503	1.4273	0.0305
0.5035	1.4106	0.0302
0.6017	1.3963	0.0299
0.7007	1.2661	0.0273
0.7996	1.0106	0.0223
0.9002	0.6031	0.0142

System: 4-methylpentan-2-one + hexan-1-ol; phases: Liquid
Fixed: Temperature, K = 298.15
Fixed: Pressure, kPa = 101.3
Property: Excess molar enthalpy (molar enthalpy of mixing), kJ/mol (Liquid); method: CALVET:UFactor:2
Mole fraction of 4-methylpentan-2-one	Excess molar enthalpy (molar enthalpy of mixing), kJ/mol	uncertainty
0.0995	0.5614	0.0133
0.2004	0.9774	0.0216
0.3015	1.2619	0.0273
0.4029	1.438	0.0308
0.5082	1.5105	0.0322
0.5096	1.5065	0.0322
0.6091	1.463	0.0313
0.7086	1.31	0.0282
0.8049	1.0369	0.0228
0.903	0.6029	0.0142
