Measured thermophysical data. Experimental and theoretical thermodynamic properties of RS-(+-)- and S-(+)-mandelic acids
Source: Thermochim. Acta, 2018, 10.1016/j.tca.2018.05.010
Compound 1: carbon dioxide, CO2, InChI=1S/CO2/c2-1-3
Compound 2: water, H2O, InChI=1S/H2O/h1H2
Compound 3: oxygen, O2, InChI=1S/O2/c1-2
Compound 4: mandelic acid, C8H8O3, InChI=1S/C8H8O3/c9-7(8(10)11)6-4-2-1-3-5-6/h1-5,7,9H,(H,10,11), purity 99%
Compound 5: (S)-2-hydroxy-2-phenylacetic acid, C8H8O3, InChI=1S/C8H8O3/c9-7(8(10)11)6-4-2-1-3-5-6/h1-5,7,9H,(H,10,11)/t7-/m0/s1, purity 99%

System: mandelic acid; phases: Crystal, Liquid, Air at 1 atmosphere
Property: Normal melting temperature, K (Crystal); method: DTA
Normal melting temperature, K	uncertainty
394.4	1.1

System: mandelic acid; phases: Crystal, Liquid, Air at 1 atmosphere
Property: Molar enthalpy of transition or fusion, kJ/mol (Crystal); method: DSC
Molar enthalpy of transition or fusion, kJ/mol	uncertainty
25.1	0.7

System: mandelic acid; phases: Crystal, Gas
Property: Vapor or sublimation pressure, kPa (Crystal); method: Transpiration method
Temperature, K	Vapor or sublimation pressure, kPa	uncertainty
352.9	0.00068	0.0003
358.2	0.00116	0.00048
362.9	0.00193	0.00074
367.8	0.00284	0.00107
373.2	0.0051	0.00215
378	0.0076	0.00302
378	0.00771	0.00306
387.9	0.0179	0.0067

System: (S)-2-hydroxy-2-phenylacetic acid; phases: Crystal, Liquid, Air at 1 atmosphere
Property: Normal melting temperature, K (Crystal); method: DTA
Normal melting temperature, K	uncertainty
407.7	1.1

System: (S)-2-hydroxy-2-phenylacetic acid; phases: Crystal, Liquid, Air at 1 atmosphere
Property: Molar enthalpy of transition or fusion, kJ/mol (Crystal); method: DSC
Molar enthalpy of transition or fusion, kJ/mol	uncertainty
24.8	0.6

System: (S)-2-hydroxy-2-phenylacetic acid; phases: Crystal, Gas
Property: Vapor or sublimation pressure, kPa (Crystal); method: Transpiration method
Temperature, K	Vapor or sublimation pressure, kPa	uncertainty
362.7	0.0016	0.00062
367.8	0.00264	0.00101
373	0.00431	0.00159
378	0.00647	0.00263
383	0.0109	0.0042
383	0.0107	0.0041
388	0.0164	0.0061
392.7	0.0241	0.0088

Reaction: -1 mandelic acid + 8 carbon dioxide + 4 water + -8.5 oxygen
Property: Specific internal energy of reaction at constant volume, J/g
-24387.3

Reaction: -1 (S)-2-hydroxy-2-phenylacetic acid + 8 carbon dioxide + 4 water + -8.5 oxygen
Property: Specific internal energy of reaction at constant volume, J/g
-24392
