Measured thermophysical data. Effect of intramolecular cyclization on the enthalpies of solvation of tetramethylurea in water and alkanols at 298.15K
Source: Thermochim. Acta, 2008, 10.1016/j.tca.2008.07.001
Compound 1: 1,3-dimethyl-2-imidazolidinone, C5H10N2O, InChI=1S/C5H10N2O/c1-6-3-4-7(2)5(6)8/h3-4H2,1-2H3, purity 99%
Compound 2: water, H2O, InChI=1S/H2O/h1H2
Compound 3: methanol, CH4O, InChI=1S/CH4O/c1-2/h2H,1H3, purity 99.8%
Compound 4: ethanol, C2H6O, InChI=1S/C2H6O/c1-2-3/h3H,2H2,1H3, purity 99.8%
Compound 5: propan-1-ol, C3H8O, InChI=1S/C3H8O/c1-2-3-4/h4H,2-3H2,1H3, purity 99.8%
Compound 6: propan-2-ol, C3H8O, InChI=1S/C3H8O/c1-3(2)4/h3-4H,1-2H3, purity 99.8%
Compound 7: butan-1-ol, C4H10O, InChI=1S/C4H10O/c1-2-3-4-5/h5H,2-4H2,1H3, purity 99.8%
Compound 8: 2-methylpropan-2-ol, C4H10O, InChI=1S/C4H10O/c1-4(2,3)5/h5H,1-3H3, purity 99.8%

System: 1,3-dimethyl-2-imidazolidinone; phases: Liquid
Property: Refractive index (Na D-line) (Liquid); method: Standard Abbe refractometry
Temperature, K	Pressure, kPa	Refractive index (Na D-line)	uncertainty
298.15	101.325	1.4712	0.0008

System: 1,3-dimethyl-2-imidazolidinone; phases: Liquid
Property: Mass density, kg/m3 (Liquid); method: Pycnometric method
Temperature, K	Pressure, kPa	Mass density, kg/m3	uncertainty
298.15	101.325	1052.25	1.09

System: 1,3-dimethyl-2-imidazolidinone + water; phases: Liquid
Property: Molar enthalpy of solution, kJ/mol (Liquid); method: ISOPERIBOL
Molality, mol/kg of 1,3-dimethyl-2-imidazolidinone	Temperature, K	Pressure, kPa	Molar enthalpy of solution, kJ/mol	uncertainty
0.0013	298.15	101	-17.18	0.2

System: methanol + 1,3-dimethyl-2-imidazolidinone; phases: Liquid
Property: Molar enthalpy of solution, kJ/mol (Liquid); method: ISOPERIBOL
Molality, mol/kg of 1,3-dimethyl-2-imidazolidinone	Temperature, K	Pressure, kPa	Molar enthalpy of solution, kJ/mol	uncertainty
0.0015	298.15	101	-1.5	0.04

System: ethanol + 1,3-dimethyl-2-imidazolidinone; phases: Liquid
Property: Molar enthalpy of solution, kJ/mol (Liquid); method: ISOPERIBOL
Molality, mol/kg of 1,3-dimethyl-2-imidazolidinone	Temperature, K	Pressure, kPa	Molar enthalpy of solution, kJ/mol	uncertainty
0.0015	298.15	101	2.01	0.03

System: propan-1-ol + 1,3-dimethyl-2-imidazolidinone; phases: Liquid
Property: Molar enthalpy of solution, kJ/mol (Liquid); method: ISOPERIBOL
Molality, mol/kg of 1,3-dimethyl-2-imidazolidinone	Temperature, K	Pressure, kPa	Molar enthalpy of solution, kJ/mol	uncertainty
0.0015	298.15	101	2.98	0.03

System: propan-2-ol + 1,3-dimethyl-2-imidazolidinone; phases: Liquid
Property: Molar enthalpy of solution, kJ/mol (Liquid); method: ISOPERIBOL
Molality, mol/kg of 1,3-dimethyl-2-imidazolidinone	Temperature, K	Pressure, kPa	Molar enthalpy of solution, kJ/mol	uncertainty
0.0015	298.15	101	4.56	0.07

System: butan-1-ol + 1,3-dimethyl-2-imidazolidinone; phases: Liquid
Property: Molar enthalpy of solution, kJ/mol (Liquid); method: ISOPERIBOL
Molality, mol/kg of 1,3-dimethyl-2-imidazolidinone	Temperature, K	Pressure, kPa	Molar enthalpy of solution, kJ/mol	uncertainty
0.0015	298.15	101	3.78	0.05

System: 2-methylpropan-2-ol + 1,3-dimethyl-2-imidazolidinone; phases: Liquid
Property: Molar enthalpy of solution, kJ/mol (Liquid); method: ISOPERIBOL
Molality, mol/kg of 1,3-dimethyl-2-imidazolidinone	Temperature, K	Pressure, kPa	Molar enthalpy of solution, kJ/mol	uncertainty
0.0014	299.15	101	0.98	0.02
