Measured thermophysical data. Viscosity, thermal and electrical conductivity of silicon dioxide - ethylene glycol transparent nanofluids: An experimental studies
Source: Thermochim. Acta, 2017, 10.1016/j.tca.2017.02.001
Compound 1: 1,2-ethanediol, C2H6O2, InChI=1S/C2H6O2/c3-1-2-4/h3-4H,1-2H2, purity 99%

System: 1,2-ethanediol; phases: Liquid
Property: Viscosity, Pa*s (Liquid); method: Cone and plate viscometry
Temperature, K	Pressure, kPa	Viscosity, Pa*s	uncertainty
298.15	101.325	0.0169	0.0017

System: 1,2-ethanediol; phases: Liquid
Property: Thermal conductivity, W/m/K (Liquid); method: THOTW
Temperature, K	Pressure, kPa	Thermal conductivity, W/m/K	uncertainty
298.15	101.325	0.2445	0.0098

System: 1,2-ethanediol; phases: Liquid
Property: Electrical conductivity, S/m (Liquid); method: Direct current cell with electrodes
Temperature, K	Pressure, kPa	Electrical conductivity, S/m	uncertainty
298.15	101.325	8.5e-05	2e-06
