Measured thermophysical data. Heat capacity measurements on uranium cerium mixed oxides by differential scanning calorimetry
Source: Thermochim. Acta, 2006, 10.1016/j.tca.2005.11.005
Compound 1: ceric oxide, CeO2, InChI=1S/Ce.2O/q+4;2*-2
Compound 2: uranium dioxide, O2U, InChI=1S/2O.U/q2*-2;+4, purity 99%

System: ceric oxide + uranium dioxide; phases: Crystal
Fixed: Pressure, kPa = 101
Property: Molar heat capacity at constant pressure, J/K/mol (Crystal); method: Small sample (50 mg) DSC
Mole fraction of uranium dioxide	Temperature, K	Molar heat capacity at constant pressure, J/K/mol	uncertainty
0	298	62.6	1.3
0	300	62.7	1.3
0	400	68.8	1.4
0	500	73	1.5
0	600	76.5	1.5
0	700	78.6	1.6
0	800	79.3	1.6
0.197	298	62.8	1.3
0.197	300	64	1.3
0.197	400	73.3	1.5
0.197	500	81.2	1.6
0.197	600	84.6	1.7
0.197	700	84.5	1.7
0.197	800	85.2	1.7
0.491	298	64.2	1.3
0.491	300	64.8	1.3
0.491	400	76.8	1.5
0.491	500	85.9	1.7
0.491	600	89.2	1.8
0.491	700	89.6	1.8
0.491	800	88.3	1.8
0.809	298	70.1	1.4
0.809	300	70.4	1.4
0.809	400	79.7	1.6
0.809	500	86	1.7
0.809	600	88.9	1.8
0.809	700	90.3	1.8
0.809	800	92	1.8
1	298	64	1.3
1	300	64.1	1.3
1	400	72.7	1.5
1	500	77.5	1.6
1	600	80.4	1.6
1	700	82.6	1.7
1	800	85.9	1.7
