Measured thermophysical data. Solid liquid phase diagrams of binary fatty acid mixtures - Palmitic/stearic with oleic/linoleic/linolenic acid mixture
Source: Thermochim. Acta, 2016, 10.1016/j.tca.2016.02.008
Compound 1: hexadecanoic acid, C16H32O2, InChI=1S/C16H32O2/c1-2-3-4-5-6-7-8-9-10-11-12-13-14-15-16(17)18/h2-15H2,1H3,(H,17,18)
Compound 2: octadecanoic acid, C18H36O2, InChI=1S/C18H36O2/c1-2-3-4-5-6-7-8-9-10-11-12-13-14-15-16-17-18(19)20/h2-17H2,1H3,(H,19,20)
Compound 3: (Z)-9-octadecenoic acid, C18H34O2, InChI=1S/C18H34O2/c1-2-3-4-5-6-7-8-9-10-11-12-13-14-15-16-17-18(19)20/h9-10H,2-8,11-17H2,1H3,(H,19,20)/b10-9-
Compound 4: (Z,Z)-9,12-octadecadienoic acid, C18H32O2, InChI=1S/C18H32O2/c1-2-3-4-5-6-7-8-9-10-11-12-13-14-15-16-17-18(19)20/h6-7,9-10H,2-5,8,11-17H2,1H3,(H,19,20)/b7-6-,10-9-
Compound 5: all-cis-9,12,15-octadecatrienoic acid, C18H30O2, InChI=1S/C18H30O2/c1-2-3-4-5-6-7-8-9-10-11-12-13-14-15-16-17-18(19)20/h3-4,6-7,9-10H,2,5,8,11-17H2,1H3,(H,19,20)/b4-3-,7-6-,10-9-

System: hexadecanoic acid; phases: Crystal, Liquid, Air at 1 atmosphere
Property: Normal melting temperature, K (Crystal); method: DTA
Normal melting temperature, K	uncertainty
336.25	0.4

System: hexadecanoic acid; phases: Crystal, Liquid, Air at 1 atmosphere
Property: Molar enthalpy of transition or fusion, kJ/mol (Crystal); method: DSC
Molar enthalpy of transition or fusion, kJ/mol	uncertainty
53.97726884	2.69245284

System: octadecanoic acid; phases: Crystal, Liquid, Air at 1 atmosphere
Property: Normal melting temperature, K (Crystal); method: DTA
Normal melting temperature, K	uncertainty
343.75	0.4

System: octadecanoic acid; phases: Crystal, Liquid, Air at 1 atmosphere
Property: Molar enthalpy of transition or fusion, kJ/mol (Crystal); method: DSC
Molar enthalpy of transition or fusion, kJ/mol	uncertainty
63.068604108	3.12924964

System: (Z)-9-octadecenoic acid; phases: Crystal 1, Liquid, Air at 1 atmosphere
Property: Normal melting temperature, K (Crystal 1); method: DTA
Normal melting temperature, K	uncertainty
286.85	0.4

System: (Z)-9-octadecenoic acid; phases: Crystal 1, Liquid, Air at 1 atmosphere
Property: Molar enthalpy of transition or fusion, kJ/mol (Crystal 1); method: DSC
Molar enthalpy of transition or fusion, kJ/mol	uncertainty
37.595607016	1.892491112

System: (Z)-9-octadecenoic acid; phases: Crystal 2, Crystal 1, Air at 1 atmosphere
Property: Triple point temperature, K (Crystal 2); method: DSC
Triple point temperature, K	uncertainty
268.95	0.8

System: (Z)-9-octadecenoic acid; phases: Crystal 2, Crystal 1, Air at 1 atmosphere
Property: Molar enthalpy of transition or fusion, kJ/mol (Crystal 2); method: DSC
Molar enthalpy of transition or fusion, kJ/mol	uncertainty
7.824179672	0.42369204

System: (Z,Z)-9,12-octadecadienoic acid; phases: Crystal, Liquid, Air at 1 atmosphere
Property: Normal melting temperature, K (Crystal); method: DTA
Normal melting temperature, K	uncertainty
267.75	0.4

System: (Z,Z)-9,12-octadecadienoic acid; phases: Crystal, Liquid, Air at 1 atmosphere
Property: Molar enthalpy of transition or fusion, kJ/mol (Crystal); method: DSC
Molar enthalpy of transition or fusion, kJ/mol	uncertainty
31.213581924	1.570494688

System: all-cis-9,12,15-octadecatrienoic acid; phases: Crystal, Liquid, Air at 1 atmosphere
Property: Normal melting temperature, K (Crystal); method: DTA
Normal melting temperature, K	uncertainty
262.25	0.4

System: all-cis-9,12,15-octadecatrienoic acid; phases: Crystal, Liquid, Air at 1 atmosphere
Property: Molar enthalpy of transition or fusion, kJ/mol (Crystal); method: DSC
Molar enthalpy of transition or fusion, kJ/mol	uncertainty
29.26295096	1.47567688

System: octadecanoic acid + (Z)-9-octadecenoic acid; phases: Crystal, Crystal, Liquid, Air at 1 atmosphere
Property: Eutectic temperature, K (Crystal); method: DTA
Eutectic temperature, K	uncertainty
286.55	0.4

System: octadecanoic acid + (Z)-9-octadecenoic acid; phases: Liquid, Crystal
Fixed: Pressure, kPa = 101.7
Property: Solid-liquid equilibrium temperature, K (Liquid); method: DTA
Mole fraction of octadecanoic acid	Solid-liquid equilibrium temperature, K	uncertainty
0.099	309.55	0.4
0.194	318.25	0.4
0.297	324.25	0.4
0.403	328.55	0.4
0.5	331.65	0.4
0.602	335.05	0.4
0.698	337.35	0.4
0.807	339.85	0.4
0.917	342.15	0.4
1	343.75	0.4

System: octadecanoic acid + (Z,Z)-9,12-octadecadienoic acid; phases: Crystal, Crystal, Liquid, Air at 1 atmosphere
Property: Eutectic temperature, K (Crystal); method: DTA
Eutectic temperature, K	uncertainty
265.75	0.4

System: octadecanoic acid + (Z,Z)-9,12-octadecadienoic acid; phases: Liquid, Crystal
Fixed: Pressure, kPa = 101.7
Property: Solid-liquid equilibrium temperature, K (Liquid); method: DTA
Mole fraction of octadecanoic acid	Solid-liquid equilibrium temperature, K	uncertainty
0.098	310.75	0.4
0.198	319.45	0.4
0.298	324.95	0.4
0.394	328.85	0.4
0.498	332.15	0.4
0.594	335.15	0.4
0.696	337.55	0.4
0.806	339.95	0.4
0.899	341.95	0.4
1	343.75	0.4

System: octadecanoic acid + all-cis-9,12,15-octadecatrienoic acid; phases: Crystal, Crystal, Liquid, Air at 1 atmosphere
Property: Eutectic temperature, K (Crystal); method: DTA
Eutectic temperature, K	uncertainty
260.95	0.4

System: octadecanoic acid + all-cis-9,12,15-octadecatrienoic acid; phases: Liquid, Crystal
Fixed: Pressure, kPa = 101.7
Property: Solid-liquid equilibrium temperature, K (Liquid); method: DTA
Mole fraction of octadecanoic acid	Solid-liquid equilibrium temperature, K	uncertainty
0.1	310.85	0.5
0.201	320.95	0.4
0.294	326.05	0.4
0.395	329.75	0.4
0.493	332.95	0.4
0.593	335.45	0.4
0.701	337.65	0.4
0.792	339.75	0.4
0.9	341.95	0.4
1	343.75	0.4

System: hexadecanoic acid + (Z)-9-octadecenoic acid; phases: Crystal, Crystal, Liquid, Air at 1 atmosphere
Property: Eutectic temperature, K (Crystal); method: DTA
Eutectic temperature, K	uncertainty
285.45	0.6

System: hexadecanoic acid + (Z)-9-octadecenoic acid; phases: Liquid, Crystal
Fixed: Pressure, kPa = 101.7
Property: Solid-liquid equilibrium temperature, K (Liquid); method: DTA
Mole fraction of hexadecanoic acid	Solid-liquid equilibrium temperature, K	uncertainty
0.113	300.45	0.4
0.225	309.45	0.4
0.329	316.45	0.4
0.45	321.95	0.4
0.532	324.25	0.4
0.638	327.75	0.4
0.721	330.25	0.4
0.818	332.45	0.4
0.923	335.05	0.4
1	336.25	0.4

System: hexadecanoic acid + (Z,Z)-9,12-octadecadienoic acid; phases: Crystal, Crystal, Liquid, Air at 1 atmosphere
Property: Eutectic temperature, K (Crystal); method: DTA
Eutectic temperature, K	uncertainty
265.75	0.6

System: hexadecanoic acid + (Z,Z)-9,12-octadecadienoic acid; phases: Liquid, Crystal
Fixed: Pressure, kPa = 101.7
Property: Solid-liquid equilibrium temperature, K (Liquid); method: DTA
Mole fraction of hexadecanoic acid	Solid-liquid equilibrium temperature, K	uncertainty
0.11	301.85	0.4
0.213	309.25	0.4
0.307	315.55	0.4
0.432	321.65	0.4
0.514	324.05	0.4
0.636	328.15	0.4
0.712	329.35	0.4
0.807	332.05	0.4
0.893	334.05	0.4
1	336.25	0.4

System: hexadecanoic acid + all-cis-9,12,15-octadecatrienoic acid; phases: Crystal, Crystal, Liquid, Air at 1 atmosphere
Property: Eutectic temperature, K (Crystal); method: DTA
Eutectic temperature, K	uncertainty
260.95	0.6

System: hexadecanoic acid + all-cis-9,12,15-octadecatrienoic acid; phases: Liquid, Crystal
Fixed: Pressure, kPa = 101.7
Property: Solid-liquid equilibrium temperature, K (Liquid); method: DTA
Mole fraction of hexadecanoic acid	Solid-liquid equilibrium temperature, K	uncertainty
0.109	302.25	0.4
0.216	312.05	0.4
0.317	316.65	0.4
0.417	321.25	0.4
0.52	325.05	0.4
0.623	328.25	0.4
0.709	330.15	0.4
0.805	332.15	0.4
0.895	334.15	0.4
1	336.25	0.4
