Measured thermophysical data. Experimental study on gallium activity in the liquid Ga In Tl alloys by EMF method with zirconia solid electrolyte
Source: Thermochim. Acta, 2005, 10.1016/j.tca.2005.01.061
Compound 1: gallium, Ga, InChI=1S/Ga, purity 99.9999%
Compound 2: indium, In, InChI=1S/In, purity 99.999%
Compound 3: thallium, Tl, InChI=1S/Tl, purity 99.999%

System: thallium + gallium + indium; phases: Liquid
Fixed: Pressure, kPa = 101.325
Property: Activity coefficient of gallium (Liquid); method: EMF measurement
Temperature, K	Mole fraction of gallium	Solvent: Mole fraction of indium	Activity coefficient of gallium	uncertainty
1073	0.1	0.25	2.214	0.111
1073	0.1	0.5	1.473	0.5
1073	0.1	0.75	1.471	0.5
1073	0.2	0.25	1.982	0.099
1073	0.2	0.5	1.831	0.092
1073	0.2	0.75	1.57	0.079
1073	0.4	0.25	1.608	0.08
1073	0.4	0.5	1.355	0.068
1073	0.4	0.75	1.334	0.067
1073	0.6	0.25	1.204	0.06
1073	0.6	0.5	1.206	0.06
1073	0.6	0.75	1.165	0.058
1073	0.76	0.75	1.076	0.054
1073	0.8	0.25	1.09	0.055
1073	0.8	0.5	1.053	0.053
1173	0.1	0.25	1.74	0.5
1173	0.1	0.5	1.371	0.5
1173	0.1	0.75	1.225	0.5
1173	0.2	0.25	1.793	0.09
1173	0.2	0.5	1.687	0.084
1173	0.2	0.75	1.568	0.078
1173	0.4	0.25	1.476	0.074
1173	0.4	0.5	1.308	0.065
1173	0.4	0.75	1.322	0.066
1173	0.6	0.25	1.106	0.055
1173	0.6	0.5	1.174	0.059
1173	0.6	0.75	1.125	0.056
1173	0.76	0.75	1.034	0.052
1173	0.8	0.25	1.04	0.052
1173	0.8	0.5	1.035	0.052
1273	0.1	0.25	1.42	0.5
1273	0.1	0.5	1.29	0.5
1273	0.1	0.75	1.05	0.5
1273	0.2	0.25	1.647	0.082
1273	0.2	0.5	1.575	0.079
1273	0.2	0.75	1.566	0.078
1273	0.4	0.25	1.372	0.069
1273	0.4	0.5	1.27	0.064
1273	0.4	0.75	1.313	0.066
1273	0.6	0.25	1.03	0.052
1273	0.6	0.5	1.148	0.057
1273	0.6	0.75	1.092	0.055
1273	0.76	0.75	1	0.05
1273	0.8	0.25	1	0.05
1273	0.8	0.5	1.019	0.051
