Measured thermophysical data. Enthalpies of dilution of aqueous solutions of n-butanol, butanediols, 1,2,4-butanetriol, and 1,2,3,4-butanetetrol at 298.15K
Source: Thermochim. Acta, 2005, 10.1016/j.tca.2005.06.014
Compound 1: water, H2O, InChI=1S/H2O/h1H2
Compound 2: 1,2-butanediol, C4H10O2, InChI=1S/C4H10O2/c1-2-4(6)3-5/h4-6H,2-3H2,1H3
Compound 3: 1,3-butanediol, C4H10O2, InChI=1S/C4H10O2/c1-4(6)2-3-5/h4-6H,2-3H2,1H3
Compound 4: 1,4-butanediol, C4H10O2, InChI=1S/C4H10O2/c5-3-1-2-4-6/h5-6H,1-4H2
Compound 5: 2,3-butanediol, C4H10O2, InChI=1S/C4H10O2/c1-3(5)4(2)6/h3-6H,1-2H3
Compound 6: 1,2,4-butanetriol, C4H10O3, InChI=1S/C4H10O3/c5-2-1-4(7)3-6/h4-7H,1-3H2
Compound 7: meso-1,2,3,4-butanetetrol, C4H10O4, InChI=1S/C4H10O4/c5-1-3(7)4(8)2-6/h3-8H,1-2H2/t3-,4+
Compound 8: butan-1-ol, C4H10O, InChI=1S/C4H10O/c1-2-3-4-5/h5H,2-4H2,1H3

System: 1,2-butanediol + water; phases: Liquid
Fixed: Temperature, K = 298.15
Fixed: Pressure, kPa = 101.325
Property: Molar enthalpy of dilution, kJ/mol (Liquid); method: Flow calorimetry
Initial molality of solute, mol/kg	Final molality of solute, mol/kg	Molar enthalpy of dilution, kJ/mol	uncertainty
0.3181	0.154	-0.1294	0.0023
0.4728	0.2273	-0.2012	0.003
0.5129	0.2461	-0.2131	0.0031
0.7251	0.3447	-0.3285	0.0043
0.9705	0.4564	-0.4462	0.0055
1.4991	0.689	-0.7194	0.0082
1.7288	0.7868	-0.865	0.0097
2.3694	1.0497	-1.2217	0.0132
2.6418	1.1574	-1.3936	0.0149
3.304	1.4093	-1.772	0.0187
3.9404	1.6392	-2.1418	0.0224
4.5069	1.8345	-2.3796	0.0248
5.203	2.0633	-2.7058	0.0281

System: 1,3-butanediol + water; phases: Liquid
Fixed: Temperature, K = 298.15
Fixed: Pressure, kPa = 101.325
Property: Molar enthalpy of dilution, kJ/mol (Liquid); method: Flow calorimetry
Initial molality of solute, mol/kg	Final molality of solute, mol/kg	Molar enthalpy of dilution, kJ/mol	uncertainty
0.4506	0.2101	-0.1428	0.0024
0.4979	0.2317	-0.1505	0.0025
0.5851	0.2712	-0.1935	0.0029
0.7361	0.3388	-0.2571	0.0036
0.9636	0.439	-0.3487	0.0045
1.482	0.6596	-0.5611	0.0066
1.7357	0.764	-0.6683	0.0077
2.4317	1.0389	-0.9539	0.0105
2.7568	1.1617	-1.1094	0.0121
3.3028	1.3608	-1.3113	0.0141
4.3911	1.7322	-1.7495	0.0185
5.1371	1.9691	-2.0233	0.0212

System: 1,4-butanediol + water; phases: Liquid
Fixed: Temperature, K = 298.15
Fixed: Pressure, kPa = 101.325
Property: Molar enthalpy of dilution, kJ/mol (Liquid); method: Flow calorimetry
Initial molality of solute, mol/kg	Final molality of solute, mol/kg	Molar enthalpy of dilution, kJ/mol	uncertainty
0.6734	0.3108	-0.2342	0.0033
0.8801	0.4024	-0.2692	0.0037
1.0332	0.4692	-0.3533	0.0045
1.1837	0.5339	-0.4059	0.0051
1.4756	0.657	-0.5118	0.0061
1.5963	0.707	-0.5961	0.007
1.7727	0.7791	-0.655	0.0076
2.4015	1.0273	-0.8743	0.0097
2.4368	1.0408	-0.8811	0.0098
2.6236	1.1118	-0.9439	0.0104
2.7561	1.1615	-0.9938	0.0109
2.8693	1.2035	-1.0333	0.0113
3.0943	1.2858	-1.1005	0.012
3.4218	1.403	-1.1994	0.013
3.6483	1.4822	-1.2587	0.0136
3.9837	1.597	-1.3371	0.0144
4.3605	1.7222	-1.4156	0.0152
4.626	1.8083	-1.4453	0.0155
4.6627	1.88	-1.5205	0.0162
4.9667	1.9162	-1.5399	0.0164
5.0193	1.9326	-1.5458	0.0165
5.2385	2	-1.6392	0.0174
5.939	2.2092	-1.7953	0.019
6.3088	2.3151	-1.8208	0.0192

System: 2,3-butanediol + water; phases: Liquid
Fixed: Temperature, K = 298.15
Fixed: Pressure, kPa = 101.325
Property: Molar enthalpy of dilution, kJ/mol (Liquid); method: Flow calorimetry
Initial molality of solute, mol/kg	Final molality of solute, mol/kg	Molar enthalpy of dilution, kJ/mol	uncertainty
0.2858	0.1381	-0.0971	0.002
0.5103	0.2441	-0.1585	0.0026
0.5972	0.2846	-0.2086	0.0031
0.6375	0.3032	-0.233	0.0033
0.7085	0.3359	-0.2512	0.0035
0.7651	0.3619	-0.2685	0.0037
0.8388	0.3954	-0.3022	0.004
1.2251	0.5678	-0.4852	0.0059
1.5591	0.7123	-0.6443	0.0074
2.0031	0.898	-0.8416	0.0094
3.2549	1.3861	-1.4294	0.0153
3.3033	1.404	-1.4497	0.0155
3.7334	1.56	-1.7478	0.0185
4.2572	1.743	-1.905	0.0201

System: 1,2,4-butanetriol + water; phases: Liquid
Fixed: Temperature, K = 298.15
Fixed: Pressure, kPa = 101.325
Property: Molar enthalpy of dilution, kJ/mol (Liquid); method: Flow calorimetry
Initial molality of solute, mol/kg	Final molality of solute, mol/kg	Molar enthalpy of dilution, kJ/mol	uncertainty
0.2751	0.129	-0.0522	0.0015
0.8247	0.3755	-0.2452	0.0035
1.4006	0.6188	-0.4245	0.0052
1.9688	0.8452	-0.5939	0.0069
2.5892	1.078	-0.7565	0.0086
3.1969	1.2928	-0.8854	0.0099
3.7991	1.4939	-0.9894	0.0109

System: meso-1,2,3,4-butanetetrol + water; phases: Liquid
Fixed: Temperature, K = 298.15
Fixed: Pressure, kPa = 101.325
Property: Molar enthalpy of dilution, kJ/mol (Liquid); method: Flow calorimetry
Initial molality of solute, mol/kg	Final molality of solute, mol/kg	Molar enthalpy of dilution, kJ/mol	uncertainty
0.3995	0.1938	-0.0079	0.0011
0.4977	0.2401	-0.0105	0.0011
0.5988	0.2871	-0.0129	0.0011
0.6904	0.3292	-0.0137	0.0011
0.7919	0.3754	-0.0156	0.0012

System: butan-1-ol + water; phases: Liquid
Fixed: Temperature, K = 298.15
Fixed: Pressure, kPa = 101.325
Property: Molar enthalpy of dilution, kJ/mol (Liquid); method: Flow calorimetry
Initial molality of solute, mol/kg	Final molality of solute, mol/kg	Molar enthalpy of dilution, kJ/mol	uncertainty
0.1861	0.0921	-0.1073	0.0021
0.3033	0.146	-0.1713	0.0027
0.3805	0.1829	-0.2131	0.0031
0.5006	0.2403	-0.2685	0.0037
0.5066	0.2431	-0.287	0.0039
0.513	0.2462	-0.3001	0.004
0.5649	0.271	-0.3242	0.0042
0.5661	0.2788	-0.3372	0.0044
0.6772	0.3243	-0.4404	0.0054
0.6796	0.3254	-0.4264	0.0053
0.7521	0.3601	-0.5337	0.0063
0.7526	0.3603	-0.5081	0.0061
0.8401	0.4016	-0.5728	0.0067
0.8837	0.4225	-0.6154	0.0072
0.9408	0.4492	-0.6912	0.0079
1.0923	0.5208	-0.8484	0.0095
