Measured thermophysical data. Vapor pressure of methylammonium halides. Part II: Vapor pressure and standard entropy of methylammonium bromide
Source: Thermochim. Acta, 2019, 10.1016/j.tca.2019.02.008
Compound 1: methylammonium bromide, CH6BrN, InChI=1S/CH5N.BrH/c1-2;/h2H2,1H3;1H

System: methylammonium bromide; phases: Crystal 3, Crystal 2, Air at 1 atmosphere
Property: Triple point temperature, K (Crystal 3); method: DSC
Triple point temperature, K	uncertainty
392.1	0.9

System: methylammonium bromide; phases: Crystal 2, Crystal 1, Air at 1 atmosphere
Property: Triple point temperature, K (Crystal 2); method: DSC
Triple point temperature, K	uncertainty
480.8	1.1

System: methylammonium bromide; phases: Crystal 1, Liquid, Air at 1 atmosphere
Property: Triple point temperature, K (Crystal 1); method: DSC
Triple point temperature, K	uncertainty
520.5	1

System: methylammonium bromide; phases: Crystal 3, Crystal 2, Air at 1 atmosphere
Property: Molar enthalpy of transition or fusion, kJ/mol (Crystal 3); method: DSC
Molar enthalpy of transition or fusion, kJ/mol	uncertainty
1.467	0.138

System: methylammonium bromide; phases: Crystal 2, Crystal 1, Air at 1 atmosphere
Property: Molar enthalpy of transition or fusion, kJ/mol (Crystal 2); method: DSC
Molar enthalpy of transition or fusion, kJ/mol	uncertainty
3.63	0.27

System: methylammonium bromide; phases: Crystal 2, Gas
Property: Vapor or sublimation pressure, kPa (Crystal 2); method: Transpiration method
Temperature, K	Vapor or sublimation pressure, kPa	uncertainty
433	0.0057	0.0006
444	0.0104	0.0011
454	0.0202	0.0022
463	0.0348	0.0037
468	0.0413	0.0044
473	0.0576	0.0061

System: methylammonium bromide; phases: Crystal 1, Gas
Property: Vapor or sublimation pressure, kPa (Crystal 1); method: Transpiration method
Temperature, K	Vapor or sublimation pressure, kPa	uncertainty
488	0.1234	0.0132
493	0.1563	0.0166
498	0.1897	0.0202
503	0.2394	0.0255
