Measured thermophysical data. Volumetric properties of binary liquid mixtures of alcohols with 1,2-dichloroethane at different  temperatures and atmospheric pressure
Source: Thermochim. Acta, 2012, 10.1016/j.tca.2012.05.004
Compound 1: propan-2-ol, C3H8O, InChI=1S/C3H8O/c1-3(2)4/h3-4H,1-2H3, purity 99%
Compound 2: butan-2-ol, C4H10O, InChI=1S/C4H10O/c1-3-4(2)5/h4-5H,3H2,1-2H3, purity 99%
Compound 3: pentan-2-ol, C5H12O, InChI=1S/C5H12O/c1-3-4-5(2)6/h5-6H,3-4H2,1-2H3, purity 99%
Compound 4: 2-hexanol, C6H14O, InChI=1S/C6H14O/c1-3-4-5-6(2)7/h6-7H,3-5H2,1-2H3, purity 99%
Compound 5: 2-octanol, C8H18O, InChI=1S/C8H18O/c1-3-4-5-6-7-8(2)9/h8-9H,3-7H2,1-2H3, purity 99%
Compound 6: 1,2-dichloroethane, C2H4Cl2, InChI=1S/C2H4Cl2/c3-1-2-4/h1-2H2, purity 99%

System: propan-2-ol; phases: Liquid
Fixed: Pressure, kPa = 101.325
Property: Mass density, kg/m3 (Liquid); method: Vibrating tube method
Temperature, K	Mass density, kg/m3	uncertainty
288.15	789.337	0.308
293.15	785.198	0.308
298.15	780.987	0.309
303.15	776.718	0.309
308.15	772.371	0.31
313.15	767.935	0.311

System: butan-2-ol; phases: Liquid
Fixed: Pressure, kPa = 101.325
Property: Mass density, kg/m3 (Liquid); method: Vibrating tube method
Temperature, K	Mass density, kg/m3	uncertainty
288.15	810.879	0.305
293.15	806.837	0.306
298.15	802.716	0.306
303.15	798.513	0.307
308.15	794.218	0.307
313.15	789.832	0.308

System: pentan-2-ol; phases: Liquid
Fixed: Pressure, kPa = 101.325
Property: Mass density, kg/m3 (Liquid); method: Vibrating tube method
Temperature, K	Mass density, kg/m3	uncertainty
288.15	813.272	0.305
293.15	809.305	0.306
298.15	805.27	0.306
303.15	801.157	0.307
308.15	796.97	0.307
313.15	792.702	0.308

System: 2-hexanol; phases: Liquid
Fixed: Pressure, kPa = 101.325
Property: Mass density, kg/m3 (Liquid); method: Vibrating tube method
Temperature, K	Mass density, kg/m3	uncertainty
288.15	818.064	0.305
293.15	814.174	0.305
298.15	810.227	0.306
303.15	806.225	0.306
308.15	802.16	0.307
313.15	798.04	0.307

System: 2-octanol; phases: Liquid
Fixed: Pressure, kPa = 101.325
Property: Mass density, kg/m3 (Liquid); method: Vibrating tube method
Temperature, K	Mass density, kg/m3	uncertainty
288.15	824.028	0.304
293.15	820.313	0.304
298.15	816.559	0.305
303.15	812.768	0.305
308.15	808.94	0.306
313.15	805.079	0.306

System: 1,2-dichloroethane; phases: Liquid
Fixed: Pressure, kPa = 101.325
Property: Mass density, kg/m3 (Liquid); method: Vibrating tube method
Temperature, K	Mass density, kg/m3	uncertainty
288.15	1259.993	0.579
293.15	1252.768	0.571
298.15	1245.495	0.563
303.15	1238.183	0.555
308.15	1230.839	0.546
313.15	1223.459	0.538

System: propan-2-ol + 1,2-dichloroethane; phases: Liquid
Fixed: Pressure, kPa = 101.3
Property: Mass density, kg/m3 (Liquid); method: Vibrating tube method
Temperature, K	Mole fraction of propan-2-ol	Mass density, kg/m3	uncertainty
288.15	0.05	1235.817	0.558
288.15	0.1004	1211.741	0.531
288.15	0.1497	1188.259	0.505
288.15	0.2	1164.606	0.479
288.15	0.25	1141.224	0.454
288.15	0.3002	1117.875	0.429
288.15	0.3502	1094.706	0.405
288.15	0.4001	1071.465	0.381
288.15	0.4503	1048.285	0.358
288.15	0.4996	1025.407	0.335
288.15	0.5502	1002.001	0.312
288.15	0.6	978.769	0.31
288.15	0.6498	955.713	0.31
288.15	0.7	932.242	0.311
288.15	0.75	908.934	0.312
288.15	0.7996	885.608	0.313
288.15	0.8495	861.973	0.315
288.15	0.8998	837.957	0.316
288.15	0.9497	813.892	0.318
293.15	0.05	1228.611	0.55
293.15	0.1004	1204.56	0.523
293.15	0.1497	1181.191	0.497
293.15	0.2	1157.641	0.472
293.15	0.25	1134.37	0.447
293.15	0.3002	1111.145	0.422
293.15	0.3502	1088.108	0.398
293.15	0.4001	1065.131	0.375
293.15	0.4503	1042.071	0.351
293.15	0.4996	1019.317	0.329
293.15	0.5502	996.011	0.31
293.15	0.6	972.943	0.31
293.15	0.6498	950.066	0.31
293.15	0.7	926.773	0.311
293.15	0.75	903.601	0.312
293.15	0.7996	880.568	0.313
293.15	0.8495	857.114	0.315
293.15	0.8998	833.329	0.316
293.15	0.9497	809.502	0.319
298.15	0.05	1221.385	0.542
298.15	0.1004	1197.377	0.515
298.15	0.1497	1174.093	0.489
298.15	0.2	1150.63	0.464
298.15	0.25	1127.473	0.439
298.15	0.3002	1104.368	0.415
298.15	0.3502	1081.459	0.391
298.15	0.4001	1058.718	0.368
298.15	0.4503	1035.704	0.345
298.15	0.4996	1013.104	0.323
298.15	0.5502	989.957	0.31
298.15	0.6	967.056	0.31
298.15	0.6498	944.351	0.31
298.15	0.7	921.244	0.311
298.15	0.75	898.262	0.312
298.15	0.7996	875.378	0.313
298.15	0.8495	852.182	0.315
298.15	0.8998	828.632	0.317
298.15	0.9497	805.032	0.319
303.15	0.05	1214.129	0.533
303.15	0.1004	1190.169	0.507
303.15	0.1497	1166.955	0.482
303.15	0.2	1143.585	0.456
303.15	0.25	1120.533	0.432
303.15	0.3002	1097.544	0.408
303.15	0.3502	1074.758	0.384
303.15	0.4001	1052.152	0.361
303.15	0.4503	1029.279	0.339
303.15	0.4996	1006.83	0.316
303.15	0.5502	983.831	0.31
303.15	0.6	961.099	0.31
303.15	0.6498	938.562	0.31
303.15	0.7	915.641	0.311
303.15	0.75	892.85	0.312
303.15	0.7996	870.212	0.313
303.15	0.8495	847.228	0.315
303.15	0.8998	823.858	0.317
303.15	0.9497	800.505	0.319
308.15	0.05	1206.714	0.525
308.15	0.1004	1182.927	0.499
308.15	0.1497	1159.78	0.474
308.15	0.2	1136.498	0.449
308.15	0.25	1113.536	0.425
308.15	0.3002	1090.671	0.401
308.15	0.3502	1068.003	0.377
308.15	0.4001	1045.522	0.355
308.15	0.4503	1022.791	0.332
308.15	0.4996	1000.488	0.31
308.15	0.5502	977.648	0.31
308.15	0.6	955.079	0.31
308.15	0.6498	932.714	0.31
308.15	0.7	909.966	0.311
308.15	0.75	887.36	0.312
308.15	0.7996	864.918	0.313
308.15	0.8495	842.144	0.315
308.15	0.8998	819.006	0.317
308.15	0.9497	795.891	0.319
313.15	0.05	1199.456	0.517
313.15	0.1004	1175.66	0.491
313.15	0.1497	1152.57	0.466
313.15	0.2	1129.371	0.441
313.15	0.25	1106.499	0.417
313.15	0.3002	1083.745	0.393
313.15	0.3502	1061.19	0.37
313.15	0.4001	1038.828	0.348
313.15	0.4503	1016.232	0.325
313.15	0.4996	994.079	0.309
313.15	0.5502	971.39	0.31
313.15	0.6	948.987	0.31
313.15	0.6498	926.783	0.31
313.15	0.7	904.209	0.311
313.15	0.75	881.789	0.312
313.15	0.7996	859.549	0.313
313.15	0.8495	836.984	0.315
313.15	0.8998	814.085	0.317
313.15	0.9497	791.195	0.319

System: butan-2-ol + 1,2-dichloroethane; phases: Liquid
Fixed: Pressure, kPa = 101.3
Property: Mass density, kg/m3 (Liquid); method: Vibrating tube method
Temperature, K	Mole fraction of butan-2-ol	Mass density, kg/m3	uncertainty
288.15	0.0503	1231.767	0.555
288.15	0.0999	1204.934	0.526
288.15	0.1498	1179.012	0.497
288.15	0.1999	1153.692	0.469
288.15	0.2505	1128.433	0.442
288.15	0.2963	1106.344	0.418
288.15	0.3503	1080.629	0.391
288.15	0.3995	1057.913	0.367
288.15	0.4501	1034.979	0.344
288.15	0.4993	1013.035	0.322
288.15	0.5486	991.648	0.308
288.15	0.6	969.557	0.308
288.15	0.6493	948.744	0.308
288.15	0.6999	928.023	0.308
288.15	0.7499	907.77	0.308
288.15	0.7998	887.96	0.309
288.15	0.8498	868.538	0.309
288.15	0.8997	849.217	0.31
288.15	0.95	829.951	0.312
293.15	0.0503	1224.62	0.547
293.15	0.0999	1197.877	0.518
293.15	0.1498	1172.061	0.489
293.15	0.1999	1146.88	0.461
293.15	0.2505	1121.758	0.434
293.15	0.2963	1099.804	0.411
293.15	0.3503	1074.291	0.384
293.15	0.3995	1051.707	0.361
293.15	0.4501	1028.922	0.338
293.15	0.4993	1007.135	0.316
293.15	0.5486	985.947	0.308
293.15	0.6	963.995	0.308
293.15	0.6493	943.35	0.308
293.15	0.6999	922.806	0.308
293.15	0.7499	902.736	0.308
293.15	0.7998	883.21	0.309
293.15	0.8498	863.861	0.309
293.15	0.8997	844.779	0.31
293.15	0.95	825.697	0.312
298.15	0.0503	1217.448	0.539
298.15	0.0999	1190.796	0.51
298.15	0.1498	1165.088	0.481
298.15	0.1999	1140.027	0.454
298.15	0.2505	1115.05	0.427
298.15	0.2963	1093.224	0.404
298.15	0.3503	1067.219	0.377
298.15	0.3995	1045.446	0.354
298.15	0.4501	1022.814	0.331
298.15	0.4993	1001.187	0.31
298.15	0.5486	980.168	0.308
298.15	0.6	958.381	0.308
298.15	0.6493	937.897	0.308
298.15	0.6999	917.532	0.308
298.15	0.7499	897.63	0.308
298.15	0.7998	878.173	0.309
298.15	0.8498	859.123	0.309
298.15	0.8997	840.238	0.311
298.15	0.95	821.349	0.312
303.15	0.0503	1210.25	0.531
303.15	0.0999	1183.688	0.502
303.15	0.1498	1158.085	0.474
303.15	0.1999	1133.143	0.447
303.15	0.2505	1108.3	0.42
303.15	0.2963	1086.602	0.397
303.15	0.3503	1061.501	0.371
303.15	0.3995	1039.112	0.348
303.15	0.4501	1016.66	0.325
303.15	0.4993	995.186	0.308
303.15	0.5486	974.12	0.308
303.15	0.6	952.707	0.308
303.15	0.6493	932.387	0.308
303.15	0.6999	912.188	0.308
303.15	0.7499	892.466	0.308
303.15	0.7998	873.288	0.309
303.15	0.8498	854.308	0.31
303.15	0.8997	835.615	0.311
303.15	0.95	816.932	0.312
308.15	0.0503	1203.018	0.524
308.15	0.0999	1176.554	0.494
308.15	0.1498	1151.048	0.466
308.15	0.1999	1126.225	0.439
308.15	0.2505	1101.512	0.413
308.15	0.2963	1079.937	0.39
308.15	0.3503	1055.055	0.364
308.15	0.3995	1032.786	0.342
308.15	0.4501	1010.447	0.319
308.15	0.4993	989.131	0.308
308.15	0.5486	968.223	0.308
308.15	0.6	946.966	0.308
308.15	0.6493	926.811	0.308
308.15	0.6999	906.776	0.308
308.15	0.7499	887.227	0.308
308.15	0.7998	868.11	0.309
308.15	0.8498	849.413	0.31
308.15	0.8997	830.908	0.311
308.15	0.95	812.451	0.312
313.15	0.0503	1195.772	0.516
313.15	0.0999	1169.396	0.486
313.15	0.1498	1143.989	0.458
313.15	0.1999	1119.269	0.432
313.15	0.2505	1094.684	0.406
313.15	0.2963	1073.225	0.383
313.15	0.3503	1048.254	0.357
313.15	0.3995	1026.288	0.335
313.15	0.4501	1004.186	0.313
313.15	0.4993	983.023	0.308
313.15	0.5486	962.22	0.308
313.15	0.6	941.176	0.308
313.15	0.6493	921.174	0.308
313.15	0.6999	901.308	0.308
313.15	0.7499	881.93	0.308
313.15	0.7998	863.093	0.309
313.15	0.8498	844.444	0.31
313.15	0.8997	826.085	0.311
313.15	0.95	807.826	0.313

System: 1,2-dichloroethane + pentan-2-ol; phases: Liquid
Fixed: Pressure, kPa = 101.3
Property: Mass density, kg/m3 (Liquid); method: Vibrating tube method
Temperature, K	Mole fraction of pentan-2-ol	Mass density, kg/m3	uncertainty
288.15	0.0509	1226.719	0.553
288.15	0.0999	1196.474	0.519
288.15	0.1497	1167.332	0.487
288.15	0.2001	1139.133	0.455
288.15	0.2502	1112.604	0.426
288.15	0.2998	1087.39	0.399
288.15	0.3504	1062.463	0.373
288.15	0.4003	1038.872	0.348
288.15	0.4498	1016.423	0.325
288.15	0.4996	994.615	0.308
288.15	0.55	973.401	0.307
288.15	0.5998	953.123	0.307
288.15	0.6497	933.494	0.307
288.15	0.6997	914.579	0.306
288.15	0.7493	896.637	0.306
288.15	0.8001	878.694	0.307
288.15	0.8497	861.674	0.307
288.15	0.8991	845.438	0.308
288.15	0.9504	828.863	0.309
293.15	0.0509	1219.63	0.545
293.15	0.0999	1189.528	0.512
293.15	0.1497	1160.545	0.479
293.15	0.2001	1132.518	0.448
293.15	0.2502	1106.175	0.419
293.15	0.2998	1081.126	0.393
293.15	0.3504	1056.397	0.367
293.15	0.4003	1032.996	0.342
293.15	0.4498	1010.706	0.319
293.15	0.4996	989.082	0.308
293.15	0.55	967.993	0.307
293.15	0.5998	947.916	0.307
293.15	0.6497	928.405	0.306
293.15	0.6997	909.663	0.306
293.15	0.7493	891.863	0.306
293.15	0.8001	874.079	0.307
293.15	0.8497	857.211	0.307
293.15	0.8991	841.13	0.308
293.15	0.9504	824.722	0.309
298.15	0.0509	1212.518	0.537
298.15	0.0999	1182.559	0.504
298.15	0.1497	1153.737	0.472
298.15	0.2001	1125.874	0.441
298.15	0.2502	1099.706	0.413
298.15	0.2998	1074.824	0.386
298.15	0.3504	1050.276	0.36
298.15	0.4003	1027.053	0.336
298.15	0.4498	1004.926	0.314
298.15	0.4996	983.473	0.308
298.15	0.55	962.539	0.307
298.15	0.5998	942.637	0.307
298.15	0.6497	923.275	0.306
298.15	0.6997	904.685	0.306
298.15	0.7493	887.037	0.307
298.15	0.8001	869.408	0.307
298.15	0.8497	852.695	0.308
298.15	0.8991	836.763	0.308
298.15	0.9504	820.52	0.309
303.15	0.0509	1205.374	0.529
303.15	0.0999	1175.558	0.496
303.15	0.1497	1146.895	0.464
303.15	0.2001	1119.193	0.434
303.15	0.2502	1093.195	0.406
303.15	0.2998	1068.479	0.38
303.15	0.3504	1044.104	0.354
303.15	0.4003	1021.057	0.33
303.15	0.4498	999.094	0.309
303.15	0.4996	977.807	0.308
303.15	0.55	957.039	0.307
303.15	0.5998	937.302	0.307
303.15	0.6497	918.089	0.307
303.15	0.6997	899.659	0.306
303.15	0.7493	882.154	0.307
303.15	0.8001	864.68	0.307
303.15	0.8497	848.111	0.308
303.15	0.8991	832.331	0.308
303.15	0.9504	816.244	0.31
308.15	0.0509	1198.201	0.521
308.15	0.0999	1168.527	0.489
308.15	0.1497	1140.023	0.457
308.15	0.2001	1112.479	0.427
308.15	0.2502	1086.649	0.399
308.15	0.2998	1062.096	0.373
308.15	0.3504	1037.892	0.348
308.15	0.4003	1015.014	0.324
308.15	0.4498	993.214	0.308
308.15	0.4996	972.094	0.308
308.15	0.55	951.485	0.307
308.15	0.5998	931.911	0.307
308.15	0.6497	912.85	0.307
308.15	0.6997	894.573	0.307
308.15	0.7493	877.213	0.307
308.15	0.8001	859.891	0.307
308.15	0.8497	843.467	0.308
308.15	0.8991	827.833	0.309
308.15	0.9504	811.899	0.31
313.15	0.0509	1191.001	0.513
313.15	0.0999	1161.464	0.481
313.15	0.1497	1133.119	0.449
313.15	0.2001	1105.727	0.42
313.15	0.2502	1080.064	0.392
313.15	0.2998	1055.675	0.366
313.15	0.3504	1031.634	0.341
313.15	0.4003	1008.924	0.318
313.15	0.4498	987.283	0.308
313.15	0.4996	966.328	0.307
313.15	0.55	945.875	0.307
313.15	0.5998	926.465	0.307
313.15	0.6497	907.552	0.307
313.15	0.6997	889.432	0.307
313.15	0.7493	872.217	0.307
313.15	0.8001	855.042	0.308
313.15	0.8497	838.76	0.308
313.15	0.8991	823.267	0.309
313.15	0.9504	807.481	0.31

System: 1,2-dichloroethane + 2-hexanol; phases: Liquid
Fixed: Pressure, kPa = 101.3
Property: Mass density, kg/m3 (Liquid); method: Vibrating tube method
Temperature, K	Mole fraction of 2-hexanol	Mass density, kg/m3	uncertainty
288.15	0.0502	1223.076	0.552
288.15	0.0999	1188.971	0.514
288.15	0.1504	1157.178	0.478
288.15	0.2001	1126.221	0.443
288.15	0.2498	1099.978	0.414
288.15	0.2995	1073.957	0.386
288.15	0.3499	1048.884	0.36
288.15	0.3999	1025.351	0.335
288.15	0.45	1003.143	0.311
288.15	0.4994	982.243	0.307
288.15	0.5501	961.948	0.306
288.15	0.5999	942.875	0.306
288.15	0.6498	924.759	0.305
288.15	0.6995	907.657	0.305
288.15	0.7499	891.009	0.305
288.15	0.8004	874.928	0.305
288.15	0.8499	859.958	0.306
288.15	0.8998	845.485	0.306
288.15	0.9482	831.995	0.307
293.15	0.0502	1216.041	0.544
293.15	0.0999	1182.134	0.506
293.15	0.1504	1150.561	0.471
293.15	0.2001	1120.722	0.437
293.15	0.2498	1093.761	0.407
293.15	0.2995	1068.006	0.38
293.15	0.3499	1043.055	0.353
293.15	0.3999	1019.688	0.329
293.15	0.45	997.678	0.308
293.15	0.4994	976.929	0.307
293.15	0.5501	956.802	0.306
293.15	0.5999	937.885	0.306
293.15	0.6498	919.925	0.305
293.15	0.6995	903.05	0.305
293.15	0.7499	886.457	0.305
293.15	0.8004	870.513	0.305
293.15	0.8499	855.674	0.306
293.15	0.8998	841.327	0.306
293.15	0.9482	827.968	0.307
298.15	0.0502	1208.978	0.537
298.15	0.0999	1175.267	0.499
298.15	0.1504	1143.903	0.463
298.15	0.2001	1114.915	0.431
298.15	0.2498	1087.503	0.401
298.15	0.2995	1061.965	0.374
298.15	0.3499	1037.182	0.347
298.15	0.3999	1013.987	0.323
298.15	0.45	992.164	0.308
298.15	0.4994	971.582	0.307
298.15	0.5501	951.619	0.306
298.15	0.5999	932.861	0.306
298.15	0.6498	915.048	0.305
298.15	0.6995	898.319	0.305
298.15	0.7499	881.863	0.305
298.15	0.8004	866.056	0.306
298.15	0.8499	851.345	0.306
298.15	0.8998	837.125	0.307
298.15	0.9482	823.889	0.307
303.15	0.0502	1201.898	0.529
303.15	0.0999	1168.367	0.491
303.15	0.1504	1137.214	0.456
303.15	0.2001	1108.437	0.424
303.15	0.2498	1081.197	0.394
303.15	0.2995	1055.854	0.367
303.15	0.3499	1031.251	0.341
303.15	0.3999	1008.242	0.317
303.15	0.45	986.594	0.308
303.15	0.4994	966.175	0.307
303.15	0.5501	946.386	0.306
303.15	0.5999	927.787	0.306
303.15	0.6498	910.129	0.305
303.15	0.6995	893.543	0.305
303.15	0.7499	877.224	0.306
303.15	0.8004	861.55	0.306
303.15	0.8499	846.966	0.306
303.15	0.8998	832.874	0.307
303.15	0.9482	819.755	0.308
308.15	0.0502	1194.776	0.521
308.15	0.0999	1161.448	0.484
308.15	0.1504	1130.491	0.449
308.15	0.2001	1101.9	0.417
308.15	0.2498	1074.852	0.388
308.15	0.2995	1049.7	0.361
308.15	0.3499	1025.278	0.335
308.15	0.3999	1002.45	0.311
308.15	0.45	980.978	0.308
308.15	0.4994	960.716	0.307
308.15	0.5501	941.113	0.306
308.15	0.5999	922.674	0.306
308.15	0.6498	905.161	0.305
308.15	0.6995	888.715	0.305
308.15	0.7499	872.535	0.306
308.15	0.8004	856.996	0.306
308.15	0.8499	842.537	0.307
308.15	0.8998	828.565	0.307
308.15	0.9482	815.567	0.308
313.15	0.0502	1187.629	0.513
313.15	0.0999	1154.497	0.476
313.15	0.1504	1123.739	0.441
313.15	0.2001	1095.329	0.41
313.15	0.2498	1068.471	0.381
313.15	0.2995	1043.511	0.354
313.15	0.3499	1019.263	0.329
313.15	0.3999	996.615	0.309
313.15	0.45	975.219	0.307
313.15	0.4994	955.218	0.306
313.15	0.5501	935.792	0.306
313.15	0.5999	917.511	0.306
313.15	0.6498	900.15	0.305
313.15	0.6995	883.843	0.305
313.15	0.7499	867.8	0.306
313.15	0.8004	852.392	0.306
313.15	0.8499	838.058	0.307
313.15	0.8998	824.204	0.307
313.15	0.9482	811.322	0.308

System: 1,2-dichloroethane + 2-octanol; phases: Liquid
Fixed: Pressure, kPa = 101.3
Property: Mass density, kg/m3 (Liquid); method: Vibrating tube method
Temperature, K	Mole fraction of 2-octanol	Mass density, kg/m3	uncertainty
288.15	0.0499	1215.156	0.55
288.15	0.1	1175.115	0.505
288.15	0.1503	1139.012	0.463
288.15	0.2006	1106.432	0.425
288.15	0.2498	1077.37	0.393
288.15	0.3002	1050.056	0.363
288.15	0.35	1025.535	0.336
288.15	0.3999	1002.854	0.311
288.15	0.4499	981.685	0.307
288.15	0.4999	962.134	0.306
288.15	0.5503	943.764	0.305
288.15	0.5992	927.273	0.304
288.15	0.6492	911.359	0.304
288.15	0.6989	896.738	0.303
288.15	0.7503	882.325	0.303
288.15	0.7989	869.78	0.303
288.15	0.8497	857.292	0.304
288.15	0.899	845.686	0.304
288.15	0.9492	834.672	0.305
293.15	0.0499	1208.222	0.542
293.15	0.1	1168.447	0.497
293.15	0.1503	1132.674	0.456
293.15	0.2006	1100.332	0.419
293.15	0.2498	1071.555	0.386
293.15	0.3002	1044.592	0.357
293.15	0.35	1020.164	0.33
293.15	0.3999	997.633	0.308
293.15	0.4499	976.658	0.307
293.15	0.4999	957.22	0.305
293.15	0.5503	939.011	0.304
293.15	0.5992	922.663	0.304
293.15	0.6492	906.886	0.303
293.15	0.6989	892.39	0.303
293.15	0.7503	878.102	0.303
293.15	0.7989	865.66	0.304
293.15	0.8497	853.282	0.304
293.15	0.899	841.775	0.304
293.15	0.9492	830.858	0.305
298.15	0.0499	1201.269	0.534
298.15	0.1	1161.758	0.49
298.15	0.1503	1126.333	0.449
298.15	0.2006	1094.177	0.412
298.15	0.2498	1065.657	0.38
298.15	0.3002	1038.959	0.351
298.15	0.35	1014.696	0.325
298.15	0.3999	992.342	0.308
298.15	0.4499	971.558	0.307
298.15	0.4999	952.273	0.305
298.15	0.5503	934.225	0.304
298.15	0.5992	918.023	0.304
298.15	0.6492	902.382	0.304
298.15	0.6989	888.013	0.304
298.15	0.7503	873.846	0.304
298.15	0.7989	861.514	0.304
298.15	0.8497	849.241	0.304
298.15	0.899	837.835	0.305
298.15	0.9492	827.012	0.305
303.15	0.0499	1194.287	0.527
303.15	0.1	1155.049	0.483
303.15	0.1503	1119.848	0.442
303.15	0.2006	1087.986	0.406
303.15	0.2498	1059.713	0.374
303.15	0.3002	1033.255	0.345
303.15	0.35	1009.18	0.319
303.15	0.3999	987.014	0.308
303.15	0.4499	966.415	0.306
303.15	0.4999	947.296	0.305
303.15	0.5503	929.407	0.304
303.15	0.5992	913.351	0.304
303.15	0.6492	897.844	0.304
303.15	0.6989	883.603	0.304
303.15	0.7503	869.558	0.304
303.15	0.7989	857.336	0.304
303.15	0.8497	845.167	0.304
303.15	0.899	833.858	0.305
303.15	0.9492	823.127	0.306
308.15	0.0499	1187.274	0.519
308.15	0.1	1148.31	0.475
308.15	0.1503	1113.381	0.435
308.15	0.2006	1081.764	0.399
308.15	0.2498	1053.728	0.368
308.15	0.3	1027.492	0.339
308.15	0.35	1003.621	0.313
308.15	0.3999	981.649	0.308
308.15	0.4499	961.229	0.306
308.15	0.4999	942.282	0.305
308.15	0.5503	924.551	0.304
308.15	0.5992	908.639	0.304
308.15	0.6492	893.27	0.304
308.15	0.6989	879.157	0.304
308.15	0.7503	865.235	0.304
308.15	0.7989	853.118	0.304
308.15	0.8497	841.058	0.305
308.15	0.899	829.849	0.305
308.15	0.9492	819.211	0.306
313.15	0.0499	1180.235	0.511
313.15	0.1	1141.54	0.468
313.15	0.1503	1106.886	0.428
313.15	0.2006	1075.512	0.392
313.15	0.2498	1047.71	0.361
313.15	0.3002	1021.693	0.333
313.15	0.35	998.027	0.309
313.15	0.3999	976.252	0.307
313.15	0.4499	956.01	0.306
313.15	0.4999	937.233	0.305
313.15	0.5503	919.661	0.304
313.15	0.5992	903.897	0.304
313.15	0.6492	888.66	0.304
313.15	0.6989	874.674	0.304
313.15	0.7503	860.873	0.304
313.15	0.7989	848.865	0.304
313.15	0.8497	836.912	0.305
313.15	0.899	825.799	0.305
313.15	0.9492	815.252	0.306
