Measured thermophysical data. Volumetric and transport properties of ternary mixtures containing 1-propanol + ethyl ethanoate + cyclohexane or benzene at 303.15 K: Experimental data, correlation and prediction by ERAS model
Source: Thermochim. Acta, 2009, 10.1016/j.tca.2008.11.007
Compound 1: cyclohexane, C6H12, InChI=1S/C6H12/c1-2-4-6-5-3-1/h1-6H2
Compound 2: benzene, C6H6, InChI=1S/C6H6/c1-2-4-6-5-3-1/h1-6H
Compound 3: propan-1-ol, C3H8O, InChI=1S/C3H8O/c1-2-3-4/h4H,2-3H2,1H3
Compound 4: ethyl acetate, C4H8O2, InChI=1S/C4H8O2/c1-3-6-4(2)5/h3H2,1-2H3

System: cyclohexane; phases: Liquid
Property: Mass density, kg/m3 (Liquid); method: Vibrating tube method
Temperature, K	Pressure, kPa	Mass density, kg/m3	uncertainty
303.15	101.325	769.12	0.13

System: cyclohexane; phases: Liquid
Property: Viscosity, Pa*s (Liquid); method: Capillary tube (Ostwald; Ubbelohde) method
Temperature, K	Pressure, kPa	Viscosity, Pa*s	uncertainty
303.15	101.325	0.000821	6e-06

System: benzene; phases: Liquid
Property: Mass density, kg/m3 (Liquid); method: Vibrating tube method
Temperature, K	Pressure, kPa	Mass density, kg/m3	uncertainty
303.15	101.325	868.42	0.09

System: benzene; phases: Liquid
Property: Viscosity, Pa*s (Liquid); method: Capillary tube (Ostwald; Ubbelohde) method
Temperature, K	Pressure, kPa	Viscosity, Pa*s	uncertainty
303.15	101.325	0.000562	5e-06

System: propan-1-ol; phases: Liquid
Property: Mass density, kg/m3 (Liquid); method: Vibrating tube method
Temperature, K	Pressure, kPa	Mass density, kg/m3	uncertainty
303.15	101.325	795.61	0.12

System: propan-1-ol; phases: Liquid
Property: Viscosity, Pa*s (Liquid); method: Capillary tube (Ostwald; Ubbelohde) method
Temperature, K	Pressure, kPa	Viscosity, Pa*s	uncertainty
303.15	101.325	0.001726	1e-05

System: ethyl acetate; phases: Liquid
Property: Mass density, kg/m3 (Liquid); method: Vibrating tube method
Temperature, K	Pressure, kPa	Mass density, kg/m3	uncertainty
303.15	101.325	888.5	0.12

System: ethyl acetate; phases: Liquid
Property: Viscosity, Pa*s (Liquid); method: Capillary tube (Ostwald; Ubbelohde) method
Temperature, K	Pressure, kPa	Viscosity, Pa*s	uncertainty
303.15	101.325	0.0004	5e-06

System: propan-1-ol + cyclohexane + ethyl acetate; phases: Liquid
Fixed: Pressure, kPa = 101
Fixed: Temperature, K = 303.15
Property: Viscosity, Pa*s (Liquid); method: Capillary tube (Ostwald; Ubbelohde) method
Mole fraction of propan-1-ol	Mole fraction of ethyl acetate	Viscosity, Pa*s	uncertainty
0.0666	0.698	0.00046	5e-06
0.0722	0.2319	0.0006	5e-06
0.0736	0.4861	0.000504	5e-06
0.1302	0.2175	0.000621	6e-06
0.1309	0.6499	0.000494	5e-06
0.1441	0.4491	0.000528	5e-06
0.1923	0.604	0.000511	5e-06
0.2062	0.1985	0.000644	6e-06
0.2091	0.415	0.000552	5e-06
0.2496	0.5611	0.000521	5e-06
0.2592	0.3887	0.000571	5e-06
0.2637	0.1841	0.000676	6e-06
0.3085	0.5171	0.000538	5e-06
0.3187	0.3575	0.000593	5e-06
0.3202	0.17	0.000696	6e-06
0.3407	0.1648	0.000707	6e-06
0.3664	0.3325	0.000611	6e-06
0.3684	0.4723	0.000554	5e-06
0.3886	0.4572	0.000561	5e-06
0.4314	0.1422	0.000767	6e-06
0.4346	0.2967	0.000657	6e-06
0.4539	0.4084	0.000605	6e-06
0.4802	0.2727	0.000693	6e-06
0.4907	0.1273	0.000816	6e-06
0.5216	0.3577	0.000666	6e-06
0.5295	0.2469	0.000738	6e-06
0.551	0.1123	0.000885	7e-06
0.6717	0.2455	0.000887	7e-06
0.6718	0.1722	0.000941	7e-06
0.6794	0.0801	0.001057	7e-06
0.8427	0.1176	0.001279	9e-06
0.8447	0.0815	0.001326	9e-06
0.857	0.0359	0.001404	9e-06

System: propan-1-ol + cyclohexane + ethyl acetate; phases: Liquid
Fixed: Pressure, kPa = 101
Fixed: Temperature, K = 303.15
Property: Mass density, kg/m3 (Liquid); method: Vibrating tube method
Mole fraction of propan-1-ol	Mole fraction of ethyl acetate	Mass density, kg/m3	uncertainty
0.1247	0.4593	816.71	0.11
0.146	0.2135	790.53	0.12
0.1553	0.6316	841.08	0.1
0.2567	0.39	814.15	0.11
0.2702	0.1825	790.78	0.12
0.2765	0.541	835.59	0.11
0.3785	0.3261	811.64	0.12
0.3834	0.1542	791.09	0.12
0.4086	0.4423	829.4	0.11
0.4828	0.2714	809.42	0.12
0.4897	0.1276	791.55	0.13
0.5112	0.3655	824.39	0.12
0.5794	0.2207	807.16	0.13
0.5867	0.1033	791.92	0.13
0.6065	0.2943	819.49	0.12
0.6717	0.2455	815.92	0.13
0.6718	0.1722	804.93	0.13
0.6794	0.0801	792.48	0.13
0.7641	0.059	793.02	0.14
0.7641	0.1764	810.57	0.13
0.7671	0.1222	802.45	0.13
0.8427	0.1176	805.83	0.14
0.8447	0.0815	800.25	0.14
0.857	0.0358	793.79	0.14
0.9193	0.0603	800.98	0.14
0.9258	0.0389	797.86	0.14
0.9311	0.0172	794.72	0.14

System: propan-1-ol + benzene + ethyl acetate; phases: Liquid
Fixed: Pressure, kPa = 101
Fixed: Temperature, K = 303.15
Property: Viscosity, Pa*s (Liquid); method: Capillary tube (Ostwald; Ubbelohde) method
Mole fraction of propan-1-ol	Mole fraction of ethyl acetate	Viscosity, Pa*s	uncertainty
0.1875	0.6083	0.000485	5e-06
0.1925	0.4062	0.00052	5e-06
0.2175	0.2031	0.000535	5e-06
0.2362	0.3843	0.000544	5e-06
0.246	0.5645	0.000513	5e-06
0.3828	0.1603	0.000646	6e-06
0.401	0.3013	0.00066	6e-06
0.4212	0.4333	0.000628	6e-06
0.4572	0.2733	0.00071	6e-06
0.4676	0.3986	0.000671	6e-06
0.4913	0.1321	0.000747	6e-06
0.4963	0.2533	0.000748	6e-06
0.5222	0.3577	0.00073	6e-06
0.5444	0.1183	0.000803	6e-06
0.6377	0.1822	0.00091	7e-06
0.6579	0.0888	0.000945	7e-06
0.6854	0.1584	0.00098	7e-06
0.7009	0.2239	0.000981	7e-06
0.7339	0.0691	0.001058	7e-06
0.7461	0.1901	0.001063	7e-06
0.7479	0.0655	0.001083	8e-06
0.7531	0.1242	0.001092	8e-06
0.7549	0.1834	0.001081	8e-06
0.786	0.0556	0.001151	8e-06
0.7964	0.1024	0.001175	8e-06
0.812	0.1407	0.001203	8e-06
0.8187	0.0471	0.001219	8e-06
0.837	0.0821	0.001264	8e-06
0.8443	0.0404	0.001278	9e-06
0.8483	0.0763	0.001288	9e-06
0.8613	0.1038	0.001318	9e-06
0.8627	0.1028	0.001322	9e-06
0.909	0.0236	0.001437	9e-06
0.9121	0.0658	0.001453	9e-06
0.9544	0.0118	0.001567	1e-05
0.9569	0.0323	0.001586	1e-05
0.9618	0.0192	0.0016	1e-05

System: propan-1-ol + benzene + ethyl acetate; phases: Liquid
Fixed: Pressure, kPa = 101
Fixed: Temperature, K = 303.15
Property: Mass density, kg/m3 (Liquid); method: Vibrating tube method
Mole fraction of propan-1-ol	Mole fraction of ethyl acetate	Mass density, kg/m3	uncertainty
0.1875	0.6082	868.41	0.09
0.1925	0.4062	863.82	0.09
0.2362	0.3843	860.55	0.1
0.246	0.5644	863.84	0.09
0.401	0.3013	847.98	0.1
0.4212	0.4333	849.64	0.1
0.4572	0.2733	843.61	0.11
0.4676	0.3986	845.74	0.11
0.4963	0.2533	840.48	0.11
0.5222	0.3577	841.06	0.11
0.6377	0.1822	828.87	0.12
0.6854	0.1584	824.76	0.12
0.7009	0.2239	825.05	0.12
0.7461	0.1901	820.83	0.12
0.7531	0.1242	818.85	0.13
0.7549	0.1834	820.05	0.13
0.7964	0.1024	814.98	0.13
0.812	0.1407	814.62	0.13
0.837	0.0821	811.27	0.13
0.8483	0.0763	810.23	0.13
0.8613	0.1038	809.8	0.13
0.8627	0.1028	809.67	0.13
0.9121	0.0658	804.71	0.14
0.9569	0.0323	800.13	0.14
0.9618	0.0192	799.39	0.14
