Measured thermophysical data. Estimation of Normal Boiling points of Trialkyl Phosphates using  Retention indices by Gas Chromatography
Source: Thermochim. Acta, 2010, 10.1016/j.tca.2010.07.032
Compound 1: trimethyl orthophosphate, C3H9O4P, InChI=1S/C3H9O4P/c1-5-8(4,6-2)7-3/h1-3H3
Compound 2: ethyl phosphate, C6H15O4P, InChI=1S/C6H15O4P/c1-4-8-11(7,9-5-2)10-6-3/h4-6H2,1-3H3
Compound 3: tributyl phosphate, C12H27O4P, InChI=1S/C12H27O4P/c1-4-7-10-14-17(13,15-11-8-5-2)16-12-9-6-3/h4-12H2,1-3H3
Compound 4: triisobutyl phosphate, C12H27O4P, InChI=1S/C12H27O4P/c1-10(2)7-14-17(13,15-8-11(3)4)16-9-12(5)6/h10-12H,7-9H2,1-6H3
Compound 5: tri-sec-butyl phosphate, C12H27O4P, InChI=1S/C12H27O4P/c1-7-10(4)14-17(13,15-11(5)8-2)16-12(6)9-3/h10-12H,7-9H2,1-6H3
Compound 6: triisopentyl phosphate, C15H33O4P, InChI=1S/C15H33O4P/c1-13(2)7-10-17-20(16,18-11-8-14(3)4)19-12-9-15(5)6/h13-15H,7-12H2,1-6H3
Compound 7: tri-2-methylbutyl phosphate, C15H33O4P, InChI=1S/C15H33O4P/c1-7-13(4)10-17-20(16,18-11-14(5)8-2)19-12-15(6)9-3/h13-15H,7-12H2,1-6H3
Compound 8: tri-sec-amyl phosphate, C15H33O4P, InChI=1S/C15H33O4P/c1-7-10-13(4)17-20(16,18-14(5)11-8-2)19-15(6)12-9-3/h13-15H,7-12H2,1-6H3
Compound 9: tripentyl phosphate, C15H33O4P, InChI=1S/C15H33O4P/c1-4-7-10-13-17-20(16,18-14-11-8-5-2)19-15-12-9-6-3/h4-15H2,1-3H3
Compound 10: trihexyl phosphate, C18H39O4P, InChI=1S/C18H39O4P/c1-4-7-10-13-16-20-23(19,21-17-14-11-8-5-2)22-18-15-12-9-6-3/h4-18H2,1-3H3

System: trimethyl orthophosphate; phases: Liquid, Gas
Property: Normal boiling temperature, K (Liquid); method: Temperature-Programmed Gas Chromatography
Normal boiling temperature, K	uncertainty
468.21	19.51

System: trimethyl orthophosphate; phases: Liquid, Gas
Property: Normal boiling temperature, K (Liquid); method: Temperature-Programmed Gas Chromatography
Normal boiling temperature, K	uncertainty
468.12	19.5

System: ethyl phosphate; phases: Liquid, Gas
Property: Normal boiling temperature, K (Liquid); method: Temperature-Programmed Gas Chromatography
Normal boiling temperature, K	uncertainty
489.04	21.59

System: ethyl phosphate; phases: Liquid, Gas
Property: Normal boiling temperature, K (Liquid); method: Temperature-Programmed Gas Chromatography
Normal boiling temperature, K	uncertainty
489.49	21.63

System: tributyl phosphate; phases: Liquid, Gas
Property: Normal boiling temperature, K (Liquid); method: Temperature-Programmed Gas Chromatography
Normal boiling temperature, K	uncertainty
561.34	28.82

System: tributyl phosphate; phases: Liquid, Gas
Property: Normal boiling temperature, K (Liquid); method: Temperature-Programmed Gas Chromatography
Normal boiling temperature, K	uncertainty
558.65	28.55

System: triisobutyl phosphate; phases: Liquid, Gas
Property: Normal boiling temperature, K (Liquid); method: Temperature-Programmed Gas Chromatography
Normal boiling temperature, K	uncertainty
537.82	26.47

System: triisobutyl phosphate; phases: Liquid, Gas
Property: Normal boiling temperature, K (Liquid); method: Temperature-Programmed Gas Chromatography
Normal boiling temperature, K	uncertainty
538.85	26.57

System: tri-sec-butyl phosphate; phases: Liquid, Gas
Property: Normal boiling temperature, K (Liquid); method: Temperature-Programmed Gas Chromatography
Normal boiling temperature, K	uncertainty
534.21	26.11

System: tri-sec-butyl phosphate; phases: Liquid, Gas
Property: Normal boiling temperature, K (Liquid); method: Temperature-Programmed Gas Chromatography
Normal boiling temperature, K	uncertainty
533.95	26.08

System: triisopentyl phosphate; phases: Liquid, Gas
Property: Normal boiling temperature, K (Liquid); method: Temperature-Programmed Gas Chromatography
Normal boiling temperature, K	uncertainty
575.44	30.23

System: triisopentyl phosphate; phases: Liquid, Gas
Property: Normal boiling temperature, K (Liquid); method: Temperature-Programmed Gas Chromatography
Normal boiling temperature, K	uncertainty
575.52	30.24

System: tri-2-methylbutyl phosphate; phases: Liquid, Gas
Property: Normal boiling temperature, K (Liquid); method: Temperature-Programmed Gas Chromatography
Normal boiling temperature, K	uncertainty
572.85	29.97

System: tri-2-methylbutyl phosphate; phases: Liquid, Gas
Property: Normal boiling temperature, K (Liquid); method: Temperature-Programmed Gas Chromatography
Normal boiling temperature, K	uncertainty
571.35	29.82

System: tri-sec-amyl phosphate; phases: Liquid, Gas
Property: Normal boiling temperature, K (Liquid); method: Temperature-Programmed Gas Chromatography
Normal boiling temperature, K	uncertainty
555.17	28.2

System: tri-sec-amyl phosphate; phases: Liquid, Gas
Property: Normal boiling temperature, K (Liquid); method: Temperature-Programmed Gas Chromatography
Normal boiling temperature, K	uncertainty
555.89	28.27

System: tripentyl phosphate; phases: Liquid, Gas
Property: Normal boiling temperature, K (Liquid); method: Temperature-Programmed Gas Chromatography
Normal boiling temperature, K	uncertainty
596.36	32.32

System: tripentyl phosphate; phases: Liquid, Gas
Property: Normal boiling temperature, K (Liquid); method: Temperature-Programmed Gas Chromatography
Normal boiling temperature, K	uncertainty
599.77	32.66

System: trihexyl phosphate; phases: Liquid, Gas
Property: Normal boiling temperature, K (Liquid); method: Temperature-Programmed Gas Chromatography
Normal boiling temperature, K	uncertainty
639.27	36.61

System: trihexyl phosphate; phases: Liquid, Gas
Property: Normal boiling temperature, K (Liquid); method: Temperature-Programmed Gas Chromatography
Normal boiling temperature, K	uncertainty
638.17	36.5
