Measured thermophysical data. Determination of micelle formation of ketorolac tromethamine in aqueous media by acoustic measurements
Source: Thermochim. Acta, 2013, 10.1016/j.tca.2012.11.008
Compound 1: ketorolac tromethamine, C19H24N2O6, InChI=1S/C15H13NO3.C4H11NO3/c17-14(10-4-2-1-3-5-10)13-7-6-12-11(15(18)19)8-9-16(12)13;5-4(1-6,2-7)3-8/h1-7,11H,8-9H2,(H,18,19);6-8H,1-3,5H2, purity 99%
Compound 2: water, H2O, InChI=1S/H2O/h1H2, purity 99.8%

System: water + ketorolac tromethamine; phases: Liquid
Fixed: Pressure, kPa = 101
Property: Mass density, kg/m3 (Liquid); method: Vibrating tube method
Temperature, K	Molality, mol/kg of ketorolac tromethamine	Mass density, kg/m3	uncertainty
293.15	0	998.19	0.24
293.15	0.01	999.38	0.22
293.15	0.02	1000.35	0.21
293.15	0.03	1001.41	0.23
293.15	0.04	1002.57	0.19
293.15	0.05	1003.3	0.21
293.15	0.075	1006.13	0.22
293.15	0.1	1008.75	0.22
293.15	0.125	1011.43	0.22
293.15	0.15	1014.02	0.21
293.15	0.175	1016.56	0.21
293.15	0.2	1019.22	0.22
293.15	0.25	1024.63	0.22
298.15	0	997.03	0.25
298.15	0.01	998.2	0.22
298.15	0.02	999.17	0.21
298.15	0.03	1000.21	0.21
298.15	0.04	1001.23	0.19
298.15	0.05	1002.07	0.22
298.15	0.075	1004.88	0.22
298.15	0.1	1007.46	0.21
298.15	0.125	1010.1	0.21
298.15	0.15	1012.67	0.21
298.15	0.175	1015.19	0.21
298.15	0.2	1017.8	0.22
298.15	0.25	1023.16	0.22
303.15	0	995.64	0.25
303.15	0.01	996.79	0.22
303.15	0.02	997.75	0.2
303.15	0.03	998.78	0.21
303.15	0.04	999.83	0.19
303.15	0.05	1000.62	0.22
303.15	0.075	1003.4	0.22
303.15	0.1	1005.95	0.21
303.15	0.125	1008.54	0.21
303.15	0.15	1011.11	0.21
303.15	0.175	1013.63	0.21
303.15	0.2	1016.15	0.22
303.15	0.25	1021.49	0.22
308.15	0	994.02	0.25
308.15	0.01	995.17	0.21
308.15	0.02	996.11	0.2
308.15	0.03	997.13	0.21
308.15	0.04	998.13	0.19
308.15	0.05	998.96	0.22
308.15	0.075	1001.71	0.22
308.15	0.1	1004.24	0.21
308.15	0.125	1006.74	0.21
308.15	0.15	1009.34	0.21
308.15	0.175	1011.84	0.21
308.15	0.2	1014.32	0.22
308.15	0.25	1019.63	0.22
313.15	0	992.21	0.23
313.15	0.01	993.34	0.21
313.15	0.02	994.28	0.2
313.15	0.03	995.29	0.2
313.15	0.04	996.22	0.19
313.15	0.05	997.1	0.21
313.15	0.075	999.82	0.21
313.15	0.1	1002.31	0.2
313.15	0.125	1004.79	0.21
313.15	0.15	1007.39	0.21
313.15	0.175	1009.86	0.2
313.15	0.2	1012.32	0.21
313.15	0.25	1017.59	0.22

System: water + ketorolac tromethamine; phases: Liquid
Fixed: Pressure, kPa = 101
Property: Speed of sound, m/s (Liquid); method: Sing-around technique in a fixed-path interferometer
Temperature, K	Molality, mol/kg of ketorolac tromethamine	Speed of sound, m/s	uncertainty
293.15	0	1482.6	1.4
293.15	0.01	1485.6	1.3
293.15	0.02	1486.8	1.3
293.15	0.03	1488.7	1.3
293.15	0.04	1491	1.3
293.15	0.05	1492.1	1.3
293.15	0.075	1497.4	1.3
293.15	0.1	1501.5	1.3
293.15	0.125	1506	1.3
293.15	0.15	1509.9	1.3
293.15	0.175	1514.6	1.3
293.15	0.2	1518.9	1.3
293.15	0.25	1525.6	1.3
298.15	0	1496.8	1.4
298.15	0.01	1499.7	1.3
298.15	0.02	1500.7	1.3
298.15	0.03	1502.5	1.3
298.15	0.04	1504.7	1.3
298.15	0.05	1505.7	1.3
298.15	0.075	1510.7	1.3
298.15	0.1	1514.5	1.3
298.15	0.125	1518.8	1.3
298.15	0.15	1522.5	1.3
298.15	0.175	1527.1	1.3
298.15	0.2	1531.4	1.3
298.15	0.25	1537.4	1.3
303.15	0	1509.2	1.4
303.15	0.01	1512	1.3
303.15	0.02	1512.9	1.3
303.15	0.03	1514.6	1.3
303.15	0.04	1516.7	1.3
303.15	0.05	1517.6	1.3
303.15	0.075	1522.3	1.3
303.15	0.1	1525.8	1.3
303.15	0.125	1530	1.3
303.15	0.15	1533.4	1.3
303.15	0.175	1538	1.3
303.15	0.2	1542.3	1.3
303.15	0.25	1547.6	1.3
308.15	0	1520	1.4
308.15	0.01	1522.5	1.3
308.15	0.02	1523.3	1.3
308.15	0.03	1524.9	1.3
308.15	0.04	1527	1.3
308.15	0.05	1527.7	1.3
308.15	0.075	1532.2	1.3
308.15	0.1	1535.5	1.3
308.15	0.125	1539.4	1.3
308.15	0.15	1542.7	1.3
308.15	0.175	1547.2	1.3
308.15	0.2	1550.8	1.3
308.15	0.25	1556	1.3
313.15	0	1529.1	1.3
313.15	0.01	1531.5	1.3
313.15	0.02	1532.2	1.2
313.15	0.03	1533.7	1.3
313.15	0.04	1535.7	1.3
313.15	0.05	1536.3	1.3
313.15	0.075	1540.5	1.3
313.15	0.1	1543.6	1.3
313.15	0.125	1547.3	1.3
313.15	0.15	1550.4	1.3
313.15	0.175	1554.6	1.3
313.15	0.2	1558.1	1.3
313.15	0.25	1563	1.3
