Measured thermophysical data. Standard molar enthalpy of formation of Nd(Gly)2(Ala)3Cl3*2H2O(s)
Source: Thermochim. Acta, 2005, 10.1016/j.tca.2004.05.030
Compound 1: water, H2O, InChI=1S/H2O/h1H2
Compound 2: 2-aminoacetic acid, C2H5NO2, InChI=1S/C2H5NO2/c3-1-2(4)5/h1,3H2,(H,4,5)
Compound 3: DL-2-aminopropanoic acid, C3H7NO2, InChI=1S/C3H7NO2/c1-2(4)3(5)6/h2H,4H2,1H3,(H,5,6)
Compound 4: neodymium trichloride hexahydrate, Cl3H12NdO6, InChI=1S/3ClH.Nd.6H2O/h3*1H;;6*1H2/q;;;+3;;;;;;/p-3
Compound 5: neodymium tris-L-alanine bis-glycine trichloride dihydrate, C13H35Cl3N5NdO12, InChI=1S/3C3H7NO2.2C2H5NO2.3ClH.Nd.2H2O/c3*1-2(4)3(5)6;2*3-1-2(4)5;;;;;;/h3*2H,4H2,1H3,(H,5,6);2*1,3H2,(H,4,5);3*1H;;2*1H2/q;;;;;;;;+3;;/p-3/t3*2-;;;;;;;;/m000......../s1

Reaction: -2 2-aminoacetic acid + -3 DL-2-aminopropanoic acid + 1 neodymium tris-L-alanine bis-glycine trichloride dihydrate + -1 neodymium trichloride hexahydrate + 4 water
Property: Molar enthalpy of reaction, kJ/mol
37.24
