Measured thermophysical data. Enthalpies of mixing of Au Pb and Ag Au Pb liquid alloys at 973K
Source: Thermochim. Acta, 2007, 10.1016/j.tca.2007.07.015
Compound 1: gold, Au, InChI=1S/Au
Compound 2: lead, Pb, InChI=1S/Pb
Compound 3: silver, Ag, InChI=1S/Ag

System: lead + gold; phases: Liquid
Fixed: Temperature, K = 973
Fixed: Pressure, kPa = 101
Property: Excess molar enthalpy (molar enthalpy of mixing), kJ/mol (Liquid); method: Calvet calorimetry
Mole fraction of gold	Excess molar enthalpy (molar enthalpy of mixing), kJ/mol	uncertainty
0.0446	-0.24	0.012
0.0465	-0.181	0.009
0.0726	-0.383	0.019
0.0864	-0.464	0.024
0.0922	-0.345	0.018
0.1272	-0.631	0.032
0.1358	-0.531	0.027
0.1368	-0.643	0.033
0.1653	-0.729	0.037
0.1768	-0.665	0.034
0.1938	-0.789	0.04
0.2	-0.886	0.045
0.2003	-0.847	0.043
0.2148	-0.782	0.04
0.2333	-0.876	0.044
0.2482	-0.885	0.045
0.2506	-0.854	0.043
0.2652	-0.952	0.048
0.2841	-0.92	0.047
0.2962	-1.005	0.051
0.2966	-0.955	0.048
0.3161	-0.929	0.047
0.3226	-1.019	0.052
0.3436	-0.985	0.05
0.3455	-0.969	0.049
0.3733	-0.985	0.05
0.3862	-1.002	0.051
0.4	-1.074	0.054
0.402	-1.007	0.051
0.4248	-1.007	0.051
0.4294	-1.039	0.053
0.4416	-1.04	0.053

System: lead + silver; phases: Liquid
Property: Excess molar enthalpy (molar enthalpy of mixing), kJ/mol (Liquid); method: Calvet calorimetry
Mole fraction of silver	Temperature, K	Pressure, kPa	Excess molar enthalpy (molar enthalpy of mixing), kJ/mol	uncertainty
0.2	973	101.3	2.322	0.117

System: lead + silver + gold; phases: Liquid
Fixed: Temperature, K = 973
Fixed: Pressure, kPa = 101
Property: Excess molar enthalpy (molar enthalpy of mixing), kJ/mol (Liquid); method: Calvet calorimetry
Mole fraction of gold	Mole fraction of silver	Excess molar enthalpy (molar enthalpy of mixing), kJ/mol	uncertainty
0	0.2	2.322	0.117
0.055	0.189	1.741	0.088
0.11518	0.4241	1.674	0.085
0.1153	0.17694	1.275	0.064
0.12298	0.3851	1.615	0.082
0.13092	0.3454	1.493	0.075
0.13926	0.3037	1.364	0.069
0.14726	0.2637	1.191	0.06
0.15576	0.2212	0.99	0.05
0.1649	0.1755	0.697	0.035
0.1711	0.16578	0.834	0.042
0.17432	0.1284	0.306	0.016
0.18272	0.0864	-0.043	0.002
0.191	0.045	-0.435	0.022
0.2	0	-0.886	0.045
0.22036	0.4491	0.315	0.016
0.2224	0.15552	0.527	0.027
0.23644	0.4089	0.205	0.01
0.25408	0.3648	0.182	0.009
0.2688	0.14624	0.266	0.014
0.2698	0.3255	0.153	0.008
0.28656	0.2836	0.044	0.002
0.3032	0.242	-0.11	0.006
0.311	0.1378	0.008	0.001
0.32172	0.1957	-0.24	0.012
0.34124	0.1469	-0.411	0.021
0.3507	0.12986	-0.173	0.009
0.363	0.0925	-0.627	0.032
0.383	0.1234	-0.311	0.016
0.38368	0.0408	-0.88	0.045
0.4	0	-1.074	0.054
0.4199	0.11602	-0.477	0.024
0.4436	0.11128	-0.52	0.026
