Measured thermophysical data. Excess molar volumes of (1-chlorobutane +heptane + 2-butanone  or 2-pentanone) at 288.15 , 303.15 and 313.15 K . Measurements  and correlations.
Source: Thermochim. Acta, 2012, 10.1016/j.tca.2012.04.001
Compound 1: 1-chlorobutane, C4H9Cl, InChI=1S/C4H9Cl/c1-2-3-4-5/h2-4H2,1H3, purity 99%
Compound 2: heptane, C7H16, InChI=1S/C7H16/c1-3-5-7-6-4-2/h3-7H2,1-2H3, purity 99%
Compound 3: pentan-2-one, C5H10O, InChI=1S/C5H10O/c1-3-4-5(2)6/h3-4H2,1-2H3, purity 99%
Compound 4: butanone, C4H8O, InChI=1S/C4H8O/c1-3-4(2)5/h3H2,1-2H3, purity 99%

System: 1-chlorobutane; phases: Liquid
Fixed: Pressure, kPa = 101.325
Property: Mass density, kg/m3 (Liquid); method: Vibrating tube method
Temperature, K	Mass density, kg/m3	uncertainty
288.15	891.747	0.299
303.15	875.099	0.301
313.15	863.833	0.301

System: heptane; phases: Liquid
Fixed: Pressure, kPa = 101.325
Property: Mass density, kg/m3 (Liquid); method: Vibrating tube method
Temperature, K	Mass density, kg/m3	uncertainty
288.15	688.588	0.322
303.15	675.838	0.324
313.15	665.838	0.326

System: pentan-2-one; phases: Liquid
Fixed: Pressure, kPa = 101.325
Property: Mass density, kg/m3 (Liquid); method: Vibrating tube method
Temperature, K	Mass density, kg/m3	uncertainty
288.15	811.491	0.306
303.15	796.955	0.307
313.15	787.16	0.308

System: butanone; phases: Liquid
Fixed: Pressure, kPa = 101.325
Property: Mass density, kg/m3 (Liquid); method: Vibrating tube method
Temperature, K	Mass density, kg/m3	uncertainty
288.15	810.328	0.306
303.15	794.629	0.308
313.15	784.008	0.309

System: 1-chlorobutane + heptane; phases: Liquid
Fixed: Pressure, kPa = 101
Property: Mass density, kg/m3 (Liquid); method: Vibrating tube method
Temperature, K	Mole fraction of 1-chlorobutane	Mass density, kg/m3	uncertainty
288.15	0.0407	694.279	0.319
288.15	0.0779	699.652	0.318
288.15	0.1497	710.416	0.317
288.15	0.2169	720.981	0.316
288.15	0.2496	726.25	0.314
288.15	0.2565	727.4	0.315
288.15	0.2999	734.714	0.314
288.15	0.363	745.784	0.313
288.15	0.4023	752.916	0.312
288.15	0.5009	771.635	0.31
288.15	0.5052	772.539	0.31
288.15	0.5987	791.61	0.309
288.15	0.7138	817.052	0.307
288.15	0.7493	825.378	0.304
288.15	0.8009	837.92	0.306
288.15	0.8875	860.284	0.305
288.15	0.9476	876.694	0.304
303.15	0.0407	681.416	0.321
303.15	0.0779	686.682	0.32
303.15	0.1497	697.174	0.319
303.15	0.2169	707.546	0.317
303.15	0.2496	712.73	0.316
303.15	0.2565	713.798	0.317
303.15	0.2999	720.999	0.316
303.15	0.363	731.835	0.315
303.15	0.4023	738.839	0.314
303.15	0.5009	757.206	0.311
303.15	0.5052	758.088	0.312
303.15	0.5987	776.768	0.31
303.15	0.7138	801.757	0.308
303.15	0.7493	809.928	0.306
303.15	0.8009	822.176	0.307
303.15	0.8875	844.077	0.306
303.15	0.9476	860.27	0.305
313.15	0.0407	672.687	0.322
313.15	0.0779	677.87	0.322
313.15	0.1497	688.219	0.32
313.15	0.2169	698.49	0.319
313.15	0.2496	703.568	0.317
313.15	0.2565	704.618	0.318
313.15	0.2999	711.752	0.317
313.15	0.363	722.416	0.316
313.15	0.4023	729.286	0.315
313.15	0.5009	747.426	0.312
313.15	0.5052	748.294	0.313
313.15	0.5987	766.715	0.311
313.15	0.7138	791.398	0.309
313.15	0.7493	799.44	0.307
313.15	0.8009	811.608	0.308
313.15	0.8875	833.14	0.306
313.15	0.9476	849.181	0.306

System: butanone + 1-chlorobutane; phases: Liquid
Fixed: Pressure, kPa = 101
Property: Mass density, kg/m3 (Liquid); method: Vibrating tube method
Temperature, K	Mole fraction of 1-chlorobutane	Mass density, kg/m3	uncertainty
288.15	0.0603	815.629	0.304
288.15	0.102	819.225	0.304
288.15	0.1968	827.479	0.303
288.15	0.2964	835.868	0.302
288.15	0.4017	844.704	0.302
288.15	0.4502	848.687	0.301
288.15	0.5138	853.847	0.301
288.15	0.5467	856.509	0.301
288.15	0.6451	864.357	0.3
288.15	0.6988	868.609	0.3
288.15	0.7994	876.429	0.3
288.15	0.8296	878.808	0.299
288.15	0.9037	884.435	0.299
288.15	0.9336	886.734	0.299
303.15	0.0603	799.819	0.306
303.15	0.102	803.373	0.305
303.15	0.1968	811.507	0.304
303.15	0.2964	819.774	0.304
303.15	0.4017	828.487	0.303
303.15	0.4502	832.432	0.303
303.15	0.5138	837.516	0.302
303.15	0.5467	840.156	0.302
303.15	0.6451	847.919	0.301
303.15	0.6988	852.133	0.301
303.15	0.7994	859.878	0.301
303.15	0.8296	862.217	0.3
303.15	0.9037	867.832	0.3
303.15	0.9336	870.09	0.3
313.15	0.0603	789.16	0.307
313.15	0.102	792.657	0.306
313.15	0.1968	800.7	0.305
313.15	0.2964	808.881	0.305
313.15	0.4017	817.514	0.304
313.15	0.4502	821.402	0.304
313.15	0.5138	826.466	0.303
313.15	0.5467	829.081	0.303
313.15	0.6451	836.788	0.302
313.15	0.6988	840.975	0.302
313.15	0.7994	848.676	0.301
313.15	0.8296	850.983	0.301
313.15	0.9037	856.591	0.301
313.15	0.9336	858.856	0.301

System: pentan-2-one + 1-chlorobutane; phases: Liquid
Fixed: Pressure, kPa = 101
Property: Mass density, kg/m3 (Liquid); method: Vibrating tube method
Temperature, K	Mole fraction of 1-chlorobutane	Mass density, kg/m3	uncertainty
288.15	0.0725	816.977	0.304
288.15	0.1054	819.501	0.303
288.15	0.1321	821.521	0.303
288.15	0.2299	829.083	0.303
288.15	0.2994	834.489	0.302
288.15	0.3515	838.598	0.302
288.15	0.4369	845.4	0.302
288.15	0.493	849.874	0.301
288.15	0.5816	857.018	0.301
288.15	0.6518	862.707	0.3
288.15	0.6948	866.208	0.3
288.15	0.749	870.664	0.3
288.15	0.8055	875.345	0.3
288.15	0.8359	877.911	0.3
288.15	0.8866	882.185	0.299
288.15	0.9145	884.566	0.299
303.15	0.0725	802.287	0.305
303.15	0.1054	804.742	0.305
303.15	0.1321	806.72	0.305
303.15	0.2299	814.071	0.304
303.15	0.2994	819.331	0.304
303.15	0.3515	823.323	0.303
303.15	0.4369	829.942	0.303
303.15	0.493	834.295	0.302
303.15	0.5816	841.242	0.302
303.15	0.6518	846.788	0.301
303.15	0.6948	850.202	0.301
303.15	0.749	854.538	0.301
303.15	0.8055	859.097	0.301
303.15	0.8359	861.609	0.301
303.15	0.8866	865.757	0.3
303.15	0.9145	868	0.3
313.15	0.0725	792.387	0.306
313.15	0.1054	794.796	0.306
313.15	0.1321	796.726	0.306
313.15	0.2299	803.941	0.305
313.15	0.2994	809.089	0.304
313.15	0.3515	813	0.304
313.15	0.4369	819.494	0.304
313.15	0.493	823.772	0.303
313.15	0.5816	830.585	0.303
313.15	0.6518	836.036	0.302
313.15	0.6948	839.378	0.302
313.15	0.749	843.633	0.302
313.15	0.8055	848.116	0.301
313.15	0.8359	850.574	0.301
313.15	0.8866	854.665	0.301
313.15	0.9145	856.9	0.3

System: butanone + heptane; phases: Liquid
Fixed: Pressure, kPa = 101
Property: Mass density, kg/m3 (Liquid); method: Vibrating tube method
Temperature, K	Mole fraction of heptane	Mass density, kg/m3	uncertainty
288.15	0.0488	799.693	0.308
288.15	0.0875	791.829	0.308
288.15	0.1976	771.92	0.31
288.15	0.2409	764.837	0.31
288.15	0.2995	755.954	0.311
288.15	0.3726	745.725	0.312
288.15	0.444	736.645	0.313
288.15	0.4708	733.346	0.313
288.15	0.5132	728.532	0.314
288.15	0.5941	719.999	0.315
288.15	0.7024	709.67	0.316
288.15	0.7471	705.937	0.317
288.15	0.8016	701.621	0.317
288.15	0.8341	699.194	0.317
288.15	0.896	694.863	0.318
288.15	0.9545	691.133	0.319
303.15	0.0488	784.166	0.309
303.15	0.0875	776.433	0.31
303.15	0.1976	756.87	0.312
303.15	0.2409	749.92	0.312
303.15	0.2995	741.212	0.313
303.15	0.3726	731.183	0.314
303.15	0.444	722.313	0.315
303.15	0.4708	719.166	0.315
303.15	0.5132	714.398	0.316
303.15	0.5941	706.083	0.317
303.15	0.7024	696.076	0.318
303.15	0.7471	692.464	0.319
303.15	0.8016	688.317	0.319
303.15	0.8341	686.007	0.319
303.15	0.896	681.831	0.32
303.15	0.9545	678.282	0.321
313.15	0.0488	773.658	0.31
313.15	0.0875	766.011	0.311
313.15	0.1976	746.674	0.313
313.15	0.2409	739.808	0.313
313.15	0.2995	731.216	0.314
313.15	0.3726	721.184	0.315
313.15	0.444	712.588	0.316
313.15	0.4708	709.492	0.317
313.15	0.5132	704.806	0.317
313.15	0.5941	696.646	0.318
313.15	0.7024	686.851	0.319
313.15	0.7471	683.324	0.32
313.15	0.8016	679.294	0.321
313.15	0.8341	677.044	0.321
313.15	0.896	672.997	0.321
313.15	0.9545	669.575	0.322

System: pentan-2-one + heptane; phases: Liquid
Fixed: Pressure, kPa = 101
Property: Mass density, kg/m3 (Liquid); method: Vibrating tube method
Temperature, K	Mole fraction of heptane	Mass density, kg/m3	uncertainty
288.15	0.0562	801.549	0.307
288.15	0.1047	793.314	0.307
288.15	0.1946	778.848	0.309
288.15	0.2463	770.971	0.309
288.15	0.3006	763.126	0.31
288.15	0.312	761.486	0.31
288.15	0.3664	754.046	0.311
288.15	0.4233	746.601	0.312
288.15	0.4921	738.067	0.313
288.15	0.5566	730.511	0.314
288.15	0.6001	725.625	0.314
288.15	0.7003	715.045	0.316
288.15	0.7526	709.893	0.316
288.15	0.8233	703.177	0.317
288.15	0.8918	697.119	0.318
288.15	0.95	692.408	0.319
303.15	0.0562	787.145	0.308
303.15	0.1047	778.964	0.309
303.15	0.1946	764.618	0.31
303.15	0.2463	756.828	0.311
303.15	0.3006	748.98	0.312
303.15	0.312	747.38	0.312
303.15	0.3664	740.019	0.313
303.15	0.4233	732.618	0.314
303.15	0.4921	724.274	0.314
303.15	0.5566	716.874	0.315
303.15	0.6001	712.061	0.316
303.15	0.7003	701.616	0.317
303.15	0.7526	696.524	0.318
303.15	0.8233	689.947	0.319
303.15	0.8918	684.045	0.32
303.15	0.95	679.462	0.321
313.15	0.0562	777.44	0.309
313.15	0.1047	769.309	0.31
313.15	0.1946	755.031	0.311
313.15	0.2463	747.271	0.312
313.15	0.3006	739.521	0.313
313.15	0.312	737.93	0.313
313.15	0.3664	730.578	0.314
313.15	0.4233	723.231	0.315
313.15	0.4921	714.996	0.316
313.15	0.5566	707.632	0.317
313.15	0.6001	702.877	0.317
313.15	0.7003	692.572	0.319
313.15	0.7526	687.536	0.319
313.15	0.8233	681.074	0.32
313.15	0.8918	675.297	0.321
313.15	0.95	670.763	0.322

System: butanone + 1-chlorobutane + heptane; phases: Liquid
Fixed: Pressure, kPa = 101
Property: Mass density, kg/m3 (Liquid); method: Vibrating tube method
Temperature, K	Mole fraction of 1-chlorobutane	Mole fraction of heptane	Mass density, kg/m3	uncertainty
288.15	0.0166	0.0452	801.778	0.308
288.15	0.0236	0.0643	798.473	0.309
288.15	0.0284	0.0284	806.609	0.308
288.15	0.0295	0.0803	795.555	0.309
288.15	0.0405	0.1103	790.653	0.309
288.15	0.0492	0.0494	803.906	0.308
288.15	0.0527	0.1434	785.58	0.309
288.15	0.0776	0.2111	776.076	0.31
288.15	0.0786	0.0263	811.723	0.307
288.15	0.0994	0.0997	798.198	0.308
288.15	0.1007	0.0337	812.067	0.307
288.15	0.1043	0.2837	766.876	0.312
288.15	0.1206	0.0404	812.292	0.307
288.15	0.1446	0.1451	793.605	0.309
288.15	0.1631	0.0546	812.995	0.307
288.15	0.171	0.1715	791.117	0.309
288.15	0.2059	0.2065	788.13	0.309
288.15	0.2139	0.0716	813.861	0.307
288.15	0.2183	0.2189	787.005	0.316
288.15	0.2285	0.2285	735.989	0.324
288.15	0.2292	0.0767	814.126	0.306
288.15	0.2398	0.2405	785.399	0.325
288.15	0.2502	0.2502	731.976	0.712
288.15	0.2565	0.2573	784.13	1.315
288.15	0.2633	0.0881	814.708	0.306
288.15	0.2687	0.2687	729.394	0.896
288.15	0.3049	0.3058	780.871	0.309
288.15	0.3362	0.1125	816.112	0.32
288.15	0.3364	0.3374	778.909	0.309
288.15	0.3666	0.3677	777.116	0.309
288.15	0.4022	0.4034	775.169	0.31
288.15	0.4065	0.136	817.515	0.306
288.15	0.4326	0.4339	773.828	0.309
288.15	0.4438	0.4451	773.281	0.309
288.15	0.4534	0.1517	818.459	0.305
288.15	0.4627	0.4641	772.573	0.309
288.15	0.4929	0.1649	819.301	0.305
288.15	0.643	0.2152	822.622	0.305
288.15	0.6691	0.2239	823.188	0.305
288.15	0.7047	0.2358	824.087	0.305
288.15	0.7493	0.2507	825.378	0.304
303.15	0.0166	0.0452	786.018	0.31
303.15	0.0236	0.0643	782.741	0.31
303.15	0.0284	0.0284	790.817	0.309
303.15	0.0295	0.0803	779.872	0.311
303.15	0.0405	0.1103	775.1	0.3
303.15	0.0492	0.0494	788.219	0.31
303.15	0.0527	0.1434	770.055	0.311
303.15	0.0776	0.2111	760.91	0.31
303.15	0.0786	0.0263	795.861	0.309
303.15	0.0994	0.0997	782.549	0.309
303.15	0.1007	0.0337	796.252	0.309
303.15	0.1043	0.2837	751.907	0.313
303.15	0.1206	0.0404	796.5	0.309
303.15	0.1446	0.1451	778.046	0.31
303.15	0.1631	0.0546	797.21	0.308
303.15	0.171	0.1715	775.7	0.31
303.15	0.2059	0.2065	772.801	0.31
303.15	0.2139	0.0716	798.063	0.308
303.15	0.2183	0.2189	771.812	0.314
303.15	0.2285	0.2285	721.979	0.326
303.15	0.2292	0.0767	798.348	0.308
303.15	0.2398	0.2405	770.165	0.309
303.15	0.2502	0.2502	718.184	0.768
303.15	0.2565	0.2573	769.007	1.282
303.15	0.2633	0.0881	798.952	0.308
303.15	0.2687	0.2687	715.789	0.876
303.15	0.3049	0.3058	765.87	0.31
303.15	0.3362	0.1125	800.393	0.321
303.15	0.3364	0.3374	763.969	0.311
303.15	0.3666	0.3677	762.284	0.311
303.15	0.4022	0.4034	760.484	0.311
303.15	0.4065	0.136	801.813	0.307
303.15	0.4326	0.4339	759.129	0.31
303.15	0.4438	0.4451	758.688	0.311
303.15	0.4534	0.1517	802.783	0.307
303.15	0.4627	0.4641	757.98	0.31
303.15	0.4929	0.1649	803.661	0.307
303.15	0.643	0.2152	807.014	0.306
303.15	0.6691	0.2239	807.65	0.31
303.15	0.7047	0.2358	808.531	0.306
303.15	0.7493	0.2507	809.928	0.306
313.15	0.0166	0.0452	775.516	0.311
313.15	0.0236	0.0643	772.228	0.311
313.15	0.0284	0.0284	780.239	0.31
313.15	0.0295	0.0803	769.383	0.312
313.15	0.0405	0.1103	764.795	0.311
313.15	0.0492	0.0494	777.662	0.311
313.15	0.0527	0.1434	759.829	0.312
313.15	0.0776	0.2111	750.545	0.313
313.15	0.0786	0.0263	785.139	0.31
313.15	0.0994	0.0997	771.908	0.311
313.15	0.1007	0.0337	785.342	0.31
313.15	0.1043	0.2837	741.906	0.315
313.15	0.1206	0.0404	785.756	0.31
313.15	0.1446	0.1451	767.451	0.311
313.15	0.1631	0.0546	786.509	0.309
313.15	0.171	0.1715	765.199	0.311
313.15	0.2059	0.2065	762.4	0.311
313.15	0.2139	0.0716	787.354	0.309
313.15	0.2183	0.2189	761.435	0.325
313.15	0.2285	0.2285	712.486	0.324
313.15	0.2292	0.0767	787.667	0.309
313.15	0.2398	0.2405	759.933	0.331
313.15	0.2502	0.2502	708.868	0.688
313.15	0.2565	0.2573	758.752	1.261
313.15	0.2633	0.0881	788.253	0.309
313.15	0.2687	0.2687	706.57	0.861
313.15	0.3049	0.3058	755.702	0.312
313.15	0.3362	0.1125	789.744	0.321
313.15	0.3364	0.3374	753.865	0.312
313.15	0.3666	0.3677	752.24	0.312
313.15	0.4022	0.4034	750.564	0.312
313.15	0.4065	0.136	791.112	0.308
313.15	0.4326	0.4339	749.209	0.312
313.15	0.4438	0.4451	748.808	0.312
313.15	0.4534	0.1517	792.169	0.308
313.15	0.4627	0.4641	748.117	0.312
313.15	0.4929	0.1649	793.043	0.308
313.15	0.643	0.2152	796.478	0.307
313.15	0.6691	0.2239	797.166	0.307
313.15	0.7047	0.2358	798.05	0.307
313.15	0.7493	0.2507	799.44	0.307

System: pentan-2-one + 1-chlorobutane + heptane; phases: Liquid
Fixed: Pressure, kPa = 101
Property: Mass density, kg/m3 (Liquid); method: Vibrating tube method
Temperature, K	Mole fraction of 1-chlorobutane	Mole fraction of heptane	Mass density, kg/m3	uncertainty
288.15	0.0206	0.0622	801.957	0.307
288.15	0.0358	0.012	812.054	0.306
288.15	0.0395	0.1188	793.718	0.308
288.15	0.049	0.0488	806.424	0.307
288.15	0.0558	0.1678	787.094	0.308
288.15	0.0619	0.0207	812.45	0.306
288.15	0.068	0.0678	804.474	0.307
288.15	0.0697	0.2096	781.482	0.309
288.15	0.0959	0.2883	771.605	0.31
288.15	0.1025	0.0342	813.051	0.306
288.15	0.1094	0.3287	766.726	0.31
288.15	0.1108	0.1104	800.429	0.307
288.15	0.1301	0.3911	759.606	0.311
288.15	0.1384	0.0462	813.623	0.306
288.15	0.1498	0.4502	753.125	0.311
288.15	0.161	0.1604	795.937	0.307
288.15	0.1725	0.5186	746.175	0.312
288.15	0.1809	0.5437	743.756	0.312
288.15	0.181	0.1804	794.152	0.308
288.15	0.1858	0.062	814.413	0.306
288.15	0.1945	0.5846	739.948	0.313
288.15	0.2055	0.6177	736.959	0.313
288.15	0.2181	0.0728	814.97	0.306
288.15	0.2208	0.6635	733.049	0.314
288.15	0.2317	0.6964	730.322	0.314
288.15	0.2351	0.2342	789.557	0.308
288.15	0.2496	0.7504	726.25	0.314
288.15	0.2671	0.0892	815.793	0.306
288.15	0.2809	0.2799	785.902	0.308
288.15	0.2963	0.2974	784.38	0.308
288.15	0.3125	0.1044	816.528	0.305
288.15	0.3293	0.3281	782.241	0.309
288.15	0.3361	0.3349	781.717	0.309
288.15	0.3628	0.3615	779.918	0.309
288.15	0.3853	0.1287	817.871	0.305
288.15	0.4007	0.3993	777.407	0.309
288.15	0.4144	0.4129	776.547	0.309
288.15	0.4261	0.4245	775.798	0.309
288.15	0.443	0.4414	774.77	0.309
288.15	0.4477	0.4461	774.481	0.308
288.15	0.464	0.1549	819.282	0.305
288.15	0.4675	0.4658	773.365	0.31
288.15	0.5009	0.4991	771.635	0.31
288.15	0.5473	0.1827	820.901	0.305
288.15	0.649	0.2167	823.157	0.305
288.15	0.6704	0.2239	823.656	0.305
288.15	0.7074	0.2362	824.482	0.304
303.15	0.0206	0.0622	787.408	0.309
303.15	0.0358	0.012	797.484	0.308
303.15	0.0395	0.1188	779.113	0.309
303.15	0.049	0.0488	791.809	0.308
303.15	0.0558	0.1678	772.529	0.31
303.15	0.0619	0.0207	797.764	0.307
303.15	0.068	0.0678	789.896	0.308
303.15	0.0697	0.2096	766.968	0.31
303.15	0.0959	0.2883	757.249	0.311
303.15	0.1025	0.0342	798.293	0.307
303.15	0.1094	0.3287	752.459	0.312
303.15	0.1108	0.1104	785.853	0.308
303.15	0.1301	0.3911	745.423	0.313
303.15	0.1384	0.0462	798.852	0.307
303.15	0.1498	0.4502	739.098	0.313
303.15	0.161	0.1604	781.307	0.309
303.15	0.1725	0.5186	732.245	0.314
303.15	0.1809	0.5437	729.861	0.314
303.15	0.181	0.1804	779.581	0.309
303.15	0.1858	0.062	799.564	0.307
303.15	0.1945	0.5846	726.056	0.314
303.15	0.2055	0.6177	723.198	0.315
303.15	0.2181	0.0728	800.095	0.307
303.15	0.2208	0.6635	719.336	0.315
303.15	0.2317	0.6964	716.705	0.316
303.15	0.2351	0.2342	774.955	0.31
303.15	0.2496	0.7504	712.73	0.316
303.15	0.2671	0.0892	800.831	0.307
303.15	0.2809	0.2799	771.283	0.31
303.15	0.2963	0.2974	769.794	0.31
303.15	0.3125	0.1044	801.549	0.307
303.15	0.3293	0.3281	767.688	0.31
303.15	0.3361	0.3349	767.178	0.31
303.15	0.3628	0.3615	765.383	0.31
303.15	0.3853	0.1287	802.777	0.307
303.15	0.4007	0.3993	762.864	0.311
303.15	0.4144	0.4129	762.027	0.311
303.15	0.4261	0.4245	761.288	0.311
303.15	0.443	0.4414	760.306	0.311
303.15	0.4477	0.4461	760.017	0.31
303.15	0.464	0.1549	804.141	0.306
303.15	0.4675	0.4658	758.923	0.311
303.15	0.5009	0.4991	757.206	0.311
303.15	0.5473	0.1827	805.679	0.306
303.15	0.649	0.2167	807.816	0.306
303.15	0.6704	0.2239	808.262	0.306
303.15	0.7074	0.2362	809.068	0.306
313.15	0.0206	0.0622	777.542	0.31
313.15	0.0358	0.012	787.503	0.309
313.15	0.0395	0.1188	769.327	0.31
313.15	0.049	0.0488	781.924	0.309
313.15	0.0558	0.1678	762.763	0.311
313.15	0.0619	0.0207	787.848	0.308
313.15	0.068	0.0678	780.018	0.309
313.15	0.0697	0.2096	757.273	0.311
313.15	0.0959	0.2883	747.577	0.312
313.15	0.1025	0.0342	788.303	0.308
313.15	0.1094	0.3287	742.808	0.313
313.15	0.1108	0.1104	775.946	0.309
313.15	0.1301	0.3911	735.914	0.314
313.15	0.1384	0.0462	788.807	0.308
313.15	0.1498	0.4502	729.636	0.314
313.15	0.161	0.1604	771.376	0.31
313.15	0.1725	0.5186	722.829	0.315
313.15	0.1809	0.5437	720.434	0.315
313.15	0.181	0.1804	769.697	0.31
313.15	0.1858	0.062	789.472	0.308
313.15	0.1945	0.5846	716.712	0.316
313.15	0.2055	0.6177	713.841	0.316
313.15	0.2181	0.0728	789.995	0.308
313.15	0.2208	0.6635	710.064	0.317
313.15	0.2317	0.6964	707.401	0.317
313.15	0.2351	0.2342	765.112	0.311
313.15	0.2496	0.7504	703.568	0.317
313.15	0.2671	0.0892	790.731	0.308
313.15	0.2809	0.2799	761.397	0.311
313.15	0.2963	0.2974	759.934	0.311
313.15	0.3125	0.1044	791.383	0.308
313.15	0.3293	0.3281	757.803	0.311
313.15	0.3361	0.3349	757.311	0.312
313.15	0.3628	0.3615	755.491	0.311
313.15	0.3853	0.1287	792.542	0.307
313.15	0.4007	0.3993	752.987	0.312
313.15	0.4144	0.4129	752.155	0.312
313.15	0.4261	0.4245	751.447	0.312
313.15	0.443	0.4414	750.496	0.312
313.15	0.4477	0.4461	750.207	0.311
313.15	0.464	0.1549	793.86	0.307
313.15	0.4675	0.4658	749.13	0.312
313.15	0.5009	0.4991	747.426	0.312
313.15	0.5473	0.1827	795.328	0.307
313.15	0.649	0.2167	797.351	0.307
313.15	0.6704	0.2239	797.824	0.307
313.15	0.7074	0.2362	798.58	0.307
