Measured thermophysical data. Heat capacity and thermodynamic properties of N-(2-cyanoethyl) aniline (C9H10N2)
Source: Thermochim. Acta, 2005, 10.1016/j.tca.2004.12.015
Compound 1: 3-anilinopropanenitrile, C9H10N2, InChI=1S/C9H10N2/c10-7-4-8-11-9-5-2-1-3-6-9/h1-3,5-6,11H,4,8H2, purity 98%

System: 3-anilinopropanenitrile; phases: Crystal 2, Crystal 1, Gas
Property: Molar enthalpy of transition or fusion, kJ/mol (Crystal 2); method: Adiabatic calorimetry
Molar enthalpy of transition or fusion, kJ/mol	uncertainty
19.4	0.005

System: 3-anilinopropanenitrile; phases: Crystal 1, Liquid, Gas
Property: Molar enthalpy of transition or fusion, kJ/mol (Crystal 1); method: Adiabatic calorimetry
Molar enthalpy of transition or fusion, kJ/mol	uncertainty
0.98	0.005

System: 3-anilinopropanenitrile; phases: Crystal 2, Crystal 1, Gas
Property: Triple point temperature, K (Crystal 2); method: Adiabatic calorimetry
Triple point temperature, K	uncertainty
310.63	0.05

System: 3-anilinopropanenitrile; phases: Crystal 1, Liquid, Gas
Property: Triple point temperature, K (Crystal 1); method: Adiabatic calorimetry
Triple point temperature, K	uncertainty
323.5	0.1

System: 3-anilinopropanenitrile; phases: Crystal 2
Fixed: Pressure, kPa = 101.325
Property: Molar heat capacity at constant pressure, J/K/mol (Crystal 2); method: Vacuum adiabatic calorimetry
Temperature, K	Molar heat capacity at constant pressure, J/K/mol	uncertainty
83.11	52.8	0.25
85.94	53.3	0.25
88.94	54.1	0.33
91.87	55.3	0.33
94.73	54.7	0.33
97.54	55.3	0.33
100.3	55.4	0.33
103.01	56	0.33
105.67	57.9	0.33
108.29	58.1	0.33
110.86	58.6	0.33
113.39	59.7	0.33
115.91	59.1	0.33
118.39	59.9	0.33
120.86	59.7	0.33
123.29	60.2	0.33
125.69	61.3	0.33
128.08	61.2	0.33
130.44	61.4	0.33
132.78	62	0.33
135.1	62.8	0.33
137.39	63.4	0.33
139.66	64.3	0.42
141.91	65	0.42
144.13	67.1	0.42
146.35	66.9	0.42
148.54	67.5	0.42
150.73	68.2	0.42
152.89	68.6	0.42
155.03	69.6	0.42
157.16	70.4	0.42
159.28	71.7	0.42
161.38	72.6	0.42
163.47	73	0.42
165.54	73.7	0.42
167.59	74.3	0.42
169.63	75.2	0.42
171.66	76	0.42
173.68	77	0.42
175.7	77.8	0.42
177.67	78.2	0.42
179.65	78.9	0.42
181.61	79.9	0.42
183.57	81.2	0.42
185.51	81.6	0.42
187.45	82.1	0.5
189.37	83	0.5
191.29	84	0.83
193.19	84	0.83
195.09	84.8	0.83
196.97	84.8	0.83
198.84	86.5	0.83
200.68	88.1	0.83
202.52	88.1	0.83
204.36	90.6	0.83
206.19	92.3	0.83
208.02	93.1	0.83
209.84	94.8	0.83
211.66	96.4	0.83
213.46	97.3	0.83
215.26	98.9	0.83
217.05	101	0.83
218.84	102	0.83
220.61	105	0.83
222.38	107	0.83
224.14	111	0.83
225.88	112	0.83
227.6	116	0.83
229.29	121	0.83
230.95	124	0.83
232.59	126	0.83
234.22	129	0.83
235.85	131	0.83
237.47	132	0.83
239.08	136	0.83
240.67	140	0.83
242.24	141	0.83
243.78	144	0.83
245.31	146	0.83
246.85	146	0.83
248.39	147	0.83
249.91	148	0.83
251.45	149	0.83
252.99	150	0.83
254.53	150	0.83
256.06	150	0.83
257.59	151	0.83
259.11	153	0.83
260.62	155	0.83
262.12	156	0.83
263.62	158	0.83
265.1	158	0.83
266.58	160	0.83
268.05	160	0.83
269.52	161	0.83
270.98	161	0.83
272.44	161	0.83
273.9	162	0.83
275.36	163	0.83
276.81	163	0.83
278.26	164	0.83
279.7	164	0.83
281.13	165	0.83
282.56	165	0.83
283.98	165	0.83
285.41	165	0.83
286.82	165	0.83
288.23	165	0.83
289.63	166	0.83
291.02	166	0.83
292.39	167	0.83
293.74	169	0.83
295.08	170	0.83
296.42	171	0.83
297.76	174	0.83
299.09	177	0.83
300.41	180	0.83
301.72	185	0.83
303	192	0.83
304.27	201	0.83
305.5	213	0.83
306.69	231	1.66
307.82	260	1.66
308.85	301	1.66
309.78	355	2.49
310.63	390	2.49

System: 3-anilinopropanenitrile; phases: Crystal 1
Fixed: Pressure, kPa = 101.325
Property: Molar heat capacity at constant pressure, J/K/mol (Crystal 1); method: Vacuum adiabatic calorimetry
Temperature, K	Molar heat capacity at constant pressure, J/K/mol	uncertainty
311.5	329	1.66
312.51	280	1.66
313.55	303	1.66
314.54	330	1.66
315.48	365	2.49
316.35	410	2.49
317.16	466	3.33
317.89	538	3.33
318.55	629	4.16
319.14	738	5.82
319.66	865	8.31
320.12	1014	8.31
320.52	1189	8.31
320.86	1380	16.6
321.16	1596	16.6
321.42	1846	24.9
321.65	2037	24.9
321.85	2361	33.3
322.03	2644	33.3
322.19	2885	33.3
322.33	3118	41.6
322.45	3359	58.2
322.56	3742	74.8
322.66	4116	74.8
322.75	4448	66.5
322.83	4648	83.14
322.9	5022	91.46
322.97	5280	83.14
323.03	5513	66.5
323.09	5621	91.46
323.15	6011	141.3
323.2	6386	133
323.24	6585	58.2
323.29	6627	41.6
323.33	6677	41.6

System: 3-anilinopropanenitrile; phases: Liquid
Fixed: Pressure, kPa = 101.325
Property: Molar heat capacity at constant pressure, J/K/mol (Liquid); method: Vacuum adiabatic calorimetry
Temperature, K	Molar heat capacity at constant pressure, J/K/mol	uncertainty
323.37	6568	158
323.42	6236	149.7
323.46	5862	124.7
323.5	5604	141.3
323.55	5446	133
323.59	5080	149.7
323.64	4673	182.9
323.69	4199	166.3
323.73	3816	224.5
323.78	3517	224.5
323.83	2536	207.9
324	1014	182.9
324.78	242	7.48
325.93	245	1.66
327.07	245	1.66
328.2	246	1.66
329.34	246	1.66
330.46	247	1.66
331.59	247	1.66
332.72	247	1.66
333.84	247	1.66
334.96	248	1.66
336.08	250	1.66
337.19	251	1.66
338.3	253	1.66
339.4	254	1.66
340.5	255	1.66
342.69	259	1.66
343.77	262	1.66
344.84	265	1.66
345.9	269	1.66
346.95	273	1.66
348.01	278	1.66
349.04	284	1.66
351.08	294	1.66
352.08	300	1.66
353.07	309	1.66

System: 3-anilinopropanenitrile; phases: Crystal 2
Fixed: Pressure, kPa = 101.325
Property: Molar heat capacity at constant pressure, J/K/mol (Crystal 2); method: Vacuum adiabatic calorimetry
Temperature, K	Molar heat capacity at constant pressure, J/K/mol	uncertainty
83	52.6	0.25
88	53.8	0.33
93	55	0.33
98	56	0.33
103	57	0.33
108	57.6	0.33
113	58.4	0.33
118	59.1	0.33
123	60.1	0.33
128	61.3	0.33
133	62.6	0.33
138	64.3	0.42
143	66	0.42
148	67.8	0.42
153	69.6	0.42
158	71.3	0.42
163	73.1	0.42
168	74.7	0.42
173	76.2	0.42
178	77.8	0.42
183	79.5	0.42
188	81.5	0.42
193	84	0.83
198	86.5	0.83
203	89.8	0.83
208	94	0.83
213	98.9	0.83
218	105	0.83
223	111	0.83
228	118	0.83
233	125	0.83
238	132	0.83
243	139	0.83
248	146	0.83
253	151	0.83
258	156	0.83
263	160	0.83
268	161	0.83
273	162	0.83
278	162	0.83
283	162	0.83
288	164	0.83
293	168	0.83
298.15	179	0.83
303	196	0.83
305	206	0.83

System: 3-anilinopropanenitrile; phases: Liquid
Fixed: Pressure, kPa = 101.325
Property: Molar heat capacity at constant pressure, J/K/mol (Liquid); method: Vacuum adiabatic calorimetry
Temperature, K	Molar heat capacity at constant pressure, J/K/mol	uncertainty
325	244	1.66
330	247	1.66
335	249	1.66
340	254	1.66
345	266	1.66
350	288	1.66
353	308	1.66
