Measured thermophysical data. Addendum to Effect of intramolecular cyclization on the enthalpies of solvation of tetramethylurea in water and alkanols at 298.15 K [Thermochim. Acta 475 (2008) 72-75]
Source: Thermochim. Acta, 2008, 10.1016/j.tca.2008.09.004
Compound 1: 1,3-dimethyl-2-imidazolidinone, C5H10N2O, InChI=1S/C5H10N2O/c1-6-3-4-7(2)5(6)8/h3-4H2,1-2H3, purity 99%
Compound 2: water-d2, D2O, InChI=1S/H2O/h1H2/i/hD2, purity 99.9%
Compound 3: methanol-O-d, CH3DO, InChI=1S/CH4O/c1-2/h2H,1H3/i2D, purity 99%
Compound 4: tetramethylurea, C5H12N2O, InChI=1S/C5H12N2O/c1-6(2)5(8)7(3)4/h1-4H3

System: 1,3-dimethyl-2-imidazolidinone + water-d2; phases: Liquid
Property: Molar enthalpy of solution, kJ/mol (Liquid); method: ISOPERIBOL
Molality, mol/kg of 1,3-dimethyl-2-imidazolidinone	Temperature, K	Pressure, kPa	Molar enthalpy of solution, kJ/mol	uncertainty
0.015	298.15	101	-18.15	0.16

System: 1,3-dimethyl-2-imidazolidinone + methanol-O-d; phases: Liquid
Property: Molar enthalpy of solution, kJ/mol (Liquid); method: ISOPERIBOL
Molality, mol/kg of 1,3-dimethyl-2-imidazolidinone	Temperature, K	Pressure, kPa	Molar enthalpy of solution, kJ/mol	uncertainty
0.015	298.15	101	-1.75	0.04

System: tetramethylurea + water-d2; phases: Liquid
Property: Molar enthalpy of solution, kJ/mol (Liquid); method: ISOPERIBOL
Molality, mol/kg of tetramethylurea	Temperature, K	Pressure, kPa	Molar enthalpy of solution, kJ/mol	uncertainty
0.015	298.15	101	-23.38	0.26

System: tetramethylurea + methanol-O-d; phases: Liquid
Property: Molar enthalpy of solution, kJ/mol (Liquid); method: ISOPERIBOL
Molality, mol/kg of tetramethylurea	Temperature, K	Pressure, kPa	Molar enthalpy of solution, kJ/mol	uncertainty
0.015	298.15	101	-5.01	0.22
