Measured thermophysical data. Experimental study on the thermal storage performance and non-isothermal crystallization kinetics of pentaerythritol blended with low melting metal
Source: Thermochim. Acta, 2018, 10.1016/j.tca.2018.02.007
Compound 1: 2,2-bis(hydroxymethyl)-1,3-propanediol, C5H12O4, InChI=1S/C5H12O4/c6-1-5(2-7,3-8)4-9/h6-9H,1-4H2

System: 2,2-bis(hydroxymethyl)-1,3-propanediol; phases: Crystal 2, Crystal 1, Air at 1 atmosphere
Property: Triple point temperature, K (Crystal 2); method: DSC
Triple point temperature, K	uncertainty
454.55	0.8

System: 2,2-bis(hydroxymethyl)-1,3-propanediol; phases: Crystal 2, Crystal 1, Air at 1 atmosphere
Property: Molar enthalpy of transition or fusion, kJ/mol (Crystal 2); method: DSC
Molar enthalpy of transition or fusion, kJ/mol	uncertainty
35.94264432	1.63375656

System: 2,2-bis(hydroxymethyl)-1,3-propanediol; phases: Crystal 1, Liquid, Air at 1 atmosphere
Property: Molar enthalpy of transition or fusion, kJ/mol (Crystal 1); method: DSC
Molar enthalpy of transition or fusion, kJ/mol	uncertainty
5.85429434	0.27229276

System: 2,2-bis(hydroxymethyl)-1,3-propanediol; phases: Crystal 1, Liquid, Air at 1 atmosphere
Property: Triple point temperature, K (Crystal 1); method: DSC
Triple point temperature, K	uncertainty
531.25	0.8

System: 2,2-bis(hydroxymethyl)-1,3-propanediol; phases: Crystal 2
Fixed: Pressure, kPa = 101.325
Property: Thermal conductivity, W/m/K (Crystal 2); method: T-histrory method
Temperature, K	Thermal conductivity, W/m/K	uncertainty
340.65	0.112	0.007
395.65	0.108	0.007
450.65	0.104	0.006
