Measured thermophysical data. THERMODYNAMIC PROPERTIES OF DONOR ACCEPTOR COMPLEXES OF TERTIARY AMINE  WITH ARYL KETONES IN HEXANE MEDIUM
Source: Thermochim. Acta, 2012, 10.1016/j.tca.2012.02.018
Compound 1: N,N-dimethylaniline, C8H11N, InChI=1S/C8H11N/c1-9(2)8-6-4-3-5-7-8/h3-7H,1-2H3, purity 99.8%
Compound 2: acetophenone, C8H8O, InChI=1S/C8H8O/c1-7(9)8-5-3-2-4-6-8/h2-6H,1H3, purity 99%
Compound 3: 4'-chloroacetophenone, C8H7ClO, InChI=1S/C8H7ClO/c1-6(10)7-2-4-8(9)5-3-7/h2-5H,1H3, purity 99%
Compound 4: 4'-methylacetophenone, C9H10O, InChI=1S/C9H10O/c1-7-3-5-9(6-4-7)8(2)10/h3-6H,1-2H3, purity 99%
Compound 5: hexane, C6H14, InChI=1S/C6H14/c1-3-5-6-4-2/h3-6H2,1-2H3, purity 99.8%

System: acetophenone + hexane + N,N-dimethylaniline; phases: Liquid
Fixed: Pressure, kPa = 101
Property: Viscosity, Pa*s (Liquid); method: Capillary tube (Ostwald; Ubbelohde) method
Temperature, K	Amount concentration (molarity), mol/dm3 of acetophenone	Amount concentration (molarity), mol/dm3 of N,N-dimethylaniline	Viscosity, Pa*s	uncertainty
298.15	0.025	0.025	0.0003511	1.03e-05
298.15	0.05	0.05	0.0003529	1.03e-05
298.15	0.075	0.075	0.0003565	1.03e-05
298.15	0.1	0.1	0.0003577	1.03e-05
298.15	0.125	0.125	0.000361	1.03e-05
298.15	0.15	0.15	0.0003625	1.03e-05
298.15	0.175	0.175	0.0003637	1.03e-05
298.15	0.2	0.2	0.0003652	1.03e-05
303.15	0.025	0.025	0.0003342	1.03e-05
303.15	0.05	0.05	0.0003395	1.03e-05
303.15	0.075	0.075	0.0003407	1.03e-05
303.15	0.1	0.1	0.0003418	1.03e-05
303.15	0.125	0.125	0.0003439	1.03e-05
303.15	0.15	0.15	0.0003485	1.03e-05
303.15	0.175	0.175	0.0003496	1.03e-05
303.15	0.2	0.2	0.0003505	1.03e-05
308.15	0.025	0.025	0.0003163	1.03e-05
308.15	0.05	0.05	0.0003174	1.03e-05
308.15	0.075	0.075	0.000319	1.03e-05
308.15	0.1	0.1	0.0003213	1.03e-05
308.15	0.125	0.125	0.0003245	1.03e-05
308.15	0.15	0.15	0.0003241	1.03e-05
308.15	0.175	0.175	0.0003266	1.03e-05
308.15	0.2	0.2	0.0003298	1.03e-05
313.15	0.025	0.025	0.0003043	1.03e-05
313.15	0.05	0.05	0.0003048	1.03e-05
313.15	0.075	0.075	0.0003039	1.03e-05
313.15	0.1	0.1	0.0003176	1.03e-05
313.15	0.125	0.125	0.0003128	1.03e-05
313.15	0.15	0.15	0.0003142	1.03e-05
313.15	0.175	0.175	0.0003143	1.03e-05
313.15	0.2	0.2	0.0003169	1.03e-05

System: acetophenone + hexane + N,N-dimethylaniline; phases: Liquid
Fixed: Pressure, kPa = 101
Property: Speed of sound, m/s (Liquid); method: Linear variable-path acoustic interferometer
Temperature, K	Amount concentration (molarity), mol/dm3 of N,N-dimethylaniline	Amount concentration (molarity), mol/dm3 of acetophenone	Speed of sound, m/s	uncertainty
298.15	0.025	0.025	1076.7	2.5
298.15	0.05	0.05	1079.7	2.5
298.15	0.075	0.075	1081.9	2.5
298.15	0.1	0.1	1083.9	2.5
298.15	0.125	0.125	1086.1	2.4
298.15	0.15	0.15	1087.5	2.4
298.15	0.175	0.175	1090.6	2.5
298.15	0.2	0.2	1093.4	2.5
303.15	0.025	0.025	1058.3	2.6
303.15	0.05	0.05	1059.4	2.7
303.15	0.075	0.075	1062.5	2.5
303.15	0.1	0.1	1064.4	2.7
303.15	0.125	0.125	1067.3	2.5
303.15	0.15	0.15	1067.5	2.6
303.15	0.175	0.175	1071.3	2.5
303.15	0.2	0.2	1073.5	2.5
308.15	0.025	0.025	1028.1	2.5
308.15	0.05	0.05	1029.3	2.5
308.15	0.075	0.075	1031.6	2.7
308.15	0.1	0.1	1034.2	2.5
308.15	0.125	0.125	1035.9	2.6
308.15	0.15	0.15	1037.5	2.6
308.15	0.175	0.175	1040.5	2.7
308.15	0.2	0.2	1043.6	2.7
313.15	0.025	0.025	1009.2	2.4
313.15	0.05	0.05	1011.2	2.4
313.15	0.075	0.075	1012.1	2.4
313.15	0.1	0.1	1013.5	2.4
313.15	0.125	0.125	1015	2.4
313.15	0.15	0.15	1017.7	2.5
313.15	0.175	0.175	1019.2	2.4
313.15	0.2	0.2	1021.2	2.5

System: acetophenone + hexane + N,N-dimethylaniline; phases: Liquid
Fixed: Pressure, kPa = 101
Property: Mass density, kg/m3 (Liquid); method: Pycnometric method
Temperature, K	Amount concentration (molarity), mol/dm3 of acetophenone	Amount concentration (molarity), mol/dm3 of N,N-dimethylaniline	Mass density, kg/m3	uncertainty
298.15	0.025	0.025	668	2
298.15	0.05	0.05	669.9	2.1
298.15	0.075	0.075	672.3	2.1
298.15	0.1	0.1	674.1	2
298.15	0.125	0.125	676.3	2
298.15	0.15	0.15	678.9	2.1
298.15	0.175	0.175	680.7	2
298.15	0.2	0.2	682.6	2
303.15	0.025	0.025	664.4	2
303.15	0.05	0.05	666.3	2.1
303.15	0.075	0.075	668.4	2
303.15	0.1	0.1	670.4	2.1
303.15	0.125	0.125	672.9	2
303.15	0.15	0.15	674.5	2
303.15	0.175	0.175	676.9	2.1
303.15	0.2	0.2	679.1	2
308.15	0.025	0.025	660.7	2
308.15	0.05	0.05	662	2.1
308.15	0.075	0.075	664.6	2.1
308.15	0.1	0.1	666.3	2
308.15	0.125	0.125	668.7	2.1
308.15	0.15	0.15	670.5	2
308.15	0.175	0.175	672.7	2.1
308.15	0.2	0.2	674.9	2.1
313.15	0.025	0.025	656.2	2.1
313.15	0.05	0.05	658.3	2
313.15	0.075	0.075	660.5	2.1
313.15	0.1	0.1	663.5	2
313.15	0.125	0.125	664.6	2
313.15	0.15	0.15	666.4	2
313.15	0.175	0.175	668.6	2.1
313.15	0.2	0.2	670.6	2

System: 4'-chloroacetophenone + hexane + N,N-dimethylaniline; phases: Liquid
Fixed: Pressure, kPa = 101
Property: Viscosity, Pa*s (Liquid); method: Capillary tube (Ostwald; Ubbelohde) method
Temperature, K	Amount concentration (molarity), mol/dm3 of 4'-chloroacetophenone	Amount concentration (molarity), mol/dm3 of N,N-dimethylaniline	Viscosity, Pa*s	uncertainty
298.15	0.025	0.025	0.0003586	1.04e-05
298.15	0.05	0.05	0.0003635	1.04e-05
298.15	0.075	0.075	0.0003619	1.03e-05
298.15	0.1	0.1	0.0003686	1.04e-05
298.15	0.125	0.125	0.0003663	1.04e-05
298.15	0.15	0.15	0.0003672	1.04e-05
298.15	0.175	0.175	0.0003735	1.04e-05
298.15	0.2	0.2	0.0003756	1.04e-05
303.15	0.025	0.025	0.0003377	1.03e-05
303.15	0.05	0.05	0.0003397	1.03e-05
303.15	0.075	0.075	0.0003427	1.03e-05
303.15	0.1	0.1	0.0003426	1.03e-05
303.15	0.125	0.125	0.0003456	1.03e-05
303.15	0.15	0.15	0.000347	1.03e-05
303.15	0.175	0.175	0.0003508	1.04e-05
303.15	0.2	0.2	0.0003549	1.04e-05
308.15	0.025	0.025	0.0003194	1.03e-05
308.15	0.05	0.05	0.0003211	1.03e-05
308.15	0.075	0.075	0.0003245	1.03e-05
308.15	0.1	0.1	0.0003265	1.03e-05
308.15	0.125	0.125	0.0003279	1.03e-05
308.15	0.15	0.15	0.0003292	1.03e-05
308.15	0.175	0.175	0.0003317	1.03e-05
308.15	0.2	0.2	0.000333	1.03e-05
313.15	0.025	0.025	0.0003024	1.03e-05
313.15	0.05	0.05	0.0003048	1.03e-05
313.15	0.075	0.075	0.0003074	1.03e-05
313.15	0.1	0.1	0.0003081	1.03e-05
313.15	0.125	0.125	0.0003108	1.03e-05
313.15	0.15	0.15	0.0003121	1.03e-05
313.15	0.175	0.175	0.0003172	1.03e-05
313.15	0.2	0.2	0.0003182	1.03e-05

System: 4'-chloroacetophenone + hexane + N,N-dimethylaniline; phases: Liquid
Fixed: Pressure, kPa = 101
Property: Speed of sound, m/s (Liquid); method: Linear variable-path acoustic interferometer
Temperature, K	Amount concentration (molarity), mol/dm3 of N,N-dimethylaniline	Amount concentration (molarity), mol/dm3 of 4'-chloroacetophenone	Speed of sound, m/s	uncertainty
298.15	0.025	0.025	1077.1	2.5
298.15	0.05	0.05	1079.7	2.4
298.15	0.075	0.075	1081.1	2.4
298.15	0.1	0.1	1082	2.5
298.15	0.125	0.125	1085.4	2.5
298.15	0.15	0.15	1086.3	2.4
298.15	0.175	0.175	1088.7	2.5
298.15	0.2	0.2	1091.9	2.5
303.15	0.025	0.025	1057.9	2.7
303.15	0.05	0.05	1060.3	2.6
303.15	0.075	0.075	1062	2.5
303.15	0.1	0.1	1064.3	2.7
303.15	0.125	0.125	1066.2	2.5
303.15	0.15	0.15	1067.6	2.5
303.15	0.175	0.175	1069.1	2.5
303.15	0.2	0.2	1072.6	2.5
308.15	0.025	0.025	1028.6	2.5
308.15	0.05	0.05	1030.8	2.5
308.15	0.075	0.075	1031.8	2.6
308.15	0.1	0.1	1034.1	2.5
308.15	0.125	0.125	1036.1	2.6
308.15	0.15	0.15	1036.3	2.6
308.15	0.175	0.175	1038.1	2.6
308.15	0.2	0.2	1040.9	2.7
313.15	0.025	0.025	1005.8	2.5
313.15	0.05	0.05	1007.5	2.5
313.15	0.075	0.075	1009.8	2.5
313.15	0.1	0.1	1010.3	2.5
313.15	0.125	0.125	1012.1	2.5
313.15	0.15	0.15	1013.4	2.5
313.15	0.175	0.175	1015.6	2.5
313.15	0.2	0.2	1017.9	2.5

System: 4'-chloroacetophenone + hexane + N,N-dimethylaniline; phases: Liquid
Fixed: Pressure, kPa = 101
Property: Mass density, kg/m3 (Liquid); method: Pycnometric method
Temperature, K	Amount concentration (molarity), mol/dm3 of 4'-chloroacetophenone	Amount concentration (molarity), mol/dm3 of N,N-dimethylaniline	Mass density, kg/m3	uncertainty
298.15	0.025	0.025	669.8	2.1
298.15	0.05	0.05	672.3	2.1
298.15	0.075	0.075	674.6	2.1
298.15	0.1	0.1	677.3	2.1
298.15	0.125	0.125	680.7	2.1
298.15	0.15	0.15	683.3	2.1
298.15	0.175	0.175	686.2	2.1
298.15	0.2	0.2	688.8	2.1
303.15	0.025	0.025	664.6	2.1
303.15	0.05	0.05	667.5	2
303.15	0.075	0.075	669.8	2.1
303.15	0.1	0.1	672.7	2
303.15	0.125	0.125	675.3	2.1
303.15	0.15	0.15	677.8	2.1
303.15	0.175	0.175	681.4	2.1
303.15	0.2	0.2	683.7	2.1
308.15	0.025	0.025	660.8	2.1
308.15	0.05	0.05	663.4	2.1
308.15	0.075	0.075	666.4	2.1
308.15	0.1	0.1	669.4	2.1
308.15	0.125	0.125	671.6	2
308.15	0.15	0.15	674.5	2.1
308.15	0.175	0.175	676.9	2.1
308.15	0.2	0.2	680.1	2.1
313.15	0.025	0.025	656.7	2.1
313.15	0.05	0.05	659.1	2.1
313.15	0.075	0.075	661.9	2.1
313.15	0.1	0.1	664.8	2.1
313.15	0.125	0.125	667.5	2.1
313.15	0.15	0.15	670.1	2.1
313.15	0.175	0.175	672.6	2.1
313.15	0.2	0.2	676	2.1

System: hexane + N,N-dimethylaniline + 4'-methylacetophenone; phases: Liquid
Fixed: Pressure, kPa = 101
Property: Viscosity, Pa*s (Liquid); method: Capillary tube (Ostwald; Ubbelohde) method
Temperature, K	Amount concentration (molarity), mol/dm3 of 4'-methylacetophenone	Amount concentration (molarity), mol/dm3 of N,N-dimethylaniline	Viscosity, Pa*s	uncertainty
298.15	0.025	0.025	0.0003565	1.04e-05
298.15	0.05	0.05	0.0003594	1.04e-05
298.15	0.075	0.075	0.0003623	1.04e-05
298.15	0.1	0.1	0.0003624	1.04e-05
298.15	0.125	0.125	0.0003646	1.04e-05
298.15	0.15	0.15	0.0003662	1.03e-05
298.15	0.175	0.175	0.0003684	1.04e-05
298.15	0.2	0.2	0.0003699	1.04e-05
303.15	0.025	0.025	0.0003339	1.03e-05
303.15	0.05	0.05	0.0003371	1.03e-05
303.15	0.075	0.075	0.0003386	1.03e-05
303.15	0.1	0.1	0.0003425	1.03e-05
303.15	0.125	0.125	0.0003446	1.03e-05
303.15	0.15	0.15	0.0003474	1.03e-05
303.15	0.175	0.175	0.0003486	1.03e-05
303.15	0.2	0.2	0.0003508	1.03e-05
308.15	0.025	0.025	0.0003182	1.03e-05
308.15	0.05	0.05	0.0003185	1.03e-05
308.15	0.075	0.075	0.0003212	1.03e-05
308.15	0.1	0.1	0.0003288	1.03e-05
308.15	0.125	0.125	0.0003295	1.03e-05
308.15	0.15	0.15	0.0003281	1.03e-05
308.15	0.175	0.175	0.0003269	1.03e-05
308.15	0.2	0.2	0.0003329	1.03e-05
313.15	0.025	0.025	0.0003	1.03e-05
313.15	0.05	0.05	0.0003048	1.03e-05
313.15	0.075	0.075	0.0003059	1.03e-05
313.15	0.1	0.1	0.0003083	1.03e-05
313.15	0.125	0.125	0.0003092	1.03e-05
313.15	0.15	0.15	0.0003097	1.03e-05
313.15	0.175	0.175	0.0003113	1.03e-05
313.15	0.2	0.2	0.0003144	1.03e-05

System: hexane + N,N-dimethylaniline + 4'-methylacetophenone; phases: Liquid
Fixed: Pressure, kPa = 101
Property: Speed of sound, m/s (Liquid); method: Linear variable-path acoustic interferometer
Temperature, K	Amount concentration (molarity), mol/dm3 of N,N-dimethylaniline	Amount concentration (molarity), mol/dm3 of 4'-methylacetophenone	Speed of sound, m/s	uncertainty
298.15	0.025	0.025	1073.5	2.4
298.15	0.05	0.05	1076.8	2.4
298.15	0.075	0.075	1078	2.4
298.15	0.1	0.1	1081.3	2.5
298.15	0.125	0.125	1084.3	2.5
298.15	0.15	0.15	1087.8	2.5
298.15	0.175	0.175	1090.1	2.5
298.15	0.2	0.2	1092.3	2.5
303.15	0.025	0.025	1057.4	2.7
303.15	0.05	0.05	1059.4	2.7
303.15	0.075	0.075	1061.7	2.5
303.15	0.1	0.1	1063.5	2.7
303.15	0.125	0.125	1066	2.5
303.15	0.15	0.15	1068.9	2.5
303.15	0.175	0.175	1071.1	2.5
303.15	0.2	0.2	1072.4	2.5
308.15	0.025	0.025	1025.5	2.5
308.15	0.05	0.05	1027.4	2.5
308.15	0.075	0.075	1029.4	2.7
308.15	0.1	0.1	1031.9	2.5
308.15	0.125	0.125	1035.6	2.7
308.15	0.15	0.15	1036.8	2.7
308.15	0.175	0.175	1038.9	2.7
308.15	0.2	0.2	1042.4	2.7
313.15	0.025	0.025	1005.8	2.4
313.15	0.05	0.05	1007.2	2.4
313.15	0.075	0.075	1009.5	2.4
313.15	0.1	0.1	1014.1	2.4
313.15	0.125	0.125	1015.3	2.4
313.15	0.15	0.15	1017.7	2.4
313.15	0.175	0.175	1020.5	2.4
313.15	0.2	0.2	1022	2

System: hexane + N,N-dimethylaniline + 4'-methylacetophenone; phases: Liquid
Fixed: Pressure, kPa = 101
Property: Mass density, kg/m3 (Liquid); method: Pycnometric method
Temperature, K	Amount concentration (molarity), mol/dm3 of 4'-methylacetophenone	Amount concentration (molarity), mol/dm3 of N,N-dimethylaniline	Mass density, kg/m3	uncertainty
298.15	0.025	0.025	668.3	2
298.15	0.05	0.05	670.2	2.1
298.15	0.075	0.075	672.5	2.1
298.15	0.1	0.1	674.7	2.1
298.15	0.125	0.125	676.9	2
298.15	0.15	0.15	679.1	2
298.15	0.175	0.175	681.4	2.1
298.15	0.2	0.2	683.3	2
303.15	0.025	0.025	664.2	2
303.15	0.05	0.05	666.4	2
303.15	0.075	0.075	668.4	2
303.15	0.1	0.1	670.4	2
303.15	0.125	0.125	672.7	2.1
303.15	0.15	0.15	675	2.1
303.15	0.175	0.175	676.9	2
303.15	0.2	0.2	678.5	2
308.15	0.025	0.025	660.4	2.1
308.15	0.05	0.05	662.3	2.1
308.15	0.075	0.075	664.6	2.1
308.15	0.1	0.1	666.5	2.1
308.15	0.125	0.125	668.8	2.1
308.15	0.15	0.15	671	2
308.15	0.175	0.175	673	2
308.15	0.2	0.2	675.3	2
313.15	0.025	0.025	655.7	2.1
313.15	0.05	0.05	657.8	2.1
313.15	0.075	0.075	660.6	2.1
313.15	0.1	0.1	662.4	2.1
313.15	0.125	0.125	664.8	2.1
313.15	0.15	0.15	666.7	2
313.15	0.175	0.175	668.8	2
313.15	0.2	0.2	670.9	2.1
