Measured thermophysical data. Study of the phase transition and thermodynamic functions of LiMn2O4
Source: Thermochim. Acta, 2014, 10.1016/j.tca.2014.08.020
Compound 1: lithium manganese oxide (LiMn2O4), LiMn2O4, InChI=1S/Li.2Mn.4O/q+1;+3;+4;4*-2, purity 99%

System: lithium manganese oxide (LiMn2O4); phases: Crystal 2, Crystal 1, Gas
Property: Triple point temperature, K (Crystal 2); method: Adiabatic calorimetry
Triple point temperature, K	uncertainty
286	0.2

System: lithium manganese oxide (LiMn2O4); phases: Crystal 2, Crystal 1, Gas
Property: Molar enthalpy of transition or fusion, kJ/mol (Crystal 2); method: Adiabatic calorimetry
Molar enthalpy of transition or fusion, kJ/mol	uncertainty
1.157	0.05

System: lithium manganese oxide (LiMn2O4); phases: Crystal 2
Fixed: Pressure, kPa = 101.325
Property: Molar heat capacity at constant pressure, J/K/mol (Crystal 2); method: Small (less than 1 g) adiabatic calorimetry
Temperature, K	Molar heat capacity at constant pressure, J/K/mol	uncertainty
5	0.317	0.022
10	1.21	0.056
15	2.165	0.094
20	3.171	0.133
25	4.608	0.066
30	6.462	0.114
35	8.667	0.134
40	11.12	0.12
45	13.74	0.13
50	16.44	0.15
60	21.93	0.17
70	27.47	0.2
80	33.14	0.23
90	39.04	0.3
100	45.2	0.32
110	51.56	0.35
120	58.01	0.38
130	64.43	0.41
140	70.71	0.44
150	76.81	0.47
160	82.69	0.5
170	88.32	0.53
180	93.71	0.55
190	98.86	0.58
200	103.8	0.6
210	108.7	0.6
220	113.4	0.6
230	117.9	0.7
240	122.4	0.7
250	127.1	0.7
260	131.9	0.7
270	136.5	0.8
273.15	137.9	0.8
280	140.8	0.8
286	143.1	0.8

System: lithium manganese oxide (LiMn2O4); phases: Crystal 2
Fixed: Pressure, kPa = 101.325
Property: Molar enthalpy, kJ/mol (Crystal 2); method: Small (less than 1 g) adiabatic calorimetry
Temperature, K	Molar enthalpy, kJ/mol	uncertainty
5	0.000528	8.6e-05
10	0.004212	0.000209
15	0.01261	0.00042
20	0.02586	0.00072
25	0.04511	0.00113
30	0.07263	0.00279
35	0.1103	0.0036
40	0.1597	0.0038
45	0.2218	0.0046
50	0.2973	0.0055
60	0.4891	0.0077
70	0.7361	0.0106
80	1.039	0.014
90	1.4	0.018
100	1.821	0.021
110	2.304	0.024
120	2.852	0.028
130	3.464	0.031
140	4.14	0.036
150	4.878	0.04
160	5.676	0.045
170	6.531	0.05
180	7.441	0.055
190	8.404	0.061
200	9.418	0.067
210	10.48	0.07
220	11.59	0.08
230	12.75	0.09
240	13.95	0.09
250	15.2	0.1
260	16.49	0.11
270	17.83	0.11
273.15	18.27	0.12
280	19.22	0.12
286	20.07	0.13

System: lithium manganese oxide (LiMn2O4); phases: Crystal 2
Fixed: Pressure, kPa = 101.325
Property: Molar entropy, J/K/mol (Crystal 2); method: Small (less than 1 g) adiabatic calorimetry
Temperature, K	Molar entropy, J/K/mol	uncertainty
5	0.158	0.027
10	0.633	0.037
15	1.301	0.056
20	2.056	0.078
25	2.91	0.102
30	3.908	0.173
35	5.065	0.202
40	6.381	0.17
45	7.841	0.189
50	9.428	0.211
60	12.91	0.26
70	16.71	0.32
80	20.74	0.38
90	24.98	0.35
100	29.41	0.38
110	34.02	0.41
120	38.78	0.44
130	43.68	0.48
140	48.69	0.51
150	53.77	0.55
160	58.92	0.58
170	64.1	0.62
180	69.3	0.66
190	74.51	0.69
200	79.71	0.73
210	84.89	0.77
220	90.05	0.8
230	95.2	0.84
240	100.3	0.9
250	105.4	0.9
260	110.5	1
270	115.5	1
273.15	117.1	1
280	120.6	1
286	123.6	1

System: lithium manganese oxide (LiMn2O4); phases: Crystal 1
Fixed: Pressure, kPa = 101.325
Property: Molar heat capacity at constant pressure, J/K/mol (Crystal 1); method: Small (less than 1 g) adiabatic calorimetry
Temperature, K	Molar heat capacity at constant pressure, J/K/mol	uncertainty
286	143.1	0.8
290	144.4	0.8
298.15	146.9	0.8
300	147.4	0.8
310	149.7	0.8
320	151.4	0.8
330	153	0.8
340	154.7	0.8
347	156.6	0.9

System: lithium manganese oxide (LiMn2O4); phases: Crystal 1
Fixed: Pressure, kPa = 101.325
Property: Molar enthalpy, kJ/mol (Crystal 1); method: Small (less than 1 g) adiabatic calorimetry
Temperature, K	Molar enthalpy, kJ/mol	uncertainty
286	21.23	0.13
290	21.81	0.13
298.15	22.99	0.14
300	23.27	0.14
310	24.75	0.15
320	26.26	0.16
330	27.78	0.17
340	29.32	0.18
347	30.41	0.18

System: lithium manganese oxide (LiMn2O4); phases: Crystal 1
Fixed: Pressure, kPa = 101.325
Property: Molar entropy, J/K/mol (Crystal 1); method: Small (less than 1 g) adiabatic calorimetry
Temperature, K	Molar entropy, J/K/mol	uncertainty
286	127.6	1.1
290	129.6	1.1
298.15	133.7	1.1
300	134.6	1.1
310	139.5	1.2
320	144.2	1.2
330	148.9	1.2
340	153.5	1.3
347	156.7	1.3

System: lithium manganese oxide (LiMn2O4); phases: Crystal 2
Fixed: Pressure, kPa = 101.325
Property: Mass density, kg/m3 (Crystal 2); method: X-ray diffraction
Temperature, K	Mass density, kg/m3	uncertainty
153	4279	6
173	4279	6
223	4276	6
273	4270	6

System: lithium manganese oxide (LiMn2O4); phases: Crystal 1
Fixed: Pressure, kPa = 101.325
Property: Mass density, kg/m3 (Crystal 1); method: X-ray diffraction
Temperature, K	Mass density, kg/m3	uncertainty
298	4269	6
373	4261	6
473	4249	6
573	4232	6
673	4212	6
773	4192	6
873	4172	6
973	4153	6
1073	4136	6

System: lithium manganese oxide (LiMn2O4); phases: Crystal 2
Fixed: Pressure, kPa = 101.325
Property: Molar heat capacity at constant pressure, J/K/mol (Crystal 2); method: Small (less than 1 g) adiabatic calorimetry
Temperature, K	Molar heat capacity at constant pressure, J/K/mol	uncertainty
6.02	0.435	0.0496
6.15	0.47	0.0487
6.35	0.512	0.0498
6.57	0.555	0.0521
6.77	0.591	0.0518
6.98	0.6371	0.0505
7.18	0.6726	0.0525
7.38	0.7225	0.0537
7.59	0.7557	0.0556
7.8	0.781	0.0537
8	0.835	0.0562
8.21	0.875	0.0564
8.42	0.925	0.0583
8.64	0.943	0.0601
8.84	0.99	0.0601
9.05	1.03	0.062
9.27	1.07	0.062
9.48	1.112	0.065
9.69	1.15	0.066
9.92	1.2	0.067
10.33	1.277	0.07
10.94	1.392	0.073
11.56	1.493	0.074
12.18	1.586	0.08
12.82	1.732	0.087
13.46	1.849	0.09
14.11	1.979	0.095
14.77	2.117	0.101
15.43	2.263	0.106
16.1	2.395	0.11
16.77	2.518	0.113
17.45	2.636	0.118
18.13	2.758	0.122
18.82	2.881	0.127
19.52	3.019	0.134
20.21	3.172	0.073
21.9	3.62	0.084
24.63	4.531	0.096
27.44	5.589	0.107
30.32	6.688	0.139
33.27	7.862	0.15
36.28	9.12	0.164
39.35	10.58	0.18
42.46	12.28	0.17
45.6	14.03	0.18
48.79	15.91	0.18
52	17.61	0.19
55.24	19.44	0.19
58.51	21.21	0.2
61.8	23	0.21
65.13	24.86	0.21
68.47	26.51	0.22
71.8	28.41	0.24
75.12	30.35	0.24
78.46	32.19	0.25
81.81	34.13	0.26
85.18	36.12	0.27
88.55	38.14	0.28
91.93	40.08	0.31
95.32	42.33	0.34
98.72	44.44	0.34
102.13	46.59	0.35
105.54	48.75	0.36
83.89	35.35	0.27
88.05	37.84	0.28
91.41	39.88	0.31
91.93	40.08	0.31
94.77	41.98	0.33
98.15	44.08	0.34
101.53	46.21	0.35
104.92	48.36	0.36
108.31	50.52	0.37
111.71	52.71	0.38
115.11	54.87	0.39
118.53	57.09	0.4
121.94	59.27	0.41
125.36	61.44	0.42
128.78	63.63	0.43
132.21	65.78	0.44
132.24	65.81	0.44
135.64	67.94	0.45
136.39	68.43	0.45
139.82	70.51	0.46
143.25	72.74	0.47
146.69	74.8	0.48
150.14	76.9	0.49
153.59	78.98	0.5
157.04	81.02	0.51
160.5	82.97	0.51
163.97	84.97	0.52
167.44	86.94	0.53
170.91	88.9	0.54
173.05	90.08	0.55
174.38	90.81	0.55
177.21	92.15	0.55
178.87	93.02	0.56
180.73	94.07	0.56
184.9	96.22	0.58
185.85	96.79	0.58
187.71	97.63	0.58
188.45	98.03	0.59
188.96	98.36	0.59
189.92	98.83	0.59
191.78	99.7	0.59
192.42	100.1	0.6
195.89	101.8	0.6
197.34	102.5	0.6
199.35	103.6	0.6
199.36	103.5	0.6
201.4	104.5	0.6
202.82	105.1	0.6
203.42	105.5	0.6
206.29	107	0.6
209.76	108.7	0.6
213.23	110.2	0.6
216.7	111.9	0.6
220.18	113.5	0.7
223.66	115.1	0.7
227.14	116.6	0.7
230.62	118.1	0.7
234.1	119.8	0.7
237.58	121.3	0.7
241.1	122.8	0.7
244.59	124.4	0.7
248.08	126.1	0.8
251.57	127.8	0.7
255.06	129.8	0.8
258.55	131.8	0.8
262.03	134.4	0.9
265.51	137.6	0.9
268.99	141.8	0.9
279.31	173.4	1.4
282.67	196	1.7
230.8	118.4	0.7
234.26	119.7	0.7
237.79	121.5	0.7
241.32	123.1	0.7
244.86	124.6	0.7
248.41	126.5	0.8
251.95	128.2	0.8
255.49	130.2	0.8
259.04	132.5	0.8
262.59	135.6	0.9
266.15	138.9	0.9
269.69	143	0.9
272.46	148	0.9
273.21	149.8	1
275.9	157.6	1.1
276.71	160.4	1.3
280.23	179.5	1.7
283.65	201.8	1.6

System: lithium manganese oxide (LiMn2O4); phases: Crystal 1
Fixed: Pressure, kPa = 101.325
Property: Molar heat capacity at constant pressure, J/K/mol (Crystal 1); method: Small (less than 1 g) adiabatic calorimetry
Temperature, K	Molar heat capacity at constant pressure, J/K/mol	uncertainty
286.04	210.6	1.1
289.54	199.5	1.1
293.18	178.4	1
296.69	162.4	0.9
300.53	151.5	0.8
304.72	148.9	0.8
309.39	149.3	0.8
314.04	150.2	0.8
318.68	151.1	0.8
323.34	151.8	0.8
327.99	152.5	0.8
332.65	153.2	0.8
337.31	153.9	0.8
341.99	155.2	0.9
346.65	156.3	0.9
287.1	209.7	1.1
290.7	193.9	1
294.43	174.1	0.9
298.15	159.9	0.9
307.23	149.4	0.8
311.93	150.2	0.8
316.63	151.1	0.8
321.33	151.9	0.8
326.03	152.6	0.8
335.46	154	0.8
344.9	155.9	0.9
330.73	153.3	0.8
340.18	154.8	0.8
