Measured thermophysical data. Experimental study of the isochoric heat capacity and liquid-gas coexistence-curve properties of sec-butanol in the near- and supercritical regions
Source: Thermochim. Acta, 2014, 10.1016/j.tca.2013.08.031
Compound 1: butan-2-ol, C4H10O, InChI=1S/C4H10O/c1-3-4(2)5/h4-5H,3H2,1-2H3, purity 99.94%

System: butan-2-ol; phases: Liquid, Gas
Property: Critical temperature, K (Liquid); method: DTA
Critical temperature, K	uncertainty
535.95	0.39

System: butan-2-ol; phases: Liquid, Gas
Property: Critical density, kg/m3 (Liquid); method: DSC
Critical density, kg/m3	uncertainty
276.4	21.41

System: butan-2-ol; phases: Fluid (supercritical or subcritical phases)
Property: Molar heat capacity at constant volume, J/K/mol (Fluid (supercritical or subcritical phases)); method: Vacuum adiabatic calorimetry
Mass density, kg/m3	Temperature, K	Molar heat capacity at constant volume, J/K/mol	uncertainty
76.44	501.71	522.0384288	5.2626336
76.44	501.9	509.2895136	5.1143904
76.44	502.09	497.2076928	5.0402688
76.44	502.28	502.0255968	5.0402688
76.44	502.46	499.0607328	5.0402688
76.44	502.65	495.2805312	4.9661472
76.44	502.84	491.426208	4.9661472
76.44	503.03	490.8332352	4.9661472
76.44	503.22	487.0530336	4.8920256
76.44	503.41	488.9801952	4.8920256
76.44	503.6	491.796816	4.9661472
76.44	503.97	497.726544	5.0402688
76.44	504.16	500.5431648	5.0402688
76.44	504.35	512.2543776	5.188512
76.44	504.54	524.039712	5.2626336
76.44	504.73	551.6870688	5.6332416
76.44	504.92	530.2659264	5.8556064
76.44	505.11	521.816064	6.300336
76.44	505.29	499.579584	6.2262144
76.44	505.48	412.3384608	6.1520928
76.44	505.67	315.9062592	6.0038496
76.44	505.86	251.9393184	7.6345248
76.44	506.05	248.8262112	7.041552
95.93	513.18	639.0023136	6.4485792
95.93	513.36	647.6004192	6.5227008
95.93	513.55	645.0802848	6.4485792
95.93	513.74	641.3000832	8.3016192
95.93	513.92	638.1128544	8.2274976
95.93	514.11	635.7409632	8.3016192
95.93	514.3	627.5875872	8.0792544
95.93	514.48	308.716464	5.8556064
95.93	514.67	252.5322912	5.4849984
95.93	514.86	246.3060768	5.6332416
95.93	515.04	265.5776928	6.3744576
95.93	515.23	271.4332992	3.0389856
95.93	515.42	276.473568	2.8907424
95.93	515.79	198.7200096	2.0754048
95.93	515.98	206.2804128	2.1495264
95.93	516.16	200.6471712	2.0754048
95.93	516.35	215.693856	2.3718912
95.93	516.53	229.406352	2.3718912
95.93	516.72	228.0721632	2.2977696
95.93	516.91	243.7118208	2.5201344
95.93	517.09	203.6120352	2.0754048
95.93	517.28	224.959056	2.2977696
117	520.44	740.7712704	7.41216
117	520.63	732.5437728	7.3380384
117	520.81	737.9546496	7.41216
117	521	726.0951936	7.2639168
117	521.18	734.7674208	7.41216
117	521.37	723.5750592	7.4862816
117	521.55	728.6894496	9.4134432
117	521.74	715.1993184	9.9322944
117	521.92	709.4178336	9.7099296
117	522.11	639.0023136	9.1169568
117	522.13	606.0923232	8.8204704
117	522.15	603.4239456	8.3757408
117	522.16	599.3472576	8.3757408
117	522.18	590.8973952	8.3016192
117	522.2	590.8973952	8.3016192
117	522.22	505.138704	7.7086464
117	522.24	408.410016	7.1156736
117	522.26	318.1299072	6.670944
117	522.28	304.4915328	7.1897952
117	522.3	309.6059232	7.2639168
117	522.31	308.8647072	7.2639168
117	522.33	298.1170752	6.670944
117	522.35	289.444848	6.670944
117	522.37	280.7726208	6.670944
117	522.39	260.537424	6.5968224
117	522.4	247.0472928	6.5968224
117	522.42	241.5622944	6.5968224
117	522.44	241.5622944	6.5968224
117	522.46	222.2906784	6.9674304
117	522.48	221.623584	6.9674304
117	522.67	241.7846592	7.1156736
117	522.85	245.2683744	7.1897952
117	523.04	242.74824	4.2249312
117	523.22	224.1437184	2.2977696
117	523.41	213.6184512	2.2977696
117	537.93	227.92392	3.4095936
117	538.11	182.9321088	3.8543232
117	538.48	269.061408	3.1872288
117	538.66	318.5005152	4.076688
117	538.84	306.1963296	4.5955392
142.27	521.74	509.6601216	5.188512
142.27	521.92	517.739376	5.188512
142.27	522.11	522.7055232	5.2626336
142.27	522.3	521.445456	5.2626336
142.27	522.48	530.710656	5.3367552
142.27	522.67	535.4544384	5.4108768
142.27	522.85	540.1240992	5.4108768
142.27	523.04	544.8678816	5.4849984
142.27	523.22	528.4128864	5.3367552
142.27	523.41	530.6365344	5.3367552
142.27	523.59	531.6742368	5.3367552
142.27	523.78	532.3413312	5.3367552
142.27	524.33	531.2295072	5.3367552
142.27	524.52	529.96944	5.3367552
142.27	524.7	534.046128	5.3367552
142.27	524.89	531.451872	5.3367552
142.27	525.07	529.598832	5.3367552
142.27	525.26	530.4141696	5.3367552
142.27	525.44	530.9330208	5.3367552
142.27	525.63	531.82248	5.3367552
142.27	525.81	537.010992	5.4108768
142.27	525.99	538.9381536	5.7814848
142.27	527.1	532.934304	5.7073632
142.27	527.29	536.640384	5.55912
142.27	527.47	538.5675456	5.6332416
142.27	527.66	541.7547744	6.4485792
142.27	527.84	547.6845024	6.1520928
142.27	527.89	524.1879552	5.929728
142.27	527.91	561.9158496	6.2262144
142.27	527.93	439.911696	5.1143904
142.27	527.95	388.8419136	4.6696608
142.27	527.97	388.9160352	4.6696608
142.27	527.99	375.5741472	4.5955392
142.27	528.01	386.6182656	4.817904
142.27	528.02	388.8419136	4.817904
142.27	528.21	337.7721312	4.7437824
142.27	528.95	295.374576	3.0389856
142.27	529.13	274.6946496	2.8166208
142.27	529.31	275.361744	2.8907424
142.27	530.05	274.1016768	2.7424992
142.27	530.23	282.5515392	2.8166208
142.27	530.42	282.3291744	2.8166208
184.89	530.79	471.413376	4.817904
184.89	530.97	466.3731072	4.7437824
184.89	531.15	474.1558752	4.817904
184.89	531.34	489.7214112	4.9661472
184.89	531.52	492.3156672	4.9661472
184.89	531.7	488.1648576	4.8920256
184.89	531.89	479.3443872	4.817904
184.89	532.07	478.9737792	4.817904
184.89	532.26	490.5367488	4.9661472
184.89	532.62	485.6447232	4.9661472
184.89	532.81	501.5067456	5.1143904
184.89	532.99	501.803232	5.6332416
184.89	533.17	502.3220832	5.6332416
184.89	533.36	511.068432	5.55912
184.89	533.54	510.4754592	5.7073632
184.89	533.72	467.1143232	5.4108768
184.89	533.74	332.5836192	4.2990528
184.89	533.76	294.5592384	4.0025664
184.89	533.78	303.6761952	4.076688
184.89	533.8	307.3081536	4.076688
184.89	533.81	283.5892416	3.9284448
184.89	534.64	279.3643104	2.8166208
184.89	535.37	286.3317408	2.8907424
184.89	535.55	286.5541056	2.8907424
184.89	539.94	261.3527616	2.6683776
184.89	540.12	273.0639744	2.7424992
184.89	540.3	272.2486368	2.7424992
184.89	540.48	275.732352	2.8166208
184.89	540.67	280.179648	2.8166208
184.89	540.85	275.2135008	2.8166208
198.25	532.62	477.9360768	4.817904
198.25	532.81	476.5277664	4.817904
198.25	532.99	476.23128	4.817904
198.25	533.17	482.3833728	4.8920256
198.25	533.36	490.8332352	4.9661472
198.25	533.54	497.8006656	5.0402688
198.25	533.72	506.5470144	5.1143904
198.25	533.91	508.474176	5.3367552
198.25	534.09	520.7783616	5.4849984
198.25	534.27	538.5675456	6.1520928
198.25	534.46	527.8199136	6.0038496
198.25	534.64	354.2271264	4.5214176
198.25	534.82	329.470512	4.1508096
198.25	535.01	313.3120032	4.6696608
198.25	535.19	319.9088256	4.6696608
198.25	535.37	301.304304	3.1872288
198.25	535.74	286.3317408	2.964864
198.25	535.92	287.4435648	2.964864
198.25	536.1	281.66208	2.8907424
198.25	536.29	285.4422816	2.8907424
245.67	532.07	434.5749408	4.3731744
245.67	532.26	439.0222368	4.447296
245.67	532.44	433.61136	4.3731744
245.67	532.62	439.8375744	4.447296
245.67	532.81	441.764736	4.447296
245.67	532.99	435.1679136	4.3731744
245.67	533.17	443.9142624	4.447296
245.67	533.36	447.323856	4.5214176
245.67	533.54	452.0676384	4.5214176
245.67	533.72	456.0702048	4.5955392
245.67	533.91	461.9999328	4.6696608
245.67	534.09	460.2210144	4.6696608
245.67	534.27	465.854256	4.7437824
245.67	534.46	472.8216864	4.817904
245.67	534.64	484.5328992	4.8920256
245.67	534.82	491.426208	5.0402688
245.67	535.01	498.3936384	5.188512
245.67	535.19	508.6224192	5.1143904
245.67	535.37	516.0345792	5.55912
245.67	535.55	535.0838304	5.7814848
245.67	535.74	563.9171328	6.1520928
245.67	535.92	437.1691968	5.1143904
245.67	536.1	331.5459168	4.3731744
245.67	536.29	329.1740256	4.2990528
245.67	536.47	323.4666624	4.817904
245.67	536.65	321.2430144	3.6319584
245.67	536.83	318.352272	3.1872288
245.67	537.2	296.3381568	3.0389856
245.67	537.38	296.5605216	3.0389856
245.67	537.57	297.5241024	3.0389856
276.45	534.64	433.3889952	4.447296
276.45	534.82	435.9091296	4.5214176
276.45	535.01	443.4695328	4.817904
276.45	535.19	453.8465568	5.3367552
276.45	535.37	460.5916224	4.817904
276.45	535.55	474.748848	5.0402688
276.45	535.74	489.7214112	5.2626336
276.45	535.75	527.9681568	5.55912
276.45	535.77	533.0825472	5.6332416
276.45	535.79	548.49984	5.7814848
276.45	535.81	529.6729536	5.55912
276.45	535.83	536.4921408	5.6332416
276.45	535.85	560.4334176	5.8556064
276.45	535.86	562.1382144	5.8556064
276.45	535.88	565.547808	5.8556064
276.45	535.9	627.068736	6.4485792
276.45	535.92	603.1274592	6.3744576
276.45	536.29	321.317136	3.8543232
276.45	536.47	313.6826112	4.1508096
276.45	536.65	308.6423424	4.817904
276.45	536.83	300.1183584	4.9661472
276.45	537.2	295.374576	3.0389856
276.45	537.38	285.36816	2.8907424
276.45	537.57	284.1080928	2.8907424
276.45	537.75	282.9221472	2.8166208
276.45	539.94	295.8934272	2.964864
276.45	540.12	293.892144	2.964864
276.45	540.3	297.598224	2.964864
276.45	540.48	293.150928	2.964864
279.19	534.09	425.3838624	4.2990528
279.19	534.27	430.4241312	4.3731744
279.19	534.46	435.093792	4.447296
279.19	534.64	437.9104128	4.447296
279.19	534.82	441.5423712	4.5214176
279.19	535.19	457.1079072	4.7437824
279.19	535.37	465.854256	4.7437824
279.19	535.55	472.0804704	5.1143904
279.19	535.74	488.090736	5.1143904
279.19	535.92	513.1438368	5.6332416
279.19	536.1	476.23128	5.4849984
279.19	536.29	304.7138976	3.9284448
279.19	536.47	298.2653184	4.076688
279.19	536.65	293.2250496	4.2990528
279.19	536.83	287.7400512	3.9284448
279.19	537.02	289.3707264	2.964864
279.19	537.2	287.8141728	2.8907424
279.19	537.38	282.4774176	2.8907424
279.19	537.57	284.256336	2.8907424
279.19	537.93	277.214784	2.8166208
279.19	538.11	274.9170144	2.7424992
279.19	538.3	277.6595136	2.8166208
279.19	538.48	275.361744	2.7424992
279.19	539.76	283.51512	2.8907424
279.19	539.94	284.4787008	2.8907424
279.19	540.12	283.7374848	2.8907424
279.19	540.67	274.9170144	2.7424992
279.19	540.85	281.291472	2.8166208
279.19	541.03	276.473568	2.8166208
279.19	541.21	278.4007296	2.8166208
279.19	541.4	276.9182976	2.8166208
284.93	531.7	365.790096	3.70608
284.93	531.89	377.3530656	3.8543232
284.93	532.07	387.4336032	3.9284448
284.93	533.17	404.0368416	4.076688
284.93	533.36	410.7077856	4.1508096
284.93	533.54	412.486704	4.1508096
284.93	533.72	412.857312	4.1508096
284.93	533.91	414.710352	4.1508096
284.93	534.09	420.8624448	4.2249312
284.93	534.27	420.4177152	4.2249312
284.93	534.46	425.7544704	4.2990528
284.93	534.64	426.569808	4.2990528
284.93	534.82	430.1276448	4.3731744
284.93	535.01	435.0196704	4.447296
284.93	535.19	440.2081824	4.5955392
284.93	535.37	441.02352	4.817904
284.93	535.55	454.9583808	4.9661472
284.93	535.74	470.5239168	5.188512
284.93	535.92	498.9866112	5.4849984
284.93	535.94	419.6764992	4.7437824
284.93	535.95	421.3071744	4.7437824
284.93	535.97	349.853952	4.076688
284.93	535.99	316.5733536	3.8543232
284.93	536.01	314.8685568	3.7802016
284.93	536.02	309.9024096	3.70608
284.93	536.04	311.5330848	3.70608
284.93	536.06	311.5330848	3.70608
284.93	536.07	306.5669376	3.70608
284.93	536.1	291.5943744	3.70608
284.93	536.29	286.0352544	3.7802016
284.93	536.47	280.7726208	3.9284448
284.93	536.65	276.9182976	4.2249312
284.93	536.83	274.24992	2.8166208
284.93	537.02	272.026272	2.7424992
284.93	537.2	271.5074208	2.7424992
284.93	537.38	270.3214752	2.7424992
284.93	537.57	268.1719488	2.6683776
284.93	537.75	267.3566112	2.6683776
284.93	538.48	266.3189088	2.7424992
284.93	538.66	265.6518144	2.6683776
284.93	547.57	247.3437792	2.5201344
284.93	547.75	250.3086432	2.5201344
284.93	547.93	248.30736	2.5201344
284.93	548.11	247.7885088	2.5201344
284.93	548.29	248.677968	2.5201344
284.93	548.47	248.30736	2.5201344
284.93	550.28	236.7443904	2.3718912
284.93	550.46	238.0785792	2.3718912
284.93	550.82	236.5220256	2.3718912
284.93	551	236.2996608	2.3718912
284.93	558.2	236.447904	2.3718912
284.93	558.38	243.2670912	2.4460128
284.93	558.56	241.4881728	2.4460128
284.93	558.74	241.7105376	2.4460128
284.93	558.92	246.3801984	2.5201344
284.93	560.64	246.7508064	2.5201344
286.65	532.26	404.5556928	4.076688
286.65	532.44	410.633664	4.1508096
286.65	532.62	417.7493376	4.2249312
286.65	532.81	423.8273088	4.2990528
286.65	532.99	421.6036608	4.2249312
286.65	533.17	417.7493376	4.2249312
286.65	533.36	416.2669056	4.2249312
286.65	533.54	422.4189984	4.2249312
286.65	533.68	420.64008	4.2249312
286.65	533.91	429.4605504	4.2990528
286.65	534.27	436.5021024	4.447296
286.65	534.46	439.4669664	4.447296
286.65	535.37	467.5590528	4.8920256
286.65	535.55	474.37824	4.8920256
286.65	535.74	487.5718848	6.7450656
286.65	535.92	532.7119392	5.929728
286.65	535.94	578.3708448	6.3744576
286.65	535.95	524.41032	5.8556064
286.65	535.97	524.41032	5.8556064
286.65	536.01	402.850896	4.7437824
286.65	536.02	345.4807776	4.2249312
286.65	536.04	354.4494912	4.2990528
286.65	536.06	328.358688	4.1508096
286.65	536.07	328.5810528	4.1508096
286.65	536.1	323.9855136	3.6319584
286.65	536.29	321.0947712	3.7802016
286.65	536.47	317.3886912	4.076688
286.65	536.65	311.5330848	4.447296
286.65	537.2	304.9362624	3.1131072
286.65	537.38	304.4174112	3.0389856
286.65	537.57	301.2301824	3.0389856
286.65	537.75	302.2678848	3.0389856
286.65	537.93	301.2301824	3.0389856
286.65	538.3	295.1522112	2.964864
286.65	538.48	296.6346432	2.964864
286.65	538.66	296.857008	2.964864
286.65	538.84	297.0793728	2.964864
286.65	539.03	296.3381568	2.964864
286.65	539.57	285.0716736	2.8907424
286.65	539.76	288.7777536	2.8907424
286.65	539.94	282.3291744	2.8907424
286.65	540.12	282.032688	2.8166208
286.65	540.3	280.4020128	2.8166208
286.65	547.21	273.2122176	2.7424992
286.65	547.39	272.6933664	2.7424992
286.65	547.57	276.3253248	2.8166208
286.65	547.75	276.6218112	2.8166208
286.65	547.93	276.10296	2.8166208
286.65	548.11	276.3253248	2.8166208
286.65	548.29	278.0301216	2.8166208
286.65	548.47	278.5489728	2.8166208
286.65	548.65	278.0301216	2.8166208
286.65	557.3	252.1616832	2.5201344
286.65	557.48	253.125264	2.5201344
286.65	557.66	251.9393184	2.5201344
286.65	557.84	252.1616832	2.5201344
286.65	558.02	253.6441152	2.594256
286.65	558.2	258.9808704	2.594256
286.65	558.38	261.4268832	2.6683776
286.65	558.56	257.0537088	2.594256
286.65	558.74	258.0172896	2.594256
286.65	558.92	259.2773568	2.594256
286.65	559.09	264.3917472	2.6683776
286.65	559.27	254.8300608	2.594256
286.65	559.45	252.6805344	2.5201344
286.65	559.63	264.3917472	2.6683776
286.65	560.89	262.1680992	2.6683776
286.65	561.24	254.8300608	2.594256
286.65	561.42	257.2760736	2.594256
286.65	561.6	257.7949248	2.594256
286.65	561.78	256.831344	2.594256
286.65	561.96	257.57256	2.594256
286.65	562.14	257.0537088	2.594256
286.65	562.32	258.9808704	2.594256
286.65	562.49	254.607696	2.594256
286.65	562.67	256.6089792	2.594256
301.19	531.7	380.985024	3.70608
301.19	531.89	380.985024	3.70608
301.19	532.26	388.397184	3.70608
301.19	532.44	386.173536	3.70608
301.19	532.62	388.397184	3.70608
301.19	532.81	385.43232	3.70608
301.19	532.99	390.620832	3.70608
301.19	533.17	393.585696	3.70608
301.19	533.36	394.326912	3.70608
301.19	533.54	399.515424	3.70608
301.19	533.72	403.96272	4.447296
301.19	533.91	408.410016	4.447296
301.19	534.09	412.116096	4.447296
301.19	534.46	418.78704	4.447296
301.19	534.64	421.751904	4.447296
301.19	534.82	429.164064	4.447296
301.19	535.01	431.387712	4.447296
301.19	535.19	440.282304	4.447296
301.19	535.37	445.470816	5.188512
301.19	535.55	458.071488	5.188512
301.19	535.74	477.343104	5.188512
301.19	535.92	383.208672	4.447296
301.19	536.1	296.4864	3.70608
301.19	536.29	280.179648	3.70608
301.19	536.47	281.66208	3.70608
301.19	536.65	277.956	2.964864
301.19	537.02	263.13168	2.964864
301.19	537.2	266.83776	2.964864
301.19	537.38	263.13168	2.964864
301.19	537.57	260.166816	2.964864
301.19	537.75	260.166816	2.964864
301.19	537.93	259.4256	2.964864
301.19	538.11	253.495872	2.964864
301.19	538.3	255.71952	2.964864
301.19	538.48	256.460736	2.964864
301.19	538.66	250.531008	2.223648
301.19	542.67	240.153984	2.223648
301.19	542.85	240.8952	2.223648
301.19	543.03	240.153984	2.223648
347.06	531.15	363.19584	3.70608
347.06	531.34	356.524896	3.70608
347.06	531.52	358.007328	3.70608
347.06	531.7	360.230976	3.70608
347.06	531.89	364.678272	3.70608
347.06	532.07	363.937056	3.70608
347.06	532.26	364.678272	3.70608
347.06	532.44	361.713408	3.70608
347.06	532.62	361.713408	3.70608
347.06	532.81	364.678272	3.70608
347.06	532.99	370.608	3.70608
347.06	533.17	373.572864	3.70608
347.06	533.36	375.055296	3.70608
347.06	533.54	375.055296	3.70608
347.06	533.72	377.278944	3.70608
347.06	533.91	375.055296	3.70608
347.06	534.09	382.467456	4.447296
347.06	534.27	387.655968	4.447296
347.06	534.46	400.25664	4.447296
347.06	534.64	353.560032	3.70608
347.06	534.82	246.083712	2.964864
347.06	535.01	242.377632	2.964864
347.06	535.19	243.118848	2.964864
347.06	535.55	243.118848	2.223648
347.06	535.74	249.048576	2.223648
347.06	535.92	252.01344	2.223648
347.06	536.1	251.272224	2.223648
347.06	536.29	249.789792	2.223648
347.06	536.47	252.754656	2.223648
347.06	536.65	246.824928	2.223648
347.06	536.84	250.531008	2.223648
347.06	537.02	248.30736	2.223648
347.06	548.11	235.706688	2.223648
347.06	548.29	236.447904	2.223648
347.06	548.47	235.706688	2.223648
347.06	548.65	234.224256	2.223648
347.06	557.3	220.141152	2.223648
347.06	557.48	220.882368	2.223648
347.06	557.66	217.917504	2.223648
347.06	557.84	220.141152	2.223648
403.55	516.53	311.31072	2.964864
403.55	516.72	309.828288	2.964864
403.55	516.91	312.793152	2.964864
403.55	517.09	309.087072	2.964864
403.55	517.28	310.569504	2.964864
403.55	517.47	313.534368	2.964864
403.55	517.65	309.087072	2.964864
403.55	528.02	319.464096	2.964864
403.55	528.21	320.205312	2.964864
403.55	528.39	321.687744	2.964864
403.55	528.58	321.687744	2.964864
403.55	528.76	324.652608	2.964864
403.55	528.95	322.42896	2.964864
403.55	529.13	326.13504	2.964864
403.55	529.31	306.863424	2.964864
403.55	529.5	232.000608	2.223648
403.55	529.68	229.77696	2.223648
403.55	529.87	227.553312	2.223648
403.55	530.23	227.553312	2.223648
403.55	530.42	228.294528	2.223648
403.55	530.6	232.000608	2.223648
403.55	530.79	229.77696	2.223648
403.55	530.97	232.000608	2.223648
403.55	531.15	229.77696	2.223648
403.55	531.34	233.48304	2.223648
403.55	531.52	233.48304	2.223648
403.55	531.7	237.18912	2.223648
403.55	531.89	239.412768	2.223648
403.55	532.07	238.671552	2.223648
403.55	532.26	236.447904	2.223648
403.55	532.62	232.000608	2.223648
403.55	532.81	231.259392	2.223648
403.55	534.64	223.847232	2.223648
403.55	534.82	223.106016	2.223648
403.55	535.01	225.329664	2.223648
403.55	535.19	223.106016	2.223648
403.55	535.37	219.399936	2.223648
403.55	535.55	220.882368	2.223648
403.55	540.12	223.847232	2.223648
403.55	540.3	225.329664	2.223648
403.55	540.48	226.812096	2.223648
403.55	540.67	223.847232	2.223648
403.55	540.85	223.106016	2.223648
403.55	541.03	220.882368	2.223648
403.55	550.46	218.65872	2.223648
403.55	550.64	217.917504	2.223648
403.55	550.82	220.882368	2.223648
403.55	551	220.882368	2.223648
403.55	551.18	220.141152	2.223648
403.55	551.36	220.882368	2.223648
474.07	493.55	293.521536	2.964864
474.07	493.74	285.36816	2.964864
474.07	493.93	291.297888	2.964864
474.07	494.12	294.262752	2.964864
474.07	494.31	297.968832	2.964864
474.07	494.5	291.297888	2.964864
474.07	494.69	288.333024	2.964864
474.07	494.88	272.767488	2.964864
474.07	495.07	277.214784	2.964864
474.07	495.26	272.767488	2.964864
474.07	495.45	279.438432	2.964864
474.07	510.37	291.297888	2.964864
474.07	510.55	290.556672	2.964864
474.07	510.74	293.521536	2.964864
474.07	510.93	293.521536	2.964864
474.07	511.49	292.039104	2.964864
474.07	511.68	295.003968	2.964864
474.07	511.87	292.78032	2.964864
474.07	512.43	296.4864	2.964864
474.07	512.61	295.745184	2.964864
474.07	512.8	295.745184	2.964864
474.07	513.36	281.66208	2.964864
474.07	513.55	293.521536	2.964864
474.07	513.74	293.521536	2.964864
474.07	513.92	295.003968	2.964864
474.07	514.11	289.815456	2.964864
474.07	514.3	283.144512	2.964864
474.07	514.48	295.745184	2.964864
474.07	514.67	285.36816	2.964864
474.07	514.86	291.297888	2.964864
474.07	515.04	286.850592	2.964864
474.07	515.23	240.8952	2.223648
474.07	515.42	230.518176	2.223648
474.07	515.6	230.518176	2.223648
474.07	515.79	229.035744	2.223648
474.07	515.98	232.741824	2.223648
474.07	516.53	220.141152	2.223648
474.07	516.72	223.106016	2.223648
474.07	516.91	221.623584	2.223648
474.07	517.09	222.3648	2.223648
474.07	532.81	191.233728	2.223648
474.07	532.99	191.233728	2.223648
474.07	533.17	197.163456	2.223648
474.07	533.36	196.42224	2.223648
474.07	533.54	196.42224	2.223648
538.17	481.46	279.6607968	2.8166208
538.17	481.66	284.7751872	2.8907424
538.17	481.85	283.5892416	2.8907424
538.17	482.04	284.5528224	2.8907424
538.17	482.24	286.4058624	2.8907424
538.17	482.43	287.4435648	2.8907424
538.17	482.62	289.2224832	2.8907424
538.17	482.81	288.4071456	2.8907424
538.17	483.01	289.0001184	2.8907424
538.17	483.2	291.1496448	2.964864
538.17	483.39	289.815456	2.8907424
538.17	483.58	289.5930912	2.8907424
538.17	483.78	289.5930912	2.8907424
538.17	487.62	282.6997824	2.8907424
538.17	487.81	280.2537696	2.8166208
538.17	488	282.403296	2.8166208
538.17	488.19	287.7400512	2.8907424
538.17	488.39	290.6307936	2.8907424
538.17	489.53	283.4409984	2.8907424
538.17	489.73	289.07424	2.8907424
538.17	489.92	294.1886304	2.964864
538.17	490.11	289.2966048	2.8907424
538.17	490.87	282.032688	2.8166208
538.17	491.06	283.0703904	2.8166208
538.17	491.45	285.5164032	2.8907424
538.17	491.64	290.8531584	2.964864
538.17	491.83	286.9247136	2.8907424
538.17	492.02	283.0703904	2.8907424
538.17	492.21	281.4397152	2.964864
538.17	492.4	282.1809312	3.0389856
538.17	492.59	258.313776	2.7424992
538.17	492.78	240.4504704	2.594256
538.17	492.97	211.0241952	2.3718912
538.17	493.16	211.7654112	2.4460128
538.17	493.36	215.0267616	2.4460128
538.17	493.55	215.0267616	2.2977696
538.17	516.91	212.8772352	2.1495264
538.17	517.09	213.840816	2.1495264
538.17	517.28	214.0631808	2.1495264
598.18	449.87	278.1783648	2.8166208
598.18	450.07	277.1406624	2.8166208
598.18	450.27	279.2160672	2.8166208
598.18	450.47	276.1770816	2.8166208
598.18	450.66	277.3630272	2.8166208
598.18	457.82	274.620528	2.7424992
598.18	458.02	274.3981632	2.7424992
598.18	458.22	277.6595136	2.8166208
598.18	458.41	277.2889056	2.8166208
598.18	458.61	278.8454592	2.8166208
598.18	458.81	277.585392	2.8166208
598.18	459.01	279.438432	2.8166208
598.18	462.16	275.8805952	2.8166208
598.18	462.36	274.6946496	2.7424992
598.18	462.56	273.5828256	2.7424992
598.18	462.76	276.10296	2.8166208
598.18	462.95	279.067824	2.8166208
598.18	463.15	277.8077568	2.8907424
598.18	463.35	282.4774176	2.964864
598.18	463.45	292.3355904	3.0389856
598.18	463.74	258.7585056	2.7424992
598.18	463.93	219.1775712	2.3718912
598.18	464.13	217.6210176	2.3718912
598.18	464.33	217.3245312	2.3718912
598.18	464.53	218.8810848	2.2977696
598.18	464.72	216.7315584	2.223648
598.18	464.92	217.6210176	2.223648
598.18	465.11	217.546896	2.223648
598.18	465.31	218.0657472	2.223648
598.18	467.66	219.1775712	2.223648
598.18	467.86	218.8810848	2.223648
598.18	468.05	218.4363552	2.223648
598.18	468.25	219.8446656	2.223648
598.18	468.45	219.9187872	2.223648
598.18	469.23	222.4389216	2.223648
598.18	469.42	222.3648	2.223648
648.53	413.11	272.6192448	2.7424992
648.53	413.31	273.2122176	2.7424992
648.53	413.52	273.6569472	2.7424992
648.53	413.73	273.508704	2.7424992
648.53	413.94	272.6192448	2.7424992
648.53	414.15	272.8416096	2.7424992
648.53	431.29	278.0301216	2.8166208
648.53	431.49	279.1419456	2.8166208
648.53	431.7	277.6595136	2.8166208
648.53	431.9	277.8818784	2.8166208
648.53	432.31	278.7713376	2.8166208
648.53	432.51	277.1406624	2.8166208
648.53	432.72	277.4371488	2.8907424
648.53	432.92	279.2160672	2.8907424
648.53	433.12	278.5489728	2.8907424
648.53	433.33	272.9898528	2.8166208
648.53	433.53	225.0331776	2.3718912
648.53	433.73	224.8108128	2.3718912
648.53	433.94	222.2906784	2.3718912
648.53	434.14	223.476624	2.3718912
648.53	434.55	221.9200704	2.223648
648.53	434.75	221.252976	2.223648
648.53	434.96	222.9577728	2.223648
648.53	435.16	222.735408	2.223648
648.53	435.36	222.8836512	2.223648
648.53	457.62	222.1424352	2.223648
648.53	457.82	221.8459488	2.223648
648.53	458.02	222.8836512	2.223648
648.53	458.22	224.5143264	2.2977696
648.53	458.41	223.6248672	2.223648
683.53	371.32	261.1303968	2.6683776
683.53	371.54	261.4268832	2.6683776
683.53	371.77	261.7233696	2.6683776
683.53	371.99	263.0575584	2.6683776
683.53	372.21	263.9470176	2.6683776
683.53	372.43	260.7597888	2.594256
683.53	372.65	259.8703296	2.594256
683.53	407.02	273.879312	2.7424992
683.53	407.23	278.4748512	2.8166208
683.53	407.44	275.5099872	2.7424992
683.53	407.65	274.1757984	2.7424992
683.53	407.86	273.9534336	2.8166208
683.53	408.07	279.2160672	2.8166208
683.53	408.28	277.2889056	2.8166208
683.53	408.49	260.3891808	2.6683776
683.53	408.7	246.0095904	2.5201344
683.53	408.91	240.2281056	2.5201344
683.53	409.12	236.5961472	2.4460128
683.53	409.33	234.0760128	2.3718912
683.53	409.54	232.2229728	2.3718912
683.53	409.75	224.588448	2.2977696
683.53	409.96	223.4025024	2.2977696
683.53	410.17	224.21784	2.2977696
683.53	410.38	222.6612864	2.223648
683.53	414.78	226.6638528	2.2977696
683.53	414.99	226.8862176	2.2977696
683.53	415.19	227.553312	2.2977696
683.53	415.19	227.8497984	2.2977696
683.53	419.77	228.665136	2.2977696
683.53	419.97	227.553312	2.2977696
683.53	420.6	230.5922976	2.2977696
683.53	421.42	231.8523648	2.3718912
683.53	421.63	229.9993248	2.2977696
683.53	422.25	230.8146624	2.2977696
683.53	422.46	231.1111488	2.2977696
683.53	422.66	231.8523648	2.3718912
683.53	422.87	231.3335136	2.2977696
683.53	423.08	231.4076352	2.2977696
683.53	423.28	230.8146624	2.2977696
683.53	423.49	231.4817568	2.3718912
683.53	423.69	231.9264864	2.3718912
683.53	424.31	231.1111488	2.2977696
683.53	424.52	230.518176	2.2977696
683.53	424.72	230.8146624	2.2977696
683.53	424.93	230.4440544	2.2977696
683.53	425.14	231.3335136	2.2977696
683.53	425.75	231.1852704	2.2977696
683.53	425.96	230.888784	2.2977696
683.53	425.96	228.4427712	2.2977696
683.53	426.16	227.4791904	2.2977696
683.53	426.37	226.7379744	2.2977696
683.53	426.58	227.4050688	2.2977696
683.53	426.78	227.0344608	2.2977696
683.53	426.99	227.4791904	2.2977696
683.53	432.92	227.182704	2.2977696
683.53	433.12	227.9980416	2.2977696
683.53	433.33	227.6274336	2.2977696
683.53	433.53	227.7756768	2.2977696
683.53	433.73	228.294528	2.2977696
735.98	349.82	241.3399296	2.4460128
735.98	350.05	242.007024	2.4460128
735.98	350.28	243.5635776	2.4460128
735.98	350.51	243.1929696	2.4460128
735.98	350.74	243.489456	2.4460128
735.98	353.27	242.2293888	2.4460128
735.98	353.49	245.1942528	2.4460128
735.98	353.72	244.6754016	2.4460128
735.98	353.95	243.3412128	2.4460128
735.98	354.18	245.1201312	2.4460128
735.98	354.41	243.860064	2.4460128
735.98	354.64	245.5648608	2.4460128
735.98	364.16	251.1981024	2.5201344
735.98	364.39	251.3463456	2.5201344
735.98	364.61	252.01344	2.5201344
735.98	364.84	252.1616832	2.5201344
735.98	365.06	251.7910752	2.5201344
735.98	365.29	251.7910752	2.5201344
735.98	365.51	252.01344	2.5201344
735.98	366.41	253.1993856	2.594256
735.98	366.63	248.4556032	2.5201344
735.98	366.86	245.2683744	2.5201344
735.98	367.08	226.441488	2.3718912
735.98	367.31	219.8446656	2.2977696
735.98	367.53	215.1750048	2.223648
735.98	367.75	213.6925728	2.223648
735.98	367.98	212.8772352	2.1495264
735.98	368.2	213.2478432	2.1495264
735.98	369.54	213.6925728	2.1495264
735.98	369.76	214.4337888	2.1495264
735.98	369.99	214.6561536	2.1495264
735.98	373.1	216.2868288	2.1495264
735.98	373.32	217.2504096	2.223648
735.98	373.54	217.9916256	2.223648
735.98	373.76	219.6964224	2.223648
735.98	373.98	219.029328	2.223648
735.98	374.21	216.6574368	2.223648
735.98	374.43	217.3986528	2.223648
735.98	374.65	217.4727744	2.223648
735.98	374.87	218.5104768	2.223648
735.98	375.31	219.4740576	2.223648
735.98	375.53	217.9916256	2.223648
735.98	375.75	218.288112	2.223648
735.98	375.97	219.2516928	2.223648
735.98	376.19	217.9916256	2.223648
735.98	376.42	219.4740576	2.223648
735.98	376.64	218.288112	2.223648
735.98	376.86	219.4740576	2.223648
735.98	377.08	217.7692608	2.223648
735.98	377.3	219.5481792	2.223648
735.98	377.52	219.3258144	2.223648
769.05	325.78	223.7731104	2.223648
769.05	326.02	224.8849344	2.2977696
769.05	326.26	226.2191232	2.2977696
769.05	326.5	226.2932448	2.2977696
769.05	326.74	227.1085824	2.2977696
769.05	326.98	226.5897312	2.2977696
769.05	327.22	226.5897312	2.2977696
769.05	333.2	231.3335136	2.2977696
769.05	333.44	232.4453376	2.3718912
769.05	333.67	231.7782432	2.3718912
769.05	333.91	232.5935808	2.3718912
769.05	334.15	232.8159456	2.3718912
769.05	334.39	233.0383104	2.3718912
769.05	334.62	232.8159456	2.3718912
769.05	334.86	233.6312832	2.3718912
769.05	335.1	234.1501344	2.3718912
769.05	335.33	233.4089184	2.3718912
769.05	335.57	225.6261504	2.2977696
769.05	335.81	219.5481792	2.223648
769.05	336.04	213.7666944	2.223648
769.05	336.28	209.39352	2.1495264
769.05	336.52	207.3181152	2.0754048
769.05	336.75	207.0216288	2.0754048
769.05	337.46	204.7238592	2.0754048
769.05	337.93	204.7979808	2.0754048
769.05	338.64	204.3532512	2.0754048
769.05	339.34	203.7602784	2.0754048
769.05	352.35	218.3622336	2.223648
769.05	352.58	219.9929088	2.223648
794.06	307.37	167.8113024	1.7047968
794.06	307.62	154.6176576	1.5565536
794.06	307.87	157.5825216	1.6306752
794.06	308.12	160.6956288	1.6306752
794.06	308.37	163.8828576	1.7047968
794.06	308.62	165.4394112	1.7047968
794.06	308.87	167.7371808	1.7047968
794.06	309.12	167.8113024	1.7047968
794.06	309.37	168.4042752	1.7047968
794.06	309.62	167.2183296	1.7047968
794.06	311.11	182.7838656	1.85304
794.06	321.67	204.8721024	2.0754048
794.06	323.61	208.3558176	2.0754048
794.06	323.85	208.8746688	2.0754048
794.06	324.09	208.0593312	2.0754048
794.06	324.33	208.8005472	2.0754048
794.06	324.57	208.8005472	2.0754048
794.06	324.81	207.9852096	2.0754048
794.06	325.06	209.764128	2.1495264
794.06	325.3	210.4312224	2.1495264
794.06	325.54	211.24656	2.1495264
794.06	325.78	210.7277088	2.1495264
794.06	326.02	211.3206816	2.1495264
794.06	326.26	213.0254784	2.1495264
794.06	327.22	213.5443296	2.1495264
794.06	327.46	212.5066272	2.1495264
794.06	327.7	212.8031136	2.1495264
794.06	327.94	212.728992	2.1495264
794.06	328.18	212.4325056	2.1495264

System: butan-2-ol; phases: Liquid, Gas
Property: Mass density, kg/m3 (Liquid); method: ISOCHOR
Temperature, K	Mass density, kg/m3	uncertainty
306.95	794.06	0.24
335.35	769.05	0.24
367.55	735.98	0.23
408.51	683.53	0.22
433.35	648.53	0.22
463.85	598.18	0.22
492.87	538.17	0.24
515.15	474.07	0.31
529.41	403.55	0.49
534.55	347.06	2.79
535.83	301.19	2.79
535.89	286.65	3.52
535.93	284.93	3.51
535.94	279.19	3.81
535.95	276.45	3.93

System: butan-2-ol; phases: Gas, Liquid
Property: Mass density, kg/m3 (Gas); method: ISOCHOR
Temperature, K	Mass density, kg/m3	uncertainty
535.83	245.67	3.21
534.68	198.25	2.28
533.73	184.89	1.09
527.92	142.27	0.45
522.2	117	0.26
514.26	95.93	0.18
504.95	76.44	0.16
