Measured thermophysical data. Excess molar enthalpies for binary mixtures of trimethyl phosphate with alkanols {CH3(CH2)nOH, n = 0 3} at 298.15K
Source: Thermochim. Acta, 2008, 10.1016/j.tca.2008.02.015
Compound 1: trimethyl orthophosphate, C3H9O4P, InChI=1S/C3H9O4P/c1-5-8(4,6-2)7-3/h1-3H3, purity 99%
Compound 2: methanol, CH4O, InChI=1S/CH4O/c1-2/h2H,1H3, purity 99.5%
Compound 3: ethanol, C2H6O, InChI=1S/C2H6O/c1-2-3/h3H,2H2,1H3, purity 99.5%
Compound 4: propan-1-ol, C3H8O, InChI=1S/C3H8O/c1-2-3-4/h4H,2-3H2,1H3, purity 99.8%
Compound 5: butan-1-ol, C4H10O, InChI=1S/C4H10O/c1-2-3-4-5/h5H,2-4H2,1H3, purity 99.8%

System: methanol + trimethyl orthophosphate; phases: Liquid
Fixed: Temperature, K = 298.15
Fixed: Pressure, kPa = 101
Property: Excess molar enthalpy (molar enthalpy of mixing), kJ/mol (Liquid); method: Calvet calorimetry
Mole fraction of trimethyl orthophosphate	Excess molar enthalpy (molar enthalpy of mixing), kJ/mol	uncertainty
0.037	0.04951	0.00117
0.0739	0.08826	0.0016
0.1033	0.11232	0.00188
0.1428	0.13761	0.00217
0.1876	0.14939	0.00231
0.2569	0.22598	0.00323
0.3086	0.21272	0.00307
0.3658	0.20098	0.00293
0.4047	0.1858	0.00275
0.4619	0.17305	0.00259
0.51	0.14741	0.00229
0.562	0.12625	0.00204
0.6405	0.09878	0.00172
0.7079	0.06514	0.00134
0.783	0.04269	0.00111
0.8383	0.02828	0.001
0.9	0.01395	0.00089
0.9647	0.00198	0.0008

System: ethanol + trimethyl orthophosphate; phases: Liquid
Fixed: Temperature, K = 298.15
Fixed: Pressure, kPa = 101
Property: Excess molar enthalpy (molar enthalpy of mixing), kJ/mol (Liquid); method: Calvet calorimetry
Mole fraction of trimethyl orthophosphate	Excess molar enthalpy (molar enthalpy of mixing), kJ/mol	uncertainty
0.0322	0.15419	0.00237
0.0665	0.30765	0.00422
0.1032	0.45641	0.00603
0.1426	0.55206	0.00719
0.185	0.6334	0.00819
0.2305	0.7018	0.00902
0.2796	0.75077	0.00962
0.3327	0.82613	0.01054
0.3671	0.87096	0.01109
0.4156	0.8732	0.01112
0.454	0.8594	0.01095
0.5232	0.80354	0.01027
0.6	0.71422	0.00917
0.6836	0.6043	0.00783
0.7775	0.46599	0.00614
0.8821	0.2615	0.00366
0.928	0.17675	0.00264
0.9752	0.088	0.0016

System: propan-1-ol + trimethyl orthophosphate; phases: Liquid
Fixed: Temperature, K = 298.15
Fixed: Pressure, kPa = 101
Property: Excess molar enthalpy (molar enthalpy of mixing), kJ/mol (Liquid); method: Calvet calorimetry
Mole fraction of trimethyl orthophosphate	Excess molar enthalpy (molar enthalpy of mixing), kJ/mol	uncertainty
0.0408	0.27382	0.00381
0.0836	0.52593	0.00687
0.1284	0.72481	0.0093
0.1753	0.8851	0.01126
0.225	0.98217	0.01245
0.2769	1.0731	0.01356
0.3319	1.16879	0.01473
0.39	1.2239	0.01541
0.4508	1.23813	0.01558
0.5139	1.18122	0.01489
0.5701	1.13147	0.01428
0.6274	1.03042	0.01304
0.6875	0.91439	0.01162
0.7351	0.82279	0.0105
0.7834	0.69822	0.00898
0.8518	0.49052	0.00644
0.9054	0.32995	0.00449
0.9614	0.17412	0.00261

System: butan-1-ol + trimethyl orthophosphate; phases: Liquid
Fixed: Temperature, K = 298.15
Fixed: Pressure, kPa = 101
Property: Excess molar enthalpy (molar enthalpy of mixing), kJ/mol (Liquid); method: Calvet calorimetry
Mole fraction of trimethyl orthophosphate	Excess molar enthalpy (molar enthalpy of mixing), kJ/mol	uncertainty
0.0497	0.40036	0.00534
0.1005	0.73621	0.00944
0.1531	1.00431	0.01272
0.2071	1.2209	0.01537
0.2625	1.34656	0.01691
0.3199	1.43874	0.01804
0.3794	1.47722	0.01851
0.439	1.47015	0.01842
0.5024	1.4429	0.01809
0.5663	1.37458	0.01725
0.6329	1.30119	0.01635
0.7016	1.13294	0.0143
0.7727	0.92842	0.01179
0.8458	0.67768	0.00873
0.9216	0.36823	0.00495
