Measured thermophysical data. Solid state investigation of BINOL and BINOL derivatives: A contribution to enantioselective symmetry breaking by crystallization
Source: Thermochim. Acta, 2017, 10.1016/j.tca.2016.12.008
Compound 1: (S)-(1,1'-binaphthalene)-2,2'-diol, C20H14O2, InChI=1S/C20H14O2/c21-17-11-9-13-5-1-3-7-15(13)19(17)20-16-8-4-2-6-14(16)10-12-18(20)22/h1-12,21-22H, purity 99%
Compound 2: (R)-(1,1'-binaphthalene)-2,2'-diol, C20H14O2, InChI=1S/C20H14O2/c21-17-11-9-13-5-1-3-7-15(13)19(17)20-16-8-4-2-6-14(16)10-12-18(20)22/h1-12,21-22H, purity 99%
Compound 3: (S)-2'-(benzyloxy)-(1,1'-binaphthalen)-2-ol, C27H20O2, InChI=1S/C27H20O2/c28-24-16-14-20-10-4-6-12-22(20)26(24)27-23-13-7-5-11-21(23)15-17-25(27)29-18-19-8-2-1-3-9-19/h1-17,28H,18H2
Compound 4: (R)-2'-(benzyloxy)-(1,1'-binaphthalen)-2-ol, C27H20O2, InChI=1S/C27H20O2/c28-24-16-14-20-10-4-6-12-22(20)26(24)27-23-13-7-5-11-21(23)15-17-25(27)29-18-19-8-2-1-3-9-19/h1-17,28H,18H2
Compound 5: (1S)-(1,1'-binaphthalene)-2,2'-diyl bis(2,2-dimethylpropanoate), C30H30O4, InChI=1S/C30H30O4/c1-29(2,3)27(31)33-23-17-15-19-11-7-9-13-21(19)25(23)26-22-14-10-8-12-20(22)16-18-24(26)34-28(32)30(4,5)6/h7-18H,1-6H3
Compound 6: (1R)-(1,1'-binaphthalene)-2,2'-diyl bis(2,2-dimethylpropanoate), C30H30O4, InChI=1S/C30H30O4/c1-29(2,3)27(31)33-23-17-15-19-11-7-9-13-21(19)25(23)26-22-14-10-8-12-20(22)16-18-24(26)34-28(32)30(4,5)6/h7-18H,1-6H3
Compound 7: (1,1'-binaphthalene)-2,2'-diol, C20H14O2, InChI=1S/C20H14O2/c21-17-11-9-13-5-1-3-7-15(13)19(17)20-16-8-4-2-6-14(16)10-12-18(20)22/h1-12,21-22H, purity 99%
Compound 8: (1,1'-binaphthalene)-2,2'-diyl bis(2,2-dimethylpropanoate), C30H30O4, InChI=1S/C30H30O4/c1-29(2,3)27(31)33-23-17-15-19-11-7-9-13-21(19)25(23)26-22-14-10-8-12-20(22)16-18-24(26)34-28(32)30(4,5)6/h7-18H,1-6H3

System: (S)-(1,1'-binaphthalene)-2,2'-diol; phases: Crystal, Liquid, Air at 1 atmosphere
Property: Normal melting temperature, K (Crystal); method: DTA
Normal melting temperature, K	uncertainty
482.35	0.5

System: (S)-(1,1'-binaphthalene)-2,2'-diol; phases: Crystal, Liquid, Air at 1 atmosphere
Property: Molar enthalpy of transition or fusion, kJ/mol (Crystal); method: DSC
Molar enthalpy of transition or fusion, kJ/mol	uncertainty
30.9	0.7

System: (S)-(1,1'-binaphthalene)-2,2'-diol; phases: Crystal, Liquid, Air at 1 atmosphere
Property: Normal melting temperature, K (Crystal); method: DTA
Normal melting temperature, K	uncertainty
481.15	0.5

System: (R)-(1,1'-binaphthalene)-2,2'-diol; phases: Crystal, Liquid, Air at 1 atmosphere
Property: Normal melting temperature, K (Crystal); method: DTA
Normal melting temperature, K	uncertainty
482.35	0.5

System: (R)-(1,1'-binaphthalene)-2,2'-diol; phases: Crystal, Liquid, Air at 1 atmosphere
Property: Molar enthalpy of transition or fusion, kJ/mol (Crystal); method: DSC
Molar enthalpy of transition or fusion, kJ/mol	uncertainty
30.9	0.7

System: (R)-(1,1'-binaphthalene)-2,2'-diol; phases: Crystal, Liquid, Air at 1 atmosphere
Property: Normal melting temperature, K (Crystal); method: DTA
Normal melting temperature, K	uncertainty
481.15	0.5

System: (S)-2'-(benzyloxy)-(1,1'-binaphthalen)-2-ol; phases: Crystal
Property: Mass density, kg/m3 (Crystal); method: X-ray diffraction
Temperature, K	Pressure, kPa	Mass density, kg/m3	uncertainty
293	101.325	1264	7

System: (S)-2'-(benzyloxy)-(1,1'-binaphthalen)-2-ol; phases: Glass, Liquid, Air at 1 atmosphere
Property: Triple point temperature, K (Glass); method: DSC
Triple point temperature, K	uncertainty
298.15	2

System: (S)-2'-(benzyloxy)-(1,1'-binaphthalen)-2-ol; phases: Crystal, Liquid, Air at 1 atmosphere
Property: Normal melting temperature, K (Crystal); method: DTA
Normal melting temperature, K	uncertainty
394.05	0.5

System: (S)-2'-(benzyloxy)-(1,1'-binaphthalen)-2-ol; phases: Crystal, Liquid, Air at 1 atmosphere
Property: Molar enthalpy of transition or fusion, kJ/mol (Crystal); method: DSC
Molar enthalpy of transition or fusion, kJ/mol	uncertainty
27.2	1.7

System: (R)-2'-(benzyloxy)-(1,1'-binaphthalen)-2-ol; phases: Glass, Liquid, Air at 1 atmosphere
Property: Triple point temperature, K (Glass); method: DSC
Triple point temperature, K	uncertainty
298.15	2

System: (R)-2'-(benzyloxy)-(1,1'-binaphthalen)-2-ol; phases: Crystal, Liquid, Air at 1 atmosphere
Property: Normal melting temperature, K (Crystal); method: DTA
Normal melting temperature, K	uncertainty
394.05	0.5

System: (R)-2'-(benzyloxy)-(1,1'-binaphthalen)-2-ol; phases: Crystal, Liquid, Air at 1 atmosphere
Property: Molar enthalpy of transition or fusion, kJ/mol (Crystal); method: DSC
Molar enthalpy of transition or fusion, kJ/mol	uncertainty
27.2	1.7

System: (1S)-(1,1'-binaphthalene)-2,2'-diyl bis(2,2-dimethylpropanoate); phases: Crystal
Property: Mass density, kg/m3 (Crystal); method: X-ray diffraction
Temperature, K	Pressure, kPa	Mass density, kg/m3	uncertainty
293	101.325	1173	6

System: (1S)-(1,1'-binaphthalene)-2,2'-diyl bis(2,2-dimethylpropanoate); phases: Glass, Liquid, Air at 1 atmosphere
Property: Triple point temperature, K (Glass); method: DSC
Triple point temperature, K	uncertainty
298.15	2

System: (1S)-(1,1'-binaphthalene)-2,2'-diyl bis(2,2-dimethylpropanoate); phases: Crystal, Liquid, Air at 1 atmosphere
Property: Normal melting temperature, K (Crystal); method: DTA
Normal melting temperature, K	uncertainty
429.35	0.9

System: (1S)-(1,1'-binaphthalene)-2,2'-diyl bis(2,2-dimethylpropanoate); phases: Crystal, Liquid, Air at 1 atmosphere
Property: Molar enthalpy of transition or fusion, kJ/mol (Crystal); method: DSC
Molar enthalpy of transition or fusion, kJ/mol	uncertainty
28.5	0.8

System: (1R)-(1,1'-binaphthalene)-2,2'-diyl bis(2,2-dimethylpropanoate); phases: Glass, Liquid, Air at 1 atmosphere
Property: Triple point temperature, K (Glass); method: DSC
Triple point temperature, K	uncertainty
298.15	2

System: (1R)-(1,1'-binaphthalene)-2,2'-diyl bis(2,2-dimethylpropanoate); phases: Crystal, Liquid, Air at 1 atmosphere
Property: Normal melting temperature, K (Crystal); method: DTA
Normal melting temperature, K	uncertainty
429.35	0.9

System: (1R)-(1,1'-binaphthalene)-2,2'-diyl bis(2,2-dimethylpropanoate); phases: Crystal, Liquid, Air at 1 atmosphere
Property: Molar enthalpy of transition or fusion, kJ/mol (Crystal); method: DSC
Molar enthalpy of transition or fusion, kJ/mol	uncertainty
28.5	0.8

System: (1R)-(1,1'-binaphthalene)-2,2'-diyl bis(2,2-dimethylpropanoate); phases: Crystal, Liquid, Air at 1 atmosphere
Property: Normal melting temperature, K (Crystal); method: DTA
Normal melting temperature, K	uncertainty
428.65	0.5

System: (1,1'-binaphthalene)-2,2'-diol; phases: Crystal, Liquid, Air at 1 atmosphere
Property: Normal melting temperature, K (Crystal); method: DTA
Normal melting temperature, K	uncertainty
488.55	0.5

System: (1,1'-binaphthalene)-2,2'-diol; phases: Crystal, Liquid, Air at 1 atmosphere
Property: Molar enthalpy of transition or fusion, kJ/mol (Crystal); method: DSC
Molar enthalpy of transition or fusion, kJ/mol	uncertainty
31.2	0.9

System: (1,1'-binaphthalene)-2,2'-diyl bis(2,2-dimethylpropanoate); phases: Crystal 1, Liquid, Air at 1 atmosphere
Property: Normal melting temperature, K (Crystal 1); method: DTA
Normal melting temperature, K	uncertainty
396.95	0.5

System: (1,1'-binaphthalene)-2,2'-diyl bis(2,2-dimethylpropanoate); phases: Crystal 2, Crystal 1, Air at 1 atmosphere
Property: Triple point temperature, K (Crystal 2); method: DSC
Triple point temperature, K	uncertainty
389.55	1.3

System: (R)-(1,1'-binaphthalene)-2,2'-diol + (S)-(1,1'-binaphthalene)-2,2'-diol; phases: Crystal, Crystal of intercomponent compound 1, Liquid, Air at 1 atmosphere
Property: Eutectic temperature, K (Crystal); method: DTA
Eutectic temperature, K	uncertainty
470.55	0.5

System: (R)-(1,1'-binaphthalene)-2,2'-diol + (S)-(1,1'-binaphthalene)-2,2'-diol; phases: Crystal, Crystal of intercomponent compound 1, Liquid, Air at 1 atmosphere
Property: Eutectic temperature, K (Crystal); method: DTA
Eutectic temperature, K	uncertainty
470.15	1

System: (R)-(1,1'-binaphthalene)-2,2'-diol + (S)-(1,1'-binaphthalene)-2,2'-diol; phases: Liquid, Crystal
Fixed: Pressure, kPa = 100
Property: Solid-liquid equilibrium temperature, K (Liquid); method: DTA
Mole fraction of (R)-(1,1'-binaphthalene)-2,2'-diol	Solid-liquid equilibrium temperature, K	uncertainty
0	481.15	0.5
0.0495	477.35	0.5
0.0985	474.25	0.5

System: (R)-(1,1'-binaphthalene)-2,2'-diol + (S)-(1,1'-binaphthalene)-2,2'-diol; phases: Liquid, Crystal of intercomponent compound 1
Fixed: Pressure, kPa = 100
Property: Solid-liquid equilibrium temperature, K (Liquid); method: DTA
Mole fraction of (R)-(1,1'-binaphthalene)-2,2'-diol	Solid-liquid equilibrium temperature, K	uncertainty
0.2	476.75	0.5
0.2524	480.35	0.5
0.3007	483.65	0.5
0.3501	486.15	0.5
0.3996	488.35	0.5
0.4519	488.15	0.5
0.5004	488.55	0.5
0.6	488.45	0.5
0.7412	481.85	0.5

System: (R)-(1,1'-binaphthalene)-2,2'-diol + (S)-(1,1'-binaphthalene)-2,2'-diol; phases: Liquid, Crystal
Fixed: Pressure, kPa = 100
Property: Solid-liquid equilibrium temperature, K (Liquid); method: DTA
Mole fraction of (R)-(1,1'-binaphthalene)-2,2'-diol	Solid-liquid equilibrium temperature, K	uncertainty
0.9478	476.75	0.5
1	481.15	0.5

System: (S)-2'-(benzyloxy)-(1,1'-binaphthalen)-2-ol + (R)-2'-(benzyloxy)-(1,1'-binaphthalen)-2-ol; phases: Crystal, Crystal, Liquid, Air at 1 atmosphere
Property: Eutectic temperature, K (Crystal); method: DTA
Eutectic temperature, K	uncertainty
355.25	2.3

System: (S)-2'-(benzyloxy)-(1,1'-binaphthalen)-2-ol + (R)-2'-(benzyloxy)-(1,1'-binaphthalen)-2-ol; phases: Liquid, Crystal
Fixed: Pressure, kPa = 100
Property: Solid-liquid equilibrium temperature, K (Liquid); method: DTA
Mole fraction of (R)-2'-(benzyloxy)-(1,1'-binaphthalen)-2-ol	Solid-liquid equilibrium temperature, K	uncertainty
1	394.05	0.5
0.8934	387.95	0.5
0.7864	381.45	0.5
0.5971	369.95	0.5
0.5	356.85	0.6

System: (1S)-(1,1'-binaphthalene)-2,2'-diyl bis(2,2-dimethylpropanoate) + (1R)-(1,1'-binaphthalene)-2,2'-diyl bis(2,2-dimethylpropanoate); phases: Crystal of intercomponent compound 1, Crystal, Liquid, Air at 1 atmosphere
Property: Eutectic temperature, K (Crystal of intercomponent compound 1); method: DTA
Eutectic temperature, K	uncertainty
396.25	1.2

System: (1S)-(1,1'-binaphthalene)-2,2'-diyl bis(2,2-dimethylpropanoate) + (1R)-(1,1'-binaphthalene)-2,2'-diyl bis(2,2-dimethylpropanoate); phases: Liquid, Crystal
Fixed: Pressure, kPa = 100
Property: Solid-liquid equilibrium temperature, K (Liquid); method: DTA
Mole fraction of (1R)-(1,1'-binaphthalene)-2,2'-diyl bis(2,2-dimethylpropanoate)	Solid-liquid equilibrium temperature, K	uncertainty
1	428.65	0.5
0.9308	426.45	0.5
0.878	420.25	0.5
0.7503	409.25	0.5
0.5979	400.15	0.5
0.5478	396.85	0.5

System: (1S)-(1,1'-binaphthalene)-2,2'-diyl bis(2,2-dimethylpropanoate) + (1R)-(1,1'-binaphthalene)-2,2'-diyl bis(2,2-dimethylpropanoate); phases: Liquid, Crystal of intercomponent compound 1
Fixed: Pressure, kPa = 100
Property: Solid-liquid equilibrium temperature, K (Liquid); method: DTA
Mole fraction of (1R)-(1,1'-binaphthalene)-2,2'-diyl bis(2,2-dimethylpropanoate)	Solid-liquid equilibrium temperature, K	uncertainty
0.5478	396.85	0.5
0.5001	396.95	0.5
