Measured thermophysical data. Low-temperature thermal properties of the aqueous solutions of simple aminoalcohols: Finding of peculiarities in 1-amino-2-propanol solutions
Source: Thermochim. Acta, 2015, 10.1016/j.tca.2015.02.020
Compound 1: 2-aminoethan-1-ol, C2H7NO, InChI=1S/C2H7NO/c3-1-2-4/h4H,1-3H2
Compound 2: 3-amino-1-propanol, C3H9NO, InChI=1S/C3H9NO/c4-2-1-3-5/h5H,1-4H2
Compound 3: 1-amino-2-propanol, C3H9NO, InChI=1S/C3H9NO/c1-3(5)2-4/h3,5H,2,4H2,1H3
Compound 4: water, H2O, InChI=1S/H2O/h1H2

System: 2-aminoethan-1-ol + water; phases: Glass
Fixed: Pressure, kPa = 101
Property: Molar heat capacity at constant pressure, J/K/mol (Glass); method: Small sample (50 mg) DSC
Mole fraction of 2-aminoethan-1-ol	Temperature, K	Molar heat capacity at constant pressure, J/K/mol	uncertainty
0.73	126.93	46.98206304	1.978192128
0.73	131.76	48.960255168	1.978192128
0.73	135.04	49.949351232	1.978192128
0.73	141.6	52.422091392	2.47274016
0.73	144.88	53.905735488	2.47274016
0.73	151.46	56.378475648	2.47274016
0.73	154.75	57.862119744	2.47274016
0.31	128.65	31.052647296	1.254652416
0.31	131.91	31.679973504	1.254652416
0.31	135.19	32.620962816	1.254652416
0.31	141.75	34.189278336	1.56831552
0.31	145.03	35.130267648	1.56831552
0.31	151.61	39.207888	1.56831552
0.23	127.09	27.9208832	1.116835328
0.23	131.92	29.596136192	1.39604416
0.23	135.2	30.71297152	1.39604416
0.23	141.75	32.667433344	1.39604416
0.23	145.04	34.063477504	1.39604416
0.19	127.56	25.674206208	1.047926784
0.19	132.38	26.722132992	1.047926784
0.19	135.66	27.770059776	1.30990848
0.19	142.22	29.341949952	1.30990848
0.19	145.51	30.913840128	1.30990848

System: 2-aminoethan-1-ol + water; phases: Glass
Fixed: Pressure, kPa = 101
Property: Molar heat capacity at constant pressure, J/K/mol (Glass); method: Small sample (50 mg) DSC
Mole fraction of 2-aminoethan-1-ol	Temperature, K	Molar heat capacity at constant pressure, J/K/mol	uncertainty
0.73	151.3	52.916639424	10.385508672
0.73	146.6	49.949351232	9.89096064
0.73	141.91	47.971159104	9.396412608
0.73	137.23	46.98206304	9.396412608
0.73	131.46	45.498418944	8.901864576
0.73	126.8	44.50932288	8.901864576
0.31	146.283	40.148877312	8.155240704
0.31	141.595	36.07125696	7.214251392
0.31	136.916	33.875615232	6.900588288
0.31	131.154	31.679973504	6.27326208
0.31	126.5	30.111657984	5.959598976
0.23	146.283	39.368445312	7.817847296
0.23	141.591	34.342686336	6.9802208
0.23	136.912	31.550598016	6.421803136
0.23	132.241	29.596136192	5.863385472
0.23	127.583	28.200092032	5.58417664
0.19	144.562	38.249327616	7.597469184
0.19	139.875	33.271675392	6.811524096
0.19	135.2	30.12789504	6.025579008
0.19	130.533	28.032041472	5.501615616
0.19	125.875	25.674206208	5.23963392

System: 2-aminoethan-1-ol + water; phases: Liquid
Fixed: Pressure, kPa = 101
Property: Molar heat capacity at constant pressure, J/K/mol (Liquid); method: Small sample (50 mg) DSC
Mole fraction of 2-aminoethan-1-ol	Temperature, K	Molar heat capacity at constant pressure, J/K/mol	uncertainty
0.73	171.22	122.647911936	5.440028352
0.73	174.52	121.658815872	4.94548032
0.73	181.12	122.153363904	4.94548032
0.73	184.43	122.153363904	4.94548032
0.73	191.04	120.175171776	4.94548032
0.73	270.7	140.451641088	5.934576384
0.73	274.07	140.94618912	5.934576384
0.73	280.95	141.440737152	5.934576384
0.73	284.4	141.440737152	5.934576384
0.31	164.78	75.906471168	3.13663104
0.31	171.38	75.592808064	3.13663104
0.31	174.68	75.592808064	3.13663104
0.31	181.28	76.220134272	3.13663104
0.31	184.58	76.220134272	3.13663104
0.31	191.19	77.161123584	3.13663104
0.31	194.5	77.474786688	3.13663104
0.31	201.13	78.729439104	3.450294144
0.31	204.44	79.356765312	3.450294144
0.31	211.06	79.98409152	3.450294144
0.31	214.38	80.611417728	3.450294144
0.31	221.01	81.866070144	3.450294144
0.31	224.33	82.807059456	3.450294144
0.31	230.97	84.375374976	3.450294144
0.31	234.28	85.316364288	3.763957248
0.31	240.93	87.198342912	3.763957248
0.31	244.25	88.139332224	3.763957248
0.31	247.57	89.080321536	3.763957248
0.31	250.9	90.021310848	3.763957248
0.31	254.22	91.275963264	3.763957248
0.31	260.88	93.157941888	4.077620352
0.31	264.2	94.0989312	4.077620352
0.31	270.86	95.980909824	4.077620352
0.31	274.23	96.608236032	4.077620352
0.31	281.11	97.862888448	4.077620352
0.31	284.56	97.862888448	4.077620352
0.23	171.38	68.964581504	2.79208832
0.23	174.68	69.522999168	3.071297152
0.23	181.28	70.360625664	3.071297152
0.23	184.59	70.639834496	3.071297152
0.23	191.2	71.477460992	3.071297152
0.23	194.51	72.035878656	3.071297152
0.23	201.13	72.59429632	3.071297152
0.23	204.44	72.873505152	3.071297152
0.23	211.07	73.711131648	3.071297152
0.23	214.38	74.548758144	3.071297152
0.23	230.97	80.691352448	3.350505984
0.23	234.29	81.249770112	3.350505984
0.23	240.93	82.925023104	3.629714816
0.23	244.25	84.041858432	3.629714816
0.23	247.57	85.15869376	3.629714816
0.23	250.9	86.275529088	3.629714816
0.23	254.23	87.113155584	3.629714816
0.23	260.88	89.067617408	3.908923648
0.23	264.2	90.184452736	3.908923648
0.23	270.86	91.580496896	3.908923648
0.23	274.23	92.418123392	3.908923648
0.23	281.11	93.255749888	3.908923648
0.23	284.56	93.255749888	3.908923648
0.19	161.96	60.517771776	2.61981696
0.19	165.25	60.779753472	2.61981696
0.19	171.85	61.56569856	2.61981696
0.19	175.15	61.827680256	2.61981696
0.19	181.75	62.351643648	2.61981696
0.19	241.4	78.856490496	3.405762048
0.19	244.73	80.166398976	3.405762048
0.19	247.58	81.21432576	3.405762048
0.19	251.37	82.786215936	3.405762048
0.19	254.7	84.096124416	3.667743744
0.19	261.35	86.45395968	3.667743744
0.19	264.67	87.501886464	3.667743744
0.19	271.34	89.859721728	3.92972544
0.19	274.73	90.645666816	3.92972544
0.19	281.61	91.6935936	3.92972544
0.19	285.05	91.955575296	3.92972544

System: 2-aminoethan-1-ol + water; phases: Liquid
Fixed: Pressure, kPa = 101
Property: Molar heat capacity at constant pressure, J/K/mol (Liquid); method: Small sample (50 mg) DSC
Mole fraction of 2-aminoethan-1-ol	Temperature, K	Molar heat capacity at constant pressure, J/K/mol	uncertainty
0.73	284.22	134.022516672	26.705593728
0.73	279.3	133.52796864	26.705593728
0.73	274.39	132.044324544	26.705593728
0.73	269.58	130.066132416	26.211045696
0.73	264.83	128.087940288	25.716497664
0.73	260.08	126.10974816	25.221949632
0.73	255.33	124.131556032	24.7274016
0.73	250.58	122.153363904	24.7274016
0.73	245.83	120.175171776	24.232853568
0.73	241.08	118.196979648	23.738305536
0.73	236.34	116.713335552	23.243757504
0.73	231.6	116.21878752	23.243757504
0.73	226.86	116.21878752	23.243757504
0.73	222.11	115.724239488	23.243757504
0.73	217.38	115.229691456	23.243757504
0.73	212.64	114.735143424	23.243757504
0.73	207.9	113.74604736	22.749209472
0.73	203.18	112.756951296	22.749209472
0.73	198.44	112.262403264	22.749209472
0.73	193.72	111.2733072	22.25466144
0.73	188.98	110.284211136	22.25466144
0.73	184.27	109.789663104	22.25466144
0.73	179.55	109.789663104	22.25466144
0.73	174.83	109.295115072	21.760113408
0.73	170.12	109.295115072	21.760113408
0.31	283.845	96.294572928	19.447112448
0.31	278.937	95.039920512	19.133449344
0.31	274.025	93.785268096	18.81978624
0.31	269.229	92.216952576	18.506123136
0.31	264.475	90.96230016	18.192460032
0.31	259.72	89.39398464	17.878796928
0.31	254.979	88.139332224	17.565133824
0.31	250.229	86.571016704	17.25147072
0.31	245.475	85.630027392	17.25147072
0.31	240.733	84.061711872	16.937807616
0.31	235.995	82.807059456	16.624144512
0.31	231.245	81.238743936	16.310481408
0.31	226.516	80.297754624	15.996818304
0.31	221.77	79.356765312	15.996818304
0.31	217.033	78.102112896	15.6831552
0.31	212.295	77.161123584	15.369492096
0.31	207.562	76.220134272	15.369492096
0.31	202.837	75.27914496	15.055828992
0.31	198.1	74.965481856	15.055828992
0.31	193.375	74.651818752	15.055828992
0.31	188.65	74.024492544	14.742165888
0.31	183.933	73.71082944	14.742165888
0.31	179.212	73.397166336	14.742165888
0.31	174.5	73.397166336	14.742165888
0.31	169.787	73.397166336	14.742165888
0.31	165.079	73.71082944	14.742165888
0.23	283.845	89.905243904	18.14857408
0.23	278.937	88.788408576	17.869365248
0.23	274.02	87.671573248	17.590156416
0.23	269.229	86.275529088	17.310947584
0.23	264.47	84.879484928	17.031738752
0.23	259.72	83.483440768	16.75252992
0.23	254.975	82.36660544	16.473321088
0.23	250.22	80.691352448	16.194112256
0.23	245.47	79.57451712	15.914903424
0.23	240.725	78.17847296	15.635694592
0.23	235.987	76.7824288	15.35648576
0.23	231.241	75.665593472	15.077276928
0.23	226.512	74.269549312	14.798068096
0.23	221.762	73.152713984	14.798068096
0.23	217.029	72.035878656	14.518859264
0.23	212.291	70.919043328	14.239650432
0.23	207.558	69.802208	13.9604416
0.23	202.829	68.964581504	13.9604416
0.23	198.1	68.126955008	13.681232768
0.23	193.375	67.568537344	13.681232768
0.23	188.645	66.730910848	13.402023936
0.23	183.925	66.172493184	13.402023936
0.23	179.208	65.893284352	13.122815104
0.23	174.495	65.61407552	13.122815104
0.23	169.787	65.61407552	13.122815104
0.23	165.075	65.61407552	13.122815104
0.23	160.375	65.61407552	13.122815104
0.19	282.045	85.668014592	17.290791936
0.19	277.125	84.882069504	17.02881024
0.19	272.237	84.358106112	17.02881024
0.19	267.483	83.572161024	16.766828544
0.19	262.729	82.786215936	16.504846848
0.19	257.979	81.738289152	16.504846848
0.19	253.233	80.952344064	16.242865152
0.19	248.479	80.166398976	15.980883456
0.19	243.733	79.118472192	15.980883456
0.19	238.987	78.070545408	15.71890176
0.19	234.245	77.022618624	15.456920064
0.19	229.508	75.97469184	15.194938368
0.19	224.77	74.66478336	14.932956672
0.19	220.029	73.616856576	14.670974976
0.19	215.291	72.306948096	14.40899328
0.19	210.554	70.997039616	14.147011584
0.19	205.82	69.949112832	14.147011584
0.19	201.095	68.901186048	13.885029888
0.19	196.366	67.853259264	13.623048192
0.19	191.637	67.067314176	13.361066496
0.19	186.916	66.543350784	13.361066496
0.19	182.195	66.019387392	13.361066496
0.19	177.483	65.233442304	13.0990848
0.19	172.766	64.971460608	13.0990848
0.19	168.058	64.447497216	12.837103104
0.19	163.354	64.18551552	12.837103104
0.19	158.654	63.661552128	12.837103104

System: 2-aminoethan-1-ol + water; phases: Glass, Liquid
Fixed: Pressure, kPa = 101
Property: Boiling temperature at pressure P, K (Glass); method: DTA
Mole fraction of 2-aminoethan-1-ol	Boiling temperature at pressure P, K	uncertainty
0.19	151	2
0.23	152.5	2
0.31	154.8	2
0.4	160	2.1
0.53	162	2.1
0.73	163	2.1

System: 3-amino-1-propanol + water; phases: Glass
Fixed: Pressure, kPa = 101
Property: Molar heat capacity at constant pressure, J/K/mol (Glass); method: Small sample (50 mg) DSC
Mole fraction of 3-amino-1-propanol	Temperature, K	Molar heat capacity at constant pressure, J/K/mol	uncertainty
0.68	126.01	47.745167904	2.273579424
0.68	130.83	52.292326752	2.273579424
0.68	134.11	53.99751132	2.273579424
0.68	140.66	56.271090744	2.273579424
0.68	143.95	57.976275312	2.273579424
0.68	150.53	60.249854736	2.84197428
0.68	153.82	61.955039304	2.84197428
0.68	160.4	65.36540844	2.84197428
0.68	163.69	67.638987864	2.84197428
0.26	127.1	32.202632616	1.314393168
0.26	131.92	33.188427492	1.314393168
0.26	135.2	33.845624076	1.314393168
0.26	141.75	35.817213828	1.64299146
0.26	145.04	36.803008704	1.64299146
0.26	151.62	39.103196748	1.64299146
0.26	154.91	40.417589916	1.64299146
0.26	161.49	45.017966004	1.971589752
0.19	126.94	29.151851998	1.154528792
0.19	131.76	30.595012988	1.44316099
0.19	135.04	31.460909582	1.44316099
0.19	141.6	33.481334968	1.44316099
0.19	144.88	34.63586376	1.44316099
0.19	151.46	36.944921344	1.44316099
0.19	154.75	38.388082334	1.731793188
0.16	127.56	28.236402688	1.086015488
0.16	130.83	29.050914304	1.35751936
0.16	134.1	30.136929792	1.35751936
0.16	140.66	31.765953024	1.35751936
0.16	143.95	32.58046464	1.35751936
0.16	150.53	34.752495616	1.35751936
0.16	153.81	36.65302272	1.629023232

System: 3-amino-1-propanol + water; phases: Glass
Fixed: Pressure, kPa = 101
Property: Molar heat capacity at constant pressure, J/K/mol (Glass); method: Small sample (50 mg) DSC
Mole fraction of 3-amino-1-propanol	Temperature, K	Molar heat capacity at constant pressure, J/K/mol	uncertainty
0.68	156.145	60.249854736	11.936291976
0.68	151.45	57.976275312	11.36789712
0.68	146.754	56.8394856	11.36789712
0.68	142.07	56.271090744	11.36789712
0.68	137.391	54.565906176	10.799502264
0.68	132.712	52.860721608	10.799502264
0.68	128.058	51.15553704	10.231107408
0.26	148.787	39.103196748	7.886359008
0.26	144.1	36.474410412	7.229162424
0.26	139.412	35.488615536	7.229162424
0.26	134.737	34.174222368	6.900564132
0.26	130.075	33.188427492	6.57196584
0.26	125.42	32.202632616	6.57196584
0.19	152.858	40.985772116	8.370333742
0.19	148.158	37.233553542	7.504437148
0.19	143.47	34.924495958	6.927172752
0.19	138.629	33.19270277	6.638540554
0.19	133.954	31.460909582	6.349908356
0.19	129.291	30.017748592	6.061276158
0.19	125.42	28.285955404	5.77264396
0.16	150.979	40.7255808	8.14511616
0.16	146.283	36.65302272	7.330604544
0.16	141.591	33.937984	6.7875968
0.16	136.916	32.037456896	6.516092928
0.16	132.237	30.408433664	5.973085184
0.16	127.587	29.050914304	5.701581312

System: 3-amino-1-propanol + water; phases: Liquid
Fixed: Pressure, kPa = 101
Property: Molar heat capacity at constant pressure, J/K/mol (Liquid); method: Small sample (50 mg) DSC
Mole fraction of 3-amino-1-propanol	Temperature, K	Molar heat capacity at constant pressure, J/K/mol	uncertainty
0.68	180.19	138.688344864	5.68394856
0.68	183.49	138.688344864	5.68394856
0.68	190.1	139.25673972	5.68394856
0.68	193.41	139.825134576	5.68394856
0.68	200.03	140.961924288	6.252343416
0.68	203.35	141.530319144	6.252343416
0.68	209.97	142.098714	6.252343416
0.68	213.28	142.667108856	6.252343416
0.68	269.76	158.013769968	6.820738272
0.68	273.1	156.876980256	6.820738272
0.68	279.98	157.445375112	6.820738272
0.68	283.42	156.876980256	6.820738272
0.26	174.68	82.478171292	3.614581212
0.26	181.28	82.806769584	3.614581212
0.26	184.59	83.135367876	3.614581212
0.26	191.2	84.121162752	3.614581212
0.26	194.51	84.778359336	3.614581212
0.26	201.13	86.421350796	3.614581212
0.26	204.44	86.749949088	3.614581212
0.26	211.07	88.064342256	3.614581212
0.26	214.38	89.050137132	3.943179504
0.26	221.02	90.3645303	3.943179504
0.26	224.35	91.350325176	3.943179504
0.26	230.97	93.321914928	3.943179504
0.26	234.29	94.307709804	3.943179504
0.26	240.93	96.607897848	4.271777796
0.26	244.25	97.922291016	4.271777796
0.26	250.9	100.22247906	4.271777796
0.26	254.23	101.208273936	4.271777796
0.26	260.88	103.837060272	4.271777796
0.26	264.21	104.822855148	4.600376088
0.26	266.1	105.480051732	4.600376088
0.26	270.87	106.7944449	4.600376088
0.26	274.24	107.451641484	4.600376088
0.26	281.12	108.766034652	4.600376088
0.26	284.56	108.766034652	4.600376088
0.19	171.23	71.869417302	3.174954178
0.19	174.53	71.869417302	3.174954178
0.19	181.12	72.735313896	3.174954178
0.19	184.43	73.312578292	3.174954178
0.19	191.04	75.04437148	3.174954178
0.19	194.35	75.621635876	3.174954178
0.19	200.98	77.064796866	3.174954178
0.19	204.28	77.642061262	3.174954178
0.19	210.91	78.219325658	3.463586376
0.19	214.23	79.085222252	3.463586376
0.19	220.86	81.105647638	3.463586376
0.19	224.18	83.126073024	3.463586376
0.19	230.81	87.455555994	3.752218574
0.19	240.77	89.187349182	3.752218574
0.19	244.1	90.630510172	3.752218574
0.19	250.75	93.228199954	4.040850772
0.19	254.07	94.094096548	4.040850772
0.19	260.72	96.403154132	4.040850772
0.19	264.05	97.557682924	4.040850772
0.19	266.1	98.13494732	4.040850772
0.19	270.7	99.289476112	4.32948297
0.19	274.07	100.155372706	4.32948297
0.19	280.95	101.0212693	4.32948297
0.19	284.4	101.0212693	4.32948297
0.16	170.28	66.246944768	2.71503872
0.16	173.58	66.789952512	2.71503872
0.16	180.18	67.875968	2.986542592
0.16	183.49	68.690479616	2.986542592
0.16	190.09	70.047998976	2.986542592
0.16	193.4	70.047998976	2.986542592
0.16	249.79	90.139285504	3.801054208
0.16	253.11	91.496804864	3.801054208
0.16	259.77	93.940339712	4.07255808
0.16	263.1	95.0263552	4.07255808
0.16	266.1	96.112370688	4.07255808
0.16	269.76	97.198386176	4.07255808
0.16	273.09	98.012897792	4.07255808
0.16	279.97	99.09891328	4.344061952
0.16	283.41	98.827409408	4.07255808

System: 3-amino-1-propanol + water; phases: Liquid
Fixed: Pressure, kPa = 101
Property: Molar heat capacity at constant pressure, J/K/mol (Liquid); method: Small sample (50 mg) DSC
Mole fraction of 3-amino-1-propanol	Temperature, K	Molar heat capacity at constant pressure, J/K/mol	uncertainty
0.68	284.354	151.761426552	30.693322224
0.68	279.437	151.193031696	30.124927368
0.68	274.525	149.487847128	30.124927368
0.68	269.716	147.214267704	29.556532512
0.68	264.958	146.077477992	29.556532512
0.68	260.204	143.803898568	28.988137656
0.68	255.458	142.098714	28.4197428
0.68	250.708	140.393529432	28.4197428
0.68	245.962	138.688344864	27.851347944
0.68	241.212	137.551555152	27.851347944
0.68	236.47	135.846370584	27.282953088
0.68	231.729	134.709580872	27.282953088
0.68	226.991	133.57279116	26.714558232
0.68	222.245	133.004396304	26.714558232
0.68	217.508	131.299211736	26.146163376
0.68	212.779	130.162422024	26.146163376
0.68	208.041	129.025632312	26.146163376
0.68	203.312	129.025632312	26.146163376
0.68	198.579	127.8888426	25.57776852
0.68	193.854	127.320447744	25.57776852
0.68	189.125	127.320447744	25.57776852
0.68	184.408	127.320447744	25.57776852
0.68	179.691	127.320447744	25.57776852
0.26	283.85	104.822855148	21.030290688
0.26	278.945	103.50846198	20.701692396
0.26	274.025	102.194068812	20.373094104
0.26	269.233	100.551077352	20.044495812
0.26	264.479	99.236684184	20.044495812
0.26	259.729	97.593692724	19.71589752
0.26	254.979	95.950701264	19.387299228
0.26	250.233	94.307709804	19.058700936
0.26	245.483	92.664718344	18.730102644
0.26	240.733	91.021726884	18.401504352
0.26	235.991	89.707333716	18.07290606
0.26	231.245	88.064342256	17.744307768
0.26	226.512	86.421350796	17.415709476
0.26	221.77	85.106957628	17.087111184
0.26	217.037	84.121162752	16.758512892
0.26	212.295	82.806769584	16.758512892
0.26	207.566	81.820974708	16.4299146
0.26	202.837	80.835179832	16.101316308
0.26	198.1	79.849384956	16.101316308
0.26	193.379	79.520786664	16.101316308
0.26	188.65	78.86359008	15.772718016
0.26	183.933	78.206393496	15.772718016
0.26	179.212	77.877795204	15.772718016
0.26	174.5	77.549196912	15.444119724
0.19	283.854	97.269050726	19.626989464
0.19	278.945	96.403154132	19.338357266
0.19	271.137	94.382728746	19.049725068
0.19	266.379	92.939567756	18.76109287
0.19	261.625	91.496406766	18.472460672
0.19	256.875	90.053245776	18.183828474
0.19	252.129	88.610084786	17.895196276
0.19	247.379	87.166923796	17.606564078
0.19	242.629	85.723762806	17.31793188
0.19	237.883	84.280601816	17.029299682
0.19	233.145	82.837440826	16.740667484
0.19	228.404	81.394279836	16.452035286
0.19	223.67	79.951118846	16.163403088
0.19	218.925	78.219325658	15.586138692
0.19	214.187	76.48753247	15.297506494
0.19	209.454	75.333003678	15.008874296
0.19	204.725	73.889842688	14.720242098
0.19	199.991	73.023946094	14.720242098
0.19	195.266	71.869417302	14.4316099
0.19	190.541	71.292152906	14.4316099
0.19	185.82	70.426256312	14.142977702
0.19	181.095	69.848991916	14.142977702
0.19	176.387	69.560359718	13.854345504
0.19	171.67	69.27172752	13.854345504
0.19	166.962	68.117198728	13.565713306
0.16	283.841	94.754851328	19.00527104
0.16	278.937	94.211843584	19.00527104
0.16	274.016	92.854324224	18.733767168
0.16	269.233	91.768308736	18.462263296
0.16	264.47	90.682293248	18.190759424
0.16	259.725	89.324773888	17.919255552
0.16	254.975	88.2387584	17.64775168
0.16	250.229	86.88123904	17.376247808
0.16	245.479	85.52371968	17.104743936
0.16	240.729	83.894696448	16.833240064
0.16	235.991	82.537177088	16.561736192
0.16	231.245	81.179657728	16.29023232
0.16	226.512	79.550634496	16.018728448
0.16	221.766	78.193115136	15.747224576
0.16	217.029	76.564091904	15.475720704
0.16	212.295	75.206572544	15.204216832
0.16	207.558	73.849053184	14.93271296
0.16	202.833	72.491533824	14.661209088
0.16	198.1	71.405518336	14.389705216
0.16	193.375	70.319502848	14.118201344
0.16	188.645	69.504991232	13.846697472
0.16	183.933	68.418975744	13.846697472
0.16	179.208	67.604464128	13.5751936
0.16	174.495	67.061456384	13.5751936
0.16	169.787	66.789952512	13.303689728
0.16	165.079	65.703937024	13.303689728

System: 3-amino-1-propanol + water; phases: Glass, Liquid
Fixed: Pressure, kPa = 101
Property: Boiling temperature at pressure P, K (Glass); method: DTA
Mole fraction of 3-amino-1-propanol	Boiling temperature at pressure P, K	uncertainty
0.16	159	2
0.19	160.3	2
0.26	165.2	2
0.36	166.9	2
0.49	171	2.1
0.68	172	2.1

System: 1-amino-2-propanol + water; phases: Glass
Fixed: Pressure, kPa = 101
Property: Molar heat capacity at constant pressure, J/K/mol (Glass); method: Small sample (50 mg) DSC
Mole fraction of 1-amino-2-propanol	Temperature, K	Molar heat capacity at constant pressure, J/K/mol	uncertainty
0.68	127.73	51.15553704	2.273579424
0.68	131	52.860721608	2.273579424
0.68	134.27	53.99751132	2.273579424
0.68	140.83	56.271090744	2.273579424
0.68	144.11	57.407880456	2.273579424
0.68	150.69	59.68145988	2.273579424
0.68	153.98	60.818249592	2.84197428
0.68	160.57	63.091829016	2.84197428
0.68	163.85	64.797013584	2.84197428
0.68	170.45	68.20738272	2.84197428
0.68	173.75	73.89133128	3.410369136
0.26	127.56	32.531230908	1.314393168
0.26	130.83	33.188427492	1.314393168
0.26	134.1	33.845624076	1.314393168
0.26	140.66	35.488615536	1.64299146
0.26	143.95	36.14581212	1.64299146
0.26	150.53	38.117401872	1.64299146
0.26	153.82	39.103196748	1.64299146
0.26	160.41	41.0747865	1.64299146
0.26	163.7	42.389179668	1.971589752
0.26	170.3	46.00376088	1.971589752
0.19	127.55	28.574587602	1.154528792
0.19	130.83	29.151851998	1.154528792
0.19	134.1	29.729116394	1.154528792
0.19	140.66	31.172277384	1.44316099
0.19	143.95	31.74954178	1.44316099
0.19	150.53	33.481334968	1.44316099
0.19	153.82	34.058599364	1.44316099
0.19	160.41	35.790392552	1.44316099
0.19	163.7	36.656289146	1.44316099
0.19	170.29	40.697139918	1.731793188
0.16	127.71	27.964898816	1.086015488
0.16	130.98	28.50790656	1.35751936
0.16	134.25	29.050914304	1.35751936
0.16	140.81	30.408433664	1.35751936
0.16	144.1	30.951441408	1.35751936
0.16	150.68	32.308960768	1.35751936
0.16	153.98	33.123472384	1.35751936
0.16	160.56	34.480991744	1.35751936
0.16	163.85	35.567007232	1.629023232
0.15	127.69	27.64262072	1.06317772
0.15	130.96	28.70579844	1.32897215
0.15	134.24	29.50318173	1.32897215
0.15	140.8	30.83215388	1.32897215
0.15	144.09	31.62953717	1.32897215
0.15	150.67	33.22430375	1.32897215
0.15	153.96	34.02168704	1.59476658
0.15	160.55	35.88224805	1.59476658
0.15	163.84	37.74280906	1.59476658

System: 1-amino-2-propanol + water; phases: Glass
Fixed: Pressure, kPa = 101
Property: Molar heat capacity at constant pressure, J/K/mol (Glass); method: Small sample (50 mg) DSC
Mole fraction of 1-amino-2-propanol	Temperature, K	Molar heat capacity at constant pressure, J/K/mol	uncertainty
0.68	165.245	64.797013584	13.073081688
0.68	160.545	60.818249592	11.936291976
0.68	155.841	59.113065024	11.936291976
0.68	151.145	57.976275312	11.36789712
0.68	146.454	56.8394856	11.36789712
0.68	141.766	55.702695888	11.36789712
0.68	137.087	54.565906176	10.799502264
0.68	132.416	52.292326752	10.231107408
0.68	127.762	51.15553704	10.231107408
0.26	165.079	45.675162588	9.200752176
0.26	160.375	42.389179668	8.543555592
0.26	155.675	40.417589916	8.2149573
0.26	150.975	39.103196748	7.886359008
0.26	146.279	38.117401872	7.557760716
0.26	141.587	36.803008704	7.229162424
0.26	136.904	35.488615536	7.229162424
0.26	132.229	34.174222368	6.900564132
0.26	127.566	32.8598292	6.57196584
0.19	165.079	42.717565304	8.65896594
0.19	160.379	38.96534673	7.793069346
0.19	155.675	36.944921344	7.504437148
0.19	150.345	35.501760354	7.21580495
0.19	145.65	34.347231562	6.927172752
0.19	140.958	32.904070572	6.638540554
0.19	136.283	32.038173978	6.349908356
0.19	131.608	30.30638079	6.061276158
0.19	126.945	28.8632198	5.77264396
0.16	160.38	40.454076928	8.14511616
0.16	155.68	37.739038208	7.602108416
0.16	150.19	36.110014976	7.330604544
0.16	145.5	34.752495616	7.059100672
0.16	140.8	33.394976256	6.7875968
0.16	136.13	31.765953024	6.244589056
0.16	131.45	30.136929792	5.973085184
0.16	126.79	28.236402688	5.701581312
0.15	160.4	39.07178121	7.70803847
0.15	155.68	35.88224805	7.17644961
0.15	150.99	34.28748147	6.91065518
0.15	146.29	33.22430375	6.64486075
0.15	140.81	31.62953717	6.37906632
0.15	136.13	30.30056502	6.11327189
0.15	131.45	28.70579844	5.84747746
0.15	126.79	27.11103186	5.3158886

System: 1-amino-2-propanol + water; phases: Liquid
Fixed: Pressure, kPa = 101
Property: Molar heat capacity at constant pressure, J/K/mol (Liquid); method: Small sample (50 mg) DSC
Mole fraction of 1-amino-2-propanol	Temperature, K	Molar heat capacity at constant pressure, J/K/mol	uncertainty
0.68	190.26	135.277975728	5.68394856
0.68	193.58	135.277975728	5.68394856
0.68	200.19	136.41476544	5.68394856
0.68	203.5	136.983160296	5.68394856
0.68	210.13	136.983160296	5.68394856
0.68	213.45	137.551555152	5.68394856
0.68	220.08	136.983160296	5.68394856
0.68	259.95	154.035005976	6.820738272
0.68	263.27	155.171795688	6.820738272
0.68	269.93	158.013769968	6.820738272
0.68	273.27	159.15055968	6.820738272
0.68	280.15	160.287349392	6.820738272
0.68	283.59	160.855744248	6.820738272
0.26	190.11	88.064342256	3.614581212
0.26	193.42	87.735743964	3.614581212
0.26	200.05	87.735743964	3.614581212
0.26	203.36	88.064342256	3.614581212
0.26	209.98	88.72153884	3.614581212
0.26	213.3	89.378735424	3.943179504
0.26	219.93	90.3645303	3.943179504
0.26	223.25	91.350325176	3.943179504
0.26	229.89	92.993316636	3.943179504
0.26	233.2	94.307709804	3.943179504
0.26	239.85	96.279299556	3.943179504
0.26	243.17	97.593692724	4.271777796
0.26	249.82	99.893880768	4.271777796
0.26	253.15	101.208273936	4.271777796
0.26	259.8	103.50846198	4.271777796
0.26	263.13	104.822855148	4.600376088
0.26	269.79	107.451641484	4.600376088
0.26	273.13	108.43743636	4.600376088
0.26	280.01	109.423231236	4.600376088
0.26	283.44	110.08042782	4.600376088
0.19	190.11	83.126073024	3.463586376
0.19	193.42	81.971544232	3.463586376
0.19	200.05	80.528383242	3.463586376
0.19	203.35	80.239751044	3.463586376
0.19	209.98	80.528383242	3.463586376
0.19	213.3	80.81701544	3.463586376
0.19	219.93	82.26017643	3.463586376
0.19	223.25	82.837440826	3.463586376
0.19	259.8	95.537257538	4.040850772
0.19	263.13	96.69178633	4.040850772
0.19	269.78	98.712211716	4.32948297
0.19	273.12	99.866740508	4.32948297
0.19	280	101.0212693	4.32948297
0.19	283.44	101.309901498	4.32948297
0.16	190.27	77.921611264	3.258046464
0.16	193.58	77.107099648	3.258046464
0.16	200.2	76.292588032	3.258046464
0.16	203.51	76.292588032	3.258046464
0.16	210.14	76.292588032	3.258046464
0.16	213.45	76.835595776	3.258046464
0.16	220.09	76.564091904	3.258046464
0.16	259.95	93.397331968	4.07255808
0.16	263.28	94.483347456	4.07255808
0.16	269.94	96.655378432	4.07255808
0.16	273.29	97.74139392	4.07255808
0.16	280.17	98.827409408	4.07255808
0.16	283.61	99.370417152	4.344061952
0.15	190.26	76.81459027	3.18953316
0.15	193.57	76.28300141	3.18953316
0.15	200.19	76.01720698	3.18953316
0.15	203.5	75.75141255	3.18953316
0.15	259.96	93.82543379	3.98691645
0.15	263.29	94.62281708	3.98691645
0.15	269.95	96.74917252	4.25271088
0.15	273.29	97.28076138	4.25271088
0.15	280.17	97.81235024	4.25271088
0.15	283.62	98.07814467	4.25271088

System: 1-amino-2-propanol + water; phases: Liquid
Fixed: Pressure, kPa = 101
Property: Molar heat capacity at constant pressure, J/K/mol (Liquid); method: Small sample (50 mg) DSC
Mole fraction of 1-amino-2-propanol	Temperature, K	Molar heat capacity at constant pressure, J/K/mol	uncertainty
0.68	284.025	155.171795688	31.26171708
0.68	279.116	152.898216264	30.693322224
0.68	274.2	150.62463684	30.124927368
0.68	269.4	148.351057416	29.556532512
0.68	264.641	146.645872848	29.556532512
0.68	259.891	144.372293424	28.988137656
0.68	255.141	142.667108856	28.4197428
0.68	250.395	140.393529432	28.4197428
0.68	245.641	138.688344864	27.851347944
0.68	240.895	136.983160296	27.282953088
0.68	236.158	135.277975728	27.282953088
0.68	231.416	133.57279116	26.714558232
0.68	226.679	132.436001448	26.714558232
0.68	221.937	130.73081688	26.146163376
0.68	217.195	129.594027168	26.146163376
0.68	212.462	129.025632312	26.146163376
0.68	207.729	127.8888426	25.57776852
0.68	203	126.752052888	25.57776852
0.68	198.27	126.752052888	25.57776852
0.68	193.541	126.752052888	25.57776852
0.68	188.816	125.615263176	25.009373664
0.68	184.095	124.478473464	25.009373664
0.26	283.875	106.7944449	21.35888898
0.26	278.962	105.808650024	21.35888898
0.26	274.045	104.494256856	21.030290688
0.26	269.258	103.179863688	20.701692396
0.26	264.5	101.86547052	20.373094104
0.26	259.745	100.551077352	20.044495812
0.26	254.995	99.236684184	20.044495812
0.26	250.245	97.922291016	19.71589752
0.26	245.5	96.607897848	19.387299228
0.26	240.75	94.964906388	19.058700936
0.26	236.008	93.65051322	18.730102644
0.26	231.262	92.336120052	18.401504352
0.26	226.525	91.021726884	18.401504352
0.26	221.787	89.707333716	18.07290606
0.26	217.041	88.064342256	17.744307768
0.26	212.308	87.407145672	17.415709476
0.26	207.575	86.421350796	17.415709476
0.26	202.841	85.43555592	17.087111184
0.26	198.108	84.778359336	17.087111184
0.26	193.383	84.778359336	17.087111184
0.26	188.658	85.106957628	17.087111184
0.26	183.933	85.43555592	17.087111184
0.19	283.875	97.846315122	19.626989464
0.19	278.97	98.13494732	19.626989464
0.19	274.05	96.980418528	19.338357266
0.19	269.258	95.825889736	19.338357266
0.19	264.5	94.959993142	19.049725068
0.19	259.75	93.80546435	18.76109287
0.19	254.995	92.36230336	18.472460672
0.19	250.245	91.496406766	18.472460672
0.19	245.5	90.053245776	18.183828474
0.19	240.75	88.610084786	17.895196276
0.19	236.008	87.455555994	17.606564078
0.19	231.262	86.012395004	17.31793188
0.19	226.533	84.857866212	17.029299682
0.19	221.783	83.70333742	16.740667484
0.19	217.045	82.548808628	16.452035286
0.19	212.308	81.682912034	16.452035286
0.19	207.575	80.81701544	16.163403088
0.19	202.845	80.528383242	16.163403088
0.16	283.88	96.38387456	19.276774912
0.16	278.97	96.112370688	19.276774912
0.16	274.05	95.297859072	19.00527104
0.16	269.26	94.483347456	19.00527104
0.16	264.5	93.940339712	18.733767168
0.16	259.75	92.854324224	18.733767168
0.16	255	91.768308736	18.462263296
0.16	250.25	90.95379712	18.190759424
0.16	245.5	89.59627776	17.919255552
0.16	240.75	88.510262272	17.64775168
0.16	236.01	86.88123904	17.376247808
0.16	231.27	85.52371968	17.104743936
0.16	226.53	84.437704192	16.833240064
0.16	221.79	83.080184832	16.561736192
0.16	217.05	81.722665472	16.29023232
0.16	212.31	80.636649984	16.29023232
0.16	207.58	79.822138368	16.018728448
0.16	202.85	79.279130624	16.018728448
0.16	198.11	79.007626752	15.747224576
0.15	283.92	95.42020037	19.13719896
0.15	279	94.88861151	19.13719896
0.15	274.09	93.82543379	18.87140453
0.15	269.29	93.29384493	18.6056101
0.15	264.53	92.23066721	18.6056101
0.15	259.78	90.90169506	18.33981567
0.15	255.03	89.83851734	18.07402124
0.15	250.28	88.50954519	17.80822681
0.15	245.53	87.18057304	17.54243238
0.15	240.78	85.58580646	17.27663795
0.15	236.04	83.99103988	16.74504909
0.15	231.3	82.3962733	16.47925466
0.15	226.55	80.80150672	16.21346023
0.15	221.81	79.20674014	15.9476658
0.15	217.07	77.87776799	15.68187137
0.15	212.33	76.54879584	15.41607694
0.15	207.6	75.48561812	15.15028251
0.15	202.87	74.68823483	14.88448808
0.15	198.13	73.89085154	14.88448808

System: 1-amino-2-propanol + water; phases: Glass, Liquid
Fixed: Pressure, kPa = 101
Property: Boiling temperature at pressure P, K (Glass); method: DTA
Mole fraction of 1-amino-2-propanol	Boiling temperature at pressure P, K	uncertainty
0.15	173	2.1
0.16	175	2
0.19	178	2
0.26	178	2
0.36	178	2
0.49	176	2.1
0.68	177	2.1
