Measured thermophysical data. Thermochemistry of adducts of some bivalent transition metal bromides with quinoline
Source: Thermochim. Acta, 2008, 10.1016/j.tca.2007.11.018
Compound 1: manganese(II) bromide, Br2Mn, InChI=1S/2BrH.Mn/h2*1H;/q;;+2/p-2
Compound 2: cobalt(II) bromide, Br2Co, InChI=1S/2BrH.Co/h2*1H;/q;;+2/p-2
Compound 3: nickel bromide, Br2Ni, InChI=1S/2BrH.Ni/h2*1H;/q;;+2/p-2
Compound 4: copper dibromide, Br2Cu, InChI=1S/2BrH.Cu/h2*1H;/q;;+2/p-2
Compound 5: zinc bromide, Br2Zn, InChI=1S/2BrH.Zn/h2*1H;/q;;+2/p-2
Compound 6: manganese dibromide isoquinoline complex, C9H7Br2MnN, InChI=1S/C9H7N.2BrH.Mn/c1-2-6-9-8(4-1)5-3-7-10-9;;;/h1-7H;2*1H;/q;;;+2/p-2, purity 98%
Compound 7: cobal dibromide isoquinoline complex (1:2), C18H14Br2CoN2, InChI=1S/2C9H7N.2BrH.Co/c2*1-2-6-9-8(4-1)5-3-7-10-9;;;/h2*1-7H;2*1H;/q;;;;+2/p-2, purity 98%
Compound 8: nickel dibromide quinoline complex (1:2), C18H14Br2N2Ni, InChI=1S/2C9H7N.2BrH.Ni/c2*1-2-6-9-8(4-1)5-3-7-10-9;;;/h2*1-7H;2*1H;/q;;;;+2/p-2, purity 98%
Compound 9: copper dibromide quinoline complex (1:2), C18H14Br2CuN2, InChI=1S/2C9H7N.2BrH.Cu/c2*1-2-6-9-8(4-1)5-3-7-10-9;;;/h2*1-7H;2*1H;/q;;;;+2/p-2, purity 98%
Compound 10: zinc dibromide quinoline complex (1:2), C18H14Br2N2Zn, InChI=1S/2C9H7N.2BrH.Zn/c2*1-2-6-9-8(4-1)5-3-7-10-9;;;/h2*1-7H;2*1H;/q;;;;+2/p-2, purity 98%
Compound 11: quinoline, C9H7N, InChI=1S/C9H7N/c1-2-6-9-8(4-1)5-3-7-10-9/h1-7H

Reaction: -1 quinoline + -1 manganese(II) bromide + 1 manganese dibromide isoquinoline complex
Property: Molar enthalpy of reaction, kJ/mol
-70.79

Reaction: -2 quinoline + -1 cobalt(II) bromide + 1 cobal dibromide isoquinoline complex (1:2)
Property: Molar enthalpy of reaction, kJ/mol
-96.81

Reaction: -2 quinoline + -1 nickel bromide + 1 nickel dibromide quinoline complex (1:2)
Property: Molar enthalpy of reaction, kJ/mol
-84.79

Reaction: -2 quinoline + -1 copper dibromide + 1 copper dibromide quinoline complex (1:2)
Property: Molar enthalpy of reaction, kJ/mol
-83.57

Reaction: -2 quinoline + -1 zinc bromide + 1 zinc dibromide quinoline complex (1:2)
Property: Molar enthalpy of reaction, kJ/mol
-95.34
