Measured thermophysical data. Thermochemistry of ionic liquid heat-transfer fluids
Source: Thermochim. Acta, 2005, 10.1016/j.tca.2004.11.013
Compound 1: 1-butyl-3-methylimidazolium tetrafluoroborate, C8H15BF4N2, InChI=1S/C8H15N2.BF4/c1-3-4-5-10-7-6-9(2)8-10;2-1(3,4)5/h6-8H,3-5H2,1-2H3;/q+1;-1, purity 99%
Compound 2: 1-ethyl-3-methylimidazolium tetrafluoroborate, C6H11BF4N2, InChI=1S/C6H11N2.BF4/c1-3-8-5-4-7(2)6-8;2-1(3,4)5/h4-6H,3H2,1-2H3;/q+1;-1, purity 99%
Compound 3: 1,2-dimethyl-3-propylimidazolium bis[(trifluoromethyl)sulfonyl]imide, C10H15F6N3O4S2, InChI=1S/C8H15N2.C2F6NO4S2/c1-4-5-10-7-6-9(3)8(10)2;3-1(4,5)14(10,11)9-15(12,13)2(6,7)8/h6-7H,4-5H2,1-3H3;/q+1;-1, purity 99%

System: 1-butyl-3-methylimidazolium tetrafluoroborate; phases: Glass, Liquid, Air at 1 atmosphere
Property: Triple point temperature, K (Glass); method: DTA:corrimp:FP
Triple point temperature, K	uncertainty
185.77	2.65

System: 1-butyl-3-methylimidazolium tetrafluoroborate; phases: Liquid
Property: Mass density, kg/m3 (Liquid); method: Vibrating tube method
Temperature, K	Pressure, kPa	Mass density, kg/m3	uncertainty
333.1	101.325	1174.7	0.7

System: 1-butyl-3-methylimidazolium tetrafluoroborate; phases: Liquid
Fixed: Pressure, kPa = 101.325
Property: Molar heat capacity at constant pressure, J/K/mol (Liquid); method: Small sample (50 mg) DSC
Temperature, K	Molar heat capacity at constant pressure, J/K/mol	uncertainty
223.15	268.7411006392	107.5868493728
248.15	289.5351975768	115.9496927064
273.15	308.7471349648	123.6344676616
298.15	326.1508900104	130.6411742384
323.15	341.7464627136	136.743789644
348.15	355.7598758672	142.394359464
373.15	367.7390838856	147.1408381128
398.15	378.3621551472	151.435271176
423.15	386.9510212736	154.825613068
448.15	393.9577278504	157.7639093744
473.15	399.1562520848	159.7981145096
498.15	402.7726167696	161.1542512664
523.15	404.3547763192	161.8323196448
548.15	404.3547763192	161.8323196448
573.15	402.7726167696	161.1542512664

System: 1-butyl-3-methylimidazolium tetrafluoroborate; phases: Liquid
Fixed: Pressure, kPa = 101.325
Property: Thermal conductivity, W/m/K (Liquid); method: HOTW:elcondl
Temperature, K	Thermal conductivity, W/m/K	uncertainty
300	0.186	0.006
310	0.185	0.006
320	0.184	0.006
330	0.184	0.006
340	0.183	0.006
350	0.183	0.006
360	0.182	0.006
370	0.181	0.006
380	0.181	0.006
390	0.18	0.006

System: 1-butyl-3-methylimidazolium tetrafluoroborate; phases: Liquid
Property: Viscosity, Pa*s (Liquid); method: moving piston
Temperature, K	Pressure, kPa	Viscosity, Pa*s	uncertainty
298	101.325	0.11978	0.00406

System: 1-ethyl-3-methylimidazolium tetrafluoroborate; phases: Crystal, Liquid, Air at 1 atmosphere
Property: Molar enthalpy of transition or fusion, kJ/mol (Crystal); method: DSC
Molar enthalpy of transition or fusion, kJ/mol	uncertainty
9.54213630096	3.7614230232

System: 1-ethyl-3-methylimidazolium tetrafluoroborate; phases: Crystal, Liquid, Air at 1 atmosphere
Property: Normal melting temperature, K (Crystal); method: DTA:corrimp:FP
Normal melting temperature, K	uncertainty
287.57	1.07

System: 1-ethyl-3-methylimidazolium tetrafluoroborate; phases: Liquid
Property: Mass density, kg/m3 (Liquid); method: Vibrating tube method
Temperature, K	Pressure, kPa	Mass density, kg/m3	uncertainty
333.1	101.325	1252.6	0.8

System: 1-ethyl-3-methylimidazolium tetrafluoroborate; phases: Liquid
Fixed: Pressure, kPa = 101.325
Property: Molar heat capacity at constant pressure, J/K/mol (Liquid); method: Small sample (50 mg) DSC
Temperature, K	Molar heat capacity at constant pressure, J/K/mol	uncertainty
273.15	244.492496508	97.7969986032
293.15	250.0356462264	100.1726341968
313.15	253.9950388824	101.7563912592
333.15	256.7666137416	102.7462394232
353.15	258.1524011712	103.3401483216
373.15	257.9544315384	103.3401483216
393.15	256.5686441088	102.7462394232
403.15	255.1828566792	102.1523305248

System: 1-ethyl-3-methylimidazolium tetrafluoroborate; phases: Liquid
Fixed: Pressure, kPa = 101.325
Property: Thermal conductivity, W/m/K (Liquid); method: HOTW:elcondl
Temperature, K	Thermal conductivity, W/m/K	uncertainty
300	0.199	0.006
310	0.197	0.006
320	0.196	0.006
330	0.195	0.006
340	0.194	0.006
350	0.193	0.006
360	0.191	0.006
370	0.19	0.006
380	0.189	0.006
390	0.188	0.006

System: 1-ethyl-3-methylimidazolium tetrafluoroborate; phases: Liquid
Property: Viscosity, Pa*s (Liquid); method: moving piston
Temperature, K	Pressure, kPa	Viscosity, Pa*s	uncertainty
298	101.325	0.03607	0.00075

System: 1,2-dimethyl-3-propylimidazolium bis[(trifluoromethyl)sulfonyl]imide; phases: Crystal, Liquid, Air at 1 atmosphere
Property: Molar enthalpy of transition or fusion, kJ/mol (Crystal); method: DSC
Molar enthalpy of transition or fusion, kJ/mol	uncertainty
19.693443288832	7.9679604448

System: 1,2-dimethyl-3-propylimidazolium bis[(trifluoromethyl)sulfonyl]imide; phases: Crystal, Liquid, Air at 1 atmosphere
Property: Normal melting temperature, K (Crystal); method: DTA:corrimp:FP
Normal melting temperature, K	uncertainty
284.44	2.65

System: 1,2-dimethyl-3-propylimidazolium bis[(trifluoromethyl)sulfonyl]imide; phases: Liquid
Property: Mass density, kg/m3 (Liquid); method: Vibrating tube method
Temperature, K	Pressure, kPa	Mass density, kg/m3	uncertainty
333.1	101.325	1420.5	0.8

System: 1,2-dimethyl-3-propylimidazolium bis[(trifluoromethyl)sulfonyl]imide; phases: Liquid
Fixed: Pressure, kPa = 101.325
Property: Molar heat capacity at constant pressure, J/K/mol (Liquid); method: Small sample (50 mg) DSC
Temperature, K	Molar heat capacity at constant pressure, J/K/mol	uncertainty
323.15	473.4645969568	189.5535853184
348.15	487.7230524896	195.005347728
373.15	501.9815080224	200.8764764768
398.15	515.4012308768	206.3282388864
423.15	528.401587392	211.3606349568
448.15	540.982577568	216.3930310272
473.15	553.1442014048	221.4254270976
498.15	564.4670925632	226.0384568288
523.15	575.7899837216	230.65148656
548.15	586.6935085408	234.845149952
573.15	597.1776670208	239.038813344
598.15	607.2424591616	243.232476736
623.15	616.8878849632	247.0067737888
663.15	631.146340496	252.4585361984

System: 1,2-dimethyl-3-propylimidazolium bis[(trifluoromethyl)sulfonyl]imide; phases: Liquid
Fixed: Pressure, kPa = 101.325
Property: Thermal conductivity, W/m/K (Liquid); method: HOTW:elcondl
Temperature, K	Thermal conductivity, W/m/K	uncertainty
300	0.13	0.005
310	0.13	0.005
320	0.129	0.005
330	0.129	0.005
340	0.128	0.005
350	0.128	0.005
360	0.127	0.005
370	0.127	0.005
380	0.126	0.005
390	0.126	0.005

System: 1,2-dimethyl-3-propylimidazolium bis[(trifluoromethyl)sulfonyl]imide; phases: Liquid
Property: Viscosity, Pa*s (Liquid); method: moving piston
Temperature, K	Pressure, kPa	Viscosity, Pa*s	uncertainty
298	101.325	0.09005	0.00269
