Measured thermophysical data. PHYSICAL AND EXCESS PROPERTIES OF BINARY AND TERNARY MIXTURES OF 1,1-DIMETHYLETHOXY-BUTANE, METHANOL, ETHANOL AND WATER AT 298.15K.
Source: Thermochim. Acta, 2005, 10.1016/j.tca.2005.04.030
Compound 1: water, H2O, InChI=1S/H2O/h1H2, purity 99.99%
Compound 2: methanol, CH4O, InChI=1S/CH4O/c1-2/h2H,1H3, purity 99.5%
Compound 3: ethanol, C2H6O, InChI=1S/C2H6O/c1-2-3/h3H,2H2,1H3, purity 99.5%
Compound 4: butane, 1-(1,1-dimethylethoxy)-, C8H18O, InChI=1S/C8H18O/c1-5-6-7-9-8(2,3)4/h5-7H2,1-4H3, purity 99.9%

System: water; phases: Liquid
Property: Refractive index (Na D-line) (Liquid); method: ATAGO RX-1000
Temperature, K	Pressure, kPa	Refractive index (Na D-line)	uncertainty
298.1	101.325	1.3325	8e-05

System: water; phases: Liquid
Property: Mass density, kg/m3 (Liquid); method: Vibrating tube method
Temperature, K	Pressure, kPa	Mass density, kg/m3	uncertainty
298.1	101.325	997.04	0.05

System: water; phases: Liquid
Property: Speed of sound, m/s (Liquid); method: Anton Paar DSA 48
Temperature, K	Pressure, kPa	Speed of sound, m/s	uncertainty
298.15	101.325	1497	2

System: methanol; phases: Liquid
Property: Refractive index (Na D-line) (Liquid); method: ATAGO RX-1000
Temperature, K	Pressure, kPa	Refractive index (Na D-line)	uncertainty
298.1	101.325	1.3264	0.0002

System: methanol; phases: Liquid
Property: Mass density, kg/m3 (Liquid); method: Vibrating tube method
Temperature, K	Pressure, kPa	Mass density, kg/m3	uncertainty
298.1	101.325	786.63	0.25

System: methanol; phases: Liquid
Property: Speed of sound, m/s (Liquid); method: Anton Paar DSA 48
Temperature, K	Pressure, kPa	Speed of sound, m/s	uncertainty
298.15	101.325	1101	2

System: ethanol; phases: Liquid
Property: Refractive index (Na D-line) (Liquid); method: ATAGO RX-1000
Temperature, K	Pressure, kPa	Refractive index (Na D-line)	uncertainty
298.1	101.325	1.3592	0.00011

System: ethanol; phases: Liquid
Property: Mass density, kg/m3 (Liquid); method: Vibrating tube method
Temperature, K	Pressure, kPa	Mass density, kg/m3	uncertainty
298.1	101.325	785.22	0.25

System: ethanol; phases: Liquid
Property: Speed of sound, m/s (Liquid); method: Anton Paar DSA 48
Temperature, K	Pressure, kPa	Speed of sound, m/s	uncertainty
298.15	101.325	1143	2

System: butane, 1-(1,1-dimethylethoxy)-; phases: Liquid
Property: Refractive index (Na D-line) (Liquid); method: Anton Paar DSA 48
Temperature, K	Pressure, kPa	Refractive index (Na D-line)	uncertainty
298.1	101.325	1.3917	5e-05

System: butane, 1-(1,1-dimethylethoxy)-; phases: Liquid
Property: Mass density, kg/m3 (Liquid); method: Vibrating tube method
Temperature, K	Pressure, kPa	Mass density, kg/m3	uncertainty
298.1	101.325	757.57	0.17

System: butane, 1-(1,1-dimethylethoxy)-; phases: Liquid
Property: Speed of sound, m/s (Liquid); method: Anton Paar DSA 48
Temperature, K	Pressure, kPa	Speed of sound, m/s	uncertainty
298.15	101.325	1113	2

System: methanol + butane, 1-(1,1-dimethylethoxy)-; phases: Liquid
Fixed: Temperature, K = 298
Fixed: Pressure, kPa = 101
Property: Refractive index (Na D-line) (Liquid); method: ATAGO RX-1000
Mole fraction of butane, 1-(1,1-dimethylethoxy)-	Refractive index (Na D-line)	uncertainty
0.0406	1.33673	0.00011
0.0518	1.33916	0.00011
0.0974	1.34774	0.0001
0.0984	1.34786	0.0001
0.1493	1.35545	0.0001
0.198	1.36125	0.0001
0.2051	1.36198	0.0001
0.2448	1.3658	9e-05
0.2974	1.37001	9e-05
0.3373	1.37281	9e-05
0.3581	1.37411	8e-05
0.3783	1.37529	8e-05
0.3922	1.37605	8e-05
0.4633	1.37952	8e-05
0.4954	1.38087	7e-05
0.5003	1.38106	7e-05
0.5598	1.38325	7e-05
0.5955	1.3845	7e-05
0.6138	1.38496	7e-05
0.6463	1.38588	6e-05
0.6737	1.3866	6e-05
0.6923	1.38706	6e-05
0.721	1.38773	6e-05
0.7904	1.38914	6e-05
0.7934	1.38918	6e-05
0.8479	1.3901	5e-05
0.8631	1.39032	5e-05
0.8964	1.3907	5e-05
0.9255	1.39109	5e-05

System: methanol + butane, 1-(1,1-dimethylethoxy)-; phases: Liquid
Fixed: Temperature, K = 298
Fixed: Pressure, kPa = 101
Property: Speed of sound, m/s (Liquid); method: Anton Paar DSA 48
Mole fraction of butane, 1-(1,1-dimethylethoxy)-	Speed of sound, m/s	uncertainty
0.0406	1103	1
0.0518	1104	1
0.0974	1103	1
0.0984	1104	1
0.1493	1105	1
0.198	1107	1
0.2051	1107	1
0.2448	1108	1
0.2974	1109	1
0.3373	1109	1
0.3581	1109	1
0.3783	1109	1
0.3922	1111	1
0.4633	1111	1
0.4954	1113	1
0.5003	1111	1
0.5598	1112	1
0.5955	1114	1
0.6138	1113	1
0.6463	1113	1
0.6737	1114	1
0.6923	1114	1
0.721	1114	1
0.7904	1114	1
0.7934	1114	1
0.8479	1114	1
0.8631	1114	1
0.8964	1115	1
0.9255	1114	1

System: methanol + butane, 1-(1,1-dimethylethoxy)-; phases: Liquid
Fixed: Temperature, K = 298
Fixed: Pressure, kPa = 101
Property: Mass density, kg/m3 (Liquid); method: Vibrating tube method
Mole fraction of butane, 1-(1,1-dimethylethoxy)-	Mass density, kg/m3	uncertainty
0.0406	783.42	0.22
0.0518	782.76	0.22
0.0974	780.08	0.22
0.0984	779.91	0.22
0.1493	777.55	0.21
0.198	775.42	0.21
0.2051	775.26	0.21
0.2448	773.83	0.2
0.2974	772.2	0.2
0.3373	770.98	0.19
0.3581	770.41	0.19
0.3783	769.88	0.19
0.3922	769.7	0.19
0.4633	767.85	0.18
0.4954	767.15	0.18
0.5003	767.05	0.18
0.5598	765.86	0.17
0.5955	765.21	0.16
0.6138	764.85	0.16
0.6463	764.27	0.16
0.6737	763.79	0.16
0.6923	763.48	0.15
0.721	762.99	0.15
0.7904	761.8	0.14
0.7934	761.75	0.14
0.8479	760.78	0.14
0.8631	760.5	0.14
0.8964	759.86	0.14
0.9255	759.26	0.14

System: ethanol + butane, 1-(1,1-dimethylethoxy)-; phases: Liquid
Fixed: Temperature, K = 298
Fixed: Pressure, kPa = 101
Property: Refractive index (Na D-line) (Liquid); method: ATAGO RX-1000
Mole fraction of butane, 1-(1,1-dimethylethoxy)-	Refractive index (Na D-line)	uncertainty
0.0493	1.36389	0.0001
0.0589	1.36463	0.0001
0.0797	1.36652	0.0001
0.1006	1.36783	0.0001
0.1555	1.37143	0.0001
0.1947	1.37365	9e-05
0.1978	1.37382	9e-05
0.2528	1.3765	9e-05
0.2923	1.37818	9e-05
0.2967	1.37834	9e-05
0.3512	1.38037	8e-05
0.3966	1.38183	8e-05
0.397	1.38186	8e-05
0.4313	1.38287	8e-05
0.4999	1.38462	7e-05
0.5118	1.38494	7e-05
0.559	1.38599	7e-05
0.5953	1.38674	7e-05
0.5964	1.38674	7e-05
0.6627	1.38795	6e-05
0.6853	1.38828	6e-05
0.7044	1.38862	6e-05
0.7441	1.3892	6e-05
0.7814	1.3897	6e-05
0.7853	1.38986	6e-05
0.8493	1.3905	5e-05
0.9072	1.39106	5e-05
0.9404	1.39132	5e-05

System: ethanol + butane, 1-(1,1-dimethylethoxy)-; phases: Liquid
Fixed: Temperature, K = 298
Fixed: Pressure, kPa = 101
Property: Speed of sound, m/s (Liquid); method: Anton Paar DSA 48
Mole fraction of butane, 1-(1,1-dimethylethoxy)-	Speed of sound, m/s	uncertainty
0.0493	1141	1
0.0589	1139	1
0.0797	1139	1
0.1006	1136	1
0.1555	1133	1
0.1947	1132	1
0.1978	1132	1
0.2528	1129	1
0.2923	1127	1
0.2967	1128	1
0.3512	1125	1
0.3966	1124	1
0.397	1124	1
0.4313	1123	1
0.4999	1122	1
0.5118	1121	1
0.559	1120	1
0.5953	1119	1
0.5964	1119	1
0.6627	1118	1
0.6853	1120	1
0.7044	1118	1
0.7441	1117	1
0.7814	1117	1
0.7853	1118	1
0.8493	1116	1
0.9072	1115	1
0.9404	1115	1

System: ethanol + butane, 1-(1,1-dimethylethoxy)-; phases: Liquid
Fixed: Temperature, K = 298
Fixed: Pressure, kPa = 101
Property: Mass density, kg/m3 (Liquid); method: Vibrating tube method
Mole fraction of butane, 1-(1,1-dimethylethoxy)-	Mass density, kg/m3	uncertainty
0.0493	782.41	0.22
0.0589	781.92	0.22
0.0797	780.9	0.22
0.1006	779.92	0.22
0.1555	777.57	0.21
0.1947	776.05	0.21
0.1978	775.98	0.21
0.2528	773.99	0.2
0.2923	772.71	0.2
0.2967	772.6	0.2
0.3512	770.96	0.19
0.3966	769.83	0.19
0.397	769.71	0.19
0.4313	768.83	0.18
0.4999	767.3	0.18
0.5118	766.95	0.17
0.559	765.94	0.17
0.5953	765.3	0.18
0.5964	765.18	0.17
0.6627	763.92	0.16
0.6853	763.6	0.15
0.7044	763.16	0.15
0.7441	762.45	0.15
0.7814	761.8	0.15
0.7853	761.72	0.15
0.8493	760.58	0.14
0.9072	759.5	0.14
0.9404	758.85	0.14

System: ethanol + butane, 1-(1,1-dimethylethoxy)- + water; phases: Liquid
Fixed: Temperature, K = 298
Fixed: Pressure, kPa = 101
Property: Refractive index (Na D-line) (Liquid); method: ATAGO RX-1000
Mole fraction of butane, 1-(1,1-dimethylethoxy)-	Mole fraction of ethanol	Refractive index (Na D-line)	uncertainty
0.02	0.3861	1.3649	6e-05
0.0256	0.4929	1.36616	7e-05
0.035	0.6743	1.36654	8e-05
0.039	0.752	1.36617	9e-05
0.0393	0.4538	1.36773	6e-05
0.0434	0.8371	1.36543	9e-05
0.0493	0.9507	1.36389	0.0001
0.0504	0.5815	1.36858	7e-05
0.0556	0.6415	1.36865	8e-05
0.0589	0.9411	1.36463	0.0001
0.0632	0.7297	1.3684	9e-05
0.0691	0.7983	1.36794	9e-05
0.0797	0.9203	1.36652	0.0001
0.1006	0.8994	1.36783	0.0001
0.1126	0.4568	1.37396	6e-05
0.1302	0.5278	1.37468	7e-05
0.1466	0.5946	1.37496	8e-05
0.1555	0.8445	1.37143	0.0001
0.1683	0.6827	1.37482	8e-05
0.1884	0.7639	1.37424	9e-05
0.1947	0.8053	1.37365	9e-05
0.1966	0.4659	1.37849	7e-05
0.1978	0.8022	1.37382	9e-05
0.2346	0.5561	1.37906	7e-05
0.2488	0.5898	1.3791	8e-05
0.2528	0.7472	1.3765	9e-05
0.2773	0.6574	1.37876	8e-05
0.2904	0.4418	1.38188	7e-05
0.2923	0.7077	1.37818	9e-05
0.2967	0.7033	1.37834	9e-05
0.3063	0.466	1.3821	7e-05
0.3311	0.5037	1.38225	7e-05
0.35	0.5325	1.38224	7e-05
0.3512	0.6488	1.38037	8e-05
0.367	0.5584	1.38215	8e-05
0.3966	0.6034	1.38183	8e-05
0.397	0.603	1.38186	8e-05
0.3987	0.3989	1.38468	6e-05
0.4313	0.5687	1.38287	8e-05
0.4339	0.434	1.3849	7e-05
0.4662	0.4664	1.38488	7e-05
0.4999	0.5001	1.38462	7e-05
0.5118	0.4882	1.38494	7e-05
0.5169	0.3514	1.38685	6e-05
0.538	0.3657	1.3869	6e-05
0.559	0.441	1.38599	7e-05
0.5786	0.3933	1.38682	7e-05
0.5953	0.4047	1.38674	7e-05
0.5964	0.4036	1.38674	7e-05
0.6221	0.2857	1.38843	6e-05
0.6627	0.3373	1.38795	6e-05
0.6643	0.3051	1.38841	6e-05
0.6853	0.3147	1.38828	6e-05
0.7044	0.2956	1.38862	6e-05
0.7432	0.2032	1.38995	6e-05
0.7441	0.2559	1.3892	6e-05
0.7644	0.209	1.38991	6e-05
0.7814	0.2186	1.3897	6e-05
0.7853	0.2147	1.38986	6e-05
0.8493	0.1507	1.3905	5e-05
0.9072	0.0928	1.39106	5e-05
0.9404	0.0596	1.39132	5e-05

System: ethanol + butane, 1-(1,1-dimethylethoxy)- + water; phases: Liquid
Fixed: Temperature, K = 298
Fixed: Pressure, kPa = 101
Property: Speed of sound, m/s (Liquid); method: Anton Paar DSA 48
Mole fraction of butane, 1-(1,1-dimethylethoxy)-	Mole fraction of ethanol	Speed of sound, m/s	uncertainty
0.02	0.3861	1352	1
0.0256	0.4929	1302	1
0.035	0.6743	1234	1
0.039	0.752	1208	1
0.0393	0.4538	1294	1
0.0434	0.8371	1180	1
0.0493	0.9507	1141	1
0.0504	0.5815	1248	1
0.0556	0.6415	1229	1
0.0589	0.9411	1139	1
0.0632	0.7297	1201	1
0.0691	0.7983	1179	1
0.0797	0.9203	1139	1
0.1006	0.8994	1136	1
0.1126	0.4568	1208	1
0.1302	0.5278	1193	1
0.1466	0.5946	1179	1
0.1555	0.8445	1133	1
0.1683	0.6827	1159	1
0.1884	0.7639	1141	1
0.1947	0.8053	1132	1
0.1966	0.4659	1175	1
0.1978	0.8022	1132	1
0.2346	0.5561	1160	1
0.2488	0.5898	1153	1
0.2528	0.7472	1129	1
0.2773	0.6574	1139	1
0.2904	0.4418	1156	1
0.2923	0.7077	1127	1
0.2967	0.7033	1128	1
0.3063	0.466	1153	1
0.3311	0.5037	1146	1
0.35	0.5325	1141	1
0.3512	0.6488	1125	1
0.367	0.5584	1135	1
0.3966	0.6034	1124	1
0.397	0.603	1124	1
0.3987	0.3989	1142	1
0.4313	0.5687	1123	1
0.4339	0.434	1137	1
0.4662	0.4664	1130	1
0.4999	0.5001	1122	1
0.5118	0.4882	1121	1
0.5169	0.3514	1133	1
0.538	0.3657	1131	1
0.559	0.441	1120	1
0.5786	0.3933	1123	1
0.5953	0.4047	1119	1
0.5964	0.4036	1119	1
0.6221	0.2857	1127	1
0.6627	0.3373	1118	1
0.6643	0.3051	1122	1
0.6853	0.3147	1120	1
0.7044	0.2956	1118	1
0.7432	0.2032	1122	1
0.7441	0.2559	1117	1
0.7644	0.209	1120	1
0.7814	0.2186	1117	1
0.7853	0.2147	1118	1
0.8493	0.1507	1116	1
0.9072	0.0928	1115	1
0.9404	0.0596	1115	1

System: ethanol + butane, 1-(1,1-dimethylethoxy)- + water; phases: Liquid
Fixed: Temperature, K = 298
Fixed: Pressure, kPa = 101
Property: Mass density, kg/m3 (Liquid); method: Vibrating tube method
Mole fraction of butane, 1-(1,1-dimethylethoxy)-	Mole fraction of ethanol	Mass density, kg/m3	uncertainty
0.02	0.3861	870.02	0.16
0.0256	0.4929	847.87	0.15
0.035	0.6743	818.09	0.18
0.039	0.752	807.27	0.19
0.0393	0.4538	848.08	0.15
0.0434	0.8371	796.25	0.2
0.0493	0.9507	782.41	0.22
0.0504	0.5815	825.62	0.17
0.0556	0.6415	816.54	0.18
0.0589	0.9411	781.92	0.22
0.0632	0.7297	804.36	0.19
0.0691	0.7983	795.57	0.2
0.0797	0.9203	780.9	0.22
0.1006	0.8994	779.92	0.22
0.1126	0.4568	822.06	0.16
0.1302	0.5278	810.74	0.16
0.1466	0.5946	801.27	0.17
0.1555	0.8445	777.57	0.21
0.1683	0.6827	789.97	0.19
0.1884	0.7639	780.35	0.2
0.1947	0.8053	776.05	0.21
0.1966	0.4659	802.52	0.16
0.1978	0.8022	775.98	0.21
0.2346	0.5561	790.2	0.17
0.2488	0.5898	786.03	0.18
0.2528	0.7472	773.99	0.2
0.2773	0.6574	777.88	0.19
0.2904	0.4418	790.19	0.16
0.2923	0.7077	772.71	0.2
0.2967	0.7033	772.6	0.2
0.3063	0.466	786.89	0.16
0.3311	0.5037	781.96	0.17
0.35	0.5325	778.33	0.18
0.3512	0.6488	770.96	0.19
0.367	0.5584	775.16	0.18
0.3966	0.6034	769.83	0.19
0.397	0.603	769.71	0.19
0.3987	0.3989	780.6	0.16
0.4313	0.5687	768.83	0.18
0.4339	0.434	775.9	0.16
0.4662	0.4664	771.7	0.17
0.4999	0.5001	767.3	0.18
0.5118	0.4882	766.95	0.17
0.5169	0.3514	773.08	0.15
0.538	0.3657	770.99	0.16
0.559	0.441	765.94	0.17
0.5786	0.3933	766.97	0.16
0.5953	0.4047	765.3	0.18
0.5964	0.4036	765.18	0.17
0.6221	0.2857	768.62	0.15
0.6627	0.3373	763.92	0.16
0.6643	0.3051	765.29	0.15
0.6853	0.3147	763.6	0.15
0.7044	0.2956	763.16	0.15
0.7432	0.2032	764.48	0.14
0.7441	0.2559	762.45	0.15
0.7644	0.209	763.11	0.14
0.7814	0.2186	761.8	0.15
0.7853	0.2147	761.72	0.15
0.8493	0.1507	760.58	0.14
0.9072	0.0928	759.5	0.14
0.9404	0.0596	758.85	0.14

System: methanol + butane, 1-(1,1-dimethylethoxy)- + water; phases: Liquid
Fixed: Temperature, K = 298
Fixed: Pressure, kPa = 101
Property: Refractive index (Na D-line) (Liquid); method: ATAGO RX-1000
Mole fraction of butane, 1-(1,1-dimethylethoxy)-	Mole fraction of methanol	Refractive index (Na D-line)	uncertainty
0.0261	0.6164	1.34485	8e-05
0.0287	0.6785	1.34372	8e-05
0.0321	0.7597	1.34196	9e-05
0.0348	0.8225	1.34043	9e-05
0.0368	0.8706	1.33918	0.0001
0.0382	0.9037	1.33829	0.0001
0.0406	0.9594	1.33673	0.00011
0.0518	0.9482	1.33916	0.00011
0.0679	0.6218	1.35294	8e-05
0.071	0.6508	1.35258	8e-05
0.0769	0.7049	1.35178	8e-05
0.0815	0.747	1.35106	9e-05
0.0866	0.7932	1.35019	9e-05
0.0919	0.842	1.34919	0.0001
0.0974	0.9026	1.34774	0.0001
0.0984	0.9016	1.34786	0.0001
0.1493	0.8507	1.35545	0.0001
0.1572	0.6367	1.36336	8e-05
0.1674	0.6782	1.36296	8e-05
0.178	0.7211	1.36242	9e-05
0.1856	0.7517	1.36199	9e-05
0.198	0.802	1.36125	0.0001
0.2051	0.7949	1.36198	0.0001
0.2448	0.7552	1.3658	9e-05
0.2558	0.6044	1.37088	8e-05
0.2654	0.6269	1.37073	8e-05
0.2731	0.6452	1.37059	8e-05
0.2794	0.6602	1.37045	9e-05
0.2974	0.7026	1.37001	9e-05
0.3373	0.6627	1.37281	9e-05
0.3554	0.5507	1.37643	8e-05
0.3581	0.6419	1.37411	8e-05
0.3628	0.5622	1.37638	8e-05
0.3753	0.5816	1.37626	8e-05
0.3783	0.6217	1.37529	8e-05
0.3922	0.6078	1.37605	8e-05
0.4633	0.5367	1.37952	8e-05
0.4639	0.4725	1.38111	7e-05
0.4834	0.4923	1.38097	7e-05
0.4954	0.5046	1.38087	7e-05
0.5003	0.4997	1.38106	7e-05
0.5511	0.3744	1.38461	6e-05
0.5598	0.4402	1.38325	7e-05
0.5765	0.3916	1.38453	7e-05
0.5955	0.4045	1.3845	7e-05
0.6138	0.3862	1.38496	7e-05
0.6463	0.3537	1.38588	6e-05
0.6642	0.2952	1.38716	6e-05
0.6737	0.3263	1.3866	6e-05
0.6763	0.3006	1.38712	6e-05
0.6923	0.3077	1.38706	6e-05
0.721	0.279	1.38773	6e-05
0.7641	0.199	1.38918	6e-05
0.7758	0.202	1.38918	6e-05
0.7904	0.2096	1.38914	6e-05
0.7934	0.2066	1.38918	6e-05
0.8479	0.1521	1.3901	5e-05
0.8631	0.1369	1.39032	5e-05
0.8742	0.101	1.3907	5e-05
0.8964	0.1036	1.3907	5e-05
0.9255	0.0745	1.39109	5e-05

System: methanol + butane, 1-(1,1-dimethylethoxy)- + water; phases: Liquid
Fixed: Temperature, K = 298
Fixed: Pressure, kPa = 101
Property: Speed of sound, m/s (Liquid); method: Anton Paar DSA 48
Mole fraction of butane, 1-(1,1-dimethylethoxy)-	Mole fraction of methanol	Speed of sound, m/s	uncertainty
0.0261	0.6164	1279	1
0.0287	0.6785	1245	1
0.0321	0.7597	1201	1
0.0348	0.8225	1168	1
0.0368	0.8706	1144	1
0.0382	0.9037	1128	1
0.0406	0.9594	1103	1
0.0518	0.9482	1104	1
0.0679	0.6218	1226	1
0.071	0.6508	1214	1
0.0769	0.7049	1190	1
0.0815	0.747	1171	1
0.0866	0.7932	1150	1
0.0919	0.842	1129	1
0.0974	0.9026	1103	1
0.0984	0.9016	1104	1
0.1493	0.8507	1105	1
0.1572	0.6367	1166	1
0.1674	0.6782	1151	1
0.178	0.7211	1136	1
0.1856	0.7517	1125	1
0.198	0.802	1107	1
0.2051	0.7949	1107	1
0.2448	0.7552	1108	1
0.2558	0.6044	1140	1
0.2654	0.6269	1133	1
0.2731	0.6452	1128	1
0.2794	0.6602	1123	1
0.2974	0.7026	1109	1
0.3373	0.6627	1109	1
0.3554	0.5507	1128	1
0.3581	0.6419	1109	1
0.3628	0.5622	1125	1
0.3753	0.5816	1119	1
0.3783	0.6217	1109	1
0.3922	0.6078	1111	1
0.4633	0.5367	1111	1
0.4639	0.4725	1122	1
0.4834	0.4923	1116	1
0.4954	0.5046	1113	1
0.5003	0.4997	1111	1
0.5511	0.3744	1122	1
0.5598	0.4402	1112	1
0.5765	0.3916	1117	1
0.5955	0.4045	1114	1
0.6138	0.3862	1113	1
0.6463	0.3537	1113	1
0.6642	0.2952	1119	1
0.6737	0.3263	1114	1
0.6763	0.3006	1117	1
0.6923	0.3077	1114	1
0.721	0.279	1114	1
0.7641	0.199	1118	1
0.7758	0.202	1117	1
0.7904	0.2096	1114	1
0.7934	0.2066	1114	1
0.8479	0.1521	1114	1
0.8631	0.1369	1114	1
0.8742	0.101	1116	1
0.8964	0.1036	1115	1
0.9255	0.0745	1114	1

System: methanol + butane, 1-(1,1-dimethylethoxy)- + water; phases: Liquid
Fixed: Temperature, K = 298
Fixed: Pressure, kPa = 101
Property: Mass density, kg/m3 (Liquid); method: Vibrating tube method
Mole fraction of butane, 1-(1,1-dimethylethoxy)-	Mole fraction of methanol	Mass density, kg/m3	uncertainty
0.0261	0.6164	843.98	0.18
0.0287	0.6785	832.08	0.18
0.0321	0.7597	817.18	0.19
0.0348	0.8225	806.15	0.2
0.0368	0.8706	797.96	0.21
0.0382	0.9037	792.47	0.22
0.0406	0.9594	783.42	0.22
0.0518	0.9482	782.76	0.22
0.0679	0.6218	825.73	0.18
0.071	0.6508	820.56	0.18
0.0769	0.7049	811.21	0.19
0.0815	0.747	804.2	0.19
0.0866	0.7932	796.7	0.2
0.0919	0.842	789.02	0.21
0.0974	0.9026	780.08	0.22
0.0984	0.9016	779.91	0.22
0.1493	0.8507	777.55	0.21
0.1572	0.6367	799.27	0.19
0.1674	0.6782	793	0.19
0.178	0.7211	786.69	0.2
0.1856	0.7517	782.31	0.2
0.198	0.802	775.42	0.21
0.2051	0.7949	775.26	0.21
0.2448	0.7552	773.83	0.2
0.2558	0.6044	785.38	0.18
0.2654	0.6269	782.22	0.18
0.2731	0.6452	779.71	0.2
0.2794	0.6602	777.71	0.19
0.2974	0.7026	772.2	0.2
0.3373	0.6627	770.98	0.19
0.3554	0.5507	777.28	0.18
0.3581	0.6419	770.41	0.19
0.3628	0.5622	775.71	0.18
0.3753	0.5816	773.12	0.18
0.3783	0.6217	769.88	0.19
0.3922	0.6078	769.7	0.19
0.4633	0.5367	767.85	0.18
0.4639	0.4725	771.74	0.17
0.4834	0.4923	769.08	0.18
0.4954	0.5046	767.15	0.18
0.5003	0.4997	767.05	0.18
0.5511	0.3744	769.97	0.16
0.5598	0.4402	765.86	0.17
0.5765	0.3916	767.39	0.16
0.5955	0.4045	765.21	0.16
0.6138	0.3862	764.85	0.16
0.6463	0.3537	764.27	0.16
0.6642	0.2952	765.97	0.15
0.6737	0.3263	763.79	0.16
0.6763	0.3006	765.04	0.15
0.6923	0.3077	763.48	0.15
0.721	0.279	762.99	0.15
0.7641	0.199	763.85	0.14
0.7758	0.202	763.16	0.14
0.7904	0.2096	761.8	0.14
0.7934	0.2066	761.75	0.14
0.8479	0.1521	760.78	0.14
0.8631	0.1369	760.5	0.14
0.8742	0.101	761	0.14
0.8964	0.1036	759.86	0.14
0.9255	0.0745	759.26	0.14
