Measured thermophysical data. Thermodynamics of the NaCl-KCl system
Source: Thermochim. Acta, 2015, 10.1016/j.tca.2015.03.003
Compound 1: sodium chloride, ClNa, InChI=1S/ClH.Na/h1H;/q;+1/p-1, purity 99.99%
Compound 2: potassium chloride, ClK, InChI=1S/ClH.K/h1H;/q;+1/p-1, purity 99.99%

System: sodium chloride; phases: Crystal, Liquid, Air at 1 atmosphere
Property: Normal melting temperature, K (Crystal); method: DTA
Normal melting temperature, K	uncertainty
1074.15	4

System: potassium chloride; phases: Crystal, Liquid, Air at 1 atmosphere
Property: Normal melting temperature, K (Crystal); method: DTA
Normal melting temperature, K	uncertainty
1044.15	4

System: potassium chloride + sodium chloride; phases: Crystal
Fixed: Pressure, kPa = 100
Property: Molar heat capacity at constant pressure, J/K/mol (Crystal); method: Small sample (50 mg) DSC
Mole fraction of potassium chloride	Temperature, K	Molar heat capacity at constant pressure, J/K/mol	uncertainty
0.5	757	57.77	13.31
0.5	800	59.38	13.68
0.5	850	61.26	14.12
0.5	900	63.13	14.55
0.5	930	64.25	14.81
0.8	635	52.52	12.1
0.8	650	52.97	12.21
0.8	700	54.47	12.56
0.8	750	55.97	12.92
0.8	800	57.47	13.29
0.8	850	58.97	13.67
0.8	900	60.47	14.06
0.75	683	55.25	12.74
0.75	700	56.4	13
0.75	750	59.8	13.78
0.75	800	63.2	14.57
0.75	850	66.6	15.35
0.75	900	70	16.13
0.7	687	53.53	12.34
0.7	700	54.17	12.49
0.7	750	56.62	13.05
0.7	800	59.07	13.61
0.7	850	61.52	14.18
0.7	900	63.97	14.75
0.6	733	56.77	13.08
0.6	750	57.39	13.23
0.6	800	59.19	13.64
0.6	850	60.99	14.05
0.6	900	62.79	14.47
0.4	769	56.84	13.1
0.4	800	58.24	13.44
0.4	850	60.49	13.94
0.4	900	62.74	14.46
0.3	771	57.44	13.24
0.3	800	58.49	13.48
0.3	850	60.29	13.89
0.3	900	62.09	14.31
0.2	753	59.47	13.71
0.2	800	61.35	14.14
0.2	850	63.35	14.6
0.2	900	65.35	15.06
0.1	739	55.59	12.82
0.1	750	55.9	12.89
0.1	800	57.3	13.21
0.1	850	58.7	13.53
0.1	900	60.1	13.86

System: potassium chloride + sodium chloride; phases: Crystal of unknown type
Fixed: Pressure, kPa = 100
Property: Molar heat capacity at constant pressure, J/K/mol (Crystal of unknown type); method: Small sample (50 mg) DSC
Mole fraction of potassium chloride	Temperature, K	Molar heat capacity at constant pressure, J/K/mol	uncertainty
0.5	298.15	51.13	3.16
0.5	300	51.16	3.16
0.5	350	51.77	3.19
0.5	400	52.39	3.23
0.5	450	53.01	3.27
0.5	470	53.25	3.28
0.5	500	53.63	3.31
0.5	550	54.24	3.34
0.5	600	54.86	3.38
0.5	650	55.48	12.78
0.5	700	56.1	12.93
0.5	750	56.71	13.07
0.5	757	56.8	13.09
0.8	298.15	50.46	3.11
0.8	300	50.47	3.11
0.8	350	50.87	3.14
0.8	400	51.27	3.16
0.8	450	51.67	3.19
0.8	470	51.83	3.2
0.8	500	52.07	3.21
0.8	550	52.47	3.24
0.8	600	52.87	3.26
0.8	635	53.15	12.25
0.75	298.15	50.05	3.09
0.75	300	50.07	3.09
0.75	350	50.42	3.11
0.75	400	50.77	3.13
0.75	450	51.12	3.15
0.75	470	51.26	3.16
0.75	500	51.47	3.18
0.75	550	51.82	3.2
0.75	600	52.17	3.22
0.75	650	52.52	12.12
0.75	683	52.75	12.18
0.7	298.15	50.73	3.13
0.7	300	50.76	3.13
0.7	350	51.51	3.18
0.7	400	52.26	3.22
0.7	450	53.01	3.27
0.7	470	53.31	3.29
0.7	500	53.76	3.31
0.7	550	54.51	3.36
0.7	600	55.26	3.41
0.7	650	56.01	12.91
0.7	687	56.56	13.06
0.6	298.15	48.93	3.02
0.6	300	48.96	3.02
0.6	350	49.81	3.07
0.6	400	50.66	3.12
0.6	450	51.51	3.18
0.6	470	51.85	3.2
0.6	500	52.36	3.23
0.6	550	53.21	3.28
0.6	600	54.06	3.33
0.6	650	54.91	12.65
0.6	700	55.76	12.85
0.6	733	56.32	12.98
0.4	298.15	50.77	3.13
0.4	300	50.8	3.13
0.4	350	51.4	3.17
0.4	400	52	3.21
0.4	450	52.6	3.24
0.4	470	52.84	3.26
0.4	500	53.2	3.28
0.4	550	53.8	3.32
0.4	600	54.4	3.35
0.4	650	55	12.67
0.4	700	55.6	12.81
0.4	750	56.2	12.95
0.4	769	56.42	13
0.3	298.15	49.46	3.05
0.3	300	49.49	3.05
0.3	350	50.24	3.1
0.3	400	50.99	3.14
0.3	450	51.74	3.19
0.3	470	52.04	3.21
0.3	500	52.49	3.25
0.3	550	53.24	3.28
0.3	600	53.99	3.33
0.3	650	54.74	12.61
0.3	700	55.49	12.79
0.3	750	56.24	12.96
0.3	771	56.56	13.03
0.2	298.15	51.33	3.18
0.2	300	51.36	3.17
0.2	350	52.11	3.21
0.2	400	52.86	3.26
0.2	450	53.61	3.31
0.2	470	53.91	3.32
0.2	500	54.36	3.35
0.2	550	55.11	3.4
0.2	600	55.86	3.44
0.2	650	56.61	13.05
0.2	700	57.36	13.22
0.2	750	58.11	13.39
0.2	753	58.15	13.4
0.1	298.15	48.78	3.02
0.1	300	48.81	3.02
0.1	350	49.61	3.07
0.1	400	50.41	3.12
0.1	450	51.21	3.17
0.1	470	51.53	3.19
0.1	500	52.01	3.22
0.1	550	52.81	3.26
0.1	600	53.61	3.31
0.1	650	54.41	12.54
0.1	700	55.21	12.72
0.1	739	55.83	12.87

System: potassium chloride + sodium chloride; phases: Liquid
Fixed: Mole fraction of potassium chloride = 0.5
Fixed: Pressure, kPa = 100
Property: Molar heat capacity at constant pressure, J/K/mol (Liquid); method: Small sample (50 mg) DSC
Temperature, K	Molar heat capacity at constant pressure, J/K/mol	uncertainty
930	81.03	18.67
950	82.5	19.01
1000	86.19	19.86
1050	89.88	20.71
1100	93.56	21.56

System: potassium chloride + sodium chloride; phases: Crystal of unknown type
Fixed: Pressure, kPa = 100
Fixed: Mole fraction of potassium chloride = 0.5
Property: Molar enthalpy, kJ/mol (Crystal of unknown type); method: Drop calorimetry
Temperature, K	Molar enthalpy, kJ/mol	uncertainty
470	9.3	1.8
544	14	2.6
594	15.8	1.8
615	18.3	0.3
645	19.4	0.8
666	19.5	0.4
676	22.5	1.5
696	23.3	0.3
716	24.6	1.8
736	25.8	1.7
751	28.7	0.8

System: potassium chloride + sodium chloride; phases: Crystal
Fixed: Pressure, kPa = 100
Fixed: Mole fraction of potassium chloride = 0.5
Property: Molar enthalpy, kJ/mol (Crystal); method: Drop calorimetry
Temperature, K	Molar enthalpy, kJ/mol	uncertainty
774	29.8	2.6
799	31.5	2.2
826	33	3
856	34.7	4
876	34.3	0.4
906	39.3	2
925	38.8	5

System: potassium chloride + sodium chloride; phases: Liquid
Fixed: Pressure, kPa = 100
Fixed: Mole fraction of potassium chloride = 0.5
Property: Molar enthalpy, kJ/mol (Liquid); method: Drop calorimetry
Temperature, K	Molar enthalpy, kJ/mol	uncertainty
944	60.1	6.8
966	63.1	4.4
966	60.8	8.6
986	65.7	3
1027	65.5	0.3
1047	68.6	3.2
1077	69.1	2.4
