Measured thermophysical data. A method for determination of reaction enthalpy of oxygen carriers for Chemical Looping  Combustion - application to ilmenite
Source: Thermochim. Acta, 2011, 10.1016/j.tca.2011.06.015
Compound 1: ferric oxide, Fe2O3, InChI=1S/2Fe.3O/q2*+3;3*-2
Compound 2: oxygen, O2, InChI=1S/O2/c1-2
Compound 3: iron (II) titanate, FeO3Ti, InChI=1S/Fe.3O.Ti/q+2;3*-2;+4
Compound 4: iron titanium oxide Fe2TiO5, Fe2O5Ti, InChI=1S/2Fe.5O.Ti/q2*+2;5*-2;+4
Compound 5: titanium(IV) oxide, O2Ti, InChI=1S/2O.Ti/q2*-2;+4
Compound 6: ferrosoferric oxide, Fe3O4, InChI=1S/3Fe.4O/q+2;2*+3;4*-2

Reaction: 2 titanium(IV) oxide + -4 iron (II) titanate + 2 iron titanium oxide Fe2TiO5 + -1 oxygen
Property: Molar enthalpy of reaction, kJ/mol
445

Reaction: 6 ferric oxide + -4 ferrosoferric oxide + -1 oxygen
Property: Molar enthalpy of reaction, kJ/mol
480
