Measured thermophysical data. Thermochemical behavior of 18-crown-6 in aqueous solutions of some monosaccharides
Source: Thermochim. Acta, 2006, 10.1016/j.tca.2006.02.011
Compound 1: 1,4,7,10,13,16-hexaoxacyclooctadecane, C12H24O6, InChI=1S/C12H24O6/c1-2-14-5-6-16-9-10-18-12-11-17-8-7-15-4-3-13-1/h1-12H2
Compound 2: water, H2O, InChI=1S/H2O/h1H2, purity 99.99%
Compound 3: D-glucose, C6H12O6, InChI=1S/C6H12O6/c7-1-3(9)5(11)6(12)4(10)2-8/h1,3-6,8-12H,2H2/t3-,4+,5+,6+/m0/s1
Compound 4: (+)-galactose, C6H12O6, InChI=1S/C6H12O6/c7-1-3(9)5(11)6(12)4(10)2-8/h1,3-6,8-12H,2H2/t3-,4+,5+,6-/m0/s1
Compound 5: D-fructose, C6H12O6, InChI=1S/C6H12O6/c7-1-3(9)5(11)6(12)4(10)2-8/h3,5-9,11-12H,1-2H2/t3-,5-,6-/m1/s1
Compound 6: L-arabinopyranose, C5H10O5, InChI=1S/C5H10O5/c6-2-1-10-5(9)4(8)3(2)7/h2-9H,1H2/t2-,3-,4+,5?/m0/s1

System: D-glucose + water + 1,4,7,10,13,16-hexaoxacyclooctadecane; phases: Liquid
Fixed: Temperature, K = 298.15
Fixed: Pressure, kPa = 101
Fixed: Mole fraction of 1,4,7,10,13,16-hexaoxacyclooctadecane = 0
Property: Molar enthalpy of solution, kJ/mol (Liquid); method: ISOPERIBOL
Solvent: Molality, mol/kg of D-glucose	Molar enthalpy of solution, kJ/mol	uncertainty
0	-21.49	0.21
0.00793	-21.5	0.22
0.01101	-21.55	0.22
0.02187	-21.39	0.21
0.02785	-21.54	0.22
0.03514	-21.47	0.21
0.0411	-21.43	0.21
0.05186	-21.39	0.21
0.0592	-21.49	0.21
0.07909	-21.36	0.21
0.08162	-21.24	0.21
0.09583	-21.3	0.21
0.14873	-21.28	0.21
0.17583	-21.19	0.21

System: (+)-galactose + water + 1,4,7,10,13,16-hexaoxacyclooctadecane; phases: Liquid
Fixed: Temperature, K = 298.15
Fixed: Pressure, kPa = 101
Fixed: Mole fraction of 1,4,7,10,13,16-hexaoxacyclooctadecane = 0
Property: Molar enthalpy of solution, kJ/mol (Liquid); method: ISOPERIBOL
Solvent: Molality, mol/kg of (+)-galactose	Molar enthalpy of solution, kJ/mol	uncertainty
0	-21.49	0.21
0.01063	-19.83	0.2
0.01984	-18.81	0.19
0.02	-18.82	0.19
0.02025	-18.64	0.19
0.02525	-17.79	0.18
0.02953	-17	0.17
0.03624	-16.58	0.17
0.0398	-16.58	0.17
0.05022	-17.42	0.17
0.05829	-18.7	0.19
0.0756	-21.4	0.21
0.07738	-21.81	0.22

System: D-fructose + water + 1,4,7,10,13,16-hexaoxacyclooctadecane; phases: Liquid
Fixed: Temperature, K = 298.15
Fixed: Pressure, kPa = 101
Fixed: Mole fraction of 1,4,7,10,13,16-hexaoxacyclooctadecane = 0
Property: Molar enthalpy of solution, kJ/mol (Liquid); method: ISOPERIBOL
Solvent: Molality, mol/kg of D-fructose	Molar enthalpy of solution, kJ/mol	uncertainty
0	-21.49	0.21
0.00905	-21.99	0.22
0.01652	-21.8	0.22
0.02223	-22.19	0.22
0.02932	-22.74	0.23
0.03343	-22.58	0.23
0.0412	-23.35	0.23
0.04776	-22.92	0.23
0.06164	-21.56	0.22
0.07436	-20.9	0.21
0.08004	-21.06	0.21
0.09652	-20.25	0.2
0.10932	-20.14	0.2

System: L-arabinopyranose + water + 1,4,7,10,13,16-hexaoxacyclooctadecane; phases: Liquid
Fixed: Temperature, K = 298.15
Fixed: Pressure, kPa = 101
Fixed: Mole fraction of 1,4,7,10,13,16-hexaoxacyclooctadecane = 0
Property: Molar enthalpy of solution, kJ/mol (Liquid); method: ISOPERIBOL
Solvent: Molality, mol/kg of L-arabinopyranose	Molar enthalpy of solution, kJ/mol	uncertainty
0	-21.49	0.21
0.00097	-21.68	0.22
0.00294	-22.18	0.22
0.00475	-22.22	0.22
0.01001	-22.89	0.23
0.01916	-24	0.24
0.03085	-24.13	0.24
0.03177	-24.12	0.24
0.03664	-24.6	0.25
0.0405	-24.27	0.24
0.04954	-23.76	0.24
0.05062	-23.52	0.24
0.06789	-22.07	0.22
0.07383	-22.18	0.22
0.08016	-21.85	0.22
0.08553	-21.38	0.21
