Measured thermophysical data. Heat capacity and phase behavior of aqueous diethylene glycol npentyl  ether by DSC
Source: Thermochim. Acta, 2012, 10.1016/j.tca.2012.09.027
Compound 1: diethylene glycol monopentyl ether, C9H20O3, InChI=1S/C9H20O3/c1-2-3-4-6-11-8-9-12-7-5-10/h10H,2-9H2,1H3, purity 99%
Compound 2: water, H2O, InChI=1S/H2O/h1H2, purity 99.9%

System: water + diethylene glycol monopentyl ether; phases: Liquid mixture 1, Liquid mixture 2
Property: Lower consolute temperature, K (Liquid mixture 1); method: VISOBS
Pressure, kPa	Lower consolute temperature, K	uncertainty
101	310.7	0.5

System: water + diethylene glycol monopentyl ether; phases: Liquid mixture 1, Liquid mixture 2
Fixed: Pressure, kPa = 101
Property: Mass fraction of diethylene glycol monopentyl ether (Liquid mixture 1); method: Phase equilibration
Temperature, K	Mass fraction of diethylene glycol monopentyl ether	uncertainty
310.7	0.07057	1e-05
310.81	0.06305	1e-05
310.89	0.05886	1e-05
310.89	0.06766	1e-05
310.97	0.07322	1e-05
311.03	0.07547	1e-05
311.07	0.08216	1e-05
311.13	0.08587	1e-05
311.14	0.10353	1e-05
311.15	0.09014	1e-05
311.15	0.12339	1e-05
311.16	0.09689	1e-05
311.16	0.10983	1e-05
311.18	0.13585	1e-05
311.21	0.1486	1e-05
311.36	0.17538	1e-05
311.41	0.20638	1e-05
311.52	0.24325	1e-05

System: water + diethylene glycol monopentyl ether; phases: Liquid mixture 1, Liquid mixture 2
Property: Lower consolute composition: mass fraction of diethylene glycol monopentyl ether (Liquid mixture 1); method: VISOBS
Pressure, kPa	Lower consolute composition: mass fraction of diethylene glycol monopentyl ether	uncertainty
101	0.07	0.01

System: water + diethylene glycol monopentyl ether; phases: Liquid
Fixed: Pressure, kPa = 101
Property: Molar heat capacity at constant pressure, J/K/mol (Liquid); method: Small sample (50 mg) DSC
Temperature, K	Molality, mol/kg of diethylene glycol monopentyl ether	Molar heat capacity at constant pressure, J/K/mol	uncertainty
278.15	0.03068	76.13087	1.1803
278.15	0.03885	76.27219	1.1818
278.15	0.05018	76.39517	1.1839
278.15	0.05987	76.4857	1.1857
278.15	0.07006	76.70048	1.1876
278.15	0.08149	76.72783	1.1879
278.15	0.09044	76.84392	1.1896
278.15	0.10017	76.8522	1.1914
278.15	0.10949	77.06231	1.1931
278.15	0.12263	77.28344	1.1973
278.15	0.12877	77.2281	1.1966
278.15	0.14984	77.54558	1.2005
278.15	0.15779	77.6145	1.202
278.15	0.20077	77.98126	1.2081
278.15	0.20665	78.3729	1.2147
278.15	0.22819	78.77702	1.2206
278.15	0.25068	78.85805	1.221
278.15	0.27394	79.05385	1.2253
278.15	0.30144	79.41609	1.2303
278.15	0.30341	79.53007	1.2326
278.15	0.31852	79.50334	1.2316
278.15	0.35471	80.09526	1.2401
278.15	0.38167	80.4051	1.2451
278.15	0.41165	81.06867	1.2563
278.15	0.4307	81.64289	1.2656
278.15	0.44815	81.9915	1.2707
278.15	0.46304	82.84155	1.2831
278.15	0.50771	83.78452	1.2973
278.15	0.5328	84.32898	1.3059
278.15	0.56196	85.00651	1.3172
278.15	0.60855	85.3456	1.322
278.15	0.65508	85.80719	1.3287
278.15	0.6998	86.09095	1.333
278.15	0.7984	86.83821	1.3452
278.15	0.89174	87.50574	1.3562
278.15	0.98999	88.03092	1.3637
278.15	1.2063	89.48351	1.3855
278.15	1.475	90.69804	1.4041
278.15	1.8232	92.3901	1.4312
283.15	0.03068	75.96432	1.1767
283.15	0.03885	76.10725	1.1782
283.15	0.05018	76.23357	1.1803
283.15	0.05987	76.32203	1.1821
283.15	0.07006	76.53655	1.1858
283.15	0.08149	76.56361	1.1861
283.15	0.09044	76.67947	1.1877
283.15	0.10017	76.70579	1.1877
283.15	0.10949	76.9102	1.1912
283.15	0.12263	77.12918	1.1955
283.15	0.12877	77.09024	1.1948
283.15	0.14984	77.39067	1.1987
283.15	0.15779	77.46864	1.2001
283.15	0.20077	77.86046	1.2062
283.15	0.20665	78.21478	1.211
283.15	0.22819	78.61465	1.2187
283.15	0.25068	78.72135	1.2191
283.15	0.27394	78.93733	1.2234
283.15	0.30144	79.31042	1.2284
283.15	0.30341	79.41116	1.2307
283.15	0.31852	79.44847	1.2316
283.15	0.35471	80.12759	1.242
283.15	0.38167	80.67626	1.2508
283.15	0.41165	81.7745	1.2659
283.15	0.4307	82.24105	1.2733
283.15	0.44815	82.45621	1.2765
283.15	0.46304	82.99035	1.2851
283.15	0.50771	83.48694	1.2934
283.15	0.5328	83.81757	1.2981
283.15	0.56196	84.30086	1.3054
283.15	0.60855	84.54057	1.3102
283.15	0.65508	84.92338	1.3148
283.15	0.6998	85.18362	1.319
283.15	0.7984	85.89212	1.331
283.15	0.89174	86.57016	1.3418
283.15	0.98999	87.12873	1.3491
283.15	1.2063	88.62827	1.3727
283.15	1.475	89.9949	1.3952
283.15	1.8232	91.86001	1.422
288.15	0.03068	75.84666	1.1749
288.15	0.03885	75.98762	1.1764
288.15	0.05018	76.11735	1.1785
288.15	0.05987	76.20564	1.1803
288.15	0.07006	76.41633	1.184
288.15	0.08149	76.445	1.1842
288.15	0.09044	76.56069	1.1859
288.15	0.10017	76.59965	1.1859
288.15	0.10949	76.80024	1.1894
288.15	0.12263	77.01716	1.1937
288.15	0.12877	76.9873	1.193
288.15	0.14984	77.28002	1.1968
288.15	0.15779	77.36339	1.1983
288.15	0.20077	77.77496	1.2043
288.15	0.20665	78.09386	1.2091
288.15	0.22819	78.48588	1.215
288.15	0.25068	78.63521	1.2191
288.15	0.27394	78.85277	1.2215
288.15	0.30144	79.28966	1.2284
288.15	0.30341	79.36208	1.2288
288.15	0.31852	79.46739	1.2316
288.15	0.35471	80.53842	1.2477
288.15	0.38167	81.07919	1.2565
288.15	0.41165	81.72463	1.2659
288.15	0.4307	82.08141	1.2713
288.15	0.44815	82.20168	1.2727
288.15	0.46304	82.58647	1.2793
288.15	0.50771	82.91318	1.2837
288.15	0.5328	83.18122	1.2883
288.15	0.56196	83.58738	1.2956
288.15	0.60855	83.7967	1.2983
288.15	0.65508	84.13291	1.3029
288.15	0.6998	84.3922	1.307
288.15	0.7984	85.08986	1.3189
288.15	0.89174	85.78435	1.3295
288.15	0.98999	86.37828	1.3387
288.15	1.2063	87.90987	1.362
288.15	1.475	89.40674	1.3842
288.15	1.8232	91.4152	1.4151
293.15	0.03068	75.76881	1.1731
293.15	0.03885	75.90424	1.1764
293.15	0.05018	76.03927	1.1785
293.15	0.05987	76.12744	1.1803
293.15	0.07006	76.33072	1.1821
293.15	0.08149	76.36289	1.1824
293.15	0.09044	76.48029	1.1841
293.15	0.10017	76.52645	1.1859
293.15	0.10949	76.7251	1.1894
293.15	0.12263	76.94003	1.1918
293.15	0.12877	76.91561	1.1911
293.15	0.14984	77.20257	1.1968
293.15	0.15779	77.29139	1.1983
293.15	0.20077	77.72478	1.2043
293.15	0.20665	78.00643	1.2091
293.15	0.22819	78.3851	1.215
293.15	0.25068	78.53221	1.2172
293.15	0.27394	78.83022	1.2215
293.15	0.30144	79.39533	1.2303
293.15	0.30341	79.48477	1.2307
293.15	0.31852	79.75306	1.2354
293.15	0.35471	80.55364	1.2477
293.15	0.38167	80.92451	1.2546
293.15	0.41165	81.38706	1.2601
293.15	0.4307	81.65635	1.2656
293.15	0.44815	81.74854	1.2669
293.15	0.46304	81.78838	1.2677
293.15	0.50771	82.31803	1.2759
293.15	0.5328	82.5644	1.2785
293.15	0.56196	82.92094	1.2839
293.15	0.60855	83.14162	1.2885
293.15	0.65508	83.45764	1.2929
293.15	0.6998	83.73268	1.2971
293.15	0.7984	84.43549	1.3087
293.15	0.89174	85.15037	1.3193
293.15	0.98999	85.77958	1.3284
293.15	1.2063	87.33259	1.3534
293.15	1.475	88.94241	1.3775
293.15	1.8232	91.06257	1.4105
298.15	0.03068	75.72356	1.1731
298.15	0.03885	75.85167	1.1746
298.15	0.05018	75.99206	1.1767
298.15	0.05987	76.08198	1.1784
298.15	0.07006	76.27608	1.1821
298.15	0.08149	76.30997	1.1824
298.15	0.09044	76.42913	1.1841
298.15	0.10017	76.48436	1.184
298.15	0.10949	76.67745	1.1876
298.15	0.12263	76.88861	1.1918
298.15	0.12877	76.86782	1.1911
298.15	0.14984	77.15278	1.195
298.15	0.15779	77.24707	1.1965
298.15	0.20077	77.70248	1.2043
298.15	0.20665	77.94877	1.2073
298.15	0.22819	78.31418	1.2131
298.15	0.25068	78.56592	1.2172
298.15	0.27394	78.90727	1.2215
298.15	0.30144	79.57837	1.2322
298.15	0.30341	79.65843	1.2345
298.15	0.31852	79.77197	1.2354
298.15	0.35471	80.3273	1.2439
298.15	0.38167	80.59797	1.2489
298.15	0.41165	80.98619	1.2544
298.15	0.4307	81.17936	1.2579
298.15	0.44815	81.28769	1.2592
298.15	0.46304	81.55648	1.2638
298.15	0.50771	81.81429	1.2681
298.15	0.5328	82.04713	1.2707
298.15	0.56196	82.34858	1.276
298.15	0.60855	82.60296	1.2806
298.15	0.65508	82.91742	1.285
298.15	0.6998	83.21306	1.2891
298.15	0.7984	83.9351	1.3006
298.15	0.89174	84.67027	1.311
298.15	0.98999	85.33472	1.3221
298.15	1.2063	86.90283	1.347
298.15	1.475	88.61074	1.3731
298.15	1.8232	90.82288	1.4059
308.15	0.03068	75.70183	1.1731
308.15	0.03885	75.80998	1.1746
308.15	0.05018	75.95575	1.1767
308.15	0.05987	76.05834	1.1784
308.15	0.07006	76.23054	1.1803
308.15	0.08149	76.27165	1.1824
308.15	0.09044	76.39441	1.1841
308.15	0.10017	76.47155	1.184
308.15	0.10949	76.64446	1.1876
308.15	0.12263	76.85188	1.19
308.15	0.12877	76.83106	1.1911
308.15	0.14984	77.11774	1.195
308.15	0.15779	77.22122	1.1965
308.15	0.20077	77.72478	1.2043
308.15	0.20665	77.90784	1.2073
308.15	0.22819	78.26379	1.2131
308.15	0.25068	78.68015	1.2191
308.15	0.27394	78.97868	1.2234
308.15	0.30144	79.32363	1.2284
308.15	0.30341	79.38096	1.2307
308.15	0.31852	79.45415	1.2316
308.15	0.35471	79.82137	1.2363
308.15	0.38167	80.03464	1.2393
308.15	0.41165	80.2094	1.2429
308.15	0.4307	80.51387	1.2483
308.15	0.44815	80.67257	1.2495
308.15	0.46304	80.83762	1.2522
308.15	0.50771	81.15106	1.2564
308.15	0.5328	81.3698	1.261
308.15	0.56196	81.67234	1.2662
308.15	0.60855	81.97156	1.2707
308.15	0.65508	82.31762	1.2751
308.15	0.6998	82.64348	1.2811
308.15	0.7984	83.40634	1.2925
308.15	0.89174	84.18196	1.3049
308.15	0.98999	84.91688	1.3159
308.15	1.2063	86.54791	1.3406
308.15	1.475	88.43164	1.3709
308.15	1.8232	90.79292	1.4059
318.15	0.03068	75.71089	1.1731
318.15	0.03885	75.82811	1.1746
318.15	0.05018	75.94667	1.1767
318.15	0.05987	76.08198	1.1784
318.15	0.07006	76.20869	1.1803
318.15	0.08149	76.31545	1.1824
318.15	0.09044	76.4273	1.1841
318.15	0.10017	76.56488	1.1859
318.15	0.10949	76.67012	1.1876
318.15	0.12263	76.8427	1.19
318.15	0.12877	76.89172	1.1911
318.15	0.14984	77.17307	1.195
318.15	0.15779	77.28031	1.1965
318.15	0.20077	77.89391	1.2062
318.15	0.20665	77.96737	1.2073
318.15	0.22819	78.24512	1.2112
318.15	0.25068	78.49288	1.2154
318.15	0.27394	78.76445	1.2196
318.15	0.30144	79.09341	1.2247
318.15	0.30341	79.10537	1.225
318.15	0.31852	79.24416	1.2278
328.15	0.03068	75.81588	1.1749
328.15	0.03885	75.88974	1.1764
328.15	0.05018	76.03383	1.1785
328.15	0.05987	76.16927	1.1803
328.15	0.07006	76.29976	1.1821
328.15	0.08149	76.34464	1.1824
328.15	0.09044	76.47299	1.1841
328.15	0.10017	76.59782	1.1859
328.15	0.10949	76.72693	1.1894
328.15	0.12263	76.91983	1.1918
328.15	0.12877	76.90091	1.1911
328.15	0.14984	77.1786	1.195
328.15	0.15779	77.30062	1.1983
328.15	0.20077	77.8809	1.2062
328.15	0.20665	77.95621	1.2073
328.15	0.22819	78.18354	1.2112
328.15	0.25068	78.42921	1.2154
328.15	0.27394	78.64229	1.2177
328.15	0.30144	78.88962	1.2228
328.15	0.30341	78.96003	1.2231
328.15	0.31852	79.0739	1.2259
333.15	0.03068	75.86114	1.1749
333.15	0.03885	75.93868	1.1764
333.15	0.05018	76.07741	1.1785
333.15	0.05987	76.21292	1.1803
333.15	0.07006	76.33619	1.1821
333.15	0.08149	76.37931	1.1824
333.15	0.09044	76.50953	1.1859
333.15	0.10017	76.63259	1.1877
333.15	0.10949	76.75992	1.1894
333.15	0.12263	76.94921	1.1918
333.15	0.12877	76.93951	1.1911
333.15	0.14984	77.20442	1.1968
333.15	0.15779	77.33016	1.1983
333.15	0.20077	77.9032	1.2062
333.15	0.20665	77.95435	1.2073
333.15	0.22819	78.10142	1.2094
333.15	0.25068	78.37303	1.2135
333.15	0.27394	78.58216	1.2177
333.15	0.30144	78.82357	1.2209
333.15	0.30341	78.90718	1.2231
333.15	0.31852	78.98687	1.224
