Measured thermophysical data. Water as a solute in aprotic dipolar solvents. 3. D2O-H2O solute isotope effects on the enthalpy of  water dissolution in dimethylsulphoxide, N,N-dimethylformamide and N,N-dimethylacetamide at  298.15 K
Source: Thermochim. Acta, 2011, 10.1016/j.tca.2011.09.009
Compound 1: dimethyl sulfoxide, C2H6OS, InChI=1S/C2H6OS/c1-4(2)3/h1-2H3
Compound 2: water, H2O, InChI=1S/H2O/h1H2, purity 99.8%
Compound 3: dimethylformamide, C3H7NO, InChI=1S/C3H7NO/c1-4(2)3-5/h3H,1-2H3
Compound 4: N,N-dimethylethanamide, C4H9NO, InChI=1S/C4H9NO/c1-4(6)5(2)3/h1-3H3
Compound 5: water-d2, D2O, InChI=1S/H2O/h1H2/i/hD2, purity 99.95%

System: dimethyl sulfoxide + water; phases: Liquid
Property: Molar enthalpy of solution, kJ/mol (Liquid); method: ISOPERIBOL
Molality, mol/kg of water	Pressure, kPa	Temperature, K	Molar enthalpy of solution, kJ/mol	uncertainty
0.092	101	298.15	-5.38	0.11

System: dimethylformamide + water; phases: Liquid
Property: Molar enthalpy of solution, kJ/mol (Liquid); method: ISOPERIBOL
Molality, mol/kg of water	Pressure, kPa	Temperature, K	Molar enthalpy of solution, kJ/mol	uncertainty
0.1255	101	298.15	-3.55	0.08

System: N,N-dimethylethanamide + water; phases: Liquid
Property: Molar enthalpy of solution, kJ/mol (Liquid); method: ISOPERIBOL
Molality, mol/kg of water	Pressure, kPa	Temperature, K	Molar enthalpy of solution, kJ/mol	uncertainty
0.124	101	298.15	-5.61	0.07

System: dimethyl sulfoxide + water-d2; phases: Liquid
Property: Molar enthalpy of solution, kJ/mol (Liquid); method: ISOPERIBOL
Molality, mol/kg of water-d2	Pressure, kPa	Temperature, K	Molar enthalpy of solution, kJ/mol	uncertainty
0.1055	101	298.15	-5.24	0.09

System: dimethylformamide + water-d2; phases: Liquid
Property: Molar enthalpy of solution, kJ/mol (Liquid); method: ISOPERIBOL
Molality, mol/kg of water-d2	Pressure, kPa	Temperature, K	Molar enthalpy of solution, kJ/mol	uncertainty
0.104	101	298.15	-3.47	0.08

System: N,N-dimethylethanamide + water-d2; phases: Liquid
Property: Molar enthalpy of solution, kJ/mol (Liquid); method: ISOPERIBOL
Molality, mol/kg of water-d2	Pressure, kPa	Temperature, K	Molar enthalpy of solution, kJ/mol	uncertainty
0.127	101	298.15	-5.45	0.07
