Measured thermophysical data. Solution Enthalpies of 1,4-Dioxane: Study of Solvent Effects Through  Quantitative Structure-Property Relationships
Source: Thermochim. Acta, 2013, 10.1016/j.tca.2013.10.002
Compound 1: 1,4-dioxane, C4H8O2, InChI=1S/C4H8O2/c1-2-6-4-3-5-1/h1-4H2
Compound 2: cyclohexane, C6H12, InChI=1S/C6H12/c1-2-4-6-5-3-1/h1-6H2
Compound 3: acetonitrile, C2H3N, InChI=1S/C2H3N/c1-2-3/h1H3
Compound 4: dimethylformamide, C3H7NO, InChI=1S/C3H7NO/c1-4(2)3-5/h3H,1-2H3
Compound 5: dimethyl sulfoxide, C2H6OS, InChI=1S/C2H6OS/c1-4(2)3/h1-2H3
Compound 6: nitromethane, CH3NO2, InChI=1S/CH3NO2/c1-2(3)4/h1H3
Compound 7: acetone, C3H6O, InChI=1S/C3H6O/c1-3(2)4/h1-2H3
Compound 8: 4-methyl-1,3-dioxolan-2-one, C4H6O3, InChI=1S/C4H6O3/c1-3-2-6-4(5)7-3/h3H,2H2,1H3
Compound 9: N,N-dimethylethanamide, C4H9NO, InChI=1S/C4H9NO/c1-4(6)5(2)3/h1-3H3
Compound 10: methanol, CH4O, InChI=1S/CH4O/c1-2/h2H,1H3
Compound 11: ethanol, C2H6O, InChI=1S/C2H6O/c1-2-3/h3H,2H2,1H3
Compound 12: propan-1-ol, C3H8O, InChI=1S/C3H8O/c1-2-3-4/h4H,2-3H2,1H3
Compound 13: butan-1-ol, C4H10O, InChI=1S/C4H10O/c1-2-3-4-5/h5H,2-4H2,1H3
Compound 14: propan-2-ol, C3H8O, InChI=1S/C3H8O/c1-3(2)4/h3-4H,1-2H3
Compound 15: tetrachloromethane, CCl4, InChI=1S/CCl4/c2-1(3,4)5
Compound 16: ethyl acetate, C4H8O2, InChI=1S/C4H8O2/c1-3-6-4(2)5/h3H2,1-2H3

System: cyclohexane + 1,4-dioxane; phases: Liquid
Property: Molar enthalpy of solution, kJ/mol (Liquid); method: ISOPERIBOL
Amount concentration (molarity), mol/dm3 of 1,4-dioxane	Pressure, kPa	Temperature, K	Molar enthalpy of solution, kJ/mol	uncertainty
0.006	101	298.15	7.5	0.88

System: acetonitrile + 1,4-dioxane; phases: Liquid
Property: Molar enthalpy of solution, kJ/mol (Liquid); method: ISOPERIBOL
Amount concentration (molarity), mol/dm3 of 1,4-dioxane	Pressure, kPa	Temperature, K	Molar enthalpy of solution, kJ/mol	uncertainty
0.006	101	298.15	-0.11	0.02

System: dimethylformamide + 1,4-dioxane; phases: Liquid
Property: Molar enthalpy of solution, kJ/mol (Liquid); method: ISOPERIBOL
Amount concentration (molarity), mol/dm3 of 1,4-dioxane	Pressure, kPa	Temperature, K	Molar enthalpy of solution, kJ/mol	uncertainty
0.006	101	298.15	0.84	0.1

System: dimethyl sulfoxide + 1,4-dioxane; phases: Liquid
Property: Molar enthalpy of solution, kJ/mol (Liquid); method: ISOPERIBOL
Amount concentration (molarity), mol/dm3 of 1,4-dioxane	Pressure, kPa	Temperature, K	Molar enthalpy of solution, kJ/mol	uncertainty
0.006	101	298.15	1.45	0.17

System: nitromethane + 1,4-dioxane; phases: Liquid
Property: Molar enthalpy of solution, kJ/mol (Liquid); method: ISOPERIBOL
Amount concentration (molarity), mol/dm3 of 1,4-dioxane	Pressure, kPa	Temperature, K	Molar enthalpy of solution, kJ/mol	uncertainty
0.006	101	298.15	-1.04	0.12

System: acetone + 1,4-dioxane; phases: Liquid
Property: Molar enthalpy of solution, kJ/mol (Liquid); method: ISOPERIBOL
Amount concentration (molarity), mol/dm3 of 1,4-dioxane	Pressure, kPa	Temperature, K	Molar enthalpy of solution, kJ/mol	uncertainty
0.006	101	298.15	0.64	0.08

System: 4-methyl-1,3-dioxolan-2-one + 1,4-dioxane; phases: Liquid
Property: Molar enthalpy of solution, kJ/mol (Liquid); method: ISOPERIBOL
Amount concentration (molarity), mol/dm3 of 1,4-dioxane	Pressure, kPa	Temperature, K	Molar enthalpy of solution, kJ/mol	uncertainty
0.006	101	298.15	-0.41	0.05

System: 1,4-dioxane + N,N-dimethylethanamide; phases: Liquid
Property: Molar enthalpy of solution, kJ/mol (Liquid); method: ISOPERIBOL
Amount concentration (molarity), mol/dm3 of 1,4-dioxane	Pressure, kPa	Temperature, K	Molar enthalpy of solution, kJ/mol	uncertainty
0.006	101	298.15	0.57	0.07

System: methanol + 1,4-dioxane; phases: Liquid
Property: Molar enthalpy of solution, kJ/mol (Liquid); method: ISOPERIBOL
Amount concentration (molarity), mol/dm3 of 1,4-dioxane	Pressure, kPa	Temperature, K	Molar enthalpy of solution, kJ/mol	uncertainty
0.006	101	298.15	4.28	0.5

System: ethanol + 1,4-dioxane; phases: Liquid
Property: Molar enthalpy of solution, kJ/mol (Liquid); method: ISOPERIBOL
Amount concentration (molarity), mol/dm3 of 1,4-dioxane	Pressure, kPa	Temperature, K	Molar enthalpy of solution, kJ/mol	uncertainty
0.006	101	298.15	6.36	0.75

System: propan-1-ol + 1,4-dioxane; phases: Liquid
Property: Molar enthalpy of solution, kJ/mol (Liquid); method: ISOPERIBOL
Amount concentration (molarity), mol/dm3 of 1,4-dioxane	Pressure, kPa	Temperature, K	Molar enthalpy of solution, kJ/mol	uncertainty
0.006	101	298.15	7.71	0.91

System: butan-1-ol + 1,4-dioxane; phases: Liquid
Property: Molar enthalpy of solution, kJ/mol (Liquid); method: ISOPERIBOL
Amount concentration (molarity), mol/dm3 of 1,4-dioxane	Pressure, kPa	Temperature, K	Molar enthalpy of solution, kJ/mol	uncertainty
0.006	101	298.15	7.86	0.93

System: propan-2-ol + 1,4-dioxane; phases: Liquid
Property: Molar enthalpy of solution, kJ/mol (Liquid); method: ISOPERIBOL
Amount concentration (molarity), mol/dm3 of 1,4-dioxane	Pressure, kPa	Temperature, K	Molar enthalpy of solution, kJ/mol	uncertainty
0.006	101	298.15	9.38	1.11

System: tetrachloromethane + 1,4-dioxane; phases: Liquid
Property: Molar enthalpy of solution, kJ/mol (Liquid); method: ISOPERIBOL
Amount concentration (molarity), mol/dm3 of 1,4-dioxane	Pressure, kPa	Temperature, K	Molar enthalpy of solution, kJ/mol	uncertainty
0.006	101	298.15	-0.55	0.07

System: 1,4-dioxane + ethyl acetate; phases: Liquid
Property: Molar enthalpy of solution, kJ/mol (Liquid); method: ISOPERIBOL
Amount concentration (molarity), mol/dm3 of 1,4-dioxane	Pressure, kPa	Temperature, K	Molar enthalpy of solution, kJ/mol	uncertainty
0.006	101	298.15	0.57	0.07
