Measured thermophysical data. Liquid-liquid equilibrium composed of imidazolium tetrafluoroborate ionic liquids + sodium  carbonate aqueous two-phase systems and correlation at (288.15, 298.15, and 308.15) K
Source: Thermochim. Acta, 2011, 10.1016/j.tca.2011.05.028
Compound 1: sodium carbonate, CNa2O3, InChI=1S/CH2O3.2Na/c2-1(3)4;;/h(H2,2,3,4);;/q;2*+1/p-2, purity 99%
Compound 2: water, H2O, InChI=1S/H2O/h1H2
Compound 3: 1-ethyl-3-methylimidazolium tetrafluoroborate, C6H11BF4N2, InChI=1S/C6H11N2.BF4/c1-3-8-5-4-7(2)6-8;2-1(3,4)5/h4-6H,3H2,1-2H3;/q+1;-1, purity 99%
Compound 4: 1-propyl-3-methylimidazolium tetrafluoroborate, C7H13BF4N2, InChI=1S/C7H13N2.BF4/c1-3-4-9-6-5-8(2)7-9;2-1(3,4)5/h5-7H,3-4H2,1-2H3;/q+1;-1, purity 99%

System: sodium carbonate + water + 1-ethyl-3-methylimidazolium tetrafluoroborate; phases: Liquid mixture 2, Liquid mixture 1
Fixed: Pressure, kPa = 101
Property: Mole fraction of sodium carbonate (Liquid mixture 2); method: Spectrometry
Property: Mole fraction of sodium carbonate (Liquid mixture 1); method: Spectrometry
Property: Mole fraction of 1-ethyl-3-methylimidazolium tetrafluoroborate (Liquid mixture 1); method: Spectrometry
Temperature, K	Mole fraction of 1-ethyl-3-methylimidazolium tetrafluoroborate	Mole fraction of sodium carbonate	uncertainty	Mole fraction of sodium carbonate	uncertainty	Mole fraction of 1-ethyl-3-methylimidazolium tetrafluoroborate	uncertainty
288.15	0.0743	0.1622	0.0015	0.0048	0.001	0.6445	
288.15	0.0577	0.1809	0.0016	0.0021	0.001	0.6894	
288.15	0.0646	0.1726	0.0015	0.0037	0.001	0.6611	
298.15	0.0976	0.1485	0.0013	0.0157	0.001	0.5572	
298.15	0.0849	0.1591	0.0014	0.0101	0.001	0.6072	
298.15	0.0715	0.1722	0.0014	0.0071	0.001	0.638	
308.15	0.0918	0.1613	0.0013	0.0133	0.001	0.5979	
308.15	0.0787	0.1731	0.0016	0.0117	0.001	0.6122	
308.15	0.0763	0.1762	0.0016	0.0105	0.001	0.6234	

System: sodium carbonate + water + 1-ethyl-3-methylimidazolium tetrafluoroborate; phases: Liquid mixture 1, Liquid mixture 2
Fixed: Pressure, kPa = 101
Property: Mole fraction of 1-ethyl-3-methylimidazolium tetrafluoroborate (Liquid mixture 1); method: Titration method
Temperature, K	Mole fraction of sodium carbonate	Mole fraction of 1-ethyl-3-methylimidazolium tetrafluoroborate	uncertainty
288.15	0.0058	0.6415	0.0179
288.15	0.0064	0.6174	0.0157
288.15	0.0105	0.5754	0.0164
288.15	0.0119	0.5557	0.0169
288.15	0.0158	0.526	0.0166
288.15	0.0189	0.5021	0.0173
288.15	0.0214	0.4824	0.017
288.15	0.0238	0.4628	0.0156
288.15	0.0286	0.4365	0.0147
288.15	0.0323	0.4128	0.014
288.15	0.0364	0.3913	0.0132
288.15	0.0412	0.3654	0.0123
288.15	0.0468	0.3408	0.0114
288.15	0.0523	0.3165	0.0107
288.15	0.0565	0.3005	0.0102
288.15	0.061	0.2811	0.0095
288.15	0.0669	0.2613	0.0088
288.15	0.0723	0.2418	0.0083
288.15	0.0772	0.2256	0.0077
288.15	0.0843	0.2035	0.007
288.15	0.0896	0.1891	0.0064
288.15	0.0958	0.1736	0.0059
288.15	0.0996	0.1652	0.0055
288.15	0.1048	0.1562	0.0053
288.15	0.1098	0.1444	0.0049
288.15	0.118	0.1302	0.0043
288.15	0.1246	0.1231	0.0041
288.15	0.1293	0.1144	0.0038
288.15	0.1348	0.1079	0.0036
288.15	0.1402	0.1012	0.0034
288.15	0.1484	0.0917	0.0031
288.15	0.1557	0.0821	0.0028
288.15	0.1641	0.0743	0.0025
288.15	0.1764	0.0647	0.0022
298.15	0.0052	0.6656	0.0154
298.15	0.008	0.6218	0.0167
298.15	0.0103	0.6068	0.0152
298.15	0.0142	0.5668	0.0159
298.15	0.0193	0.5305	0.0163
298.15	0.0231	0.5025	0.0173
298.15	0.0246	0.4877	0.017
298.15	0.0279	0.4636	0.0158
298.15	0.0303	0.451	0.015
298.15	0.0349	0.4249	0.0143
298.15	0.0378	0.409	0.0135
298.15	0.0437	0.3825	0.0127
298.15	0.0463	0.3699	0.0123
298.15	0.0529	0.3385	0.0114
298.15	0.0578	0.3192	0.0106
298.15	0.0626	0.2989	0.01
298.15	0.069	0.274	0.0093
298.15	0.0728	0.2594	0.0088
298.15	0.0801	0.2346	0.0079
298.15	0.0875	0.2128	0.0072
298.15	0.0939	0.195	0.0066
298.15	0.0999	0.179	0.006
298.15	0.1098	0.1572	0.0053
298.15	0.1159	0.1446	0.0048
298.15	0.1247	0.1306	0.0043
298.15	0.1276	0.1262	0.0041
298.15	0.1422	0.1068	0.0036
298.15	0.1497	0.0961	0.0033
298.15	0.1526	0.092	0.003
298.15	0.1621	0.0838	0.0028
298.15	0.1671	0.0785	0.0026
298.15	0.177	0.071	0.0024
298.15	0.182	0.0657	0.0024
308.15	0.0114	0.6169	0.0154
308.15	0.0147	0.5845	0.0157
308.15	0.0171	0.5662	0.0154
308.15	0.0202	0.5435	0.0163
308.15	0.024	0.5109	0.0166
308.15	0.0278	0.4917	0.0164
308.15	0.0296	0.4747	0.0159
308.15	0.0336	0.4541	0.0153
308.15	0.0375	0.4272	0.0146
308.15	0.0411	0.4088	0.0137
308.15	0.0448	0.3886	0.0128
308.15	0.0517	0.3608	0.012
308.15	0.0558	0.3416	0.0114
308.15	0.0605	0.3228	0.0107
308.15	0.0652	0.3055	0.0102
308.15	0.0733	0.2748	0.0092
308.15	0.0806	0.2524	0.0085
308.15	0.0824	0.2459	0.0083
308.15	0.0885	0.2246	0.0077
308.15	0.0907	0.2195	0.0073
308.15	0.0983	0.1982	0.0068
308.15	0.1035	0.1833	0.0061
308.15	0.1074	0.1775	0.0059
308.15	0.1149	0.1603	0.0053
308.15	0.1259	0.1407	0.0047
308.15	0.1332	0.1284	0.0042
308.15	0.1437	0.1141	0.0038
308.15	0.1485	0.1064	0.0035
308.15	0.1587	0.0952	0.0031
308.15	0.1634	0.09	0.003
308.15	0.1696	0.0833	0.0027
308.15	0.1787	0.0757	0.0025
308.15	0.1918	0.0657	0.0022

System: sodium carbonate + water + 1-propyl-3-methylimidazolium tetrafluoroborate; phases: Liquid mixture 2, Liquid mixture 1
Fixed: Pressure, kPa = 101
Property: Mole fraction of sodium carbonate (Liquid mixture 2); method: Spectrometry
Property: Mole fraction of sodium carbonate (Liquid mixture 1); method: Spectrometry
Property: Mole fraction of 1-propyl-3-methylimidazolium tetrafluoroborate (Liquid mixture 1); method: Spectrometry
Temperature, K	Mole fraction of 1-propyl-3-methylimidazolium tetrafluoroborate	Mole fraction of sodium carbonate	uncertainty	Mole fraction of sodium carbonate	uncertainty	Mole fraction of 1-propyl-3-methylimidazolium tetrafluoroborate	uncertainty
288.15	0.7996	0.0161	0.001	0.1642	0.0014	0.0508	
288.15	0.7945	0.0162	0.001	0.1619	0.0014	0.053	
288.15	0.7802	0.0165	0.001	0.1598	0.0014	0.055	
298.15	0.7398	0.0174	0.001	0.1514	0.0014	0.0636	
298.15	0.7573	0.017	0.001	0.1586	0.0014	0.0562	
298.15	0.7573	0.017	0.001	0.1566	0.0014	0.0582	
308.15	0.6844	0.0196	0.001	0.155	0.0016	0.0807	
308.15	0.6594	0.0206	0.001	0.1497	0.0015	0.0856	
308.15	0.7305	0.017	0.001	0.1643	0.0016	0.073	

System: sodium carbonate + water + 1-propyl-3-methylimidazolium tetrafluoroborate; phases: Liquid mixture 1, Liquid mixture 2
Fixed: Pressure, kPa = 101
Property: Mole fraction of 1-propyl-3-methylimidazolium tetrafluoroborate (Liquid mixture 1); method: Titration method
Temperature, K	Mole fraction of sodium carbonate	Mole fraction of 1-propyl-3-methylimidazolium tetrafluoroborate	uncertainty
288.15	0.029	0.4534	0.0232
288.15	0.0301	0.4263	0.0196
288.15	0.0311	0.4146	0.0215
288.15	0.0324	0.3929	0.0191
288.15	0.0338	0.3706	0.0164
288.15	0.0353	0.3501	0.0154
288.15	0.0376	0.3374	0.0125
288.15	0.0402	0.3171	0.012
288.15	0.0435	0.2969	0.011
288.15	0.047	0.2761	0.0099
288.15	0.0512	0.2579	0.0093
288.15	0.054	0.2432	0.0086
288.15	0.0582	0.2293	0.0079
288.15	0.062	0.2148	0.0074
288.15	0.0677	0.1989	0.0068
288.15	0.0724	0.1849	0.0064
288.15	0.0748	0.1787	0.006
288.15	0.0804	0.167	0.0056
288.15	0.0824	0.1618	0.0055
288.15	0.0863	0.153	0.0051
288.15	0.0899	0.1468	0.005
288.15	0.0937	0.138	0.005
288.15	0.0982	0.1302	0.0044
288.15	0.1039	0.1209	0.004
288.15	0.1119	0.1094	0.0036
288.15	0.1242	0.0942	0.0032
288.15	0.1314	0.0846	0.0029
288.15	0.1386	0.0767	0.0026
288.15	0.1503	0.0647	0.0023
288.15	0.1583	0.0573	0.0021
288.15	0.1692	0.0481	0.0018
288.15	0.1786	0.0435	0.0017
298.15	0.0309	0.4847	0.0197
298.15	0.0322	0.4627	0.0187
298.15	0.0331	0.4499	0.018
298.15	0.0351	0.4281	0.0174
298.15	0.0386	0.3981	0.0148
298.15	0.0405	0.3771	0.0145
298.15	0.0437	0.3562	0.0138
298.15	0.046	0.3314	0.0135
298.15	0.0488	0.3114	0.0114
298.15	0.055	0.2783	0.01
298.15	0.0587	0.2601	0.0091
298.15	0.0635	0.2421	0.0085
298.15	0.0671	0.2257	0.0081
298.15	0.0714	0.2108	0.0074
298.15	0.0755	0.1968	0.0069
298.15	0.08	0.1839	0.0064
298.15	0.0836	0.1714	0.0059
298.15	0.0901	0.1602	0.0053
298.15	0.0934	0.151	0.0052
298.15	0.0992	0.1413	0.0048
298.15	0.1048	0.1307	0.0045
298.15	0.1095	0.1216	0.004
298.15	0.114	0.1156	0.004
298.15	0.1189	0.1088	0.0036
298.15	0.1227	0.1032	0.0035
298.15	0.1332	0.0913	0.003
298.15	0.138	0.0862	0.0029
298.15	0.1429	0.0805	0.0027
298.15	0.1538	0.0709	0.0024
298.15	0.1661	0.0612	0.0021
298.15	0.1765	0.0539	0.0019
298.15	0.1829	0.0498	0.0018
308.15	0.0394	0.4437	0.016
308.15	0.0406	0.4288	0.0151
308.15	0.0453	0.3951	0.0141
308.15	0.0483	0.3752	0.0132
308.15	0.0511	0.3587	0.0128
308.15	0.0527	0.3443	0.0124
308.15	0.0568	0.3221	0.0116
308.15	0.0598	0.3029	0.0108
308.15	0.0612	0.2935	0.0106
308.15	0.0642	0.2828	0.0097
308.15	0.0656	0.2707	0.0093
308.15	0.0701	0.257	0.0088
308.15	0.0727	0.2441	0.0088
308.15	0.076	0.2306	0.0082
308.15	0.078	0.2223	0.008
308.15	0.0809	0.2107	0.0072
308.15	0.0845	0.2025	0.0069
308.15	0.0912	0.1808	0.0063
308.15	0.0971	0.1659	0.0056
308.15	0.1045	0.1505	0.005
308.15	0.1054	0.1489	0.005
308.15	0.1112	0.1394	0.0047
308.15	0.117	0.1278	0.0043
308.15	0.1215	0.1215	0.004
308.15	0.127	0.114	0.0038
308.15	0.1311	0.1079	0.0036
308.15	0.1365	0.1015	0.0034
308.15	0.1476	0.0885	0.0029
308.15	0.1498	0.0865	0.0029
308.15	0.1572	0.0792	0.0026
308.15	0.1656	0.0717	0.0024
308.15	0.1785	0.0621	0.0022
308.15	0.1885	0.0549	0.002
