Measured thermophysical data. Enthalpies of combustion and formation of fullerenes by micro-combustion calorimetry in a Calvet calorimeter
Source: Thermochim. Acta, 2005, 10.1016/j.tca.2005.06.029
Compound 1: carbon dioxide, CO2, InChI=1S/CO2/c2-1-3
Compound 2: oxygen, O2, InChI=1S/O2/c1-2
Compound 3: buckminsterfullerene, C60, InChI=1S/C60/c1-2-5-6-3(1)8-12-10-4(1)9-11-7(2)17-21-13(5)23-24-14(6)22-18(8)28-20(12)30-26-16(10)15(9)25-29-19(11)27(17)37-41-31(21)33(23)43-44-34(24)32(22)42-38(28)48-40(30)46-36(26)35(25)45-39(29)47(37)55-49(41)51(43)57-52(44)50(42)56(48)59-54(46)53(45)58(55)60(57)59, purity 99.95%
Compound 4: fullerene carbon 70, C70, InChI=1S/C70/c1-2-22-5-6-24-13-14-26-11-9-23-4-3(21(1)51-52(22)54(24)55(26)53(23)51)33-31(1)61-35-7-8-27-15-16-29-19-20-30-18-17-28-12-10(25(7)56-57(27)59(29)60(30)58(28)56)37(35)63(33)65-36(4)40(9)67(44(17)42(12)65)69-46(11)47(14)70(50(20)49(18)69)68-43(13)39(6)66(45(16)48(19)68)64-34(5)32(2)62(61)38(8)41(15)64, purity 99%

Reaction: -1 buckminsterfullerene + 60 carbon dioxide + -60 oxygen
Property: Specific internal energy of reaction at constant volume, J/g
-35927.54

Reaction: -1 fullerene carbon 70 + 70 carbon dioxide + -70 oxygen
Property: Specific internal energy of reaction at constant volume, J/g
-35806.93
