Measured thermophysical data. Heat capacity and thermodynamic functions of LuPO4 in the range 0 320K
Source: Thermochim. Acta, 2006, 10.1016/j.tca.2006.05.019
Compound 1: lutetium phosphate, LuO4P, InChI=1S/Lu.H3O4P/c;1-5(2,3)4/h;(H3,1,2,3,4)/q+3;/p-3, purity 99%

System: lutetium phosphate; phases: Crystal
Fixed: Pressure, kPa = 101.325
Property: Molar heat capacity at constant pressure, J/K/mol (Crystal); method: Vacuum adiabatic calorimetry
Temperature, K	Molar heat capacity at constant pressure, J/K/mol	uncertainty
6.51	0.0482	0.0104
7.08	0.04711	0.01042
7.62	0.06861	0.01059
8.12	0.1033	0.0109
8.6	0.1229	0.011
9.16	0.1232	0.011
9.76	0.1438	0.0111
10.35	0.1797	0.0114
10.95	0.1984	0.0116
11.52	0.2437	0.0119
12.05	0.2931	0.0123
12.7	0.351	0.0127
13.5	0.4239	0.0131
14.29	0.5003	0.0136
15.07	0.5881	0.0142
15.96	0.7241	0.015
16.71	0.8304	0.0156
17.45	0.9728	0.0163
18.21	1.085	0.017
18.94	1.201	0.017
19.66	1.318	0.018
21.37	1.733	0.02
23.76	2.354	0.022
26.16	3.067	0.024
28.57	3.861	0.025
30.99	4.819	0.05
33.41	5.784	0.052
35.85	6.862	0.054
38.3	7.989	0.057
40.76	9.131	0.059
43.21	10.48	0.06
45.69	11.91	0.06
48.16	13.16	0.07
50.64	14.44	0.07
53.13	15.87	0.07
55.63	17.16	0.08
58.13	18.55	0.08
60.65	19.95	0.08
63.14	21.38	0.08
65.64	22.73	0.09
68.13	23.87	0.09
70.62	25.39	0.09
73.11	26.96	0.09
75.6	28.21	0.1
78.1	29.35	0.1
80.6	30.69	0.1
83.1	31.8	0.1
83.67	31.97	0.1
87.39	33.75	0.11
91	35.61	0.24
94.62	37.52	0.24
98.23	39.26	0.24
101.84	41.01	0.24
105.45	42.73	0.24
109.04	44.39	0.24
112.63	45.93	0.25
116.21	47.44	0.25
119.79	49.06	0.25
123.37	50.6	0.25
126.95	52.07	0.25
130.52	53.52	0.25
134.08	54.89	0.26
134.32	54.86	0.26
137.64	56.24	0.26
137.89	56.62	0.26
141.14	57.72	0.26
144.67	59.01	0.26
148.2	60.39	0.26
151.73	61.98	0.26
152.2	62.31	0.26
155.77	63.71	0.26
159.34	65.02	0.27
162.89	66.21	0.27
166.44	67.34	0.27
169.99	68.5	0.27
173.53	69.66	0.27
177.02	70.76	0.27
180.54	71.85	0.27
184.06	72.87	0.27
187.57	73.85	0.27
191.08	75.02	0.28
194.58	76.04	0.28
198.07	77.09	0.28
201.56	78.14	0.28
205.03	78.99	0.28
208.5	79.97	0.28
211.96	80.72	0.28
215.42	81.51	0.28
218.87	82.45	0.28
222.31	83.48	0.28
225.73	84.25	0.28
229.14	85.1	0.29
233.68	86.38	0.29
235.82	87.08	0.29
237.13	87.2	0.3
239.2	87.62	0.29
242.56	88.31	0.29
245.94	89.1	0.29
249.32	90.16	0.29
250.77	90.59	0.29
254.14	91.42	0.29
255.94	91.8	0.29
259.22	92.4	0.3
260.67	92.92	0.29
263.97	93.72	0.29
267.27	94.37	0.29
270.55	94.95	0.3
273.81	95.59	0.3
277.04	96.19	0.3
278.55	96.28	0.3
278.55	96.26	0.3
280.25	96.75	0.3
281.69	96.92	0.3
281.69	96.9	0.3
283.44	97.38	0.3
284.59	97.37	0.3
286.58	97.91	0.3
287.72	97.96	0.3
289.7	98.45	0.3
290.83	98.55	0.3
292.79	99.14	0.3
293.91	99.28	0.3
295.89	99.69	0.3
296.98	99.82	0.3
298.92	100.3	0.3
300.03	100.5	0.3
303.01	100.9	0.3
306.01	101.4	0.3
309.71	101.9	0.3
312.4	102.4	0.3
315.23	102.9	0.3
318.03	103.6	0.3

System: lutetium phosphate; phases: Crystal
Fixed: Pressure, kPa = 101.325
Property: Molar heat capacity at constant pressure, J/K/mol (Crystal); method: Vacuum adiabatic calorimetry
Temperature, K	Molar heat capacity at constant pressure, J/K/mol	uncertainty
6	0.0357	0.0103
8	0.0845	0.0107
10	0.165	0.011
12	0.286	0.012
14	0.455	0.013
16	0.676	0.015
18	0.962	0.016
20	1.32	0.02
25	2.54	0.02
30	4.26	0.05
35	6.39	0.05
40	8.83	0.06
45	11.45	0.06
50	14.18	0.07
55	16.93	0.07
60	19.67	0.08
65	22.38	0.09
70	25.05	0.09
75	27.68	0.1
80	30.26	0.1
85	32.8	0.11
90	35.28	0.24
95	37.72	0.24
100	40.1	0.24
110	44.74	0.24
120	49.17	0.25
130	53.39	0.25
140	57.42	0.26
150	61.25	0.26
160	64.87	0.27
170	68.32	0.27
180	71.58	0.27
190	74.68	0.27
200	77.61	0.28
210	80.41	0.28
220	83.06	0.28
230	85.6	0.29
240	88.01	0.29
250	90.31	0.29
260	92.51	0.29
270	94.6	0.29
280	96.61	0.3
290	98.53	0.3
300	100.4	0.3
310	102.1	0.3
320	103.8	0.3

System: lutetium phosphate; phases: Crystal
Fixed: Pressure, kPa = 101.325
Property: Molar enthalpy, kJ/mol (Crystal); method: Vacuum adiabatic calorimetry
Temperature, K	Molar enthalpy, kJ/mol	uncertainty
6	5.49e-05	6.05e-05
8	0.000172	8.1e-05
10	0.000417	0.000103
12	0.000862	0.000126
14	0.0016	0.00015
16	0.00272	0.00018
18	0.00435	0.00021
20	0.00662	0.00024
25	0.0161	0.0003
30	0.0329	0.0013
35	0.0593	0.0015
40	0.0972	0.0018
45	0.148	0.002
50	0.212	0.003
55	0.29	0.003
60	0.381	0.003
65	0.486	0.004
70	0.605	0.004
75	0.737	0.005
80	0.882	0.005
85	1.039	0.006
90	1.21	0.019
95	1.392	0.02
100	1.587	0.022
110	2.011	0.024
120	2.481	0.027
130	2.994	0.029
140	3.548	0.032
150	4.141	0.034
160	4.772	0.037
170	5.438	0.039
180	6.138	0.042
190	6.869	0.045
200	7.631	0.048
210	8.421	0.05
220	9.238	0.053
230	10.08	0.056
240	10.95	0.059
250	11.84	0.062
260	12.76	0.065
270	13.69	0.068
280	14.65	0.071
290	15.62	0.074
300	16.62	0.077
310	17.63	0.08
320	18.66	0.083

System: lutetium phosphate; phases: Crystal
Fixed: Pressure, kPa = 101.325
Property: Molar entropy, J/K/mol (Crystal); method: Vacuum adiabatic calorimetry
Temperature, K	Molar entropy, J/K/mol	uncertainty
6	0.012	0.0152
8	0.0284	0.0154
10	0.0553	0.0157
12	0.095	0.016
14	0.152	0.017
16	0.226	0.017
18	0.322	0.018
20	0.441	0.019
25	0.858	0.021
30	1.47	0.06
35	2.28	0.07
40	3.29	0.07
45	4.48	0.07
50	5.82	0.08
55	7.3	0.08
60	8.89	0.09
65	10.58	0.09
70	12.33	0.1
75	14.15	0.1
80	16.02	0.11
85	17.93	0.11
90	19.88	0.33
95	21.85	0.33
100	23.84	0.34
110	27.89	0.34
120	31.97	0.35
130	36.07	0.35
140	40.18	0.36
150	44.27	0.37
160	48.34	0.37
170	52.38	0.38
180	56.34	0.38
190	60.33	0.39
200	64.24	0.4
210	68.09	0.4
220	71.89	0.41
230	75.64	0.41
240	79.34	0.42
250	82.98	0.42
260	86.56	0.43
270	90.09	0.44
280	93.57	0.44
290	96.99	0.45
300	100.4	0.5
310	103.7	0.5
320	106.9	0.5
