Measured thermophysical data. Structure-property relationships in ionic liquids: Chain length dependence of the vaporization enthalpies of imidazolium-based ionic liquids with fluorinated substituents
Source: Thermochim. Acta, 2015, 10.1016/j.tca.2015.04.021
Compound 1: 1-methyl-3-(3,3,4,4,4-pentafluorobutyl)-1H-imidazolium bis((trifluoromethyl)sulfonyl)imide, C10H10F11N3O4S2, InChI=1S/C8H10F5N2.C2F6NO4S2/c1-14-4-5-15(6-14)3-2-7(9,10)8(11,12)13;3-1(4,5)14(10,11)9-15(12,13)2(6,7)8/h4-6H,2-3H2,1H3;/q+1;-1
Compound 2: 1-methyl-3-(3,3,4,4,5,5,6,6,6-nonafluorohexyl)-1H-imidazolium 1,1,1-trifluoro-N-[(trifluoromethyl)sulfonyl]methanesulfonamide, C12H12F15N3O4S2, InChI=1S/C10H11F9N2.C2F6NO4S2/c1-20-4-5-21(6-20)3-2-7(11,12)8(13,14)9(15,16)10(17,18)19;3-1(4,5)14(10,11)9-15(12,13)2(6,7)8/h4-5H,2-3,6H2,1H3;/q;-1/p+1
Compound 3: 1-methyl-3-(3,3,4,4,5,5,6,6,7,7,8,8,8-tridecafluorooctyl)imidazolium bis(trifluoromethylsulfonyl)imide, C14H10F19N3O4S2, InChI=1S/C12H10F13N2.C2F6NO4S2/c1-26-4-5-27(6-26)3-2-7(13,14)8(15,16)9(17,18)10(19,20)11(21,22)12(23,24)25;3-1(4,5)14(10,11)9-15(12,13)2(6,7)8/h4-6H,2-3H2,1H3;/q+1;-1
Compound 4: 3-(3,3,4,4,5,5,6,6,7,7,8,8,9,9,10,10,10-heptadecafluorodecyl)-1-methyl-1H-imidazolium bis((trifluoromethyl)sulfonyl)imide, C16H10F23N3O4S2, InChI=1S/C14H10F17N2.C2F6NO4S2/c1-32-4-5-33(6-32)3-2-7(15,16)8(17,18)9(19,20)10(21,22)11(23,24)12(25,26)13(27,28)14(29,30)31;3-1(4,5)14(10,11)9-15(12,13)2(6,7)8/h4-6H,2-3H2,1H3;/q+1;-1

System: 1-methyl-3-(3,3,4,4,4-pentafluorobutyl)-1H-imidazolium bis((trifluoromethyl)sulfonyl)imide; phases: Liquid, Gas
Property: Molar enthalpy of vaporization or sublimation, kJ/mol (Liquid); method: Derived by Second law
Temperature, K	Molar enthalpy of vaporization or sublimation, kJ/mol	uncertainty
370.1	130	2.6

System: 1-methyl-3-(3,3,4,4,4-pentafluorobutyl)-1H-imidazolium bis((trifluoromethyl)sulfonyl)imide; phases: Liquid, Gas
Property: Molar enthalpy of vaporization or sublimation, kJ/mol (Liquid); method: TGA
Temperature, K	Molar enthalpy of vaporization or sublimation, kJ/mol	uncertainty
527.7	113.8	2.6

System: 1-methyl-3-(3,3,4,4,5,5,6,6,6-nonafluorohexyl)-1H-imidazolium 1,1,1-trifluoro-N-[(trifluoromethyl)sulfonyl]methanesulfonamide; phases: Liquid, Gas
Property: Molar enthalpy of vaporization or sublimation, kJ/mol (Liquid); method: Derived by Second law
Temperature, K	Molar enthalpy of vaporization or sublimation, kJ/mol	uncertainty
371.1	137.6	2.6

System: 1-methyl-3-(3,3,4,4,5,5,6,6,6-nonafluorohexyl)-1H-imidazolium 1,1,1-trifluoro-N-[(trifluoromethyl)sulfonyl]methanesulfonamide; phases: Liquid, Gas
Property: Molar enthalpy of vaporization or sublimation, kJ/mol (Liquid); method: TGA
Temperature, K	Molar enthalpy of vaporization or sublimation, kJ/mol	uncertainty
532.48	116.1	3

System: 1-methyl-3-(3,3,4,4,5,5,6,6,7,7,8,8,8-tridecafluorooctyl)imidazolium bis(trifluoromethylsulfonyl)imide; phases: Liquid, Gas
Property: Molar enthalpy of vaporization or sublimation, kJ/mol (Liquid); method: Derived by Second law
Temperature, K	Molar enthalpy of vaporization or sublimation, kJ/mol	uncertainty
376.2	142.5	2.6

System: 1-methyl-3-(3,3,4,4,5,5,6,6,7,7,8,8,8-tridecafluorooctyl)imidazolium bis(trifluoromethylsulfonyl)imide; phases: Liquid, Gas
Property: Molar enthalpy of vaporization or sublimation, kJ/mol (Liquid); method: TGA
Temperature, K	Molar enthalpy of vaporization or sublimation, kJ/mol	uncertainty
532.3	125.9	2.8

System: 3-(3,3,4,4,5,5,6,6,7,7,8,8,9,9,10,10,10-heptadecafluorodecyl)-1-methyl-1H-imidazolium bis((trifluoromethyl)sulfonyl)imide; phases: Liquid, Gas
Property: Molar enthalpy of vaporization or sublimation, kJ/mol (Liquid); method: Derived by Second law
Temperature, K	Molar enthalpy of vaporization or sublimation, kJ/mol	uncertainty
381.4	148.1	2.7

System: 3-(3,3,4,4,5,5,6,6,7,7,8,8,9,9,10,10,10-heptadecafluorodecyl)-1-methyl-1H-imidazolium bis((trifluoromethyl)sulfonyl)imide; phases: Liquid, Gas
Property: Molar enthalpy of vaporization or sublimation, kJ/mol (Liquid); method: TGA
Temperature, K	Molar enthalpy of vaporization or sublimation, kJ/mol	uncertainty
531.8	127.7	2.8
