Measured thermophysical data. Excess molar volumes and excess molar enthalpies of binary mixtures for 1,2-dichloropropane + 2-alkoxyethanol acetates at 298.15K
Source: Thermochim. Acta, 2008, 10.1016/j.tca.2008.02.008
Compound 1: 1,2-dichloropropane, C3H6Cl2, InChI=1S/C3H6Cl2/c1-3(5)2-4/h3H,2H2,1H3
Compound 2: 2-methoxyethyl ethanoate, C5H10O3, InChI=1S/C5H10O3/c1-5(6)8-4-3-7-2/h3-4H2,1-2H3
Compound 3: 2-ethoxyethyl ethanoate, C6H12O3, InChI=1S/C6H12O3/c1-3-8-4-5-9-6(2)7/h3-5H2,1-2H3
Compound 4: 2-butoxyethyl acetate, C8H16O3, InChI=1S/C8H16O3/c1-3-4-5-10-6-7-11-8(2)9/h3-7H2,1-2H3

System: 1,2-dichloropropane; phases: Liquid
Property: Refractive index (Na D-line) (Liquid); method: REFRACT
Temperature, K	Pressure, kPa	Refractive index (Na D-line)	uncertainty
298.15	101.325	1.43653	0.00023

System: 1,2-dichloropropane; phases: Liquid
Property: Mass density, kg/m3 (Liquid); method: Vibrating tube method
Temperature, K	Pressure, kPa	Mass density, kg/m3	uncertainty
298.15	101.325	1148.95	0.46

System: 2-methoxyethyl ethanoate; phases: Liquid
Property: Refractive index (Na D-line) (Liquid); method: REFRACT
Temperature, K	Pressure, kPa	Refractive index (Na D-line)	uncertainty
298.15	101.325	1.39988	0.00023

System: 2-methoxyethyl ethanoate; phases: Liquid
Property: Mass density, kg/m3 (Liquid); method: Vibrating tube method
Temperature, K	Pressure, kPa	Mass density, kg/m3	uncertainty
298.15	101.325	999.76	0.3

System: 2-ethoxyethyl ethanoate; phases: Liquid
Property: Refractive index (Na D-line) (Liquid); method: REFRACT
Temperature, K	Pressure, kPa	Refractive index (Na D-line)	uncertainty
298.15	101.325	1.40311	0.00042

System: 2-ethoxyethyl ethanoate; phases: Liquid
Property: Mass density, kg/m3 (Liquid); method: Vibrating tube method
Temperature, K	Pressure, kPa	Mass density, kg/m3	uncertainty
298.15	101.325	967.36	1.03

System: 2-butoxyethyl acetate; phases: Liquid
Property: Refractive index (Na D-line) (Liquid); method: REFRACT
Temperature, K	Pressure, kPa	Refractive index (Na D-line)	uncertainty
298.15	101.325	1.41183	0.00023

System: 2-butoxyethyl acetate; phases: Liquid
Property: Mass density, kg/m3 (Liquid); method: Vibrating tube method
Temperature, K	Pressure, kPa	Mass density, kg/m3	uncertainty
298.15	101.325	935.12	0.3

System: 1,2-dichloropropane + 2-methoxyethyl ethanoate; phases: Liquid
Fixed: Temperature, K = 298.15
Fixed: Pressure, kPa = 101
Property: Excess molar enthalpy (molar enthalpy of mixing), kJ/mol (Liquid); method: Flow calorimetry
Mole fraction of 1,2-dichloropropane	Excess molar enthalpy (molar enthalpy of mixing), kJ/mol	uncertainty
0.0464	-0.0588	0.0018
0.0936	-0.1057	0.002
0.1401	-0.1528	0.0023
0.2084	-0.2141	0.0026
0.253	-0.2511	0.0029
0.2969	-0.2818	0.003
0.3402	-0.3129	0.0032
0.4038	-0.3429	0.0034
0.4454	-0.3571	0.0035
0.5066	-0.3705	0.0036
0.5467	-0.3746	0.0037
0.6056	-0.3705	0.0036
0.6442	-0.3615	0.0036
0.701	-0.3394	0.0034
0.7566	-0.3122	0.0032
0.811	-0.266	0.0029
0.8466	-0.2298	0.0027
0.8991	-0.1681	0.0024
0.9505	-0.0909	0.0019

System: 1,2-dichloropropane + 2-methoxyethyl ethanoate; phases: Liquid
Fixed: Temperature, K = 298.15
Fixed: Pressure, kPa = 101
Property: Excess molar volume, m3/mol (Liquid); method: Calculated with densities of this investigation
Mole fraction of 1,2-dichloropropane	Excess molar volume, m3/mol	uncertainty
0.0477	1.11e-08	1e-08
0.0992	2.44e-08	1.01e-08
0.1453	3.72e-08	1.01e-08
0.1966	4.43e-08	1.01e-08
0.2509	4.97e-08	1.01e-08
0.2966	5.45e-08	1.02e-08
0.3471	5.7e-08	1.02e-08
0.3942	5.93e-08	1.02e-08
0.448	6.13e-08	1.02e-08
0.5	6.02e-08	1.02e-08
0.5496	5.87e-08	1.02e-08
0.5997	5.66e-08	1.02e-08
0.6483	5.36e-08	1.02e-08
0.7003	4.95e-08	1.01e-08
0.7496	4.3e-08	1.01e-08
0.7987	3.54e-08	1.01e-08
0.8506	2.93e-08	1.01e-08
0.8976	2.04e-08	1.01e-08
0.9501	9.9e-09	1e-08

System: 1,2-dichloropropane + 2-ethoxyethyl ethanoate; phases: Liquid
Fixed: Temperature, K = 298.15
Fixed: Pressure, kPa = 101
Property: Excess molar enthalpy (molar enthalpy of mixing), kJ/mol (Liquid); method: Flow calorimetry
Mole fraction of 1,2-dichloropropane	Excess molar enthalpy (molar enthalpy of mixing), kJ/mol	uncertainty
0.0532	-0.0732	0.0019
0.1067	-0.1266	0.0021
0.1585	-0.1993	0.0025
0.2088	-0.2485	0.0028
0.2575	-0.2899	0.0031
0.3049	-0.3232	0.0033
0.351	-0.352	0.0035
0.3957	-0.3738	0.0037
0.4605	-0.3964	0.0038
0.5022	-0.4031	0.0039
0.5428	-0.4049	0.0039
0.6017	-0.3985	0.0039
0.6583	-0.3875	0.0038
0.6949	-0.3677	0.0036
0.748	-0.3324	0.0034
0.7991	-0.2877	0.0031
0.8485	-0.2364	0.0028
0.896	-0.1754	0.0024
0.9569	-0.0829	0.0019

System: 1,2-dichloropropane + 2-ethoxyethyl ethanoate; phases: Liquid
Fixed: Temperature, K = 298.15
Fixed: Pressure, kPa = 101
Property: Excess molar volume, m3/mol (Liquid); method: Calculated with densities of this investigation
Mole fraction of 1,2-dichloropropane	Excess molar volume, m3/mol	uncertainty
0.0446	-2.6e-09	1e-08
0.0924	-3.6e-09	1e-08
0.1427	-3.2e-09	1e-08
0.2032	-1.5e-09	1e-08
0.2473	9e-10	1e-08
0.297	2.7e-09	1e-08
0.3504	5.6e-09	1e-08
0.3974	8.2e-09	1e-08
0.4454	9.8e-09	1e-08
0.4983	1.09e-08	1e-08
0.5465	1.16e-08	1e-08
0.5984	1.13e-08	1e-08
0.6432	1.07e-08	1e-08
0.6978	9.4e-09	1e-08
0.7475	7.5e-09	1e-08
0.7943	5.4e-09	1e-08
0.8505	3.1e-09	1e-08
0.8997	1.7e-09	1e-08
0.9491	7e-10	1e-08

System: 1,2-dichloropropane + 2-butoxyethyl acetate; phases: Liquid
Fixed: Temperature, K = 298.15
Fixed: Pressure, kPa = 101
Property: Excess molar enthalpy (molar enthalpy of mixing), kJ/mol (Liquid); method: Flow calorimetry
Mole fraction of 1,2-dichloropropane	Excess molar enthalpy (molar enthalpy of mixing), kJ/mol	uncertainty
0.0659	-0.0943	0.002
0.0985	-0.1249	0.0021
0.1611	-0.2086	0.0026
0.1911	-0.2281	0.0027
0.2486	-0.2863	0.0031
0.3032	-0.3307	0.0034
0.3549	-0.3678	0.0036
0.4041	-0.3956	0.0038
0.4509	-0.409	0.0039
0.4955	-0.42	0.004
0.5585	-0.4281	0.0041
0.5982	-0.4247	0.0041
0.6545	-0.4091	0.0039
0.7073	-0.3824	0.0037
0.7568	-0.3476	0.0035
0.8035	-0.3043	0.0032
0.8615	-0.238	0.0028
0.9022	-0.1805	0.0024
0.9531	-0.0944	0.002

System: 1,2-dichloropropane + 2-butoxyethyl acetate; phases: Liquid
Fixed: Temperature, K = 298.15
Fixed: Pressure, kPa = 101
Property: Excess molar volume, m3/mol (Liquid); method: Calculated with densities of this investigation
Mole fraction of 1,2-dichloropropane	Excess molar volume, m3/mol	uncertainty
0.0537	-5.2e-09	1e-08
0.1015	-1.05e-08	1e-08
0.1496	-1.44e-08	1e-08
0.1999	-1.88e-08	1.01e-08
0.2481	-2.28e-08	1.01e-08
0.297	-2.61e-08	1.01e-08
0.3458	-2.86e-08	1.01e-08
0.3982	-3.08e-08	1.01e-08
0.4486	-3.15e-08	1.01e-08
0.5023	-3.16e-08	1.01e-08
0.5502	-3.03e-08	1.01e-08
0.6023	-2.81e-08	1.01e-08
0.6516	-2.61e-08	1.01e-08
0.7002	-2.38e-08	1.01e-08
0.7495	-1.88e-08	1.01e-08
0.8005	-1.49e-08	1e-08
0.8585	-1.07e-08	1e-08
0.8989	-5.4e-09	1e-08
0.9505	-1.5e-09	1e-08
