Measured thermophysical data. The relationship between side chain isomerism of aliphatic C4 substituted 1,3,5-benzenetricarboxylamides and nucleation effects in isotactic polypropylene
Source: Thermochim. Acta, 2017, 10.1016/j.tca.2017.07.003
Compound 1: N,N',N''-tris(tert-butyl)-1,3,5-benzenetricarboxamide, C21H33N3O3, InChI=1S/C21H33N3O3/c1-19(2,3)22-16(25)13-10-14(17(26)23-20(4,5)6)12-15(11-13)18(27)24-21(7,8)9/h10-12H,1-9H3,(H,22,25)(H,23,26)(H,24,27)
Compound 2: N,N',N''-tris(2-methylpropyl)-1,3,5-benzenetricarboxamide, C21H33N3O3, InChI=1S/C21H33N3O3/c1-13(2)10-22-19(25)16-7-17(20(26)23-11-14(3)4)9-18(8-16)21(27)24-12-15(5)6/h7-9,13-15H,10-12H2,1-6H3,(H,22,25)(H,23,26)(H,24,27)
Compound 3: N,N',N''-tributyl-1,3,5-benzenetricarboxamide, C21H33N3O3, InChI=1S/C21H33N3O3/c1-4-7-10-22-19(25)16-13-17(20(26)23-11-8-5-2)15-18(14-16)21(27)24-12-9-6-3/h13-15H,4-12H2,1-3H3,(H,22,25)(H,23,26)(H,24,27)

System: N,N',N''-tris(tert-butyl)-1,3,5-benzenetricarboxamide; phases: Crystal, Liquid, Air at 1 atmosphere
Property: Normal melting temperature, K (Crystal); method: DTA
Normal melting temperature, K	uncertainty
577.15	1

System: N,N',N''-tris(2-methylpropyl)-1,3,5-benzenetricarboxamide; phases: Crystal, Liquid, Air at 1 atmosphere
Property: Normal melting temperature, K (Crystal); method: DTA
Normal melting temperature, K	uncertainty
573.15	1

System: N,N',N''-tributyl-1,3,5-benzenetricarboxamide; phases: Crystal, Liquid, Air at 1 atmosphere
Property: Normal melting temperature, K (Crystal); method: DTA
Normal melting temperature, K	uncertainty
502.15	1
