Measured thermophysical data. Enthalpies and heat capacities of interaction of tetraalkylammonium bromides with hexamethyl  phosphoric triamide in water, methanol and ethylene glycol: the comparative analysis of aqueous and  non-aqueous systems
Source: Thermochim. Acta, 2012, 10.1016/j.tca.2012.06.019
Compound 1: methanol, CH4O, InChI=1S/CH4O/c1-2/h2H,1H3, purity 99.99%
Compound 2: 1,2-ethanediol, C2H6O2, InChI=1S/C2H6O2/c3-1-2-4/h3-4H,1-2H2, purity 99.5%
Compound 3: tris(dimethylamino)phosphine oxide, C6H18N3OP, InChI=1S/C6H18N3OP/c1-7(2)11(10,8(3)4)9(5)6/h1-6H3, purity 98%
Compound 4: tetrabutylammonium bromide, C16H36BrN, InChI=1S/C16H36N.BrH/c1-5-9-13-17(14-10-6-2,15-11-7-3)16-12-8-4;/h5-16H2,1-4H3;1H/q+1;/p-1, purity 99%
Compound 5: tetraethylammonium bromide, C8H20BrN, InChI=1S/C8H20N.BrH/c1-5-9(6-2,7-3)8-4;/h5-8H2,1-4H3;1H/q+1;/p-1, purity 99%

System: methanol + tetraethylammonium bromide; phases: Liquid
Fixed: Pressure, kPa = 101
Fixed: Mole fraction of tetraethylammonium bromide = 0
Property: Molar enthalpy of solution, kJ/mol (Liquid); method: ISOPERIBOL
Temperature, K	Molar enthalpy of solution, kJ/mol	uncertainty
298.15	18.27	0.18
313.15	18.1	0.18

System: methanol + tetrabutylammonium bromide; phases: Liquid
Fixed: Pressure, kPa = 101
Fixed: Mole fraction of tetrabutylammonium bromide = 0
Property: Molar enthalpy of solution, kJ/mol (Liquid); method: ISOPERIBOL
Temperature, K	Molar enthalpy of solution, kJ/mol	uncertainty
298.15	16.72	0.17
313.15	17.18	0.17

System: tetraethylammonium bromide + 1,2-ethanediol; phases: Liquid
Fixed: Pressure, kPa = 101
Fixed: Mole fraction of tetraethylammonium bromide = 0
Property: Molar enthalpy of solution, kJ/mol (Liquid); method: ISOPERIBOL
Temperature, K	Molar enthalpy of solution, kJ/mol	uncertainty
298.15	21.02	0.21
313.15	21.71	0.22

System: 1,2-ethanediol + tetrabutylammonium bromide; phases: Liquid
Fixed: Pressure, kPa = 101
Fixed: Mole fraction of tetrabutylammonium bromide = 0
Property: Molar enthalpy of solution, kJ/mol (Liquid); method: ISOPERIBOL
Temperature, K	Molar enthalpy of solution, kJ/mol	uncertainty
298.15	28.66	0.29
313.15	30.2	0.3

System: methanol + tetraethylammonium bromide + tris(dimethylamino)phosphine oxide; phases: Liquid
Fixed: Pressure, kPa = 101
Fixed: Mole fraction of tetraethylammonium bromide = 0
Property: Molar enthalpy of solution, kJ/mol (Liquid); method: ISOPERIBOL
Temperature, K	Solvent: Mole fraction of tris(dimethylamino)phosphine oxide	Molar enthalpy of solution, kJ/mol	uncertainty
298.15	0	18.27	0.18
298.15	0.0112	18.76	0.19
298.15	0.0333	19.44	0.19
298.15	0.0648	19.91	0.2
298.15	0.0969	20.32	0.2
298.15	0.1069	20.43	0.2
298.15	0.1473	20.69	0.21
298.15	0.1998	20.79	0.21
298.15	0.2447	20.83	0.21
313.15	0	18.1	0.18
313.15	0.0118	18.46	0.18
313.15	0.0182	18.75	0.19
313.15	0.0428	19.42	0.19
313.15	0.0702	19.99	0.2
313.15	0.1048	20.51	0.21
313.15	0.1916	21.15	0.21
313.15	0.2611	21.47	0.21
313.15	0.2993	21.48	0.21

System: methanol + tris(dimethylamino)phosphine oxide + tetrabutylammonium bromide; phases: Liquid
Fixed: Pressure, kPa = 101
Fixed: Mole fraction of tetrabutylammonium bromide = 0
Property: Molar enthalpy of solution, kJ/mol (Liquid); method: ISOPERIBOL
Temperature, K	Solvent: Mole fraction of tris(dimethylamino)phosphine oxide	Molar enthalpy of solution, kJ/mol	uncertainty
298.15	0	16.72	0.17
298.15	0.0453	17.74	0.18
298.15	0.1012	18.75	0.19
298.15	0.2036	19.64	0.2
298.15	0.3086	20.35	0.2
313.15	0	17.18	0.17
313.15	0.0509	18.47	0.18
313.15	0.0968	19.15	0.19
313.15	0.1965	20.26	0.2
313.15	0.2495	20.91	0.21
313.15	0.2929	21.06	0.21

System: tetraethylammonium bromide + 1,2-ethanediol + tris(dimethylamino)phosphine oxide; phases: Liquid
Fixed: Pressure, kPa = 101
Fixed: Mole fraction of tetraethylammonium bromide = 0
Property: Molar enthalpy of solution, kJ/mol (Liquid); method: ISOPERIBOL
Temperature, K	Solvent: Mole fraction of tris(dimethylamino)phosphine oxide	Molar enthalpy of solution, kJ/mol	uncertainty
298.15	0	21.02	0.21
298.15	0.0371	20.77	0.21
298.15	0.0623	20.55	0.21
298.15	0.0959	20.23	0.2
298.15	0.1261	19.98	0.2
298.15	0.1543	19.78	0.2
298.15	0.2173	19.42	0.19
313.15	0	21.71	0.22
313.15	0.0311	21.5	0.22
313.15	0.063	21.21	0.21
313.15	0.1062	20.87	0.21
313.15	0.1866	20.2	0.2
313.15	0.2454	19.76	0.2

System: 1,2-ethanediol + tris(dimethylamino)phosphine oxide + tetrabutylammonium bromide; phases: Liquid
Fixed: Pressure, kPa = 101
Fixed: Mole fraction of tetrabutylammonium bromide = 0
Property: Molar enthalpy of solution, kJ/mol (Liquid); method: ISOPERIBOL
Temperature, K	Solvent: Mole fraction of tris(dimethylamino)phosphine oxide	Molar enthalpy of solution, kJ/mol	uncertainty
298.15	0	28.66	0.29
298.15	0.0473	27.07	0.27
298.15	0.0947	25.71	0.26
298.15	0.1375	24.71	0.25
298.15	0.2012	23.41	0.23
298.15	0.2324	22.79	0.23
313.15	0	30.2	0.3
313.15	0.0248	29.48	0.29
313.15	0.0542	28.52	0.29
313.15	0.0994	27.56	0.28
313.15	0.1716	25.96	0.26
313.15	0.219	25.19	0.25
