Measured thermophysical data. Measurement and correlation of the solubility of maleic acid in acetone-ethyl acetate mixtures
Source: Thermochim. Acta, 2012, 10.1016/j.tca.2012.03.023
Compound 1: cis-1,4-butenedioic acid, C4H4O4, InChI=1S/C4H4O4/c5-3(6)1-2-4(7)8/h1-2H,(H,5,6)(H,7,8)/b2-1-, purity 99.5%
Compound 2: acetone, C3H6O, InChI=1S/C3H6O/c1-3(2)4/h1-2H3, purity 99%
Compound 3: ethyl acetate, C4H8O2, InChI=1S/C4H8O2/c1-3-6-4(2)5/h3H2,1-2H3, purity 99%

System: acetone + cis-1,4-butenedioic acid; phases: Liquid, Crystal
Fixed: Pressure, kPa = 101
Property: Mole fraction of cis-1,4-butenedioic acid (Liquid); method: Gravimetric
Temperature, K	Mole fraction of cis-1,4-butenedioic acid	uncertainty
285.15	0.1148	0.0021
291.15	0.1285	0.002
296.15	0.1395	0.0043
300.15	0.1492	0.0039
304.15	0.1599	0.003
308.15	0.1716	0.0057
313.15	0.1878	0.0046
316.25	0.1988	0.0056
320.85	0.2166	0.0019
324.25	0.231	0.0034

System: cis-1,4-butenedioic acid + ethyl acetate; phases: Liquid, Crystal
Fixed: Pressure, kPa = 101
Property: Mole fraction of cis-1,4-butenedioic acid (Liquid); method: OTHER::sMethod:Gravimetric
Temperature, K	Mole fraction of cis-1,4-butenedioic acid	uncertainty
285.15	0.0188	0.0012
291.15	0.0244	0.003
296.15	0.0298	0.0024
300.15	0.035	0.0052
304.15	0.041	0.0062
308.15	0.0471	0.0015
313.15	0.057	0.0048
316.25	0.064	0.0032
320.85	0.0759	0.0056
324.25	0.0867	0.0064

System: acetone + cis-1,4-butenedioic acid + ethyl acetate; phases: Liquid, Crystal
Fixed: Pressure, kPa = 101
Property: Mole fraction of cis-1,4-butenedioic acid (Liquid); method: Gravimetric
Temperature, K	Solvent: Mole fraction of ethyl acetate	Mole fraction of cis-1,4-butenedioic acid	uncertainty
285.15	0	0.1148	0.0021
285.15	0.4	0.079	0.0023
285.15	0.8	0.0363	0.0042
291.15	0	0.1285	0.002
291.15	0.4	0.09	0.0019
291.15	0.8	0.0441	0.0038
296.15	0	0.1395	0.0043
296.15	0.4	0.1003	0.0033
296.15	0.8	0.0516	0.0018
300.15	0	0.1492	0.0039
300.15	0.4	0.1089	0.0021
300.15	0.8	0.0578	0.0054
304.15	0	0.1599	0.003
304.15	0.4	0.1191	0.0043
304.15	0.8	0.0651	0.0036
308.15	0	0.1716	0.0057
308.15	0.4	0.1298	0.0037
308.15	0.8	0.0735	0.0046
313.15	0	0.1878	0.0046
313.15	0.4	0.1442	0.0053
313.15	0.8	0.0852	0.0025
316.25	0	0.1988	0.0056
316.25	0.4	0.1541	0.0045
316.25	0.8	0.093	0.0041
320.85	0	0.2166	0.0019
320.85	0.4	0.1708	0.0017
320.85	0.8	0.1079	0.0058
324.25	0	0.231	0.0034
324.25	0.4	0.1832	0.0063
324.25	0.8	0.1182	0.0068
