Measured thermophysical data. Thermodynamic properties of binary mixtures containing Tetrahydropyran: Excess molar volumes, Excess molar enthalpies and isentropic compressibilities changes of mixing
Source: Thermochim. Acta, 2010, 10.1016/j.tca.2010.03.028
Compound 1: tetrahydropyran, C5H10O, InChI=1S/C5H10O/c1-2-4-6-5-3-1/h1-5H2
Compound 2: cyclohexane, C6H12, InChI=1S/C6H12/c1-2-4-6-5-3-1/h1-6H2
Compound 3: hexane, C6H14, InChI=1S/C6H14/c1-3-5-6-4-2/h3-6H2,1-2H3
Compound 4: heptane, C7H16, InChI=1S/C7H16/c1-3-5-7-6-4-2/h3-7H2,1-2H3

System: hexane + tetrahydropyran; phases: Liquid
Fixed: Pressure, kPa = 101
Fixed: Temperature, K = 308.15
Property: Excess molar enthalpy (molar enthalpy of mixing), kJ/mol (Liquid); method: Calvet calorimetry
Mole fraction of tetrahydropyran	Excess molar enthalpy (molar enthalpy of mixing), kJ/mol	uncertainty
0.0581	0.1031	0.0026
0.1073	0.1841	0.0042
0.1962	0.3136	0.0069
0.2274	0.3533	0.0078
0.3276	0.4579	0.01
0.3888	0.5032	0.0109
0.4395	0.5292	0.0115
0.4968	0.5452	0.0118
0.522	0.5477	0.0119
0.5931	0.5387	0.0117
0.6634	0.5061	0.011
0.7514	0.4307	0.0094
0.8124	0.3551	0.0078
0.8997	0.2131	0.0048

System: hexane + tetrahydropyran; phases: Liquid
Fixed: Pressure, kPa = 101
Fixed: Temperature, K = 308.15
Property: Speed of sound, m/s (Liquid); method: Linear variable-path acoustic interferometer
Mole fraction of tetrahydropyran	Speed of sound, m/s	uncertainty
0.0981	1054	3
0.1578	1067	3
0.1965	1075	3
0.2955	1093	3
0.3313	1099	3
0.3955	1110	3
0.4469	1118	3
0.4947	1126	3
0.5211	1130	3
0.5955	1143	3
0.6955	1161	3
0.7311	1168	3
0.7965	1181	3
0.8992	1203	3

System: hexane + tetrahydropyran; phases: Liquid
Fixed: Pressure, kPa = 101
Fixed: Temperature, K = 308.15
Property: Excess molar volume, m3/mol (Liquid); method: Direct dilatometry
Mole fraction of tetrahydropyran	Excess molar volume, m3/mol	uncertainty
0.0328	1.4e-08	2e-09
0.0459	1.9e-08	2e-09
0.0694	2.7e-08	2e-09
0.0785	3e-08	2e-09
0.1294	4.4e-08	2e-09
0.1561	4.9e-08	2e-09
0.2753	6.4e-08	2e-09
0.3262	6.6e-08	2e-09
0.4629	6.2e-08	2e-09
0.515	5.8e-08	2e-09
0.6692	4.2e-08	2e-09
0.7837	2.8e-08	2e-09
0.8461	2e-08	2e-09
0.9239	1e-08	2e-09

System: tetrahydropyran + heptane; phases: Liquid
Fixed: Pressure, kPa = 101
Fixed: Temperature, K = 308.15
Property: Excess molar enthalpy (molar enthalpy of mixing), kJ/mol (Liquid); method: Calvet calorimetry
Mole fraction of tetrahydropyran	Excess molar enthalpy (molar enthalpy of mixing), kJ/mol	uncertainty
0.0842	0.162	0.0038
0.1777	0.3331	0.0073
0.2324	0.4218	0.0092
0.3339	0.5522	0.012
0.3741	0.5891	0.0128
0.4413	0.6296	0.0136
0.5008	0.6422	0.0139
0.5989	0.614	0.0133
0.6821	0.5439	0.0118
0.7124	0.5087	0.011
0.7654	0.4358	0.0095
0.8325	0.3259	0.0072
0.8778	0.2429	0.0054
0.9213	0.1584	0.0037

System: tetrahydropyran + heptane; phases: Liquid
Fixed: Pressure, kPa = 101
Fixed: Temperature, K = 308.15
Property: Speed of sound, m/s (Liquid); method: Linear variable-path acoustic interferometer
Mole fraction of tetrahydropyran	Speed of sound, m/s	uncertainty
0.0833	1100	3
0.1323	1107	3
0.1977	1117	3
0.2396	1127	3
0.3245	1137	3
0.3812	1145	3
0.4396	1154	3
0.5033	1163	3
0.5684	1172	3
0.6161	1178	3
0.688	1187	3
0.7646	1197	3
0.8223	1204	3
0.9044	1213	3

System: tetrahydropyran + heptane; phases: Liquid
Fixed: Pressure, kPa = 101
Fixed: Temperature, K = 308.15
Property: Excess molar volume, m3/mol (Liquid); method: Direct dilatometry
Mole fraction of tetrahydropyran	Excess molar volume, m3/mol	uncertainty
0.0543	5.7e-08	2e-09
0.113	1.11e-07	3e-09
0.2031	1.77e-07	3e-09
0.2613	2.1e-07	3e-09
0.2998	2.28e-07	3e-09
0.3475	2.45e-07	3e-09
0.3991	2.58e-07	4e-09
0.4441	2.65e-07	4e-09
0.4964	2.68e-07	4e-09
0.5601	2.64e-07	4e-09
0.6107	2.55e-07	3e-09
0.7123	2.2e-07	3e-09
0.8011	1.72e-07	3e-09
0.8999	9.8e-08	2e-09

System: cyclohexane + tetrahydropyran; phases: Liquid
Fixed: Pressure, kPa = 101
Fixed: Temperature, K = 308.15
Property: Excess molar enthalpy (molar enthalpy of mixing), kJ/mol (Liquid); method: Calvet calorimetry
Mole fraction of tetrahydropyran	Excess molar enthalpy (molar enthalpy of mixing), kJ/mol	uncertainty
0.0634	0.1336	0.0032
0.1146	0.2283	0.0051
0.2073	0.3682	0.0081
0.2734	0.4424	0.0097
0.3379	0.4938	0.0107
0.3805	0.5165	0.0112
0.4339	0.5324	0.0116
0.5322	0.5262	0.0114
0.6045	0.4937	0.0107
0.6848	0.4322	0.0094
0.7529	0.3613	0.0079
0.7939	0.3113	0.0069
0.8564	0.226	0.0051
0.8976	0.1648	0.0038

System: cyclohexane + tetrahydropyran; phases: Liquid
Fixed: Pressure, kPa = 101
Fixed: Temperature, K = 308.15
Property: Speed of sound, m/s (Liquid); method: Linear variable-path acoustic interferometer
Mole fraction of tetrahydropyran	Speed of sound, m/s	uncertainty
0.0785	1209	3
0.161	1205	3
0.1965	1204	3
0.2477	1202	3
0.3378	1200	3
0.3879	1199	3
0.433	1199	3
0.4712	1199	3
0.5344	1200	3
0.5988	1202	3
0.6421	1203	3
0.7533	1209	3
0.8066	1212	3

System: cyclohexane + tetrahydropyran; phases: Liquid
Fixed: Pressure, kPa = 101
Fixed: Temperature, K = 308.15
Property: Excess molar volume, m3/mol (Liquid); method: Direct dilatometry
Mole fraction of tetrahydropyran	Excess molar volume, m3/mol	uncertainty
0.0648	9.1e-08	2e-09
0.1372	1.72e-07	3e-09
0.1954	2.24e-07	3e-09
0.2351	2.53e-07	3e-09
0.303	2.9e-07	4e-09
0.3575	3.1e-07	4e-09
0.4351	3.23e-07	4e-09
0.4911	3.22e-07	4e-09
0.5412	3.14e-07	4e-09
0.6536	2.76e-07	4e-09
0.721	2.4e-07	3e-09
0.7952	1.9e-07	3e-09
0.8827	1.17e-07	3e-09
0.9325	7e-08	2e-09
