Measured thermophysical data. Isomorphism and phase diagram of Pb5(PO4)3F-Pb5(PO4)3Cl system
Source: Thermochim. Acta, 2011, 10.1016/j.tca.2010.11.020
Compound 1: lead, Pb, InChI=1S/Pb
Compound 2: phosphorus, P, InChI=1S/P
Compound 3: fluorine, F2, InChI=1S/F2/c1-2
Compound 4: oxygen, O2, InChI=1S/O2/c1-2
Compound 5: chlorine, Cl2, InChI=1S/Cl2/c1-2
Compound 6: Lead fluoride phosphate (Pb5F(PO4)3), FO12P3Pb5, InChI=1S/FH.3H3O4P.5Pb/c;3*1-5(2,3)4;;;;;/h1H;3*(H3,1,2,3,4);;;;;/q;;;;5*+2/p-10
Compound 7: Lead chloride phosphate (Pb5Cl(PO4)3), ClO12P3Pb5, InChI=1S/ClH.3H3O4P.5Pb/c;3*1-5(2,3)4;;;;;/h1H;3*(H3,1,2,3,4);;;;;/q;;;;5*+2/p-10

System: Lead fluoride phosphate (Pb5F(PO4)3); phases: Crystal 2, Crystal 1, Air at 1 atmosphere
Property: Triple point temperature, K (Crystal 2); method: DTA
Triple point temperature, K	uncertainty
1073	1

System: Lead fluoride phosphate (Pb5F(PO4)3); phases: Crystal 1, Liquid, Air at 1 atmosphere
Property: Triple point temperature, K (Crystal 1); method: DTA
Triple point temperature, K	uncertainty
1289	1

System: Lead fluoride phosphate (Pb5F(PO4)3); phases: Crystal 2
Fixed: Pressure, kPa = 101.325
Property: Mass density, kg/m3 (Crystal 2); method: X-ray diffraction
Temperature, K	Mass density, kg/m3	uncertainty
298	7160	360
373	7140	350
473	7110	350
573	7060	350
673	7040	340
773	7000	340
873	6960	340
973	6910	330
1023	6880	330
1073	6830	320

System: Lead chloride phosphate (Pb5Cl(PO4)3); phases: Crystal 2, Crystal 1, Air at 1 atmosphere
Property: Triple point temperature, K (Crystal 2); method: DTA
Triple point temperature, K	uncertainty
1084	1

System: Lead chloride phosphate (Pb5Cl(PO4)3); phases: Crystal 1, Liquid, Air at 1 atmosphere
Property: Triple point temperature, K (Crystal 1); method: DTA
Triple point temperature, K	uncertainty
1415	1

System: Lead chloride phosphate (Pb5Cl(PO4)3); phases: Crystal 2
Fixed: Pressure, kPa = 101.325
Property: Mass density, kg/m3 (Crystal 2); method: X-ray diffraction
Temperature, K	Mass density, kg/m3	uncertainty
298	7150	360
373	7130	350
473	7100	350
573	7070	350
673	7030	340
773	6990	340
873	6950	340
973	6910	330
1073	6870	330

Reaction: 1 Lead fluoride phosphate (Pb5F(PO4)3) + -5 lead + -3 phosphorus + -.5 fluorine + -6 oxygen
Property: Molar enthalpy of reaction, kJ/mol
-3954

Reaction: 1 Lead chloride phosphate (Pb5Cl(PO4)3) + -5 lead + -3 phosphorus + -.5 chlorine + -6 oxygen
Property: Molar enthalpy of reaction, kJ/mol
-3737
