Measured thermophysical data. Heat capacity, enthalpy and entropy of Li2CO3 at 303.15 to 563.15 K
Source: Thermochim. Acta, 2007, 10.1016/j.tca.2006.10.005
Compound 1: lithium carbonate, CLi2O3, InChI=1S/CH2O3.2Li/c2-1(3)4;;/h(H2,2,3,4);;/q;2*+1/p-2, purity 99%

System: lithium carbonate; phases: Crystal
Fixed: Pressure, kPa = 101.325
Property: Molar heat capacity at constant pressure, J/K/mol (Crystal); method: OTHER
Temperature, K	Molar heat capacity at constant pressure, J/K/mol	uncertainty
303.15	99.89	0.63
323.15	100.98	0.85
343.15	107.69	1.03
363.15	111.21	1.08
383.15	115.61	1.28
403.15	116.88	2.38
443.15	120.05	3.73
483.15	129.08	1.87
533.15	132.77	2.86
563.15	137.29	3.1
