Measured thermophysical data. Investigations of thermophysico-chemical properties of Ba2TiSi2O8(s) and Sr2TiSi2O8(s)
Source: Thermochim. Acta, 2018, 10.1016/j.tca.2018.02.003
Compound 1: barium titanium silicate (Ba2Si2TiO8), Ba2O8Si2Ti, InChI=1S/2Ba.2O4Si.Ti/c;;2*1-5(2,3)4;/q2*+2;2*-4;+4, purity 99.9%
Compound 2: strontium titanium silicate (Sr2TiSi2O8), O8Si2Sr2Ti, InChI=1S/2O4Si.2Sr.Ti/c2*1-5(2,3)4;;;/q2*-4;2*+2;+4, purity 99.7%

System: barium titanium silicate (Ba2Si2TiO8); phases: Crystal
Fixed: Pressure, kPa = 101.325
Property: Molar heat capacity at constant pressure, J/K/mol (Crystal); method: Small sample (50 mg) DSC
Temperature, K	Molar heat capacity at constant pressure, J/K/mol	uncertainty
300	216.3	24.2
310	228	24.2
320	233.1	26.2
330	238.2	24.2
340	238.2	24.2
350	243.2	26.2
360	243.2	28.2
370	251.5	24.3
380	254.4	24.3
390	253.2	24.3
400	257.7	24.3
410	258.4	24.3
420	263.5	22.3
430	263.9	24.3
440	268.3	24.3
450	269.5	24.3
460	268.6	22.3
470	268.6	22.3
480	268.6	22.3
490	273.6	22.3
500	278.7	22.4
510	278.7	20.4
520	278.7	24.3
530	283.8	24.3
540	283.8	26.3
550	283.8	24.3
560	283.8	26.3
570	288.8	24.3
580	288.8	26.3
590	288.8	18.5
600	288.8	20.4
610	288.8	20.4
620	293.9	22.4
630	293.9	20.4
640	293.9	20.4
650	299	20.4
660	299	20.4
670	304	22.4
680	304	22.4
690	309.1	20.5
700	309.1	24.4
710	309.1	22.4
720	314.2	22.4
730	314.2	20.5
740	319.2	22.5
750	319.2	22.5
760	324.3	24.4
770	324.3	24.4
780	329.4	26.4
790	329.4	24.4
800	334.4	24.5
810	334.4	24.5
820	339.5	26.4
830	344.6	26.5
840	344.6	26.5
850	349.6	28.4
860	354.7	24.5
870	354.7	24.5

System: barium titanium silicate (Ba2Si2TiO8); phases: Crystal
Fixed: Pressure, kPa = 101.325
Property: Thermal diffusivity, m2/s (Crystal); method: Laser flash apparatus
Temperature, K	Thermal diffusivity, m2/s	uncertainty
295	3.7e-07	4e-08
313	3.6e-07	4e-08
366	3.3e-07	4e-08
417	3.2e-07	2e-08
465	3.2e-07	2e-08
518	3.1e-07	2e-08
567	3e-07	2e-08
618	2.8e-07	2e-07
667	2.9e-07	1.8e-07
716	2.8e-07	2e-08
771	2.6e-07	2e-08

System: barium titanium silicate (Ba2Si2TiO8); phases: Crystal
Fixed: Pressure, kPa = 1e-05
Property: Mass density, kg/m3 (Crystal); method: X-ray diffraction
Temperature, K	Mass density, kg/m3	uncertainty
298	4445	13
373	4443	18
473	4424	20
573	4406	25
673	4398	25
773	4390	29
873	4385	30
973	4382	28
1073	4366	30
1173	4352	31
1273	4350	32

System: strontium titanium silicate (Sr2TiSi2O8); phases: Crystal
Fixed: Pressure, kPa = 101.325
Property: Molar heat capacity at constant pressure, J/K/mol (Crystal); method: Small sample (50 mg) DSC
Temperature, K	Molar heat capacity at constant pressure, J/K/mol	uncertainty
300	224.4	18.3
310	229.9	18.3
320	233.9	20.3
330	236.7	16.3
340	239.5	14.4
350	240.5	20.3
360	244.6	20.3
370	245.9	20.3
380	251.6	20.3
390	248.5	24.3
400	252.5	22.3
410	256.6	22.3
420	256.6	22.3
430	260.7	24.3
440	260.7	24.3
450	264.8	24.3
460	264.8	24.3
470	268.8	24.3
480	268.8	24.3
490	272.9	24.3
500	272.9	26.3
510	272.9	22.3
520	277	20.4
530	277	24.3
540	277	24.3
550	281	24.3
560	281	26.3
570	281	28.3
580	285.1	26.3
590	285.1	28.3
600	285.1	26.3
610	285.1	28.3
620	285.1	24.3
630	289.2	24.3
640	289.2	28.3
650	289.2	28.3
660	293.3	28.3
670	293.3	22.4
680	293.3	22.4
690	293.3	22.4
700	297.3	24.4
710	297.3	24.4
720	297.3	24.4
730	301.4	24.4
740	301.4	18.5
750	301.4	18.5
760	301.4	18.5
770	301.4	24.4
780	301.4	24.4
790	305.5	24.4
800	305.5	24.4
810	305.5	24.4
820	305.5	20.5
830	305.5	18.5
840	301.4	18.5
850	305.5	16.6
860	305.5	16.6
870	305.5	16.6

System: strontium titanium silicate (Sr2TiSi2O8); phases: Crystal
Fixed: Pressure, kPa = 101.325
Property: Thermal diffusivity, m2/s (Crystal); method: Laser flash apparatus
Temperature, K	Thermal diffusivity, m2/s	uncertainty
365	2e-07	4e-08
410	2e-07	2e-08
455	1.9e-07	6e-08
500	1.9e-07	2e-08
545	1.9e-07	2e-08
590	1.9e-07	4e-08
635	1.8e-07	2e-08
680	1.8e-07	2e-08
725	1.7e-07	2e-08
770	1.7e-07	2e-08

System: strontium titanium silicate (Sr2TiSi2O8); phases: Crystal
Fixed: Pressure, kPa = 1e-05
Property: Mass density, kg/m3 (Crystal); method: X-ray diffraction
Temperature, K	Mass density, kg/m3	uncertainty
298	3890	18
373	3880	22
473	3869	22
573	3863	26
673	3853	27
773	3838	26
873	3819	25
973	3797	24
1073	3779	26
1173	3761	27
1273	3756	28
