Measured thermophysical data. Experimental solubility of clotrimazole and some thermodynamic aspects of dissolution in different solvents
Source: Thermochim. Acta, 2019, 10.1016/j.tca.2019.178431
Compound 1: 1-((2-chlorophenyl)diphenylmethyl)-1H-imidazole, C22H17ClN2, InChI=1S/C22H17ClN2/c23-21-14-8-7-13-20(21)22(25-16-15-24-17-25,18-9-3-1-4-10-18)19-11-5-2-6-12-19/h1-17H, purity 99.6%
Compound 2: octan-1-ol, C8H18O, InChI=1S/C8H18O/c1-2-3-4-5-6-7-8-9/h9H,2-8H2,1H3, purity 99%
Compound 3: hexane, C6H14, InChI=1S/C6H14/c1-3-5-6-4-2/h3-6H2,1-2H3, purity 97%

System: 1-((2-chlorophenyl)diphenylmethyl)-1H-imidazole; phases: Crystal, Liquid, Air at 1 atmosphere
Property: Normal melting temperature, K (Crystal); method: DTA
Normal melting temperature, K	uncertainty
416.15	0.4

System: 1-((2-chlorophenyl)diphenylmethyl)-1H-imidazole; phases: Crystal, Liquid, Air at 1 atmosphere
Property: Molar enthalpy of transition or fusion, kJ/mol (Crystal); method: DSC
Molar enthalpy of transition or fusion, kJ/mol	uncertainty
34.96	0.85

System: 1-((2-chlorophenyl)diphenylmethyl)-1H-imidazole + octan-1-ol; phases: Liquid, Crystal
Fixed: Pressure, kPa = 100
Property: Mole fraction of 1-((2-chlorophenyl)diphenylmethyl)-1H-imidazole (Liquid); method: spectrophotometry
Temperature, K	Mole fraction of 1-((2-chlorophenyl)diphenylmethyl)-1H-imidazole	uncertainty
293.15	0.000222	1.8e-05
298.15	0.000267	2.2e-05
303.15	0.000319	2.6e-05
308.15	0.000383	3.1e-05
313.15	0.000455	3.7e-05

System: 1-((2-chlorophenyl)diphenylmethyl)-1H-imidazole + hexane; phases: Liquid, Crystal
Fixed: Pressure, kPa = 100
Property: Mole fraction of 1-((2-chlorophenyl)diphenylmethyl)-1H-imidazole (Liquid); method: spectrophotometry
Temperature, K	Mole fraction of 1-((2-chlorophenyl)diphenylmethyl)-1H-imidazole	uncertainty
293.15	0.0204	0.0017
298.15	0.0249	0.002
303.15	0.0304	0.0025
308.15	0.0372	0.003
313.15	0.045	0.0036
