Measured thermophysical data. Measurement and correlation of the solubility of (1-benzyl-1H-1,2,3-triazole-4-yl)methanol in water and alcohols at temperatures from 292.15 K to 310.15 K
Source: Thermochim. Acta, 2016, 10.1016/j.tca.2016.01.009
Compound 1: water, H2O, InChI=1S/H2O/h1H2
Compound 2: methanol, CH4O, InChI=1S/CH4O/c1-2/h2H,1H3, purity 99.5%
Compound 3: ethanol, C2H6O, InChI=1S/C2H6O/c1-2-3/h3H,2H2,1H3, purity 99.7%
Compound 4: propan-1-ol, C3H8O, InChI=1S/C3H8O/c1-2-3-4/h4H,2-3H2,1H3, purity 99.8%
Compound 5: propan-2-ol, C3H8O, InChI=1S/C3H8O/c1-3(2)4/h3-4H,1-2H3, purity 99%
Compound 6: butan-1-ol, C4H10O, InChI=1S/C4H10O/c1-2-3-4-5/h5H,2-4H2,1H3, purity 99.5%
Compound 7: (1-benzyl-1H-1,2,3-triazol-4-yl)methanol, C10H11N3O, InChI=1S/C10H11N3O/c14-8-10-7-13(12-11-10)6-9-4-2-1-3-5-9/h1-5,7,14H,6,8H2, purity 96%

System: (1-benzyl-1H-1,2,3-triazol-4-yl)methanol; phases: Crystal, Liquid, Air at 1 atmosphere
Property: Normal melting temperature, K (Crystal); method: VISOBS
Normal melting temperature, K	uncertainty
351.85	0.48

System: water + (1-benzyl-1H-1,2,3-triazol-4-yl)methanol; phases: Liquid, Crystal
Fixed: Pressure, kPa = 100
Property: Mole fraction of (1-benzyl-1H-1,2,3-triazol-4-yl)methanol (Liquid); method: Titration method
Temperature, K	Mole fraction of (1-benzyl-1H-1,2,3-triazol-4-yl)methanol	uncertainty
292.15	0.00147	6.1e-05
295.15	0.001705	7e-05
298.15	0.001974	8.2e-05
301.15	0.002375	0.0001
304.15	0.002901	0.000123
307.15	0.003562	0.00015
310.15	0.004333	0.000181

System: methanol + (1-benzyl-1H-1,2,3-triazol-4-yl)methanol; phases: Liquid, Crystal
Fixed: Pressure, kPa = 100
Property: Mole fraction of (1-benzyl-1H-1,2,3-triazol-4-yl)methanol (Liquid); method: Titration method
Temperature, K	Mole fraction of (1-benzyl-1H-1,2,3-triazol-4-yl)methanol	uncertainty
292.15	0.1223	0.0029
295.15	0.1462	0.0034
298.15	0.1715	0.0039
301.15	0.2002	0.0044
304.15	0.2221	0.0049
307.15	0.2622	0.0059
310.15	0.2996	0.0065

System: ethanol + (1-benzyl-1H-1,2,3-triazol-4-yl)methanol; phases: Liquid, Crystal
Fixed: Pressure, kPa = 100
Property: Mole fraction of (1-benzyl-1H-1,2,3-triazol-4-yl)methanol (Liquid); method: Titration method
Temperature, K	Mole fraction of (1-benzyl-1H-1,2,3-triazol-4-yl)methanol	uncertainty
292.15	0.05663	0.00137
295.15	0.0681	0.00163
298.15	0.0833	0.00205
301.15	0.1034	0.0026
304.15	0.1285	0.0032
307.15	0.1583	0.0039
310.15	0.1975	0.0048

System: propan-1-ol + (1-benzyl-1H-1,2,3-triazol-4-yl)methanol; phases: Liquid, Crystal
Fixed: Pressure, kPa = 100
Property: Mole fraction of (1-benzyl-1H-1,2,3-triazol-4-yl)methanol (Liquid); method: Titration method
Temperature, K	Mole fraction of (1-benzyl-1H-1,2,3-triazol-4-yl)methanol	uncertainty
292.15	0.04217	0.001
295.15	0.05021	0.00118
298.15	0.06071	0.00146
301.15	0.07423	0.0018
304.15	0.09089	0.00224
307.15	0.1131	0.0028
310.15	0.1411	0.0034

System: propan-2-ol + (1-benzyl-1H-1,2,3-triazol-4-yl)methanol; phases: Liquid, Crystal
Fixed: Pressure, kPa = 100
Property: Mole fraction of (1-benzyl-1H-1,2,3-triazol-4-yl)methanol (Liquid); method: Titration method
Temperature, K	Mole fraction of (1-benzyl-1H-1,2,3-triazol-4-yl)methanol	uncertainty
292.15	0.03221	0.00079
295.15	0.03897	0.00093
298.15	0.047	0.00113
301.15	0.05764	0.0014
304.15	0.07075	0.00176
307.15	0.0889	0.00225
310.15	0.1118	0.0027

System: butan-1-ol + (1-benzyl-1H-1,2,3-triazol-4-yl)methanol; phases: Liquid, Crystal
Fixed: Pressure, kPa = 100
Property: Mole fraction of (1-benzyl-1H-1,2,3-triazol-4-yl)methanol (Liquid); method: Titration method
Temperature, K	Mole fraction of (1-benzyl-1H-1,2,3-triazol-4-yl)methanol	uncertainty
292.15	0.03416	0.00082
295.15	0.04075	0.00094
298.15	0.04809	0.00112
301.15	0.05794	0.00137
304.15	0.06946	0.00163
307.15	0.08315	0.00196
310.15	0.1002	0.0023
