Measured thermophysical data. Partial molar volumes, expansibilities and compressibilities of glyglyglycine in  aqueous sucrose and fructose solutions between 288.15 to 308.15 K
Source: Thermochim. Acta, 2011, 10.1016/j.tca.2010.11.013
Compound 1: D-sucrose, C12H22O11, InChI=1S/C12H22O11/c13-1-4-6(16)8(18)9(19)11(21-4)23-12(3-15)10(20)7(17)5(2-14)22-12/h4-11,13-20H,1-3H2/t4-,5-,6-,7-,8+,9-,10+,11-,12+/m1/s1, purity 97%
Compound 2: water, H2O, InChI=1S/H2O/h1H2
Compound 3: D-fructose, C6H12O6, InChI=1S/C6H12O6/c7-1-3(9)5(11)6(12)4(10)2-8/h3,5-9,11-12H,1-2H2/t3-,5-,6-/m1/s1, purity 98%
Compound 4: glycylglycylglycine, C6H11N3O4, InChI=1S/C6H11N3O4/c7-1-4(10)8-2-5(11)9-3-6(12)13/h1-3,7H2,(H,8,10)(H,9,11)(H,12,13), purity 98%

System: D-sucrose + water; phases: Liquid
Fixed: Pressure, kPa = 101
Property: Speed of sound, m/s (Liquid); method: Sing-around technique in a fixed-path interferometer
Temperature, K	Mass fraction of D-sucrose	Speed of sound, m/s	uncertainty
288.15	0.0214	1473.09	1.85
288.15	0.0419	1479.35	1.85
288.15	0.0614	1486.32	1.85
293.15	0.0214	1489.01	1.85
293.15	0.0419	1495.07	1.85
293.15	0.0614	1501.82	1.85
298.15	0.0214	1503.01	1.85
298.15	0.0419	1508.79	1.85
298.15	0.0614	1515.29	1.86
303.15	0.0214	1515.09	1.86
303.15	0.0419	1520.52	1.86
303.15	0.0614	1526.84	1.86
308.15	0.0214	1525.3	1.86
308.15	0.0419	1530.44	1.86
308.15	0.0614	1536.67	1.86

System: D-sucrose + water; phases: Liquid
Fixed: Pressure, kPa = 101
Property: Mass density, kg/m3 (Liquid); method: Vibrating tube method
Temperature, K	Mass fraction of D-sucrose	Mass density, kg/m3	uncertainty
288.15	0.0214	1007.5	0.622
288.15	0.0419	1015.59	0.634
288.15	0.0614	1023.446	0.647
293.15	0.0214	1006.548	0.62
293.15	0.0419	1014.587	0.633
293.15	0.0614	1022.396	0.645
298.15	0.0214	1005.339	0.618
298.15	0.0419	1013.332	0.631
298.15	0.0614	1021.098	0.643
303.15	0.0214	1003.893	0.616
303.15	0.0419	1011.848	0.629
303.15	0.0614	1019.579	0.641
308.15	0.0214	1002.24	0.614
308.15	0.0419	1010.16	0.626
308.15	0.0614	1017.854	0.638

System: D-fructose + water; phases: Liquid
Fixed: Pressure, kPa = 101
Property: Speed of sound, m/s (Liquid); method: Sing-around technique in a fixed-path interferometer
Temperature, K	Mass fraction of D-fructose	Speed of sound, m/s	uncertainty
288.15	0.0209	1476.23	1.55
288.15	0.0389	1483.08	1.55
288.15	0.0611	1492.81	1.55
293.15	0.0209	1492.03	1.55
293.15	0.0389	1498.5	1.55
293.15	0.0611	1507.75	1.55
298.15	0.0209	1505.64	1.55
298.15	0.0389	1511.97	1.56
298.15	0.0611	1520.76	1.56
303.15	0.0209	1517.31	1.56
303.15	0.0389	1523.47	1.56
303.15	0.0611	1531.8	1.56
308.15	0.0209	1527	1.56
308.15	0.0389	1533.2	1.56
308.15	0.0611	1540.98	1.56

System: D-fructose + water; phases: Liquid
Fixed: Pressure, kPa = 101
Property: Mass density, kg/m3 (Liquid); method: Vibrating tube method
Temperature, K	Mass fraction of D-fructose	Mass density, kg/m3	uncertainty
288.15	0.0209	1007.403	0.411
288.15	0.0389	1014.62	0.419
288.15	0.0611	1023.638	0.43
293.15	0.0209	1006.419	0.41
293.15	0.0389	1013.563	0.418
293.15	0.0611	1022.495	0.429
298.15	0.0209	1005.175	0.409
298.15	0.0389	1012.262	0.417
298.15	0.0611	1021.112	0.427
303.15	0.0209	1003.702	0.407
303.15	0.0389	1010.732	0.415
303.15	0.0611	1019.509	0.425
308.15	0.0209	1002.023	0.405
308.15	0.0389	1008.998	0.413
308.15	0.0611	1017.712	0.423

System: D-fructose + glycylglycylglycine + water; phases: Liquid
Fixed: Pressure, kPa = 101
Property: Speed of sound, m/s (Liquid); method: Sing-around technique in a fixed-path interferometer
Temperature, K	Molality, mol/kg of glycylglycylglycine	Solvent: Mass fraction of D-fructose	Speed of sound, m/s	uncertainty
288.15	0	0.0209	1476.23	1.55
288.15	0	0.0389	1483.08	1.55
288.15	0	0.0611	1492.81	1.55
288.15	0.03985	0.0389	1487.61	1.55
288.15	0.04104	0.0209	1480.48	1.55
288.15	0.04289	0.0611	1497.86	1.55
288.15	0.04714	0.0209	1481.1	1.55
288.15	0.04785	0.0389	1488.51	1.55
288.15	0.05189	0.0611	1498.92	1.55
288.15	0.05874	0.0389	1489.74	1.55
288.15	0.06166	0.0611	1500.08	1.55
288.15	0.06178	0.0209	1482.54	1.55
288.15	0.06733	0.0389	1490.71	1.55
288.15	0.0704	0.0209	1483.52	1.55
288.15	0.07099	0.0611	1501.2	1.55
288.15	0.07757	0.0389	1491.83	1.55
288.15	0.0782	0.0611	1502.05	1.55
288.15	0.07908	0.0209	1484.4	1.55
288.15	0.08586	0.0389	1492.8	1.55
288.15	0.08839	0.0209	1485.36	1.55
288.15	0.09139	0.0611	1503.6	1.55
293.15	0	0.0209	1492.03	1.55
293.15	0	0.0389	1498.5	1.55
293.15	0	0.0611	1507.75	1.55
293.15	0.03985	0.0389	1502.9	1.55
293.15	0.04104	0.0209	1496.01	1.55
293.15	0.04289	0.0611	1512.49	1.56
293.15	0.04714	0.0209	1496.58	1.55
293.15	0.04785	0.0389	1503.77	1.55
293.15	0.05189	0.0611	1513.48	1.56
293.15	0.05874	0.0389	1504.95	1.55
293.15	0.06166	0.0611	1514.57	1.56
293.15	0.06178	0.0209	1497.95	1.55
293.15	0.06733	0.0389	1505.88	1.55
293.15	0.0704	0.0209	1498.8	1.55
293.15	0.07099	0.0611	1515.6	1.56
293.15	0.07757	0.0389	1506.98	1.55
293.15	0.0782	0.0611	1516.4	1.56
293.15	0.07908	0.0209	1499.65	1.55
293.15	0.08586	0.0389	1507.93	1.55
293.15	0.08839	0.0209	1500.54	1.55
293.15	0.09139	0.0611	1517.83	1.56
298.15	0	0.0209	1505.64	1.55
298.15	0	0.0389	1511.97	1.56
298.15	0	0.0611	1520.76	1.56
298.15	0.03985	0.0389	1516.2	1.56
298.15	0.04104	0.0209	1509.55	1.55
298.15	0.04289	0.0611	1525.25	1.56
298.15	0.04714	0.0209	1510.12	1.55
298.15	0.04785	0.0389	1517.03	1.56
298.15	0.05189	0.0611	1526.19	1.56
298.15	0.05874	0.0389	1518.13	1.56
298.15	0.06166	0.0611	1527.22	1.56
298.15	0.06178	0.0209	1511.51	1.56
298.15	0.06733	0.0389	1519.05	1.56
298.15	0.0704	0.0209	1512.33	1.56
298.15	0.07099	0.0611	1528.2	1.56
298.15	0.07757	0.0389	1520.16	1.56
298.15	0.0782	0.0611	1528.97	1.56
298.15	0.07908	0.0209	1513.2	1.56
298.15	0.08586	0.0389	1521.01	1.56
298.15	0.08839	0.0209	1514.78	1.56
298.15	0.09139	0.0611	1530.32	1.56
303.15	0	0.0209	1517.31	1.56
303.15	0	0.0389	1523.47	1.56
303.15	0	0.0611	1531.8	1.56
303.15	0.03985	0.0389	1527.56	1.56
303.15	0.04104	0.0209	1521.25	1.56
303.15	0.04289	0.0611	1536.22	1.56
303.15	0.04714	0.0209	1521.83	1.56
303.15	0.04785	0.0389	1528.37	1.56
303.15	0.05189	0.0611	1537.14	1.56
303.15	0.05874	0.0389	1529.46	1.56
303.15	0.06166	0.0611	1538.13	1.56
303.15	0.06178	0.0209	1523.25	1.56
303.15	0.06733	0.0389	1530.33	1.56
303.15	0.0704	0.0209	1524.08	1.56
303.15	0.07099	0.0611	1539.05	1.56
303.15	0.07757	0.0389	1531.35	1.56
303.15	0.0782	0.0611	1539.85	1.56
303.15	0.07908	0.0209	1524.95	1.56
303.15	0.08586	0.0389	1532.16	1.56
303.15	0.08839	0.0209	1525.87	1.56
303.15	0.09139	0.0611	1541.18	1.56
308.15	0	0.0209	1527	1.56
308.15	0	0.0389	1533.2	1.56
308.15	0	0.0611	1540.98	1.56
308.15	0.03985	0.0389	1537.1	1.56
308.15	0.04104	0.0209	1530.98	1.56
308.15	0.04289	0.0611	1545.27	1.56
308.15	0.04714	0.0209	1531.55	1.56
308.15	0.04785	0.0389	1537.86	1.56
308.15	0.05189	0.0611	1546.15	1.56
308.15	0.05874	0.0389	1538.89	1.56
308.15	0.06166	0.0611	1547.12	1.56
308.15	0.06178	0.0209	1532.98	1.56
308.15	0.06733	0.0389	1539.73	1.56
308.15	0.0704	0.0209	1533.81	1.56
308.15	0.07099	0.0611	1548.05	1.56
308.15	0.07757	0.0389	1540.74	1.56
308.15	0.0782	0.0611	1548.8	1.56
308.15	0.07908	0.0209	1534.57	1.56
308.15	0.08586	0.0389	1541.51	1.56
308.15	0.08839	0.0209	1535.51	1.56
308.15	0.09139	0.0611	1550.1	1.56

System: D-fructose + glycylglycylglycine + water; phases: Liquid
Fixed: Pressure, kPa = 101
Property: Mass density, kg/m3 (Liquid); method: Vibrating tube method
Temperature, K	Molality, mol/kg of glycylglycylglycine	Solvent: Mass fraction of D-fructose	Mass density, kg/m3	uncertainty
288.15	0	0.0209	1007.403	0.411
288.15	0	0.0389	1014.62	0.419
288.15	0	0.0611	1023.638	0.43
288.15	0.03985	0.0389	1017.691	0.423
288.15	0.04104	0.0209	1010.597	0.415
288.15	0.04289	0.0611	1026.911	0.434
288.15	0.04714	0.0209	1011.067	0.415
288.15	0.04785	0.0389	1018.309	0.424
288.15	0.05189	0.0611	1027.589	0.434
288.15	0.05874	0.0389	1019.15	0.425
288.15	0.06166	0.0611	1028.323	0.435
288.15	0.06178	0.0209	1012.195	0.417
288.15	0.06733	0.0389	1019.815	0.425
288.15	0.0704	0.0209	1012.855	0.417
288.15	0.07099	0.0611	1029.02	0.436
288.15	0.07757	0.0389	1020.608	0.426
288.15	0.0782	0.0611	1029.555	0.437
288.15	0.07908	0.0209	1013.52	0.418
288.15	0.08586	0.0389	1021.251	0.427
288.15	0.08839	0.0209	1014.228	0.419
288.15	0.09139	0.0611	1030.531	0.438
293.15	0	0.0209	1006.419	0.41
293.15	0	0.0389	1013.563	0.418
293.15	0	0.0611	1022.495	0.429
293.15	0.03985	0.0389	1016.607	0.422
293.15	0.04104	0.0209	1009.58	0.414
293.15	0.04289	0.0611	1025.741	0.432
293.15	0.04714	0.0209	1010.046	0.414
293.15	0.04785	0.0389	1017.218	0.422
293.15	0.05189	0.0611	1026.413	0.433
293.15	0.05874	0.0389	1018.051	0.423
293.15	0.06166	0.0611	1027.142	0.434
293.15	0.06178	0.0209	1011.162	0.416
293.15	0.06733	0.0389	1018.709	0.424
293.15	0.0704	0.0209	1011.816	0.416
293.15	0.07099	0.0611	1027.835	0.435
293.15	0.07757	0.0389	1019.492	0.425
293.15	0.0782	0.0611	1028.367	0.435
293.15	0.07908	0.0209	1012.471	0.417
293.15	0.08586	0.0389	1020.127	0.426
293.15	0.08839	0.0209	1013.172	0.418
293.15	0.09139	0.0611	1029.338	0.436
298.15	0	0.0209	1005.175	0.409
298.15	0	0.0389	1012.262	0.417
298.15	0	0.0611	1021.112	0.427
298.15	0.03985	0.0389	1015.279	0.42
298.15	0.04104	0.0209	1008.312	0.412
298.15	0.04289	0.0611	1024.331	0.431
298.15	0.04714	0.0209	1008.773	0.413
298.15	0.04785	0.0389	1015.886	0.421
298.15	0.05189	0.0611	1025	0.431
298.15	0.05874	0.0389	1016.712	0.422
298.15	0.06166	0.0611	1025.724	0.432
298.15	0.06178	0.0209	1009.874	0.414
298.15	0.06733	0.0389	1017.366	0.423
298.15	0.0704	0.0209	1010.52	0.415
298.15	0.07099	0.0611	1026.412	0.433
298.15	0.07757	0.0389	1018.143	0.424
298.15	0.0782	0.0611	1026.942	0.434
298.15	0.07908	0.0209	1011.164	0.416
298.15	0.08586	0.0389	1018.774	0.424
298.15	0.08839	0.0209	1011.856	0.416
298.15	0.09139	0.0611	1027.909	0.435
303.15	0	0.0209	1003.702	0.407
303.15	0	0.0389	1010.732	0.415
303.15	0	0.0611	1019.509	0.425
303.15	0.03985	0.0389	1013.729	0.418
303.15	0.04104	0.0209	1006.819	0.411
303.15	0.04289	0.0611	1022.707	0.429
303.15	0.04714	0.0209	1007.275	0.411
303.15	0.04785	0.0389	1014.331	0.419
303.15	0.05189	0.0611	1023.37	0.43
303.15	0.05874	0.0389	1015.151	0.42
303.15	0.06166	0.0611	1024.087	0.43
303.15	0.06178	0.0209	1008.365	0.412
303.15	0.06733	0.0389	1015.798	0.421
303.15	0.0704	0.0209	1009.001	0.413
303.15	0.07099	0.0611	1024.769	0.431
303.15	0.07757	0.0389	1016.571	0.422
303.15	0.0782	0.0611	1025.295	0.432
303.15	0.07908	0.0209	1009.638	0.414
303.15	0.08586	0.0389	1017.194	0.422
303.15	0.08839	0.0209	1010.319	0.415
303.15	0.09139	0.0611	1026.251	0.433
308.15	0	0.0209	1002.023	0.405
308.15	0	0.0389	1008.998	0.413
308.15	0	0.0611	1017.712	0.423
308.15	0.03985	0.0389	1011.976	0.416
308.15	0.04104	0.0209	1005.116	0.409
308.15	0.04289	0.0611	1020.891	0.427
308.15	0.04714	0.0209	1005.572	0.409
308.15	0.04785	0.0389	1012.575	0.417
308.15	0.05189	0.0611	1021.552	0.427
308.15	0.05874	0.0389	1013.39	0.418
308.15	0.06166	0.0611	1022.267	0.428
308.15	0.06178	0.0209	1006.663	0.41
308.15	0.06733	0.0389	1014.034	0.419
308.15	0.0704	0.0209	1007.304	0.411
308.15	0.07099	0.0611	1022.947	0.429
308.15	0.07757	0.0389	1014.802	0.42
308.15	0.0782	0.0611	1023.471	0.43
308.15	0.07908	0.0209	1007.946	0.412
308.15	0.08586	0.0389	1015.422	0.42
308.15	0.08839	0.0209	1008.633	0.413
308.15	0.09139	0.0611	1024.426	0.431

System: D-sucrose + glycylglycylglycine + water; phases: Liquid
Fixed: Pressure, kPa = 101
Property: Speed of sound, m/s (Liquid); method: Sing-around technique in a fixed-path interferometer
Temperature, K	Molality, mol/kg of glycylglycylglycine	Solvent: Mass fraction of D-sucrose	Speed of sound, m/s	uncertainty
288.15	0	0.0214	1473.09	1.85
288.15	0	0.0419	1479.35	1.85
288.15	0	0.0614	1486.32	1.85
288.15	0.03852	0.0419	1483.76	1.85
288.15	0.04007	0.0214	1477.48	1.85
288.15	0.04087	0.0614	1490.8	1.85
288.15	0.04931	0.0614	1491.71	1.85
288.15	0.04968	0.0419	1485.03	1.85
288.15	0.04992	0.0214	1478.55	1.85
288.15	0.05875	0.0214	1479.5	1.85
288.15	0.05925	0.0614	1492.77	1.85
288.15	0.05984	0.0419	1486.18	1.85
288.15	0.06889	0.0614	1493.8	1.85
288.15	0.06942	0.0614	1493.88	1.85
288.15	0.07073	0.0214	1480.8	1.85
288.15	0.07144	0.0419	1487.5	1.85
288.15	0.08243	0.0419	1488.72	1.85
288.15	0.08246	0.0214	1482.08	1.85
288.15	0.08791	0.0419	1489.34	1.85
288.15	0.09012	0.0614	1496.05	1.85
288.15	0.09093	0.0214	1482.96	1.85
293.15	0	0.0214	1489.01	1.85
293.15	0	0.0419	1495.07	1.85
293.15	0	0.0614	1501.82	1.85
293.15	0.03852	0.0419	1499.3	1.85
293.15	0.04007	0.0214	1493.28	1.85
293.15	0.04087	0.0614	1506.09	1.85
293.15	0.04931	0.0614	1506.96	1.85
293.15	0.04968	0.0419	1500.51	1.85
293.15	0.04992	0.0214	1494.32	1.85
293.15	0.05875	0.0214	1495.24	1.85
293.15	0.05925	0.0614	1507.98	1.85
293.15	0.05984	0.0419	1501.61	1.85
293.15	0.06889	0.0614	1508.95	1.86
293.15	0.06942	0.0614	1509.05	1.86
293.15	0.07073	0.0214	1496.5	1.85
293.15	0.07144	0.0419	1502.87	1.85
293.15	0.08243	0.0419	1504.04	1.85
293.15	0.08246	0.0214	1497.74	1.85
293.15	0.08791	0.0419	1504.62	1.85
293.15	0.09012	0.0614	1511.15	1.86
293.15	0.09093	0.0214	1498.6	1.85
298.15	0	0.0214	1503.01	1.85
298.15	0	0.0419	1508.79	1.85
298.15	0	0.0614	1515.29	1.86
298.15	0.03852	0.0419	1512.86	1.86
298.15	0.04007	0.0214	1507.14	1.85
298.15	0.04087	0.0614	1519.36	1.86
298.15	0.04931	0.0614	1520.18	1.86
298.15	0.04968	0.0419	1514.03	1.86
298.15	0.04992	0.0214	1508.15	1.85
298.15	0.05875	0.0214	1509.04	1.85
298.15	0.05925	0.0614	1521.14	1.86
298.15	0.05984	0.0419	1515.09	1.86
298.15	0.06889	0.0614	1522.08	1.86
298.15	0.06942	0.0614	1522.15	1.86
298.15	0.07073	0.0214	1510.26	1.85
298.15	0.07144	0.0419	1516.29	1.86
298.15	0.08243	0.0419	1517.43	1.86
298.15	0.08246	0.0214	1511.46	1.85
298.15	0.08791	0.0419	1517.99	1.86
298.15	0.09012	0.0614	1524.12	1.86
298.15	0.09093	0.0214	1512.32	1.86
303.15	0	0.0214	1515.09	1.86
303.15	0	0.0419	1520.52	1.86
303.15	0	0.0614	1526.84	1.86
303.15	0.03852	0.0419	1524.46	1.86
303.15	0.04007	0.0214	1519.11	1.86
303.15	0.04087	0.0614	1530.74	1.86
303.15	0.04931	0.0614	1531.53	1.86
303.15	0.04968	0.0419	1525.6	1.86
303.15	0.04992	0.0214	1520.09	1.86
303.15	0.05875	0.0214	1520.95	1.86
303.15	0.05925	0.0614	1532.46	1.86
303.15	0.05984	0.0419	1526.63	1.86
303.15	0.06889	0.0614	1533.35	1.86
303.15	0.06942	0.0614	1533.42	1.86
303.15	0.07073	0.0214	1522.14	1.86
303.15	0.07144	0.0419	1527.8	1.86
303.15	0.08243	0.0419	1528.9	1.86
303.15	0.08246	0.0214	1523.34	1.86
303.15	0.08791	0.0419	1529.43	1.86
303.15	0.09012	0.0614	1535.29	1.86
303.15	0.09093	0.0214	1524.17	1.86
308.15	0	0.0214	1525.3	1.86
308.15	0	0.0419	1530.44	1.86
308.15	0	0.0614	1536.67	1.86
308.15	0.03852	0.0419	1534.28	1.86
308.15	0.04007	0.0214	1529.22	1.86
308.15	0.04087	0.0614	1540.5	1.86
308.15	0.04931	0.0614	1541.26	1.86
308.15	0.04968	0.0419	1535.37	1.86
308.15	0.04992	0.0214	1530.16	1.86
308.15	0.05875	0.0214	1531.01	1.86
308.15	0.05925	0.0614	1542.17	1.86
308.15	0.05984	0.0419	1536.38	1.86
308.15	0.06889	0.0614	1543.05	1.86
308.15	0.06942	0.0614	1543.12	1.86
308.15	0.07073	0.0214	1532.14	1.86
308.15	0.07144	0.0419	1537.51	1.86
308.15	0.08243	0.0419	1538.55	1.86
308.15	0.08246	0.0214	1533.25	1.86
308.15	0.08791	0.0419	1539.1	1.86
308.15	0.09012	0.0614	1544.95	1.86
308.15	0.09093	0.0214	1534.05	1.86

System: D-sucrose + glycylglycylglycine + water; phases: Liquid
Fixed: Pressure, kPa = 101
Property: Mass density, kg/m3 (Liquid); method: Vibrating tube method
Temperature, K	Molality, mol/kg of glycylglycylglycine	Solvent: Mass fraction of D-sucrose	Mass density, kg/m3	uncertainty
288.15	0	0.0214	1007.5	0.622
288.15	0	0.0419	1015.59	0.634
288.15	0	0.0614	1023.446	0.647
288.15	0.03852	0.0419	1018.578	0.639
288.15	0.04007	0.0214	1010.602	0.627
288.15	0.04087	0.0614	1026.586	0.652
288.15	0.04931	0.0614	1027.235	0.653
288.15	0.04968	0.0419	1019.442	0.641
288.15	0.04992	0.0214	1011.367	0.628
288.15	0.05875	0.0214	1012.052	0.629
288.15	0.05925	0.0614	1028.001	0.654
288.15	0.05984	0.0419	1020.23	0.642
288.15	0.06889	0.0614	1028.745	0.655
288.15	0.06942	0.0614	1028.786	0.655
288.15	0.07073	0.0214	1012.979	0.63
288.15	0.07144	0.0419	1021.126	0.643
288.15	0.08243	0.0419	1021.975	0.645
288.15	0.08246	0.0214	1013.892	0.632
288.15	0.08791	0.0419	1022.408	0.645
288.15	0.09012	0.0614	1030.385	0.658
288.15	0.09093	0.0214	1014.551	0.633
293.15	0	0.0214	1006.548	0.62
293.15	0	0.0419	1014.587	0.633
293.15	0	0.0614	1022.396	0.645
293.15	0.03852	0.0419	1017.541	0.638
293.15	0.04007	0.0214	1009.616	0.625
293.15	0.04087	0.0614	1025.501	0.65
293.15	0.04931	0.0614	1026.143	0.651
293.15	0.04968	0.0419	1018.397	0.639
293.15	0.04992	0.0214	1010.372	0.626
293.15	0.05875	0.0214	1011.05	0.627
293.15	0.05925	0.0614	1026.901	0.652
293.15	0.05984	0.0419	1019.178	0.64
293.15	0.06889	0.0614	1027.635	0.653
293.15	0.06942	0.0614	1027.676	0.654
293.15	0.07073	0.0214	1011.968	0.629
293.15	0.07144	0.0419	1020.066	0.642
293.15	0.08243	0.0419	1020.91	0.643
293.15	0.08246	0.0214	1012.872	0.63
293.15	0.08791	0.0419	1021.332	0.643
293.15	0.09012	0.0614	1029.261	0.656
293.15	0.09093	0.0214	1013.525	0.631
298.15	0	0.0214	1005.339	0.618
298.15	0	0.0419	1013.332	0.631
298.15	0	0.0614	1021.098	0.643
298.15	0.03852	0.0419	1016.258	0.636
298.15	0.04007	0.0214	1008.377	0.623
298.15	0.04087	0.0614	1024.171	0.648
298.15	0.04931	0.0614	1024.808	0.649
298.15	0.04968	0.0419	1017.106	0.637
298.15	0.04992	0.0214	1009.125	0.624
298.15	0.05875	0.0214	1009.797	0.625
298.15	0.05925	0.0614	1025.559	0.65
298.15	0.05984	0.0419	1017.88	0.638
298.15	0.06889	0.0614	1026.285	0.651
298.15	0.06942	0.0614	1026.326	0.651
298.15	0.07073	0.0214	1010.708	0.627
298.15	0.07144	0.0419	1018.762	0.639
298.15	0.08243	0.0419	1019.596	0.641
298.15	0.08246	0.0214	1011.602	0.628
298.15	0.08791	0.0419	1020.014	0.641
298.15	0.09012	0.0614	1027.897	0.654
298.15	0.09093	0.0214	1012.246	0.629
303.15	0	0.0214	1003.893	0.616
303.15	0	0.0419	1011.848	0.629
303.15	0	0.0614	1019.579	0.641
303.15	0.03852	0.0419	1014.754	0.633
303.15	0.04007	0.0214	1006.905	0.621
303.15	0.04087	0.0614	1022.628	0.646
303.15	0.04931	0.0614	1023.26	0.647
303.15	0.04968	0.0419	1015.595	0.634
303.15	0.04992	0.0214	1007.648	0.622
303.15	0.05875	0.0214	1008.315	0.623
303.15	0.05925	0.0614	1024.004	0.648
303.15	0.05984	0.0419	1016.36	0.636
303.15	0.06889	0.0614	1024.727	0.649
303.15	0.06942	0.0614	1024.767	0.649
303.15	0.07073	0.0214	1009.219	0.625
303.15	0.07144	0.0419	1017.234	0.637
303.15	0.08243	0.0419	1018.061	0.638
303.15	0.08246	0.0214	1010.108	0.626
303.15	0.08791	0.0419	1018.474	0.639
303.15	0.09012	0.0614	1026.32	0.651
303.15	0.09093	0.0214	1010.75	0.627
308.15	0	0.0214	1002.24	0.614
308.15	0	0.0419	1010.16	0.626
308.15	0	0.0614	1017.854	0.638
308.15	0.03852	0.0419	1013.046	0.631
308.15	0.04007	0.0214	1005.234	0.618
308.15	0.04087	0.0614	1020.885	0.643
308.15	0.04931	0.0614	1021.513	0.644
308.15	0.04968	0.0419	1013.882	0.632
308.15	0.04992	0.0214	1005.972	0.619
308.15	0.05875	0.0214	1006.634	0.621
308.15	0.05925	0.0614	1022.254	0.645
308.15	0.05984	0.0419	1014.642	0.633
308.15	0.06889	0.0614	1022.973	0.646
308.15	0.06942	0.0614	1023.013	0.646
308.15	0.07073	0.0214	1007.532	0.622
308.15	0.07144	0.0419	1015.512	0.634
308.15	0.08243	0.0419	1016.334	0.636
308.15	0.08246	0.0214	1008.414	0.623
308.15	0.08791	0.0419	1016.745	0.636
308.15	0.09012	0.0614	1024.558	0.649
308.15	0.09093	0.0214	1009.05	0.624
