Measured thermophysical data. Volumetric properties of binary liquid mixtures of ketones with chloroalkanes at  different temperatures and atmospheric pressure
Source: Thermochim. Acta, 2013, 10.1016/j.tca.2013.03.031
Compound 1: butanone, C4H8O, InChI=1S/C4H8O/c1-3-4(2)5/h3H2,1-2H3, purity 99%
Compound 2: 2-heptanone, C7H14O, InChI=1S/C7H14O/c1-3-4-5-6-7(2)8/h3-6H2,1-2H3, purity 98%
Compound 3: cyclohexanone, C6H10O, InChI=1S/C6H10O/c7-6-4-2-1-3-5-6/h1-5H2, purity 99%
Compound 4: 1,2-dichloroethane, C2H4Cl2, InChI=1S/C2H4Cl2/c3-1-2-4/h1-2H2, purity 99%
Compound 5: 1,1,2,2-tetrachloroethane, C2H2Cl4, InChI=1S/C2H2Cl4/c3-1(4)2(5)6/h1-2H, purity 98%

System: butanone; phases: Liquid
Fixed: Pressure, kPa = 101.325
Property: Mass density, kg/m3 (Liquid); method: Vibrating tube method
Temperature, K	Mass density, kg/m3	uncertainty
288.15	810.262	0.239
293.15	805.058	0.239
303.15	794.565	0.24
308.15	789.273	0.24
313.15	783.946	0.241
298.15	799.828	0.239

System: 2-heptanone; phases: Liquid
Fixed: Pressure, kPa = 101.325
Property: Mass density, kg/m3 (Liquid); method: Vibrating tube method
Temperature, K	Mass density, kg/m3	uncertainty
288.15	819.786	0.645
293.15	815.497	0.641
303.15	806.887	0.633
308.15	802.562	0.63
313.15	798.222	0.626
298.15	811.198	0.637

System: cyclohexanone; phases: Liquid
Fixed: Pressure, kPa = 101.325
Property: Mass density, kg/m3 (Liquid); method: Vibrating tube method
Temperature, K	Mass density, kg/m3	uncertainty
298.15	942.243	0.233
288.15	951.178	0.233
293.15	946.713	0.233
303.15	937.767	0.233
308.15	933.285	0.233
313.15	928.795	0.233

System: 1,2-dichloroethane; phases: Liquid
Fixed: Pressure, kPa = 101.325
Property: Mass density, kg/m3 (Liquid); method: Vibrating tube method
Temperature, K	Mass density, kg/m3	uncertainty
288.15	1259.993	0.449
293.15	1252.768	0.443
303.15	1238.183	0.43
308.15	1230.839	0.423
313.15	1223.459	0.417
298.15	1245.495	0.436

System: 1,1,2,2-tetrachloroethane; phases: Liquid
Fixed: Pressure, kPa = 101.325
Property: Mass density, kg/m3 (Liquid); method: Vibrating tube method
Temperature, K	Mass density, kg/m3	uncertainty
288.15	1601.447	2.339
293.15	1593.654	2.316
303.15	1578.067	2.27
308.15	1570.266	2.248
313.15	1562.451	2.225
298.15	1585.865	2.293

System: butanone + 1,2-dichloroethane; phases: Liquid, Gas
Property: Excess molar volume, m3/mol (Liquid); method: Calculated with densities of this investigation
Mole fraction of butanone	Temperature, K	Excess molar volume, m3/mol	uncertainty
0.0503	288.15	-1.04e-08	1e-08
0.1006	288.15	-1.7e-08	1.01e-08
0.1496	288.15	-2.11e-08	1.01e-08
0.2005	288.15	-2.35e-08	1.01e-08
0.2498	288.15	-2.53e-08	1.01e-08
0.3003	288.15	-2.68e-08	1.01e-08
0.3497	288.15	-2.88e-08	1.01e-08
0.4003	288.15	-3.14e-08	1.01e-08
0.45	288.15	-3.49e-08	1.01e-08
0.4998	288.15	-4.02e-08	1.01e-08
0.5489	288.15	-4.41e-08	1.01e-08
0.5997	288.15	-4.79e-08	1.01e-08
0.6496	288.15	-5.4e-08	1.02e-08
0.6999	288.15	-5.75e-08	1.02e-08
0.7497	288.15	-6.09e-08	1.02e-08
0.7995	288.15	-5.87e-08	1.02e-08
0.8499	288.15	-5.37e-08	1.02e-08
0.8999	288.15	-4.39e-08	1.01e-08
0.9498	288.15	-2.6e-08	1.01e-08
0.0503	293.15	-1.08e-08	1e-08
0.1006	293.15	-1.8e-08	1.01e-08
0.1496	293.15	-2.28e-08	1.01e-08
0.2005	293.15	-2.6e-08	1.01e-08
0.2498	293.15	-2.84e-08	1.01e-08
0.3003	293.15	-3.07e-08	1.01e-08
0.3497	293.15	-3.34e-08	1.01e-08
0.4003	293.15	-3.66e-08	1.01e-08
0.45	293.15	-4.04e-08	1.01e-08
0.4998	293.15	-4.59e-08	1.01e-08
0.5489	293.15	-4.9e-08	1.01e-08
0.5997	293.15	-5.37e-08	1.02e-08
0.6496	293.15	-5.97e-08	1.02e-08
0.6999	293.15	-6.3e-08	1.02e-08
0.7497	293.15	-6.59e-08	1.02e-08
0.7995	293.15	-6.26e-08	1.02e-08
0.8499	293.15	-5.7e-08	1.02e-08
0.8999	293.15	-4.63e-08	1.01e-08
0.9498	293.15	-2.73e-08	1.01e-08
0.0503	298.15	-1.19e-08	1e-08
0.1006	298.15	-2.01e-08	1.01e-08
0.1496	298.15	-2.58e-08	1.01e-08
0.2005	298.15	-2.98e-08	1.01e-08
0.2498	298.15	-3.31e-08	1.01e-08
0.3003	298.15	-3.6e-08	1.01e-08
0.3497	298.15	-3.92e-08	1.01e-08
0.4003	298.15	-4.29e-08	1.01e-08
0.45	298.15	-4.7e-08	1.01e-08
0.4998	298.15	-5.27e-08	1.02e-08
0.5489	298.15	-5.68e-08	1.02e-08
0.5997	298.15	-6.05e-08	1.02e-08
0.6496	298.15	-6.62e-08	1.02e-08
0.6999	298.15	-6.9e-08	1.02e-08
0.7497	298.15	-7.11e-08	1.02e-08
0.7995	298.15	-6.74e-08	1.02e-08
0.8499	298.15	-6.08e-08	1.02e-08
0.8999	298.15	-4.9e-08	1.01e-08
0.9498	298.15	-2.87e-08	1.01e-08
0.0503	303.15	-1.34e-08	1e-08
0.1006	303.15	-2.28e-08	1.01e-08
0.1496	303.15	-2.96e-08	1.01e-08
0.2005	303.15	-3.47e-08	1.01e-08
0.2498	303.15	-3.87e-08	1.01e-08
0.3003	303.15	-4.21e-08	1.01e-08
0.3497	303.15	-4.6e-08	1.01e-08
0.4003	303.15	-5e-08	1.02e-08
0.45	303.15	-5.43e-08	1.02e-08
0.4998	303.15	-5.97e-08	1.02e-08
0.5489	303.15	-6.4e-08	1.02e-08
0.5997	303.15	-6.78e-08	1.02e-08
0.6496	303.15	-7.27e-08	1.02e-08
0.6999	303.15	-7.49e-08	1.02e-08
0.7497	303.15	-7.68e-08	1.02e-08
0.7995	303.15	-7.23e-08	1.02e-08
0.8499	303.15	-6.24e-08	1.02e-08
0.8999	303.15	-5.21e-08	1.02e-08
0.9498	303.15	-3.04e-08	1.01e-08
0.0503	308.15	-1.47e-08	1e-08
0.1006	308.15	-2.54e-08	1.01e-08
0.1496	308.15	-3.39e-08	1.01e-08
0.2005	308.15	-3.95e-08	1.01e-08
0.2498	308.15	-4.48e-08	1.01e-08
0.3003	308.15	-4.97e-08	1.01e-08
0.3497	308.15	-5.32e-08	1.02e-08
0.4003	308.15	-5.84e-08	1.02e-08
0.45	308.15	-6.21e-08	1.02e-08
0.4998	308.15	-6.73e-08	1.02e-08
0.5489	308.15	-7.18e-08	1.02e-08
0.5997	308.15	-7.53e-08	1.02e-08
0.6496	308.15	-7.99e-08	1.02e-08
0.6999	308.15	-8.01e-08	1.02e-08
0.7497	308.15	-8.28e-08	1.02e-08
0.7995	308.15	-7.75e-08	1.02e-08
0.8499	308.15	-6.93e-08	1.02e-08
0.8999	308.15	-5.5e-08	1.02e-08
0.9498	308.15	-3.2e-08	1.01e-08
0.0503	313.15	-1.62e-08	1e-08
0.1006	313.15	-2.88e-08	1.01e-08
0.1496	313.15	-3.76e-08	1.01e-08
0.2005	313.15	-4.42e-08	1.01e-08
0.2498	313.15	-5.03e-08	1.02e-08
0.3003	313.15	-5.49e-08	1.02e-08
0.3497	313.15	-6e-08	1.02e-08
0.4003	313.15	-6.58e-08	1.02e-08
0.45	313.15	-6.97e-08	1.02e-08
0.4998	313.15	-7.58e-08	1.02e-08
0.5489	313.15	-7.96e-08	1.02e-08
0.5997	313.15	-8.3e-08	1e-08
0.6496	313.15	-8.73e-08	1.03e-08
0.6999	313.15	-8.69e-08	1.03e-08
0.7497	313.15	-8.87e-08	1.03e-08
0.7995	313.15	-8.28e-08	1.02e-08
0.8499	313.15	-7.36e-08	1.02e-08
0.8999	313.15	-5.8e-08	1.02e-08
0.9498	313.15	-3.37e-08	1.01e-08

System: 1,2-dichloroethane + 2-heptanone; phases: Liquid, Gas
Property: Excess molar volume, m3/mol (Liquid); method: Calculated with densities of this investigation
Mole fraction of 2-heptanone	Temperature, K	Excess molar volume, m3/mol	uncertainty
0.05	288.15	4.82e-08	1.01e-08
0.1001	288.15	9.22e-08	1.03e-08
0.1499	288.15	1.302e-07	1.04e-08
0.2003	288.15	1.63e-07	1.05e-08
0.2498	288.15	1.844e-07	1.06e-08
0.3001	288.15	1.979e-07	1.06e-08
0.3502	288.15	2.079e-07	1.06e-08
0.3998	288.15	2.099e-07	1.06e-08
0.45	288.15	2.045e-07	1.06e-08
0.4996	288.15	1.938e-07	1.06e-08
0.5496	288.15	1.855e-07	1.06e-08
0.5996	288.15	1.632e-07	1.05e-08
0.6501	288.15	1.486e-07	1.04e-08
0.7	288.15	1.296e-07	1.04e-08
0.7494	288.15	1.081e-07	1.03e-08
0.8003	288.15	9.28e-08	1.03e-08
0.8484	288.15	7.17e-08	1.02e-08
0.9	288.15	5.1e-08	1.02e-08
0.9497	288.15	2.87e-08	1.01e-08
0.05	293.15	4.78e-08	1.01e-08
0.1001	293.15	9.19e-08	1.03e-08
0.1499	293.15	1.3e-07	1.04e-08
0.2003	293.15	1.628e-07	1.05e-08
0.2498	293.15	1.818e-07	1.05e-08
0.3001	293.15	1.917e-07	1.06e-08
0.3502	293.15	2.041e-07	1.06e-08
0.3998	293.15	2.059e-07	1.06e-08
0.45	293.15	2.011e-07	1.06e-08
0.4996	293.15	1.929e-07	1.06e-08
0.5496	293.15	1.845e-07	1.06e-08
0.5996	293.15	1.623e-07	1.05e-08
0.6501	293.15	1.473e-07	1.04e-08
0.7	293.15	1.281e-07	1.04e-08
0.7494	293.15	1.073e-07	1.03e-08
0.8003	293.15	9.18e-08	1.03e-08
0.8484	293.15	7.13e-08	1.02e-08
0.9	293.15	5e-08	1.02e-08
0.9497	293.15	2.69e-08	1.01e-08
0.05	298.15	4.71e-08	1.01e-08
0.1001	298.15	9.08e-08	1.03e-08
0.1499	298.15	1.209e-07	1.04e-08
0.2003	298.15	1.626e-07	1.05e-08
0.2498	298.15	1.815e-07	1.05e-08
0.3001	298.15	1.914e-07	1.06e-08
0.3502	298.15	2.031e-07	1.06e-08
0.3998	298.15	2.044e-07	1.06e-08
0.45	298.15	1.997e-07	1.06e-08
0.4996	298.15	1.916e-07	1.06e-08
0.5496	298.15	1.828e-07	1.05e-08
0.5996	298.15	1.609e-07	1.05e-08
0.6501	298.15	1.459e-07	1.04e-08
0.7	298.15	1.264e-07	1.04e-08
0.7494	298.15	1.055e-07	1.03e-08
0.8003	298.15	9.07e-08	1.03e-08
0.8484	298.15	7.01e-08	1.02e-08
0.9	298.15	4.96e-08	1.01e-08
0.9497	298.15	2.6e-08	1.01e-08
0.05	303.15	4.69e-08	1.01e-08
0.1001	303.15	9.06e-08	1.03e-08
0.1499	303.15	1.203e-07	1.04e-08
0.2003	303.15	1.618e-07	1.05e-08
0.2498	303.15	1.804e-07	1.05e-08
0.3001	303.15	1.9e-07	1.06e-08
0.3502	303.15	2.017e-07	1.06e-08
0.3998	303.15	2.031e-07	1.06e-08
0.45	303.15	1.981e-07	1.06e-08
0.4996	303.15	1.898e-07	1.06e-08
0.5496	303.15	1.816e-07	1.05e-08
0.5996	303.15	1.59e-07	1.05e-08
0.6501	303.15	1.443e-07	1.04e-08
0.7	303.15	1.247e-07	1.04e-08
0.7494	303.15	1.043e-07	1.03e-08
0.8003	303.15	8.94e-08	1.03e-08
0.8484	303.15	6.99e-08	1.02e-08
0.9	303.15	4.89e-08	1.01e-08
0.9497	303.15	2.55e-08	1.01e-08
0.05	308.15	4.67e-08	1.01e-08
0.1001	308.15	9.04e-08	1.03e-08
0.1499	308.15	1.202e-07	1.04e-08
0.2003	308.15	1.61e-07	1.05e-08
0.2498	308.15	1.795e-07	1.05e-08
0.3001	308.15	1.888e-07	1.06e-08
0.3502	308.15	2.004e-07	1.06e-08
0.3998	308.15	2.019e-07	1.06e-08
0.45	308.15	1.964e-07	1.06e-08
0.4996	308.15	1.876e-07	1.06e-08
0.5496	308.15	1.796e-07	1.05e-08
0.5996	308.15	1.566e-07	1.05e-08
0.6501	308.15	1.425e-07	1.04e-08
0.7	308.15	1.229e-07	1.04e-08
0.7494	308.15	1.029e-07	1.03e-08
0.8003	308.15	8.74e-08	1.03e-08
0.8484	308.15	6.84e-08	1.02e-08
0.9	308.15	4.8e-08	1.01e-08
0.9497	308.15	2.5e-08	1.01e-08
0.05	313.15	4.64e-08	1.01e-08
0.1001	313.15	9.01e-08	1.03e-08
0.1499	313.15	1.2e-07	1.04e-08
0.2003	313.15	1.602e-07	1.05e-08
0.2498	313.15	1.783e-07	1.05e-08
0.3001	313.15	1.868e-07	1.06e-08
0.3502	313.15	1.989e-07	1.06e-08
0.3998	313.15	2.008e-07	1.06e-08
0.45	313.15	1.946e-07	1.06e-08
0.4996	313.15	1.856e-07	1.06e-08
0.5496	313.15	1.776e-07	1.05e-08
0.5996	313.15	1.538e-07	1.05e-08
0.6501	313.15	1.404e-07	1.04e-08
0.7	313.15	1.208e-07	1.04e-08
0.7494	313.15	1.009e-07	1.03e-08
0.8003	313.15	8.59e-08	1.03e-08
0.8484	313.15	6.72e-08	1.02e-08
0.9	313.15	4.71e-08	1.01e-08
0.9497	313.15	2.46e-08	1.01e-08

System: butanone + 1,1,2,2-tetrachloroethane; phases: Liquid, Gas
Property: Excess molar volume, m3/mol (Liquid); method: Calculated with densities of this investigation
Mole fraction of butanone	Temperature, K	Excess molar volume, m3/mol	uncertainty
0.0506	288.15	-1.223e-07	1.04e-08
0.1001	288.15	-2.317e-07	1.07e-08
0.1494	288.15	-3.283e-07	1.1e-08
0.2005	288.15	-4.166e-07	1.13e-08
0.2501	288.15	-4.942e-07	1.15e-08
0.3012	288.15	-5.56e-07	1.17e-08
0.35	288.15	-6.068e-07	1.18e-08
0.4002	288.15	-6.475e-07	1.19e-08
0.4499	288.15	-6.758e-07	1.2e-08
0.5	288.15	-6.849e-07	1.21e-08
0.5503	288.15	-6.976e-07	1.21e-08
0.5998	288.15	-6.747e-07	1.2e-08
0.6495	288.15	-6.557e-07	1.2e-08
0.7	288.15	-6.186e-07	1.19e-08
0.7502	288.15	-5.62e-07	1.17e-08
0.7998	288.15	-4.844e-07	1.15e-08
0.8499	288.15	-3.957e-07	1.12e-08
0.899	288.15	-2.849e-07	1.09e-08
0.9499	288.15	-1.534e-07	1.05e-08
0.0506	293.15	-1.252e-07	1.04e-08
0.1001	293.15	-2.332e-07	1.07e-08
0.1494	293.15	-3.373e-07	1.1e-08
0.2005	293.15	-4.283e-07	1.13e-08
0.2501	293.15	-5.064e-07	1.15e-08
0.3012	293.15	-5.787e-07	1.17e-08
0.35	293.15	-6.298e-07	1.19e-08
0.4002	293.15	-6.76e-07	1.2e-08
0.4499	293.15	-7.018e-07	1.21e-08
0.5	293.15	-7.141e-07	1.21e-08
0.5503	293.15	-7.215e-07	1.22e-08
0.5998	293.15	-7.04e-07	1.2e-08
0.6495	293.15	-6.822e-07	1.2e-08
0.7	293.15	-6.462e-07	1.19e-08
0.7502	293.15	-5.81e-07	1.17e-08
0.7998	293.15	-5.052e-07	1.15e-08
0.8499	293.15	-4.084e-07	1.12e-08
0.899	293.15	-2.943e-07	1.09e-08
0.9499	293.15	-1.586e-07	1.05e-08
0.0506	298.15	-1.27e-07	1e-08
0.1001	298.15	-2.42e-07	1.1e-08
0.1494	298.15	-3.508e-07	1.11e-08
0.2005	298.15	-4.447e-07	1.13e-08
0.2501	298.15	-5.276e-07	1.16e-08
0.3012	298.15	-6.055e-07	1.18e-08
0.35	298.15	-6.573e-07	1.2e-08
0.4002	298.15	-7.048e-07	1.21e-08
0.4499	298.15	-7.323e-07	1.22e-08
0.5	298.15	-7.441e-07	1.22e-08
0.5503	298.15	-7.526e-07	1.23e-08
0.5998	298.15	-7.341e-07	1.22e-08
0.6495	298.15	-7.106e-07	1.21e-08
0.7	298.15	-6.723e-07	1.2e-08
0.7502	298.15	-6.045e-07	1.18e-08
0.7998	298.15	-5.27e-07	1.16e-08
0.8499	298.15	-4.24e-07	1.13e-08
0.899	298.15	-3.039e-07	1.09e-08
0.9499	298.15	-1.646e-07	1.05e-08
0.0506	303.15	-1.322e-07	1.04e-08
0.1001	303.15	-2.519e-07	1.08e-08
0.1494	303.15	-3.624e-07	1.11e-08
0.2005	303.15	-4.629e-07	1.14e-08
0.2501	303.15	-5.498e-07	1.16e-08
0.3012	303.15	-6.27e-07	1.2e-08
0.35	303.15	-6.859e-07	1.21e-08
0.4002	303.15	-7.365e-07	1.22e-08
0.4499	303.15	-7.705e-07	1.23e-08
0.5	303.15	-7.754e-07	1.23e-08
0.5503	303.15	-7.929e-07	1.24e-08
0.5998	303.15	-7.652e-07	1.23e-08
0.6495	303.15	-7.441e-07	1.22e-08
0.7	303.15	-7.012e-07	1.21e-08
0.7502	303.15	-6.346e-07	1.19e-08
0.7998	303.15	-5.493e-07	1.16e-08
0.8499	303.15	-4.43e-07	1.13e-08
0.899	303.15	-3.171e-07	1.1e-08
0.9499	303.15	-1.711e-07	1.05e-08
0.0506	308.15	-1.37e-07	1e-08
0.1001	308.15	-2.612e-07	1.08e-08
0.1494	308.15	-3.771e-07	1.11e-08
0.2005	308.15	-4.803e-07	1.14e-08
0.2501	308.15	-5.716e-07	1.17e-08
0.3012	308.15	-6.512e-07	1.2e-08
0.35	308.15	-7.151e-07	1.21e-08
0.4002	308.15	-7.759e-07	1.23e-08
0.4499	308.15	-8.003e-07	1.24e-08
0.5	308.15	-8.075e-07	1.24e-08
0.5503	308.15	-8.235e-07	1.25e-08
0.5998	308.15	-8.118e-07	1.24e-08
0.6495	308.15	-7.78e-07	1.23e-08
0.7	308.15	-7.305e-07	1.22e-08
0.7502	308.15	-6.596e-07	1.2e-08
0.7998	308.15	-5.726e-07	1.17e-08
0.8499	308.15	-4.609e-07	1.14e-08
0.899	308.15	-3.309e-07	1.1e-08
0.9499	308.15	-1.771e-07	1.05e-08
0.0506	313.15	-1.434e-07	1.04e-08
0.1001	313.15	-2.73e-07	1.1e-08
0.1494	313.15	-3.926e-07	1.12e-08
0.2005	313.15	-5.007e-07	1.15e-08
0.2501	313.15	-5.961e-07	1.18e-08
0.3012	313.15	-6.778e-07	1.2e-08
0.35	313.15	-7.464e-07	1.22e-08
0.4002	313.15	-8.064e-07	1.24e-08
0.4499	313.15	-8.371e-07	1.25e-08
0.5	313.15	-8.552e-07	1.26e-08
0.5503	313.15	-8.626e-07	1.26e-08
0.5998	313.15	-8.465e-07	1.25e-08
0.6495	313.15	-8.165e-07	1.25e-08
0.7	313.15	-7.635e-07	1.23e-08
0.7502	313.15	-6.926e-07	1.21e-08
0.7998	313.15	-6.063e-07	1.18e-08
0.8499	313.15	-4.844e-07	1.15e-08
0.899	313.15	-3.452e-07	1.1e-08
0.9499	313.15	-1.856e-07	1.06e-08

System: 1,1,2,2-tetrachloroethane + 2-heptanone; phases: Liquid, Gas
Property: Excess molar volume, m3/mol (Liquid); method: Calculated with densities of this investigation
Mole fraction of 2-heptanone	Temperature, K	Excess molar volume, m3/mol	uncertainty
0.0499	288.15	-9.56e-08	1.03e-08
0.1001	288.15	-1.725e-07	1.05e-08
0.1501	288.15	-2.371e-07	1.07e-08
0.2	288.15	-2.935e-07	1.09e-08
0.25	288.15	-3.343e-07	1.1e-08
0.3	288.15	-3.66e-07	1.11e-08
0.3501	288.15	-4.046e-07	1.12e-08
0.4002	288.15	-4.219e-07	1.13e-08
0.4499	288.15	-4.42e-07	1.13e-08
0.5001	288.15	-4.487e-07	1.13e-08
0.5498	288.15	-4.501e-07	1.14e-08
0.5995	288.15	-4.412e-07	1.13e-08
0.6494	288.15	-4.226e-07	1.13e-08
0.7004	288.15	-3.809e-07	1.11e-08
0.749	288.15	-3.441e-07	1.1e-08
0.7994	288.15	-2.963e-07	1.09e-08
0.8497	288.15	-2.317e-07	1.07e-08
0.9	288.15	-1.572e-07	1.05e-08
0.9488	288.15	-8.17e-08	1.02e-08
0.0499	293.15	-9.99e-08	1.03e-08
0.1001	293.15	-1.803e-07	1.05e-08
0.1501	293.15	-2.479e-07	1.07e-08
0.2	293.15	-3.068e-07	1.09e-08
0.25	293.15	-3.5e-07	1.11e-08
0.3	293.15	-3.837e-07	1.12e-08
0.3501	293.15	-4.236e-07	1.13e-08
0.4002	293.15	-4.423e-07	1.13e-08
0.4499	293.15	-4.633e-07	1.14e-08
0.5001	293.15	-4.701e-07	1.14e-08
0.5498	293.15	-4.725e-07	1.14e-08
0.5995	293.15	-4.622e-07	1.14e-08
0.6494	293.15	-4.43e-07	1.13e-08
0.7004	293.15	-3.994e-07	1.12e-08
0.749	293.15	-3.605e-07	1.11e-08
0.7994	293.15	-3.1e-07	1.09e-08
0.8497	293.15	-2.424e-07	1.07e-08
0.9	293.15	-1.646e-07	1.05e-08
0.9488	293.15	-8.55e-08	1.03e-08
0.0499	298.15	-1.035e-07	1.03e-08
0.1001	298.15	-1.874e-07	1.06e-08
0.1501	298.15	-2.581e-07	1.08e-08
0.2	298.15	-3.199e-07	1.1e-08
0.25	298.15	-3.655e-07	1.11e-08
0.3	298.15	-4.01e-07	1.12e-08
0.3501	298.15	-4.432e-07	1.13e-08
0.4002	298.15	-4.63e-07	1.14e-08
0.4499	298.15	-4.847e-07	1.15e-08
0.5001	298.15	-4.918e-07	1.15e-08
0.5498	298.15	-4.938e-07	1.15e-08
0.5995	298.15	-4.834e-07	1.15e-08
0.6494	298.15	-4.628e-07	1.14e-08
0.7004	298.15	-4.181e-07	1.13e-08
0.749	298.15	-3.77e-07	1.11e-08
0.7994	298.15	-3.24e-07	1.1e-08
0.8497	298.15	-2.538e-07	1.08e-08
0.9	298.15	-1.724e-07	1.05e-08
0.9488	298.15	-8.96e-08	1.03e-08
0.0499	303.15	-1.086e-07	1.03e-08
0.1001	303.15	-1.949e-07	1.06e-08
0.1501	303.15	-2.691e-07	1.08e-08
0.2	303.15	-3.335e-07	1.1e-08
0.25	303.15	-3.808e-07	1.11e-08
0.3	303.15	-4.193e-07	1.13e-08
0.3501	303.15	-4.627e-07	1.14e-08
0.4002	303.15	-4.837e-07	1.15e-08
0.4499	303.15	-5.062e-07	1.15e-08
0.5001	303.15	-5.143e-07	1.15e-08
0.5498	303.15	-5.167e-07	1.16e-08
0.5995	303.15	-5.054e-07	1.15e-08
0.6494	303.15	-4.835e-07	1.15e-08
0.7004	303.15	-4.372e-07	1.13e-08
0.749	303.15	-3.939e-07	1.12e-08
0.7994	303.15	-3.383e-07	1.1e-08
0.8497	303.15	-2.648e-07	1.08e-08
0.9	303.15	-1.8e-07	1.05e-08
0.9488	303.15	-9.36e-08	1.03e-08
0.0499	308.15	-1.114e-07	1.03e-08
0.1001	308.15	-2.023e-07	1.06e-08
0.1501	308.15	-2.793e-07	1.08e-08
0.2	308.15	-3.469e-07	1.1e-08
0.25	308.15	-3.972e-07	1.12e-08
0.3	308.15	-4.367e-07	1.13e-08
0.3501	308.15	-4.826e-07	1.14e-08
0.4002	308.15	-5.047e-07	1.15e-08
0.4499	308.15	-5.285e-07	1.16e-08
0.5001	308.15	-5.365e-07	1.16e-08
0.5498	308.15	-5.392e-07	1.16e-08
0.5995	308.15	-5.268e-07	1.16e-08
0.6494	308.15	-5.042e-07	1.15e-08
0.7004	308.15	-4.558e-07	1.14e-08
0.749	308.15	-4.109e-07	1.12e-08
0.7994	308.15	-3.533e-07	1.11e-08
0.8497	308.15	-2.761e-07	1.08e-08
0.9	308.15	-1.879e-07	1.06e-08
0.9488	308.15	-9.77e-08	1.03e-08
0.0499	313.15	-1.157e-07	1.03e-08
0.1001	313.15	-2.103e-07	1.06e-08
0.1501	313.15	-2.907e-07	1.09e-08
0.2	313.15	-3.611e-07	1.11e-08
0.25	313.15	-4.138e-07	1.12e-08
0.3	313.15	-4.553e-07	1.14e-08
0.3501	313.15	-5.03e-07	1.15e-08
0.4002	313.15	-5.264e-07	1.16e-08
0.4499	313.15	-5.511e-07	1.17e-08
0.5001	313.15	-5.589e-07	1.17e-08
0.5498	313.15	-5.62e-07	1.17e-08
0.5995	313.15	-5.486e-07	1.16e-08
0.6494	313.15	-5.257e-07	1.16e-08
0.7004	313.15	-4.763e-07	1.14e-08
0.749	313.15	-4.285e-07	1.13e-08
0.7994	313.15	-3.694e-07	1.11e-08
0.8497	313.15	-2.881e-07	1.09e-08
0.9	313.15	-1.967e-07	1.06e-08
0.9488	313.15	-1.025e-07	1.03e-08

System: 1,1,2,2-tetrachloroethane + cyclohexanone; phases: Liquid, Gas
Property: Excess molar volume, m3/mol (Liquid); method: Calculated with densities of this investigation
Mole fraction of cyclohexanone	Temperature, K	Excess molar volume, m3/mol	uncertainty
0.0548	288.15	-8.2e-08	1.02e-08
0.1103	288.15	-1.674e-07	1.05e-08
0.1612	288.15	-2.248e-07	1.07e-08
0.2162	288.15	-3.092e-07	1.09e-08
0.2603	288.15	-3.508e-07	1.11e-08
0.3207	288.15	-4.1e-07	1.12e-08
0.3721	288.15	-4.365e-07	1.13e-08
0.4232	288.15	-4.695e-07	1.14e-08
0.4725	288.15	-4.771e-07	1.14e-08
0.5243	288.15	-4.749e-07	1.14e-08
0.5735	288.15	-4.695e-07	1.14e-08
0.6229	288.15	-4.53e-07	1.14e-08
0.6719	288.15	-4.287e-07	1.13e-08
0.7195	288.15	-3.914e-07	1.12e-08
0.7673	288.15	-3.463e-07	1.1e-08
0.8146	288.15	-2.97e-07	1.1e-08
0.8619	288.15	-2.477e-07	1.07e-08
0.908	288.15	-1.757e-07	1.05e-08
0.9542	288.15	-9.57e-08	1.03e-08
0.0548	293.15	-8.58e-08	1.03e-08
0.1103	293.15	-1.744e-07	1.05e-08
0.1612	293.15	-2.331e-07	1.07e-08
0.2162	293.15	-3.208e-07	1.1e-08
0.2603	293.15	-3.621e-07	1.11e-08
0.3207	293.15	-4.306e-07	1.13e-08
0.3721	293.15	-4.502e-07	1.14e-08
0.4232	293.15	-4.864e-07	1.15e-08
0.4725	293.15	-4.929e-07	1.15e-08
0.5243	293.15	-4.925e-07	1.15e-08
0.5735	293.15	-4.871e-07	1.15e-08
0.6229	293.15	-4.701e-07	1.14e-08
0.6719	293.15	-4.45e-07	1.13e-08
0.7195	293.15	-4.066e-07	1.12e-08
0.7673	293.15	-3.601e-07	1.11e-08
0.8146	293.15	-3.091e-07	1.09e-08
0.8619	293.15	-2.575e-07	1.08e-08
0.908	293.15	-1.828e-07	1.05e-08
0.9542	293.15	-9.95e-08	1.03e-08
0.0548	298.15	-8.91e-08	1.03e-08
0.1103	298.15	-1.804e-07	1.05e-08
0.1612	298.15	-2.419e-07	1.07e-08
0.2162	298.15	-3.324e-07	1.1e-08
0.2603	298.15	-3.761e-07	1.11e-08
0.3207	298.15	-4.495e-07	1.13e-08
0.3721	298.15	-4.675e-07	1.14e-08
0.4232	298.15	-5.036e-07	1.15e-08
0.4725	298.15	-5.115e-07	1.15e-08
0.5243	298.15	-5.104e-07	1.15e-08
0.5735	298.15	-5.045e-07	1.15e-08
0.6229	298.15	-4.873e-07	1.15e-08
0.6719	298.15	-4.616e-07	1.14e-08
0.7195	298.15	-4.219e-07	1.13e-08
0.7673	298.15	-3.733e-07	1.11e-08
0.8146	298.15	-3.204e-07	1.1e-08
0.8619	298.15	-2.67e-07	1.08e-08
0.908	298.15	-1.894e-07	1.06e-08
0.9542	298.15	-1.03e-07	1.03e-08
0.0548	303.15	-9.29e-08	1.03e-08
0.1103	303.15	-1.879e-07	1.06e-08
0.1612	303.15	-2.511e-07	1.08e-08
0.2162	303.15	-3.442e-07	1.1e-08
0.2603	303.15	-3.892e-07	1.12e-08
0.3207	303.15	-4.647e-07	1.14e-08
0.3721	303.15	-4.833e-07	1.15e-08
0.4232	303.15	-5.207e-07	1.16e-08
0.4725	303.15	-5.288e-07	1.16e-08
0.5243	303.15	-5.277e-07	1.16e-08
0.5735	303.15	-5.226e-07	1.16e-08
0.6229	303.15	-5.045e-07	1.15e-08
0.6719	303.15	-4.778e-07	1.14e-08
0.7195	303.15	-4.373e-07	1.13e-08
0.7673	303.15	-3.875e-07	1.12e-08
0.8146	303.15	-3.323e-07	1.1e-08
0.8619	303.15	-2.766e-07	1.08e-08
0.908	303.15	-1.963e-07	1.06e-08
0.9542	303.15	-1.067e-07	1.03e-08
0.0548	308.15	-9.64e-08	1.03e-08
0.1103	308.15	-1.946e-07	1.06e-08
0.1612	308.15	-2.597e-07	1.08e-08
0.2162	308.15	-3.556e-07	1.11e-08
0.2603	308.15	-4.02e-07	1.12e-08
0.3207	308.15	-4.797e-07	1.14e-08
0.3721	308.15	-4.99e-07	1.15e-08
0.4232	308.15	-5.378e-07	1.16e-08
0.4725	308.15	-5.463e-07	1.16e-08
0.5243	308.15	-5.456e-07	1.16e-08
0.5735	308.15	-5.406e-07	1.16e-08
0.6229	308.15	-5.217e-07	1.16e-08
0.6719	308.15	-4.94e-07	1.1e-08
0.7195	308.15	-4.524e-07	1.14e-08
0.7673	308.15	-4.012e-07	1.12e-08
0.8146	308.15	-3.438e-07	1.1e-08
0.8619	308.15	-2.86e-07	1.1e-08
0.908	308.15	-2.029e-07	1.06e-08
0.9542	308.15	-1.103e-07	1.03e-08
0.0548	313.15	-9.99e-08	1.03e-08
0.1103	313.15	-2.014e-07	1.06e-08
0.1612	313.15	-2.686e-07	1.08e-08
0.2162	313.15	-3.675e-07	1.11e-08
0.2603	313.15	-4.153e-07	1.12e-08
0.3207	313.15	-4.955e-07	1.15e-08
0.3721	313.15	-5.154e-07	1.15e-08
0.4232	313.15	-5.551e-07	1.17e-08
0.4725	313.15	-5.642e-07	1.17e-08
0.5243	313.15	-5.643e-07	1.17e-08
0.5735	313.15	-5.585e-07	1.17e-08
0.6229	313.15	-5.39e-07	1.16e-08
0.6719	313.15	-5.105e-07	1.15e-08
0.7195	313.15	-4.677e-07	1.14e-08
0.7673	313.15	-4.15e-07	1.12e-08
0.8146	313.15	-3.559e-07	1.11e-08
0.8619	313.15	-2.956e-07	1.09e-08
0.908	313.15	-2.098e-07	1.06e-08
0.9542	313.15	-1.14e-07	1.03e-08

System: 1,2-dichloroethane + cyclohexanone; phases: Liquid, Gas
Property: Excess molar volume, m3/mol (Liquid); method: Calculated with densities of this investigation
Mole fraction of cyclohexanone	Temperature, K	Excess molar volume, m3/mol	uncertainty
0.0494	288.15	3.17e-08	1.01e-08
0.1004	288.15	6.31e-08	1.02e-08
0.1499	288.15	8.8e-08	1.03e-08
0.2002	288.15	1.09e-07	1.03e-08
0.25	288.15	1.198e-07	1.04e-08
0.3002	288.15	1.274e-07	1.04e-08
0.3496	288.15	1.308e-07	1.04e-08
0.3997	288.15	1.308e-07	1.04e-08
0.4487	288.15	1.233e-07	1.04e-08
0.5	288.15	1.187e-07	1.04e-08
0.5498	288.15	1.084e-07	1.03e-08
0.5997	288.15	9.95e-08	1.03e-08
0.65	288.15	8.67e-08	1.03e-08
0.6994	288.15	7.1e-08	1.02e-08
0.7503	288.15	5e-08	1.02e-08
0.7993	288.15	2.71e-08	1.01e-08
0.8494	288.15	4.9e-09	1e-08
0.8985	288.15	-1.33e-08	1e-08
0.9477	288.15	-1.95e-08	1.01e-08
0.0494	293.15	2.72e-08	1.01e-08
0.1004	293.15	5.92e-08	1.02e-08
0.1499	293.15	8.25e-08	1.02e-08
0.2002	293.15	1.02e-07	1.03e-08
0.25	293.15	1.132e-07	1.03e-08
0.3002	293.15	1.2e-07	1.04e-08
0.3496	293.15	1.209e-07	1.04e-08
0.3997	293.15	1.215e-07	1.04e-08
0.4487	293.15	1.141e-07	1.03e-08
0.5	293.15	1.087e-07	1.03e-08
0.5498	293.15	9.91e-08	1.03e-08
0.5997	293.15	9.08e-08	1.03e-08
0.65	293.15	8.11e-08	1.02e-08
0.6994	293.15	6.7e-08	1.02e-08
0.7503	293.15	5.02e-08	1.02e-08
0.7993	293.15	2.94e-08	1.01e-08
0.8494	293.15	6.7e-09	1e-08
0.8985	293.15	-1.17e-08	1e-08
0.9477	293.15	-1.89e-08	1.01e-08
0.0494	298.15	2.46e-08	1.01e-08
0.1004	298.15	5.49e-08	1.02e-08
0.1499	298.15	7.7e-08	1.02e-08
0.2002	298.15	9.5e-08	1.03e-08
0.25	298.15	1.056e-07	1.03e-08
0.3002	298.15	1.115e-07	1.03e-08
0.3496	298.15	1.092e-07	1.03e-08
0.3997	298.15	1.081e-07	1.03e-08
0.4487	298.15	1.042e-07	1.03e-08
0.5	298.15	9.88e-08	1.03e-08
0.5498	298.15	8.94e-08	1.03e-08
0.5997	298.15	8.47e-08	1.03e-08
0.65	298.15	7.55e-08	1.02e-08
0.6994	298.15	6.49e-08	1.02e-08
0.7503	298.15	4.92e-08	1.01e-08
0.7993	298.15	2.93e-08	1.01e-08
0.8494	298.15	7.5e-09	1e-08
0.8985	298.15	-1.08e-08	1e-08
0.9477	298.15	-1.84e-08	1.01e-08
0.0494	303.15	2.29e-08	1.01e-08
0.1004	303.15	5.04e-08	1.02e-08
0.1499	303.15	7.14e-08	1.02e-08
0.2002	303.15	8.79e-08	1.03e-08
0.25	303.15	9.72e-08	1.03e-08
0.3002	303.15	1.018e-07	1.03e-08
0.3496	303.15	9.87e-08	1.03e-08
0.3997	303.15	9.75e-08	1.03e-08
0.4487	303.15	9.33e-08	1.03e-08
0.5	303.15	8.83e-08	1.03e-08
0.5498	303.15	7.91e-08	1.02e-08
0.5997	303.15	7.38e-08	1.02e-08
0.65	303.15	6.59e-08	1.02e-08
0.6994	303.15	5.58e-08	1.02e-08
0.7503	303.15	4.1e-08	1.01e-08
0.7993	303.15	2.37e-08	1.01e-08
0.8494	303.15	5.4e-09	1e-08
0.8985	303.15	-1.02e-08	1e-08
0.9477	303.15	-1.65e-08	1e-08
0.0494	308.15	2.13e-08	1.01e-08
0.1004	308.15	4.6e-08	1.01e-08
0.1499	308.15	6.5e-08	1.02e-08
0.2002	308.15	8.03e-08	1.02e-08
0.25	308.15	8.86e-08	1.03e-08
0.3002	308.15	9.25e-08	1.03e-08
0.3496	308.15	8.94e-08	1.03e-08
0.3997	308.15	8.64e-08	1.03e-08
0.4487	308.15	8.24e-08	1.02e-08
0.5	308.15	7.75e-08	1.02e-08
0.5498	308.15	6.83e-08	1.02e-08
0.5997	308.15	6.15e-08	1.02e-08
0.65	308.15	5.43e-08	1.02e-08
0.6994	308.15	4.53e-08	1.01e-08
0.7503	308.15	3.33e-08	1.01e-08
0.7993	308.15	1.86e-08	1.01e-08
0.8494	308.15	3e-09	1e-08
0.8985	308.15	-9.7e-09	1e-08
0.9477	308.15	-1.47e-08	1e-08
0.0494	313.15	1.95e-08	1.01e-08
0.1004	313.15	4.09e-08	1.01e-08
0.1499	313.15	5.84e-08	1.02e-08
0.2002	313.15	7.22e-08	1.02e-08
0.25	313.15	7.98e-08	1.02e-08
0.3002	313.15	8.21e-08	1.02e-08
0.3496	313.15	7.94e-08	1.02e-08
0.3997	313.15	7.55e-08	1.02e-08
0.4487	313.15	7.02e-08	1.02e-08
0.5	313.15	6.59e-08	1.02e-08
0.5498	313.15	5.72e-08	1.02e-08
0.5997	313.15	5.09e-08	1.02e-08
0.65	313.15	4.35e-08	1.01e-08
0.6994	313.15	3.51e-08	1.01e-08
0.7503	313.15	2.5e-08	1.01e-08
0.7993	313.15	1.29e-08	1e-08
0.8494	313.15	6e-10	1e-08
0.8985	313.15	-9.4e-09	1e-08
0.9477	313.15	-1.27e-08	1e-08
