Measured thermophysical data. Sublimation enthalpy of 1,3-thiazine structural analogues: Experimental determination and estimation based on structural clusterization
Source: Thermochim. Acta, 2017, 10.1016/j.tca.2017.08.004
Compound 1: (4-cyanophenyl)-[3-thia-1-aza-bicyclo[3.3.1]non-2-ylidene]amine, C14H15N3S, InChI=1S/C14H15N3S/c15-8-11-3-5-13(6-4-11)16-14-17-7-1-2-12(9-17)10-18-14/h3-6,12H,1-2,7,9-10H2
Compound 2: (4-acetylphenyl)-[3-thia-1-aza-bicyclo[3.3.1]non-2-ylidene]amine, C15H18N2OS, InChI=1S/C15H18N2OS/c1-11(18)13-4-6-14(7-5-13)16-15-17-8-2-3-12(9-17)10-19-15/h4-7,12H,2-3,8-10H2,1H3
Compound 3: (4-isopropylphenyl)-[3-thia-1-aza-bicyclo[3.3.1]non-2-ylidene]amine, C16H22N2S, InChI=1S/C16H22N2S/c1-12(2)14-5-7-15(8-6-14)17-16-18-9-3-4-13(10-18)11-19-16/h5-8,12-13H,3-4,9-11H2,1-2H3
Compound 4: N-(4-fluorophenyl)-3-selena-1-azabicyclo[3.3.1]nonan-2-imine, C13H15FN2Se, InChI=1S/C13H15FN2Se/c14-11-3-5-12(6-4-11)15-13-16-7-1-2-10(8-16)9-17-13/h3-6,10H,1-2,7-9H2

System: (4-cyanophenyl)-[3-thia-1-aza-bicyclo[3.3.1]non-2-ylidene]amine; phases: Crystal, Gas
Property: Vapor or sublimation pressure, kPa (Crystal); method: Transpiration method
Temperature, K	Vapor or sublimation pressure, kPa	uncertainty
341.15	4.41e-05	6.3e-06
343.15	6.35e-05	8.5e-06
345.15	8.28e-05	1.12e-05
347.15	0.0001196	1.6e-05
349.15	0.0001553	2.06e-05
351.15	0.0002074	2.76e-05
353.15	0.0002772	3.6e-05
354.15	0.0002989	4.04e-05
356.15	0.0004234	5.61e-05
358.15	0.000541	7.09e-05
360.15	0.0007001	9.21e-05
361.15	0.0008286	0.0001107

System: (4-acetylphenyl)-[3-thia-1-aza-bicyclo[3.3.1]non-2-ylidene]amine; phases: Crystal, Gas
Property: Vapor or sublimation pressure, kPa (Crystal); method: Transpiration method
Temperature, K	Vapor or sublimation pressure, kPa	uncertainty
370.15	1.72e-05	2.3e-06
372.15	2.17e-05	2.8e-06
373.15	2.52e-05	3.3e-06
374.15	2.65e-05	3.4e-06
375.15	3.08e-05	4e-06
377.15	3.73e-05	4.8e-06
379.15	4.55e-05	5.9e-06
381.15	5.67e-05	7.3e-06
383.15	6.72e-05	8.6e-06
385.15	8.05e-05	1.03e-05
387.15	9.63e-05	1.25e-05
389.15	0.0001225	1.57e-05
390.15	0.0001287	1.64e-05
391.15	0.0001437	1.88e-05
392.15	0.0001637	2.14e-05

System: (4-isopropylphenyl)-[3-thia-1-aza-bicyclo[3.3.1]non-2-ylidene]amine; phases: Crystal, Gas
Property: Vapor or sublimation pressure, kPa (Crystal); method: Transpiration method
Temperature, K	Vapor or sublimation pressure, kPa	uncertainty
308.15	7.9e-06	1.1e-06
310.15	1.01e-05	1.3e-06
311.15	1.19e-05	1.6e-06
313.15	1.61e-05	2.1e-06
314.15	1.86e-05	2.5e-06
315.15	2.13e-05	2.8e-06
316.15	2.3e-05	3e-06
317.15	2.74e-05	3.6e-06
318.15	3.07e-05	4e-06
319.15	3.29e-05	4.3e-06
320.15	3.89e-05	5.1e-06
322.15	4.8e-05	6.2e-06
323.15	5.57e-05	7.4e-06

System: N-(4-fluorophenyl)-3-selena-1-azabicyclo[3.3.1]nonan-2-imine; phases: Crystal, Liquid, Air at 1 atmosphere
Property: Normal melting temperature, K (Crystal); method: DTA
Normal melting temperature, K	uncertainty
376.2	0.4

System: N-(4-fluorophenyl)-3-selena-1-azabicyclo[3.3.1]nonan-2-imine; phases: Crystal, Liquid, Air at 1 atmosphere
Property: Molar enthalpy of transition or fusion, kJ/mol (Crystal); method: DSC
Molar enthalpy of transition or fusion, kJ/mol	uncertainty
21.9	0.7

System: N-(4-fluorophenyl)-3-selena-1-azabicyclo[3.3.1]nonan-2-imine; phases: Crystal, Gas
Property: Vapor or sublimation pressure, kPa (Crystal); method: Transpiration method
Temperature, K	Vapor or sublimation pressure, kPa	uncertainty
344.15	6.71e-05	8.7e-06
346.15	8.23e-05	1.06e-05
348.15	0.0001009	1.31e-05
350.15	0.0001254	1.62e-05
352.15	0.0001539	1.98e-05
354.15	0.0001821	2.35e-05
357.15	0.0002441	3.13e-05
359.15	0.0002956	3.79e-05
360.15	0.0003273	4.21e-05
361.15	0.00036	4.63e-05
362.15	0.0003964	5.08e-05
363.15	0.0004316	5.52e-05
364.15	0.0004719	6.1e-05
365.15	0.0005306	6.88e-05
