Measured thermophysical data. Solid liquid equilibria of three binary systems: {1-Ethyl-3-methylimidazolium hexafluorophosphate + 2-phenylimidazole, or 4,5-diphenylimidazole or 2,4,5-triphenylimidazole}
Source: Thermochim. Acta, 2007, 10.1016/j.tca.2007.02.005
Compound 1: 1-ethyl-3-methylimidazolium hexafluorophosphate, C6H11F6N2P, InChI=1S/C6H11N2.F6P/c1-3-8-5-4-7(2)6-8;1-7(2,3,4,5)6/h4-6H,3H2,1-2H3;/q+1;-1, purity 99%
Compound 2: 2-phenyl-1H-imidazole, C9H8N2, InChI=1S/C9H8N2/c1-2-4-8(5-3-1)9-10-6-7-11-9/h1-7H,(H,10,11), purity 98%
Compound 3: 4,5-diphenylimidazole, C15H12N2, InChI=1S/C15H12N2/c1-3-7-12(8-4-1)14-15(17-11-16-14)13-9-5-2-6-10-13/h1-11H,(H,16,17), purity 98%
Compound 4: 2,4,5-triphenyl-1H-imidazole, C21H16N2, InChI=1S/C21H16N2/c1-4-10-16(11-5-1)19-20(17-12-6-2-7-13-17)23-21(22-19)18-14-8-3-9-15-18/h1-15H,(H,22,23), purity 98%

System: 1-ethyl-3-methylimidazolium hexafluorophosphate; phases: Crystal, Liquid, Air at 1 atmosphere
Property: Molar enthalpy of transition or fusion, kJ/mol (Crystal); method: DSC
Molar enthalpy of transition or fusion, kJ/mol	uncertainty
17.99	0.44

System: 1-ethyl-3-methylimidazolium hexafluorophosphate; phases: Crystal, Liquid, Air at 1 atmosphere
Property: Normal melting temperature, K (Crystal); method: DTA:corrimp
Normal melting temperature, K	uncertainty
334.05	1.2

System: 2-phenyl-1H-imidazole; phases: Crystal, Liquid, Air at 1 atmosphere
Property: Molar enthalpy of transition or fusion, kJ/mol (Crystal); method: DSC
Molar enthalpy of transition or fusion, kJ/mol	uncertainty
17.81	0.45

System: 2-phenyl-1H-imidazole; phases: Crystal, Liquid, Air at 1 atmosphere
Property: Normal melting temperature, K (Crystal); method: DTA:corrimp
Normal melting temperature, K	uncertainty
419.95	2.1

System: 4,5-diphenylimidazole; phases: Crystal, Liquid, Air at 1 atmosphere
Property: Molar enthalpy of transition or fusion, kJ/mol (Crystal); method: DSC
Molar enthalpy of transition or fusion, kJ/mol	uncertainty
32.34	0.71

System: 4,5-diphenylimidazole; phases: Crystal, Liquid, Air at 1 atmosphere
Property: Normal melting temperature, K (Crystal); method: DTA:corrimp
Normal melting temperature, K	uncertainty
504.95	2.1

System: 2,4,5-triphenyl-1H-imidazole; phases: Crystal, Liquid, Air at 1 atmosphere
Property: Molar enthalpy of transition or fusion, kJ/mol (Crystal); method: DSC
Molar enthalpy of transition or fusion, kJ/mol	uncertainty
37.31	0.81

System: 2,4,5-triphenyl-1H-imidazole; phases: Crystal, Liquid, Air at 1 atmosphere
Property: Normal melting temperature, K (Crystal); method: DTA:corrimp
Normal melting temperature, K	uncertainty
547.75	2.1

System: 2-phenyl-1H-imidazole + 1-ethyl-3-methylimidazolium hexafluorophosphate; phases: Crystal, Crystal, Liquid, Air at 1 atmosphere
Property: Eutectic temperature, K (Crystal); method: DTA:
Eutectic temperature, K	uncertainty
327.05	0.6

System: 2-phenyl-1H-imidazole + 1-ethyl-3-methylimidazolium hexafluorophosphate; phases: Liquid, Crystal
Fixed: Pressure, kPa = 101
Property: Solid-liquid equilibrium temperature, K (Liquid); method: DTA:corrimp
Mole fraction of 1-ethyl-3-methylimidazolium hexafluorophosphate	Solid-liquid equilibrium temperature, K	uncertainty
0.0834	415.65	0.4
0.1061	416.65	0.4
0.1704	411.85	0.4
0.2579	408.75	0.4
0.3334	405.95	0.4
0.4453	399.25	0.4
0.4869	397.25	0.4
0.6036	393.45	0.4
0.6369	387.15	0.4
0.7385	380.15	0.4
0.8118	374.45	0.4
0.8384	371.55	0.4
0.9692	328.55	0.4

System: 4,5-diphenylimidazole + 1-ethyl-3-methylimidazolium hexafluorophosphate; phases: Crystal, Crystal, Liquid, Air at 1 atmosphere
Property: Eutectic temperature, K (Crystal); method: DTA:
Eutectic temperature, K	uncertainty
316.45	0.6

System: 4,5-diphenylimidazole + 1-ethyl-3-methylimidazolium hexafluorophosphate; phases: Liquid, Crystal
Fixed: Pressure, kPa = 101
Property: Solid-liquid equilibrium temperature, K (Liquid); method: DTA:corrimp
Mole fraction of 1-ethyl-3-methylimidazolium hexafluorophosphate	Solid-liquid equilibrium temperature, K	uncertainty
0.1017	497.05	0.4
0.165	491.45	0.4
0.2499	485.35	0.4
0.2997	485.15	0.4
0.3636	477.55	0.4
0.4711	470.95	0.4
0.5773	466.05	0.4
0.7004	455.65	0.4
0.7547	449.75	0.4
0.8033	443.65	0.4
0.8602	428.55	0.4
0.9019	417.95	0.4
0.9518	389.15	0.4

System: 2,4,5-triphenyl-1H-imidazole + 1-ethyl-3-methylimidazolium hexafluorophosphate; phases: Liquid, Crystal
Fixed: Pressure, kPa = 101
Property: Solid-liquid equilibrium temperature, K (Liquid); method: DTA:corrimp
Mole fraction of 1-ethyl-3-methylimidazolium hexafluorophosphate	Solid-liquid equilibrium temperature, K	uncertainty
0.0929	526.65	0.4
0.2163	526.15	0.4
0.3064	517.35	0.4
0.3217	518.35	0.4
0.4316	518.15	0.4
0.492	518.65	0.4
0.5339	512.75	0.4
0.6324	503.75	0.4
0.7691	493.65	0.4
0.8824	459.75	0.4
0.9638	409.25	0.4
