Measured thermophysical data. Measurements of the density, refractive index, electrical conductivity, thermal conductivity and dynamic viscosity for tributylmethylphosphonium and methylsulfate based ionic liquids
Source: Thermochim. Acta, 2018, 10.1016/j.tca.2018.04.007
Compound 1: methyltributylphosphonium chloride, C13H30ClP, InChI=1S/C13H30P.ClH/c1-5-8-11-14(4,12-9-6-2)13-10-7-3;/h5-13H2,1-4H3;1H/q+1;/p-1, purity 95%
Compound 2: Tributylmethylphosphonium bis[(trifluoromethyl)sulfonyl]imide, C15H30F6NO4PS2, InChI=1S/C13H30P.C2F6NO4S2/c1-5-8-11-14(4,12-9-6-2)13-10-7-3;3-1(4,5)14(10,11)9-15(12,13)2(6,7)8/h5-13H2,1-4H3;/q+1;-1
Compound 3: tributylmethylphosphonium methyl sulfate, C14H33O4PS, InChI=1S/C13H30P.CH4O4S/c1-5-8-11-14(4,12-9-6-2)13-10-7-3;1-5-6(2,3)4/h5-13H2,1-4H3;1H3,(H,2,3,4)/q+1;/p-1, purity 95%
Compound 4: 1-methylpyridinium methylsulfate, C7H11NO4S, InChI=1S/C6H8N.CH4O4S/c1-7-5-3-2-4-6-7;1-5-6(2,3)4/h2-6H,1H3;1H3,(H,2,3,4)/q+1;/p-1
Compound 5: 1-butyl-3-methylimidazolium methyl sulfate, C9H18N2O4S, InChI=1S/C8H15N2.CH4O4S/c1-3-4-5-10-7-6-9(2)8-10;1-5-6(2,3)4/h6-8H,3-5H2,1-2H3;1H3,(H,2,3,4)/q+1;/p-1, purity 95%
Compound 6: glycerol, C3H8O3, InChI=1S/C3H8O3/c4-1-3(6)2-5/h3-6H,1-2H2, purity 99%

System: methyltributylphosphonium chloride; phases: Liquid
Fixed: Pressure, kPa = 101.325
Property: Mass density, kg/m3 (Liquid); method: Vibrating tube method
Temperature, K	Mass density, kg/m3	uncertainty
283.15	964.23	2.01
293.15	958.67	2.01
303.15	953.44	2.01
313.15	948.08	2.01
323.15	942.74	2.01
333.15	937.42	2.01
343.15	932.12	2.01

System: methyltributylphosphonium chloride; phases: Liquid
Fixed: Pressure, kPa = 101.325
Property: Refractive index (Na D-line) (Liquid); method: Standard Abbe refractometry
Temperature, K	Refractive index (Na D-line)	uncertainty
283.15	1.5053	0.0005
293.15	1.5037	0.0005
303.15	1.4999	0.0005
313.15	1.4972	0.0005
323.15	1.4952	0.0005
333.15	1.4923	0.0005
343.15	1.4888	0.0005

System: methyltributylphosphonium chloride; phases: Liquid
Fixed: Pressure, kPa = 101.325
Property: Electrical conductivity, S/m (Liquid); method: Direct current cell with electrodes
Temperature, K	Electrical conductivity, S/m	uncertainty
293.15	0.00254	0.000256
303.15	0.005895	0.000592
313.15	0.01308	0.00131
323.15	0.029	0.00291
333.15	0.052	0.00521
343.15	0.09415	0.00942

System: methyltributylphosphonium chloride; phases: Liquid
Fixed: Pressure, kPa = 101.325
Property: Viscosity, Pa*s (Liquid); method: Capillary tube (Ostwald; Ubbelohde) method
Temperature, K	Viscosity, Pa*s	uncertainty
293.15	13.511	1.277
303.15	4.692	0.364
313.15	1.914	0.119
323.15	0.859	0.0421
333.15	0.4168	0.0157

System: methyltributylphosphonium chloride; phases: Liquid
Fixed: Pressure, kPa = 101.325
Property: Thermal conductivity, W/m/K (Liquid); method: THOTW
Temperature, K	Thermal conductivity, W/m/K	uncertainty
293.15	0.159	0.002
303.15	0.158	0.002
313.15	0.157	0.002
323.15	0.156	0.002
333.15	0.155	0.002
343.15	0.154	0.002

System: Tributylmethylphosphonium bis[(trifluoromethyl)sulfonyl]imide; phases: Liquid
Fixed: Pressure, kPa = 101.325
Property: Mass density, kg/m3 (Liquid); method: Vibrating tube method
Temperature, K	Mass density, kg/m3	uncertainty
283.15	1267.21	2.04
293.15	1258.68	2.04
303.15	1250.31	2.04
313.15	1242.07	2.04
323.15	1233.84	2.04
333.15	1225.64	2.04
343.15	1217.49	2.03

System: Tributylmethylphosphonium bis[(trifluoromethyl)sulfonyl]imide; phases: Liquid
Fixed: Pressure, kPa = 101.325
Property: Refractive index (Na D-line) (Liquid); method: Standard Abbe refractometry
Temperature, K	Refractive index (Na D-line)	uncertainty
283.15	1.4403	0.0005
293.15	1.4374	0.0005
303.15	1.4344	0.0005
313.15	1.4314	0.0005
323.15	1.4285	0.0005
333.15	1.4255	0.0005
343.15	1.4228	0.0005

System: Tributylmethylphosphonium bis[(trifluoromethyl)sulfonyl]imide; phases: Liquid
Fixed: Pressure, kPa = 101.325
Property: Electrical conductivity, S/m (Liquid); method: Direct current cell with electrodes
Temperature, K	Electrical conductivity, S/m	uncertainty
293.15	0.03675	0.00369
303.15	0.0743	0.00744
313.15	0.1232	0.0123
323.15	0.1873	0.0187
333.15	0.2785	0.0279
343.15	0.4045	0.0405

System: Tributylmethylphosphonium bis[(trifluoromethyl)sulfonyl]imide; phases: Liquid
Fixed: Pressure, kPa = 101.325
Property: Viscosity, Pa*s (Liquid); method: Capillary tube (Ostwald; Ubbelohde) method
Temperature, K	Viscosity, Pa*s	uncertainty
283.15	0.6167	0.0265
293.15	0.2993	0.0095
303.15	0.156	0.0034
313.15	0.0877	0.0013
323.15	0.0547	0.0007
333.15	0.0384	0.0005
343.15	0.0275	0.0003

System: Tributylmethylphosphonium bis[(trifluoromethyl)sulfonyl]imide; phases: Liquid
Fixed: Pressure, kPa = 101.325
Property: Thermal conductivity, W/m/K (Liquid); method: THOTW
Temperature, K	Thermal conductivity, W/m/K	uncertainty
283.15	0.126	0.002
293.15	0.126	0.002
303.15	0.125	0.002
313.15	0.122	0.002
323.15	0.123	0.002
333.15	0.122	0.002
343.15	0.121	0.002

System: tributylmethylphosphonium methyl sulfate; phases: Liquid
Fixed: Pressure, kPa = 101.325
Property: Mass density, kg/m3 (Liquid); method: Vibrating tube method
Temperature, K	Mass density, kg/m3	uncertainty
283.15	1066.59	2.02
293.15	1060.4	2.02
303.15	1054.25	2.02
313.15	1048.13	2.01
323.15	1042.02	2.01
333.15	1036.12	2.01
343.15	1030.18	2.01

System: tributylmethylphosphonium methyl sulfate; phases: Liquid
Fixed: Pressure, kPa = 101.325
Property: Refractive index (Na D-line) (Liquid); method: Standard Abbe refractometry
Temperature, K	Refractive index (Na D-line)	uncertainty
283.15	1.4782	0.0005
293.15	1.4755	0.0005
303.15	1.4728	0.0005
313.15	1.4702	0.0005
323.15	1.4673	0.0005
333.15	1.4647	0.0005
343.15	1.4619	0.0005

System: tributylmethylphosphonium methyl sulfate; phases: Liquid
Fixed: Pressure, kPa = 101.325
Property: Electrical conductivity, S/m (Liquid); method: Direct current cell with electrodes
Temperature, K	Electrical conductivity, S/m	uncertainty
293.15	0.007495	0.000754
303.15	0.01582	0.00159
313.15	0.02785	0.00279
323.15	0.0483	0.00484
333.15	0.08815	0.00883
343.15	0.139	0.0139

System: tributylmethylphosphonium methyl sulfate; phases: Liquid
Fixed: Pressure, kPa = 101.325
Property: Viscosity, Pa*s (Liquid); method: Capillary tube (Ostwald; Ubbelohde) method
Temperature, K	Viscosity, Pa*s	uncertainty
293.15	1.434	0.082
303.15	0.6506	0.0289
313.15	0.3392	0.0114
323.15	0.1894	0.0046
333.15	0.1139	0.002
343.15	0.0724	0.001

System: tributylmethylphosphonium methyl sulfate; phases: Liquid
Fixed: Pressure, kPa = 101.325
Property: Thermal conductivity, W/m/K (Liquid); method: THOTW
Temperature, K	Thermal conductivity, W/m/K	uncertainty
293.15	0.16	0.002
303.15	0.159	0.002
313.15	0.159	0.002
323.15	0.158	0.002
333.15	0.157	0.002
343.15	0.157	0.002

System: 1-methylpyridinium methylsulfate; phases: Liquid
Fixed: Pressure, kPa = 101.325
Property: Mass density, kg/m3 (Liquid); method: Vibrating tube method
Temperature, K	Mass density, kg/m3	uncertainty
283.15	1355	2.1
293.15	1348.1	2.1
303.15	1341.3	2.1
313.15	1334.5	2.1
323.15	1327.8	2.1
333.15	1321.1	2.1
343.15	1314.5	2.1

System: 1-methylpyridinium methylsulfate; phases: Liquid
Fixed: Pressure, kPa = 101.325
Property: Refractive index (Na D-line) (Liquid); method: Standard Abbe refractometry
Temperature, K	Refractive index (Na D-line)	uncertainty
283.15	1.5164	0.0005
293.15	1.5139	0.0005
303.15	1.5113	0.0005
313.15	1.5088	0.0005
323.15	1.5063	0.0005
333.15	1.5039	0.0005
343.15	1.5013	0.0005

System: 1-methylpyridinium methylsulfate; phases: Liquid
Fixed: Pressure, kPa = 101.325
Property: Electrical conductivity, S/m (Liquid); method: Direct current cell with electrodes
Temperature, K	Electrical conductivity, S/m	uncertainty
293.15	0.2875	0.0288
303.15	0.45	0.045
313.15	0.6835	0.0684
323.15	0.986	0.0987
333.15	1.3565	0.1357
343.15	1.7505	0.1751

System: 1-methylpyridinium methylsulfate; phases: Liquid
Fixed: Pressure, kPa = 101.325
Property: Viscosity, Pa*s (Liquid); method: Capillary tube (Ostwald; Ubbelohde) method
Temperature, K	Viscosity, Pa*s	uncertainty
283.15	0.199	0.0049
293.15	0.1135	0.002
303.15	0.0692	0.0009
313.15	0.046	0.0006
323.15	0.032	0.0004
333.15	0.023	0.0003
343.15	0.0173	0.0002

System: 1-methylpyridinium methylsulfate; phases: Liquid
Fixed: Pressure, kPa = 101.325
Property: Thermal conductivity, W/m/K (Liquid); method: THOTW
Temperature, K	Thermal conductivity, W/m/K	uncertainty
283.15	0.205	0.002
293.15	0.205	0.002
303.15	0.204	0.002
313.15	0.204	0.002
323.15	0.203	0.002
333.15	0.202	0.002
343.15	0.201	0.002

System: 1-butyl-3-methylimidazolium methyl sulfate; phases: Liquid
Fixed: Pressure, kPa = 101.325
Property: Mass density, kg/m3 (Liquid); method: Vibrating tube method
Temperature, K	Mass density, kg/m3	uncertainty
283.15	1218.78	2.04
293.15	1211.96	2.03
303.15	1205.33	2.03
313.15	1198.79	2.03
323.15	1192.26	2.03
333.15	1185.76	2.03
343.15	1179.31	2.03

System: 1-butyl-3-methylimidazolium methyl sulfate; phases: Liquid
Fixed: Pressure, kPa = 101.325
Property: Refractive index (Na D-line) (Liquid); method: Standard Abbe refractometry
Temperature, K	Refractive index (Na D-line)	uncertainty
283.15	1.4831	0.0005
293.15	1.4804	0.0005
303.15	1.4781	0.0005
313.15	1.4753	0.0005
323.15	1.4729	0.0005
333.15	1.4704	0.0005
343.15	1.4678	0.0005

System: 1-butyl-3-methylimidazolium methyl sulfate; phases: Liquid
Fixed: Pressure, kPa = 101.325
Property: Electrical conductivity, S/m (Liquid); method: Direct current cell with electrodes
Temperature, K	Electrical conductivity, S/m	uncertainty
293.15	0.1041	0.0104
303.15	0.177	0.0177
313.15	0.2785	0.0279
323.15	0.426	0.0426
333.15	0.6225	0.0623
343.15	0.8845	0.0885

System: 1-butyl-3-methylimidazolium methyl sulfate; phases: Liquid
Fixed: Pressure, kPa = 101.325
Property: Viscosity, Pa*s (Liquid); method: Capillary tube (Ostwald; Ubbelohde) method
Temperature, K	Viscosity, Pa*s	uncertainty
283.15	0.5316	0.0215
293.15	0.2691	0.008
303.15	0.1519	0.0033
313.15	0.0917	0.0014
323.15	0.0596	0.0007
333.15	0.0405	0.0005
343.15	0.0289	0.0004

System: 1-butyl-3-methylimidazolium methyl sulfate; phases: Liquid
Fixed: Pressure, kPa = 101.325
Property: Thermal conductivity, W/m/K (Liquid); method: THOTW
Temperature, K	Thermal conductivity, W/m/K	uncertainty
283.15	0.179	0.002
293.15	0.177	0.002
303.15	0.176	0.002
313.15	0.176	0.002
323.15	0.174	0.002
333.15	0.173	0.002
343.15	0.172	0.002

System: glycerol; phases: Liquid
Fixed: Pressure, kPa = 101.325
Property: Thermal conductivity, W/m/K (Liquid); method: THOTW
Temperature, K	Thermal conductivity, W/m/K	uncertainty
283.15	0.284	0.002
293.15	0.284	0.002
303.15	0.284	0.002
313.15	0.284	0.002
323.15	0.284	0.002
333.15	0.284	0.002
