Measured thermophysical data. Thermodynamic properties of 1-butyl-3-methylimidazolium trifluoromethanesulfonate ionic  liquid in the condensed state
Source: Thermochim. Acta, 2010, 10.1016/j.tca.2010.08.002
Compound 1: 1-butyl-3-methylimidazolium trifluoromethanesulfonate, C9H15F3N2O3S, InChI=1S/C8H15N2.CHF3O3S/c1-3-4-5-10-7-6-9(2)8-10;2-1(3,4)8(5,6)7/h6-8H,3-5H2,1-2H3;(H,5,6,7)/q+1;/p-1

System: 1-butyl-3-methylimidazolium trifluoromethanesulfonate; phases: Crystal 1, Liquid, Gas
Property: Molar enthalpy of transition or fusion, kJ/mol (Crystal 1); method: Adiabatic calorimetry
Molar enthalpy of transition or fusion, kJ/mol	uncertainty
19.432	0.04

System: 1-butyl-3-methylimidazolium trifluoromethanesulfonate; phases: Crystal 2, Crystal 1, Gas
Property: Molar enthalpy of transition or fusion, kJ/mol (Crystal 2); method: Adiabatic calorimetry
Molar enthalpy of transition or fusion, kJ/mol	uncertainty
0.013	0.001

System: 1-butyl-3-methylimidazolium trifluoromethanesulfonate; phases: Crystal 1, Liquid, Gas
Property: Triple point temperature, K (Crystal 1); method: Adiabatic calorimetry
Triple point temperature, K	uncertainty
290.98	0.04

System: 1-butyl-3-methylimidazolium trifluoromethanesulfonate; phases: Crystal 2, Crystal 1, Gas
Property: Triple point temperature, K (Crystal 2); method: Adiabatic calorimetry
Triple point temperature, K	uncertainty
120	0.1

System: 1-butyl-3-methylimidazolium trifluoromethanesulfonate; phases: Crystal 2
Fixed: Pressure, kPa = 101.325
Property: Molar heat capacity at constant pressure, J/K/mol (Crystal 2); method: Vacuum adiabatic calorimetry
Temperature, K	Molar heat capacity at constant pressure, J/K/mol	uncertainty
5	1.486	0.031
10	10.2	0.1
15	23.78	0.18
20	38.56	0.23
25	52.98	0.25
30	66.38	0.18
35	78.37	0.2
40	88.95	0.22
45	98.67	0.24
50	107.5	0.3
55	115.5	0.3
60	123	0.3
65	130	0.3
70	136.6	0.3
80	148.9	0.3
90	160	0.4
100	170.5	0.4
110	180.5	0.4
120	192.4	0.4

System: 1-butyl-3-methylimidazolium trifluoromethanesulfonate; phases: Crystal 1
Fixed: Pressure, kPa = 101.325
Property: Molar heat capacity at constant pressure, J/K/mol (Crystal 1); method: Vacuum adiabatic calorimetry
Temperature, K	Molar heat capacity at constant pressure, J/K/mol	uncertainty
120	192.4	0.4
130	198.6	0.4
140	206.9	0.4
150	216.1	0.4
160	225.6	0.4
170	235.5	0.4
180	245.9	0.4
190	256.7	0.5
200	267.8	0.5
210	279.3	0.5
220	290.9	0.5
230	302.8	0.5
240	314.9	0.5
250	327.1	0.5
260	339.4	0.5
270	351.9	0.6
280	364.5	0.6
290	377.3	0.6
290.98	378.5	0.6

System: 1-butyl-3-methylimidazolium trifluoromethanesulfonate; phases: Liquid
Fixed: Pressure, kPa = 101.325
Property: Molar heat capacity at constant pressure, J/K/mol (Liquid); method: Vacuum adiabatic calorimetry
Temperature, K	Molar heat capacity at constant pressure, J/K/mol	uncertainty
290.98	423.9	0.6
298.15	427.7	0.6
300	428.6	0.6
310	433.9	0.6
320	439.2	0.6
330	444.6	0.6
340	450	0.7
350	455.4	0.7
360	460.9	0.7
370	466.4	0.7

System: 1-butyl-3-methylimidazolium trifluoromethanesulfonate; phases: Crystal, Gas
Property: Molar heat capacity at saturation pressure, J/K/mol (Crystal); method: Vacuum adiabatic calorimetry
Temperature, K	Molar heat capacity at saturation pressure, J/K/mol	uncertainty
78.69	147.7	0.3
80.59	149.7	0.3
82.36	151.6	0.3
84.13	153.6	0.4
85.92	155.7	0.4
87.73	157.6	0.4
89.54	159.5	0.4
91.35	161.5	0.4
93.18	163.4	0.4
95.02	165.5	0.4
96.87	167.3	0.4
98.72	169.2	0.4
100.59	171.1	0.4
102.64	173.1	0.4
104.89	175.5	0.4
107.15	177.7	0.4
109.42	179.9	0.4
111.71	182.1	0.4
114.01	184.4	0.4
116.31	186.8	0.4
118.61	190.7	0.4
120.92	192.7	0.4
123.24	193.9	0.4
125.56	195.3	0.4
127.9	197	0.4
130.24	198.8	0.4
132.58	200.7	0.4
134.93	202.7	0.4
137.28	204.7	0.4
139.64	206.6	0.4
142	208.7	0.4
144.36	210.9	0.4
146.73	213	0.4
149.09	215.2	0.4
151.45	217.4	0.4
153.82	219.6	0.4
156.18	221.9	0.4
158.55	224.2	0.4
160.91	226.5	0.4
163.28	228.8	0.4
165.64	231.1	0.4
168	233.4	0.4
170.36	235.9	0.4
172.71	238.3	0.4
175.07	240.6	0.4
177.42	243.1	0.4
179.77	245.6	0.4
182.11	248.1	0.5
184.46	250.6	0.5
186.8	253.2	0.5
189.13	255.8	0.5
191.47	258.4	0.5
193.8	260.9	0.5
196.12	263.5	0.5
198.44	266.1	0.5
200.76	268.7	0.5
203.13	271.4	0.5
205.57	274.2	0.5
208	276.9	0.5
210.42	279.6	0.5
212.84	282.5	0.5
215.25	285.3	0.5
217.66	288	0.5
220.07	290.8	0.5
222.47	293.7	0.5
224.86	296.5	0.5
227.25	299.4	0.5
229.63	302.3	0.5
232	305.2	0.5
234.37	308.1	0.5
236.73	311	0.5
239.09	313.8	0.5
241.44	316.7	0.5
243.78	319.6	0.5
246.12	322.2	0.5
248.45	325.1	0.5
250.78	328	0.5
253.1	330.8	0.5
255.41	333.7	0.5
257.72	336.3	0.5
260.02	339.2	0.5
262.32	342.1	0.5
264.6	345	0.5
266.89	347.9	0.6
269.17	350.7	0.6

System: 1-butyl-3-methylimidazolium trifluoromethanesulfonate; phases: Liquid, Gas
Property: Molar heat capacity at saturation pressure, J/K/mol (Liquid); method: Vacuum adiabatic calorimetry
Temperature, K	Molar heat capacity at saturation pressure, J/K/mol	uncertainty
293.17	425	0.6
295.28	426.2	0.6
297.38	427	0.6
299.48	428.2	0.6
301.69	429.6	0.6
304	430.8	0.6
306.31	431.9	0.6
308.62	433.1	0.6
310.93	434.5	0.6
313.24	435.7	0.6
315.55	436.8	0.6
317.86	438	0.6
320.17	439.1	0.6
322.48	440.6	0.6
324.79	441.7	0.6
327.1	443.2	0.6
329.4	444.3	0.6
331.71	445.5	0.6
334.02	446.6	0.6
336.33	448.1	0.7
338.64	449.2	0.7
340.94	450.7	0.7
343.24	451.8	0.7
345.55	453	0.7
347.85	454.3	0.7
350.16	455.5	0.7
352.47	456.9	0.7
354.77	458.1	0.7
357.08	459.5	0.7
359.38	460.7	0.7
361.68	461.8	0.7
363.99	463	0.7
366.29	464.4	0.7
368.59	465.6	0.7

System: 1-butyl-3-methylimidazolium trifluoromethanesulfonate; phases: Crystal, Gas
Property: Molar heat capacity at saturation pressure, J/K/mol (Crystal); method: Vacuum adiabatic calorimetry
Temperature, K	Molar heat capacity at saturation pressure, J/K/mol	uncertainty
265.54	346.1	0.5
267.48	348.7	0.6

System: 1-butyl-3-methylimidazolium trifluoromethanesulfonate; phases: Crystal, Gas
Property: Molar heat capacity at saturation pressure, J/K/mol (Crystal); method: Vacuum adiabatic calorimetry
Temperature, K	Molar heat capacity at saturation pressure, J/K/mol	uncertainty
78.69	147.6	0.3
80.61	149.7	0.3
82.4	151.6	0.3
84.19	153.7	0.4
86	155.7	0.4
87.81	157.6	0.4
89.64	159.6	0.4
91.48	161.6	0.4
93.33	163.6	0.4
95.19	165.6	0.4
97.05	167.5	0.4
98.92	169.4	0.4
100.8	171.4	0.4
102.7	173.3	0.4
104.6	175.1	0.4
106.5	177	0.4
108.41	178.9	0.4
110.33	180.8	0.4
112.25	182.6	0.4
114.17	184.5	0.4
116.1	186.5	0.4
118.04	189.9	0.4
119.97	192.6	0.4
121.91	193.4	0.4
123.85	194.3	0.4
125.8	195.5	0.4
127.76	196.9	0.4
129.72	198.4	0.4
131.68	200	0.4
133.65	201.6	0.4
135.63	203.2	0.4
137.6	204.9	0.4
139.58	206.5	0.4
141.56	208.3	0.4
143.55	210.1	0.4
145.53	211.9	0.4
147.51	213.7	0.4
149.5	215.5	0.4
151.48	217.4	0.4
153.46	219.3	0.4
155.44	221.2	0.4
157.42	223.1	0.4
159.41	225.1	0.4
161.39	226.9	0.4
163.37	228.9	0.4
165.35	230.9	0.4
167.32	232.8	0.4
169.3	234.8	0.4
171.28	236.8	0.4
173.26	238.8	0.4
175.23	240.9	0.4
177.2	242.9	0.4
179.17	245	0.4
181.13	247.1	0.5
183.1	249.2	0.5
185.06	251.3	0.5
187.02	253.5	0.5
188.97	255.7	0.5
190.92	257.9	0.5
192.87	260	0.5
194.82	262.1	0.5
196.77	264.3	0.5
198.72	266.6	0.5
200.66	268.7	0.5
202.67	271	0.5
204.73	273.3	0.5
206.78	275.7	0.5
208.82	278.1	0.5
210.87	280.4	0.5
212.92	282.7	0.5
214.96	285	0.5
217	287.4	0.5
219.02	289.6	0.5
221.05	292.2	0.5
223.08	294.5	0.5
225.1	296.8	0.5
227.12	299.4	0.5
229.13	301.7	0.5
231.14	304	0.5
233.14	306.6	0.5
235.15	308.9	0.5
237.14	311.5	0.5
239.13	313.8	0.5
241.12	316.1	0.5
243.1	318.7	0.5
245.08	321	0.5
247.06	323.3	0.5
249.03	325.9	0.5
250.99	328.3	0.5
252.95	330.6	0.5
254.91	333.2	0.5
256.86	335.5	0.5
258.81	337.8	0.5
260.75	340.4	0.5
262.69	342.7	0.5
264.62	345.3	0.5
266.56	347.6	0.6
268.49	350.2	0.6

System: 1-butyl-3-methylimidazolium trifluoromethanesulfonate; phases: Liquid, Gas
Property: Molar heat capacity at saturation pressure, J/K/mol (Liquid); method: Vacuum adiabatic calorimetry
Temperature, K	Molar heat capacity at saturation pressure, J/K/mol	uncertainty
291.91	424.4	0.6
293.82	425.6	0.6
295.71	426.5	0.6
297.61	427.6	0.6

System: 1-butyl-3-methylimidazolium trifluoromethanesulfonate; phases: Crystal, Gas
Property: Molar heat capacity at saturation pressure, J/K/mol (Crystal); method: Vacuum adiabatic calorimetry
Temperature, K	Molar heat capacity at saturation pressure, J/K/mol	uncertainty
250.76	328	0.5
252.81	330.6	0.5
254.78	332.9	0.5
256.73	335.5	0.5
258.69	337.8	0.5
260.64	340.4	0.5
262.59	342.7	0.5
264.53	345.3	0.5
266.46	347.6	0.6
268.4	349.9	0.6

System: 1-butyl-3-methylimidazolium trifluoromethanesulfonate; phases: Liquid, Gas
Property: Molar heat capacity at saturation pressure, J/K/mol (Liquid); method: Vacuum adiabatic calorimetry
Temperature, K	Molar heat capacity at saturation pressure, J/K/mol	uncertainty
295.44	426.2	0.6
297.43	427.3	0.6

System: 1-butyl-3-methylimidazolium trifluoromethanesulfonate; phases: Crystal, Gas
Property: Molar heat capacity at saturation pressure, J/K/mol (Crystal); method: Vacuum adiabatic calorimetry
Temperature, K	Molar heat capacity at saturation pressure, J/K/mol	uncertainty
260.34	339.8	0.5
262.38	342.4	0.5
264.34	345	0.5
266.29	347.3	0.6
268.23	349.9	0.6

System: 1-butyl-3-methylimidazolium trifluoromethanesulfonate; phases: Liquid, Gas
Property: Molar heat capacity at saturation pressure, J/K/mol (Liquid); method: Vacuum adiabatic calorimetry
Temperature, K	Molar heat capacity at saturation pressure, J/K/mol	uncertainty
294.28	425.6	0.6

System: 1-butyl-3-methylimidazolium trifluoromethanesulfonate; phases: Crystal, Gas
Property: Molar heat capacity at saturation pressure, J/K/mol (Crystal); method: Vacuum adiabatic calorimetry
Temperature, K	Molar heat capacity at saturation pressure, J/K/mol	uncertainty
5.202	1.664	0.032
5.437	1.901	0.034
5.715	2.221	0.038
5.999	2.57	0.041
6.317	2.999	0.046
6.671	3.523	0.05
7.032	4.097	0.056
7.395	4.732	0.061
7.763	5.393	0.066
8.135	6.123	0.072
8.512	6.893	0.078
8.894	7.698	0.084
9.277	8.558	0.09
9.664	9.444	0.096
10.05	10.36	0.1
10.55	11.59	0.11
11.16	13.11	0.12
11.77	14.7	0.13
12.38	16.35	0.14
13	18.04	0.15
13.62	19.77	0.16
14.25	21.58	0.17
14.88	23.41	0.18
15.62	25.59	0.19
16.48	28.21	0.2
17.34	30.75	0.21
18.21	33.27	0.22
19.07	35.79	0.23
19.94	38.35	0.23
21.15	41.92	0.24
22.72	46.46	0.25
24.29	51.02	0.25
25.87	55.46	0.26
27.45	59.71	0.25
28.86	63.39	0.25
30.34	67.25	0.18
32.09	71.61	0.19
34	76.13	0.2
35.92	80.4	0.21
37.84	84.48	0.21
39.76	88.4	0.22
41.78	92.42	0.23
43.9	96.53	0.24
46.01	100.5	0.2
48.13	104.3	0.3
50.25	108	0.3
52.38	111.5	0.3
54.5	114.9	0.3
56.63	118.1	0.3
58.75	121.2	0.3
60.89	124.2	0.3
63.03	127.2	0.3
65.17	130.1	0.3
67.3	133	0.3
69.44	135.8	0.3
71.69	138.7	0.3
74.03	141.6	0.3
76.39	144.5	0.3
78.74	147.4	0.3
81.1	150.1	0.3
83.47	152.9	0.4

System: 1-butyl-3-methylimidazolium trifluoromethanesulfonate; phases: Crystal 2
Fixed: Pressure, kPa = 101.325
Property: Molar enthalpy function {Hm(T)-Hm(0)}/T, J/K/mol (Crystal 2); method: Vacuum adiabatic calorimetry
Temperature, K	Molar enthalpy function {Hm(T)-Hm(0)}/T, J/K/mol	uncertainty
5	0.3706	0.0144
10	2.798	0.035
15	7.456	0.064
20	13.39	0.09
25	19.88	0.1
30	26.53	0.1
35	33.1	0.11
40	39.43	0.12
45	45.48	0.13
50	51.25	0.14
55	56.73	0.16
60	61.94	0.17
65	66.91	0.17
70	71.65	0.18
80	80.55	0.2
90	88.77	0.29
100	96.42	0.3
110	103.6	0.3

System: 1-butyl-3-methylimidazolium trifluoromethanesulfonate; phases: Crystal 1
Fixed: Pressure, kPa = 101.325
Property: Molar enthalpy function {Hm(T)-Hm(0)}/T, J/K/mol (Crystal 1); method: Vacuum adiabatic calorimetry
Temperature, K	Molar enthalpy function {Hm(T)-Hm(0)}/T, J/K/mol	uncertainty
130	117	0.3
140	123.1	0.3
150	129	0.3
160	134.7	0.3
170	140.4	0.3
180	145.9	0.4
190	151.5	0.4
200	157	0.4
210	162.6	0.4
220	168.1	0.4
230	173.7	0.4
240	179.4	0.4
250	185	0.4
260	190.7	0.4
270	196.5	0.4
280	202.2	0.4
290	208.1	0.4
290.98	208.6	0.4

System: 1-butyl-3-methylimidazolium trifluoromethanesulfonate; phases: Liquid
Fixed: Pressure, kPa = 101.325
Property: Molar enthalpy function {Hm(T)-Hm(0)}/T, J/K/mol (Liquid); method: Vacuum adiabatic calorimetry
Temperature, K	Molar enthalpy function {Hm(T)-Hm(0)}/T, J/K/mol	uncertainty
290.98	275.4	0.5
298.15	279	0.5
300	280	0.5
310	284.8	0.5
320	289.6	0.5
330	294.2	0.5
340	298.7	0.5
350	303.1	0.5
360	307.4	0.5
370	311.6	0.5

System: 1-butyl-3-methylimidazolium trifluoromethanesulfonate; phases: Crystal 2
Fixed: Pressure, kPa = 101.325
Property: Molar entropy, J/K/mol (Crystal 2); method: Vacuum adiabatic calorimetry
Temperature, K	Molar entropy, J/K/mol	uncertainty
5	0.4944	0.0229
10	3.77	0.06
15	10.39	0.12
20	19.26	0.18
25	29.42	0.22
30	40.29	0.19
35	51.44	0.22
40	62.61	0.25
45	73.65	0.28
50	84.51	0.32
55	95.14	0.35
60	105.5	0.4
65	115.6	0.4
70	125.5	0.4
80	144.6	0.5
90	162.8	0.5
100	180.2	0.6
110	196.9	0.6

System: 1-butyl-3-methylimidazolium trifluoromethanesulfonate; phases: Crystal 1
Fixed: Pressure, kPa = 101.325
Property: Molar entropy, J/K/mol (Crystal 1); method: Vacuum adiabatic calorimetry
Temperature, K	Molar entropy, J/K/mol	uncertainty
130	228.7	0.6
140	243.7	0.7
150	258.3	0.7
160	272.5	0.7
170	286.5	0.7
180	300.3	0.8
190	313.8	0.8
200	327.3	0.8
210	340.6	0.8
220	353.9	0.8
230	367.1	0.9
240	380.2	0.9
250	393.3	0.9
260	406.4	0.9
270	419.4	0.9
280	432.5	1
290	445.5	1
290.98	446.8	1

System: 1-butyl-3-methylimidazolium trifluoromethanesulfonate; phases: Liquid
Fixed: Pressure, kPa = 101.325
Property: Molar entropy, J/K/mol (Liquid); method: Vacuum adiabatic calorimetry
Temperature, K	Molar entropy, J/K/mol	uncertainty
290.98	513.6	1.1
298.15	523.9	1.1
300	526.6	1.1
310	540.7	1.1
320	554.6	1.1
330	568.2	1.2
340	581.5	1.2
350	594.7	1.2
360	607.6	1.2
370	620.3	1.2
