Measured thermophysical data. Surface tension measurements of aqueous 1-alkyle-3-methylimidazolume tetrafluoroborate {[Cnmim][BF4] (n = 2, 4, 6)} solutions and modeling surface tension of ionic liquid binary mixtures using six various models
Source: Thermochim. Acta, 2019, 10.1016/j.tca.2019.01.018
Compound 1: 1-ethyl-3-methylimidazolium tetrafluoroborate, C6H11BF4N2, InChI=1S/C6H11N2.BF4/c1-3-8-5-4-7(2)6-8;2-1(3,4)5/h4-6H,3H2,1-2H3;/q+1;-1, purity 98%
Compound 2: 1-butyl-3-methylimidazolium tetrafluoroborate, C8H15BF4N2, InChI=1S/C8H15N2.BF4/c1-3-4-5-10-7-6-9(2)8-10;2-1(3,4)5/h6-8H,3-5H2,1-2H3;/q+1;-1, purity 99%
Compound 3: 1-hexyl-3-methylimidazolium tetrafluoroborate, C10H19BF4N2, InChI=1S/C10H19N2.BF4/c1-3-4-5-6-7-12-9-8-11(2)10-12;2-1(3,4)5/h8-10H,3-7H2,1-2H3;/q+1;-1, purity 99%
Compound 4: water, H2O, InChI=1S/H2O/h1H2

System: 1-ethyl-3-methylimidazolium tetrafluoroborate; phases: Liquid, Air at 1 atmosphere
Property: Surface tension liquid-gas, N/m (Liquid); method: Ring tensiometer
Temperature, K	Surface tension liquid-gas, N/m	uncertainty
298.15	0.05205	0.00101
308.15	0.05165	0.001
318.15	0.05125	0.001
328.15	0.05085	0.001
338.15	0.05045	0.00099

System: 1-butyl-3-methylimidazolium tetrafluoroborate; phases: Liquid, Air at 1 atmosphere
Property: Surface tension liquid-gas, N/m (Liquid); method: Ring tensiometer
Temperature, K	Surface tension liquid-gas, N/m	uncertainty
298.15	0.0446	0.00084
308.15	0.04365	0.00083
318.15	0.04295	0.00083
328.15	0.04225	0.00082
338.15	0.04155	0.00082

System: 1-hexyl-3-methylimidazolium tetrafluoroborate; phases: Liquid, Air at 1 atmosphere
Property: Surface tension liquid-gas, N/m (Liquid); method: Ring tensiometer
Temperature, K	Surface tension liquid-gas, N/m	uncertainty
298.15	0.03722	0.00078
308.15	0.03662	0.00078
318.15	0.03592	0.00077
328.15	0.03522	0.00077
338.15	0.03452	0.00076

System: water; phases: Liquid, Air at 1 atmosphere
Property: Surface tension liquid-gas, N/m (Liquid); method: Ring tensiometer
Temperature, K	Surface tension liquid-gas, N/m	uncertainty
298.15	0.0718	0.00103
308.15	0.0701	0.00101
318.15	0.0684	0.001
328.15	0.0667	0.00099
338.15	0.065	0.00097

System: 1-ethyl-3-methylimidazolium tetrafluoroborate + water; phases: Liquid, Air at 1 atmosphere
Property: Surface tension liquid-gas, N/m (Liquid); method: Ring tensiometer
Temperature, K	Mole fraction of 1-ethyl-3-methylimidazolium tetrafluoroborate	Surface tension liquid-gas, N/m	uncertainty
298.15	0	0.0718	0.00103
298.15	0.02	0.06027	0.00118
298.15	0.04	0.05747	0.00093
298.15	0.06	0.05649	0.00091
298.15	0.08	0.05552	0.0009
298.15	0.1	0.05498	0.0009
298.15	0.2	0.05392	0.00089
298.15	0.4	0.05361	0.00091
298.15	0.6	0.05323	0.00094
298.15	0.8	0.05273	0.00097
298.15	1	0.05205	0.00101
308.15	0	0.0701	0.00101
308.15	0.02	0.05907	0.00115
308.15	0.04	0.05647	0.00092
308.15	0.06	0.05569	0.0009
308.15	0.08	0.05482	0.00089
308.15	0.1	0.05438	0.00089
308.15	0.2	0.05352	0.00089
308.15	0.4	0.05321	0.00091
308.15	0.6	0.05283	0.00093
308.15	0.8	0.05233	0.00097
308.15	1	0.05165	0.001
318.15	0	0.0684	0.001
318.15	0.02	0.05787	0.00112
318.15	0.04	0.05547	0.00091
318.15	0.06	0.05489	0.00089
318.15	0.08	0.05412	0.00089
318.15	0.1	0.05378	0.00088
318.15	0.2	0.05312	0.00089
318.15	0.4	0.05281	0.0009
318.15	0.6	0.05243	0.00093
318.15	0.8	0.05193	0.00096
318.15	1	0.05125	0.001
328.15	0	0.0667	0.00099
328.15	0.02	0.05667	0.00109
328.15	0.04	0.05447	0.0009
328.15	0.06	0.05409	0.00089
328.15	0.08	0.05342	0.00088
328.15	0.1	0.05318	0.00088
328.15	0.2	0.05272	0.00088
328.15	0.4	0.05241	0.0009
328.15	0.6	0.05203	0.00093
328.15	0.8	0.05153	0.00096
328.15	1	0.05085	0.001
338.15	0	0.065	0.00097
338.15	0.02	0.05547	0.00106
338.15	0.04	0.05347	0.00089
338.15	0.06	0.05329	0.00088
338.15	0.08	0.05272	0.00088
338.15	0.1	0.05258	0.00087
338.15	0.2	0.05232	0.00088
338.15	0.4	0.05201	0.0009
338.15	0.6	0.05163	0.00092
338.15	0.8	0.05113	0.00095
338.15	1	0.05045	0.00099

System: 1-butyl-3-methylimidazolium tetrafluoroborate + water; phases: Liquid, Air at 1 atmosphere
Property: Surface tension liquid-gas, N/m (Liquid); method: Ring tensiometer
Temperature, K	Mole fraction of 1-butyl-3-methylimidazolium tetrafluoroborate	Surface tension liquid-gas, N/m	uncertainty
298.15	0	0.0718	0.00103
298.15	0.02	0.04907	0.0015
298.15	0.04	0.04716	0.00084
298.15	0.06	0.04705	0.00083
298.15	0.08	0.04695	0.00083
298.15	0.1	0.0468	0.00083
298.15	0.2	0.0463	0.00083
298.15	0.4	0.0459	0.00083
298.15	0.6	0.0454	0.00083
298.15	0.8	0.045	0.00083
298.15	1	0.0446	0.00084
308.15	0	0.0701	0.00101
308.15	0.02	0.04815	0.00147
308.15	0.04	0.04595	0.00083
308.15	0.06	0.04585	0.00082
308.15	0.08	0.04575	0.00082
308.15	0.1	0.04565	0.00082
308.15	0.2	0.04545	0.00082
308.15	0.4	0.04495	0.00082
308.15	0.6	0.04455	0.00082
308.15	0.8	0.04435	0.00083
308.15	1	0.04365	0.00083
318.15	0	0.0684	0.001
318.15	0.02	0.04735	0.00143
318.15	0.04	0.04515	0.00082
318.15	0.06	0.04505	0.00081
318.15	0.08	0.04495	0.00081
318.15	0.1	0.04485	0.00081
318.15	0.2	0.04465	0.00081
318.15	0.4	0.04415	0.00081
318.15	0.6	0.04375	0.00082
318.15	0.8	0.04355	0.00082
318.15	1	0.04295	0.00083
328.15	0	0.0667	0.00099
328.15	0.02	0.04655	0.00139
328.15	0.04	0.04435	0.00082
328.15	0.06	0.04425	0.00081
328.15	0.08	0.04415	0.00081
328.15	0.1	0.04405	0.00081
328.15	0.2	0.04385	0.00081
328.15	0.4	0.04335	0.00081
328.15	0.6	0.04295	0.00081
328.15	0.8	0.04275	0.00082
328.15	1	0.04225	0.00082
338.15	0	0.065	0.00097
338.15	0.02	0.04575	0.00135
338.15	0.04	0.04355	0.00081
338.15	0.06	0.04345	0.0008
338.15	0.08	0.04335	0.0008
338.15	0.1	0.04325	0.0008
338.15	0.2	0.04305	0.0008
338.15	0.4	0.04255	0.0008
338.15	0.6	0.04215	0.00081
338.15	0.8	0.04195	0.00081
338.15	1	0.04155	0.00082

System: 1-hexyl-3-methylimidazolium tetrafluoroborate + water; phases: Liquid, Air at 1 atmosphere
Property: Surface tension liquid-gas, N/m (Liquid); method: Ring tensiometer
Temperature, K	Mole fraction of 1-hexyl-3-methylimidazolium tetrafluoroborate	Surface tension liquid-gas, N/m	uncertainty
298.15	0.3	0.0381	0.00079
298.15	0.4	0.0377	0.00077
298.15	0.5	0.03754	0.00077
298.15	0.6	0.03742	0.00077
298.15	0.7	0.03733	0.00077
298.15	0.8	0.03726	0.00078
298.15	0.9	0.03723	0.00078
298.15	1	0.03722	0.00078
308.15	0.3	0.03726	0.00079
308.15	0.4	0.03708	0.00076
308.15	0.5	0.03684	0.00077
308.15	0.6	0.03682	0.00077
308.15	0.7	0.03673	0.00077
308.15	0.8	0.03666	0.00077
308.15	0.9	0.03663	0.00077
308.15	1	0.03662	0.00078
318.15	0.3	0.03656	0.00078
318.15	0.4	0.03628	0.00076
318.15	0.5	0.03634	0.00076
318.15	0.6	0.03612	0.00076
318.15	0.7	0.03603	0.00076
318.15	0.8	0.03586	0.00077
318.15	0.9	0.03593	0.00077
318.15	1	0.03592	0.00077
328.15	0.3	0.03596	0.00078
328.15	0.4	0.03568	0.00076
328.15	0.5	0.03564	0.00076
328.15	0.6	0.03542	0.00076
328.15	0.7	0.03533	0.00076
328.15	0.8	0.03526	0.00076
328.15	0.9	0.03523	0.00076
328.15	1	0.03522	0.00077
338.15	0.3	0.03526	0.00077
338.15	0.4	0.03498	0.00075
338.15	0.5	0.03484	0.00075
338.15	0.6	0.03472	0.00075
338.15	0.7	0.03463	0.00075
338.15	0.8	0.03456	0.00076
338.15	0.9	0.03453	0.00076
338.15	1	0.03452	0.00076
298.15	0	0.0718	0.00103
308.15	0	0.0701	0.00101
318.15	0	0.0684	0.001
328.15	0	0.0667	0.00099
338.15	0	0.065	0.00097
