Measured thermophysical data. Thermodynamic and acoustic properties of binary mixtures of ethers.  III. Diisopropyl ether or oxolane with o- or m-toluidines  at 303.15, 313.15 and 323.15 K
Source: Thermochim. Acta, 2011, 10.1016/j.tca.2011.01.019
Compound 1: 2-methylaniline, C7H9N, InChI=1S/C7H9N/c1-6-4-2-3-5-7(6)8/h2-5H,8H2,1H3, purity 99.5%
Compound 2: 3-methylaniline, C7H9N, InChI=1S/C7H9N/c1-6-3-2-4-7(8)5-6/h2-5H,8H2,1H3, purity 99.5%
Compound 3: diisopropyl ether, C6H14O, InChI=1S/C6H14O/c1-5(2)7-6(3)4/h5-6H,1-4H3, purity 99.5%
Compound 4: tetrahydrofuran, C4H8O, InChI=1S/C4H8O/c1-2-4-5-3-1/h1-4H2, purity 99.5%

System: 2-methylaniline; phases: Liquid
Fixed: Pressure, kPa = 101
Property: Speed of sound, m/s (Liquid); method: Linear variable-path acoustic interferometer
Temperature, K	Speed of sound, m/s	uncertainty
303.15	1579	3
313.15	1539	3
323.15	1501	3

System: 2-methylaniline; phases: Liquid
Fixed: Pressure, kPa = 101
Property: Mass density, kg/m3 (Liquid); method: Pycnometric method
Temperature, K	Mass density, kg/m3	uncertainty
303.15	990.1	0.3
313.15	981.7	0.4
323.15	973.3	0.4

System: 3-methylaniline; phases: Liquid
Fixed: Pressure, kPa = 101
Property: Speed of sound, m/s (Liquid); method: Linear variable-path acoustic interferometer
Temperature, K	Speed of sound, m/s	uncertainty
303.15	1567	3
313.15	1533	3
323.15	1492	3

System: 3-methylaniline; phases: Liquid
Fixed: Pressure, kPa = 101
Property: Mass density, kg/m3 (Liquid); method: Pycnometric method
Temperature, K	Mass density, kg/m3	uncertainty
303.15	980.8	0.3
313.15	972.7	0.4
323.15	964.6	0.4

System: diisopropyl ether; phases: Liquid
Fixed: Pressure, kPa = 101
Property: Speed of sound, m/s (Liquid); method: Linear variable-path acoustic interferometer
Temperature, K	Speed of sound, m/s	uncertainty
303.15	976	2
313.15	932	2
323.15	889	2

System: diisopropyl ether; phases: Liquid
Fixed: Pressure, kPa = 101
Property: Mass density, kg/m3 (Liquid); method: Pycnometric method
Temperature, K	Mass density, kg/m3	uncertainty
303.15	712.9	0.3
313.15	702.5	0.3
313.15	702.9	0.3
323.15	691.9	0.3

System: tetrahydrofuran; phases: Liquid
Fixed: Pressure, kPa = 101
Property: Speed of sound, m/s (Liquid); method: Linear variable-path acoustic interferometer
Temperature, K	Speed of sound, m/s	uncertainty
303.15	1254	2
313.15	1207	2
323.15	1165	2

System: tetrahydrofuran; phases: Liquid
Fixed: Pressure, kPa = 101
Property: Mass density, kg/m3 (Liquid); method: Pycnometric method
Temperature, K	Mass density, kg/m3	uncertainty
303.15	876.9	0.3
313.15	865.7	0.3
323.15	854.8	0.3

System: 2-methylaniline + diisopropyl ether; phases: Liquid
Fixed: Pressure, kPa = 101
Property: Speed of sound, m/s (Liquid); method: Linear variable-path acoustic interferometer
Temperature, K	Mole fraction of diisopropyl ether	Speed of sound, m/s	uncertainty
303.15	0	1579	3
303.15	0.0717	1530	3
303.15	0.1513	1475	3
303.15	0.2389	1415	3
303.15	0.3255	1359	3
303.15	0.4206	1299	3
303.15	0.5248	1237	2
303.15	0.625	1180	2
303.15	0.7415	1116	2
303.15	0.866	1049	2
303.15	1	976	2
313.15	0	1539	3
313.15	0.0717	1491	3
313.15	0.1513	1437	3
313.15	0.2389	1378	3
313.15	0.3255	1320	3
313.15	0.4206	1259	2
313.15	0.5248	1197	2
313.15	0.625	1139	2
313.15	0.7415	1074	2
313.15	0.866	1007	2
313.15	1	932	2
323.15	0	1501	3
323.15	0.0717	1457	3
323.15	0.1513	1404	3
323.15	0.2389	1343	3
323.15	0.3255	1284	2
323.15	0.4206	1224	2
323.15	0.5248	1160	2
323.15	0.625	1103	2
323.15	0.7415	1038	2
323.15	0.866	968	2
323.15	1	889	2

System: 2-methylaniline + diisopropyl ether; phases: Liquid
Fixed: Pressure, kPa = 101
Property: Mass density, kg/m3 (Liquid); method: Pycnometric method
Temperature, K	Mole fraction of diisopropyl ether	Mass density, kg/m3	uncertainty
303.15	0	990.1	0.3
303.15	0.0717	968.9	0.3
303.15	0.1513	946.3	0.3
303.15	0.2389	922	0.3
303.15	0.3255	898.8	0.3
303.15	0.4206	873.5	0.3
303.15	0.5248	845.6	0.3
303.15	0.625	817.9	0.3
303.15	0.7415	784.9	0.3
303.15	0.866	749.3	0.3
303.15	1	712.9	0.3
313.15	0	981.7	0.4
313.15	0.0717	962.3	0.4
313.15	0.1513	940.3	0.4
313.15	0.2389	916.1	0.3
313.15	0.3255	892.6	0.3
313.15	0.4206	866.9	0.3
313.15	0.5248	838.8	0.3
313.15	0.625	811	0.3
313.15	0.7415	777.6	0.3
313.15	0.866	741	0.3
313.15	1	702.5	0.3
323.15	0	973.3	0.4
323.15	0.0717	955.7	0.4
323.15	0.1513	934.4	0.4
323.15	0.2389	910.4	0.4
323.15	0.3255	886.4	0.4
323.15	0.4206	860.2	0.4
323.15	0.5248	831.6	0.4
323.15	0.625	803.6	0.3
323.15	0.7415	770	0.3
323.15	0.866	732.8	0.3
323.15	1	691.9	0.3

System: diisopropyl ether + 3-methylaniline; phases: Liquid
Fixed: Pressure, kPa = 101
Property: Speed of sound, m/s (Liquid); method: Linear variable-path acoustic interferometer
Temperature, K	Mole fraction of diisopropyl ether	Speed of sound, m/s	uncertainty
303.15	0	1567	3
303.15	0.0743	1515	3
303.15	0.1546	1462	3
303.15	0.2421	1404	3
303.15	0.3279	1350	3
303.15	0.4275	1289	2
303.15	0.53	1230	2
303.15	0.6285	1175	2
303.15	0.7424	1113	2
303.15	0.8651	1048	2
303.15	1	976	2
313.15	0	1533	3
313.15	0.0743	1482	3
313.15	0.1546	1429	3
313.15	0.2421	1371	3
313.15	0.3279	1315	3
313.15	0.4275	1254	2
313.15	0.53	1193	2
313.15	0.6285	1138	2
313.15	0.7424	1075	2
313.15	0.8651	1007	2
313.15	1	932	2
323.15	0	1492	3
323.15	0.0743	1443	3
323.15	0.1546	1391	3
323.15	0.2421	1334	3
323.15	0.3279	1280	2
323.15	0.4275	1218	2
323.15	0.53	1158	2
323.15	0.6285	1101	2
323.15	0.7424	1036	2
323.15	0.8651	966	2
323.15	1	889	2

System: diisopropyl ether + 3-methylaniline; phases: Liquid
Fixed: Pressure, kPa = 101
Property: Mass density, kg/m3 (Liquid); method: Pycnometric method
Temperature, K	Mole fraction of diisopropyl ether	Mass density, kg/m3	uncertainty
303.15	0	980.8	0.3
303.15	0.0743	961	0.3
303.15	0.1546	939.9	0.3
303.15	0.2421	917.2	0.3
303.15	0.3279	894.6	0.3
303.15	0.4275	868	0.3
303.15	0.53	840	0.3
303.15	0.6285	812.7	0.3
303.15	0.7424	781.2	0.3
303.15	0.8651	747.8	0.3
303.15	1	712.9	0.3
313.15	0	972.7	0.4
313.15	0.0743	954.3	0.4
313.15	0.1546	934	0.3
313.15	0.2421	911.5	0.3
313.15	0.3279	888.9	0.3
313.15	0.4275	862.1	0.3
313.15	0.53	834	0.3
313.15	0.6285	806.4	0.3
313.15	0.7424	774.5	0.3
313.15	0.8651	740.1	0.3
313.15	1	702.9	0.3
323.15	0	964.6	0.4
323.15	0.0743	946.9	0.4
323.15	0.1546	927	0.4
323.15	0.2421	904.6	0.4
323.15	0.3279	881.9	0.4
323.15	0.4275	855	0.4
323.15	0.53	826.9	0.4
323.15	0.6285	799.4	0.3
323.15	0.7424	767	0.3
323.15	0.8651	731.6	0.3
323.15	1	691.9	0.3

System: 2-methylaniline + tetrahydrofuran; phases: Liquid
Fixed: Pressure, kPa = 101
Property: Speed of sound, m/s (Liquid); method: Linear variable-path acoustic interferometer
Temperature, K	Mole fraction of tetrahydrofuran	Speed of sound, m/s	uncertainty
303.15	0	1579	3
303.15	0.0828	1559	3
303.15	0.1818	1534	3
303.15	0.2807	1508	3
303.15	0.3704	1482	3
303.15	0.4652	1455	3
303.15	0.5732	1421	3
303.15	0.6764	1382	3
303.15	0.7791	1343	3
303.15	0.888	1300	2
303.15	1	1254	2
313.15	0	1539	3
313.15	0.0828	1519	3
313.15	0.1818	1493	3
313.15	0.2807	1467	3
313.15	0.3704	1442	3
313.15	0.4652	1414	3
313.15	0.5732	1379	3
313.15	0.6764	1341	3
313.15	0.7791	1301	2
313.15	0.888	1255	2
313.15	1	1207	2
323.15	0	1501	3
323.15	0.0828	1482	3
323.15	0.1818	1458	3
323.15	0.2807	1431	3
323.15	0.3704	1406	3
323.15	0.4652	1377	3
323.15	0.5732	1342	3
323.15	0.6764	1305	2
323.15	0.7791	1264	2
323.15	0.888	1219	2
323.15	1	1165	2

System: 2-methylaniline + tetrahydrofuran; phases: Liquid
Fixed: Pressure, kPa = 101
Property: Mass density, kg/m3 (Liquid); method: Pycnometric method
Temperature, K	Mole fraction of tetrahydrofuran	Mass density, kg/m3	uncertainty
303.15	0	990.1	0.3
303.15	0.0828	984	0.3
303.15	0.1818	977	0.3
303.15	0.2807	969.9	0.3
303.15	0.3704	962.6	0.3
303.15	0.4652	953.7	0.3
303.15	0.5732	941.7	0.3
303.15	0.6764	928.4	0.3
303.15	0.7791	913.3	0.3
303.15	0.888	895.8	0.3
303.15	1	876.9	0.3
313.15	0	981.7	0.4
313.15	0.0828	975.9	0.4
313.15	0.1818	969.2	0.4
313.15	0.2807	962.2	0.4
313.15	0.3704	954.9	0.4
313.15	0.4652	945.9	0.4
313.15	0.5732	933.8	0.4
313.15	0.6764	920.1	0.3
313.15	0.7791	904.7	0.3
313.15	0.888	886.4	0.3
313.15	1	865.7	0.3
323.15	0	973.3	0.4
323.15	0.0828	968	0.4
323.15	0.1818	961.5	0.4
323.15	0.2807	954.6	0.4
323.15	0.3704	947.3	0.4
323.15	0.4652	938.2	0.4
323.15	0.5732	925.9	0.4
323.15	0.6764	911.9	0.4
323.15	0.7791	896	0.4
323.15	0.888	877	0.4
323.15	1	854.8	0.3

System: 3-methylaniline + tetrahydrofuran; phases: Liquid
Fixed: Pressure, kPa = 101
Property: Speed of sound, m/s (Liquid); method: Linear variable-path acoustic interferometer
Temperature, K	Mole fraction of tetrahydrofuran	Speed of sound, m/s	uncertainty
303.15	0	1567	3
303.15	0.0864	1544	3
303.15	0.1853	1522	3
303.15	0.2831	1497	3
303.15	0.3776	1472	3
303.15	0.4693	1447	3
303.15	0.5689	1416	3
303.15	0.6803	1378	3
303.15	0.7808	1341	3
303.15	0.8886	1300	2
303.15	1	1254	2
313.15	0	1533	3
313.15	0.0864	1513	3
313.15	0.1853	1488	3
313.15	0.2831	1463	3
313.15	0.3776	1436	3
313.15	0.4693	1409	3
313.15	0.5689	1375	3
313.15	0.6803	1338	3
313.15	0.7808	1300	2
313.15	0.8886	1255	2
313.15	1	1207	2
323.15	0	1492	3
323.15	0.0864	1474	3
323.15	0.1853	1451	3
323.15	0.2831	1425	3
323.15	0.3776	1398	3
323.15	0.4693	1372	3
323.15	0.5689	1339	3
323.15	0.6803	1301	2
323.15	0.7808	1261	2
323.15	0.8886	1217	2
323.15	1	1165	2

System: 3-methylaniline + tetrahydrofuran; phases: Liquid
Fixed: Pressure, kPa = 101
Property: Mass density, kg/m3 (Liquid); method: Pycnometric method
Temperature, K	Mole fraction of tetrahydrofuran	Mass density, kg/m3	uncertainty
303.15	0	980.8	0.3
303.15	0.0864	975.3	0.3
303.15	0.1853	969.2	0.3
303.15	0.2831	963	0.3
303.15	0.3776	956.4	0.3
303.15	0.4693	949	0.3
303.15	0.5689	939.3	0.3
303.15	0.6803	926.2	0.3
303.15	0.7808	912.4	0.3
303.15	0.8886	895.6	0.3
303.15	1	876.9	0.3
313.15	0	972.7	0.4
313.15	0.0864	968	0.4
313.15	0.1853	962.6	0.4
313.15	0.2831	956.4	0.4
313.15	0.3776	949.7	0.4
313.15	0.4693	942	0.4
313.15	0.5689	931.9	0.4
313.15	0.6803	918.4	0.3
313.15	0.7808	904.3	0.3
313.15	0.8886	886.8	0.3
313.15	1	865.7	0.3
323.15	0	964.6	0.4
323.15	0.0864	960.1	0.4
323.15	0.1853	955	0.4
323.15	0.2831	948.9	0.4
323.15	0.3776	941.9	0.4
323.15	0.4693	933.9	0.4
323.15	0.5689	923.6	0.4
323.15	0.6803	909.8	0.4
323.15	0.7808	895.3	0.4
323.15	0.8886	877.2	0.4
323.15	1	854.8	0.3
