Measured thermophysical data. Experimental investigation of thermal conductivity and stability of TiO2-Ag/water nanocompositefluid with SDBS and SDS surfactants
Source: Thermochim. Acta, 2019, 10.1016/j.tca.2019.178308
Compound 1: sodium dodecyl sulfate, C12H25NaO4S, InChI=1S/C12H26O4S.Na/c1-2-3-4-5-6-7-8-9-10-11-12-16-17(13,14)15;/h2-12H2,1H3,(H,13,14,15);/q;+1/p-1
Compound 2: water, H2O, InChI=1S/H2O/h1H2

System: water; phases: Liquid
Property: Thermal conductivity, W/m/K (Liquid); method: THOTW
Pressure, kPa	Temperature, K	Thermal conductivity, W/m/K	uncertainty
100	304.15	0.613	0.025

System: sodium dodecyl sulfate + water; phases: Liquid
Fixed: Pressure, kPa = 100
Fixed: Temperature, K = 304.15
Property: Thermal conductivity, W/m/K (Liquid); method: THOTW
Mass fraction of sodium dodecyl sulfate	Thermal conductivity, W/m/K	uncertainty
0	0.613	0.025
0.001	0.589	0.024
0.003	0.538	0.022
0.005	0.537	0.022
0.007	0.499	0.02
