Measured thermophysical data. Study of solute-solute and solute-solvent interactions of N-acetyl glycine in aqueous D-fructose solutions at different temperatures
Source: Thermochim. Acta, 2015, 10.1016/j.tca.2015.03.015
Compound 1: N-acetylglycine, C4H7NO3, InChI=1S/C4H7NO3/c1-3(6)5-2-4(7)8/h2H2,1H3,(H,5,6)(H,7,8), purity 99%
Compound 2: D-fructose, C6H12O6, InChI=1S/C6H12O6/c7-1-3(9)5(11)6(12)4(10)2-8/h3,5-9,11-12H,1-2H2/t3-,5-,6-/m1/s1, purity 99%
Compound 3: water, H2O, InChI=1S/H2O/h1H2

System: D-fructose + N-acetylglycine + water; phases: Liquid
Fixed: Pressure, kPa = 100
Property: Mass density, kg/m3 (Liquid); method: Vibrating tube method
Solvent: Molality, mol/kg of D-fructose	Temperature, K	Molality, mol/kg of N-acetylglycine	Mass density, kg/m3	uncertainty
0.05	288.15	0	1003.31	0.16
0.05	288.15	0.02067	1003.98	0.16
0.05	288.15	0.06028	1005.22	0.16
0.05	288.15	0.10023	1006.38	0.16
0.05	288.15	0.13987	1007.52	0.16
0.05	288.15	0.17062	1008.41	0.16
0.05	288.15	0.19999	1009.1	0.16
0.05	293.15	0	1002.37	0.16
0.05	293.15	0.02067	1003.01	0.16
0.05	293.15	0.06028	1004.21	0.16
0.05	293.15	0.10023	1005.4	0.16
0.05	293.15	0.13987	1006.53	0.16
0.05	293.15	0.17062	1007.4	0.16
0.05	293.15	0.19999	1008.21	0.16
0.05	298.15	0	1001	0.16
0.05	298.15	0.02067	1001.67	0.16
0.05	298.15	0.06028	1002.93	0.16
0.05	298.15	0.10023	1004.17	0.16
0.05	298.15	0.13987	1005.35	0.16
0.05	298.15	0.17062	1006.12	0.16
0.05	298.15	0.19999	1006.97	0.16
0.05	303.15	0	999.53	0.16
0.05	303.15	0.02067	1000.22	0.16
0.05	303.15	0.06028	1001.5	0.16
0.05	303.15	0.10023	1002.69	0.16
0.05	303.15	0.13987	1003.87	0.16
0.05	303.15	0.17062	1004.62	0.16
0.05	303.15	0.19999	1005.46	0.16
0.05	308.15	0	998.08	0.16
0.05	308.15	0.02067	998.73	0.16
0.05	308.15	0.06028	999.92	0.16
0.05	308.15	0.10023	1001.01	0.16
0.05	308.15	0.13987	1002.12	0.16
0.05	308.15	0.17062	1002.91	0.16
0.05	308.15	0.19999	1003.61	0.16
0.15	288.15	0	1010.19	0.16
0.15	288.15	0.02002	1010.81	0.16
0.15	288.15	0.06091	1012.05	0.17
0.15	288.15	0.09989	1013.21	0.17
0.15	288.15	0.14066	1014.39	0.17
0.15	288.15	0.16994	1015.22	0.17
0.15	288.15	0.20016	1016.05	0.17
0.15	293.15	0	1009.21	0.16
0.15	293.15	0.02002	1009.82	0.16
0.15	293.15	0.06091	1011.04	0.16
0.15	293.15	0.09989	1012.17	0.17
0.15	293.15	0.14066	1013.33	0.17
0.15	293.15	0.16994	1014.17	0.17
0.15	293.15	0.20016	1014.96	0.17
0.15	298.15	0	1007.95	0.16
0.15	298.15	0.02002	1008.55	0.16
0.15	298.15	0.06091	1009.76	0.16
0.15	298.15	0.09989	1010.88	0.16
0.15	298.15	0.14066	1012.02	0.17
0.15	298.15	0.16994	1012.84	0.17
0.15	298.15	0.20016	1013.62	0.17
0.15	303.15	0	1006.47	0.16
0.15	303.15	0.02002	1007.06	0.16
0.15	303.15	0.06091	1008.25	0.16
0.15	303.15	0.09989	1009.35	0.16
0.15	303.15	0.14066	1010.47	0.16
0.15	303.15	0.16994	1011.28	0.17
0.15	303.15	0.20016	1012.05	0.17
0.15	308.15	0	1004.78	0.16
0.15	308.15	0.02002	1005.37	0.16
0.15	308.15	0.06091	1006.53	0.16
0.15	308.15	0.09989	1007.62	0.16
0.15	308.15	0.14066	1008.72	0.16
0.15	308.15	0.16994	1009.52	0.16
0.15	308.15	0.20016	1010.27	0.16
0.25	288.15	0	1017.01	0.17
0.25	288.15	0.0201	1017.62	0.17
0.25	288.15	0.06008	1018.79	0.17
0.25	288.15	0.10053	1019.97	0.17
0.25	288.15	0.14018	1021.1	0.17
0.25	288.15	0.17107	1021.93	0.17
0.25	288.15	0.20002	1022.67	0.17
0.25	293.15	0	1015.91	0.17
0.25	293.15	0.0201	1016.53	0.17
0.25	293.15	0.06008	1017.7	0.17
0.25	293.15	0.10053	1018.88	0.17
0.25	293.15	0.14018	1019.97	0.17
0.25	293.15	0.17107	1020.8	0.17
0.25	293.15	0.20002	1021.51	0.17
0.25	298.15	0	1014.56	0.17
0.25	298.15	0.0201	1015.18	0.17
0.25	298.15	0.06008	1016.36	0.17
0.25	298.15	0.10053	1017.52	0.17
0.25	298.15	0.14018	1018.59	0.17
0.25	298.15	0.17107	1019.4	0.17
0.25	298.15	0.20002	1020.13	0.17
0.25	303.15	0	1013.07	0.17
0.25	303.15	0.0201	1013.66	0.17
0.25	303.15	0.06008	1014.8	0.17
0.25	303.15	0.10053	1015.92	0.17
0.25	303.15	0.14018	1016.99	0.17
0.25	303.15	0.17107	1017.8	0.17
0.25	303.15	0.20002	1018.44	0.17
0.25	308.15	0	1011.37	0.17
0.25	308.15	0.0201	1011.94	0.17
0.25	308.15	0.06008	1013.04	0.17
0.25	308.15	0.10053	1014.15	0.17
0.25	308.15	0.14018	1015.2	0.17
0.25	308.15	0.17107	1015.98	0.17
0.25	308.15	0.20002	1016.69	0.17
0.35	288.15	0	1023.52	0.17
0.35	288.15	0.02023	1024.14	0.17
0.35	288.15	0.06021	1025.34	0.17
0.35	288.15	0.10028	1026.5	0.17
0.35	288.15	0.14026	1027.62	0.17
0.35	288.15	0.17003	1028.4	0.17
0.35	288.15	0.20021	1029.13	0.17
0.35	293.15	0	1022.43	0.17
0.35	293.15	0.02023	1023.03	0.17
0.35	293.15	0.06021	1024.18	0.17
0.35	293.15	0.10028	1025.32	0.17
0.35	293.15	0.14026	1026.36	0.17
0.35	293.15	0.17003	1027.14	0.17
0.35	293.15	0.20021	1027.9	0.17
0.35	298.15	0	1021.07	0.17
0.35	298.15	0.02023	1021.67	0.17
0.35	298.15	0.06021	1022.83	0.17
0.35	298.15	0.10028	1023.91	0.17
0.35	298.15	0.14026	1024.92	0.17
0.35	298.15	0.17003	1025.67	0.17
0.35	298.15	0.20021	1026.35	0.17
0.35	303.15	0	1019.48	0.17
0.35	303.15	0.02023	1020.04	0.17
0.35	303.15	0.06021	1021.15	0.17
0.35	303.15	0.10028	1022.22	0.17
0.35	303.15	0.14026	1023.27	0.17
0.35	303.15	0.17003	1024.05	0.17
0.35	303.15	0.20021	1024.82	0.17
0.35	308.15	0	1017.69	0.17
0.35	308.15	0.02023	1018.28	0.17
0.35	308.15	0.06021	1019.4	0.17
0.35	308.15	0.10028	1020.45	0.17
0.35	308.15	0.14026	1021.48	0.17
0.35	308.15	0.17003	1022.21	0.17
0.35	308.15	0.20021	1022.9	0.17

System: D-fructose + N-acetylglycine + water; phases: Liquid
Fixed: Pressure, kPa = 100
Fixed: Frequency, MHz = 3
Property: Speed of sound, m/s (Liquid); method: Sing-around technique in a fixed-path interferometer
Solvent: Molality, mol/kg of D-fructose	Temperature, K	Molality, mol/kg of N-acetylglycine	Speed of sound, m/s	uncertainty
0.05	288.15	0	1470.1	2.23
0.05	288.15	0.02067	1471.07	2.23
0.05	288.15	0.06028	1473.17	2.23
0.05	288.15	0.10023	1475.02	2.23
0.05	288.15	0.13987	1477.3	2.23
0.05	288.15	0.17062	1478.41	2.23
0.05	288.15	0.19999	1480.06	2.23
0.05	293.15	0	1486.06	2.24
0.05	293.15	0.02067	1486.95	2.24
0.05	293.15	0.06028	1488.84	2.24
0.05	293.15	0.10023	1490.27	2.24
0.05	293.15	0.13987	1492.58	2.24
0.05	293.15	0.17062	1493.82	2.24
0.05	293.15	0.19999	1494.96	2.24
0.05	298.15	0	1500.07	2.24
0.05	298.15	0.02067	1500.69	2.24
0.05	298.15	0.06028	1502.18	2.24
0.05	298.15	0.10023	1503.8	2.24
0.05	298.15	0.13987	1505.47	2.24
0.05	298.15	0.17062	1506.53	2.24
0.05	298.15	0.19999	1508.02	2.24
0.05	303.15	0	1512.23	2.24
0.05	303.15	0.02067	1512.74	2.24
0.05	303.15	0.06028	1514.49	2.24
0.05	303.15	0.10023	1515.55	2.24
0.05	303.15	0.13987	1517.53	2.24
0.05	303.15	0.17062	1517.97	2.24
0.05	303.15	0.19999	1519.27	2.24
0.05	308.15	0	1522.53	2.24
0.05	308.15	0.02067	1523.13	2.24
0.05	308.15	0.06028	1524.5	2.24
0.05	308.15	0.10023	1525.63	2.24
0.05	308.15	0.13987	1527.21	2.24
0.05	308.15	0.17062	1527.79	2.24
0.05	308.15	0.19999	1528.71	2.24
0.15	288.15	0	1477.08	2.23
0.15	288.15	0.02002	1478.16	2.23
0.15	288.15	0.06091	1480.16	2.23
0.15	288.15	0.09989	1482.21	2.23
0.15	288.15	0.14066	1484.03	2.23
0.15	288.15	0.16994	1485.67	2.24
0.15	288.15	0.20016	1487.11	2.24
0.15	293.15	0	1492.53	2.24
0.15	293.15	0.02002	1493.54	2.24
0.15	293.15	0.06091	1495.3	2.24
0.15	293.15	0.09989	1497.29	2.24
0.15	293.15	0.14066	1498.83	2.24
0.15	293.15	0.16994	1500.48	2.24
0.15	293.15	0.20016	1501.54	2.24
0.15	298.15	0	1506.23	2.24
0.15	298.15	0.02002	1507.05	2.24
0.15	298.15	0.06091	1508.69	2.24
0.15	298.15	0.09989	1510.49	2.24
0.15	298.15	0.14066	1511.85	2.24
0.15	298.15	0.16994	1513.41	2.24
0.15	298.15	0.20016	1514.25	2.24
0.15	303.15	0	1518.11	2.24
0.15	303.15	0.02002	1518.89	2.24
0.15	303.15	0.06091	1520.28	2.24
0.15	303.15	0.09989	1521.9	2.24
0.15	303.15	0.14066	1523.1	2.24
0.15	303.15	0.16994	1524.51	2.24
0.15	303.15	0.20016	1525.24	2.24
0.15	308.15	0	1528.3	2.24
0.15	308.15	0.02002	1529.04	2.24
0.15	308.15	0.06091	1530.21	2.24
0.15	308.15	0.09989	1531.46	2.24
0.15	308.15	0.14066	1532.71	2.24
0.15	308.15	0.16994	1533.77	2.24
0.15	308.15	0.20016	1534.59	2.24
0.25	288.15	0	1484.35	2.24
0.25	288.15	0.0201	1485.3	2.24
0.25	288.15	0.06008	1487.36	2.24
0.25	288.15	0.10053	1489.26	2.24
0.25	288.15	0.14018	1491.44	2.24
0.25	288.15	0.17107	1492.69	2.24
0.25	288.15	0.20002	1494.43	2.24
0.25	293.15	0	1499.64	2.24
0.25	293.15	0.0201	1500.35	2.24
0.25	293.15	0.06008	1502.03	2.24
0.25	293.15	0.10053	1503.81	2.24
0.25	293.15	0.14018	1505.72	2.24
0.25	293.15	0.17107	1506.92	2.24
0.25	293.15	0.20002	1508.71	2.24
0.25	298.15	0	1512.99	2.24
0.25	298.15	0.0201	1513.67	2.24
0.25	298.15	0.06008	1515.39	2.24
0.25	298.15	0.10053	1516.63	2.24
0.25	298.15	0.14018	1518.55	2.24
0.25	298.15	0.17107	1519.45	2.24
0.25	298.15	0.20002	1521.11	2.24
0.25	303.15	0	1524.51	2.24
0.25	303.15	0.0201	1525.12	2.24
0.25	303.15	0.06008	1526.64	2.24
0.25	303.15	0.10053	1527.72	2.24
0.25	303.15	0.14018	1529.41	2.24
0.25	303.15	0.17107	1530.28	2.24
0.25	303.15	0.20002	1531.76	2.24
0.25	308.15	0	1534.2	2.24
0.25	308.15	0.0201	1534.7	2.24
0.25	308.15	0.06008	1536.07	2.24
0.25	308.15	0.10053	1537.21	2.24
0.25	308.15	0.14018	1538.49	2.24
0.25	308.15	0.17107	1539.49	2.24
0.25	308.15	0.20002	1540.54	2.24
0.35	288.15	0	1491.27	2.24
0.35	288.15	0.02023	1492.42	2.24
0.35	288.15	0.06021	1494.41	2.24
0.35	288.15	0.10028	1496.42	2.24
0.35	288.15	0.14026	1498.17	2.24
0.35	288.15	0.17003	1499.48	2.24
0.35	288.15	0.20021	1501.41	2.24
0.35	293.15	0	1506.07	2.24
0.35	293.15	0.02023	1507.11	2.24
0.35	293.15	0.06021	1508.88	2.24
0.35	293.15	0.10028	1510.82	2.24
0.35	293.15	0.14026	1512.79	2.24
0.35	293.15	0.17003	1514.17	2.24
0.35	293.15	0.20021	1515.59	2.24
0.35	298.15	0	1519.06	2.24
0.35	298.15	0.02023	1519.91	2.24
0.35	298.15	0.06021	1521.55	2.24
0.35	298.15	0.10028	1523.34	2.24
0.35	298.15	0.14026	1524.49	2.24
0.35	298.15	0.17003	1525.87	2.24
0.35	298.15	0.20021	1527.49	2.24
0.35	303.15	0	1530.28	2.24
0.35	303.15	0.02023	1531.12	2.24
0.35	303.15	0.06021	1532.49	2.24
0.35	303.15	0.10028	1534.12	2.24
0.35	303.15	0.14026	1535.11	2.24
0.35	303.15	0.17003	1536.38	2.24
0.35	303.15	0.20021	1538.01	2.24
0.35	308.15	0	1539.87	2.24
0.35	308.15	0.02023	1540.56	2.24
0.35	308.15	0.06021	1541.84	2.24
0.35	308.15	0.10028	1543.09	2.24
0.35	308.15	0.14026	1544.15	2.24
0.35	308.15	0.17003	1545.34	2.24
0.35	308.15	0.20021	1546.96	2.24

System: D-fructose + water; phases: Liquid
Fixed: Pressure, kPa = 100
Property: Mass density, kg/m3 (Liquid); method: Vibrating tube method
Molality, mol/kg of D-fructose	Temperature, K	Mass density, kg/m3	uncertainty
0.05	288.15	1003.31	0.16
0.05	293.15	1002.37	0.16
0.05	298.15	1001	0.16
0.05	303.15	999.53	0.16
0.05	308.15	998.08	0.16
0.15	288.15	1010.19	0.16
0.15	293.15	1009.21	0.16
0.15	298.15	1007.95	0.16
0.15	303.15	1006.47	0.16
0.15	308.15	1004.78	0.16
0.25	288.15	1017.01	0.17
0.25	293.15	1015.91	0.17
0.25	298.15	1014.56	0.17
0.25	303.15	1013.07	0.17
0.25	308.15	1011.37	0.17
0.35	288.15	1023.52	0.17
0.35	293.15	1022.43	0.17
0.35	298.15	1021.07	0.17
0.35	303.15	1019.48	0.17
0.35	308.15	1017.69	0.17

System: D-fructose + water; phases: Liquid
Fixed: Pressure, kPa = 100
Fixed: Frequency, MHz = 3
Property: Speed of sound, m/s (Liquid); method: Sing-around technique in a fixed-path interferometer
Molality, mol/kg of D-fructose	Temperature, K	Speed of sound, m/s	uncertainty
0.05	288.15	1470.1	2.23
0.05	293.15	1486.06	2.24
0.05	298.15	1500.07	2.24
0.05	303.15	1512.23	2.24
0.05	308.15	1522.53	2.24
0.15	288.15	1477.08	2.23
0.15	293.15	1492.53	2.24
0.15	298.15	1506.23	2.24
0.15	303.15	1518.11	2.24
0.15	308.15	1528.3	2.24
0.25	288.15	1484.35	2.24
0.25	293.15	1499.64	2.24
0.25	298.15	1512.99	2.24
0.25	303.15	1524.51	2.24
0.25	308.15	1534.2	2.24
0.35	288.15	1491.27	2.24
0.35	293.15	1506.07	2.24
0.35	298.15	1519.06	2.24
0.35	303.15	1530.28	2.24
0.35	308.15	1539.87	2.24
