Measured thermophysical data. THERMOCHEMISTRY OF CYCLIC ACETONE PEROXIDES
Source: Thermochim. Acta, 2014, 10.1016/j.tca.2014.03.046
Compound 1: carbon dioxide, CO2, InChI=1S/CO2/c2-1-3
Compound 2: water, H2O, InChI=1S/H2O/h1H2
Compound 3: oxygen, O2, InChI=1S/O2/c1-2
Compound 4: hydrogen, H2, InChI=1S/H2/h1H
Compound 5: graphite, C
Compound 6: TATP, C9H18O6, InChI=1S/C9H18O6/c1-7(2)10-12-8(3,4)14-15-9(5,6)13-11-7/h1-6H3, purity 98%
Compound 7: 1,2,4,5-tetroxane, 3,3,6,6-tetramethyl-, C6H12O4, InChI=1S/C6H12O4/c1-5(2)7-9-6(3,4)10-8-5/h1-4H3, purity 98%

System: TATP; phases: Crystal, Liquid, Air at 1 atmosphere
Property: Normal melting temperature, K (Crystal); method: VISOBS
Normal melting temperature, K	uncertainty
370.15	4

System: 1,2,4,5-tetroxane, 3,3,6,6-tetramethyl-; phases: Crystal, Liquid, Air at 1 atmosphere
Property: Normal melting temperature, K (Crystal); method: VISOBS
Normal melting temperature, K	uncertainty
406.15	2

Reaction: -1 TATP + 9 carbon dioxide + 9 water + -10.5 oxygen
Property: Specific internal energy of reaction at constant volume, J/g
-24507

Reaction: -1 1,2,4,5-tetroxane, 3,3,6,6-tetramethyl- + 6 carbon dioxide + 6 water + -7 oxygen
Property: Specific internal energy of reaction at constant volume, J/g
-24583

Reaction: 1 TATP + -9 hydrogen + -9 graphite + -3 oxygen
Property: Molar enthalpy of reaction, kJ/mol
-664.2

Reaction: 1 1,2,4,5-tetroxane, 3,3,6,6-tetramethyl- + -6 hydrogen + -6 graphite + -2 oxygen
Property: Molar enthalpy of reaction, kJ/mol
-428.6
