Measured thermophysical data. Partial molar volume and partial molar isentropic compressibility study of glycine betaine in aqueous and aqueous KCl or MgCl2 solutions at temperatures T = 288.15 318.15 K
Source: Thermochim. Acta, 2013, 10.1016/j.tca.2013.08.002
Compound 1: (trimethylammonio)acetate, C5H11NO2, InChI=1S/C5H11NO2/c1-6(2,3)4-5(7)8/h4H2,1-3H3, purity 99%
Compound 2: potassium chloride, ClK, InChI=1S/ClH.K/h1H;/q;+1/p-1, purity 99%
Compound 3: magnesium chloride, Cl2Mg, InChI=1S/2ClH.Mg/h2*1H;/q;;+2/p-2, purity 98%
Compound 4: water, H2O, InChI=1S/H2O/h1H2, purity 99.8%

System: water; phases: Liquid
Fixed: Pressure, kPa = 101
Property: Mass density, kg/m3 (Liquid); method: Vibrating tube method
Temperature, K	Mass density, kg/m3	uncertainty
288.15	999.1	2
293.15	998.2	2
298.15	997	2
303.15	995.7	2
308.15	994	2
313.15	992.2	2
318.15	990.2	2

System: water; phases: Liquid
Fixed: Pressure, kPa = 101
Fixed: Frequency, MHz = 1.999
Property: Speed of sound, m/s (Liquid); method: Sing-around technique in a fixed-path interferometer
Temperature, K	Speed of sound, m/s	uncertainty
288.15	1465.94	10.02
293.15	1482.38	10.02
298.15	1496.46	10.02
303.15	1509.18	10.02
308.15	1519.44	10.03
313.15	1528.92	10.03
318.15	1536.42	10.03

System: (trimethylammonio)acetate + water; phases: Liquid
Fixed: Pressure, kPa = 101
Property: Mass density, kg/m3 (Liquid); method: Vibrating tube method
Temperature, K	Molality, mol/kg of (trimethylammonio)acetate	Mass density, kg/m3	uncertainty
288.15	0	999.1	2
288.15	0.0482	1000.1	2
288.15	0.1063	1001.2	2
288.15	0.5027	1008.5	2
288.15	1.0023	1016.8	2
288.15	1.504	1024.3	2
288.15	2.0048	1030.9	2
288.15	2.519	1036.6	2
288.15	3.0081	1041.8	2
293.15	0	998.2	2
293.15	0.0482	999.1	2
293.15	0.1063	1000.2	2
293.15	0.5027	1007.2	2
293.15	1.0023	1015.1	2
293.15	1.504	1022.1	2
293.15	2.0048	1028.1	2
293.15	2.519	1033.6	2
293.15	3.0081	1038.5	2
298.15	0	997	2
298.15	0.0482	997.9	2
298.15	0.1063	998.9	2
298.15	0.5027	1005.6	2
298.15	1.0023	1013.1	2
298.15	1.504	1019.9	2
298.15	2.0048	1025.8	2
298.15	2.519	1031	2
298.15	3.0081	1035.4	2
303.15	0	995.7	2
303.15	0.0482	996.6	2
303.15	0.1063	997.6	2
303.15	0.5027	1004.2	2
303.15	1.0023	1011.6	2
303.15	1.504	1018	2
303.15	2.0048	1023.5	2
303.15	2.519	1028.4	2
303.15	3.0081	1032.8	2
308.15	0	994	2
308.15	0.0482	994.9	2
308.15	0.1063	995.9	2
308.15	0.5027	1002.5	2
308.15	1.0023	1009.9	2
308.15	1.504	1016.4	2
308.15	2.0048	1022	2
308.15	2.519	1027.1	2
308.15	3.0081	1031.2	2
313.15	0	992.2	2
313.15	0.0482	993.1	2
313.15	0.1063	994.1	2
313.15	0.5027	1000.7	2
313.15	1.0023	1007.9	2
313.15	1.504	1014.4	2
313.15	2.0048	1019.9	2
313.15	2.519	1025	2
313.15	3.0081	1029.1	2
318.15	0	990.2	2
318.15	0.0482	991.1	2
318.15	0.1063	992.1	2
318.15	0.5027	998.7	2
318.15	1.0023	1006	2
318.15	1.504	1012.4	2
318.15	2.0048	1018	2
318.15	2.519	1022.8	2
318.15	3.0081	1027.3	2

System: (trimethylammonio)acetate + water; phases: Liquid
Fixed: Pressure, kPa = 101
Fixed: Frequency, MHz = 1.999
Property: Speed of sound, m/s (Liquid); method: Sing-around technique in a fixed-path interferometer
Temperature, K	Molality, mol/kg of (trimethylammonio)acetate	Speed of sound, m/s	uncertainty
288.15	0	1465.94	10.02
288.15	0.0482	1471.08	10.02
288.15	0.1063	1477.36	10.02
288.15	0.5027	1517.62	10.03
288.15	1.0023	1562.82	10.03
288.15	1.504	1599.74	10.03
288.15	2.0048	1628.1	10.03
288.15	2.519	1648.92	10.03
288.15	3.0081	1658.3	10.04
293.15	0	1482.38	10.02
293.15	0.0482	1487.68	10.02
293.15	0.1063	1493.84	10.02
293.15	0.5027	1535.44	10.03
293.15	1.0023	1580.72	10.03
293.15	1.504	1619.48	10.03
293.15	2.0048	1649.78	10.03
293.15	2.519	1670.36	10.03
293.15	3.0081	1680.1	10.04
298.15	0	1496.46	10.02
298.15	0.0482	1501.58	10.02
298.15	0.1063	1507.64	10.03
298.15	0.5027	1547.16	10.03
298.15	1.0023	1593.1	10.03
298.15	1.504	1629.96	10.03
298.15	2.0048	1656.82	10.03
298.15	2.519	1674.46	10.03
298.15	3.0081	1698.92	10.04
303.15	0	1509.18	10.02
303.15	0.0482	1514.08	10.03
303.15	0.1063	1520.04	10.03
303.15	0.5027	1558.62	10.03
303.15	1.0023	1602.34	10.03
303.15	1.504	1639.58	10.03
303.15	2.0048	1669.82	10.03
303.15	2.519	1689.68	10.03
303.15	3.0081	1715.22	10.04
308.15	0	1519.44	10.03
308.15	0.0482	1524.16	10.03
308.15	0.1063	1529.88	10.03
308.15	0.5027	1567.52	10.03
308.15	1.0023	1610.16	10.03
308.15	1.504	1648.12	10.03
308.15	2.0048	1679.78	10.03
308.15	2.519	1699.96	10.03
308.15	3.0081	1726.55	10.04
313.15	0	1528.92	10.03
313.15	0.0482	1533.38	10.03
313.15	0.1063	1538.8	10.03
313.15	0.5027	1574.22	10.03
313.15	1.0023	1615.72	10.03
313.15	1.504	1652.26	10.03
313.15	2.0048	1682.82	10.03
313.15	2.519	1705.92	10.04
313.15	3.0081	1737.14	10.04
318.15	0	1536.42	10.03
318.15	0.0482	1540.78	10.03
318.15	0.1063	1545.98	10.03
318.15	0.5027	1580.32	10.03
318.15	1.0023	1620.88	10.03
318.15	1.504	1656.66	10.03
318.15	2.0048	1688.28	10.03
318.15	2.519	1713.78	10.04
318.15	3.0081	1743.74	10.04

System: (trimethylammonio)acetate + potassium chloride + water; phases: Liquid
Fixed: Pressure, kPa = 101
Fixed: Solvent: Molality, mol/kg of potassium chloride = 0.3
Property: Mass density, kg/m3 (Liquid); method: Vibrating tube method
Temperature, K	Molality, mol/kg of (trimethylammonio)acetate	Mass density, kg/m3	uncertainty
288.15	0	1019.9	2
288.15	0.0496	1020.7	2
288.15	0.102	1021.5	2
288.15	0.4981	1027.3	2
288.15	0.998	1033.7	2
288.15	1.4985	1039.1	2
288.15	1.9946	1043.7	2
288.15	2.5002	1047.6	2
288.15	2.9993	1051.1	2
293.15	0	1018.1	2
293.15	0.0496	1018.9	2
293.15	0.102	1019.7	2
293.15	0.4981	1025.5	2
293.15	0.998	1031.8	2
293.15	1.4985	1037.3	2
293.15	1.9946	1042.1	2
293.15	2.5002	1046.1	2
293.15	2.9993	1049.3	2
298.15	0	1016.9	2
298.15	0.0496	1017.7	2
298.15	0.102	1018.5	2
298.15	0.4981	1024.2	2
298.15	0.998	1030.6	2
298.15	1.4985	1036.1	2
298.15	1.9946	1040.7	2
298.15	2.5002	1044.9	2
298.15	2.9993	1048.1	2
303.15	0	1013.5	2
303.15	0.0496	1014.3	2
303.15	0.102	1015.1	2
303.15	0.4981	1020.9	2
303.15	0.998	1027.3	2
303.15	1.4985	1032.9	2
303.15	1.9946	1037.5	2
303.15	2.5002	1041.3	2
303.15	2.9993	1044.8	2
308.15	0	1008.5	2
308.15	0.0496	1009.4	2
308.15	0.102	1010.2	2
308.15	0.4981	1016.1	2
308.15	0.998	1022.6	2
308.15	1.4985	1028.2	2
308.15	1.9946	1033	2
308.15	2.5002	1037.1	2
308.15	2.9993	1040.6	2
313.15	0	1006.1	2
313.15	0.0496	1006.9	2
313.15	0.102	1007.7	2
313.15	0.4981	1013.4	2
313.15	0.998	1019.9	2
313.15	1.4985	1025.5	2
313.15	1.9946	1030.2	2
313.15	2.5002	1034.4	2
313.15	2.9993	1038	2
318.15	0	1003.4	2
318.15	0.0496	1004.2	2
318.15	0.102	1005	2
318.15	0.4981	1010.8	2
318.15	0.998	1017.2	2
318.15	1.4985	1022.8	2
318.15	1.9946	1027.7	2
318.15	2.5002	1032	2
318.15	2.9993	1035.6	2

System: (trimethylammonio)acetate + potassium chloride + water; phases: Liquid
Fixed: Pressure, kPa = 101
Fixed: Solvent: Molality, mol/kg of potassium chloride = 0.3
Fixed: Frequency, MHz = 1.999
Property: Speed of sound, m/s (Liquid); method: Sing-around technique in a fixed-path interferometer
Temperature, K	Molality, mol/kg of (trimethylammonio)acetate	Speed of sound, m/s	uncertainty
288.15	0	1482.88	10.05
288.15	0.0496	1487.58	10.05
288.15	0.102	1492.3	10.05
288.15	0.4981	1526.78	10.05
288.15	0.998	1568.46	10.05
288.15	1.4985	1605.46	10.05
288.15	1.9946	1640.43	10.05
288.15	2.5002	1675.82	10.05
288.15	2.9993	1701.68	10.05
293.15	0	1500.76	10.05
293.15	0.0496	1505.3	10.05
293.15	0.102	1510.1	10.05
293.15	0.4981	1545.26	10.05
293.15	0.998	1585.49	10.05
293.15	1.4985	1622.36	10.05
293.15	1.9946	1656.39	10.05
293.15	2.5002	1689.78	10.05
293.15	2.9993	1721.63	10.06
298.15	0	1518.44	10.05
298.15	0.0496	1522.98	10.05
298.15	0.102	1527.48	10.05
298.15	0.4981	1562.18	10.05
298.15	0.998	1602.36	10.05
298.15	1.4985	1640.68	10.05
298.15	1.9946	1676.52	10.05
298.15	2.5002	1710.1	10.05
298.15	2.9993	1742.13	10.06
303.15	0	1537.82	10.05
303.15	0.0496	1542.42	10.05
303.15	0.102	1546.89	10.05
303.15	0.4981	1580.98	10.05
303.15	0.998	1620.78	10.05
303.15	1.4985	1658.56	10.05
303.15	1.9946	1693.82	10.05
303.15	2.5002	1729.86	10.06
303.15	2.9993	1764.36	10.06
308.15	0	1548.62	10.05
308.15	0.0496	1553.02	10.05
308.15	0.102	1557.49	10.05
308.15	0.4981	1591.78	10.05
308.15	0.998	1631.38	10.05
308.15	1.4985	1668.86	10.05
308.15	1.9946	1704.32	10.05
308.15	2.5002	1739.76	10.06
308.15	2.9993	1774.72	10.06
313.15	0	1558.82	10.05
313.15	0.0496	1563.12	10.05
313.15	0.102	1567.54	10.05
313.15	0.4981	1600.88	10.05
313.15	0.998	1639.98	10.05
313.15	1.4985	1678.72	10.05
313.15	1.9946	1714.85	10.05
313.15	2.5002	1750.98	10.06
313.15	2.9993	1785.36	10.06
318.15	0	1568.02	10.05
318.15	0.0496	1572.26	10.05
318.15	0.102	1576.52	10.05
318.15	0.4981	1608.78	10.05
318.15	0.998	1649.28	10.05
318.15	1.4985	1688.72	10.05
318.15	1.9946	1725.65	10.06
318.15	2.5002	1760.54	10.06
318.15	2.9993	1795.12	10.06

System: (trimethylammonio)acetate + water + magnesium chloride; phases: Liquid
Fixed: Pressure, kPa = 101
Fixed: Solvent: Molality, mol/kg of magnesium chloride = 0.3
Property: Mass density, kg/m3 (Liquid); method: Vibrating tube method
Temperature, K	Molality, mol/kg of (trimethylammonio)acetate	Mass density, kg/m3	uncertainty
288.15	0	1024.7	2
288.15	0.0495	1025.4	2
288.15	0.0996	1026.1	2
288.15	0.4975	1031.3	2
288.15	0.9862	1037	2
288.15	1.485	1042.1	2
288.15	1.974	1046.4	2
288.15	2.4956	1050.5	2
288.15	3	1053.8	2
293.15	0	1022.7	2
293.15	0.0495	1023.4	2
293.15	0.0996	1024.1	2
293.15	0.4975	1029.1	2
293.15	0.9862	1034.7	2
293.15	1.485	1039.7	2
293.15	1.974	1044	2
293.15	2.4956	1048	2
293.15	3	1051.2	2
298.15	0	1020.3	2
298.15	0.0495	1021	2
298.15	0.0996	1021.6	2
298.15	0.4975	1026.4	2
298.15	0.9862	1031.6	2
298.15	1.485	1036.3	2
298.15	1.974	1040.2	2
298.15	2.4956	1043.7	2
298.15	3	1046.2	2
303.15	0	1019.2	2
303.15	0.0495	1019.9	2
303.15	0.0996	1020.5	2
303.15	0.4975	1025.3	2
303.15	0.9862	1030.4	2
303.15	1.485	1034.9	2
303.15	1.974	1038.8	2
303.15	2.4956	1042.4	2
303.15	3	1045	2
308.15	0	1017.1	2
308.15	0.0495	1017.8	2
308.15	0.0996	1018.4	2
308.15	0.4975	1023.2	2
308.15	0.9862	1028.4	2
308.15	1.485	1033.2	2
308.15	1.974	1036.9	2
308.15	2.4956	1040.3	2
308.15	3	1043.1	2
313.15	0	1014.9	2
313.15	0.0495	1015.6	2
313.15	0.0996	1016.2	2
313.15	0.4975	1021	2
313.15	0.9862	1026.3	2
313.15	1.485	1030.9	2
313.15	1.974	1034.6	2
313.15	2.4956	1038.3	2
313.15	3	1041	2
318.15	0	1012.6	2
318.15	0.0495	1013.3	2
318.15	0.0996	1013.9	2
318.15	0.4975	1018.7	2
318.15	0.9862	1023.9	2
318.15	1.485	1028.5	2
318.15	1.974	1032.3	2
318.15	2.4956	1035.8	2
318.15	3	1038.5	2

System: (trimethylammonio)acetate + water + magnesium chloride; phases: Liquid
Fixed: Pressure, kPa = 101
Fixed: Solvent: Molality, mol/kg of magnesium chloride = 0.3
Fixed: Frequency, MHz = 1.999
Property: Speed of sound, m/s (Liquid); method: Sing-around technique in a fixed-path interferometer
Temperature, K	Molality, mol/kg of (trimethylammonio)acetate	Speed of sound, m/s	uncertainty
288.15	0	1510.34	10.08
288.15	0.0495	1515.56	10.08
288.15	0.0996	1520.48	10.08
288.15	0.4975	1558.18	10.08
288.15	0.9862	1602.6	10.08
288.15	1.485	1640.66	10.08
288.15	1.974	1678.72	10.08
288.15	2.4956	1710.94	10.08
288.15	3	1740.1	10.09
293.15	0	1518.62	10.08
293.15	0.0495	1523.78	10.08
293.15	0.0996	1528.72	10.08
293.15	0.4975	1566.94	10.08
293.15	0.9862	1611.38	10.08
293.15	1.485	1650.32	10.08
293.15	1.974	1685.68	10.08
293.15	2.4956	1720.24	10.08
293.15	3	1750.24	10.09
298.15	0	1529.12	10.08
298.15	0.0495	1534.12	10.08
298.15	0.0996	1538.88	10.08
298.15	0.4975	1575.72	10.08
298.15	0.9862	1619.58	10.08
298.15	1.485	1657.9	10.08
298.15	1.974	1696.16	10.08
298.15	2.4956	1734.42	10.09
298.15	3	1764.94	10.09
303.15	0	1540.04	10.08
303.15	0.0495	1544.94	10.08
303.15	0.0996	1549.62	10.08
303.15	0.4975	1586.16	10.08
303.15	0.9862	1627.82	10.08
303.15	1.485	1667.96	10.08
303.15	1.974	1705.36	10.08
303.15	2.4956	1744.1	10.09
303.15	3	1775.16	10.09
308.15	0	1551.88	10.08
308.15	0.0495	1556.78	10.08
308.15	0.0996	1561.34	10.08
308.15	0.4975	1596.86	10.08
308.15	0.9862	1637.72	10.08
308.15	1.485	1678.94	10.08
308.15	1.974	1714.64	10.08
308.15	2.4956	1753.18	10.09
308.15	3	1780.04	10.09
313.15	0	1563.02	10.08
313.15	0.0495	1567.8	10.08
313.15	0.0996	1572.42	10.08
313.15	0.4975	1607.5	10.08
313.15	0.9862	1649.3	10.08
313.15	1.485	1688.46	10.08
313.15	1.974	1725.76	10.08
313.15	2.4956	1762.18	10.09
313.15	3	1790.54	10.09
318.15	0	1573.42	10.08
318.15	0.0495	1578.06	10.08
318.15	0.0996	1582.32	10.08
318.15	0.4975	1617.7	10.08
318.15	0.9862	1658.38	10.08
318.15	1.485	1698.32	10.08
318.15	1.974	1733.26	10.09
318.15	2.4956	1770.62	10.09
318.15	3	1800.25	10.09

System: potassium chloride + water; phases: Liquid
Fixed: Pressure, kPa = 101
Fixed: Molality, mol/kg of potassium chloride = 0.3
Property: Mass density, kg/m3 (Liquid); method: Vibrating tube method
Temperature, K	Mass density, kg/m3	uncertainty
288.15	1019.9	2
293.15	1018.1	2
298.15	1016.9	2
303.15	1013.5	2
308.15	1008.5	2
313.15	1006.1	2
318.15	1003.4	2

System: potassium chloride + water; phases: Liquid
Fixed: Pressure, kPa = 101
Fixed: Molality, mol/kg of potassium chloride = 0.3
Fixed: Frequency, MHz = 1.999
Property: Speed of sound, m/s (Liquid); method: Sing-around technique in a fixed-path interferometer
Temperature, K	Speed of sound, m/s	uncertainty
288.15	1482.88	10.03
293.15	1500.76	10.03
298.15	1518.44	10.03
303.15	1537.82	10.03
308.15	1548.62	10.03
313.15	1558.82	10.03
318.15	1568.02	10.03

System: water + magnesium chloride; phases: Liquid
Fixed: Pressure, kPa = 101
Fixed: Molality, mol/kg of magnesium chloride = 0.3
Property: Mass density, kg/m3 (Liquid); method: Vibrating tube method
Temperature, K	Mass density, kg/m3	uncertainty
288.15	1024.7	2
293.15	1022.7	2
298.15	1020.3	2
303.15	1019.2	2
308.15	1017.1	2
313.15	1014.9	2
318.15	1012.6	2

System: water + magnesium chloride; phases: Liquid
Fixed: Pressure, kPa = 101
Fixed: Molality, mol/kg of magnesium chloride = 0.3
Fixed: Frequency, MHz = 1.999
Property: Speed of sound, m/s (Liquid); method: Sing-around technique in a fixed-path interferometer
Temperature, K	Speed of sound, m/s	uncertainty
288.15	1510.34	10.04
293.15	1518.62	10.04
298.15	1529.12	10.04
303.15	1540.04	10.04
308.15	1551.88	10.04
313.15	1563.02	10.04
318.15	1573.42	10.04
