Measured thermophysical data. Hydrothermal synthesis, characterization and thermochemistry of Ca2[B2O4(OH)2]*0.5H2O
Source: Thermochim. Acta, 2005, 10.1016/j.tca.2005.05.018
Compound 1: water, H2O, InChI=1S/H2O/h1H2
Compound 2: calcium hydroxide borate hydrate, B4Ca4H6O13, InChI=1S/4BO2.4Ca.5H2O/c4*2-1-3;;;;;;;;;/h;;;;;;;;5*1H2/q4*-1;4*+2;;;;;/p-4, purity 99%
Compound 3: calcium monoxide, CaO, InChI=1S/Ca.O/q+2;-2, purity 99%
Compound 4: boric acid, BH3O3, InChI=1S/BH3O3/c2-1(3)4/h2-4H, purity 99%

Reaction: -4 calcium monoxide + -4 boric acid + 1 calcium hydroxide borate hydrate + 3 water
Property: Molar enthalpy of reaction, kJ/mol
-243.62
