Measured thermophysical data. INCIDENCE OF CHIRALITY ON THE PROPERTIES OF  MIXTURES CONTAINING AN AMIDE TYPE ANESTHETIC  COMPOUND
Source: Thermochim. Acta, 2012, 10.1016/j.tca.2012.03.027
Compound 1: 2-(diethylamino)-N-(2,6-dimethylphenyl)acetamide, C14H22N2O, InChI=1S/C14H22N2O/c1-5-16(6-2)10-13(17)15-14-11(3)8-7-9-12(14)4/h7-9H,5-6,10H2,1-4H3,(H,15,17)
Compound 2: 1,7,7-trimethylbicyclo[2.2.1]-2-heptanone, C10H16O, InChI=1S/C10H16O/c1-9(2)7-4-5-10(9,3)8(11)6-7/h7H,4-6H2,1-3H3
Compound 3: d-camphor, C10H16O, InChI=1S/C10H16O/c1-9(2)7-4-5-10(9,3)8(11)6-7/h7H,4-6H2,1-3H3/t7-,10+/m1/s1

System: 1,7,7-trimethylbicyclo[2.2.1]-2-heptanone; phases: Crystal 2, Crystal 1, Air at 1 atmosphere
Property: Triple point temperature, K (Crystal 2); method: DTA
Triple point temperature, K	uncertainty
362	4

System: d-camphor; phases: Crystal 2, Crystal 1, Air at 1 atmosphere
Property: Triple point temperature, K (Crystal 2); method: DTA
Triple point temperature, K	uncertainty
367	3

System: 2-(diethylamino)-N-(2,6-dimethylphenyl)acetamide + d-camphor; phases: Crystal, Crystal, Liquid, Air at 1 atmosphere
Property: Eutectic composition: mole fraction of 2-(diethylamino)-N-(2,6-dimethylphenyl)acetamide (Crystal); method: Derived from phase diagram analysis
Eutectic composition: mole fraction of 2-(diethylamino)-N-(2,6-dimethylphenyl)acetamide	uncertainty
0.47	0.04

System: 2-(diethylamino)-N-(2,6-dimethylphenyl)acetamide + d-camphor; phases: Liquid, Crystal
Property: Molar enthalpy, kJ/mol (Liquid); method: Small sample (50 mg) DSC
Temperature, K	Pressure, kPa	Molar enthalpy, kJ/mol	uncertainty
293	101	4.4	0.6

System: 2-(diethylamino)-N-(2,6-dimethylphenyl)acetamide + d-camphor; phases: Liquid, Crystal
Fixed: Pressure, kPa = 101
Property: Solid-liquid equilibrium temperature, K (Liquid); method: DTA
Mole fraction of 2-(diethylamino)-N-(2,6-dimethylphenyl)acetamide	Solid-liquid equilibrium temperature, K	uncertainty
0.024	442.82	0.39
0.067	425.36	0.4
0.118	410.59	0.39
0.155	403.11	0.39
0.199	387.13	0.39
0.273	363.75	0.39
0.295	353.79	0.39
0.35	330.5	0.41
0.4	312.29	0.39
0.448	293.51	0.39

System: 2-(diethylamino)-N-(2,6-dimethylphenyl)acetamide + d-camphor; phases: Liquid, Crystal
Fixed: Pressure, kPa = 101
Property: Solid-liquid equilibrium temperature, K (Liquid); method: DTA
Mole fraction of 2-(diethylamino)-N-(2,6-dimethylphenyl)acetamide	Solid-liquid equilibrium temperature, K	uncertainty
0.448	293.51	0.39
0.53	305.43	0.39
0.633	312.86	0.39
0.702	316.92	0.39
0.77	323.55	0.39
0.861	333.5	0.53
0.971	339.77	0.39

System: 2-(diethylamino)-N-(2,6-dimethylphenyl)acetamide + d-camphor; phases: Liquid, Crystal, Crystal
Property: Eutectic temperature, K (Liquid); method: DTA
Pressure, kPa	Eutectic temperature, K	uncertainty
101.3	293	6

System: 1,7,7-trimethylbicyclo[2.2.1]-2-heptanone + 2-(diethylamino)-N-(2,6-dimethylphenyl)acetamide; phases: Crystal, Crystal, Liquid, Air at 1 atmosphere
Property: Eutectic composition: mole fraction of 2-(diethylamino)-N-(2,6-dimethylphenyl)acetamide (Crystal); method: Derived from phase diagram analysis
Eutectic composition: mole fraction of 2-(diethylamino)-N-(2,6-dimethylphenyl)acetamide	uncertainty
0.47	0.08

System: 1,7,7-trimethylbicyclo[2.2.1]-2-heptanone + 2-(diethylamino)-N-(2,6-dimethylphenyl)acetamide; phases: Liquid, Crystal
Property: Molar enthalpy, kJ/mol (Liquid); method: Small sample (50 mg) DSC
Temperature, K	Pressure, kPa	Molar enthalpy, kJ/mol	uncertainty
293	101	5.5	0.7

System: 1,7,7-trimethylbicyclo[2.2.1]-2-heptanone + 2-(diethylamino)-N-(2,6-dimethylphenyl)acetamide; phases: Liquid, Crystal
Fixed: Pressure, kPa = 101
Property: Solid-liquid equilibrium temperature, K (Liquid); method: DTA
Mole fraction of 2-(diethylamino)-N-(2,6-dimethylphenyl)acetamide	Solid-liquid equilibrium temperature, K	uncertainty
0.023	437.75	0.39
0.054	428.45	0.39
0.078	420.45	0.39
0.12	407.32	0.39
0.151	399.2	0.53
0.181	387.23	0.4
0.203	374.76	0.4
0.22	370.5	0.41
0.282	357.74	0.39
0.349	329.4	0.7
0.405	305.8	0.41
0.438	293.12	0.39
0.46	290.6	0.53

System: 1,7,7-trimethylbicyclo[2.2.1]-2-heptanone + 2-(diethylamino)-N-(2,6-dimethylphenyl)acetamide; phases: Liquid, Crystal
Fixed: Pressure, kPa = 101
Property: Solid-liquid equilibrium temperature, K (Liquid); method: DTA
Mole fraction of 2-(diethylamino)-N-(2,6-dimethylphenyl)acetamide	Solid-liquid equilibrium temperature, K	uncertainty
0.501	302.13	0.39
0.585	308.53	0.39
0.65	315.35	0.39
0.705	319.37	0.39
0.778	326.49	0.39
0.838	329.79	0.39
0.923	337.07	0.4
0.979	341.69	0.4

System: 1,7,7-trimethylbicyclo[2.2.1]-2-heptanone + 2-(diethylamino)-N-(2,6-dimethylphenyl)acetamide; phases: Liquid, Crystal, Crystal
Property: Eutectic temperature, K (Liquid); method: DTA
Pressure, kPa	Eutectic temperature, K	uncertainty
101.3	293	6
